version 3
run BreakRanksNoGui-573-20240710-17:11:13-270001
attr configname BreakRanksNoGui
attr datetime 20240710-17:11:13
attr datetimef 20240710-171113
attr experiment BreakRanksNoGui
attr inifile omnetpp.ini
attr iterationvars "$nCars=3, $platoonSize=2, $nLanes=1, $ploegH=0.5, $controller=1, $headway=0.1, $leaderHeadway=1.2, $leaderSpeed=130, $breakRanksSafetyDistance=3, $minSpeed=120, $maxSpeed=140, $beaconInterval=0.1, $priority=4, $packetSize=200, $sController=\"CACC\", $0=2, $1=0"
attr iterationvarsd nCars=3/platoonSize=2/nLanes=1/ploegH=0.5/controller=1/headway=0.1/leaderHeadway=1.2/leaderSpeed=130/breakRanksSafetyDistance=3/minSpeed=120/maxSpeed=140/beaconInterval=0.1/priority=4/packetSize=200/sController=CACC/2/0
attr iterationvarsf nCars=3,platoonSize=2,nLanes=1,ploegH=0.5,controller=1,headway=0.1,leaderHeadway=1.2,leaderSpeed=130,breakRanksSafetyDistance=3,minSpeed=120,maxSpeed=140,beaconInterval=0.1,priority=4,packetSize=200,sController=CACC,2,0-
attr measurement "$nCars=3, $platoonSize=2, $nLanes=1, $ploegH=0.5, $controller=1, $headway=0.1, $leaderHeadway=1.2, $leaderSpeed=130, $breakRanksSafetyDistance=3, $minSpeed=120, $maxSpeed=140, $beaconInterval=0.1, $priority=4, $packetSize=200, $sController=\"CACC\", $0=2, $1=0"
attr network Highway
attr processid 270001
attr repetition 3
attr replication #3
attr resultdir results
attr runnumber 573
attr seedset 3
itervar beaconInterval 0.1
itervar breakRanksSafetyDistance 3
itervar controller 1
itervar headway 0.1
itervar leaderHeadway 1.2
itervar leaderSpeed 130
itervar maxSpeed 140
itervar minSpeed 120
itervar nCars 3
itervar nLanes 1
itervar packetSize 200
itervar platoonSize 2
itervar ploegH 0.5
itervar priority 4
itervar sController "\"CACC\""
config image-path ../../../veins/images
config repeat 10
config extends BreakRanks
config *.manager.command "\"sumo\""
config *.manager.ignoreGuiCommands true
config output-vector-file "results/BreakRanks_1_0.1_130_3_2 /result_3.vec"
config output-scalar-file "results/BreakRanks_1_0.1_130_3_2 /result_3.sca"
config extends Platooning
config *.node[*].scenario_type "\"BreakRanksScenario\""
config *.manager.command "\"sumo-gui\""
config *.node[*].scenario_type "\"SimpleScenario\""
config cmdenv-express-mode true
config cmdenv-autoflush true
config cmdenv-status-frequency 15s
config num-rngs 6
config network Highway
config debug-on-errors true
config print-undisposed true
config *.playgroundSizeX 65000m
config *.playgroundSizeY 25000m
config *.playgroundSizeZ 50m
config sim-time-limit "100 s"
config *.annotations.draw false
config *.obstacles.debug false
config *.world.useTorus false
config *.world.use2D false
config *.manager.updateInterval 0.01s
config *.manager.host "\"localhost\""
config *.manager.moduleType "\"org.car2x.plexe.PlatoonCar\""
config *.manager.moduleName "\"node\""
config *.manager.moduleDisplayString "\"\""
config *.manager.autoShutdown true
config *.manager.margin 25
config *.connectionManager.sendDirect true
config *.connectionManager.maxInterfDist 2600m
config *.connectionManager.drawMaxIntfDist false
config *.**.nic.mac1609_4.useServiceChannel false
config *.**.nic.mac1609_4.txPower 100mW
config *.**.nic.mac1609_4.bitrate 6Mbps
config *.**.nic.mac1609_4.useAcks true
config *.**.nic.mac1609_4.ackErrorRate 0.0
config *.**.nic.mac1609_4.frameErrorRate 0.0
config *.**.nic.phy80211p.minPowerLevel -94dBm
config *.**.nic.phy80211p.maxTXPower 100mW
config *.**.nic.phy80211p.useNoiseFloor true
config *.**.nic.phy80211p.noiseFloor -95dBm
config *.**.nic.phy80211p.decider "xmldoc(\"config.xml\")"
config *.**.nic.phy80211p.analogueModels "xmldoc(\"config.xml\")"
config *.**.nic.phy80211p.usePropagationDelay true
config *.node[*].mobility.x 0
config *.node[*].mobility.y 0
config *.node[*].mobility.z 1.895
config seed-set 3
config **.seed 3
config *.node[*].prot.rng-0 2
config *.node[*].appl.rng-0 3
config *.node[*].scenario.rng-0 4
config **.traffic.rng-0 5
config *.manager.configFile "\"./sumocfg/freeway.sumo.cfg\""
config *.manager.launchConfig "xmldoc(\"./sumocfg/freeway.launchd.xml\")"
config **.numberOfCars 3
config **.numberOfCarsPerPlatoon 2
config **.numberOfLanes 1
config *.node[*].helper_type "\"PositionHelper\""
config *.node[*].scenario.caccC1 0.5
config *.node[*].scenario.caccXi 1
config *.node[*].scenario.caccOmegaN "0.2 Hz"
config *.node[*].scenario.caccSpacing "2 m"
config *.node[*].scenario.engineTau "0.5 s"
config *.node[*].scenario.ploegH 0.5s
config *.node[*].scenario.ploegKp 0.2
config *.node[*].scenario.ploegKd 0.7
config *.node[*].scenario.useRealisticEngine false
config *.node[*].scenario.useControllerAcceleration true
config *.node[*].scenario.nLanes 1
config **.numericController 1
config **.headway 0.1s
config *.node[*].scenario.accHeadway 0.1s
config *.node[*].scenario.leaderHeadway 1.2s
config *.node[*].scenario.leaderSpeed 130kmph
config *.node[*].appl_type "\"SimplePlatooningApp\""
config *.node[*].appl.*.scalar-recording true
config *.node[*].appl.*.vector-recording true
config *.node[0].appl.breakRanksSafetyDistance 3m
config *.node[*].appl.minSpeed 120kmph
config *.node[*].appl.maxSpeed 140kmph
config *.node[*].protocol_type "\"SimplePlatooningBeaconing\""
config *.node[*].prot.*.scalar-recording true
config *.node[*].prot.*.vector-recording true
config *.node[*].prot.beaconingInterval 0.1s
config *.node[*].prot.priority 4
config *.node[*].prot.packetSize 200
config **.traffic_type "\"PlatoonsTrafficManager\""
config **.traffic.platoonInsertTime "1 s"
config **.traffic.platoonInsertSpeed 130kmph
config **.traffic.nCars 3
config **.traffic.platoonSize 2
config **.traffic.nLanes 1
config **.traffic.platooningVType "\"vtypeauto\""
config **.traffic.controller "\"CACC\""
config **.traffic.platoonInsertDistance 2m
config **.traffic.platoonInsertHeadway 0s
config **.traffic.platoonLeaderHeadway 1.2s
config **.scalar-recording false
config **.vector-recording false

vector 0 Highway.node[0].appl distance ETV
vector 1 Highway.node[0].appl relativeSpeed ETV
vector 2 Highway.node[0].appl nodeId ETV
vector 3 Highway.node[0].appl acceleration ETV
vector 4 Highway.node[0].appl controllerAcceleration ETV
vector 5 Highway.node[0].appl speed ETV
vector 6 Highway.node[0].appl posx ETV
vector 7 Highway.node[0].appl posy ETV
vector 8 Highway.node[1].appl distance ETV
vector 9 Highway.node[1].appl relativeSpeed ETV
vector 10 Highway.node[1].appl nodeId ETV
vector 11 Highway.node[1].appl acceleration ETV
vector 12 Highway.node[1].appl controllerAcceleration ETV
vector 13 Highway.node[1].appl speed ETV
vector 14 Highway.node[1].appl posx ETV
vector 15 Highway.node[1].appl posy ETV
vector 16 Highway.node[2].appl distance ETV
vector 17 Highway.node[2].appl relativeSpeed ETV
vector 18 Highway.node[2].appl nodeId ETV
vector 19 Highway.node[2].appl acceleration ETV
vector 20 Highway.node[2].appl controllerAcceleration ETV
vector 21 Highway.node[2].appl speed ETV
vector 22 Highway.node[2].appl posx ETV
vector 23 Highway.node[2].appl posy ETV
vector 24 Highway.node[1].prot leaderDelay ETV
vector 25 Highway.node[1].prot leaderDelayId ETV
vector 26 Highway.node[1].prot frontDelay ETV
vector 27 Highway.node[1].prot frontDelayId ETV
vector 28 Highway.node[0].prot nodeId ETV
vector 29 Highway.node[0].prot busyTime ETV
vector 30 Highway.node[0].prot collisions ETV
vector 31 Highway.node[1].prot nodeId ETV
vector 32 Highway.node[1].prot busyTime ETV
vector 33 Highway.node[1].prot collisions ETV
vector 34 Highway.node[2].prot nodeId ETV
vector 35 Highway.node[2].prot busyTime ETV
vector 36 Highway.node[2].prot collisions ETV
0	113	1.11	9341.16
0	172	1.21	9341.16
0	231	1.31	9341.16
0	290	1.41	9341.16
0	349	1.51	9341.16
0	408	1.61	9341.16
0	467	1.71	9341.16
0	526	1.81	9341.16
0	585	1.91	9341.16
0	647	2.01	-1
0	706	2.11	-1
0	765	2.21	-1
0	824	2.31	-1
0	883	2.41	-1
0	942	2.51	-1
0	1001	2.61	-1
0	1060	2.71	-1
0	1119	2.81	-1
0	1178	2.91	-1
0	1240	3.01	-1
0	1299	3.11	-1
0	1358	3.21	-1
0	1417	3.31	-1
0	1476	3.41	-1
0	1535	3.51	-1
0	1594	3.61	-1
0	1653	3.71	-1
0	1712	3.81	-1
0	1771	3.91	-1
0	1833	4.01	-1
0	1892	4.11	-1
0	1951	4.21	-1
0	2010	4.31	-1
0	2069	4.41	-1
0	2128	4.51	-1
0	2187	4.61	-1
0	2246	4.71	-1
0	2305	4.81	-1
0	2364	4.91	-1
0	2426	5.01	-1
0	2485	5.11	-1
0	2544	5.21	-1
0	2603	5.31	-1
0	2662	5.41	-1
0	2721	5.51	-1
0	2780	5.61	-1
0	2839	5.71	-1
0	2898	5.81	-1
0	2957	5.91	-1
0	3019	6.01	-1
0	3078	6.11	-1
0	3137	6.21	-1
0	3196	6.31	-1
0	3255	6.41	-1
0	3314	6.51	-1
0	3373	6.61	-1
0	3432	6.71	-1
0	3491	6.81	-1
0	3550	6.91	-1
0	3612	7.01	-1
0	3671	7.11	-1
0	3730	7.21	-1
0	3789	7.31	-1
0	3848	7.41	-1
0	3907	7.51	-1
0	3966	7.61	-1
0	4025	7.71	-1
0	4084	7.81	-1
0	4143	7.91	-1
0	4205	8.01	-1
0	4264	8.11	-1
0	4323	8.21	-1
0	4382	8.31	-1
0	4441	8.41	-1
0	4500	8.51	-1
0	4559	8.61	-1
0	4618	8.71	-1
0	4677	8.81	-1
0	4736	8.91	-1
0	4798	9.01	-1
0	4857	9.11	-1
0	4916	9.21	-1
0	4975	9.31	-1
0	5034	9.41	-1
0	5093	9.51	-1
0	5152	9.61	-1
0	5211	9.71	-1
0	5270	9.81	-1
0	5329	9.91	-1
0	5422	10.01	-1
0	5482	10.11	-1
0	5542	10.21	-1
0	5602	10.31	-1
0	5662	10.41	-1
0	5722	10.51	-1
0	5782	10.61	-1
0	5842	10.71	-1
0	5902	10.81	-1
0	5962	10.91	-1
0	6025	11.01	-1
0	6085	11.11	-1
0	6145	11.21	-1
0	6205	11.31	-1
0	6265	11.41	-1
0	6325	11.51	-1
0	6385	11.61	-1
0	6445	11.71	-1
0	6505	11.81	-1
0	6565	11.91	-1
0	6628	12.01	-1
0	6688	12.11	-1
0	6748	12.21	-1
0	6808	12.31	-1
0	6868	12.41	-1
0	6928	12.51	-1
0	6988	12.61	-1
0	7048	12.71	-1
0	7108	12.81	-1
0	7168	12.91	-1
0	7231	13.01	-1
0	7291	13.11	-1
0	7351	13.21	-1
0	7411	13.31	-1
0	7471	13.41	-1
0	7531	13.51	-1
0	7591	13.61	-1
0	7651	13.71	-1
0	7711	13.81	-1
0	7771	13.91	-1
0	7834	14.01	-1
0	7894	14.11	-1
0	7954	14.21	-1
0	8014	14.31	-1
0	8074	14.41	-1
0	8134	14.51	-1
0	8194	14.61	-1
0	8254	14.71	-1
0	8314	14.81	-1
0	8374	14.91	-1
0	8437	15.01	-1
0	8497	15.11	-1
0	8557	15.21	-1
0	8617	15.31	-1
0	8677	15.41	-1
0	8737	15.51	-1
0	8797	15.61	-1
0	8857	15.71	-1
0	8917	15.81	-1
0	8977	15.91	-1
0	9040	16.01	-1
0	9100	16.11	-1
0	9160	16.21	-1
0	9220	16.31	-1
0	9280	16.41	-1
0	9340	16.51	-1
0	9400	16.61	-1
0	9460	16.71	-1
0	9520	16.81	-1
0	9580	16.91	-1
0	9643	17.01	-1
0	9703	17.11	-1
0	9763	17.21	-1
0	9823	17.31	-1
0	9883	17.41	-1
0	9943	17.51	-1
0	10003	17.61	-1
0	10063	17.71	-1
0	10123	17.81	-1
0	10183	17.91	-1
0	10246	18.01	-1
0	10306	18.11	-1
0	10366	18.21	-1
0	10426	18.31	-1
0	10486	18.41	-1
0	10546	18.51	-1
0	10606	18.61	-1
0	10666	18.71	-1
0	10726	18.81	-1
0	10786	18.91	-1
0	10849	19.01	-1
0	10909	19.11	-1
0	10969	19.21	-1
0	11029	19.31	-1
0	11089	19.41	-1
0	11149	19.51	-1
0	11209	19.61	-1
0	11269	19.71	-1
0	11329	19.81	-1
0	11389	19.91	-1
0	11452	20.01	-1
0	11512	20.11	-1
0	11572	20.21	-1
0	11632	20.31	-1
0	11692	20.41	-1
0	11752	20.51	-1
0	11812	20.61	-1
0	11872	20.71	-1
0	11932	20.81	-1
0	11992	20.91	-1
0	12055	21.01	-1
0	12115	21.11	-1
0	12175	21.21	-1
0	12235	21.31	-1
0	12295	21.41	-1
0	12355	21.51	-1
0	12415	21.61	-1
0	12475	21.71	-1
0	12535	21.81	-1
0	12595	21.91	-1
0	12658	22.01	-1
0	12718	22.11	-1
0	12778	22.21	-1
0	12838	22.31	-1
0	12898	22.41	-1
0	12958	22.51	-1
0	13018	22.61	-1
0	13078	22.71	-1
0	13138	22.81	-1
0	13198	22.91	-1
0	13261	23.01	-1
0	13321	23.11	-1
0	13381	23.21	-1
0	13441	23.31	-1
0	13501	23.41	-1
0	13561	23.51	-1
0	13621	23.61	-1
0	13681	23.71	-1
0	13741	23.81	-1
0	13801	23.91	-1
0	13864	24.01	-1
0	13924	24.11	-1
0	13984	24.21	-1
0	14044	24.31	-1
0	14104	24.41	-1
0	14164	24.51	-1
0	14224	24.61	-1
0	14284	24.71	-1
0	14344	24.81	-1
0	14404	24.91	-1
0	14467	25.01	-1
0	14527	25.11	-1
0	14587	25.21	-1
0	14647	25.31	-1
0	14707	25.41	-1
0	14767	25.51	-1
0	14827	25.61	-1
0	14887	25.71	-1
0	14947	25.81	-1
0	15007	25.91	-1
0	15070	26.01	-1
0	15130	26.11	-1
0	15190	26.21	-1
0	15250	26.31	-1
0	15310	26.41	-1
0	15370	26.51	-1
0	15430	26.61	-1
0	15490	26.71	-1
0	15550	26.81	-1
0	15610	26.91	-1
0	15673	27.01	-1
0	15733	27.11	-1
0	15793	27.21	-1
0	15853	27.31	-1
0	15913	27.41	-1
0	15973	27.51	-1
0	16033	27.61	-1
0	16093	27.71	-1
0	16153	27.81	-1
0	16213	27.91	-1
0	16276	28.01	-1
0	16336	28.11	-1
0	16396	28.21	-1
0	16456	28.31	-1
0	16516	28.41	-1
0	16576	28.51	-1
0	16636	28.61	-1
0	16696	28.71	-1
0	16756	28.81	-1
0	16816	28.91	-1
0	16879	29.01	-1
0	16939	29.11	-1
0	16999	29.21	-1
0	17125	29.31	-1
0	17184	29.41	-1
0	17243	29.51	-1
0	17302	29.61	-1
0	17361	29.71	-1
0	17420	29.81	-1
0	17479	29.91	-1
0	17541	30.01	-1
0	17600	30.11	-1
0	17659	30.21	-1
0	17718	30.31	-1
0	17777	30.41	-1
0	17836	30.51	-1
0	17895	30.61	-1
0	17954	30.71	-1
0	18013	30.81	-1
0	18072	30.91	-1
0	18134	31.01	-1
0	18193	31.11	-1
0	18252	31.21	-1
0	18311	31.31	-1
0	18370	31.41	-1
0	18429	31.51	-1
0	18488	31.61	-1
0	18547	31.71	-1
0	18606	31.81	-1
0	18665	31.91	-1
0	18727	32.01	-1
0	18786	32.11	-1
0	18845	32.21	-1
0	18904	32.31	-1
0	18963	32.41	-1
0	19022	32.51	-1
0	19081	32.61	-1
0	19140	32.71	-1
0	19199	32.81	-1
0	19258	32.91	-1
0	19320	33.01	-1
0	19379	33.11	-1
0	19438	33.21	-1
0	19497	33.31	-1
0	19556	33.41	-1
0	19615	33.51	-1
0	19674	33.61	-1
0	19733	33.71	-1
0	19792	33.81	-1
0	19851	33.91	-1
0	19913	34.01	-1
0	19972	34.11	-1
0	20031	34.21	-1
0	20090	34.31	-1
0	20149	34.41	-1
0	20208	34.51	-1
0	20267	34.61	-1
0	20326	34.71	-1
0	20385	34.81	-1
0	20444	34.91	-1
0	20506	35.01	-1
0	20565	35.11	-1
0	20624	35.21	-1
0	20683	35.31	-1
0	20742	35.41	-1
0	20801	35.51	-1
0	20860	35.61	-1
0	20919	35.71	-1
0	20978	35.81	-1
0	21037	35.91	-1
0	21099	36.01	-1
0	21158	36.11	-1
0	21217	36.21	-1
0	21276	36.31	-1
0	21335	36.41	-1
0	21394	36.51	-1
0	21453	36.61	-1
0	21512	36.71	-1
0	21571	36.81	-1
0	21630	36.91	-1
0	21692	37.01	-1
0	21751	37.11	-1
0	21810	37.21	-1
0	21869	37.31	-1
0	21928	37.41	-1
0	21987	37.51	-1
0	22046	37.61	-1
0	22105	37.71	-1
0	22164	37.81	-1
0	22223	37.91	-1
0	22285	38.01	-1
0	22344	38.11	-1
0	22403	38.21	-1
0	22462	38.31	-1
0	22521	38.41	-1
0	22580	38.51	-1
0	22639	38.61	-1
0	22698	38.71	-1
0	22757	38.81	-1
0	22816	38.91	-1
0	22878	39.01	-1
0	22937	39.11	-1
0	22996	39.21	-1
0	23055	39.31	-1
0	23114	39.41	-1
0	23173	39.51	-1
0	23232	39.61	-1
0	23291	39.71	-1
0	23350	39.81	-1
0	23409	39.91	-1
0	23471	40.01	-1
0	23530	40.11	-1
0	23589	40.21	-1
0	23648	40.31	-1
0	23707	40.41	-1
0	23766	40.51	-1
0	23825	40.61	-1
0	23884	40.71	-1
0	23943	40.81	-1
0	24002	40.91	-1
0	24064	41.01	-1
0	24123	41.11	-1
0	24182	41.21	-1
0	24241	41.31	-1
0	24300	41.41	-1
0	24359	41.51	-1
0	24418	41.61	-1
0	24477	41.71	-1
0	24536	41.81	-1
0	24595	41.91	-1
0	24657	42.01	-1
0	24716	42.11	-1
0	24775	42.21	-1
0	24834	42.31	-1
0	24893	42.41	-1
0	24952	42.51	-1
0	25011	42.61	-1
0	25070	42.71	-1
0	25129	42.81	-1
0	25188	42.91	-1
0	25250	43.01	-1
0	25309	43.11	-1
0	25368	43.21	-1
0	25427	43.31	-1
0	25486	43.41	-1
0	25545	43.51	-1
0	25604	43.61	-1
0	25663	43.71	-1
0	25722	43.81	-1
0	25781	43.91	-1
0	25843	44.01	-1
0	25902	44.11	-1
0	25961	44.21	-1
0	26020	44.31	-1
0	26079	44.41	-1
0	26138	44.51	-1
0	26197	44.61	-1
0	26256	44.71	-1
0	26315	44.81	-1
0	26374	44.91	-1
0	26436	45.01	-1
0	26495	45.11	-1
0	26554	45.21	-1
0	26613	45.31	-1
0	26672	45.41	-1
0	26731	45.51	-1
0	26790	45.61	-1
0	26849	45.71	-1
0	26908	45.81	-1
0	26967	45.91	-1
0	27029	46.01	-1
0	27088	46.11	-1
0	27147	46.21	-1
0	27206	46.31	-1
0	27265	46.41	-1
0	27324	46.51	-1
0	27383	46.61	-1
0	27442	46.71	-1
0	27501	46.81	-1
0	27560	46.91	-1
0	27622	47.01	-1
0	27681	47.11	-1
0	27740	47.21	-1
0	27799	47.31	-1
0	27858	47.41	-1
0	27917	47.51	-1
0	27976	47.61	-1
0	28035	47.71	-1
0	28094	47.81	-1
0	28153	47.91	-1
0	28215	48.01	-1
0	28274	48.11	-1
0	28333	48.21	-1
0	28392	48.31	-1
0	28451	48.41	-1
0	28510	48.51	-1
0	28569	48.61	-1
0	28628	48.71	-1
0	28687	48.81	-1
0	28746	48.91	-1
0	28808	49.01	-1
0	28867	49.11	-1
0	28926	49.21	-1
0	28985	49.31	-1
0	29044	49.41	-1
0	29103	49.51	-1
0	29162	49.61	-1
0	29221	49.71	-1
0	29280	49.81	-1
0	29339	49.91	-1
0	29401	50.01	-1
0	29460	50.11	-1
0	29519	50.21	-1
0	29578	50.31	-1
0	29637	50.41	-1
0	29696	50.51	-1
0	29755	50.61	-1
0	29814	50.71	-1
0	29873	50.81	-1
0	29932	50.91	-1
0	29994	51.01	-1
0	30053	51.11	-1
0	30112	51.21	28.3474
0	30171	51.31	28.5363
0	30230	51.41	28.7252
0	30289	51.51	28.9141
0	30348	51.61	29.103
0	30407	51.71	29.2919
0	30466	51.81	29.4808
0	30525	51.91	29.6697
0	30587	52.01	29.8586
0	30646	52.11	30.0475
0	30705	52.21	30.2363
0	30764	52.31	30.4252
0	30823	52.41	30.6141
0	30882	52.51	30.803
0	30941	52.61	30.9919
0	31000	52.71	31.1808
0	31059	52.81	31.3697
0	31118	52.91	31.5586
0	31180	53.01	31.7475
0	31239	53.11	31.9364
0	31298	53.21	32.1252
0	31357	53.31	32.3141
0	31416	53.41	32.503
0	31475	53.51	32.6919
0	31534	53.61	32.8808
0	31593	53.71	33.0697
0	31652	53.81	33.2586
0	31711	53.91	33.4475
0	31773	54.01	33.6364
0	31832	54.11	33.8253
0	31891	54.21	34.0141
0	31950	54.31	34.203
0	32009	54.41	34.3919
0	32068	54.51	34.5808
0	32127	54.61	34.7697
0	32186	54.71	34.9586
0	32245	54.81	35.1475
0	32304	54.91	35.3364
0	32366	55.01	35.5253
0	32425	55.11	35.7142
0	32484	55.21	35.903
0	32543	55.31	36.0919
0	32602	55.41	36.2808
0	32661	55.51	36.4697
0	32720	55.61	36.6586
0	32779	55.71	36.8475
0	32838	55.81	37.0364
0	32897	55.91	37.2253
0	32959	56.01	37.4142
0	33018	56.11	37.6031
0	33077	56.21	37.7919
0	33136	56.31	37.9808
0	33195	56.41	38.1697
0	33254	56.51	38.3586
0	33313	56.61	38.5475
0	33372	56.71	38.7364
0	33431	56.81	38.9253
0	33490	56.91	39.1142
0	33552	57.01	39.3031
0	33611	57.11	39.492
0	33670	57.21	39.6808
0	33729	57.31	39.8697
0	33788	57.41	40.0586
0	33847	57.51	40.2475
0	33906	57.61	40.4364
0	33965	57.71	40.6253
0	34024	57.81	40.8142
0	34083	57.91	41.0031
0	34145	58.01	41.192
0	34204	58.11	41.3809
0	34263	58.21	41.5697
0	34322	58.31	41.7586
0	34381	58.41	41.9475
0	34440	58.51	42.1364
0	34499	58.61	42.3253
0	34558	58.71	42.5142
0	34617	58.81	42.7031
0	34676	58.91	42.892
0	34738	59.01	43.0809
0	34797	59.11	43.2698
0	34856	59.21	43.4586
0	34915	59.31	43.6475
0	34974	59.41	43.8364
0	35033	59.51	44.0253
0	35092	59.61	44.2142
0	35151	59.71	44.4031
0	35210	59.81	44.592
0	35269	59.91	44.7809
0	35331	60.01	44.9698
0	35390	60.11	45.1587
0	35449	60.21	45.3475
0	35508	60.31	45.5364
0	35567	60.41	45.7253
0	35626	60.51	45.9142
0	35685	60.61	46.1031
0	35744	60.71	46.292
0	35803	60.81	46.4809
0	35862	60.91	46.6698
0	35924	61.01	46.8587
0	35983	61.11	47.0476
0	36042	61.21	47.2364
0	36101	61.31	47.4253
0	36160	61.41	47.6142
0	36219	61.51	47.8031
0	36278	61.61	47.992
0	36337	61.71	48.1809
0	36396	61.81	48.3698
0	36455	61.91	48.5587
0	36517	62.01	48.7476
0	36576	62.11	48.9365
0	36635	62.21	49.1253
0	36694	62.31	49.3142
0	36753	62.41	49.5031
0	36812	62.51	49.692
0	36871	62.61	49.8809
0	36930	62.71	50.0698
0	36989	62.81	50.2587
0	37048	62.91	50.4476
0	37110	63.01	50.6365
0	37169	63.11	50.8254
0	37228	63.21	51.0142
0	37287	63.31	51.2031
0	37346	63.41	51.392
0	37405	63.51	51.5809
0	37464	63.61	51.7698
0	37523	63.71	51.9587
0	37582	63.81	52.1476
0	37641	63.91	52.3365
0	37703	64.01	52.5254
0	37762	64.11	52.7143
0	37821	64.21	52.9031
0	37880	64.31	53.092
0	37939	64.41	53.2809
0	37998	64.51	53.4698
0	38057	64.61	53.6587
0	38116	64.71	53.8476
0	38175	64.81	54.0365
0	38234	64.91	54.2254
0	38296	65.01	54.4143
0	38355	65.11	54.6032
0	38414	65.21	54.792
0	38473	65.31	54.9809
0	38532	65.41	55.1698
0	38591	65.51	55.3587
0	38650	65.61	55.5476
0	38709	65.71	55.7365
0	38768	65.81	55.9254
0	38827	65.91	56.1143
0	38889	66.01	56.3032
0	38948	66.11	56.4921
0	39007	66.21	56.6809
0	39066	66.31	56.8698
0	39125	66.41	57.0587
0	39184	66.51	57.2476
0	39243	66.61	57.4365
0	39302	66.71	57.6254
0	39361	66.81	57.8143
0	39420	66.91	58.0032
0	39482	67.01	58.1921
0	39541	67.11	58.381
0	39600	67.21	58.5698
0	39659	67.31	58.7587
0	39718	67.41	58.9476
0	39777	67.51	59.1365
0	39836	67.61	59.3254
0	39895	67.71	59.5143
0	39954	67.81	59.7032
0	40013	67.91	59.8921
0	40075	68.01	60.081
0	40134	68.11	60.2699
0	40193	68.21	60.4587
0	40252	68.31	60.6476
0	40311	68.41	60.8365
0	40370	68.51	61.0254
0	40429	68.61	61.2143
0	40488	68.71	61.4032
0	40547	68.81	61.5921
0	40606	68.91	61.781
0	40668	69.01	61.9699
0	40727	69.11	62.1588
0	40786	69.21	62.3476
0	40845	69.31	62.5365
0	40904	69.41	62.7254
0	40963	69.51	62.9143
0	41022	69.61	63.1032
0	41081	69.71	63.2921
0	41140	69.81	63.481
0	41199	69.91	63.6699
0	41261	70.01	63.8588
0	41320	70.11	64.0477
0	41379	70.21	64.2365
0	41438	70.31	64.4254
0	41497	70.41	64.6143
0	41556	70.51	64.8032
0	41615	70.61	64.9921
0	41674	70.71	65.181
0	41733	70.81	65.3699
0	41792	70.91	65.5588
0	41854	71.01	65.7477
0	41913	71.11	65.9366
0	41972	71.21	66.1254
0	42031	71.31	66.3143
0	42090	71.41	66.5032
0	42149	71.51	66.6921
0	42208	71.61	66.881
0	42267	71.71	67.0699
0	42326	71.81	67.2588
0	42385	71.91	67.4477
0	42447	72.01	67.6366
0	42506	72.11	67.8255
0	42565	72.21	68.0143
0	42624	72.31	68.2032
0	42683	72.41	68.3921
0	42742	72.51	68.581
0	42801	72.61	68.7699
0	42860	72.71	68.9588
0	42919	72.81	69.1477
0	42978	72.91	69.3366
0	43040	73.01	69.5255
0	43099	73.11	69.7144
0	43158	73.21	69.9032
0	43217	73.31	70.0921
0	43276	73.41	70.281
0	43335	73.51	70.4699
0	43394	73.61	70.6588
0	43453	73.71	70.8477
0	43512	73.81	71.0366
0	43571	73.91	71.2255
0	43633	74.01	71.4144
0	43692	74.11	71.6033
0	43751	74.21	71.7921
0	43810	74.31	71.981
0	43869	74.41	72.1699
0	43928	74.51	72.3588
0	43987	74.61	72.5477
0	44046	74.71	72.7366
0	44105	74.81	72.9255
0	44164	74.91	73.1144
0	44226	75.01	73.3033
0	44285	75.11	73.4922
0	44344	75.21	73.681
0	44403	75.31	73.8699
0	44462	75.41	74.0588
0	44521	75.51	74.2477
0	44580	75.61	74.4366
0	44639	75.71	74.6255
0	44698	75.81	74.8144
0	44757	75.91	75.0033
0	44819	76.01	75.1922
0	44878	76.11	75.3811
0	44937	76.21	75.5699
0	44996	76.31	75.7588
0	45055	76.41	75.9477
0	45114	76.51	76.1366
0	45173	76.61	76.3255
0	45232	76.71	76.5144
0	45291	76.81	76.7033
0	45350	76.91	76.8922
0	45412	77.01	77.0811
0	45471	77.11	77.27
0	45530	77.21	77.4588
0	45589	77.31	77.6477
0	45648	77.41	77.8366
0	45707	77.51	78.0255
0	45766	77.61	78.2144
0	45825	77.71	78.4033
0	45884	77.81	78.5922
0	45943	77.91	78.7811
0	46005	78.01	78.97
0	46064	78.11	79.1589
0	46123	78.21	79.3477
0	46182	78.31	79.5366
0	46241	78.41	79.7255
0	46300	78.51	79.9144
0	46359	78.61	80.1033
0	46418	78.71	80.2922
0	46477	78.81	80.4811
0	46536	78.91	80.67
0	46598	79.01	80.8589
0	46657	79.11	81.0478
0	46716	79.21	81.2366
0	46775	79.31	81.4255
0	46834	79.41	81.6144
0	46893	79.51	81.8033
0	46952	79.61	81.9922
0	47011	79.71	82.1811
0	47070	79.81	82.37
0	47129	79.91	82.5589
0	47191	80.01	82.7478
0	47250	80.11	82.9367
0	47309	80.21	83.1255
0	47368	80.31	83.3144
0	47427	80.41	83.5033
0	47486	80.51	83.6922
0	47545	80.61	83.8811
0	47604	80.71	84.07
0	47663	80.81	84.2589
0	47722	80.91	84.4478
0	47784	81.01	84.6367
0	47843	81.11	84.8256
0	47902	81.21	85.0144
0	47961	81.31	85.2033
0	48020	81.41	85.3922
0	48079	81.51	85.5811
0	48138	81.61	85.77
0	48197	81.71	85.9589
0	48256	81.81	86.1478
0	48315	81.91	86.3367
0	48377	82.01	86.5256
0	48436	82.11	86.7145
0	48495	82.21	86.9033
0	48554	82.31	87.0922
0	48613	82.41	87.2811
0	48672	82.51	87.47
0	48731	82.61	87.6589
0	48790	82.71	87.8478
0	48849	82.81	88.0367
0	48908	82.91	88.2256
0	48970	83.01	88.4145
0	49029	83.11	88.6034
0	49088	83.21	88.7922
0	49147	83.31	88.9811
0	49206	83.41	89.17
0	49265	83.51	89.3589
0	49324	83.61	89.5478
0	49383	83.71	89.7367
0	49442	83.81	89.9256
0	49501	83.91	90.1145
0	49563	84.01	90.3034
0	49622	84.11	90.4923
0	49681	84.21	90.6811
0	49740	84.31	90.87
0	49799	84.41	91.0589
0	49858	84.51	91.2478
0	49917	84.61	91.4367
0	49976	84.71	91.6256
0	50035	84.81	91.8145
0	50094	84.91	92.0034
0	50156	85.01	92.1923
0	50215	85.11	92.3812
0	50274	85.21	92.57
0	50333	85.31	92.7589
0	50392	85.41	92.9478
0	50451	85.51	93.1367
0	50510	85.61	93.3256
0	50569	85.71	93.5145
0	50628	85.81	93.7034
0	50687	85.91	93.8923
0	50749	86.01	94.0812
0	50808	86.11	94.2701
0	50867	86.21	94.4589
0	50926	86.31	94.6478
0	50985	86.41	94.8367
0	51044	86.51	95.0256
0	51103	86.61	95.2145
0	51162	86.71	95.4034
0	51221	86.81	95.5923
0	51280	86.91	95.7812
0	51342	87.01	95.9701
0	51401	87.11	96.159
0	51460	87.21	96.3478
0	51519	87.31	96.5367
0	51578	87.41	96.7256
0	51637	87.51	96.9145
0	51696	87.61	97.1034
0	51755	87.71	97.2923
0	51814	87.81	97.4812
0	51873	87.91	97.6701
0	51935	88.01	97.859
0	51994	88.11	98.0479
0	52053	88.21	98.2367
0	52112	88.31	98.4256
0	52171	88.41	98.6145
0	52230	88.51	98.8034
0	52289	88.61	98.9923
0	52348	88.71	99.1812
0	52407	88.81	99.3701
0	52466	88.91	99.559
0	52528	89.01	99.7479
0	52587	89.11	99.9368
0	52646	89.21	100.126
0	52705	89.31	100.315
0	52764	89.41	100.503
0	52823	89.51	100.692
0	52882	89.61	100.881
0	52941	89.71	101.07
0	53000	89.81	101.259
0	53059	89.91	101.448
0	53121	90.01	101.637
0	53180	90.11	101.826
0	53239	90.21	102.015
0	53298	90.31	102.203
0	53357	90.41	102.392
0	53416	90.51	102.581
0	53475	90.61	102.77
0	53534	90.71	102.959
0	53593	90.81	103.148
0	53652	90.91	103.337
0	53714	91.01	103.526
0	53773	91.11	103.715
0	53832	91.21	103.903
0	53891	91.31	104.092
0	53950	91.41	104.281
0	54009	91.51	104.47
0	54068	91.61	104.659
0	54127	91.71	104.848
0	54186	91.81	105.037
0	54245	91.91	105.226
0	54307	92.01	105.415
0	54366	92.11	105.603
0	54425	92.21	105.792
0	54484	92.31	105.981
0	54543	92.41	106.17
0	54602	92.51	106.359
0	54661	92.61	106.548
0	54720	92.71	106.737
0	54779	92.81	106.926
0	54838	92.91	107.115
0	54900	93.01	107.303
0	54959	93.11	107.492
0	55018	93.21	107.681
0	55077	93.31	107.87
0	55136	93.41	108.059
0	55195	93.51	108.248
0	55254	93.61	108.437
0	55313	93.71	108.626
0	55372	93.81	108.815
0	55431	93.91	109.003
0	55493	94.01	109.192
0	55552	94.11	109.381
0	55611	94.21	109.57
0	55670	94.31	109.759
0	55729	94.41	109.948
0	55788	94.51	110.137
0	55847	94.61	110.326
0	55906	94.71	110.515
0	55965	94.81	110.703
0	56024	94.91	110.892
0	56086	95.01	111.081
0	56145	95.11	111.27
0	56204	95.21	111.459
0	56263	95.31	111.648
0	56322	95.41	111.837
0	56381	95.51	112.026
0	56440	95.61	112.215
0	56499	95.71	112.403
0	56558	95.81	112.592
0	56617	95.91	112.781
0	56679	96.01	112.97
0	56738	96.11	113.159
0	56797	96.21	113.348
0	56856	96.31	113.537
0	56915	96.41	113.726
0	56974	96.51	113.915
0	57033	96.61	114.104
0	57092	96.71	114.292
0	57151	96.81	114.481
0	57210	96.91	114.67
0	57272	97.01	114.859
0	57331	97.11	115.048
0	57390	97.21	115.237
0	57449	97.31	115.426
0	57508	97.41	115.615
0	57567	97.51	115.804
0	57626	97.61	115.992
0	57685	97.71	116.181
0	57744	97.81	116.37
0	57803	97.91	116.559
0	57865	98.01	116.748
0	57924	98.11	116.937
0	57983	98.21	117.126
0	58042	98.31	117.315
0	58101	98.41	117.504
0	58160	98.51	117.692
0	58219	98.61	117.881
0	58278	98.71	118.07
0	58337	98.81	118.259
0	58396	98.91	118.448
0	58458	99.01	118.637
0	58517	99.11	118.826
0	58576	99.21	119.015
0	58635	99.31	119.204
0	58694	99.41	119.392
0	58753	99.51	119.581
0	58812	99.61	119.77
0	58871	99.71	119.959
0	58930	99.81	120.148
0	58989	99.91	120.337
1	113	1.11	0
1	172	1.21	0
1	231	1.31	0
1	290	1.41	0
1	349	1.51	0
1	408	1.61	0
1	467	1.71	0
1	526	1.81	0
1	585	1.91	0
1	647	2.01	0
1	706	2.11	0
1	765	2.21	0
1	824	2.31	0
1	883	2.41	0
1	942	2.51	0
1	1001	2.61	0
1	1060	2.71	0
1	1119	2.81	0
1	1178	2.91	0
1	1240	3.01	0
1	1299	3.11	0
1	1358	3.21	0
1	1417	3.31	0
1	1476	3.41	0
1	1535	3.51	0
1	1594	3.61	0
1	1653	3.71	0
1	1712	3.81	0
1	1771	3.91	0
1	1833	4.01	0
1	1892	4.11	0
1	1951	4.21	0
1	2010	4.31	0
1	2069	4.41	0
1	2128	4.51	0
1	2187	4.61	0
1	2246	4.71	0
1	2305	4.81	0
1	2364	4.91	0
1	2426	5.01	0
1	2485	5.11	0
1	2544	5.21	0
1	2603	5.31	0
1	2662	5.41	0
1	2721	5.51	0
1	2780	5.61	0
1	2839	5.71	0
1	2898	5.81	0
1	2957	5.91	0
1	3019	6.01	0
1	3078	6.11	0
1	3137	6.21	0
1	3196	6.31	0
1	3255	6.41	0
1	3314	6.51	0
1	3373	6.61	0
1	3432	6.71	0
1	3491	6.81	0
1	3550	6.91	0
1	3612	7.01	0
1	3671	7.11	0
1	3730	7.21	0
1	3789	7.31	0
1	3848	7.41	0
1	3907	7.51	0
1	3966	7.61	0
1	4025	7.71	0
1	4084	7.81	0
1	4143	7.91	0
1	4205	8.01	0
1	4264	8.11	0
1	4323	8.21	0
1	4382	8.31	0
1	4441	8.41	0
1	4500	8.51	0
1	4559	8.61	0
1	4618	8.71	0
1	4677	8.81	0
1	4736	8.91	0
1	4798	9.01	0
1	4857	9.11	0
1	4916	9.21	0
1	4975	9.31	0
1	5034	9.41	0
1	5093	9.51	0
1	5152	9.61	0
1	5211	9.71	0
1	5270	9.81	0
1	5329	9.91	0
1	5422	10.01	0
1	5482	10.11	0
1	5542	10.21	0
1	5602	10.31	0
1	5662	10.41	0
1	5722	10.51	0
1	5782	10.61	0
1	5842	10.71	0
1	5902	10.81	0
1	5962	10.91	0
1	6025	11.01	0
1	6085	11.11	0
1	6145	11.21	0
1	6205	11.31	0
1	6265	11.41	0
1	6325	11.51	0
1	6385	11.61	0
1	6445	11.71	0
1	6505	11.81	0
1	6565	11.91	0
1	6628	12.01	0
1	6688	12.11	0
1	6748	12.21	0
1	6808	12.31	0
1	6868	12.41	0
1	6928	12.51	0
1	6988	12.61	0
1	7048	12.71	0
1	7108	12.81	0
1	7168	12.91	0
1	7231	13.01	0
1	7291	13.11	0
1	7351	13.21	0
1	7411	13.31	0
1	7471	13.41	0
1	7531	13.51	0
1	7591	13.61	0
1	7651	13.71	0
1	7711	13.81	0
1	7771	13.91	0
1	7834	14.01	0
1	7894	14.11	0
1	7954	14.21	0
1	8014	14.31	0
1	8074	14.41	0
1	8134	14.51	0
1	8194	14.61	0
1	8254	14.71	0
1	8314	14.81	0
1	8374	14.91	0
1	8437	15.01	0
1	8497	15.11	0
1	8557	15.21	0
1	8617	15.31	0
1	8677	15.41	0
1	8737	15.51	0
1	8797	15.61	0
1	8857	15.71	0
1	8917	15.81	0
1	8977	15.91	0
1	9040	16.01	0
1	9100	16.11	0
1	9160	16.21	0
1	9220	16.31	0
1	9280	16.41	0
1	9340	16.51	0
1	9400	16.61	0
1	9460	16.71	0
1	9520	16.81	0
1	9580	16.91	0
1	9643	17.01	0
1	9703	17.11	0
1	9763	17.21	0
1	9823	17.31	0
1	9883	17.41	0
1	9943	17.51	0
1	10003	17.61	0
1	10063	17.71	0
1	10123	17.81	0
1	10183	17.91	0
1	10246	18.01	0
1	10306	18.11	0
1	10366	18.21	0
1	10426	18.31	0
1	10486	18.41	0
1	10546	18.51	0
1	10606	18.61	0
1	10666	18.71	0
1	10726	18.81	0
1	10786	18.91	0
1	10849	19.01	0
1	10909	19.11	0
1	10969	19.21	0
1	11029	19.31	0
1	11089	19.41	0
1	11149	19.51	0
1	11209	19.61	0
1	11269	19.71	0
1	11329	19.81	0
1	11389	19.91	0
1	11452	20.01	0
1	11512	20.11	0
1	11572	20.21	0
1	11632	20.31	0
1	11692	20.41	0
1	11752	20.51	0
1	11812	20.61	0
1	11872	20.71	0
1	11932	20.81	0
1	11992	20.91	0
1	12055	21.01	0
1	12115	21.11	0
1	12175	21.21	0
1	12235	21.31	0
1	12295	21.41	0
1	12355	21.51	0
1	12415	21.61	0
1	12475	21.71	0
1	12535	21.81	0
1	12595	21.91	0
1	12658	22.01	0
1	12718	22.11	0
1	12778	22.21	0
1	12838	22.31	0
1	12898	22.41	0
1	12958	22.51	0
1	13018	22.61	0
1	13078	22.71	0
1	13138	22.81	0
1	13198	22.91	0
1	13261	23.01	0
1	13321	23.11	0
1	13381	23.21	0
1	13441	23.31	0
1	13501	23.41	0
1	13561	23.51	0
1	13621	23.61	0
1	13681	23.71	0
1	13741	23.81	0
1	13801	23.91	0
1	13864	24.01	0
1	13924	24.11	0
1	13984	24.21	0
1	14044	24.31	0
1	14104	24.41	0
1	14164	24.51	0
1	14224	24.61	0
1	14284	24.71	0
1	14344	24.81	0
1	14404	24.91	0
1	14467	25.01	0
1	14527	25.11	0
1	14587	25.21	0
1	14647	25.31	0
1	14707	25.41	0
1	14767	25.51	0
1	14827	25.61	0
1	14887	25.71	0
1	14947	25.81	0
1	15007	25.91	0
1	15070	26.01	0
1	15130	26.11	0
1	15190	26.21	0
1	15250	26.31	0
1	15310	26.41	0
1	15370	26.51	0
1	15430	26.61	0
1	15490	26.71	0
1	15550	26.81	0
1	15610	26.91	0
1	15673	27.01	0
1	15733	27.11	0
1	15793	27.21	0
1	15853	27.31	0
1	15913	27.41	0
1	15973	27.51	0
1	16033	27.61	0
1	16093	27.71	0
1	16153	27.81	0
1	16213	27.91	0
1	16276	28.01	0
1	16336	28.11	0
1	16396	28.21	0
1	16456	28.31	0
1	16516	28.41	0
1	16576	28.51	0
1	16636	28.61	0
1	16696	28.71	0
1	16756	28.81	0
1	16816	28.91	0
1	16879	29.01	0
1	16939	29.11	0
1	16999	29.21	0
1	17125	29.31	0
1	17184	29.41	0
1	17243	29.51	0
1	17302	29.61	0
1	17361	29.71	0
1	17420	29.81	0
1	17479	29.91	0
1	17541	30.01	0
1	17600	30.11	0
1	17659	30.21	0
1	17718	30.31	0
1	17777	30.41	0
1	17836	30.51	0
1	17895	30.61	0
1	17954	30.71	0
1	18013	30.81	0
1	18072	30.91	0
1	18134	31.01	0
1	18193	31.11	0
1	18252	31.21	0
1	18311	31.31	0
1	18370	31.41	0
1	18429	31.51	0
1	18488	31.61	0
1	18547	31.71	0
1	18606	31.81	0
1	18665	31.91	0
1	18727	32.01	0
1	18786	32.11	0
1	18845	32.21	0
1	18904	32.31	0
1	18963	32.41	0
1	19022	32.51	0
1	19081	32.61	0
1	19140	32.71	0
1	19199	32.81	0
1	19258	32.91	0
1	19320	33.01	0
1	19379	33.11	0
1	19438	33.21	0
1	19497	33.31	0
1	19556	33.41	0
1	19615	33.51	0
1	19674	33.61	0
1	19733	33.71	0
1	19792	33.81	0
1	19851	33.91	0
1	19913	34.01	0
1	19972	34.11	0
1	20031	34.21	0
1	20090	34.31	0
1	20149	34.41	0
1	20208	34.51	0
1	20267	34.61	0
1	20326	34.71	0
1	20385	34.81	0
1	20444	34.91	0
1	20506	35.01	0
1	20565	35.11	0
1	20624	35.21	0
1	20683	35.31	0
1	20742	35.41	0
1	20801	35.51	0
1	20860	35.61	0
1	20919	35.71	0
1	20978	35.81	0
1	21037	35.91	0
1	21099	36.01	0
1	21158	36.11	0
1	21217	36.21	0
1	21276	36.31	0
1	21335	36.41	0
1	21394	36.51	0
1	21453	36.61	0
1	21512	36.71	0
1	21571	36.81	0
1	21630	36.91	0
1	21692	37.01	0
1	21751	37.11	0
1	21810	37.21	0
1	21869	37.31	0
1	21928	37.41	0
1	21987	37.51	0
1	22046	37.61	0
1	22105	37.71	0
1	22164	37.81	0
1	22223	37.91	0
1	22285	38.01	0
1	22344	38.11	0
1	22403	38.21	0
1	22462	38.31	0
1	22521	38.41	0
1	22580	38.51	0
1	22639	38.61	0
1	22698	38.71	0
1	22757	38.81	0
1	22816	38.91	0
1	22878	39.01	0
1	22937	39.11	0
1	22996	39.21	0
1	23055	39.31	0
1	23114	39.41	0
1	23173	39.51	0
1	23232	39.61	0
1	23291	39.71	0
1	23350	39.81	0
1	23409	39.91	0
1	23471	40.01	0
1	23530	40.11	0
1	23589	40.21	0
1	23648	40.31	0
1	23707	40.41	0
1	23766	40.51	0
1	23825	40.61	0
1	23884	40.71	0
1	23943	40.81	0
1	24002	40.91	0
1	24064	41.01	0
1	24123	41.11	0
1	24182	41.21	0
1	24241	41.31	0
1	24300	41.41	0
1	24359	41.51	0
1	24418	41.61	0
1	24477	41.71	0
1	24536	41.81	0
1	24595	41.91	0
1	24657	42.01	0
1	24716	42.11	0
1	24775	42.21	0
1	24834	42.31	0
1	24893	42.41	0
1	24952	42.51	0
1	25011	42.61	0
1	25070	42.71	0
1	25129	42.81	0
1	25188	42.91	0
1	25250	43.01	0
1	25309	43.11	0
1	25368	43.21	0
1	25427	43.31	0
1	25486	43.41	0
1	25545	43.51	0
1	25604	43.61	0
1	25663	43.71	0
1	25722	43.81	0
1	25781	43.91	0
1	25843	44.01	0
1	25902	44.11	0
1	25961	44.21	0
1	26020	44.31	0
1	26079	44.41	0
1	26138	44.51	0
1	26197	44.61	0
1	26256	44.71	0
1	26315	44.81	0
1	26374	44.91	0
1	26436	45.01	0
1	26495	45.11	0
1	26554	45.21	0
1	26613	45.31	0
1	26672	45.41	0
1	26731	45.51	0
1	26790	45.61	0
1	26849	45.71	0
1	26908	45.81	0
1	26967	45.91	0
1	27029	46.01	0
1	27088	46.11	0
1	27147	46.21	0
1	27206	46.31	0
1	27265	46.41	0
1	27324	46.51	0
1	27383	46.61	0
1	27442	46.71	0
1	27501	46.81	0
1	27560	46.91	0
1	27622	47.01	0
1	27681	47.11	0
1	27740	47.21	0
1	27799	47.31	0
1	27858	47.41	0
1	27917	47.51	0
1	27976	47.61	0
1	28035	47.71	0
1	28094	47.81	0
1	28153	47.91	0
1	28215	48.01	0
1	28274	48.11	0
1	28333	48.21	0
1	28392	48.31	0
1	28451	48.41	0
1	28510	48.51	0
1	28569	48.61	0
1	28628	48.71	0
1	28687	48.81	0
1	28746	48.91	0
1	28808	49.01	0
1	28867	49.11	0
1	28926	49.21	0
1	28985	49.31	0
1	29044	49.41	0
1	29103	49.51	0
1	29162	49.61	0
1	29221	49.71	0
1	29280	49.81	0
1	29339	49.91	0
1	29401	50.01	0
1	29460	50.11	0
1	29519	50.21	0
1	29578	50.31	0
1	29637	50.41	0
1	29696	50.51	0
1	29755	50.61	0
1	29814	50.71	0
1	29873	50.81	0
1	29932	50.91	0
1	29994	51.01	0
1	30053	51.11	0
1	30112	51.21	1.8889
1	30171	51.31	1.8889
1	30230	51.41	1.8889
1	30289	51.51	1.8889
1	30348	51.61	1.8889
1	30407	51.71	1.8889
1	30466	51.81	1.8889
1	30525	51.91	1.8889
1	30587	52.01	1.8889
1	30646	52.11	1.8889
1	30705	52.21	1.8889
1	30764	52.31	1.8889
1	30823	52.41	1.8889
1	30882	52.51	1.8889
1	30941	52.61	1.8889
1	31000	52.71	1.8889
1	31059	52.81	1.8889
1	31118	52.91	1.8889
1	31180	53.01	1.8889
1	31239	53.11	1.8889
1	31298	53.21	1.8889
1	31357	53.31	1.8889
1	31416	53.41	1.8889
1	31475	53.51	1.8889
1	31534	53.61	1.8889
1	31593	53.71	1.8889
1	31652	53.81	1.8889
1	31711	53.91	1.8889
1	31773	54.01	1.8889
1	31832	54.11	1.8889
1	31891	54.21	1.8889
1	31950	54.31	1.8889
1	32009	54.41	1.8889
1	32068	54.51	1.8889
1	32127	54.61	1.8889
1	32186	54.71	1.8889
1	32245	54.81	1.8889
1	32304	54.91	1.8889
1	32366	55.01	1.8889
1	32425	55.11	1.8889
1	32484	55.21	1.8889
1	32543	55.31	1.8889
1	32602	55.41	1.8889
1	32661	55.51	1.8889
1	32720	55.61	1.8889
1	32779	55.71	1.8889
1	32838	55.81	1.8889
1	32897	55.91	1.8889
1	32959	56.01	1.8889
1	33018	56.11	1.8889
1	33077	56.21	1.8889
1	33136	56.31	1.8889
1	33195	56.41	1.8889
1	33254	56.51	1.8889
1	33313	56.61	1.8889
1	33372	56.71	1.8889
1	33431	56.81	1.8889
1	33490	56.91	1.8889
1	33552	57.01	1.8889
1	33611	57.11	1.8889
1	33670	57.21	1.8889
1	33729	57.31	1.8889
1	33788	57.41	1.8889
1	33847	57.51	1.8889
1	33906	57.61	1.8889
1	33965	57.71	1.8889
1	34024	57.81	1.8889
1	34083	57.91	1.8889
1	34145	58.01	1.8889
1	34204	58.11	1.8889
1	34263	58.21	1.8889
1	34322	58.31	1.8889
1	34381	58.41	1.8889
1	34440	58.51	1.8889
1	34499	58.61	1.8889
1	34558	58.71	1.8889
1	34617	58.81	1.8889
1	34676	58.91	1.8889
1	34738	59.01	1.8889
1	34797	59.11	1.8889
1	34856	59.21	1.8889
1	34915	59.31	1.8889
1	34974	59.41	1.8889
1	35033	59.51	1.8889
1	35092	59.61	1.8889
1	35151	59.71	1.8889
1	35210	59.81	1.8889
1	35269	59.91	1.8889
1	35331	60.01	1.8889
1	35390	60.11	1.8889
1	35449	60.21	1.8889
1	35508	60.31	1.8889
1	35567	60.41	1.8889
1	35626	60.51	1.8889
1	35685	60.61	1.8889
1	35744	60.71	1.8889
1	35803	60.81	1.8889
1	35862	60.91	1.8889
1	35924	61.01	1.8889
1	35983	61.11	1.8889
1	36042	61.21	1.8889
1	36101	61.31	1.8889
1	36160	61.41	1.8889
1	36219	61.51	1.8889
1	36278	61.61	1.8889
1	36337	61.71	1.8889
1	36396	61.81	1.8889
1	36455	61.91	1.8889
1	36517	62.01	1.8889
1	36576	62.11	1.8889
1	36635	62.21	1.8889
1	36694	62.31	1.8889
1	36753	62.41	1.8889
1	36812	62.51	1.8889
1	36871	62.61	1.8889
1	36930	62.71	1.8889
1	36989	62.81	1.8889
1	37048	62.91	1.8889
1	37110	63.01	1.8889
1	37169	63.11	1.8889
1	37228	63.21	1.8889
1	37287	63.31	1.8889
1	37346	63.41	1.8889
1	37405	63.51	1.8889
1	37464	63.61	1.8889
1	37523	63.71	1.8889
1	37582	63.81	1.8889
1	37641	63.91	1.8889
1	37703	64.01	1.8889
1	37762	64.11	1.8889
1	37821	64.21	1.8889
1	37880	64.31	1.8889
1	37939	64.41	1.8889
1	37998	64.51	1.8889
1	38057	64.61	1.8889
1	38116	64.71	1.8889
1	38175	64.81	1.8889
1	38234	64.91	1.8889
1	38296	65.01	1.8889
1	38355	65.11	1.8889
1	38414	65.21	1.8889
1	38473	65.31	1.8889
1	38532	65.41	1.8889
1	38591	65.51	1.8889
1	38650	65.61	1.8889
1	38709	65.71	1.8889
1	38768	65.81	1.8889
1	38827	65.91	1.8889
1	38889	66.01	1.8889
1	38948	66.11	1.8889
1	39007	66.21	1.8889
1	39066	66.31	1.8889
1	39125	66.41	1.8889
1	39184	66.51	1.8889
1	39243	66.61	1.8889
1	39302	66.71	1.8889
1	39361	66.81	1.8889
1	39420	66.91	1.8889
1	39482	67.01	1.8889
1	39541	67.11	1.8889
1	39600	67.21	1.8889
1	39659	67.31	1.8889
1	39718	67.41	1.8889
1	39777	67.51	1.8889
1	39836	67.61	1.8889
1	39895	67.71	1.8889
1	39954	67.81	1.8889
1	40013	67.91	1.8889
1	40075	68.01	1.8889
1	40134	68.11	1.8889
1	40193	68.21	1.8889
1	40252	68.31	1.8889
1	40311	68.41	1.8889
1	40370	68.51	1.8889
1	40429	68.61	1.8889
1	40488	68.71	1.8889
1	40547	68.81	1.8889
1	40606	68.91	1.8889
1	40668	69.01	1.8889
1	40727	69.11	1.8889
1	40786	69.21	1.8889
1	40845	69.31	1.8889
1	40904	69.41	1.8889
1	40963	69.51	1.8889
1	41022	69.61	1.8889
1	41081	69.71	1.8889
1	41140	69.81	1.8889
1	41199	69.91	1.8889
1	41261	70.01	1.8889
1	41320	70.11	1.8889
1	41379	70.21	1.8889
1	41438	70.31	1.8889
1	41497	70.41	1.8889
1	41556	70.51	1.8889
1	41615	70.61	1.8889
1	41674	70.71	1.8889
1	41733	70.81	1.8889
1	41792	70.91	1.8889
1	41854	71.01	1.8889
1	41913	71.11	1.8889
1	41972	71.21	1.8889
1	42031	71.31	1.8889
1	42090	71.41	1.8889
1	42149	71.51	1.8889
1	42208	71.61	1.8889
1	42267	71.71	1.8889
1	42326	71.81	1.8889
1	42385	71.91	1.8889
1	42447	72.01	1.8889
1	42506	72.11	1.8889
1	42565	72.21	1.8889
1	42624	72.31	1.8889
1	42683	72.41	1.8889
1	42742	72.51	1.8889
1	42801	72.61	1.8889
1	42860	72.71	1.8889
1	42919	72.81	1.8889
1	42978	72.91	1.8889
1	43040	73.01	1.8889
1	43099	73.11	1.8889
1	43158	73.21	1.8889
1	43217	73.31	1.8889
1	43276	73.41	1.8889
1	43335	73.51	1.8889
1	43394	73.61	1.8889
1	43453	73.71	1.8889
1	43512	73.81	1.8889
1	43571	73.91	1.8889
1	43633	74.01	1.8889
1	43692	74.11	1.8889
1	43751	74.21	1.8889
1	43810	74.31	1.8889
1	43869	74.41	1.8889
1	43928	74.51	1.8889
1	43987	74.61	1.8889
1	44046	74.71	1.8889
1	44105	74.81	1.8889
1	44164	74.91	1.8889
1	44226	75.01	1.8889
1	44285	75.11	1.8889
1	44344	75.21	1.8889
1	44403	75.31	1.8889
1	44462	75.41	1.8889
1	44521	75.51	1.8889
1	44580	75.61	1.8889
1	44639	75.71	1.8889
1	44698	75.81	1.8889
1	44757	75.91	1.8889
1	44819	76.01	1.8889
1	44878	76.11	1.8889
1	44937	76.21	1.8889
1	44996	76.31	1.8889
1	45055	76.41	1.8889
1	45114	76.51	1.8889
1	45173	76.61	1.8889
1	45232	76.71	1.8889
1	45291	76.81	1.8889
1	45350	76.91	1.8889
1	45412	77.01	1.8889
1	45471	77.11	1.8889
1	45530	77.21	1.8889
1	45589	77.31	1.8889
1	45648	77.41	1.8889
1	45707	77.51	1.8889
1	45766	77.61	1.8889
1	45825	77.71	1.8889
1	45884	77.81	1.8889
1	45943	77.91	1.8889
1	46005	78.01	1.8889
1	46064	78.11	1.8889
1	46123	78.21	1.8889
1	46182	78.31	1.8889
1	46241	78.41	1.8889
1	46300	78.51	1.8889
1	46359	78.61	1.8889
1	46418	78.71	1.8889
1	46477	78.81	1.8889
1	46536	78.91	1.8889
1	46598	79.01	1.8889
1	46657	79.11	1.8889
1	46716	79.21	1.8889
1	46775	79.31	1.8889
1	46834	79.41	1.8889
1	46893	79.51	1.8889
1	46952	79.61	1.8889
1	47011	79.71	1.8889
1	47070	79.81	1.8889
1	47129	79.91	1.8889
1	47191	80.01	1.8889
1	47250	80.11	1.8889
1	47309	80.21	1.8889
1	47368	80.31	1.8889
1	47427	80.41	1.8889
1	47486	80.51	1.8889
1	47545	80.61	1.8889
1	47604	80.71	1.8889
1	47663	80.81	1.8889
1	47722	80.91	1.8889
1	47784	81.01	1.8889
1	47843	81.11	1.8889
1	47902	81.21	1.8889
1	47961	81.31	1.8889
1	48020	81.41	1.8889
1	48079	81.51	1.8889
1	48138	81.61	1.8889
1	48197	81.71	1.8889
1	48256	81.81	1.8889
1	48315	81.91	1.8889
1	48377	82.01	1.8889
1	48436	82.11	1.8889
1	48495	82.21	1.8889
1	48554	82.31	1.8889
1	48613	82.41	1.8889
1	48672	82.51	1.8889
1	48731	82.61	1.8889
1	48790	82.71	1.8889
1	48849	82.81	1.8889
1	48908	82.91	1.8889
1	48970	83.01	1.8889
1	49029	83.11	1.8889
1	49088	83.21	1.8889
1	49147	83.31	1.8889
1	49206	83.41	1.8889
1	49265	83.51	1.8889
1	49324	83.61	1.8889
1	49383	83.71	1.8889
1	49442	83.81	1.8889
1	49501	83.91	1.8889
1	49563	84.01	1.8889
1	49622	84.11	1.8889
1	49681	84.21	1.8889
1	49740	84.31	1.8889
1	49799	84.41	1.8889
1	49858	84.51	1.8889
1	49917	84.61	1.8889
1	49976	84.71	1.8889
1	50035	84.81	1.8889
1	50094	84.91	1.8889
1	50156	85.01	1.8889
1	50215	85.11	1.8889
1	50274	85.21	1.8889
1	50333	85.31	1.8889
1	50392	85.41	1.8889
1	50451	85.51	1.8889
1	50510	85.61	1.8889
1	50569	85.71	1.8889
1	50628	85.81	1.8889
1	50687	85.91	1.8889
1	50749	86.01	1.8889
1	50808	86.11	1.8889
1	50867	86.21	1.8889
1	50926	86.31	1.8889
1	50985	86.41	1.8889
1	51044	86.51	1.8889
1	51103	86.61	1.8889
1	51162	86.71	1.8889
1	51221	86.81	1.8889
1	51280	86.91	1.8889
1	51342	87.01	1.8889
1	51401	87.11	1.8889
1	51460	87.21	1.8889
1	51519	87.31	1.8889
1	51578	87.41	1.8889
1	51637	87.51	1.8889
1	51696	87.61	1.8889
1	51755	87.71	1.8889
1	51814	87.81	1.8889
1	51873	87.91	1.8889
1	51935	88.01	1.8889
1	51994	88.11	1.8889
1	52053	88.21	1.8889
1	52112	88.31	1.8889
1	52171	88.41	1.8889
1	52230	88.51	1.8889
1	52289	88.61	1.8889
1	52348	88.71	1.8889
1	52407	88.81	1.8889
1	52466	88.91	1.8889
1	52528	89.01	1.8889
1	52587	89.11	1.8889
1	52646	89.21	1.8889
1	52705	89.31	1.8889
1	52764	89.41	1.8889
1	52823	89.51	1.8889
1	52882	89.61	1.8889
1	52941	89.71	1.8889
1	53000	89.81	1.8889
1	53059	89.91	1.8889
1	53121	90.01	1.8889
1	53180	90.11	1.8889
1	53239	90.21	1.8889
1	53298	90.31	1.8889
1	53357	90.41	1.8889
1	53416	90.51	1.8889
1	53475	90.61	1.8889
1	53534	90.71	1.8889
1	53593	90.81	1.8889
1	53652	90.91	1.8889
1	53714	91.01	1.8889
1	53773	91.11	1.8889
1	53832	91.21	1.8889
1	53891	91.31	1.8889
1	53950	91.41	1.8889
1	54009	91.51	1.8889
1	54068	91.61	1.8889
1	54127	91.71	1.8889
1	54186	91.81	1.8889
1	54245	91.91	1.8889
1	54307	92.01	1.8889
1	54366	92.11	1.8889
1	54425	92.21	1.8889
1	54484	92.31	1.8889
1	54543	92.41	1.8889
1	54602	92.51	1.8889
1	54661	92.61	1.8889
1	54720	92.71	1.8889
1	54779	92.81	1.8889
1	54838	92.91	1.8889
1	54900	93.01	1.8889
1	54959	93.11	1.8889
1	55018	93.21	1.8889
1	55077	93.31	1.8889
1	55136	93.41	1.8889
1	55195	93.51	1.8889
1	55254	93.61	1.8889
1	55313	93.71	1.8889
1	55372	93.81	1.8889
1	55431	93.91	1.8889
1	55493	94.01	1.8889
1	55552	94.11	1.8889
1	55611	94.21	1.8889
1	55670	94.31	1.8889
1	55729	94.41	1.8889
1	55788	94.51	1.8889
1	55847	94.61	1.8889
1	55906	94.71	1.8889
1	55965	94.81	1.8889
1	56024	94.91	1.8889
1	56086	95.01	1.8889
1	56145	95.11	1.8889
1	56204	95.21	1.8889
1	56263	95.31	1.8889
1	56322	95.41	1.8889
1	56381	95.51	1.8889
1	56440	95.61	1.8889
1	56499	95.71	1.8889
1	56558	95.81	1.8889
1	56617	95.91	1.8889
1	56679	96.01	1.8889
1	56738	96.11	1.8889
1	56797	96.21	1.8889
1	56856	96.31	1.8889
1	56915	96.41	1.8889
1	56974	96.51	1.8889
1	57033	96.61	1.8889
1	57092	96.71	1.8889
1	57151	96.81	1.8889
1	57210	96.91	1.8889
1	57272	97.01	1.8889
1	57331	97.11	1.8889
1	57390	97.21	1.8889
1	57449	97.31	1.8889
1	57508	97.41	1.8889
1	57567	97.51	1.8889
1	57626	97.61	1.8889
1	57685	97.71	1.8889
1	57744	97.81	1.8889
1	57803	97.91	1.8889
1	57865	98.01	1.8889
1	57924	98.11	1.8889
1	57983	98.21	1.8889
1	58042	98.31	1.8889
1	58101	98.41	1.8889
1	58160	98.51	1.8889
1	58219	98.61	1.8889
1	58278	98.71	1.8889
1	58337	98.81	1.8889
1	58396	98.91	1.8889
1	58458	99.01	1.8889
1	58517	99.11	1.8889
1	58576	99.21	1.8889
1	58635	99.31	1.8889
1	58694	99.41	1.8889
1	58753	99.51	1.8889
1	58812	99.61	1.8889
1	58871	99.71	1.8889
1	58930	99.81	1.8889
1	58989	99.91	1.8889
2	113	1.11	0
2	172	1.21	0
2	231	1.31	0
2	290	1.41	0
2	349	1.51	0
2	408	1.61	0
2	467	1.71	0
2	526	1.81	0
2	585	1.91	0
2	647	2.01	0
2	706	2.11	0
2	765	2.21	0
2	824	2.31	0
2	883	2.41	0
2	942	2.51	0
2	1001	2.61	0
2	1060	2.71	0
2	1119	2.81	0
2	1178	2.91	0
2	1240	3.01	0
2	1299	3.11	0
2	1358	3.21	0
2	1417	3.31	0
2	1476	3.41	0
2	1535	3.51	0
2	1594	3.61	0
2	1653	3.71	0
2	1712	3.81	0
2	1771	3.91	0
2	1833	4.01	0
2	1892	4.11	0
2	1951	4.21	0
2	2010	4.31	0
2	2069	4.41	0
2	2128	4.51	0
2	2187	4.61	0
2	2246	4.71	0
2	2305	4.81	0
2	2364	4.91	0
2	2426	5.01	0
2	2485	5.11	0
2	2544	5.21	0
2	2603	5.31	0
2	2662	5.41	0
2	2721	5.51	0
2	2780	5.61	0
2	2839	5.71	0
2	2898	5.81	0
2	2957	5.91	0
2	3019	6.01	0
2	3078	6.11	0
2	3137	6.21	0
2	3196	6.31	0
2	3255	6.41	0
2	3314	6.51	0
2	3373	6.61	0
2	3432	6.71	0
2	3491	6.81	0
2	3550	6.91	0
2	3612	7.01	0
2	3671	7.11	0
2	3730	7.21	0
2	3789	7.31	0
2	3848	7.41	0
2	3907	7.51	0
2	3966	7.61	0
2	4025	7.71	0
2	4084	7.81	0
2	4143	7.91	0
2	4205	8.01	0
2	4264	8.11	0
2	4323	8.21	0
2	4382	8.31	0
2	4441	8.41	0
2	4500	8.51	0
2	4559	8.61	0
2	4618	8.71	0
2	4677	8.81	0
2	4736	8.91	0
2	4798	9.01	0
2	4857	9.11	0
2	4916	9.21	0
2	4975	9.31	0
2	5034	9.41	0
2	5093	9.51	0
2	5152	9.61	0
2	5211	9.71	0
2	5270	9.81	0
2	5329	9.91	0
2	5422	10.01	0
2	5482	10.11	0
2	5542	10.21	0
2	5602	10.31	0
2	5662	10.41	0
2	5722	10.51	0
2	5782	10.61	0
2	5842	10.71	0
2	5902	10.81	0
2	5962	10.91	0
2	6025	11.01	0
2	6085	11.11	0
2	6145	11.21	0
2	6205	11.31	0
2	6265	11.41	0
2	6325	11.51	0
2	6385	11.61	0
2	6445	11.71	0
2	6505	11.81	0
2	6565	11.91	0
2	6628	12.01	0
2	6688	12.11	0
2	6748	12.21	0
2	6808	12.31	0
2	6868	12.41	0
2	6928	12.51	0
2	6988	12.61	0
2	7048	12.71	0
2	7108	12.81	0
2	7168	12.91	0
2	7231	13.01	0
2	7291	13.11	0
2	7351	13.21	0
2	7411	13.31	0
2	7471	13.41	0
2	7531	13.51	0
2	7591	13.61	0
2	7651	13.71	0
2	7711	13.81	0
2	7771	13.91	0
2	7834	14.01	0
2	7894	14.11	0
2	7954	14.21	0
2	8014	14.31	0
2	8074	14.41	0
2	8134	14.51	0
2	8194	14.61	0
2	8254	14.71	0
2	8314	14.81	0
2	8374	14.91	0
2	8437	15.01	0
2	8497	15.11	0
2	8557	15.21	0
2	8617	15.31	0
2	8677	15.41	0
2	8737	15.51	0
2	8797	15.61	0
2	8857	15.71	0
2	8917	15.81	0
2	8977	15.91	0
2	9040	16.01	0
2	9100	16.11	0
2	9160	16.21	0
2	9220	16.31	0
2	9280	16.41	0
2	9340	16.51	0
2	9400	16.61	0
2	9460	16.71	0
2	9520	16.81	0
2	9580	16.91	0
2	9643	17.01	0
2	9703	17.11	0
2	9763	17.21	0
2	9823	17.31	0
2	9883	17.41	0
2	9943	17.51	0
2	10003	17.61	0
2	10063	17.71	0
2	10123	17.81	0
2	10183	17.91	0
2	10246	18.01	0
2	10306	18.11	0
2	10366	18.21	0
2	10426	18.31	0
2	10486	18.41	0
2	10546	18.51	0
2	10606	18.61	0
2	10666	18.71	0
2	10726	18.81	0
2	10786	18.91	0
2	10849	19.01	0
2	10909	19.11	0
2	10969	19.21	0
2	11029	19.31	0
2	11089	19.41	0
2	11149	19.51	0
2	11209	19.61	0
2	11269	19.71	0
2	11329	19.81	0
2	11389	19.91	0
2	11452	20.01	0
2	11512	20.11	0
2	11572	20.21	0
2	11632	20.31	0
2	11692	20.41	0
2	11752	20.51	0
2	11812	20.61	0
2	11872	20.71	0
2	11932	20.81	0
2	11992	20.91	0
2	12055	21.01	0
2	12115	21.11	0
2	12175	21.21	0
2	12235	21.31	0
2	12295	21.41	0
2	12355	21.51	0
2	12415	21.61	0
2	12475	21.71	0
2	12535	21.81	0
2	12595	21.91	0
2	12658	22.01	0
2	12718	22.11	0
2	12778	22.21	0
2	12838	22.31	0
2	12898	22.41	0
2	12958	22.51	0
2	13018	22.61	0
2	13078	22.71	0
2	13138	22.81	0
2	13198	22.91	0
2	13261	23.01	0
2	13321	23.11	0
2	13381	23.21	0
2	13441	23.31	0
2	13501	23.41	0
2	13561	23.51	0
2	13621	23.61	0
2	13681	23.71	0
2	13741	23.81	0
2	13801	23.91	0
2	13864	24.01	0
2	13924	24.11	0
2	13984	24.21	0
2	14044	24.31	0
2	14104	24.41	0
2	14164	24.51	0
2	14224	24.61	0
2	14284	24.71	0
2	14344	24.81	0
2	14404	24.91	0
2	14467	25.01	0
2	14527	25.11	0
2	14587	25.21	0
2	14647	25.31	0
2	14707	25.41	0
2	14767	25.51	0
2	14827	25.61	0
2	14887	25.71	0
2	14947	25.81	0
2	15007	25.91	0
2	15070	26.01	0
2	15130	26.11	0
2	15190	26.21	0
2	15250	26.31	0
2	15310	26.41	0
2	15370	26.51	0
2	15430	26.61	0
2	15490	26.71	0
2	15550	26.81	0
2	15610	26.91	0
2	15673	27.01	0
2	15733	27.11	0
2	15793	27.21	0
2	15853	27.31	0
2	15913	27.41	0
2	15973	27.51	0
2	16033	27.61	0
2	16093	27.71	0
2	16153	27.81	0
2	16213	27.91	0
2	16276	28.01	0
2	16336	28.11	0
2	16396	28.21	0
2	16456	28.31	0
2	16516	28.41	0
2	16576	28.51	0
2	16636	28.61	0
2	16696	28.71	0
2	16756	28.81	0
2	16816	28.91	0
2	16879	29.01	0
2	16939	29.11	0
2	16999	29.21	0
2	17125	29.31	0
2	17184	29.41	0
2	17243	29.51	0
2	17302	29.61	0
2	17361	29.71	0
2	17420	29.81	0
2	17479	29.91	0
2	17541	30.01	0
2	17600	30.11	0
2	17659	30.21	0
2	17718	30.31	0
2	17777	30.41	0
2	17836	30.51	0
2	17895	30.61	0
2	17954	30.71	0
2	18013	30.81	0
2	18072	30.91	0
2	18134	31.01	0
2	18193	31.11	0
2	18252	31.21	0
2	18311	31.31	0
2	18370	31.41	0
2	18429	31.51	0
2	18488	31.61	0
2	18547	31.71	0
2	18606	31.81	0
2	18665	31.91	0
2	18727	32.01	0
2	18786	32.11	0
2	18845	32.21	0
2	18904	32.31	0
2	18963	32.41	0
2	19022	32.51	0
2	19081	32.61	0
2	19140	32.71	0
2	19199	32.81	0
2	19258	32.91	0
2	19320	33.01	0
2	19379	33.11	0
2	19438	33.21	0
2	19497	33.31	0
2	19556	33.41	0
2	19615	33.51	0
2	19674	33.61	0
2	19733	33.71	0
2	19792	33.81	0
2	19851	33.91	0
2	19913	34.01	0
2	19972	34.11	0
2	20031	34.21	0
2	20090	34.31	0
2	20149	34.41	0
2	20208	34.51	0
2	20267	34.61	0
2	20326	34.71	0
2	20385	34.81	0
2	20444	34.91	0
2	20506	35.01	0
2	20565	35.11	0
2	20624	35.21	0
2	20683	35.31	0
2	20742	35.41	0
2	20801	35.51	0
2	20860	35.61	0
2	20919	35.71	0
2	20978	35.81	0
2	21037	35.91	0
2	21099	36.01	0
2	21158	36.11	0
2	21217	36.21	0
2	21276	36.31	0
2	21335	36.41	0
2	21394	36.51	0
2	21453	36.61	0
2	21512	36.71	0
2	21571	36.81	0
2	21630	36.91	0
2	21692	37.01	0
2	21751	37.11	0
2	21810	37.21	0
2	21869	37.31	0
2	21928	37.41	0
2	21987	37.51	0
2	22046	37.61	0
2	22105	37.71	0
2	22164	37.81	0
2	22223	37.91	0
2	22285	38.01	0
2	22344	38.11	0
2	22403	38.21	0
2	22462	38.31	0
2	22521	38.41	0
2	22580	38.51	0
2	22639	38.61	0
2	22698	38.71	0
2	22757	38.81	0
2	22816	38.91	0
2	22878	39.01	0
2	22937	39.11	0
2	22996	39.21	0
2	23055	39.31	0
2	23114	39.41	0
2	23173	39.51	0
2	23232	39.61	0
2	23291	39.71	0
2	23350	39.81	0
2	23409	39.91	0
2	23471	40.01	0
2	23530	40.11	0
2	23589	40.21	0
2	23648	40.31	0
2	23707	40.41	0
2	23766	40.51	0
2	23825	40.61	0
2	23884	40.71	0
2	23943	40.81	0
2	24002	40.91	0
2	24064	41.01	0
2	24123	41.11	0
2	24182	41.21	0
2	24241	41.31	0
2	24300	41.41	0
2	24359	41.51	0
2	24418	41.61	0
2	24477	41.71	0
2	24536	41.81	0
2	24595	41.91	0
2	24657	42.01	0
2	24716	42.11	0
2	24775	42.21	0
2	24834	42.31	0
2	24893	42.41	0
2	24952	42.51	0
2	25011	42.61	0
2	25070	42.71	0
2	25129	42.81	0
2	25188	42.91	0
2	25250	43.01	0
2	25309	43.11	0
2	25368	43.21	0
2	25427	43.31	0
2	25486	43.41	0
2	25545	43.51	0
2	25604	43.61	0
2	25663	43.71	0
2	25722	43.81	0
2	25781	43.91	0
2	25843	44.01	0
2	25902	44.11	0
2	25961	44.21	0
2	26020	44.31	0
2	26079	44.41	0
2	26138	44.51	0
2	26197	44.61	0
2	26256	44.71	0
2	26315	44.81	0
2	26374	44.91	0
2	26436	45.01	0
2	26495	45.11	0
2	26554	45.21	0
2	26613	45.31	0
2	26672	45.41	0
2	26731	45.51	0
2	26790	45.61	0
2	26849	45.71	0
2	26908	45.81	0
2	26967	45.91	0
2	27029	46.01	0
2	27088	46.11	0
2	27147	46.21	0
2	27206	46.31	0
2	27265	46.41	0
2	27324	46.51	0
2	27383	46.61	0
2	27442	46.71	0
2	27501	46.81	0
2	27560	46.91	0
2	27622	47.01	0
2	27681	47.11	0
2	27740	47.21	0
2	27799	47.31	0
2	27858	47.41	0
2	27917	47.51	0
2	27976	47.61	0
2	28035	47.71	0
2	28094	47.81	0
2	28153	47.91	0
2	28215	48.01	0
2	28274	48.11	0
2	28333	48.21	0
2	28392	48.31	0
2	28451	48.41	0
2	28510	48.51	0
2	28569	48.61	0
2	28628	48.71	0
2	28687	48.81	0
2	28746	48.91	0
2	28808	49.01	0
2	28867	49.11	0
2	28926	49.21	0
2	28985	49.31	0
2	29044	49.41	0
2	29103	49.51	0
2	29162	49.61	0
2	29221	49.71	0
2	29280	49.81	0
2	29339	49.91	0
2	29401	50.01	0
2	29460	50.11	0
2	29519	50.21	0
2	29578	50.31	0
2	29637	50.41	0
2	29696	50.51	0
2	29755	50.61	0
2	29814	50.71	0
2	29873	50.81	0
2	29932	50.91	0
2	29994	51.01	0
2	30053	51.11	0
2	30112	51.21	0
2	30171	51.31	0
2	30230	51.41	0
2	30289	51.51	0
2	30348	51.61	0
2	30407	51.71	0
2	30466	51.81	0
2	30525	51.91	0
2	30587	52.01	0
2	30646	52.11	0
2	30705	52.21	0
2	30764	52.31	0
2	30823	52.41	0
2	30882	52.51	0
2	30941	52.61	0
2	31000	52.71	0
2	31059	52.81	0
2	31118	52.91	0
2	31180	53.01	0
2	31239	53.11	0
2	31298	53.21	0
2	31357	53.31	0
2	31416	53.41	0
2	31475	53.51	0
2	31534	53.61	0
2	31593	53.71	0
2	31652	53.81	0
2	31711	53.91	0
2	31773	54.01	0
2	31832	54.11	0
2	31891	54.21	0
2	31950	54.31	0
2	32009	54.41	0
2	32068	54.51	0
2	32127	54.61	0
2	32186	54.71	0
2	32245	54.81	0
2	32304	54.91	0
2	32366	55.01	0
2	32425	55.11	0
2	32484	55.21	0
2	32543	55.31	0
2	32602	55.41	0
2	32661	55.51	0
2	32720	55.61	0
2	32779	55.71	0
2	32838	55.81	0
2	32897	55.91	0
2	32959	56.01	0
2	33018	56.11	0
2	33077	56.21	0
2	33136	56.31	0
2	33195	56.41	0
2	33254	56.51	0
2	33313	56.61	0
2	33372	56.71	0
2	33431	56.81	0
2	33490	56.91	0
2	33552	57.01	0
2	33611	57.11	0
2	33670	57.21	0
2	33729	57.31	0
2	33788	57.41	0
2	33847	57.51	0
2	33906	57.61	0
2	33965	57.71	0
2	34024	57.81	0
2	34083	57.91	0
2	34145	58.01	0
2	34204	58.11	0
2	34263	58.21	0
2	34322	58.31	0
2	34381	58.41	0
2	34440	58.51	0
2	34499	58.61	0
2	34558	58.71	0
2	34617	58.81	0
2	34676	58.91	0
2	34738	59.01	0
2	34797	59.11	0
2	34856	59.21	0
2	34915	59.31	0
2	34974	59.41	0
2	35033	59.51	0
2	35092	59.61	0
2	35151	59.71	0
2	35210	59.81	0
2	35269	59.91	0
2	35331	60.01	0
2	35390	60.11	0
2	35449	60.21	0
2	35508	60.31	0
2	35567	60.41	0
2	35626	60.51	0
2	35685	60.61	0
2	35744	60.71	0
2	35803	60.81	0
2	35862	60.91	0
2	35924	61.01	0
2	35983	61.11	0
2	36042	61.21	0
2	36101	61.31	0
2	36160	61.41	0
2	36219	61.51	0
2	36278	61.61	0
2	36337	61.71	0
2	36396	61.81	0
2	36455	61.91	0
2	36517	62.01	0
2	36576	62.11	0
2	36635	62.21	0
2	36694	62.31	0
2	36753	62.41	0
2	36812	62.51	0
2	36871	62.61	0
2	36930	62.71	0
2	36989	62.81	0
2	37048	62.91	0
2	37110	63.01	0
2	37169	63.11	0
2	37228	63.21	0
2	37287	63.31	0
2	37346	63.41	0
2	37405	63.51	0
2	37464	63.61	0
2	37523	63.71	0
2	37582	63.81	0
2	37641	63.91	0
2	37703	64.01	0
2	37762	64.11	0
2	37821	64.21	0
2	37880	64.31	0
2	37939	64.41	0
2	37998	64.51	0
2	38057	64.61	0
2	38116	64.71	0
2	38175	64.81	0
2	38234	64.91	0
2	38296	65.01	0
2	38355	65.11	0
2	38414	65.21	0
2	38473	65.31	0
2	38532	65.41	0
2	38591	65.51	0
2	38650	65.61	0
2	38709	65.71	0
2	38768	65.81	0
2	38827	65.91	0
2	38889	66.01	0
2	38948	66.11	0
2	39007	66.21	0
2	39066	66.31	0
2	39125	66.41	0
2	39184	66.51	0
2	39243	66.61	0
2	39302	66.71	0
2	39361	66.81	0
2	39420	66.91	0
2	39482	67.01	0
2	39541	67.11	0
2	39600	67.21	0
2	39659	67.31	0
2	39718	67.41	0
2	39777	67.51	0
2	39836	67.61	0
2	39895	67.71	0
2	39954	67.81	0
2	40013	67.91	0
2	40075	68.01	0
2	40134	68.11	0
2	40193	68.21	0
2	40252	68.31	0
2	40311	68.41	0
2	40370	68.51	0
2	40429	68.61	0
2	40488	68.71	0
2	40547	68.81	0
2	40606	68.91	0
2	40668	69.01	0
2	40727	69.11	0
2	40786	69.21	0
2	40845	69.31	0
2	40904	69.41	0
2	40963	69.51	0
2	41022	69.61	0
2	41081	69.71	0
2	41140	69.81	0
2	41199	69.91	0
2	41261	70.01	0
2	41320	70.11	0
2	41379	70.21	0
2	41438	70.31	0
2	41497	70.41	0
2	41556	70.51	0
2	41615	70.61	0
2	41674	70.71	0
2	41733	70.81	0
2	41792	70.91	0
2	41854	71.01	0
2	41913	71.11	0
2	41972	71.21	0
2	42031	71.31	0
2	42090	71.41	0
2	42149	71.51	0
2	42208	71.61	0
2	42267	71.71	0
2	42326	71.81	0
2	42385	71.91	0
2	42447	72.01	0
2	42506	72.11	0
2	42565	72.21	0
2	42624	72.31	0
2	42683	72.41	0
2	42742	72.51	0
2	42801	72.61	0
2	42860	72.71	0
2	42919	72.81	0
2	42978	72.91	0
2	43040	73.01	0
2	43099	73.11	0
2	43158	73.21	0
2	43217	73.31	0
2	43276	73.41	0
2	43335	73.51	0
2	43394	73.61	0
2	43453	73.71	0
2	43512	73.81	0
2	43571	73.91	0
2	43633	74.01	0
2	43692	74.11	0
2	43751	74.21	0
2	43810	74.31	0
2	43869	74.41	0
2	43928	74.51	0
2	43987	74.61	0
2	44046	74.71	0
2	44105	74.81	0
2	44164	74.91	0
2	44226	75.01	0
2	44285	75.11	0
2	44344	75.21	0
2	44403	75.31	0
2	44462	75.41	0
2	44521	75.51	0
2	44580	75.61	0
2	44639	75.71	0
2	44698	75.81	0
2	44757	75.91	0
2	44819	76.01	0
2	44878	76.11	0
2	44937	76.21	0
2	44996	76.31	0
2	45055	76.41	0
2	45114	76.51	0
2	45173	76.61	0
2	45232	76.71	0
2	45291	76.81	0
2	45350	76.91	0
2	45412	77.01	0
2	45471	77.11	0
2	45530	77.21	0
2	45589	77.31	0
2	45648	77.41	0
2	45707	77.51	0
2	45766	77.61	0
2	45825	77.71	0
2	45884	77.81	0
2	45943	77.91	0
2	46005	78.01	0
2	46064	78.11	0
2	46123	78.21	0
2	46182	78.31	0
2	46241	78.41	0
2	46300	78.51	0
2	46359	78.61	0
2	46418	78.71	0
2	46477	78.81	0
2	46536	78.91	0
2	46598	79.01	0
2	46657	79.11	0
2	46716	79.21	0
2	46775	79.31	0
2	46834	79.41	0
2	46893	79.51	0
2	46952	79.61	0
2	47011	79.71	0
2	47070	79.81	0
2	47129	79.91	0
2	47191	80.01	0
2	47250	80.11	0
2	47309	80.21	0
2	47368	80.31	0
2	47427	80.41	0
2	47486	80.51	0
2	47545	80.61	0
2	47604	80.71	0
2	47663	80.81	0
2	47722	80.91	0
2	47784	81.01	0
2	47843	81.11	0
2	47902	81.21	0
2	47961	81.31	0
2	48020	81.41	0
2	48079	81.51	0
2	48138	81.61	0
2	48197	81.71	0
2	48256	81.81	0
2	48315	81.91	0
2	48377	82.01	0
2	48436	82.11	0
2	48495	82.21	0
2	48554	82.31	0
2	48613	82.41	0
2	48672	82.51	0
2	48731	82.61	0
2	48790	82.71	0
2	48849	82.81	0
2	48908	82.91	0
2	48970	83.01	0
2	49029	83.11	0
2	49088	83.21	0
2	49147	83.31	0
2	49206	83.41	0
2	49265	83.51	0
2	49324	83.61	0
2	49383	83.71	0
2	49442	83.81	0
2	49501	83.91	0
2	49563	84.01	0
2	49622	84.11	0
2	49681	84.21	0
2	49740	84.31	0
2	49799	84.41	0
2	49858	84.51	0
2	49917	84.61	0
2	49976	84.71	0
2	50035	84.81	0
2	50094	84.91	0
2	50156	85.01	0
2	50215	85.11	0
2	50274	85.21	0
2	50333	85.31	0
2	50392	85.41	0
2	50451	85.51	0
2	50510	85.61	0
2	50569	85.71	0
2	50628	85.81	0
2	50687	85.91	0
2	50749	86.01	0
2	50808	86.11	0
2	50867	86.21	0
2	50926	86.31	0
2	50985	86.41	0
2	51044	86.51	0
2	51103	86.61	0
2	51162	86.71	0
2	51221	86.81	0
2	51280	86.91	0
2	51342	87.01	0
2	51401	87.11	0
2	51460	87.21	0
2	51519	87.31	0
2	51578	87.41	0
2	51637	87.51	0
2	51696	87.61	0
2	51755	87.71	0
2	51814	87.81	0
2	51873	87.91	0
2	51935	88.01	0
2	51994	88.11	0
2	52053	88.21	0
2	52112	88.31	0
2	52171	88.41	0
2	52230	88.51	0
2	52289	88.61	0
2	52348	88.71	0
2	52407	88.81	0
2	52466	88.91	0
2	52528	89.01	0
2	52587	89.11	0
2	52646	89.21	0
2	52705	89.31	0
2	52764	89.41	0
2	52823	89.51	0
2	52882	89.61	0
2	52941	89.71	0
2	53000	89.81	0
2	53059	89.91	0
2	53121	90.01	0
2	53180	90.11	0
2	53239	90.21	0
2	53298	90.31	0
2	53357	90.41	0
2	53416	90.51	0
2	53475	90.61	0
2	53534	90.71	0
2	53593	90.81	0
2	53652	90.91	0
2	53714	91.01	0
2	53773	91.11	0
2	53832	91.21	0
2	53891	91.31	0
2	53950	91.41	0
2	54009	91.51	0
2	54068	91.61	0
2	54127	91.71	0
2	54186	91.81	0
2	54245	91.91	0
2	54307	92.01	0
2	54366	92.11	0
2	54425	92.21	0
2	54484	92.31	0
2	54543	92.41	0
2	54602	92.51	0
2	54661	92.61	0
2	54720	92.71	0
2	54779	92.81	0
2	54838	92.91	0
2	54900	93.01	0
2	54959	93.11	0
2	55018	93.21	0
2	55077	93.31	0
2	55136	93.41	0
2	55195	93.51	0
2	55254	93.61	0
2	55313	93.71	0
2	55372	93.81	0
2	55431	93.91	0
2	55493	94.01	0
2	55552	94.11	0
2	55611	94.21	0
2	55670	94.31	0
2	55729	94.41	0
2	55788	94.51	0
2	55847	94.61	0
2	55906	94.71	0
2	55965	94.81	0
2	56024	94.91	0
2	56086	95.01	0
2	56145	95.11	0
2	56204	95.21	0
2	56263	95.31	0
2	56322	95.41	0
2	56381	95.51	0
2	56440	95.61	0
2	56499	95.71	0
2	56558	95.81	0
2	56617	95.91	0
2	56679	96.01	0
2	56738	96.11	0
2	56797	96.21	0
2	56856	96.31	0
2	56915	96.41	0
2	56974	96.51	0
2	57033	96.61	0
2	57092	96.71	0
2	57151	96.81	0
2	57210	96.91	0
2	57272	97.01	0
2	57331	97.11	0
2	57390	97.21	0
2	57449	97.31	0
2	57508	97.41	0
2	57567	97.51	0
2	57626	97.61	0
2	57685	97.71	0
2	57744	97.81	0
2	57803	97.91	0
2	57865	98.01	0
2	57924	98.11	0
2	57983	98.21	0
2	58042	98.31	0
2	58101	98.41	0
2	58160	98.51	0
2	58219	98.61	0
2	58278	98.71	0
2	58337	98.81	0
2	58396	98.91	0
2	58458	99.01	0
2	58517	99.11	0
2	58576	99.21	0
2	58635	99.31	0
2	58694	99.41	0
2	58753	99.51	0
2	58812	99.61	0
2	58871	99.71	0
2	58930	99.81	0
2	58989	99.91	0
3	113	1.11	0.000179096
3	172	1.21	0.000340852
3	231	1.31	0.000467435
3	290	1.41	0.000562893
3	349	1.51	0.000631106
3	408	1.61	0.000675745
3	467	1.71	0.000700245
3	526	1.81	0.000707784
3	585	1.91	0.000701273
3	647	2.01	0.000683354
3	706	2.11	0.000656398
3	765	2.21	0.000622512
3	824	2.31	0.000583548
3	883	2.41	0.000541117
3	942	2.51	0.000496604
3	1001	2.61	0.000451181
3	1060	2.71	0.000405825
3	1119	2.81	0.00036134
3	1178	2.91	0.000318365
3	1240	3.01	0.0002774
3	1299	3.11	0.00023882
3	1358	3.21	0.000202887
3	1417	3.31	0.00016977
3	1476	3.41	0.000139558
3	1535	3.51	0.000112271
3	1594	3.61	8.78717e-05
3	1653	3.71	6.628e-05
3	1712	3.81	4.73785e-05
3	1771	3.91	3.1023e-05
3	1833	4.01	1.70493e-05
3	1892	4.11	5.28023e-06
3	1951	4.21	-4.46922e-06
3	2010	4.31	-1.2387e-05
3	2069	4.41	-1.86602e-05
3	2128	4.51	-2.34717e-05
3	2187	4.61	-2.69978e-05
3	2246	4.71	-2.94062e-05
3	2305	4.81	-3.08545e-05
3	2364	4.91	-3.14892e-05
3	2426	5.01	-3.14451e-05
3	2485	5.11	-3.0845e-05
3	2544	5.21	-2.97994e-05
3	2603	5.31	-2.84072e-05
3	2662	5.41	-2.67556e-05
3	2721	5.51	-2.49208e-05
3	2780	5.61	-2.29687e-05
3	2839	5.71	-2.09553e-05
3	2898	5.81	-1.89277e-05
3	2957	5.91	-1.6925e-05
3	3019	6.01	-1.49784e-05
3	3078	6.11	-1.31129e-05
3	3137	6.21	-1.13474e-05
3	3196	6.31	-9.69553e-06
3	3255	6.41	-8.16651e-06
3	3314	6.51	-6.76571e-06
3	3373	6.61	-5.49522e-06
3	3432	6.71	-4.35441e-06
3	3491	6.81	-3.34045e-06
3	3550	6.91	-2.44874e-06
3	3612	7.01	-1.6733e-06
3	3671	7.11	-1.00716e-06
3	3730	7.21	-4.42628e-07
3	3789	7.31	2.84224e-08
3	3848	7.41	4.14339e-07
3	3907	7.51	7.23492e-07
3	3966	7.61	9.6413e-07
3	4025	7.71	1.14424e-06
3	4084	7.81	1.27148e-06
3	4143	7.91	1.35305e-06
3	4205	8.01	1.3957e-06
3	4264	8.11	1.40565e-06
3	4323	8.21	1.3886e-06
3	4382	8.31	1.34971e-06
3	4441	8.41	1.2936e-06
3	4500	8.51	1.22437e-06
3	4559	8.61	1.14561e-06
3	4618	8.71	1.06046e-06
3	4677	8.81	9.71582e-07
3	4736	8.91	8.81246e-07
3	4798	9.01	7.91334e-07
3	4857	9.11	7.03381e-07
3	4916	9.21	6.18613e-07
3	4975	9.31	5.37979e-07
3	5034	9.41	4.62183e-07
3	5093	9.51	3.91714e-07
3	5152	9.61	3.26878e-07
3	5211	9.71	2.67827e-07
3	5270	9.81	2.14581e-07
3	5329	9.91	1.67052e-07
3	5422	10.01	1.25066e-07
3	5482	10.11	8.83794e-08
3	5542	10.21	5.66978e-08
3	5602	10.31	2.96922e-08
3	5662	10.41	7.00453e-09
3	5722	10.51	-1.17325e-08
3	5782	10.61	-2.68933e-08
3	5842	10.71	-3.88482e-08
3	5902	10.81	-4.79581e-08
3	5962	10.91	-5.45704e-08
3	6025	11.01	-5.90177e-08
3	6085	11.11	-6.16069e-08
3	6145	11.21	-6.26265e-08
3	6205	11.31	-6.23395e-08
3	6265	11.41	-6.09859e-08
3	6325	11.51	-5.87811e-08
3	6385	11.61	-5.59183e-08
3	6445	11.71	-5.25674e-08
3	6505	11.81	-4.88761e-08
3	6565	11.91	-4.4971e-08
3	6628	12.01	-4.09599e-08
3	6688	12.11	-3.69354e-08
3	6748	12.21	-3.29713e-08
3	6808	12.31	-2.9128e-08
3	6868	12.41	-2.54531e-08
3	6928	12.51	-2.19821e-08
3	6988	12.61	-1.87399e-08
3	7048	12.71	-1.57428e-08
3	7108	12.81	-1.30029e-08
3	7168	12.91	-1.05217e-08
3	7231	13.01	-8.29772e-09
3	7291	13.11	-6.32454e-09
3	7351	13.21	-4.59224e-09
3	7411	13.31	-3.08802e-09
3	7471	13.41	-1.79838e-09
3	7531	13.51	-7.08411e-10
3	7591	13.61	1.98241e-10
3	7651	13.71	9.37916e-10
3	7711	13.81	1.52767e-09
3	7771	13.91	1.98384e-09
3	7834	14.01	2.32276e-09
3	7894	14.11	2.55937e-09
3	7954	14.21	2.70788e-09
3	8014	14.31	2.78249e-09
3	8074	14.41	2.79243e-09
3	8134	14.51	2.7498e-09
3	8194	14.61	2.66525e-09
3	8254	14.71	2.54872e-09
3	8314	14.81	2.40803e-09
3	8374	14.91	2.24887e-09
3	8437	15.01	2.07763e-09
3	8497	15.11	1.89999e-09
3	8557	15.21	1.72236e-09
3	8617	15.31	1.54472e-09
3	8677	15.41	1.37064e-09
3	8737	15.51	1.20295e-09
3	8797	15.61	1.04379e-09
3	8857	15.71	8.94573e-10
3	8917	15.81	7.56017e-10
3	8977	15.91	6.29541e-10
3	9040	16.01	5.13012e-10
3	9100	16.11	4.09273e-10
3	9160	16.21	3.16902e-10
3	9220	16.31	2.3519e-10
3	9280	16.41	1.63425e-10
3	9340	16.51	1.02318e-10
3	9400	16.61	4.9738e-11
3	9460	16.71	5.68434e-12
3	9520	16.81	-3.05533e-11
3	9580	16.91	-5.8975e-11
3	9643	17.01	-8.10019e-11
3	9703	17.11	-9.80549e-11
3	9763	17.21	-1.11555e-10
3	9823	17.31	-1.18661e-10
3	9883	17.41	-1.23634e-10
3	9943	17.51	-1.23634e-10
3	10003	17.61	-1.23634e-10
3	10063	17.71	-1.21503e-10
3	10123	17.81	-1.14397e-10
3	10183	17.91	-1.07292e-10
3	10246	18.01	-1.00187e-10
3	10306	18.11	-9.30811e-11
3	10366	18.21	-8.59757e-11
3	10426	18.31	-7.88702e-11
3	10486	18.41	-7.17648e-11
3	10546	18.51	-6.46594e-11
3	10606	18.61	-5.7554e-11
3	10666	18.71	-5.04485e-11
3	10726	18.81	-4.33431e-11
3	10786	18.91	-3.62377e-11
3	10849	19.01	-2.91323e-11
3	10909	19.11	-2.20268e-11
3	10969	19.21	-1.7053e-11
3	11029	19.31	-1.49214e-11
3	11089	19.41	-1.35003e-11
3	11149	19.51	-1.27898e-11
3	11209	19.61	-1.13687e-11
3	11269	19.71	-9.9476e-12
3	11329	19.81	-9.23706e-12
3	11389	19.91	-8.52651e-12
3	11452	20.01	-7.81597e-12
3	11512	20.11	-7.10543e-12
3	11572	20.21	-6.39488e-12
3	11632	20.31	-5.68434e-12
3	11692	20.41	-4.9738e-12
3	11752	20.51	-4.26326e-12
3	11812	20.61	-4.26326e-12
3	11872	20.71	-3.55271e-12
3	11932	20.81	-3.55271e-12
3	11992	20.91	-2.84217e-12
3	12055	21.01	-2.84217e-12
3	12115	21.11	-2.84217e-12
3	12175	21.21	-2.13163e-12
3	12235	21.31	-2.13163e-12
3	12295	21.41	-2.13163e-12
3	12355	21.51	-1.42109e-12
3	12415	21.61	-1.42109e-12
3	12475	21.71	-1.42109e-12
3	12535	21.81	-1.42109e-12
3	12595	21.91	-1.42109e-12
3	12658	22.01	-7.10543e-13
3	12718	22.11	-7.10543e-13
3	12778	22.21	-7.10543e-13
3	12838	22.31	-7.10543e-13
3	12898	22.41	-7.10543e-13
3	12958	22.51	-7.10543e-13
3	13018	22.61	-7.10543e-13
3	13078	22.71	-7.10543e-13
3	13138	22.81	-7.10543e-13
3	13198	22.91	-7.10543e-13
3	13261	23.01	0
3	13321	23.11	0
3	13381	23.21	0
3	13441	23.31	0
3	13501	23.41	0
3	13561	23.51	0
3	13621	23.61	0
3	13681	23.71	0
3	13741	23.81	0
3	13801	23.91	0
3	13864	24.01	0
3	13924	24.11	0
3	13984	24.21	0
3	14044	24.31	0
3	14104	24.41	0
3	14164	24.51	0
3	14224	24.61	0
3	14284	24.71	0
3	14344	24.81	0
3	14404	24.91	0
3	14467	25.01	0
3	14527	25.11	0
3	14587	25.21	0
3	14647	25.31	0
3	14707	25.41	0
3	14767	25.51	0
3	14827	25.61	0
3	14887	25.71	0
3	14947	25.81	0
3	15007	25.91	0
3	15070	26.01	0
3	15130	26.11	0
3	15190	26.21	0
3	15250	26.31	0
3	15310	26.41	0
3	15370	26.51	0
3	15430	26.61	0
3	15490	26.71	0
3	15550	26.81	0
3	15610	26.91	0
3	15673	27.01	0
3	15733	27.11	0
3	15793	27.21	0
3	15853	27.31	0
3	15913	27.41	0
3	15973	27.51	0
3	16033	27.61	0
3	16093	27.71	0
3	16153	27.81	0
3	16213	27.91	0
3	16276	28.01	0
3	16336	28.11	0
3	16396	28.21	0
3	16456	28.31	0
3	16516	28.41	0
3	16576	28.51	0
3	16636	28.61	0
3	16696	28.71	0
3	16756	28.81	0
3	16816	28.91	0
3	16879	29.01	0
3	16939	29.11	0
3	16999	29.21	0
3	17125	29.31	0
3	17184	29.41	0
3	17243	29.51	0
3	17302	29.61	0
3	17361	29.71	0
3	17420	29.81	0
3	17479	29.91	0
3	17541	30.01	0
3	17600	30.11	0
3	17659	30.21	0
3	17718	30.31	0
3	17777	30.41	0
3	17836	30.51	0
3	17895	30.61	0
3	17954	30.71	0
3	18013	30.81	0
3	18072	30.91	0
3	18134	31.01	0
3	18193	31.11	0
3	18252	31.21	0
3	18311	31.31	0
3	18370	31.41	0
3	18429	31.51	0
3	18488	31.61	0
3	18547	31.71	0
3	18606	31.81	0
3	18665	31.91	0
3	18727	32.01	0
3	18786	32.11	0
3	18845	32.21	0
3	18904	32.31	0
3	18963	32.41	0
3	19022	32.51	0
3	19081	32.61	0
3	19140	32.71	0
3	19199	32.81	0
3	19258	32.91	0
3	19320	33.01	0
3	19379	33.11	0
3	19438	33.21	0
3	19497	33.31	0
3	19556	33.41	0
3	19615	33.51	0
3	19674	33.61	0
3	19733	33.71	0
3	19792	33.81	0
3	19851	33.91	0
3	19913	34.01	0
3	19972	34.11	0
3	20031	34.21	0
3	20090	34.31	0
3	20149	34.41	0
3	20208	34.51	0
3	20267	34.61	0
3	20326	34.71	0
3	20385	34.81	0
3	20444	34.91	0
3	20506	35.01	0
3	20565	35.11	0
3	20624	35.21	0
3	20683	35.31	0
3	20742	35.41	0
3	20801	35.51	0
3	20860	35.61	0
3	20919	35.71	0
3	20978	35.81	0
3	21037	35.91	0
3	21099	36.01	0
3	21158	36.11	0
3	21217	36.21	0
3	21276	36.31	0
3	21335	36.41	0
3	21394	36.51	0
3	21453	36.61	0
3	21512	36.71	0
3	21571	36.81	0
3	21630	36.91	0
3	21692	37.01	0
3	21751	37.11	0
3	21810	37.21	0
3	21869	37.31	0
3	21928	37.41	0
3	21987	37.51	0
3	22046	37.61	0
3	22105	37.71	0
3	22164	37.81	0
3	22223	37.91	0
3	22285	38.01	0
3	22344	38.11	0
3	22403	38.21	0
3	22462	38.31	0
3	22521	38.41	0
3	22580	38.51	0
3	22639	38.61	0
3	22698	38.71	0
3	22757	38.81	0
3	22816	38.91	0
3	22878	39.01	0
3	22937	39.11	0
3	22996	39.21	0
3	23055	39.31	0
3	23114	39.41	0
3	23173	39.51	0
3	23232	39.61	0
3	23291	39.71	0
3	23350	39.81	0
3	23409	39.91	0
3	23471	40.01	0
3	23530	40.11	0
3	23589	40.21	0
3	23648	40.31	0
3	23707	40.41	0
3	23766	40.51	0
3	23825	40.61	0
3	23884	40.71	0
3	23943	40.81	0
3	24002	40.91	0
3	24064	41.01	0
3	24123	41.11	0
3	24182	41.21	0
3	24241	41.31	0
3	24300	41.41	0
3	24359	41.51	0
3	24418	41.61	0
3	24477	41.71	0
3	24536	41.81	0
3	24595	41.91	0
3	24657	42.01	0
3	24716	42.11	0
3	24775	42.21	0
3	24834	42.31	0
3	24893	42.41	0
3	24952	42.51	0
3	25011	42.61	0
3	25070	42.71	0
3	25129	42.81	0
3	25188	42.91	0
3	25250	43.01	0
3	25309	43.11	0
3	25368	43.21	0
3	25427	43.31	0
3	25486	43.41	0
3	25545	43.51	0
3	25604	43.61	0
3	25663	43.71	0
3	25722	43.81	0
3	25781	43.91	0
3	25843	44.01	0
3	25902	44.11	0
3	25961	44.21	0
3	26020	44.31	0
3	26079	44.41	0
3	26138	44.51	0
3	26197	44.61	0
3	26256	44.71	0
3	26315	44.81	0
3	26374	44.91	0
3	26436	45.01	0
3	26495	45.11	0
3	26554	45.21	0
3	26613	45.31	0
3	26672	45.41	0
3	26731	45.51	0
3	26790	45.61	0
3	26849	45.71	0
3	26908	45.81	0
3	26967	45.91	0
3	27029	46.01	0
3	27088	46.11	0
3	27147	46.21	0
3	27206	46.31	0
3	27265	46.41	0
3	27324	46.51	0
3	27383	46.61	0
3	27442	46.71	0
3	27501	46.81	0
3	27560	46.91	0
3	27622	47.01	0
3	27681	47.11	0
3	27740	47.21	0
3	27799	47.31	0
3	27858	47.41	0
3	27917	47.51	0
3	27976	47.61	0
3	28035	47.71	0
3	28094	47.81	0
3	28153	47.91	0
3	28215	48.01	0
3	28274	48.11	0
3	28333	48.21	0
3	28392	48.31	0
3	28451	48.41	0
3	28510	48.51	0
3	28569	48.61	0
3	28628	48.71	0
3	28687	48.81	0
3	28746	48.91	0
3	28808	49.01	0
3	28867	49.11	0
3	28926	49.21	0
3	28985	49.31	0
3	29044	49.41	0
3	29103	49.51	0
3	29162	49.61	0
3	29221	49.71	0
3	29280	49.81	0
3	29339	49.91	0
3	29401	50.01	0
3	29460	50.11	0
3	29519	50.21	0
3	29578	50.31	0
3	29637	50.41	0
3	29696	50.51	0
3	29755	50.61	0
3	29814	50.71	0
3	29873	50.81	0
3	29932	50.91	0
3	29994	51.01	0
3	30053	51.11	0
3	30112	51.21	0
3	30171	51.31	0
3	30230	51.41	0
3	30289	51.51	0
3	30348	51.61	0
3	30407	51.71	0
3	30466	51.81	0
3	30525	51.91	0
3	30587	52.01	0
3	30646	52.11	0
3	30705	52.21	0
3	30764	52.31	0
3	30823	52.41	0
3	30882	52.51	0
3	30941	52.61	0
3	31000	52.71	0
3	31059	52.81	0
3	31118	52.91	0
3	31180	53.01	0
3	31239	53.11	0
3	31298	53.21	0
3	31357	53.31	0
3	31416	53.41	0
3	31475	53.51	0
3	31534	53.61	0
3	31593	53.71	0
3	31652	53.81	0
3	31711	53.91	0
3	31773	54.01	0
3	31832	54.11	0
3	31891	54.21	0
3	31950	54.31	0
3	32009	54.41	0
3	32068	54.51	0
3	32127	54.61	0
3	32186	54.71	0
3	32245	54.81	0
3	32304	54.91	0
3	32366	55.01	0
3	32425	55.11	0
3	32484	55.21	0
3	32543	55.31	0
3	32602	55.41	0
3	32661	55.51	0
3	32720	55.61	0
3	32779	55.71	0
3	32838	55.81	0
3	32897	55.91	0
3	32959	56.01	0
3	33018	56.11	0
3	33077	56.21	0
3	33136	56.31	0
3	33195	56.41	0
3	33254	56.51	0
3	33313	56.61	0
3	33372	56.71	0
3	33431	56.81	0
3	33490	56.91	0
3	33552	57.01	0
3	33611	57.11	0
3	33670	57.21	0
3	33729	57.31	0
3	33788	57.41	0
3	33847	57.51	0
3	33906	57.61	0
3	33965	57.71	0
3	34024	57.81	0
3	34083	57.91	0
3	34145	58.01	0
3	34204	58.11	0
3	34263	58.21	0
3	34322	58.31	0
3	34381	58.41	0
3	34440	58.51	0
3	34499	58.61	0
3	34558	58.71	0
3	34617	58.81	0
3	34676	58.91	0
3	34738	59.01	0
3	34797	59.11	0
3	34856	59.21	0
3	34915	59.31	0
3	34974	59.41	0
3	35033	59.51	0
3	35092	59.61	0
3	35151	59.71	0
3	35210	59.81	0
3	35269	59.91	0
3	35331	60.01	0
3	35390	60.11	0
3	35449	60.21	0
3	35508	60.31	0
3	35567	60.41	0
3	35626	60.51	0
3	35685	60.61	0
3	35744	60.71	0
3	35803	60.81	0
3	35862	60.91	0
3	35924	61.01	0
3	35983	61.11	0
3	36042	61.21	0
3	36101	61.31	0
3	36160	61.41	0
3	36219	61.51	0
3	36278	61.61	0
3	36337	61.71	0
3	36396	61.81	0
3	36455	61.91	0
3	36517	62.01	0
3	36576	62.11	0
3	36635	62.21	0
3	36694	62.31	0
3	36753	62.41	0
3	36812	62.51	0
3	36871	62.61	0
3	36930	62.71	0
3	36989	62.81	0
3	37048	62.91	0
3	37110	63.01	0
3	37169	63.11	0
3	37228	63.21	0
3	37287	63.31	0
3	37346	63.41	0
3	37405	63.51	0
3	37464	63.61	0
3	37523	63.71	0
3	37582	63.81	0
3	37641	63.91	0
3	37703	64.01	0
3	37762	64.11	0
3	37821	64.21	0
3	37880	64.31	0
3	37939	64.41	0
3	37998	64.51	0
3	38057	64.61	0
3	38116	64.71	0
3	38175	64.81	0
3	38234	64.91	0
3	38296	65.01	0
3	38355	65.11	0
3	38414	65.21	0
3	38473	65.31	0
3	38532	65.41	0
3	38591	65.51	0
3	38650	65.61	0
3	38709	65.71	0
3	38768	65.81	0
3	38827	65.91	0
3	38889	66.01	0
3	38948	66.11	0
3	39007	66.21	0
3	39066	66.31	0
3	39125	66.41	0
3	39184	66.51	0
3	39243	66.61	0
3	39302	66.71	0
3	39361	66.81	0
3	39420	66.91	0
3	39482	67.01	0
3	39541	67.11	0
3	39600	67.21	0
3	39659	67.31	0
3	39718	67.41	0
3	39777	67.51	0
3	39836	67.61	0
3	39895	67.71	0
3	39954	67.81	0
3	40013	67.91	0
3	40075	68.01	0
3	40134	68.11	0
3	40193	68.21	0
3	40252	68.31	0
3	40311	68.41	0
3	40370	68.51	0
3	40429	68.61	0
3	40488	68.71	0
3	40547	68.81	0
3	40606	68.91	0
3	40668	69.01	0
3	40727	69.11	0
3	40786	69.21	0
3	40845	69.31	0
3	40904	69.41	0
3	40963	69.51	0
3	41022	69.61	0
3	41081	69.71	0
3	41140	69.81	0
3	41199	69.91	0
3	41261	70.01	0
3	41320	70.11	0
3	41379	70.21	0
3	41438	70.31	0
3	41497	70.41	0
3	41556	70.51	0
3	41615	70.61	0
3	41674	70.71	0
3	41733	70.81	0
3	41792	70.91	0
3	41854	71.01	0
3	41913	71.11	0
3	41972	71.21	0
3	42031	71.31	0
3	42090	71.41	0
3	42149	71.51	0
3	42208	71.61	0
3	42267	71.71	0
3	42326	71.81	0
3	42385	71.91	0
3	42447	72.01	0
3	42506	72.11	0
3	42565	72.21	0
3	42624	72.31	0
3	42683	72.41	0
3	42742	72.51	0
3	42801	72.61	0
3	42860	72.71	0
3	42919	72.81	0
3	42978	72.91	0
3	43040	73.01	0
3	43099	73.11	0
3	43158	73.21	0
3	43217	73.31	0
3	43276	73.41	0
3	43335	73.51	0
3	43394	73.61	0
3	43453	73.71	0
3	43512	73.81	0
3	43571	73.91	0
3	43633	74.01	0
3	43692	74.11	0
3	43751	74.21	0
3	43810	74.31	0
3	43869	74.41	0
3	43928	74.51	0
3	43987	74.61	0
3	44046	74.71	0
3	44105	74.81	0
3	44164	74.91	0
3	44226	75.01	0
3	44285	75.11	0
3	44344	75.21	0
3	44403	75.31	0
3	44462	75.41	0
3	44521	75.51	0
3	44580	75.61	0
3	44639	75.71	0
3	44698	75.81	0
3	44757	75.91	0
3	44819	76.01	0
3	44878	76.11	0
3	44937	76.21	0
3	44996	76.31	0
3	45055	76.41	0
3	45114	76.51	0
3	45173	76.61	0
3	45232	76.71	0
3	45291	76.81	0
3	45350	76.91	0
3	45412	77.01	0
3	45471	77.11	0
3	45530	77.21	0
3	45589	77.31	0
3	45648	77.41	0
3	45707	77.51	0
3	45766	77.61	0
3	45825	77.71	0
3	45884	77.81	0
3	45943	77.91	0
3	46005	78.01	0
3	46064	78.11	0
3	46123	78.21	0
3	46182	78.31	0
3	46241	78.41	0
3	46300	78.51	0
3	46359	78.61	0
3	46418	78.71	0
3	46477	78.81	0
3	46536	78.91	0
3	46598	79.01	0
3	46657	79.11	0
3	46716	79.21	0
3	46775	79.31	0
3	46834	79.41	0
3	46893	79.51	0
3	46952	79.61	0
3	47011	79.71	0
3	47070	79.81	0
3	47129	79.91	0
3	47191	80.01	0
3	47250	80.11	0
3	47309	80.21	0
3	47368	80.31	0
3	47427	80.41	0
3	47486	80.51	0
3	47545	80.61	0
3	47604	80.71	0
3	47663	80.81	0
3	47722	80.91	0
3	47784	81.01	0
3	47843	81.11	0
3	47902	81.21	0
3	47961	81.31	0
3	48020	81.41	0
3	48079	81.51	0
3	48138	81.61	0
3	48197	81.71	0
3	48256	81.81	0
3	48315	81.91	0
3	48377	82.01	0
3	48436	82.11	0
3	48495	82.21	0
3	48554	82.31	0
3	48613	82.41	0
3	48672	82.51	0
3	48731	82.61	0
3	48790	82.71	0
3	48849	82.81	0
3	48908	82.91	0
3	48970	83.01	0
3	49029	83.11	0
3	49088	83.21	0
3	49147	83.31	0
3	49206	83.41	0
3	49265	83.51	0
3	49324	83.61	0
3	49383	83.71	0
3	49442	83.81	0
3	49501	83.91	0
3	49563	84.01	0
3	49622	84.11	0
3	49681	84.21	0
3	49740	84.31	0
3	49799	84.41	0
3	49858	84.51	0
3	49917	84.61	0
3	49976	84.71	0
3	50035	84.81	0
3	50094	84.91	0
3	50156	85.01	0
3	50215	85.11	0
3	50274	85.21	0
3	50333	85.31	0
3	50392	85.41	0
3	50451	85.51	0
3	50510	85.61	0
3	50569	85.71	0
3	50628	85.81	0
3	50687	85.91	0
3	50749	86.01	0
3	50808	86.11	0
3	50867	86.21	0
3	50926	86.31	0
3	50985	86.41	0
3	51044	86.51	0
3	51103	86.61	0
3	51162	86.71	0
3	51221	86.81	0
3	51280	86.91	0
3	51342	87.01	0
3	51401	87.11	0
3	51460	87.21	0
3	51519	87.31	0
3	51578	87.41	0
3	51637	87.51	0
3	51696	87.61	0
3	51755	87.71	0
3	51814	87.81	0
3	51873	87.91	0
3	51935	88.01	0
3	51994	88.11	0
3	52053	88.21	0
3	52112	88.31	0
3	52171	88.41	0
3	52230	88.51	0
3	52289	88.61	0
3	52348	88.71	0
3	52407	88.81	0
3	52466	88.91	0
3	52528	89.01	0
3	52587	89.11	0
3	52646	89.21	0
3	52705	89.31	0
3	52764	89.41	0
3	52823	89.51	0
3	52882	89.61	0
3	52941	89.71	0
3	53000	89.81	0
3	53059	89.91	0
3	53121	90.01	0
3	53180	90.11	0
3	53239	90.21	0
3	53298	90.31	0
3	53357	90.41	0
3	53416	90.51	0
3	53475	90.61	0
3	53534	90.71	0
3	53593	90.81	0
3	53652	90.91	0
3	53714	91.01	0
3	53773	91.11	0
3	53832	91.21	0
3	53891	91.31	0
3	53950	91.41	0
3	54009	91.51	0
3	54068	91.61	0
3	54127	91.71	0
3	54186	91.81	0
3	54245	91.91	0
3	54307	92.01	0
3	54366	92.11	0
3	54425	92.21	0
3	54484	92.31	0
3	54543	92.41	0
3	54602	92.51	0
3	54661	92.61	0
3	54720	92.71	0
3	54779	92.81	0
3	54838	92.91	0
3	54900	93.01	0
3	54959	93.11	0
3	55018	93.21	0
3	55077	93.31	0
3	55136	93.41	0
3	55195	93.51	0
3	55254	93.61	0
3	55313	93.71	0
3	55372	93.81	0
3	55431	93.91	0
3	55493	94.01	0
3	55552	94.11	0
3	55611	94.21	0
3	55670	94.31	0
3	55729	94.41	0
3	55788	94.51	0
3	55847	94.61	0
3	55906	94.71	0
3	55965	94.81	0
3	56024	94.91	0
3	56086	95.01	0
3	56145	95.11	0
3	56204	95.21	0
3	56263	95.31	0
3	56322	95.41	0
3	56381	95.51	0
3	56440	95.61	0
3	56499	95.71	0
3	56558	95.81	0
3	56617	95.91	0
3	56679	96.01	0
3	56738	96.11	0
3	56797	96.21	0
3	56856	96.31	0
3	56915	96.41	0
3	56974	96.51	0
3	57033	96.61	0
3	57092	96.71	0
3	57151	96.81	0
3	57210	96.91	0
3	57272	97.01	0
3	57331	97.11	0
3	57390	97.21	0
3	57449	97.31	0
3	57508	97.41	0
3	57567	97.51	0
3	57626	97.61	0
3	57685	97.71	0
3	57744	97.81	0
3	57803	97.91	0
3	57865	98.01	0
3	57924	98.11	0
3	57983	98.21	0
3	58042	98.31	0
3	58101	98.41	0
3	58160	98.51	0
3	58219	98.61	0
3	58278	98.71	0
3	58337	98.81	0
3	58396	98.91	0
3	58458	99.01	0
3	58517	99.11	0
3	58576	99.21	0
3	58635	99.31	0
3	58694	99.41	0
3	58753	99.51	0
3	58812	99.61	0
3	58871	99.71	0
3	58930	99.81	0
3	58989	99.91	0
4	113	1.11	0.00109259
4	172	1.21	0.00106709
4	231	1.31	0.00102704
4	290	1.41	0.000975759
4	349	1.51	0.00091619
4	408	1.61	0.000850891
4	467	1.71	0.000782061
4	526	1.81	0.00071157
4	585	1.91	0.00064098
4	647	2.01	0.000571575
4	706	2.11	0.000504387
4	765	2.21	0.000440223
4	824	2.31	0.000379691
4	883	2.41	0.000323223
4	942	2.51	0.000271102
4	1001	2.61	0.000223482
4	1060	2.71	0.000180409
4	1119	2.81	0.000141839
4	1178	2.91	0.000107653
4	1240	3.01	7.76787e-05
4	1299	3.11	5.16957e-05
4	1358	3.21	2.94534e-05
4	1417	3.31	1.06787e-05
4	1476	3.41	-4.91459e-06
4	1535	3.51	-1.76184e-05
4	1594	3.61	-2.7724e-05
4	1653	3.71	-3.55168e-05
4	1712	3.81	-4.12726e-05
4	1771	3.91	-4.52541e-05
4	1833	4.01	-4.77086e-05
4	1892	4.11	-4.88665e-05
4	1951	4.21	-4.89399e-05
4	2010	4.31	-4.81224e-05
4	2069	4.41	-4.65886e-05
4	2128	4.51	-4.44947e-05
4	2187	4.61	-4.1979e-05
4	2246	4.71	-3.91623e-05
4	2305	4.81	-3.61492e-05
4	2364	4.91	-3.3029e-05
4	2426	5.01	-2.9877e-05
4	2485	5.11	-2.67554e-05
4	2544	5.21	-2.37147e-05
4	2603	5.31	-2.07949e-05
4	2662	5.41	-1.80267e-05
4	2721	5.51	-1.54325e-05
4	2780	5.61	-1.30275e-05
4	2839	5.71	-1.0821e-05
4	2898	5.81	-8.81673e-06
4	2957	5.91	-7.01443e-06
4	3019	6.01	-5.4101e-06
4	3078	6.11	-3.99696e-06
4	3137	6.21	-2.766e-06
4	3196	6.31	-1.70658e-06
4	3255	6.41	-8.06872e-07
4	3314	6.51	-5.43281e-08
4	3373	6.61	5.63994e-07
4	3432	6.71	1.06112e-06
4	3491	6.81	1.4499e-06
4	3550	6.91	1.74283e-06
4	3612	7.01	1.95188e-06
4	3671	7.11	2.08836e-06
4	3730	7.21	2.16287e-06
4	3789	7.31	2.1852e-06
4	3848	7.41	2.16432e-06
4	3907	7.51	2.10838e-06
4	3966	7.61	2.02467e-06
4	4025	7.71	1.91968e-06
4	4084	7.81	1.79913e-06
4	4143	7.91	1.66796e-06
4	4205	8.01	1.53044e-06
4	4264	8.11	1.39018e-06
4	4323	8.21	1.25018e-06
4	4382	8.31	1.11291e-06
4	4441	8.41	9.80339e-07
4	4500	8.51	8.54002e-07
4	4559	8.61	7.35044e-07
4	4618	8.71	6.24274e-07
4	4677	8.81	5.22206e-07
4	4736	8.91	4.2911e-07
4	4798	9.01	3.45041e-07
4	4857	9.11	2.69888e-07
4	4916	9.21	2.03394e-07
4	4975	9.31	1.45199e-07
4	5034	9.41	9.48539e-08
4	5093	9.51	5.18526e-08
4	5152	9.61	1.56462e-08
[...]
27	46207	78.369542093463	1
27	46266	78.469539652334	1
27	46325	78.569550212465	1
27	46384	78.669547773856	1
27	46443	78.769545336508	1
27	46502	78.869542900421	1
27	46561	78.969540465594	1
27	46623	79.069551032027	1
27	46682	79.16954859972	1
27	46741	79.269546168673	1
27	46800	79.369543738886	1
27	46859	79.469541310359	1
27	46918	79.569538883092	1
27	46977	79.669549457085	1
27	47036	79.769547032338	1
27	47095	79.869544608851	1
27	47154	79.969542186624	1
27	47216	80.069539765657	1
27	47275	80.169550345951	1
27	47334	80.269547927506	1
27	47393	80.369545510321	1
27	47452	80.469543094396	1
27	47511	80.569540679731	1
27	47570	80.669538266326	1
27	47629	80.769548854181	1
27	47688	80.869546443296	1
27	47747	80.969544033671	1
27	47809	81.069541625306	1
27	47868	81.169539218201	1
27	47927	81.269549812356	1
27	47986	81.369547407771	1
27	48045	81.469545004446	1
27	48104	81.569542602381	1
27	48163	81.669540201577	1
27	48222	81.769550802034	1
27	48281	81.869548403751	1
27	48340	81.969546006728	1
27	48402	82.069543610965	1
27	48461	82.169541216462	1
27	48520	82.269538823219	1
27	48579	82.369549431236	1
27	48638	82.469547040513	1
27	48697	82.56954465105	1
27	48756	82.669542262847	1
27	48815	82.769539875904	1
27	48874	82.869550490221	1
27	48933	82.969548105798	1
27	48995	83.069545722636	1
27	49054	83.169543340735	1
27	49113	83.269540960094	1
27	49172	83.369538580713	1
27	49231	83.469549202592	1
27	49290	83.569546825731	1
27	49349	83.66954445013	1
27	49408	83.769542075789	1
27	49467	83.869539702708	1
27	49526	83.969550330887	1
27	49588	84.069547960326	1
27	49647	84.169545591025	1
27	49706	84.269543222984	1
27	49765	84.369540856203	1
27	49824	84.469538490682	1
27	49883	84.569549126423	1
27	49942	84.669546763424	1
27	50001	84.769544401685	1
27	50060	84.869542041206	1
27	50119	84.969539681987	1
27	50181	85.069550324028	1
27	50240	85.169547967329	1
27	50299	85.26954561189	1
27	50358	85.369543257711	1
27	50417	85.469540904792	1
27	50476	85.569538553133	1
27	50535	85.669549202734	1
27	50594	85.769546853595	1
27	50653	85.869544505716	1
27	50712	85.969542159098	1
27	50774	86.069539813741	1
27	50833	86.169550469644	1
27	50892	86.269548126807	1
27	50951	86.36954578523	1
27	51010	86.469543444913	1
27	51069	86.569541105856	1
27	51128	86.669538768059	1
27	51187	86.769549431522	1
27	51246	86.869547096245	1
27	51305	86.969544762228	1
27	51367	87.069542429471	1
27	51426	87.169540097974	1
27	51485	87.269550767737	1
27	51544	87.36954843876	1
27	51603	87.469546111045	1
27	51662	87.56954378459	1
27	51721	87.669541459395	1
27	51780	87.76953913546	1
27	51839	87.869549812785	1
27	51898	87.96954749137	1
27	51960	88.069545171215	1
27	52019	88.16954285232	1
27	52078	88.269540534685	1
27	52137	88.36955121831	1
27	52196	88.469548903195	1
27	52255	88.56954658934	1
27	52314	88.669544276745	1
27	52373	88.76954196541	1
27	52432	88.869539655336	1
27	52491	88.969550346523	1
27	52553	89.06954803897	1
27	52612	89.169545732677	1
27	52671	89.269543427644	1
27	52730	89.369541123871	1
27	52789	89.469538821358	1
27	52848	89.569549520105	1
27	52907	89.669547220112	1
27	52966	89.769544921379	1
27	53025	89.869542623906	1
27	53084	89.969540327693	1
27	53146	90.06955103274	1
27	53205	90.169548739047	1
27	53264	90.269546446614	1
27	53323	90.369544155443	1
27	53382	90.469541865532	1
27	53441	90.569539576881	1
27	53500	90.66955028949	1
27	53559	90.769548003359	1
27	53618	90.869545718488	1
27	53677	90.969543434877	1
27	53739	91.069541152526	1
27	53798	91.169538871435	1
27	53857	91.269549591604	1
27	53916	91.369547313033	1
27	53975	91.469545035722	1
27	54034	91.569542759671	1
27	54093	91.66954048488	1
27	54152	91.76955121135	1
27	54211	91.869548939081	1
27	54270	91.969546668072	1
27	54332	92.069544398323	1
27	54391	92.169542129834	1
27	54450	92.269539862605	1
27	54509	92.369550596636	1
27	54568	92.469548331927	1
27	54627	92.569546068478	1
27	54686	92.669543806289	1
27	54745	92.76954154536	1
27	54804	92.869539285691	1
27	54863	92.969550027282	1
27	54925	93.069547770133	1
27	54984	93.169545514245	1
27	55043	93.269543259618	1
27	55102	93.369541006251	1
27	55161	93.469538754144	1
27	55220	93.569549503297	1
27	55279	93.66954725371	1
27	55338	93.769545005383	1
27	55397	93.869542758316	1
27	55456	93.969540512509	1
27	55518	94.069551267962	1
27	55577	94.169549024675	1
27	55636	94.269546782648	1
27	55695	94.369544541881	1
27	55754	94.469542302374	1
27	55813	94.569540064127	1
27	55872	94.669550827141	1
27	55931	94.769548591416	1
27	55990	94.869546356951	1
27	56049	94.969544123746	1
27	56111	95.069541891801	1
27	56170	95.169539661116	1
27	56229	95.269550431691	1
27	56288	95.369548203526	1
27	56347	95.469545976621	1
27	56406	95.569543750976	1
27	56465	95.669541526591	1
27	56524	95.769539303466	1
27	56583	95.869550081601	1
27	56642	95.969547860996	1
27	56704	96.069545641652	1
27	56763	96.169543423569	1
27	56822	96.269541206746	1
27	56881	96.369538991183	1
27	56940	96.46954977688	1
27	56999	96.569547563837	1
27	57058	96.669545352054	1
27	57117	96.769543141531	1
27	57176	96.869540932268	1
27	57235	96.969538724265	1
27	57297	97.069549517522	1
27	57356	97.169547312039	1
27	57415	97.269545107816	1
27	57474	97.369542904853	1
27	57533	97.46954070315	1
27	57592	97.569538502709	1
27	57651	97.669549303528	1
27	57710	97.769547105607	1
27	57769	97.869544908946	1
27	57828	97.969542713545	1
27	57890	98.069540519404	1
27	57949	98.169551326523	1
27	58008	98.269549134902	1
27	58067	98.369546944541	1
27	58126	98.46954475544	1
27	58185	98.569542567599	1
27	58244	98.669540381018	1
27	58303	98.769551195697	1
27	58362	98.869549011636	1
27	58421	98.969546828836	1
27	58483	99.069544647297	1
27	58542	99.169542467018	1
27	58601	99.269540287999	1
27	58660	99.36955111024	1
27	58719	99.469548933741	1
27	58778	99.569546758502	1
27	58837	99.669544584523	1
27	58896	99.769542411804	1
27	58955	99.869540240345	1
27	59014	99.969551070146	1
28	639	2	0
28	1232	3	0
28	1825	4	0
28	2418	5	0
28	3011	6	0
28	3604	7	0
28	4197	8	0
28	4790	9	0
28	5385	10	0
28	6016	11	0
28	6619	12	0
28	7222	13	0
28	7825	14	0
28	8428	15	0
28	9031	16	0
28	9634	17	0
28	10237	18	0
28	10840	19	0
28	11443	20	0
28	12046	21	0
28	12649	22	0
28	13252	23	0
28	13855	24	0
28	14458	25	0
28	15061	26	0
28	15664	27	0
28	16267	28	0
28	16870	29	0
28	17533	30	0
28	18126	31	0
28	18719	32	0
28	19312	33	0
28	19905	34	0
28	20498	35	0
28	21091	36	0
28	21684	37	0
28	22277	38	0
28	22870	39	0
28	23463	40	0
28	24056	41	0
28	24649	42	0
28	25242	43	0
28	25835	44	0
28	26428	45	0
28	27021	46	0
28	27614	47	0
28	28207	48	0
28	28800	49	0
28	29393	50	0
28	29986	51	0
28	30579	52	0
28	31172	53	0
28	31765	54	0
28	32358	55	0
28	32951	56	0
28	33544	57	0
28	34137	58	0
28	34730	59	0
28	35323	60	0
28	35916	61	0
28	36509	62	0
28	37102	63	0
28	37695	64	0
28	38288	65	0
28	38881	66	0
28	39474	67	0
28	40067	68	0
28	40660	69	0
28	41253	70	0
28	41846	71	0
28	42439	72	0
28	43032	73	0
28	43625	74	0
28	44218	75	0
28	44811	76	0
28	45404	77	0
28	45997	78	0
28	46590	79	0
28	47183	80	0
28	47776	81	0
28	48369	82	0
28	48962	83	0
28	49555	84	0
28	50148	85	0
28	50741	86	0
28	51334	87	0
28	51927	88	0
28	52520	89	0
28	53113	90	0
28	53706	91	0
28	54299	92	0
28	54892	93	0
28	55485	94	0
28	56078	95	0
28	56671	96	0
28	57264	97	0
28	57857	98	0
28	58450	99	0
28	59043	100	0
29	639	2	0.005625
29	1232	3	0.00625
29	1825	4	0.00625
29	2418	5	0.00625
29	3011	6	0.00625
29	3604	7	0.00625
29	4197	8	0.00625
29	4790	9	0.00625
29	5385	10	0.00625
29	6016	11	0.006299
29	6619	12	0.00625
29	7222	13	0.00625
29	7825	14	0.00625
29	8428	15	0.00625
29	9031	16	0.00625
29	9634	17	0.00625
29	10237	18	0.00625
29	10840	19	0.00625
29	11443	20	0.00625
29	12046	21	0.00625
29	12649	22	0.00625
29	13252	23	0.00625
29	13855	24	0.00625
29	14458	25	0.00625
29	15061	26	0.00625
29	15664	27	0.00625
29	16267	28	0.00625
29	16870	29	0.00625
29	17533	30	0.006539046036
29	18126	31	0.00625
29	18719	32	0.00625
29	19312	33	0.00625
29	19905	34	0.00625
29	20498	35	0.00625
29	21091	36	0.00625
29	21684	37	0.00625
29	22277	38	0.00625
29	22870	39	0.00625
29	23463	40	0.00625
29	24056	41	0.00625
29	24649	42	0.00625
29	25242	43	0.00625
29	25835	44	0.00625
29	26428	45	0.00625
29	27021	46	0.00625
29	27614	47	0.00625
29	28207	48	0.00625
29	28800	49	0.00625
29	29393	50	0.00625
29	29986	51	0.00625
29	30579	52	0.00625
29	31172	53	0.00625
29	31765	54	0.00625
29	32358	55	0.00625
29	32951	56	0.00625
29	33544	57	0.00625
29	34137	58	0.00625
29	34730	59	0.00625
29	35323	60	0.00625
29	35916	61	0.00625
29	36509	62	0.00625
29	37102	63	0.00625
29	37695	64	0.00625
29	38288	65	0.00625
29	38881	66	0.00625
29	39474	67	0.00625
29	40067	68	0.00625
29	40660	69	0.00625
29	41253	70	0.00625
29	41846	71	0.00625
29	42439	72	0.00625
29	43032	73	0.00625
29	43625	74	0.00625
29	44218	75	0.00625
29	44811	76	0.00625
29	45404	77	0.00625
29	45997	78	0.00625
29	46590	79	0.00625
29	47183	80	0.00625
29	47776	81	0.00625
29	48369	82	0.00625
29	48962	83	0.00625
29	49555	84	0.00625
29	50148	85	0.00625
29	50741	86	0.00625
29	51334	87	0.00625
29	51927	88	0.00625
29	52520	89	0.00625
29	53113	90	0.00625
29	53706	91	0.00625
29	54299	92	0.00625
29	54892	93	0.00625
29	55485	94	0.00625
29	56078	95	0.00625
29	56671	96	0.00625
29	57264	97	0.00625
29	57857	98	0.00625
29	58450	99	0.00625
29	59043	100	0.00625
30	639	2	0
30	1232	3	0
30	1825	4	0
30	2418	5	0
30	3011	6	0
30	3604	7	0
30	4197	8	0
30	4790	9	0
30	5385	10	0
30	6016	11	0
30	6619	12	0
30	7222	13	0
30	7825	14	0
30	8428	15	0
30	9031	16	0
30	9634	17	0
30	10237	18	0
30	10840	19	0
30	11443	20	0
30	12046	21	0
30	12649	22	0
30	13252	23	0
30	13855	24	0
30	14458	25	0
30	15061	26	0
30	15664	27	0
30	16267	28	0
30	16870	29	0
30	17533	30	0
30	18126	31	0
30	18719	32	0
30	19312	33	0
30	19905	34	0
30	20498	35	0
30	21091	36	0
30	21684	37	0
30	22277	38	0
30	22870	39	0
30	23463	40	0
30	24056	41	0
30	24649	42	0
30	25242	43	0
30	25835	44	0
30	26428	45	0
30	27021	46	0
30	27614	47	0
30	28207	48	0
30	28800	49	0
30	29393	50	0
30	29986	51	0
30	30579	52	0
30	31172	53	0
30	31765	54	0
30	32358	55	0
30	32951	56	0
30	33544	57	0
30	34137	58	0
30	34730	59	0
30	35323	60	0
30	35916	61	0
30	36509	62	0
30	37102	63	0
30	37695	64	0
30	38288	65	0
30	38881	66	0
30	39474	67	0
30	40067	68	0
30	40660	69	0
30	41253	70	0
30	41846	71	0
30	42439	72	0
30	43032	73	0
30	43625	74	0
30	44218	75	0
30	44811	76	0
30	45404	77	0
30	45997	78	0
30	46590	79	0
30	47183	80	0
30	47776	81	0
30	48369	82	0
30	48962	83	0
30	49555	84	0
30	50148	85	0
30	50741	86	0
30	51334	87	0
30	51927	88	0
30	52520	89	0
30	53113	90	0
30	53706	91	0
30	54299	92	0
30	54892	93	0
30	55485	94	0
30	56078	95	0
30	56671	96	0
30	57264	97	0
30	57857	98	0
30	58450	99	0
30	59043	100	0
31	640	2	1
31	1233	3	1
31	1826	4	1
31	2419	5	1
31	3012	6	1
31	3605	7	1
31	4198	8	1
31	4791	9	1
31	5386	10	1
31	6017	11	1
31	6620	12	1
31	7223	13	1
31	7826	14	1
31	8429	15	1
31	9032	16	1
31	9635	17	1
31	10238	18	1
31	10841	19	1
31	11444	20	1
31	12047	21	1
31	12650	22	1
31	13253	23	1
31	13856	24	1
31	14459	25	1
31	15062	26	1
31	15665	27	1
31	16268	28	1
31	16871	29	1
31	17534	30	1
31	18127	31	1
31	18720	32	1
31	19313	33	1
31	19906	34	1
31	20499	35	1
31	21092	36	1
31	21685	37	1
31	22278	38	1
31	22871	39	1
31	23464	40	1
31	24057	41	1
31	24650	42	1
31	25243	43	1
31	25836	44	1
31	26429	45	1
31	27022	46	1
31	27615	47	1
31	28208	48	1
31	28801	49	1
31	29394	50	1
31	29987	51	1
31	30580	52	1
31	31173	53	1
31	31766	54	1
31	32359	55	1
31	32952	56	1
31	33545	57	1
31	34138	58	1
31	34731	59	1
31	35324	60	1
31	35917	61	1
31	36510	62	1
31	37103	63	1
31	37696	64	1
31	38289	65	1
31	38882	66	1
31	39475	67	1
31	40068	68	1
31	40661	69	1
31	41254	70	1
31	41847	71	1
31	42440	72	1
31	43033	73	1
31	43626	74	1
31	44219	75	1
31	44812	76	1
31	45405	77	1
31	45998	78	1
31	46591	79	1
31	47184	80	1
31	47777	81	1
31	48370	82	1
31	48963	83	1
31	49556	84	1
31	50149	85	1
31	50742	86	1
31	51335	87	1
31	51928	88	1
31	52521	89	1
31	53114	90	1
31	53707	91	1
31	54300	92	1
31	54893	93	1
31	55486	94	1
31	56079	95	1
31	56672	96	1
31	57265	97	1
31	57858	98	1
31	58451	99	1
31	59044	100	1
32	640	2	0.005625
32	1233	3	0.00625
32	1826	4	0.00625
32	2419	5	0.00625
32	3012	6	0.00625
32	3605	7	0.00625
32	4198	8	0.00625
32	4791	9	0.00625
32	5386	10	0.00625
32	6017	11	0.006298
32	6620	12	0.00625
32	7223	13	0.00625
32	7826	14	0.00625
32	8429	15	0.00625
32	9032	16	0.00625
32	9635	17	0.00625
32	10238	18	0.00625
32	10841	19	0.00625
32	11444	20	0.00625
32	12047	21	0.00625
32	12650	22	0.00625
32	13253	23	0.00625
32	13856	24	0.00625
32	14459	25	0.00625
32	15062	26	0.00625
32	15665	27	0.00625
32	16268	28	0.00625
32	16871	29	0.00625
32	17534	30	0.006539046036
32	18127	31	0.00625
32	18720	32	0.00625
32	19313	33	0.00625
32	19906	34	0.00625
32	20499	35	0.00625
32	21092	36	0.00625
32	21685	37	0.00625
32	22278	38	0.00625
32	22871	39	0.00625
32	23464	40	0.00625
32	24057	41	0.00625
32	24650	42	0.00625
32	25243	43	0.00625
32	25836	44	0.00625
32	26429	45	0.00625
32	27022	46	0.00625
32	27615	47	0.00625
32	28208	48	0.00625
32	28801	49	0.00625
32	29394	50	0.00625
32	29987	51	0.00625
32	30580	52	0.00625
32	31173	53	0.00625
32	31766	54	0.00625
32	32359	55	0.00625
32	32952	56	0.00625
32	33545	57	0.00625
32	34138	58	0.00625
32	34731	59	0.00625
32	35324	60	0.00625
32	35917	61	0.00625
32	36510	62	0.00625
32	37103	63	0.00625
32	37696	64	0.00625
32	38289	65	0.00625
32	38882	66	0.00625
32	39475	67	0.00625
32	40068	68	0.00625
32	40661	69	0.00625
32	41254	70	0.00625
32	41847	71	0.00625
32	42440	72	0.00625
32	43033	73	0.00625
32	43626	74	0.00625
32	44219	75	0.00625
32	44812	76	0.00625
32	45405	77	0.00625
32	45998	78	0.00625
32	46591	79	0.00625
32	47184	80	0.00625
32	47777	81	0.00625
32	48370	82	0.00625
32	48963	83	0.00625
32	49556	84	0.00625
32	50149	85	0.00625
32	50742	86	0.00625
32	51335	87	0.00625
32	51928	88	0.00625
32	52521	89	0.00625
32	53114	90	0.00625
32	53707	91	0.00625
32	54300	92	0.00625
32	54893	93	0.00625
32	55486	94	0.00625
32	56079	95	0.00625
32	56672	96	0.00625
32	57265	97	0.00625
32	57858	98	0.00625
32	58451	99	0.00625
32	59044	100	0.00625
33	640	2	0
33	1233	3	0
33	1826	4	0
33	2419	5	0
33	3012	6	0
33	3605	7	0
33	4198	8	0
33	4791	9	0
33	5386	10	0
33	6017	11	0
33	6620	12	0
33	7223	13	0
33	7826	14	0
33	8429	15	0
33	9032	16	0
33	9635	17	0
33	10238	18	0
33	10841	19	0
33	11444	20	0
33	12047	21	0
33	12650	22	0
33	13253	23	0
33	13856	24	0
33	14459	25	0
33	15062	26	0
33	15665	27	0
33	16268	28	0
33	16871	29	0
33	17534	30	0
33	18127	31	0
33	18720	32	0
33	19313	33	0
33	19906	34	0
33	20499	35	0
33	21092	36	0
33	21685	37	0
33	22278	38	0
33	22871	39	0
33	23464	40	0
33	24057	41	0
33	24650	42	0
33	25243	43	0
33	25836	44	0
33	26429	45	0
33	27022	46	0
33	27615	47	0
33	28208	48	0
33	28801	49	0
33	29394	50	0
33	29987	51	0
33	30580	52	0
33	31173	53	0
33	31766	54	0
33	32359	55	0
33	32952	56	0
33	33545	57	0
33	34138	58	0
33	34731	59	0
33	35324	60	0
33	35917	61	0
33	36510	62	0
33	37103	63	0
33	37696	64	0
33	38289	65	0
33	38882	66	0
33	39475	67	0
33	40068	68	0
33	40661	69	0
33	41254	70	0
33	41847	71	0
33	42440	72	0
33	43033	73	0
33	43626	74	0
33	44219	75	0
33	44812	76	0
33	45405	77	0
33	45998	78	0
33	46591	79	0
33	47184	80	0
33	47777	81	0
33	48370	82	0
33	48963	83	0
33	49556	84	0
33	50149	85	0
33	50742	86	0
33	51335	87	0
33	51928	88	0
33	52521	89	0
33	53114	90	0
33	53707	91	0
33	54300	92	0
33	54893	93	0
33	55486	94	0
33	56079	95	0
33	56672	96	0
33	57265	97	0
33	57858	98	0
33	58451	99	0
33	59044	100	0
34	641	2	2
34	1234	3	2
34	1827	4	2
34	2420	5	2
34	3013	6	2
34	3606	7	2
34	4199	8	2
34	4792	9	2
34	5387	10	2
34	6018	11	2
34	6621	12	2
34	7224	13	2
34	7827	14	2
34	8430	15	2
34	9033	16	2
34	9636	17	2
34	10239	18	2
34	10842	19	2
34	11445	20	2
34	12048	21	2
34	12651	22	2
34	13254	23	2
34	13857	24	2
34	14460	25	2
34	15063	26	2
34	15666	27	2
34	16269	28	2
34	16872	29	2
34	17535	30	2
34	18128	31	2
34	18721	32	2
34	19314	33	2
34	19907	34	2
34	20500	35	2
34	21093	36	2
34	21686	37	2
34	22279	38	2
34	22872	39	2
34	23465	40	2
34	24058	41	2
34	24651	42	2
34	25244	43	2
34	25837	44	2
34	26430	45	2
34	27023	46	2
34	27616	47	2
34	28209	48	2
34	28802	49	2
34	29395	50	2
34	29988	51	2
34	30581	52	2
34	31174	53	2
34	31767	54	2
34	32360	55	2
34	32953	56	2
34	33546	57	2
34	34139	58	2
34	34732	59	2
34	35325	60	2
34	35918	61	2
34	36511	62	2
34	37104	63	2
34	37697	64	2
34	38290	65	2
34	38883	66	2
34	39476	67	2
34	40069	68	2
34	40662	69	2
34	41255	70	2
34	41848	71	2
34	42441	72	2
34	43034	73	2
34	43627	74	2
34	44220	75	2
34	44813	76	2
34	45406	77	2
34	45999	78	2
34	46592	79	2
34	47185	80	2
34	47778	81	2
34	48371	82	2
34	48964	83	2
34	49557	84	2
34	50150	85	2
34	50743	86	2
34	51336	87	2
34	51929	88	2
34	52522	89	2
34	53115	90	2
34	53708	91	2
34	54301	92	2
34	54894	93	2
34	55487	94	2
34	56080	95	2
34	56673	96	2
34	57266	97	2
34	57859	98	2
34	58452	99	2
34	59045	100	2
35	641	2	0.002622
35	1234	3	0.003126
35	1827	4	0.003139
35	2420	5	0.003126
35	3013	6	0.003126
35	3606	7	0.003139
35	4199	8	0.003126
35	4792	9	0.003126
35	5387	10	0.003139
35	6018	11	0.003172
35	6621	12	0.003126
35	7224	13	0.003139
35	7827	14	0.003126
35	8430	15	0.003126
35	9033	16	0.003139
35	9636	17	0.003126
35	10239	18	0.003126
35	10842	19	0.003139
35	11445	20	0.003126
35	12048	21	0.003126
35	12651	22	0.003139
35	13254	23	0.003126
35	13857	24	0.003126
35	14460	25	0.003126
35	15063	26	0.003139
35	15666	27	0.003126
35	16269	28	0.003126
35	16872	29	0.003139
35	17535	30	0.003126
35	18128	31	0.003126
35	18721	32	0.003139
35	19314	33	0.003126
35	19907	34	0.003126
35	20500	35	0.003139
35	21093	36	0.003126
35	21686	37	0.003126
35	22279	38	0.003126
35	22872	39	0.003139
35	23465	40	0.003126
35	24058	41	0.003126
35	24651	42	0.003139
35	25244	43	0.003126
35	25837	44	0.003126
35	26430	45	0.003139
35	27023	46	0.003126
35	27616	47	0.003126
35	28209	48	0.003139
35	28802	49	0.003126
35	29395	50	0.003126
35	29988	51	0.003126
35	30581	52	0.003139
35	31174	53	0.003126
35	31767	54	0.003126
35	32360	55	0.003139
35	32953	56	0.003126
35	33546	57	0.003126
35	34139	58	0.003139
35	34732	59	0.003126
35	35325	60	0.003126
35	35918	61	0.003139
35	36511	62	0.003126
35	37104	63	0.003126
35	37697	64	0.003126
35	38290	65	0.003139
35	38883	66	0.003126
35	39476	67	0.003126
35	40069	68	0.003139
35	40662	69	0.003126
35	41255	70	0.003126
35	41848	71	0.003139
35	42441	72	0.003126
35	43034	73	0.003126
35	43627	74	0.003139
35	44220	75	0.003126
35	44813	76	0.003126
35	45406	77	0.003126
35	45999	78	0.003139
35	46592	79	0.003126
35	47185	80	0.003126
35	47778	81	0.003139
35	48371	82	0.003126
35	48964	83	0.003126
35	49557	84	0.003139
35	50150	85	0.003126
35	50743	86	0.003126
35	51336	87	0.003139
35	51929	88	0.003126
35	52522	89	0.003126
35	53115	90	0.003126
35	53708	91	0.003139
35	54301	92	0.003126
35	54894	93	0.003126
35	55487	94	0.003139
35	56080	95	0.003126
35	56673	96	0.003126
35	57266	97	0.003139
35	57859	98	0.003126
35	58452	99	0.003126
35	59045	100	0.003139
36	641	2	0
36	1234	3	0
36	1827	4	0
36	2420	5	0
36	3013	6	0
36	3606	7	0
36	4199	8	0
36	4792	9	0
36	5387	10	0
36	6018	11	0
36	6621	12	0
36	7224	13	0
36	7827	14	0
36	8430	15	0
36	9033	16	0
36	9636	17	0
36	10239	18	0
36	10842	19	0
36	11445	20	0
36	12048	21	0
36	12651	22	0
36	13254	23	0
36	13857	24	0
36	14460	25	0
36	15063	26	0
36	15666	27	0
36	16269	28	0
36	16872	29	0
36	17535	30	0
36	18128	31	0
36	18721	32	0
36	19314	33	0
36	19907	34	0
36	20500	35	0
36	21093	36	0
36	21686	37	0
36	22279	38	0
36	22872	39	0
36	23465	40	0
36	24058	41	0
36	24651	42	0
36	25244	43	0
36	25837	44	0
36	26430	45	0
36	27023	46	0
36	27616	47	0
36	28209	48	0
36	28802	49	0
36	29395	50	0
36	29988	51	0
36	30581	52	0
36	31174	53	0
36	31767	54	0
36	32360	55	0
36	32953	56	0
36	33546	57	0
36	34139	58	0
36	34732	59	0
36	35325	60	0
36	35918	61	0
36	36511	62	0
36	37104	63	0
36	37697	64	0
36	38290	65	0
36	38883	66	0
36	39476	67	0
36	40069	68	0
36	40662	69	0
36	41255	70	0
36	41848	71	0
36	42441	72	0
36	43034	73	0
36	43627	74	0
36	44220	75	0
36	44813	76	0
36	45406	77	0
36	45999	78	0
36	46592	79	0
36	47185	80	0
36	47778	81	0
36	48371	82	0
36	48964	83	0
36	49557	84	0
36	50150	85	0
36	50743	86	0
36	51336	87	0
36	51929	88	0
36	52522	89	0
36	53115	90	0
36	53708	91	0
36	54301	92	0
36	54894	93	0
36	55487	94	0
36	56080	95	0
36	56673	96	0
36	57266	97	0
36	57859	98	0
36	58452	99	0
36	59045	100	0

