file 2443124 1720583654                                         
version 3
run BreakRanksNoGui-28-20240710-05:54:04-234693
attr configname BreakRanksNoGui
attr datetime 20240710-05:54:04
attr datetimef 20240710-055404
attr experiment BreakRanksNoGui
attr inifile omnetpp.ini
attr iterationvars "$nCars=8, $platoonSize=8, $nLanes=1, $ploegH=0.5, $controller=1, $headway=0.1, $leaderHeadway=1.2, $leaderSpeed=130, $breakRanksSafetyDistance=3, $minSpeed=120, $maxSpeed=140, $beaconInterval=0.1, $priority=4, $packetSize=200, $sController=\"CACC\", $0=2, $1=0"
attr iterationvarsd nCars=8/platoonSize=8/nLanes=1/ploegH=0.5/controller=1/headway=0.1/leaderHeadway=1.2/leaderSpeed=130/breakRanksSafetyDistance=3/minSpeed=120/maxSpeed=140/beaconInterval=0.1/priority=4/packetSize=200/sController=CACC/2/0
attr iterationvarsf nCars=8,platoonSize=8,nLanes=1,ploegH=0.5,controller=1,headway=0.1,leaderHeadway=1.2,leaderSpeed=130,breakRanksSafetyDistance=3,minSpeed=120,maxSpeed=140,beaconInterval=0.1,priority=4,packetSize=200,sController=CACC,2,0-
attr measurement "$nCars=8, $platoonSize=8, $nLanes=1, $ploegH=0.5, $controller=1, $headway=0.1, $leaderHeadway=1.2, $leaderSpeed=130, $breakRanksSafetyDistance=3, $minSpeed=120, $maxSpeed=140, $beaconInterval=0.1, $priority=4, $packetSize=200, $sController=\"CACC\", $0=2, $1=0"
attr network Highway
attr processid 234693
attr repetition 8
attr replication #8
attr resultdir results
attr runnumber 28
attr seedset 8
itervar beaconInterval 0.1
itervar breakRanksSafetyDistance 3
itervar controller 1
itervar headway 0.1
itervar leaderHeadway 1.2
itervar leaderSpeed 130
itervar maxSpeed 140
itervar minSpeed 120
itervar nCars 8
itervar nLanes 1
itervar packetSize 200
itervar platoonSize 8
itervar ploegH 0.5
itervar priority 4
itervar sController "\"CACC\""
config image-path ../../../veins/images
config repeat 10
config extends BreakRanks
config *.manager.command "\"sumo\""
config *.manager.ignoreGuiCommands true
config output-vector-file results/BreakRanks_1_0.1_130_3/result_8.vec
config output-scalar-file results/BreakRanks_1_0.1_130_3/result_8.sca
config extends Platooning
config *.node[*].scenario_type "\"BreakRanksScenario\""
config *.manager.command "\"sumo-gui\""
config *.node[*].scenario_type "\"SimpleScenario\""
config cmdenv-express-mode true
config cmdenv-autoflush true
config cmdenv-status-frequency 15s
config num-rngs 6
config network Highway
config debug-on-errors true
config print-undisposed true
config *.playgroundSizeX 65000m
config *.playgroundSizeY 25000m
config *.playgroundSizeZ 50m
config sim-time-limit "100 s"
config *.annotations.draw false
config *.obstacles.debug false
config *.world.useTorus false
config *.world.use2D false
config *.manager.updateInterval 0.01s
config *.manager.host "\"localhost\""
config *.manager.moduleType "\"org.car2x.plexe.PlatoonCar\""
config *.manager.moduleName "\"node\""
config *.manager.moduleDisplayString "\"\""
config *.manager.autoShutdown true
config *.manager.margin 25
config *.connectionManager.sendDirect true
config *.connectionManager.maxInterfDist 2600m
config *.connectionManager.drawMaxIntfDist false
config *.**.nic.mac1609_4.useServiceChannel false
config *.**.nic.mac1609_4.txPower 100mW
config *.**.nic.mac1609_4.bitrate 6Mbps
config *.**.nic.mac1609_4.useAcks true
config *.**.nic.mac1609_4.ackErrorRate 0.0
config *.**.nic.mac1609_4.frameErrorRate 0.0
config *.**.nic.phy80211p.minPowerLevel -94dBm
config *.**.nic.phy80211p.maxTXPower 100mW
config *.**.nic.phy80211p.useNoiseFloor true
config *.**.nic.phy80211p.noiseFloor -95dBm
config *.**.nic.phy80211p.decider "xmldoc(\"config.xml\")"
config *.**.nic.phy80211p.analogueModels "xmldoc(\"config.xml\")"
config *.**.nic.phy80211p.usePropagationDelay true
config *.node[*].mobility.x 0
config *.node[*].mobility.y 0
config *.node[*].mobility.z 1.895
config seed-set 8
config **.seed 8
config *.node[*].prot.rng-0 2
config *.node[*].appl.rng-0 3
config *.node[*].scenario.rng-0 4
config **.traffic.rng-0 5
config *.manager.configFile "\"./sumocfg/freeway.sumo.cfg\""
config *.manager.launchConfig "xmldoc(\"./sumocfg/freeway.launchd.xml\")"
config **.numberOfCars 8
config **.numberOfCarsPerPlatoon 8
config **.numberOfLanes 1
config *.node[*].helper_type "\"PositionHelper\""
config *.node[*].scenario.caccC1 0.5
config *.node[*].scenario.caccXi 1
config *.node[*].scenario.caccOmegaN "0.2 Hz"
config *.node[*].scenario.caccSpacing "2 m"
config *.node[*].scenario.engineTau "0.5 s"
config *.node[*].scenario.ploegH 0.5s
config *.node[*].scenario.ploegKp 0.2
config *.node[*].scenario.ploegKd 0.7
config *.node[*].scenario.useRealisticEngine false
config *.node[*].scenario.useControllerAcceleration true
config *.node[*].scenario.nLanes 1
config **.numericController 1
config **.headway 0.1s
config *.node[*].scenario.accHeadway 0.1s
config *.node[*].scenario.leaderHeadway 1.2s
config *.node[*].scenario.leaderSpeed 130kmph
config *.node[*].appl_type "\"SimplePlatooningApp\""
config *.node[*].appl.*.scalar-recording true
config *.node[*].appl.*.vector-recording true
config *.node[0].appl.breakRanksSafetyDistance 3m
config *.node[*].appl.minSpeed 120kmph
config *.node[*].appl.maxSpeed 140kmph
config *.node[*].protocol_type "\"SimplePlatooningBeaconing\""
config *.node[*].prot.*.scalar-recording true
config *.node[*].prot.*.vector-recording true
config *.node[*].prot.beaconingInterval 0.1s
config *.node[*].prot.priority 4
config *.node[*].prot.packetSize 200
config **.traffic_type "\"PlatoonsTrafficManager\""
config **.traffic.platoonInsertTime "1 s"
config **.traffic.platoonInsertSpeed 130kmph
config **.traffic.nCars 8
config **.traffic.platoonSize 8
config **.traffic.nLanes 1
config **.traffic.platooningVType "\"vtypeauto\""
config **.traffic.controller "\"CACC\""
config **.traffic.platoonInsertDistance 2m
config **.traffic.platoonInsertHeadway 0s
config **.traffic.platoonLeaderHeadway 1.2s
config **.scalar-recording false
config **.vector-recording false

vector 0 Highway.node[0].appl distance ETV
vector 1 Highway.node[0].appl relativeSpeed ETV
vector 2 Highway.node[0].appl nodeId ETV
vector 3 Highway.node[0].appl acceleration ETV
vector 4 Highway.node[0].appl controllerAcceleration ETV
vector 5 Highway.node[0].appl speed ETV
vector 6 Highway.node[0].appl posx ETV
vector 7 Highway.node[0].appl posy ETV
vector 8 Highway.node[1].appl distance ETV
vector 9 Highway.node[1].appl relativeSpeed ETV
vector 10 Highway.node[1].appl nodeId ETV
vector 11 Highway.node[1].appl acceleration ETV
vector 12 Highway.node[1].appl controllerAcceleration ETV
vector 13 Highway.node[1].appl speed ETV
vector 14 Highway.node[1].appl posx ETV
vector 15 Highway.node[1].appl posy ETV
vector 16 Highway.node[2].appl distance ETV
vector 17 Highway.node[2].appl relativeSpeed ETV
vector 18 Highway.node[2].appl nodeId ETV
vector 19 Highway.node[2].appl acceleration ETV
vector 20 Highway.node[2].appl controllerAcceleration ETV
vector 21 Highway.node[2].appl speed ETV
vector 22 Highway.node[2].appl posx ETV
vector 23 Highway.node[2].appl posy ETV
vector 24 Highway.node[3].appl distance ETV
vector 25 Highway.node[3].appl relativeSpeed ETV
vector 26 Highway.node[3].appl nodeId ETV
vector 27 Highway.node[3].appl acceleration ETV
vector 28 Highway.node[3].appl controllerAcceleration ETV
vector 29 Highway.node[3].appl speed ETV
vector 30 Highway.node[3].appl posx ETV
vector 31 Highway.node[3].appl posy ETV
vector 32 Highway.node[4].appl distance ETV
vector 33 Highway.node[4].appl relativeSpeed ETV
vector 34 Highway.node[4].appl nodeId ETV
vector 35 Highway.node[4].appl acceleration ETV
vector 36 Highway.node[4].appl controllerAcceleration ETV
vector 37 Highway.node[4].appl speed ETV
vector 38 Highway.node[4].appl posx ETV
vector 39 Highway.node[4].appl posy ETV
vector 40 Highway.node[5].appl distance ETV
vector 41 Highway.node[5].appl relativeSpeed ETV
vector 42 Highway.node[5].appl nodeId ETV
vector 43 Highway.node[5].appl acceleration ETV
vector 44 Highway.node[5].appl controllerAcceleration ETV
vector 45 Highway.node[5].appl speed ETV
vector 46 Highway.node[5].appl posx ETV
vector 47 Highway.node[5].appl posy ETV
vector 48 Highway.node[6].appl distance ETV
vector 49 Highway.node[6].appl relativeSpeed ETV
vector 50 Highway.node[6].appl nodeId ETV
vector 51 Highway.node[6].appl acceleration ETV
vector 52 Highway.node[6].appl controllerAcceleration ETV
vector 53 Highway.node[6].appl speed ETV
vector 54 Highway.node[6].appl posx ETV
vector 55 Highway.node[6].appl posy ETV
vector 56 Highway.node[7].appl distance ETV
vector 57 Highway.node[7].appl relativeSpeed ETV
vector 58 Highway.node[7].appl nodeId ETV
vector 59 Highway.node[7].appl acceleration ETV
vector 60 Highway.node[7].appl controllerAcceleration ETV
vector 61 Highway.node[7].appl speed ETV
vector 62 Highway.node[7].appl posx ETV
vector 63 Highway.node[7].appl posy ETV
vector 64 Highway.node[4].prot frontDelay ETV
vector 65 Highway.node[4].prot frontDelayId ETV
vector 66 Highway.node[2].prot frontDelay ETV
vector 67 Highway.node[2].prot frontDelayId ETV
vector 68 Highway.node[3].prot frontDelay ETV
vector 69 Highway.node[3].prot frontDelayId ETV
vector 70 Highway.node[5].prot frontDelay ETV
vector 71 Highway.node[5].prot frontDelayId ETV
vector 72 Highway.node[7].prot frontDelay ETV
vector 73 Highway.node[7].prot frontDelayId ETV
vector 74 Highway.node[1].prot leaderDelay ETV
vector 75 Highway.node[1].prot leaderDelayId ETV
vector 76 Highway.node[1].prot frontDelay ETV
vector 77 Highway.node[1].prot frontDelayId ETV
vector 78 Highway.node[2].prot leaderDelay ETV
vector 79 Highway.node[2].prot leaderDelayId ETV
vector 80 Highway.node[3].prot leaderDelay ETV
vector 81 Highway.node[3].prot leaderDelayId ETV
vector 82 Highway.node[4].prot leaderDelay ETV
vector 83 Highway.node[4].prot leaderDelayId ETV
vector 84 Highway.node[5].prot leaderDelay ETV
vector 85 Highway.node[5].prot leaderDelayId ETV
vector 86 Highway.node[6].prot leaderDelay ETV
vector 87 Highway.node[6].prot leaderDelayId ETV
vector 88 Highway.node[7].prot leaderDelay ETV
vector 89 Highway.node[7].prot leaderDelayId ETV
vector 90 Highway.node[6].prot frontDelay ETV
vector 91 Highway.node[6].prot frontDelayId ETV
vector 92 Highway.node[0].prot nodeId ETV
vector 93 Highway.node[0].prot busyTime ETV
vector 94 Highway.node[0].prot collisions ETV
vector 95 Highway.node[1].prot nodeId ETV
vector 96 Highway.node[1].prot busyTime ETV
vector 97 Highway.node[1].prot collisions ETV
vector 98 Highway.node[2].prot nodeId ETV
vector 99 Highway.node[2].prot busyTime ETV
vector 100 Highway.node[2].prot collisions ETV
vector 101 Highway.node[3].prot nodeId ETV
vector 102 Highway.node[3].prot busyTime ETV
vector 103 Highway.node[3].prot collisions ETV
vector 104 Highway.node[4].prot nodeId ETV
vector 105 Highway.node[4].prot busyTime ETV
vector 106 Highway.node[4].prot collisions ETV
vector 107 Highway.node[5].prot nodeId ETV
vector 108 Highway.node[5].prot busyTime ETV
vector 109 Highway.node[5].prot collisions ETV
vector 110 Highway.node[6].prot nodeId ETV
vector 111 Highway.node[6].prot busyTime ETV
vector 112 Highway.node[6].prot collisions ETV
vector 113 Highway.node[7].prot nodeId ETV
vector 114 Highway.node[7].prot busyTime ETV
vector 115 Highway.node[7].prot collisions ETV
0	11185 17510 113 543894 1.11 99.91 989 -1 -1 -989 989
1	28695 16521 113 543894 1.11 99.91 989 0 0 0 0
2	45216 16521 113 543894 1.11 99.91 989 0 0 0 0
3	61737 18809 113 543894 1.11 99.91 989 -3.14892e-05 0.000707784 0.010991577126781 6.0508064149601e-06
4	80546 26467 113 543894 1.11 99.91 989 -4.89399e-05 0.00109259 0.010614843047836 8.6815283230331e-06
5	107013 22448 113 543894 1.11 99.91 989 36.11 36.1111 35713.866699999 1289666.6073546
6	129461 22343 113 543894 1.11 99.91 989 66.1799 3633.96 1829716.4767 4436306092.0241
7	151804 21466 113 543894 1.11 99.91 989 242.45 242.45 239783.05 58135400.472499
8	173270 19978 114 543895 1.11 99.91 989 -1 2.99713 865.76084 4094.1313598456
9	193248 21029 114 543895 1.11 99.91 989 -1.58604e-05 0.0796087 9.971554524071 0.52640712056381
10	214277 17510 114 543895 1.11 99.91 989 1 1 989 989
11	231787 25114 114 543895 1.11 99.91 989 -0.0822051 0.00643294 -1.0678969832503 0.092010047763317
12	256901 27380 114 543895 1.11 99.91 989 -0.104169 0.00648582 -0.69073402286824 0.079535387198472
13	284281 21355 114 543895 1.11 99.91 989 35.9943 36.1111 35651.495 1285168.3095796
14	305636 23392 114 543895 1.11 99.91 989 60.1799 3621.72 1821746.7555 4403344837.4238
15	329028 22455 114 543895 1.11 99.91 989 242.45 245.75 241360.45 58905487.1525
16	351483 23314 115 543896 1.11 99.91 989 2 44.9906 19084.74379 708118.76066631
17	374797 25146 115 543896 1.11 99.91 989 0 3.02753 359.95081668169 584.34357656306
18	399943 17510 115 543896 1.11 99.91 989 2 2 1978 3956
19	417453 26033 115 543896 1.11 99.91 989 -1.91357 0.335008 -0.27411446802651 48.679256664937
20	443486 26051 115 543896 1.11 99.91 989 -2.91996 0.377847 1.090278954767 67.534123294624
21	469537 23327 115 543896 1.11 99.91 989 33.0836 36.1111 35343.946 1263535.9061987
22	492864 23333 115 543896 1.11 99.91 989 54.1799 3584.97 1803288.0207 4310393219.3677
23	516197 22455 115 543896 1.11 99.91 989 242.45 242.45 239783.05 58135400.472499
24	538652 23261 116 543897 1.11 99.91 989 2 80.7582 22235.60347 1172342.0296413
25	561913 25062 116 543897 1.11 99.91 989 -1.05432 3.48765 282.18540242494 941.29290502186
26	586975 17510 116 543897 1.11 99.91 989 3 3 2967 8901
27	604485 25903 116 543897 1.11 99.91 989 -2.79595 0.784233 8.9682361024602 162.97142009223
28	630388 25950 116 543897 1.11 99.91 989 -3.52077 1.21571 10.564820831703 199.07746365117
29	656338 23138 116 543897 1.11 99.91 989 29.8465 37.0543 35056.6076 1245029.2237272
30	679476 23338 116 543897 1.11 99.91 989 48.1799 3550.18 1782443.9492 4205078345.8997
31	702814 22455 116 543897 1.11 99.91 989 242.45 245.75 240258.25 58367393.1125
32	725269 23310 117 543898 1.11 99.91 989 0.304935 110.682 26163.956475 1810338.8008439
33	748579 24736 117 543898 1.11 99.91 989 -2.10825e-05 8.18017 1044.6220829668 3089.0130218039
34	773315 17510 117 543898 1.11 99.91 989 4 4 3956 15824
35	790825 25933 117 543898 1.11 99.91 989 -3.07032 1.49918 -21.036563967912 312.68823940896
36	816758 26454 117 543898 1.11 99.91 989 -3.52364 1.5 -19.224573834073 354.42614631456
37	843212 21909 117 543898 1.11 99.91 989 26.9658 36.1111 34316.0832 1194234.132608
38	865121 23358 117 543898 1.11 99.91 989 42.1799 3470.28 1763941.0141 4108701711.1399
39	888479 22455 117 543898 1.11 99.91 989 242.45 245.75 240614.65 58541387.5925
40	910934 21233 118 543899 1.11 99.91 989 -1 48.965 2544.5916305 78494.864158703
41	932167 22494 118 543899 1.11 99.91 989 -0.103742 10.7515 139.83961923904 1308.628950491
42	954661 17510 118 543899 1.11 99.91 989 5 5 4945 24725
43	972171 25721 118 543899 1.11 99.91 989 -3.12958 1.5 8.9048704523001 416.01018741642
44	997892 26244 118 543899 1.11 99.91 989 -3.52315 1.5 9.0475337991522 479.43957421266
45	1024136 22011 118 543899 1.11 99.91 989 26.2747 37.1037 35413.6691 1272314.9738211
46	1046147 23340 118 543899 1.11 99.91 989 36.1799 3573.89 1777665.2146 4210144723.2118
47	1069487 22455 118 543899 1.11 99.91 989 242.45 252.35 244023.55 60232663.332501
48	1091942 23136 119 543900 1.11 99.91 989 1.99969 44.4877 20271.20287 776238.75799946
49	1115078 25093 119 543900 1.11 99.91 989 -0.000461204 1.89054 266.53021716588 219.17369514243
50	1140171 17510 119 543900 1.11 99.91 989 6 6 5934 35604
51	1157681 25791 119 543900 1.11 99.91 989 -2.42207 0.518069 6.4345869767126 39.660029552886
52	1183472 25816 119 543900 1.11 99.91 989 -3.52264 0.716938 8.9965199566945 81.959166384126
53	1209288 23327 119 543900 1.11 99.91 989 34.1191 36.7446 35523.6016 1276113.5605887
54	1232615 23348 119 543900 1.11 99.91 989 30.1799 3578.9 1783334.1429 4249726220.6068
55	1255963 22455 119 543900 1.11 99.91 989 242.45 249.05 241934.65 59189731.992501
56	1278418 20872 120 543901 1.11 99.91 989 -1 2.9003 725.15435 3367.1845582089
57	1299290 21869 120 543901 1.11 99.91 989 -0.000453242 0.0354442 9.0078561390851 0.24144886367027
58	1321159 17510 120 543901 1.11 99.91 989 7 7 6923 48461
59	1338669 26791 120 543901 1.11 99.91 989 -0.0667749 0.592354 8.9423150138943 4.4118156464217
60	1365460 26768 120 543901 1.11 99.91 989 -0.0789172 0.921321 9.255311387451 6.8320735515848
61	1392228 21483 120 543901 1.11 99.91 989 35.811 37.0411 36062.0193 1315192.9550532
62	1413711 23376 120 543901 1.11 99.91 989 24.1799 3626.73 1792921.2066 4321138074.9882
63	1437087 22455 120 543901 1.11 99.91 989 242.45 249.05 242937.84999999 59685984.672502
64	1459542 40018 768 544027 1.218681580402 99.918684798576 988 0.099987480335 0.100008782352 98.800003698507 9.8800007514738
65	1499560 27272 768 544027 1.218681580402 99.918684798576 988 4 4 3952 15808
66	1526832 39990 835 544076 1.22410962043 99.92411289342 988 0.099987480334 0.100008776827 98.800003753323 9.8800007621409
67	1566822 27261 835 544076 1.22410962043 99.92411289342 988 2 2 1976 3952
68	1594083 40037 902 544143 1.233905640444 99.933896009863 988 0.099987480333 0.100008834666 98.799990849752 9.879998181864
69	1634120 27286 902 544143 1.233905640444 99.933896009863 988 3 3 2964 8892
70	1661406 40057 968 544203 1.236616680472 99.936607623642 988 0.099987480333 0.100008834669 98.799991423503 9.8799982966128
71	1701463 27309 968 544203 1.236616680472 99.936607623642 988 5 5 4940 24700
72	1728772 40002 1036 544289 1.2505597205 99.950550798992 988 0.099987480333 0.100008768596 98.799991558825 9.879998323374
73	1768774 27247 1036 544289 1.2505597205 99.950550798992 988 7 7 6916 48412
74	1796021 39998 1097 544338 1.260290840583 99.960281866551 988 0.099987480333 0.100008834683 98.799991506301 9.8799983131742
75	1836019 27255 1097 544338 1.260290840583 99.960281866551 988 1 1 988 988
76	1863274 39998 1097 544338 1.260290840583 99.960281866551 988 0.099987480333 0.100008834683 98.799991506301 9.8799983131742
77	1903272 27255 1097 544338 1.260290840583 99.960281866551 988 1 1 988 988
78	1930527 40005 1103 544344 1.260290860597 99.960281987695 988 0.099987480333 0.100008834684 98.799991607431 9.8799983334002
79	1970532 27264 1103 544344 1.260290860597 99.960281987695 988 2 2 1976 3952
80	1997796 40010 1109 544362 1.260290880611 99.960282103771 988 0.099987480333 0.100008834685 98.799991703493 9.8799983526125
81	2037806 27274 1109 544362 1.260290880611 99.960282103771 988 3 3 2964 8892
82	2065080 40017 1115 544368 1.260290900624 99.96028237058 988 0.099987480333 0.100008834687 98.799991950289 9.8799984019717
83	2105097 27269 1115 544368 1.260290900624 99.96028237058 988 4 4 3952 15808
84	2132366 40048 1121 544356 1.260290920638 99.960282027184 988 0.099987480333 0.100008834689 98.799991586879 9.8799983292898
85	2172414 27295 1121 544356 1.260290920638 99.960282027184 988 5 5 4940 24700
86	2199709 40021 1127 544350 1.260290940652 99.960282009139 988 0.099987480333 0.100008834693 98.79999154882 9.8799983216779
87	2239730 27271 1127 544350 1.260290940652 99.960282009139 988 6 6 5928 35568
88	2267001 40061 1133 544332 1.260290960666 99.960281856817 988 0.099987480333 0.100008834697 98.799991376484 9.8799982872108
89	2307062 27293 1133 544332 1.260290960666 99.960281856817 988 7 7 6916 48412
90	2334355 40024 1170 544399 1.271698940652 99.971703047134 988 0.099987480335 0.100008786146 98.800004586815 9.8800009291276
91	2374379 27275 1170 544399 1.271698940652 99.971703047134 988 6 6 5928 35568
92	2401654 1459 5026 544439 2 100 99 0 0 0 0
93	2403113 2067 5026 544439 2 100 99 0.022473 0.02613030339 2.47160630339 0.061713137821253
94	2405180 1459 5026 544439 2 100 99 0 0 0 0
95	2406639 1459 5027 544440 2 100 99 1 1 99 99
96	2408098 2068 5027 544440 2 100 99 0.022473 0.025898 2.471214046036 0.06169302261439
97	2410166 1459 5027 544440 2 100 99 0 0 0 0
98	2411625 1459 5028 544441 2 100 99 2 2 198 396
99	2413084 2068 5028 544441 2 100 99 0.022473 0.025898 2.471214092388 0.061693024942658
100	2415152 1558 5028 544441 2 100 99 0 0 0 0
101	2416710 1558 5029 544442 2 100 99 3 3 297 891
102	2418268 2167 5029 544442 2 100 99 0.022473 0.025898 2.471214138866 0.061693027277258
103	2420435 1558 5029 544442 2 100 99 0 0 0 0
104	2421993 1558 5030 544443 2 100 99 4 4 396 1584
105	2423551 2166 5030 544443 2 100 99 0.022473 0.025898 2.47121418539 0.061693029614174
106	2425717 1558 5030 544443 2 100 99 0 0 0 0
107	2427275 1558 5031 544444 2 100 99 5 5 495 2475
108	2428833 2166 5031 544444 2 100 99 0.022473 0.025898 2.47121423195 0.061693031952902
109	2430999 1558 5031 544444 2 100 99 0 0 0 0
110	2432557 1558 5032 544445 2 100 99 6 6 594 3564
111	2434115 2167 5032 544445 2 100 99 0.022473 0.025898 2.471214278524 0.061693034292338
112	2436282 1558 5032 544445 2 100 99 0 0 0 0
113	2437840 1558 5033 544446 2 100 99 7 7 693 4851
114	2439398 2167 5033 544446 2 100 99 0.022473 0.025931325106 2.471214325106 0.061693091018753
115	2441565 1558 5033 544446 2 100 99 0 0 0 0

