file 2437857 1720583591                                         
version 3
run BreakRanksNoGui-22-20240710-05:53:01-234630
attr configname BreakRanksNoGui
attr datetime 20240710-05:53:01
attr datetimef 20240710-055301
attr experiment BreakRanksNoGui
attr inifile omnetpp.ini
attr iterationvars "$nCars=8, $platoonSize=8, $nLanes=1, $ploegH=0.5, $controller=1, $headway=0.1, $leaderHeadway=1.2, $leaderSpeed=130, $breakRanksSafetyDistance=3, $minSpeed=120, $maxSpeed=140, $beaconInterval=0.1, $priority=4, $packetSize=200, $sController=\"CACC\", $0=2, $1=0"
attr iterationvarsd nCars=8/platoonSize=8/nLanes=1/ploegH=0.5/controller=1/headway=0.1/leaderHeadway=1.2/leaderSpeed=130/breakRanksSafetyDistance=3/minSpeed=120/maxSpeed=140/beaconInterval=0.1/priority=4/packetSize=200/sController=CACC/2/0
attr iterationvarsf nCars=8,platoonSize=8,nLanes=1,ploegH=0.5,controller=1,headway=0.1,leaderHeadway=1.2,leaderSpeed=130,breakRanksSafetyDistance=3,minSpeed=120,maxSpeed=140,beaconInterval=0.1,priority=4,packetSize=200,sController=CACC,2,0-
attr measurement "$nCars=8, $platoonSize=8, $nLanes=1, $ploegH=0.5, $controller=1, $headway=0.1, $leaderHeadway=1.2, $leaderSpeed=130, $breakRanksSafetyDistance=3, $minSpeed=120, $maxSpeed=140, $beaconInterval=0.1, $priority=4, $packetSize=200, $sController=\"CACC\", $0=2, $1=0"
attr network Highway
attr processid 234630
attr repetition 2
attr replication #2
attr resultdir results
attr runnumber 22
attr seedset 2
itervar beaconInterval 0.1
itervar breakRanksSafetyDistance 3
itervar controller 1
itervar headway 0.1
itervar leaderHeadway 1.2
itervar leaderSpeed 130
itervar maxSpeed 140
itervar minSpeed 120
itervar nCars 8
itervar nLanes 1
itervar packetSize 200
itervar platoonSize 8
itervar ploegH 0.5
itervar priority 4
itervar sController "\"CACC\""
config image-path ../../../veins/images
config repeat 10
config extends BreakRanks
config *.manager.command "\"sumo\""
config *.manager.ignoreGuiCommands true
config output-vector-file results/BreakRanks_1_0.1_130_3/result_2.vec
config output-scalar-file results/BreakRanks_1_0.1_130_3/result_2.sca
config extends Platooning
config *.node[*].scenario_type "\"BreakRanksScenario\""
config *.manager.command "\"sumo-gui\""
config *.node[*].scenario_type "\"SimpleScenario\""
config cmdenv-express-mode true
config cmdenv-autoflush true
config cmdenv-status-frequency 15s
config num-rngs 6
config network Highway
config debug-on-errors true
config print-undisposed true
config *.playgroundSizeX 65000m
config *.playgroundSizeY 25000m
config *.playgroundSizeZ 50m
config sim-time-limit "100 s"
config *.annotations.draw false
config *.obstacles.debug false
config *.world.useTorus false
config *.world.use2D false
config *.manager.updateInterval 0.01s
config *.manager.host "\"localhost\""
config *.manager.moduleType "\"org.car2x.plexe.PlatoonCar\""
config *.manager.moduleName "\"node\""
config *.manager.moduleDisplayString "\"\""
config *.manager.autoShutdown true
config *.manager.margin 25
config *.connectionManager.sendDirect true
config *.connectionManager.maxInterfDist 2600m
config *.connectionManager.drawMaxIntfDist false
config *.**.nic.mac1609_4.useServiceChannel false
config *.**.nic.mac1609_4.txPower 100mW
config *.**.nic.mac1609_4.bitrate 6Mbps
config *.**.nic.mac1609_4.useAcks true
config *.**.nic.mac1609_4.ackErrorRate 0.0
config *.**.nic.mac1609_4.frameErrorRate 0.0
config *.**.nic.phy80211p.minPowerLevel -94dBm
config *.**.nic.phy80211p.maxTXPower 100mW
config *.**.nic.phy80211p.useNoiseFloor true
config *.**.nic.phy80211p.noiseFloor -95dBm
config *.**.nic.phy80211p.decider "xmldoc(\"config.xml\")"
config *.**.nic.phy80211p.analogueModels "xmldoc(\"config.xml\")"
config *.**.nic.phy80211p.usePropagationDelay true
config *.node[*].mobility.x 0
config *.node[*].mobility.y 0
config *.node[*].mobility.z 1.895
config seed-set 2
config **.seed 2
config *.node[*].prot.rng-0 2
config *.node[*].appl.rng-0 3
config *.node[*].scenario.rng-0 4
config **.traffic.rng-0 5
config *.manager.configFile "\"./sumocfg/freeway.sumo.cfg\""
config *.manager.launchConfig "xmldoc(\"./sumocfg/freeway.launchd.xml\")"
config **.numberOfCars 8
config **.numberOfCarsPerPlatoon 8
config **.numberOfLanes 1
config *.node[*].helper_type "\"PositionHelper\""
config *.node[*].scenario.caccC1 0.5
config *.node[*].scenario.caccXi 1
config *.node[*].scenario.caccOmegaN "0.2 Hz"
config *.node[*].scenario.caccSpacing "2 m"
config *.node[*].scenario.engineTau "0.5 s"
config *.node[*].scenario.ploegH 0.5s
config *.node[*].scenario.ploegKp 0.2
config *.node[*].scenario.ploegKd 0.7
config *.node[*].scenario.useRealisticEngine false
config *.node[*].scenario.useControllerAcceleration true
config *.node[*].scenario.nLanes 1
config **.numericController 1
config **.headway 0.1s
config *.node[*].scenario.accHeadway 0.1s
config *.node[*].scenario.leaderHeadway 1.2s
config *.node[*].scenario.leaderSpeed 130kmph
config *.node[*].appl_type "\"SimplePlatooningApp\""
config *.node[*].appl.*.scalar-recording true
config *.node[*].appl.*.vector-recording true
config *.node[0].appl.breakRanksSafetyDistance 3m
config *.node[*].appl.minSpeed 120kmph
config *.node[*].appl.maxSpeed 140kmph
config *.node[*].protocol_type "\"SimplePlatooningBeaconing\""
config *.node[*].prot.*.scalar-recording true
config *.node[*].prot.*.vector-recording true
config *.node[*].prot.beaconingInterval 0.1s
config *.node[*].prot.priority 4
config *.node[*].prot.packetSize 200
config **.traffic_type "\"PlatoonsTrafficManager\""
config **.traffic.platoonInsertTime "1 s"
config **.traffic.platoonInsertSpeed 130kmph
config **.traffic.nCars 8
config **.traffic.platoonSize 8
config **.traffic.nLanes 1
config **.traffic.platooningVType "\"vtypeauto\""
config **.traffic.controller "\"CACC\""
config **.traffic.platoonInsertDistance 2m
config **.traffic.platoonInsertHeadway 0s
config **.traffic.platoonLeaderHeadway 1.2s
config **.scalar-recording false
config **.vector-recording false

vector 0 Highway.node[0].appl distance ETV
vector 1 Highway.node[0].appl relativeSpeed ETV
vector 2 Highway.node[0].appl nodeId ETV
vector 3 Highway.node[0].appl acceleration ETV
vector 4 Highway.node[0].appl controllerAcceleration ETV
vector 5 Highway.node[0].appl speed ETV
vector 6 Highway.node[0].appl posx ETV
vector 7 Highway.node[0].appl posy ETV
vector 8 Highway.node[1].appl distance ETV
vector 9 Highway.node[1].appl relativeSpeed ETV
vector 10 Highway.node[1].appl nodeId ETV
vector 11 Highway.node[1].appl acceleration ETV
vector 12 Highway.node[1].appl controllerAcceleration ETV
vector 13 Highway.node[1].appl speed ETV
vector 14 Highway.node[1].appl posx ETV
vector 15 Highway.node[1].appl posy ETV
vector 16 Highway.node[2].appl distance ETV
vector 17 Highway.node[2].appl relativeSpeed ETV
vector 18 Highway.node[2].appl nodeId ETV
vector 19 Highway.node[2].appl acceleration ETV
vector 20 Highway.node[2].appl controllerAcceleration ETV
vector 21 Highway.node[2].appl speed ETV
vector 22 Highway.node[2].appl posx ETV
vector 23 Highway.node[2].appl posy ETV
vector 24 Highway.node[3].appl distance ETV
vector 25 Highway.node[3].appl relativeSpeed ETV
vector 26 Highway.node[3].appl nodeId ETV
vector 27 Highway.node[3].appl acceleration ETV
vector 28 Highway.node[3].appl controllerAcceleration ETV
vector 29 Highway.node[3].appl speed ETV
vector 30 Highway.node[3].appl posx ETV
vector 31 Highway.node[3].appl posy ETV
vector 32 Highway.node[4].appl distance ETV
vector 33 Highway.node[4].appl relativeSpeed ETV
vector 34 Highway.node[4].appl nodeId ETV
vector 35 Highway.node[4].appl acceleration ETV
vector 36 Highway.node[4].appl controllerAcceleration ETV
vector 37 Highway.node[4].appl speed ETV
vector 38 Highway.node[4].appl posx ETV
vector 39 Highway.node[4].appl posy ETV
vector 40 Highway.node[5].appl distance ETV
vector 41 Highway.node[5].appl relativeSpeed ETV
vector 42 Highway.node[5].appl nodeId ETV
vector 43 Highway.node[5].appl acceleration ETV
vector 44 Highway.node[5].appl controllerAcceleration ETV
vector 45 Highway.node[5].appl speed ETV
vector 46 Highway.node[5].appl posx ETV
vector 47 Highway.node[5].appl posy ETV
vector 48 Highway.node[6].appl distance ETV
vector 49 Highway.node[6].appl relativeSpeed ETV
vector 50 Highway.node[6].appl nodeId ETV
vector 51 Highway.node[6].appl acceleration ETV
vector 52 Highway.node[6].appl controllerAcceleration ETV
vector 53 Highway.node[6].appl speed ETV
vector 54 Highway.node[6].appl posx ETV
vector 55 Highway.node[6].appl posy ETV
vector 56 Highway.node[7].appl distance ETV
vector 57 Highway.node[7].appl relativeSpeed ETV
vector 58 Highway.node[7].appl nodeId ETV
vector 59 Highway.node[7].appl acceleration ETV
vector 60 Highway.node[7].appl controllerAcceleration ETV
vector 61 Highway.node[7].appl speed ETV
vector 62 Highway.node[7].appl posx ETV
vector 63 Highway.node[7].appl posy ETV
vector 64 Highway.node[7].prot frontDelay ETV
vector 65 Highway.node[7].prot frontDelayId ETV
vector 66 Highway.node[6].prot frontDelay ETV
vector 67 Highway.node[6].prot frontDelayId ETV
vector 68 Highway.node[1].prot leaderDelay ETV
vector 69 Highway.node[1].prot leaderDelayId ETV
vector 70 Highway.node[1].prot frontDelay ETV
vector 71 Highway.node[1].prot frontDelayId ETV
vector 72 Highway.node[2].prot leaderDelay ETV
vector 73 Highway.node[2].prot leaderDelayId ETV
vector 74 Highway.node[3].prot leaderDelay ETV
vector 75 Highway.node[3].prot leaderDelayId ETV
vector 76 Highway.node[4].prot leaderDelay ETV
vector 77 Highway.node[4].prot leaderDelayId ETV
vector 78 Highway.node[5].prot leaderDelay ETV
vector 79 Highway.node[5].prot leaderDelayId ETV
vector 80 Highway.node[6].prot leaderDelay ETV
vector 81 Highway.node[6].prot leaderDelayId ETV
vector 82 Highway.node[7].prot leaderDelay ETV
vector 83 Highway.node[7].prot leaderDelayId ETV
vector 84 Highway.node[4].prot frontDelay ETV
vector 85 Highway.node[4].prot frontDelayId ETV
vector 86 Highway.node[3].prot frontDelay ETV
vector 87 Highway.node[3].prot frontDelayId ETV
vector 88 Highway.node[5].prot frontDelay ETV
vector 89 Highway.node[5].prot frontDelayId ETV
vector 90 Highway.node[2].prot frontDelay ETV
vector 91 Highway.node[2].prot frontDelayId ETV
vector 92 Highway.node[0].prot nodeId ETV
vector 93 Highway.node[0].prot busyTime ETV
vector 94 Highway.node[0].prot collisions ETV
vector 95 Highway.node[1].prot nodeId ETV
vector 96 Highway.node[1].prot busyTime ETV
vector 97 Highway.node[1].prot collisions ETV
vector 98 Highway.node[2].prot nodeId ETV
vector 99 Highway.node[2].prot busyTime ETV
vector 100 Highway.node[2].prot collisions ETV
vector 101 Highway.node[3].prot nodeId ETV
vector 102 Highway.node[3].prot busyTime ETV
vector 103 Highway.node[3].prot collisions ETV
vector 104 Highway.node[4].prot nodeId ETV
vector 105 Highway.node[4].prot busyTime ETV
vector 106 Highway.node[4].prot collisions ETV
vector 107 Highway.node[5].prot nodeId ETV
vector 108 Highway.node[5].prot busyTime ETV
vector 109 Highway.node[5].prot collisions ETV
vector 110 Highway.node[6].prot nodeId ETV
vector 111 Highway.node[6].prot busyTime ETV
vector 112 Highway.node[6].prot collisions ETV
vector 113 Highway.node[7].prot nodeId ETV
vector 114 Highway.node[7].prot busyTime ETV
vector 115 Highway.node[7].prot collisions ETV
0	11185 17510 113 543894 1.11 99.91 989 -1 -1 -989 989
1	28695 16521 113 543894 1.11 99.91 989 0 0 0 0
2	45216 16521 113 543894 1.11 99.91 989 0 0 0 0
3	61737 18809 113 543894 1.11 99.91 989 -3.14892e-05 0.000707784 0.010991577126781 6.0508064149601e-06
4	80546 26467 113 543894 1.11 99.91 989 -4.89399e-05 0.00109259 0.010614843047836 8.6815283230331e-06
5	107013 22448 113 543894 1.11 99.91 989 36.11 36.1111 35713.866699999 1289666.6073546
6	129461 22372 113 543894 1.11 99.91 989 55.1399 3622.92 1818797.9104 4396026479.3597
7	151833 21466 113 543894 1.11 99.91 989 242.45 242.45 239783.05 58135400.472499
8	173299 19980 114 543895 1.11 99.91 989 -1 2.99713 865.76462 4094.147707786
9	193279 21023 114 543895 1.11 99.91 989 -1.82116e-05 0.0796067 9.971555721527 0.52638076804904
10	214302 17510 114 543895 1.11 99.91 989 1 1 989 989
11	231812 27080 114 543895 1.11 99.91 989 -0.0302812 0.572448 8.9244480743836 3.9906139349431
12	258892 27085 114 543895 1.11 99.91 989 -0.0398649 0.889093 8.9591119432343 6.0201608552021
13	285977 21481 114 543895 1.11 99.91 989 36.0315 37.0397 36119.9457 1319362.9324391
14	307458 23390 114 543895 1.11 99.91 989 49.1399 3657.48 1821802.5173 4430533955.2246
15	330848 22455 114 543895 1.11 99.91 989 242.45 245.75 241360.45 58905487.1525
16	353303 23301 115 543896 1.11 99.91 989 2 46.3435 20075.19944 794781.57134535
17	376604 25400 115 543896 1.11 99.91 989 0 3.02753 311.83697961035 576.35309663007
18	402004 17510 115 543896 1.11 99.91 989 2 2 1978 3956
19	419514 26234 115 543896 1.11 99.91 989 -1.91356 0.917574 8.907416333249 59.603845548179
20	445748 26249 115 543896 1.11 99.91 989 -2.91996 1.33235 10.436460853453 82.888792010029
21	471997 23330 115 543896 1.11 99.91 989 33.0836 36.9944 35676.5059 1287745.0011257
22	495327 23315 115 543896 1.11 99.91 989 43.1399 3607.14 1797902.2666 4306097166.9064
23	518642 22455 115 543896 1.11 99.91 989 242.45 245.75 240839.05 58650939.6725
24	541097 23313 116 543897 1.11 99.91 989 2 45.9733 18251.31625 683166.78179977
25	564410 25068 116 543897 1.11 99.91 989 -3.15888e-07 3.48766 439.75394886499 846.71929758459
26	589478 17510 116 543897 1.11 99.91 989 3 3 2967 8901
27	606988 25818 116 543897 1.11 99.91 989 -2.79594 0.737634 8.48196916472 165.55800180125
28	632806 25823 116 543897 1.11 99.91 989 -3.52076 0.805436 9.919436676728 198.89771388412
29	658629 23322 116 543897 1.11 99.91 989 29.8465 36.952 35236.7541 1257939.769274
30	681951 23330 116 543897 1.11 99.91 989 37.1399 3557.16 1775694.9594 4191842088.1099
31	705281 22455 116 543897 1.11 99.91 989 242.45 245.75 240839.05 58650939.6725
32	727736 23277 117 543898 1.11 99.91 989 0.362163 198.476 48668.746383 6820076.2468123
33	751013 24477 117 543898 1.11 99.91 989 -1.21792e-06 9.36948 1719.167499938 7446.0431013236
34	775490 17510 117 543898 1.11 99.91 989 4 4 3956 15824
35	793000 25632 117 543898 1.11 99.91 989 -3.07031 1.49842 -31.034236221246 301.49107478754
36	818632 26544 117 543898 1.11 99.91 989 -3.52364 1.5 -29.355064128329 342.80830483343
37	845176 21895 117 543898 1.11 99.91 989 26.9608 36.1111 33927.5552 1168260.7140242
38	867071 23385 117 543898 1.11 99.91 989 31.1399 3420.44 1745457.3764 4024398144.9202
39	890456 22455 117 543898 1.11 99.91 989 242.45 249.05 240766.45 58617892.1525
40	912911 20842 118 543899 1.11 99.91 989 -1 24.8322 830.69044 4276.7413215892
41	933753 21916 118 543899 1.11 99.91 989 -1.20545e-05 2.3999 11.993180475773 6.0477908841591
42	955669 17510 118 543899 1.11 99.91 989 5 5 4945 24725
43	973179 25337 118 543899 1.11 99.91 989 -2.94541 1.49009 18.89978129884 115.30442475633
44	998516 26711 118 543899 1.11 99.91 989 -3.52314 1.5 18.635713944262 195.62147860399
45	1025227 21684 118 543899 1.11 99.91 989 33.4562 38.103 36428.2405 1342923.5688055
46	1046911 23360 118 543899 1.11 99.91 989 25.1399 3664.26 1800615.2205 4367018136.5564
47	1070271 22455 118 543899 1.11 99.91 989 242.45 249.05 242875.14999999 59655156.732502
48	1092726 23310 119 543900 1.11 99.91 989 1.99997 91.7071 27046.05982 1560570.9775984
49	1116036 22882 119 543900 1.11 99.91 989 -1.24422e-05 3.96221 857.48758749912 1694.2136649485
50	1138918 17510 119 543900 1.11 99.91 989 6 6 5934 35604
51	1156428 25256 119 543900 1.11 99.91 989 -2.94527 1.43124 -1.119650495094 109.19333817535
52	1181684 26793 119 543900 1.11 99.91 989 -3.52264 1.5 -1.6431301049569 187.88628399671
53	1208477 21639 119 543900 1.11 99.91 989 32.9105 36.1111 35530.1684 1276601.3381579
54	1230116 23367 119 543900 1.11 99.91 989 19.1399 3568.55 1774260.4095 4221209336.8036
55	1253483 22455 119 543900 1.11 99.91 989 242.45 249.05 242380.15 59410274.292501
56	1275938 20871 120 543901 1.11 99.91 989 -1 2.90014 725.37639 3368.0229942609
57	1296809 21878 120 543901 1.11 99.91 989 -6.96035e-06 0.0353532 9.0062209571102 0.23990105263042
58	1318687 17510 120 543901 1.11 99.91 989 7 7 6923 48461
59	1336197 24788 120 543901 1.11 99.91 989 -0.0858958 0.0130391 -1.0618829497855 0.21397635626706
60	1360985 27109 120 543901 1.11 99.91 989 -0.0774891 0.01308 -0.5950087315593 0.19933604898293
61	1388094 21315 120 543901 1.11 99.91 989 35.8113 36.1111 35593.773 1281013.4748637
62	1409409 23379 120 543901 1.11 99.91 989 13.1399 3568.91 1771038.4968 4215348214.6826
63	1432788 22455 120 543901 1.11 99.91 989 242.45 252.35 244482.25 60460346.832501
64	1455243 39972 702 543931 1.21212246032 99.912110752737 988 0.099987440306 0.100008544062 98.799988732723 9.8799977585055
65	1495215 27279 702 543931 1.21212246032 99.912110752737 988 7 7 6916 48412
66	1522494 39948 837 544090 1.247587520362 99.947576390614 988 0.099987440306 0.100008544094 98.799989310558 9.8799978740719
67	1562442 27263 837 544090 1.247587520362 99.947576390614 988 6 6 5928 35568
68	1589705 39946 899 544140 1.262193620431 99.962195326994 988 0.099987440306 0.100008544117 98.799989146869 9.8799978413368
69	1629651 27263 899 544140 1.262193620431 99.962195326994 988 1 1 988 988
70	1656914 39946 899 544140 1.262193620431 99.962195326994 988 0.099987440306 0.100008544117 98.799989146869 9.8799978413368
71	1696860 27263 899 544140 1.262193620431 99.962195326994 988 1 1 988 988
72	1724123 39958 905 544134 1.262193640445 99.962195264605 988 0.099987440306 0.100008544122 98.799989064466 9.8799978248562
73	1764081 27282 905 544134 1.262193640445 99.962195264605 988 2 2 1976 3952
74	1791363 39951 911 544164 1.262193660459 99.96219543044 988 0.099987440306 0.100008544127 98.799989210287 9.8799978540204
75	1831314 27272 911 544164 1.262193660459 99.96219543044 988 3 3 2964 8892
76	1858586 39983 917 544170 1.262193680472 99.962195887011 988 0.099987440306 0.100008544135 98.799989646845 9.879997941332
77	1898569 27287 917 544170 1.262193680472 99.962195887011 988 4 4 3952 15808
78	1925856 39969 923 544146 1.262193700486 99.962195351026 988 0.099987440306 0.100008544145 98.799989090846 9.8799978301322
79	1965825 27266 923 544146 1.262193700486 99.962195351026 988 5 5 4940 24700
80	1993091 39904 929 544152 1.2621937205 99.962195393696 988 0.099987440306 0.100008544155 98.799989113502 9.8799978346634
81	2032995 27242 929 544152 1.2621937205 99.962195393696 988 6 6 5928 35568
82	2060237 39957 935 544158 1.262193740514 99.962195394163 988 0.099987440306 0.100008544166 98.799989093955 9.879997830754
83	2100194 27272 935 544158 1.262193740514 99.962195394163 988 7 7 6916 48412
84	2127466 39980 972 544237 1.276565680473 99.976567887551 988 0.099987440309 0.10000853608 98.800002647384 9.8800005411663
85	2167446 27283 972 544237 1.276565680473 99.976567887551 988 4 4 3952 15808
86	2194729 39966 1039 544286 1.287856700487 99.987858763847 988 0.099987440306 0.10000854414 98.799989503666 9.8799979126976
87	2234695 27269 1039 544286 1.287856700487 99.987858763847 988 3 3 2964 8892
88	2261964 39954 1106 544371 1.297496740515 99.997487036144 988 0.099987440306 0.100008549535 98.799990735935 9.8799981591443
89	2301918 27267 1106 544371 1.297496740515 99.997487036144 988 5 5 4940 24700
90	2329185 39940 1173 543868 1.302586800557 99.902587612757 987 0.099987440307 0.100008649322 98.700001252506 9.8700002624127
91	2369125 27261 1173 543868 1.302586800557 99.902587612757 987 2 2 1974 3948
92	2396386 1459 4960 544373 2 100 99 0 0 0 0
93	2397845 2068 4960 544373 2 100 99 0.022161 0.026130303372 2.471294303372 0.061699212012313
94	2399913 1459 4960 544373 2 100 99 0 0 0 0
95	2401372 1459 4961 544374 2 100 99 1 1 99 99
96	2402831 2067 4961 544374 2 100 99 0.02216 0.025898 2.470901046036 0.06167905248539
97	2404898 1459 4961 544374 2 100 99 0 0 0 0
98	2406357 1459 4962 544375 2 100 99 2 2 198 396
99	2407816 2068 4962 544375 2 100 99 0.022161 0.025898 2.470902092386 0.061679099134557
100	2409884 1558 4962 544375 2 100 99 0 0 0 0
101	2411442 1558 4963 544376 2 100 99 3 3 297 891
102	2413000 2167 4963 544376 2 100 99 0.022161 0.025898 2.470902138862 0.061679101469057
103	2415167 1558 4963 544376 2 100 99 0 0 0 0
104	2416725 1558 4964 544377 2 100 99 4 4 396 1584
105	2418283 2167 4964 544377 2 100 99 0.022161 0.025898 2.470902185386 0.061679103805973
106	2420450 1558 4964 544377 2 100 99 0 0 0 0
107	2422008 1558 4965 544378 2 100 99 5 5 495 2475
108	2423566 2167 4965 544378 2 100 99 0.022161 0.025898 2.470902231944 0.061679106144601
109	2425733 1558 4965 544378 2 100 99 0 0 0 0
110	2427291 1558 4966 544379 2 100 99 6 6 594 3564
111	2428849 2166 4966 544379 2 100 99 0.022161 0.025898 2.47090227852 0.061679108484137
112	2431015 1558 4966 544379 2 100 99 0 0 0 0
113	2432573 1558 4967 544380 2 100 99 7 7 693 4851
114	2434131 2167 4967 544380 2 100 99 0.022161 0.025931325102 2.470902325102 0.061679165210545
115	2436298 1558 4967 544380 2 100 99 0 0 0 0

