file 2400278 1720582578                                         
version 3
run BreakRanksNoGui-22-20240710-05:36:09-231395
attr configname BreakRanksNoGui
attr datetime 20240710-05:36:09
attr datetimef 20240710-053609
attr experiment BreakRanksNoGui
attr inifile omnetpp.ini
attr iterationvars "$nCars=8, $platoonSize=8, $nLanes=1, $ploegH=0.5, $controller=1, $headway=0.1, $leaderHeadway=1.2, $leaderSpeed=110, $breakRanksSafetyDistance=2, $minSpeed=100, $maxSpeed=120, $beaconInterval=0.1, $priority=4, $packetSize=200, $sController=\"CACC\", $0=2, $1=0"
attr iterationvarsd nCars=8/platoonSize=8/nLanes=1/ploegH=0.5/controller=1/headway=0.1/leaderHeadway=1.2/leaderSpeed=110/breakRanksSafetyDistance=2/minSpeed=100/maxSpeed=120/beaconInterval=0.1/priority=4/packetSize=200/sController=CACC/2/0
attr iterationvarsf nCars=8,platoonSize=8,nLanes=1,ploegH=0.5,controller=1,headway=0.1,leaderHeadway=1.2,leaderSpeed=110,breakRanksSafetyDistance=2,minSpeed=100,maxSpeed=120,beaconInterval=0.1,priority=4,packetSize=200,sController=CACC,2,0-
attr measurement "$nCars=8, $platoonSize=8, $nLanes=1, $ploegH=0.5, $controller=1, $headway=0.1, $leaderHeadway=1.2, $leaderSpeed=110, $breakRanksSafetyDistance=2, $minSpeed=100, $maxSpeed=120, $beaconInterval=0.1, $priority=4, $packetSize=200, $sController=\"CACC\", $0=2, $1=0"
attr network Highway
attr processid 231395
attr repetition 2
attr replication #2
attr resultdir results
attr runnumber 22
attr seedset 2
itervar beaconInterval 0.1
itervar breakRanksSafetyDistance 2
itervar controller 1
itervar headway 0.1
itervar leaderHeadway 1.2
itervar leaderSpeed 110
itervar maxSpeed 120
itervar minSpeed 100
itervar nCars 8
itervar nLanes 1
itervar packetSize 200
itervar platoonSize 8
itervar ploegH 0.5
itervar priority 4
itervar sController "\"CACC\""
config image-path ../../../veins/images
config repeat 10
config extends BreakRanks
config *.manager.command "\"sumo\""
config *.manager.ignoreGuiCommands true
config output-vector-file results/BreakRanks_1_0.1_110_2/result_2.vec
config output-scalar-file results/BreakRanks_1_0.1_110_2/result_2.sca
config extends Platooning
config *.node[*].scenario_type "\"BreakRanksScenario\""
config *.manager.command "\"sumo-gui\""
config *.node[*].scenario_type "\"SimpleScenario\""
config cmdenv-express-mode true
config cmdenv-autoflush true
config cmdenv-status-frequency 15s
config num-rngs 6
config network Highway
config debug-on-errors true
config print-undisposed true
config *.playgroundSizeX 65000m
config *.playgroundSizeY 25000m
config *.playgroundSizeZ 50m
config sim-time-limit "100 s"
config *.annotations.draw false
config *.obstacles.debug false
config *.world.useTorus false
config *.world.use2D false
config *.manager.updateInterval 0.01s
config *.manager.host "\"localhost\""
config *.manager.moduleType "\"org.car2x.plexe.PlatoonCar\""
config *.manager.moduleName "\"node\""
config *.manager.moduleDisplayString "\"\""
config *.manager.autoShutdown true
config *.manager.margin 25
config *.connectionManager.sendDirect true
config *.connectionManager.maxInterfDist 2600m
config *.connectionManager.drawMaxIntfDist false
config *.**.nic.mac1609_4.useServiceChannel false
config *.**.nic.mac1609_4.txPower 100mW
config *.**.nic.mac1609_4.bitrate 6Mbps
config *.**.nic.mac1609_4.useAcks true
config *.**.nic.mac1609_4.ackErrorRate 0.0
config *.**.nic.mac1609_4.frameErrorRate 0.0
config *.**.nic.phy80211p.minPowerLevel -94dBm
config *.**.nic.phy80211p.maxTXPower 100mW
config *.**.nic.phy80211p.useNoiseFloor true
config *.**.nic.phy80211p.noiseFloor -95dBm
config *.**.nic.phy80211p.decider "xmldoc(\"config.xml\")"
config *.**.nic.phy80211p.analogueModels "xmldoc(\"config.xml\")"
config *.**.nic.phy80211p.usePropagationDelay true
config *.node[*].mobility.x 0
config *.node[*].mobility.y 0
config *.node[*].mobility.z 1.895
config seed-set 2
config **.seed 2
config *.node[*].prot.rng-0 2
config *.node[*].appl.rng-0 3
config *.node[*].scenario.rng-0 4
config **.traffic.rng-0 5
config *.manager.configFile "\"./sumocfg/freeway.sumo.cfg\""
config *.manager.launchConfig "xmldoc(\"./sumocfg/freeway.launchd.xml\")"
config **.numberOfCars 8
config **.numberOfCarsPerPlatoon 8
config **.numberOfLanes 1
config *.node[*].helper_type "\"PositionHelper\""
config *.node[*].scenario.caccC1 0.5
config *.node[*].scenario.caccXi 1
config *.node[*].scenario.caccOmegaN "0.2 Hz"
config *.node[*].scenario.caccSpacing "2 m"
config *.node[*].scenario.engineTau "0.5 s"
config *.node[*].scenario.ploegH 0.5s
config *.node[*].scenario.ploegKp 0.2
config *.node[*].scenario.ploegKd 0.7
config *.node[*].scenario.useRealisticEngine false
config *.node[*].scenario.useControllerAcceleration true
config *.node[*].scenario.nLanes 1
config **.numericController 1
config **.headway 0.1s
config *.node[*].scenario.accHeadway 0.1s
config *.node[*].scenario.leaderHeadway 1.2s
config *.node[*].scenario.leaderSpeed 110kmph
config *.node[*].appl_type "\"SimplePlatooningApp\""
config *.node[*].appl.*.scalar-recording true
config *.node[*].appl.*.vector-recording true
config *.node[0].appl.breakRanksSafetyDistance 2m
config *.node[*].appl.minSpeed 100kmph
config *.node[*].appl.maxSpeed 120kmph
config *.node[*].protocol_type "\"SimplePlatooningBeaconing\""
config *.node[*].prot.*.scalar-recording true
config *.node[*].prot.*.vector-recording true
config *.node[*].prot.beaconingInterval 0.1s
config *.node[*].prot.priority 4
config *.node[*].prot.packetSize 200
config **.traffic_type "\"PlatoonsTrafficManager\""
config **.traffic.platoonInsertTime "1 s"
config **.traffic.platoonInsertSpeed 110kmph
config **.traffic.nCars 8
config **.traffic.platoonSize 8
config **.traffic.nLanes 1
config **.traffic.platooningVType "\"vtypeauto\""
config **.traffic.controller "\"CACC\""
config **.traffic.platoonInsertDistance 2m
config **.traffic.platoonInsertHeadway 0s
config **.traffic.platoonLeaderHeadway 1.2s
config **.scalar-recording false
config **.vector-recording false

vector 0 Highway.node[0].appl distance ETV
vector 1 Highway.node[0].appl relativeSpeed ETV
vector 2 Highway.node[0].appl nodeId ETV
vector 3 Highway.node[0].appl acceleration ETV
vector 4 Highway.node[0].appl controllerAcceleration ETV
vector 5 Highway.node[0].appl speed ETV
vector 6 Highway.node[0].appl posx ETV
vector 7 Highway.node[0].appl posy ETV
vector 8 Highway.node[1].appl distance ETV
vector 9 Highway.node[1].appl relativeSpeed ETV
vector 10 Highway.node[1].appl nodeId ETV
vector 11 Highway.node[1].appl acceleration ETV
vector 12 Highway.node[1].appl controllerAcceleration ETV
vector 13 Highway.node[1].appl speed ETV
vector 14 Highway.node[1].appl posx ETV
vector 15 Highway.node[1].appl posy ETV
vector 16 Highway.node[2].appl distance ETV
vector 17 Highway.node[2].appl relativeSpeed ETV
vector 18 Highway.node[2].appl nodeId ETV
vector 19 Highway.node[2].appl acceleration ETV
vector 20 Highway.node[2].appl controllerAcceleration ETV
vector 21 Highway.node[2].appl speed ETV
vector 22 Highway.node[2].appl posx ETV
vector 23 Highway.node[2].appl posy ETV
vector 24 Highway.node[3].appl distance ETV
vector 25 Highway.node[3].appl relativeSpeed ETV
vector 26 Highway.node[3].appl nodeId ETV
vector 27 Highway.node[3].appl acceleration ETV
vector 28 Highway.node[3].appl controllerAcceleration ETV
vector 29 Highway.node[3].appl speed ETV
vector 30 Highway.node[3].appl posx ETV
vector 31 Highway.node[3].appl posy ETV
vector 32 Highway.node[4].appl distance ETV
vector 33 Highway.node[4].appl relativeSpeed ETV
vector 34 Highway.node[4].appl nodeId ETV
vector 35 Highway.node[4].appl acceleration ETV
vector 36 Highway.node[4].appl controllerAcceleration ETV
vector 37 Highway.node[4].appl speed ETV
vector 38 Highway.node[4].appl posx ETV
vector 39 Highway.node[4].appl posy ETV
vector 40 Highway.node[5].appl distance ETV
vector 41 Highway.node[5].appl relativeSpeed ETV
vector 42 Highway.node[5].appl nodeId ETV
vector 43 Highway.node[5].appl acceleration ETV
vector 44 Highway.node[5].appl controllerAcceleration ETV
vector 45 Highway.node[5].appl speed ETV
vector 46 Highway.node[5].appl posx ETV
vector 47 Highway.node[5].appl posy ETV
vector 48 Highway.node[6].appl distance ETV
vector 49 Highway.node[6].appl relativeSpeed ETV
vector 50 Highway.node[6].appl nodeId ETV
vector 51 Highway.node[6].appl acceleration ETV
vector 52 Highway.node[6].appl controllerAcceleration ETV
vector 53 Highway.node[6].appl speed ETV
vector 54 Highway.node[6].appl posx ETV
vector 55 Highway.node[6].appl posy ETV
vector 56 Highway.node[7].appl distance ETV
vector 57 Highway.node[7].appl relativeSpeed ETV
vector 58 Highway.node[7].appl nodeId ETV
vector 59 Highway.node[7].appl acceleration ETV
vector 60 Highway.node[7].appl controllerAcceleration ETV
vector 61 Highway.node[7].appl speed ETV
vector 62 Highway.node[7].appl posx ETV
vector 63 Highway.node[7].appl posy ETV
vector 64 Highway.node[7].prot frontDelay ETV
vector 65 Highway.node[7].prot frontDelayId ETV
vector 66 Highway.node[6].prot frontDelay ETV
vector 67 Highway.node[6].prot frontDelayId ETV
vector 68 Highway.node[1].prot leaderDelay ETV
vector 69 Highway.node[1].prot leaderDelayId ETV
vector 70 Highway.node[1].prot frontDelay ETV
vector 71 Highway.node[1].prot frontDelayId ETV
vector 72 Highway.node[2].prot leaderDelay ETV
vector 73 Highway.node[2].prot leaderDelayId ETV
vector 74 Highway.node[3].prot leaderDelay ETV
vector 75 Highway.node[3].prot leaderDelayId ETV
vector 76 Highway.node[4].prot leaderDelay ETV
vector 77 Highway.node[4].prot leaderDelayId ETV
vector 78 Highway.node[5].prot leaderDelay ETV
vector 79 Highway.node[5].prot leaderDelayId ETV
vector 80 Highway.node[6].prot leaderDelay ETV
vector 81 Highway.node[6].prot leaderDelayId ETV
vector 82 Highway.node[7].prot leaderDelay ETV
vector 83 Highway.node[7].prot leaderDelayId ETV
vector 84 Highway.node[4].prot frontDelay ETV
vector 85 Highway.node[4].prot frontDelayId ETV
vector 86 Highway.node[3].prot frontDelay ETV
vector 87 Highway.node[3].prot frontDelayId ETV
vector 88 Highway.node[5].prot frontDelay ETV
vector 89 Highway.node[5].prot frontDelayId ETV
vector 90 Highway.node[2].prot frontDelay ETV
vector 91 Highway.node[2].prot frontDelayId ETV
vector 92 Highway.node[0].prot nodeId ETV
vector 93 Highway.node[0].prot busyTime ETV
vector 94 Highway.node[0].prot collisions ETV
vector 95 Highway.node[1].prot nodeId ETV
vector 96 Highway.node[1].prot busyTime ETV
vector 97 Highway.node[1].prot collisions ETV
vector 98 Highway.node[2].prot nodeId ETV
vector 99 Highway.node[2].prot busyTime ETV
vector 100 Highway.node[2].prot collisions ETV
vector 101 Highway.node[3].prot nodeId ETV
vector 102 Highway.node[3].prot busyTime ETV
vector 103 Highway.node[3].prot collisions ETV
vector 104 Highway.node[4].prot nodeId ETV
vector 105 Highway.node[4].prot busyTime ETV
vector 106 Highway.node[4].prot collisions ETV
vector 107 Highway.node[5].prot nodeId ETV
vector 108 Highway.node[5].prot busyTime ETV
vector 109 Highway.node[5].prot collisions ETV
vector 110 Highway.node[6].prot nodeId ETV
vector 111 Highway.node[6].prot busyTime ETV
vector 112 Highway.node[6].prot collisions ETV
vector 113 Highway.node[7].prot nodeId ETV
vector 114 Highway.node[7].prot busyTime ETV
vector 115 Highway.node[7].prot collisions ETV
0	11185 20645 113 542136 1.11 99.91 989 -1 118.37 45952.9832 3796282.9373339
1	31830 19738 113 542136 1.11 99.91 989 0 1.4444 928.74919999999 1341.48534448
2	51568 16523 113 542136 1.11 99.91 989 0 0 0 0
3	68091 19111 113 542136 1.11 99.91 989 -0.00283113 0.000125957 -0.043966303784312 9.6812896349407e-05
4	87202 26491 113 542136 1.11 99.91 989 -0.00437036 0.00019576 -0.042459310034081 0.00013890441444735
5	113693 22453 113 542136 1.11 99.91 989 30.5554 30.56 30219.5304 923377.16656332
6	136146 22340 113 542136 1.11 99.91 989 54.6404 3073.54 1546886.0081 3172113239.691
7	158486 21468 113 542136 1.11 99.91 989 242.45 242.45 239783.05 58135400.472499
8	179954 17944 114 542137 1.11 99.91 989 -1 2 -719.05773 1258.7691211479
9	197898 17446 114 542137 1.11 99.91 989 -0.000441914 6.7944e-05 -0.00559049213 2.8329247867892e-06
10	215344 17512 114 542137 1.11 99.91 989 1 1 989 989
11	232856 21502 114 542137 1.11 99.91 989 -0.0413948 0.929607 14.415445284628 10.447368741223
12	254358 27968 114 542137 1.11 99.91 989 -0.0643897 1.43971 14.199535182432 15.41783802805
13	282326 19454 114 542137 1.11 99.91 989 30.5554 32.0644 31503.9513 1003719.7226889
14	301780 23426 114 542137 1.11 99.91 989 48.6404 3195.91 1598061.7606 3405573037.979
15	325206 22457 114 542137 1.11 99.91 989 242.45 245.75 240627.85 58547831.832499
16	347663 22250 115 542138 1.11 99.91 989 -1 38.6279 22959.93129 815177.31135387
17	369913 23497 115 542138 1.11 99.91 989 -0.000131373 2.62711 306.28619642621 439.69404213121
18	393410 17512 115 542138 1.11 99.91 989 2 2 1978 3956
19	410922 26186 115 542138 1.11 99.91 989 -1.66117 1.33939 24.458792816745 62.114691963455
20	437108 26155 115 542138 1.11 99.91 989 -2.53478 1.5 25.6927324454 84.355073233777
21	463263 22840 115 542138 1.11 99.91 989 27.9285 33.093 30410.5511 936687.60561297
22	486103 23354 115 542138 1.11 99.91 989 42.6404 3080.52 1515931.0292 3075721100.1819
23	509457 22457 115 542138 1.11 99.91 989 242.45 249.05 241208.65 58836082.872501
24	531914 23343 116 542139 1.11 99.91 989 1.99958 169.985 57486.80921 5374624.4267537
25	555257 22243 116 542139 1.11 99.91 989 -0.000101157 3.54115 2030.7120904547 5727.0327734292
26	577500 17512 116 542139 1.11 99.91 989 3 3 2967 8901
27	595012 24817 116 542139 1.11 99.91 989 -2.42344 0.563527 -35.54948226496 110.32989046704
28	619829 27552 116 542139 1.11 99.91 989 -3.05019 0.605095 -34.207851259378 134.92793141843
29	647381 19973 116 542139 1.11 99.91 989 25.1258 30.56 26991.6946 737892.18703016
30	667354 23427 116 542139 1.11 99.91 989 36.6404 2732.93 1382848.1945 2523621122.6421
31	690781 22457 116 542139 1.11 99.91 989 242.45 242.45 239783.05 58135400.472499
32	713238 23369 117 542140 1.11 99.91 989 1.52879 180.071 90971.47377 11706299.058245
33	736607 20778 117 542140 1.11 99.91 989 -5.87299e-05 7.25552 2069.1312005513 5397.9517450684
34	757385 17512 117 542140 1.11 99.91 989 4 4 3956 15824
35	774897 21977 117 542140 1.11 99.91 989 -2.66052 1.49602 -25.562509214394 234.60631499225
36	796874 27569 117 542140 1.11 99.91 989 -3.05303 1.5 -24.557466616291 264.81981313652
37	824443 19827 117 542140 1.11 99.91 989 22.6281 30.56 27679.7564 776407.88127478
38	844270 23413 117 542140 1.11 99.91 989 30.6404 2795.69 1399376.2687 2606587895.7559
39	867683 22457 117 542140 1.11 99.91 989 242.45 245.75 241423.15 58936097.292499
40	890140 18985 118 542141 1.11 99.91 989 -1 51.3346 -425.33146 14360.818746756
41	909125 18575 118 542141 1.11 99.91 989 -4.2646e-05 1 5.00463031905 5.0000133141077
42	927700 17512 118 542141 1.11 99.91 989 5 5 4945 24725
43	945212 21625 118 542141 1.11 99.91 989 -2.60961 1.4252 4.4496860135864 85.326135678794
44	966837 27796 118 542141 1.11 99.91 989 -3.05304 1.5 4.7942295815464 150.43674220713
45	994633 19581 118 542141 1.11 99.91 989 27.9805 31.0987 30547.1063 943671.19493421
46	1014214 23420 118 542141 1.11 99.91 989 24.6404 3076.27 1528838.5733 3135395158.6402
47	1037634 22457 118 542141 1.11 99.91 989 242.45 249.05 243505.45 59957903.3525
48	1060091 22345 119 542142 1.11 99.91 989 -1 89.7782 41455.66755 2785966.3495371
49	1082436 21365 119 542142 1.11 99.91 989 -0.0410777 4.88736 842.57987872821 1533.5925661621
50	1103801 17512 119 542142 1.11 99.91 989 6 6 5934 35604
51	1121313 24835 119 542142 1.11 99.91 989 -2.61024 1.42019 -5.5551444339909 109.38480575196
52	1146148 27391 119 542142 1.11 99.91 989 -3.05304 1.5 -5.3925094765463 171.65361669613
53	1173539 20212 119 542142 1.11 99.91 989 27.0285 30.56 29641.4709 888573.04419601
54	1193751 23422 119 542142 1.11 99.91 989 18.6404 2979.76 1482617.4206 2946059300.222
55	1217173 22457 119 542142 1.11 99.91 989 242.45 249.05 242294.35 59365773.132499
56	1239630 22902 120 542143 1.11 99.91 989 -1 354.625 124490.19192 30147134.055544
57	1262532 19462 120 542143 1.11 99.91 989 -2.0248e-05 4.03849 2640.152756223 9648.7075085494
58	1281994 17512 120 542143 1.11 99.91 989 7 7 6923 48461
59	1299506 24228 120 542143 1.11 99.91 989 -1.46272 0.0652021 -35.561997267529 42.088448162325
60	1323734 27584 120 542143 1.11 99.91 989 -1.5 0.101256 -34.75417647588 49.231896899942
61	1351318 19788 120 542143 1.11 99.91 989 26.8987 30.56 27078.8597 742560.89683279
62	1371106 23431 120 542143 1.11 99.91 989 12.6404 2717.65 1366637.2286 2481126491.6588
63	1394537 22457 120 542143 1.11 99.91 989 242.45 252.35 244244.65 60324617.8325
64	1416994 40009 702 542209 1.21212246032 99.912117081324 988 0.099987440285 0.100007375161 98.79999506131 9.8799990405395
65	1457003 27272 702 542209 1.21212246032 99.912117081324 988 7 7 6916 48412
66	1484275 40027 837 542320 1.247587520362 99.94758360009 988 0.099987440285 0.100007386115 98.799996520034 9.8799993322952
67	1524302 27275 837 542320 1.247587520362 99.94758360009 988 6 6 5928 35568
68	1551577 40008 899 542394 1.262193620431 99.96220270064 988 0.099987440285 0.100007386357 98.799996520515 9.8799993324
69	1591585 27278 899 542394 1.262193620431 99.96220270064 988 1 1 988 988
70	1618863 40008 899 542394 1.262193620431 99.96220270064 988 0.099987440285 0.100007386357 98.799996520515 9.8799993324
71	1658871 27278 899 542394 1.262193620431 99.96220270064 988 1 1 988 988
72	1686149 39997 905 542382 1.262193640445 99.962202324569 988 0.099987440285 0.100007386469 98.79999612443 9.879999253183
73	1726146 27260 905 542382 1.262193640445 99.962202324569 988 2 2 1976 3952
74	1753406 40039 911 542406 1.262193660458 99.962203429019 988 0.099987440285 0.100007387061 98.799997208866 9.8799994700703
75	1793445 27282 911 542406 1.262193660458 99.962203429019 988 3 3 2964 8892
76	1820727 40038 917 542400 1.262193680472 99.962203219487 988 0.099987440285 0.100007386727 98.799996979321 9.8799994241612
77	1860765 27286 917 542400 1.262193680472 99.962203219487 988 4 4 3952 15808
78	1888051 40030 923 542376 1.262193700486 99.962202306523 988 0.099987440285 0.10000738597 98.799996046343 9.8799992375656
79	1928081 27283 923 542376 1.262193700486 99.962202306523 988 5 5 4940 24700
80	1955364 40011 929 542388 1.2621937205 99.962202605091 988 0.099987440285 0.100007386061 98.799996324897 9.8799992932765
81	1995375 27273 929 542388 1.2621937205 99.962202605091 988 6 6 5928 35568
82	2022648 40008 935 542412 1.262193740514 99.962203480051 988 0.099987440285 0.100007387061 98.799997179843 9.8799994642657
83	2062656 27262 935 542412 1.262193740514 99.962203480051 988 7 7 6916 48412
84	2089918 40007 972 542449 1.276565680472 99.976562638584 988 0.099987440282 0.100009645988 98.799997398417 9.8799995080905
85	2129925 27265 972 542449 1.276565680472 99.976562638584 988 4 4 3952 15808
86	2157190 40007 1039 542540 1.287856700486 99.987868751281 988 0.099987440285 0.100007391063 98.7999994911 9.8799999265352
87	2197197 27261 1039 542540 1.287856700486 99.987868751281 988 3 3 2964 8892
88	2224458 39968 1106 542601 1.297496740514 99.997496478624 988 0.099987440285 0.100007391731 98.800000178415 9.8800000639762
89	2264426 27253 1106 542601 1.297496740514 99.997496478624 988 5 5 4940 24700
90	2291679 39953 1173 542098 1.302586800556 99.902592871382 987 0.099020528482 0.100976561622 98.700006511131 9.8700032434524
91	2331632 27230 1173 542098 1.302586800556 99.902592871382 987 2 2 1974 3948
92	2358862 1459 4960 542615 2 100 99 0 0 0 0
93	2360321 2061 4960 542615 2 100 99 0.022161 0.027139400894 2.471390400894 0.061707244301885
94	2362382 1459 4960 542615 2 100 99 0 0 0 0
95	2363841 1459 4961 542616 2 100 99 1 1 99 99
96	2365300 2060 4961 542616 2 100 99 0.02216 0.026842280182 2.471092280182 0.061691160905369
97	2367360 1459 4961 542616 2 100 99 0 0 0 0
98	2368819 1459 4962 542617 2 100 99 2 2 198 396
99	2370278 2061 4962 542617 2 100 99 0.022161 0.026842120076 2.471093120076 0.061691196631174
100	2372339 1558 4962 542617 2 100 99 0 0 0 0
101	2373897 1558 4963 542618 2 100 99 3 3 297 891
102	2375455 2160 4963 542618 2 100 99 0.022161 0.026842320208 2.471093320208 0.061691207375149
103	2377615 1558 4963 542618 2 100 99 0 0 0 0
104	2379173 1558 4964 542619 2 100 99 4 4 396 1584
105	2380731 2160 4964 542619 2 100 99 0.022161 0.026902440284 2.471153440284 0.061694438514234
106	2382891 1558 4964 542619 2 100 99 0 0 0 0
107	2384449 1558 4965 542620 2 100 99 5 5 495 2475
108	2386007 2160 4965 542620 2 100 99 0.022161 0.026935440278 2.471186440278 0.06169621516397
109	2388167 1558 4965 542620 2 100 99 0 0 0 0
110	2389725 1558 4966 542621 2 100 99 6 6 594 3564
111	2391283 2160 4966 542621 2 100 99 0.022161 0.026842280182 2.471093280182 0.061691205226369
112	2393443 1558 4966 542621 2 100 99 0 0 0 0
113	2395001 1558 4967 542622 2 100 99 7 7 693 4851
114	2396559 2160 4967 542622 2 100 99 0.022161 0.026875360232 2.471126360232 0.0616929822086
115	2398719 1558 4967 542622 2 100 99 0 0 0 0

