version 3
run BreakRanksNoGui-25-20240708-17:38:40-154620
attr configname BreakRanksNoGui
attr datetime 20240708-17:38:40
attr datetimef 20240708-173840
attr experiment BreakRanksNoGui
attr inifile omnetpp.ini
attr iterationvars "$nCars=8, $platoonSize=8, $nLanes=1, $ploegH=0.5, $controller=1, $headway=0.1, $leaderHeadway=1.2, $leaderSpeed=110, $breakRanksSafetyDistance=2, $minSpeed=100, $maxSpeed=120, $beaconInterval=0.1, $priority=4, $packetSize=200, $sController=\"CACC\", $0=2, $1=0"
attr iterationvarsd nCars=8/platoonSize=8/nLanes=1/ploegH=0.5/controller=1/headway=0.1/leaderHeadway=1.2/leaderSpeed=110/breakRanksSafetyDistance=2/minSpeed=100/maxSpeed=120/beaconInterval=0.1/priority=4/packetSize=200/sController=CACC/2/0
attr iterationvarsf nCars=8,platoonSize=8,nLanes=1,ploegH=0.5,controller=1,headway=0.1,leaderHeadway=1.2,leaderSpeed=110,breakRanksSafetyDistance=2,minSpeed=100,maxSpeed=120,beaconInterval=0.1,priority=4,packetSize=200,sController=CACC,2,0-
attr measurement "$nCars=8, $platoonSize=8, $nLanes=1, $ploegH=0.5, $controller=1, $headway=0.1, $leaderHeadway=1.2, $leaderSpeed=110, $breakRanksSafetyDistance=2, $minSpeed=100, $maxSpeed=120, $beaconInterval=0.1, $priority=4, $packetSize=200, $sController=\"CACC\", $0=2, $1=0"
attr network Highway
attr processid 154620
attr repetition 5
attr replication #5
attr resultdir results
attr runnumber 25
attr seedset 5
itervar beaconInterval 0.1
itervar breakRanksSafetyDistance 2
itervar controller 1
itervar headway 0.1
itervar leaderHeadway 1.2
itervar leaderSpeed 110
itervar maxSpeed 120
itervar minSpeed 100
itervar nCars 8
itervar nLanes 1
itervar packetSize 200
itervar platoonSize 8
itervar ploegH 0.5
itervar priority 4
itervar sController "\"CACC\""
config image-path ../../../veins/images
config repeat 10
config extends BreakRanks
config *.manager.command "\"sumo\""
config *.manager.ignoreGuiCommands true
config output-vector-file results/BreakRanks_1_0.1_110_2/result_5.vec
config output-scalar-file results/BreakRanks_1_0.1_110_2/result_5.sca
config extends Platooning
config *.node[*].scenario_type "\"BreakRanksScenario\""
config *.manager.command "\"sumo-gui\""
config *.node[*].scenario_type "\"SimpleScenario\""
config cmdenv-express-mode true
config cmdenv-autoflush true
config cmdenv-status-frequency 15s
config num-rngs 6
config network Highway
config debug-on-errors true
config print-undisposed true
config *.playgroundSizeX 65000m
config *.playgroundSizeY 25000m
config *.playgroundSizeZ 50m
config sim-time-limit "100 s"
config *.annotations.draw false
config *.obstacles.debug false
config *.world.useTorus false
config *.world.use2D false
config *.manager.updateInterval 0.01s
config *.manager.host "\"localhost\""
config *.manager.moduleType "\"org.car2x.plexe.PlatoonCar\""
config *.manager.moduleName "\"node\""
config *.manager.moduleDisplayString "\"\""
config *.manager.autoShutdown true
config *.manager.margin 25
config *.connectionManager.sendDirect true
config *.connectionManager.maxInterfDist 2600m
config *.connectionManager.drawMaxIntfDist false
config *.**.nic.mac1609_4.useServiceChannel false
config *.**.nic.mac1609_4.txPower 100mW
config *.**.nic.mac1609_4.bitrate 6Mbps
config *.**.nic.mac1609_4.useAcks true
config *.**.nic.mac1609_4.ackErrorRate 0.0
config *.**.nic.mac1609_4.frameErrorRate 0.0
config *.**.nic.phy80211p.minPowerLevel -94dBm
config *.**.nic.phy80211p.maxTXPower 100mW
config *.**.nic.phy80211p.useNoiseFloor true
config *.**.nic.phy80211p.noiseFloor -95dBm
config *.**.nic.phy80211p.decider "xmldoc(\"config.xml\")"
config *.**.nic.phy80211p.analogueModels "xmldoc(\"config.xml\")"
config *.**.nic.phy80211p.usePropagationDelay true
config *.node[*].mobility.x 0
config *.node[*].mobility.y 0
config *.node[*].mobility.z 1.895
config seed-set 5
config **.seed 5
config *.node[*].prot.rng-0 2
config *.node[*].appl.rng-0 3
config *.node[*].scenario.rng-0 4
config **.traffic.rng-0 5
config *.manager.configFile "\"./sumocfg/freeway.sumo.cfg\""
config *.manager.launchConfig "xmldoc(\"./sumocfg/freeway.launchd.xml\")"
config **.numberOfCars 8
config **.numberOfCarsPerPlatoon 8
config **.numberOfLanes 1
config *.node[*].helper_type "\"PositionHelper\""
config *.node[*].scenario.caccC1 0.5
config *.node[*].scenario.caccXi 1
config *.node[*].scenario.caccOmegaN "0.2 Hz"
config *.node[*].scenario.caccSpacing "2 m"
config *.node[*].scenario.engineTau "0.5 s"
config *.node[*].scenario.ploegH 0.5s
config *.node[*].scenario.ploegKp 0.2
config *.node[*].scenario.ploegKd 0.7
config *.node[*].scenario.useRealisticEngine false
config *.node[*].scenario.useControllerAcceleration true
config *.node[*].scenario.nLanes 1
config **.numericController 1
config **.headway 0.1s
config *.node[*].scenario.accHeadway 0.1s
config *.node[*].scenario.leaderHeadway 1.2s
config *.node[*].scenario.leaderSpeed 110kmph
config *.node[*].appl_type "\"SimplePlatooningApp\""
config *.node[*].appl.*.scalar-recording true
config *.node[*].appl.*.vector-recording true
config *.node[0].appl.breakRanksSafetyDistance 2m
config *.node[*].appl.minSpeed 100kmph
config *.node[*].appl.maxSpeed 120kmph
config *.node[*].protocol_type "\"SimplePlatooningBeaconing\""
config *.node[*].prot.*.scalar-recording true
config *.node[*].prot.*.vector-recording true
config *.node[*].prot.beaconingInterval 0.1s
config *.node[*].prot.priority 4
config *.node[*].prot.packetSize 200
config **.traffic_type "\"PlatoonsTrafficManager\""
config **.traffic.platoonInsertTime "1 s"
config **.traffic.platoonInsertSpeed 110kmph
config **.traffic.nCars 8
config **.traffic.platoonSize 8
config **.traffic.nLanes 1
config **.traffic.platooningVType "\"vtypeauto\""
config **.traffic.controller "\"CACC\""
config **.traffic.platoonInsertDistance 2m
config **.traffic.platoonInsertHeadway 0s
config **.traffic.platoonLeaderHeadway 1.2s
config **.scalar-recording false
config **.vector-recording false
config output-vector-file results/BreakRanksNoGui_1_0.1_110_2/result_5.vec
config output-scalar-file results/BreakRanksNoGui_1_0.1_110_2/result_5.sca

vector 0 Highway.node[0].appl distance ETV
vector 1 Highway.node[0].appl relativeSpeed ETV
vector 2 Highway.node[0].appl nodeId ETV
vector 3 Highway.node[0].appl acceleration ETV
vector 4 Highway.node[0].appl controllerAcceleration ETV
vector 5 Highway.node[0].appl speed ETV
vector 6 Highway.node[0].appl posx ETV
vector 7 Highway.node[0].appl posy ETV
vector 8 Highway.node[1].appl distance ETV
vector 9 Highway.node[1].appl relativeSpeed ETV
vector 10 Highway.node[1].appl nodeId ETV
vector 11 Highway.node[1].appl acceleration ETV
vector 12 Highway.node[1].appl controllerAcceleration ETV
vector 13 Highway.node[1].appl speed ETV
vector 14 Highway.node[1].appl posx ETV
vector 15 Highway.node[1].appl posy ETV
vector 16 Highway.node[2].appl distance ETV
vector 17 Highway.node[2].appl relativeSpeed ETV
vector 18 Highway.node[2].appl nodeId ETV
vector 19 Highway.node[2].appl acceleration ETV
vector 20 Highway.node[2].appl controllerAcceleration ETV
vector 21 Highway.node[2].appl speed ETV
vector 22 Highway.node[2].appl posx ETV
vector 23 Highway.node[2].appl posy ETV
vector 24 Highway.node[3].appl distance ETV
vector 25 Highway.node[3].appl relativeSpeed ETV
vector 26 Highway.node[3].appl nodeId ETV
vector 27 Highway.node[3].appl acceleration ETV
vector 28 Highway.node[3].appl controllerAcceleration ETV
vector 29 Highway.node[3].appl speed ETV
vector 30 Highway.node[3].appl posx ETV
vector 31 Highway.node[3].appl posy ETV
vector 32 Highway.node[4].appl distance ETV
vector 33 Highway.node[4].appl relativeSpeed ETV
vector 34 Highway.node[4].appl nodeId ETV
vector 35 Highway.node[4].appl acceleration ETV
vector 36 Highway.node[4].appl controllerAcceleration ETV
vector 37 Highway.node[4].appl speed ETV
vector 38 Highway.node[4].appl posx ETV
vector 39 Highway.node[4].appl posy ETV
vector 40 Highway.node[5].appl distance ETV
vector 41 Highway.node[5].appl relativeSpeed ETV
vector 42 Highway.node[5].appl nodeId ETV
vector 43 Highway.node[5].appl acceleration ETV
vector 44 Highway.node[5].appl controllerAcceleration ETV
vector 45 Highway.node[5].appl speed ETV
vector 46 Highway.node[5].appl posx ETV
vector 47 Highway.node[5].appl posy ETV
vector 48 Highway.node[6].appl distance ETV
vector 49 Highway.node[6].appl relativeSpeed ETV
vector 50 Highway.node[6].appl nodeId ETV
vector 51 Highway.node[6].appl acceleration ETV
vector 52 Highway.node[6].appl controllerAcceleration ETV
vector 53 Highway.node[6].appl speed ETV
vector 54 Highway.node[6].appl posx ETV
vector 55 Highway.node[6].appl posy ETV
vector 56 Highway.node[7].appl distance ETV
vector 57 Highway.node[7].appl relativeSpeed ETV
vector 58 Highway.node[7].appl nodeId ETV
vector 59 Highway.node[7].appl acceleration ETV
vector 60 Highway.node[7].appl controllerAcceleration ETV
vector 61 Highway.node[7].appl speed ETV
vector 62 Highway.node[7].appl posx ETV
vector 63 Highway.node[7].appl posy ETV
vector 64 Highway.node[2].prot frontDelay ETV
vector 65 Highway.node[2].prot frontDelayId ETV
vector 66 Highway.node[6].prot frontDelay ETV
vector 67 Highway.node[6].prot frontDelayId ETV
vector 68 Highway.node[3].prot frontDelay ETV
vector 69 Highway.node[3].prot frontDelayId ETV
vector 70 Highway.node[4].prot frontDelay ETV
vector 71 Highway.node[4].prot frontDelayId ETV
vector 72 Highway.node[5].prot frontDelay ETV
vector 73 Highway.node[5].prot frontDelayId ETV
vector 74 Highway.node[1].prot leaderDelay ETV
vector 75 Highway.node[1].prot leaderDelayId ETV
vector 76 Highway.node[1].prot frontDelay ETV
vector 77 Highway.node[1].prot frontDelayId ETV
vector 78 Highway.node[2].prot leaderDelay ETV
vector 79 Highway.node[2].prot leaderDelayId ETV
vector 80 Highway.node[3].prot leaderDelay ETV
vector 81 Highway.node[3].prot leaderDelayId ETV
vector 82 Highway.node[4].prot leaderDelay ETV
vector 83 Highway.node[4].prot leaderDelayId ETV
vector 84 Highway.node[5].prot leaderDelay ETV
vector 85 Highway.node[5].prot leaderDelayId ETV
vector 86 Highway.node[6].prot leaderDelay ETV
vector 87 Highway.node[6].prot leaderDelayId ETV
vector 88 Highway.node[7].prot leaderDelay ETV
vector 89 Highway.node[7].prot leaderDelayId ETV
vector 90 Highway.node[7].prot frontDelay ETV
vector 91 Highway.node[7].prot frontDelayId ETV
vector 92 Highway.node[0].prot nodeId ETV
vector 93 Highway.node[0].prot busyTime ETV
vector 94 Highway.node[0].prot collisions ETV
vector 95 Highway.node[1].prot nodeId ETV
vector 96 Highway.node[1].prot busyTime ETV
vector 97 Highway.node[1].prot collisions ETV
vector 98 Highway.node[2].prot nodeId ETV
vector 99 Highway.node[2].prot busyTime ETV
vector 100 Highway.node[2].prot collisions ETV
vector 101 Highway.node[3].prot nodeId ETV
vector 102 Highway.node[3].prot busyTime ETV
vector 103 Highway.node[3].prot collisions ETV
vector 104 Highway.node[4].prot nodeId ETV
vector 105 Highway.node[4].prot busyTime ETV
vector 106 Highway.node[4].prot collisions ETV
vector 107 Highway.node[5].prot nodeId ETV
vector 108 Highway.node[5].prot busyTime ETV
vector 109 Highway.node[5].prot collisions ETV
vector 110 Highway.node[6].prot nodeId ETV
vector 111 Highway.node[6].prot busyTime ETV
vector 112 Highway.node[6].prot collisions ETV
vector 113 Highway.node[7].prot nodeId ETV
vector 114 Highway.node[7].prot busyTime ETV
vector 115 Highway.node[7].prot collisions ETV
0	113	1.11	-1
0	659	1.21	-1
0	1205	1.31	-1
0	1751	1.41	-1
0	2297	1.51	-1
0	2843	1.61	-1
0	3389	1.71	-1
0	3935	1.81	-1
0	4481	1.91	-1
0	5035	2.01	-1
0	5581	2.11	-1
0	6127	2.21	-1
0	6673	2.31	-1
0	7219	2.41	-1
0	7765	2.51	-1
0	8311	2.61	-1
0	8857	2.71	-1
0	9403	2.81	-1
0	9949	2.91	-1
0	10503	3.01	-1
0	11049	3.11	-1
0	11595	3.21	-1
0	12141	3.31	-1
0	12687	3.41	-1
0	13233	3.51	-1
0	13779	3.61	-1
0	14325	3.71	-1
0	14871	3.81	-1
0	15417	3.91	-1
0	15971	4.01	-1
0	16517	4.11	-1
0	17063	4.21	-1
0	17609	4.31	-1
0	18155	4.41	-1
0	18701	4.51	-1
0	19247	4.61	-1
0	19793	4.71	-1
0	20339	4.81	-1
0	20885	4.91	-1
0	21439	5.01	-1
0	21985	5.11	-1
0	22531	5.21	-1
0	23077	5.31	-1
0	23623	5.41	-1
0	24169	5.51	-1
0	24715	5.61	-1
0	25261	5.71	-1
0	25807	5.81	-1
0	26353	5.91	-1
0	26907	6.01	-1
0	27453	6.11	-1
0	27999	6.21	-1
0	28545	6.31	-1
0	29091	6.41	-1
0	29637	6.51	-1
0	30183	6.61	-1
0	30729	6.71	-1
0	31275	6.81	-1
0	31821	6.91	-1
0	32375	7.01	-1
0	32921	7.11	-1
0	33467	7.21	-1
0	34013	7.31	-1
0	34559	7.41	-1
0	35105	7.51	-1
0	35651	7.61	-1
0	36197	7.71	-1
0	36743	7.81	-1
0	37289	7.91	-1
0	37843	8.01	-1
0	38389	8.11	-1
0	38935	8.21	-1
0	39481	8.31	-1
0	40027	8.41	-1
0	40573	8.51	-1
0	41119	8.61	-1
0	41665	8.71	-1
0	42211	8.81	-1
0	42757	8.91	-1
0	43311	9.01	-1
0	43857	9.11	-1
0	44403	9.21	-1
0	44949	9.31	-1
0	45495	9.41	-1
0	46041	9.51	-1
0	46587	9.61	-1
0	47133	9.71	-1
0	47679	9.81	-1
0	48225	9.91	-1
0	50724	10.01	-1
0	51270	10.11	-1
0	51816	10.21	-1
0	52362	10.31	-1
0	52908	10.41	-1
0	53454	10.51	-1
0	54000	10.61	-1
0	54546	10.71	-1
0	55092	10.81	-1
0	55638	10.91	-1
0	56192	11.01	-1
0	56738	11.11	-1
0	57284	11.21	-1
0	57830	11.31	-1
0	58376	11.41	-1
0	58922	11.51	-1
0	59468	11.61	-1
0	60014	11.71	-1
0	60560	11.81	-1
0	61106	11.91	-1
0	61660	12.01	-1
0	62206	12.11	-1
0	62752	12.21	-1
0	63298	12.31	-1
0	63844	12.41	-1
0	64390	12.51	-1
0	64936	12.61	-1
0	65482	12.71	-1
0	66028	12.81	-1
0	66574	12.91	-1
0	67128	13.01	-1
0	67674	13.11	-1
0	68220	13.21	-1
0	68766	13.31	-1
0	69312	13.41	-1
0	69858	13.51	-1
0	70404	13.61	-1
0	70950	13.71	-1
0	71496	13.81	-1
0	72042	13.91	-1
0	72596	14.01	-1
0	73142	14.11	-1
0	73688	14.21	-1
0	74234	14.31	-1
0	74780	14.41	-1
0	75326	14.51	-1
0	75872	14.61	-1
0	76418	14.71	-1
0	76964	14.81	-1
0	77510	14.91	-1
0	78064	15.01	-1
0	78610	15.11	-1
0	79156	15.21	-1
0	79702	15.31	-1
0	80248	15.41	-1
0	80794	15.51	-1
0	81340	15.61	-1
0	81886	15.71	-1
0	82432	15.81	-1
0	82978	15.91	-1
0	83532	16.01	-1
0	84078	16.11	-1
0	84624	16.21	-1
0	85170	16.31	-1
0	85716	16.41	-1
0	86262	16.51	-1
0	86808	16.61	-1
0	87354	16.71	-1
0	87900	16.81	-1
0	88446	16.91	-1
0	89000	17.01	-1
0	89546	17.11	-1
0	90092	17.21	-1
0	90638	17.31	-1
0	91184	17.41	-1
0	91730	17.51	-1
0	92276	17.61	-1
0	92822	17.71	-1
0	93368	17.81	-1
0	93914	17.91	-1
0	94468	18.01	-1
0	95014	18.11	-1
0	95560	18.21	-1
0	96106	18.31	-1
0	96652	18.41	-1
0	97198	18.51	-1
0	97744	18.61	-1
0	98290	18.71	-1
0	98836	18.81	-1
0	99382	18.91	-1
0	99936	19.01	-1
0	100482	19.11	-1
0	101028	19.21	-1
0	101574	19.31	-1
0	102120	19.41	-1
0	102666	19.51	-1
0	103212	19.61	-1
0	103758	19.71	-1
0	104304	19.81	-1
0	104850	19.91	-1
0	105404	20.01	-1
0	105950	20.11	-1
0	106496	20.21	-1
0	107042	20.31	-1
0	107588	20.41	-1
0	108134	20.51	-1
0	108680	20.61	-1
0	109226	20.71	-1
0	109772	20.81	-1
0	110318	20.91	-1
0	110872	21.01	-1
0	111418	21.11	-1
0	111964	21.21	-1
0	112510	21.31	-1
0	113056	21.41	-1
0	113602	21.51	-1
0	114148	21.61	-1
0	114694	21.71	-1
0	115240	21.81	-1
0	115786	21.91	-1
0	116340	22.01	-1
0	116886	22.11	-1
0	117432	22.21	-1
0	117978	22.31	-1
0	118524	22.41	-1
0	119070	22.51	-1
0	119616	22.61	-1
0	120162	22.71	-1
0	120708	22.81	-1
0	121254	22.91	-1
0	121808	23.01	-1
0	122354	23.11	-1
0	122900	23.21	-1
0	123446	23.31	-1
0	123992	23.41	-1
0	124538	23.51	-1
0	125084	23.61	-1
0	125630	23.71	-1
0	126176	23.81	-1
0	126722	23.91	-1
0	127276	24.01	-1
0	127822	24.11	-1
0	128368	24.21	-1
0	128914	24.31	-1
0	129460	24.41	-1
0	130006	24.51	-1
0	130552	24.61	-1
0	131098	24.71	-1
0	131644	24.81	-1
0	132190	24.91	-1
0	132744	25.01	-1
0	133290	25.11	-1
0	133836	25.21	-1
0	134382	25.31	-1
0	134928	25.41	-1
0	135474	25.51	-1
0	136020	25.61	-1
0	136566	25.71	-1
0	137112	25.81	-1
0	137658	25.91	-1
0	138212	26.01	-1
0	138758	26.11	-1
0	139304	26.21	-1
0	139850	26.31	-1
0	140396	26.41	-1
0	140942	26.51	-1
0	141488	26.61	-1
0	142034	26.71	-1
0	142580	26.81	-1
0	143126	26.91	-1
0	143680	27.01	-1
0	144226	27.11	-1
0	144772	27.21	-1
0	145318	27.31	-1
0	145864	27.41	-1
0	146410	27.51	-1
0	146956	27.61	-1
0	147502	27.71	-1
0	148048	27.81	-1
0	148594	27.91	-1
0	149148	28.01	-1
0	149694	28.11	-1
0	150240	28.21	-1
0	150786	28.31	-1
0	151332	28.41	-1
0	151878	28.51	-1
0	152424	28.61	-1
0	152970	28.71	-1
0	153516	28.81	-1
0	154062	28.91	-1
0	154616	29.01	-1
0	155162	29.11	-1
0	155708	29.21	-1
0	156254	29.31	-1
0	156800	29.41	-1
0	157346	29.51	-1
0	157892	29.61	-1
0	158438	29.71	-1
0	158984	29.81	-1
0	159530	29.91	-1
0	160084	30.01	-1
0	160630	30.11	-1
0	161176	30.21	-1
0	161722	30.31	-1
0	162268	30.41	-1
0	162814	30.51	-1
0	163360	30.61	-1
0	163906	30.71	-1
0	164452	30.81	-1
0	164998	30.91	-1
0	165552	31.01	-1
0	166098	31.11	-1
0	166644	31.21	-1
0	167190	31.31	-1
0	167736	31.41	-1
0	168282	31.51	-1
0	168828	31.61	-1
0	169374	31.71	-1
0	169920	31.81	-1
0	170466	31.91	-1
0	171020	32.01	-1
0	171566	32.11	-1
0	172112	32.21	-1
0	172658	32.31	-1
0	173204	32.41	-1
0	173750	32.51	-1
0	174296	32.61	-1
0	174842	32.71	-1
0	175388	32.81	-1
0	175934	32.91	-1
0	176488	33.01	-1
0	177034	33.11	-1
0	177580	33.21	-1
0	178126	33.31	-1
0	178672	33.41	-1
0	179218	33.51	-1
0	179764	33.61	-1
0	180310	33.71	-1
0	180856	33.81	-1
0	181402	33.91	-1
0	181956	34.01	-1
0	182502	34.11	-1
0	183048	34.21	-1
0	183594	34.31	-1
0	184140	34.41	-1
0	184686	34.51	-1
0	185232	34.61	-1
0	185778	34.71	-1
0	186324	34.81	-1
0	186870	34.91	-1
0	187424	35.01	-1
0	187970	35.11	-1
0	188516	35.21	-1
0	189062	35.31	-1
0	189608	35.41	-1
0	190154	35.51	-1
0	190700	35.61	-1
0	191246	35.71	25.6396
0	191792	35.81	25.784
0	192338	35.91	25.9285
0	192892	36.01	26.0729
0	193438	36.11	26.2173
0	193984	36.21	26.3618
0	194530	36.31	26.5062
0	195076	36.41	26.6507
0	195622	36.51	26.7951
0	196168	36.61	26.9395
0	196714	36.71	27.084
0	197260	36.81	27.2284
0	197806	36.91	27.3729
0	198360	37.01	27.5173
0	198906	37.11	27.6617
0	199452	37.21	27.8062
0	199998	37.31	27.9506
0	200544	37.41	28.0951
0	201090	37.51	28.2395
0	201636	37.61	28.3839
0	202182	37.71	28.5284
0	202728	37.81	28.6728
0	203274	37.91	28.8173
0	203828	38.01	28.9617
0	204374	38.11	29.1061
0	204920	38.21	29.2506
0	205466	38.31	29.395
0	206012	38.41	29.5395
0	206558	38.51	29.6839
0	207104	38.61	29.8283
0	207650	38.71	29.9728
0	208196	38.81	30.1172
0	208742	38.91	30.2617
0	209296	39.01	30.4061
0	209842	39.11	30.5505
0	210388	39.21	30.695
0	210934	39.31	30.8394
0	211480	39.41	30.9839
0	212026	39.51	31.1283
0	212572	39.61	31.2727
0	213118	39.71	31.4172
0	213664	39.81	31.5616
0	214210	39.91	31.7061
0	214764	40.01	31.8505
0	215310	40.11	31.9949
0	215856	40.21	32.1394
0	216402	40.31	32.2838
0	216948	40.41	32.4283
0	217494	40.51	32.5727
0	218040	40.61	32.7171
0	218586	40.71	32.8616
0	219132	40.81	33.006
0	219678	40.91	33.1505
0	220232	41.01	33.2949
0	220778	41.11	33.4393
0	221324	41.21	33.5838
0	221870	41.31	33.7282
0	222416	41.41	33.8727
0	222962	41.51	34.0171
0	223508	41.61	34.1615
0	224054	41.71	34.306
0	224600	41.81	34.4504
0	225146	41.91	34.5949
0	225700	42.01	34.7393
0	226246	42.11	34.8837
0	226792	42.21	35.0282
0	227338	42.31	35.1726
0	227884	42.41	35.3171
0	228430	42.51	35.4615
0	228976	42.61	35.6059
0	229522	42.71	35.7504
0	230068	42.81	35.8948
0	230614	42.91	36.0393
0	231168	43.01	36.1837
0	231714	43.11	36.3281
0	232260	43.21	36.4726
0	232806	43.31	36.617
0	233352	43.41	36.7615
0	233898	43.51	36.9059
0	234444	43.61	37.0503
0	234990	43.71	37.1948
0	235536	43.81	37.3392
0	236082	43.91	37.4837
0	236636	44.01	37.6281
0	237182	44.11	37.7725
0	237728	44.21	37.917
0	238274	44.31	38.0614
0	238820	44.41	38.2059
0	239366	44.51	38.3503
0	239912	44.61	38.4947
0	240458	44.71	38.6392
0	241004	44.81	38.7836
0	241550	44.91	38.9281
0	242104	45.01	39.0725
0	242650	45.11	39.2169
0	243196	45.21	39.3614
0	243742	45.31	39.5058
0	244288	45.41	39.6503
0	244834	45.51	39.7947
0	245380	45.61	39.9391
0	245926	45.71	40.0836
0	246472	45.81	40.228
0	247018	45.91	40.3725
0	247572	46.01	40.5169
0	248118	46.11	40.6613
0	248664	46.21	40.8058
0	249210	46.31	40.9502
0	249756	46.41	41.0947
0	250302	46.51	41.2391
0	250848	46.61	41.3835
0	251394	46.71	41.528
0	251940	46.81	41.6724
0	252486	46.91	41.8169
0	253040	47.01	41.9613
0	253586	47.11	42.1057
0	254132	47.21	42.2502
0	254678	47.31	42.3946
0	255224	47.41	42.5391
0	255770	47.51	42.6835
0	256316	47.61	42.8279
0	256862	47.71	42.9724
0	257408	47.81	43.1168
0	257954	47.91	43.2613
0	258508	48.01	43.4057
0	259054	48.11	43.5501
0	259600	48.21	43.6946
0	260146	48.31	43.839
0	260692	48.41	43.9835
0	261238	48.51	44.1279
0	261784	48.61	44.2723
0	262330	48.71	44.4168
0	262876	48.81	44.5612
0	263422	48.91	44.7057
0	263976	49.01	44.8501
0	264522	49.11	44.9945
0	265068	49.21	45.139
0	265614	49.31	45.2834
0	266160	49.41	45.4279
0	266706	49.51	45.5723
0	267252	49.61	45.7167
0	267798	49.71	45.8612
0	268344	49.81	46.0056
0	268890	49.91	46.1501
0	269444	50.01	46.2945
0	269990	50.11	46.4389
0	270536	50.21	46.5834
0	271082	50.31	46.7278
0	271628	50.41	46.8723
0	272174	50.51	47.0167
0	272720	50.61	47.1611
0	273266	50.71	47.3056
0	273812	50.81	47.45
0	274358	50.91	47.5945
0	274912	51.01	47.7389
0	275458	51.11	47.8833
0	276004	51.21	48.0278
0	276550	51.31	48.1722
0	277096	51.41	48.3167
0	277642	51.51	48.4611
0	278188	51.61	48.6055
0	278734	51.71	48.75
0	279280	51.81	48.8944
0	279826	51.91	49.0389
0	280380	52.01	49.1833
0	280926	52.11	49.3277
0	281472	52.21	49.4722
0	282018	52.31	49.6166
0	282564	52.41	49.7611
0	283110	52.51	49.9055
0	283656	52.61	50.0499
0	284202	52.71	50.1944
0	284748	52.81	50.3388
0	285294	52.91	50.4833
0	285848	53.01	50.6277
0	286394	53.11	50.7721
0	286940	53.21	50.9166
0	287486	53.31	51.061
0	288032	53.41	51.2055
0	288578	53.51	51.3499
0	289124	53.61	51.4943
0	289670	53.71	51.6388
0	290216	53.81	51.7832
0	290762	53.91	51.9277
0	291316	54.01	52.0721
0	291862	54.11	52.2165
0	292408	54.21	52.361
0	292954	54.31	52.5054
0	293500	54.41	52.6499
0	294046	54.51	52.7943
0	294592	54.61	52.9387
0	295138	54.71	53.0832
0	295684	54.81	53.2276
0	296230	54.91	53.3721
0	296784	55.01	53.5165
0	297330	55.11	53.6609
0	297876	55.21	53.8054
0	298422	55.31	53.9498
0	298968	55.41	54.0943
0	299514	55.51	54.2387
0	300060	55.61	54.3831
0	300606	55.71	54.5276
0	301152	55.81	54.672
0	301698	55.91	54.8165
0	302252	56.01	54.9609
0	302798	56.11	55.1053
0	303344	56.21	55.2498
0	303890	56.31	55.3942
0	304436	56.41	55.5387
0	304982	56.51	55.6831
0	305528	56.61	55.8275
0	306074	56.71	55.972
0	306620	56.81	56.1164
0	307166	56.91	56.2609
0	307720	57.01	56.4053
0	308266	57.11	56.5497
0	308812	57.21	56.6942
0	309358	57.31	56.8386
0	309904	57.41	56.9831
0	310450	57.51	57.1275
0	310996	57.61	57.2719
0	311542	57.71	57.4164
0	312088	57.81	57.5608
0	312634	57.91	57.7053
0	313188	58.01	57.8497
0	313734	58.11	57.9941
0	314280	58.21	58.1386
0	314826	58.31	58.283
0	315372	58.41	58.4275
0	315918	58.51	58.5719
0	316464	58.61	58.7163
0	317010	58.71	58.8608
0	317556	58.81	59.0052
0	318102	58.91	59.1497
0	318656	59.01	59.2941
0	319202	59.11	59.4385
0	319748	59.21	59.583
0	320294	59.31	59.7274
0	320840	59.41	59.8719
0	321386	59.51	60.0163
0	321932	59.61	60.1607
0	322478	59.71	60.3052
0	323024	59.81	60.4496
0	323570	59.91	60.5941
0	324124	60.01	60.7385
0	324670	60.11	60.8829
0	325216	60.21	61.0274
0	325762	60.31	61.1718
0	326308	60.41	61.3163
0	326854	60.51	61.4607
0	327400	60.61	61.6051
0	327946	60.71	61.7496
0	328492	60.81	61.894
0	329038	60.91	62.0385
0	329592	61.01	62.1829
0	330138	61.11	62.3273
0	330684	61.21	62.4718
0	331230	61.31	62.6162
0	331776	61.41	62.7607
0	332322	61.51	62.9051
0	332868	61.61	63.0495
0	333414	61.71	63.194
0	333960	61.81	63.3384
0	334506	61.91	63.4829
0	335060	62.01	63.6273
0	335606	62.11	63.7717
0	336152	62.21	63.9162
0	336698	62.31	64.0606
0	337244	62.41	64.2051
0	337790	62.51	64.3495
0	338336	62.61	64.4939
0	338882	62.71	64.6384
0	339428	62.81	64.7828
0	339974	62.91	64.9273
0	340528	63.01	65.0717
0	341074	63.11	65.2161
0	341620	63.21	65.3606
0	342166	63.31	65.505
0	342712	63.41	65.6495
0	343258	63.51	65.7939
0	343804	63.61	65.9383
0	344350	63.71	66.0828
0	344896	63.81	66.2272
0	345442	63.91	66.3717
0	345996	64.01	66.5161
0	346542	64.11	66.6605
0	347088	64.21	66.805
0	347634	64.31	66.9494
0	348180	64.41	67.0939
0	348726	64.51	67.2383
0	349272	64.61	67.3827
0	349818	64.71	67.5272
0	350364	64.81	67.6716
0	350910	64.91	67.8161
0	351464	65.01	67.9605
0	352010	65.11	68.1049
0	352556	65.21	68.2494
0	353102	65.31	68.3938
0	353648	65.41	68.5383
0	354194	65.51	68.6827
0	354740	65.61	68.8271
0	355286	65.71	68.9716
0	355832	65.81	69.116
0	356378	65.91	69.2605
0	356932	66.01	69.4049
0	357478	66.11	69.5493
0	358024	66.21	69.6938
0	358570	66.31	69.8382
0	359116	66.41	69.9827
0	359662	66.51	70.1271
0	360208	66.61	70.2715
0	360754	66.71	70.416
0	361300	66.81	70.5604
0	361846	66.91	70.7049
0	362400	67.01	70.8493
0	362946	67.11	70.9937
0	363492	67.21	71.1382
0	364038	67.31	71.2826
0	364584	67.41	71.4271
0	365130	67.51	71.5715
0	365676	67.61	71.7159
0	366222	67.71	71.8604
0	366768	67.81	72.0048
0	367314	67.91	72.1493
0	367868	68.01	72.2937
0	368414	68.11	72.4381
0	368960	68.21	72.5826
0	369506	68.31	72.727
0	370052	68.41	72.8715
0	370598	68.51	73.0159
0	371144	68.61	73.1603
0	371690	68.71	73.3048
0	372236	68.81	73.4492
0	372782	68.91	73.5937
0	373336	69.01	73.7381
0	373882	69.11	73.8825
0	374428	69.21	74.027
0	374974	69.31	74.1714
0	375520	69.41	74.3159
0	376066	69.51	74.4603
0	376612	69.61	74.6047
0	377158	69.71	74.7492
0	377704	69.81	74.8936
0	378250	69.91	75.0381
0	378804	70.01	75.1825
0	379350	70.11	75.3269
0	379896	70.21	75.4714
0	380442	70.31	75.6158
0	380988	70.41	75.7603
0	381534	70.51	75.9047
0	382080	70.61	76.0491
0	382626	70.71	76.1936
0	383172	70.81	76.338
0	383718	70.91	76.4825
0	384272	71.01	76.6269
0	384818	71.11	76.7713
0	385364	71.21	76.9158
0	385910	71.31	77.0602
0	386456	71.41	77.2047
0	387002	71.51	77.3491
0	387548	71.61	77.4935
0	388094	71.71	77.638
0	388640	71.81	77.7824
0	389186	71.91	77.9269
0	389740	72.01	78.0713
0	390286	72.11	78.2157
0	390832	72.21	78.3602
0	391378	72.31	78.5046
0	391924	72.41	78.6491
0	392470	72.51	78.7935
0	393016	72.61	78.9379
0	393562	72.71	79.0824
0	394108	72.81	79.2268
0	394654	72.91	79.3713
0	395208	73.01	79.5157
0	395754	73.11	79.6601
0	396300	73.21	79.8046
0	396846	73.31	79.949
0	397392	73.41	80.0935
0	397938	73.51	80.2379
0	398484	73.61	80.3823
0	399030	73.71	80.5268
0	399576	73.81	80.6712
0	400122	73.91	80.8157
0	400676	74.01	80.9601
0	401222	74.11	81.1045
0	401768	74.21	81.249
0	402314	74.31	81.3934
0	402860	74.41	81.5379
0	403406	74.51	81.6823
0	403952	74.61	81.8267
0	404498	74.71	81.9712
0	405044	74.81	82.1156
0	405590	74.91	82.2601
0	406144	75.01	82.4045
0	406690	75.11	82.5489
0	407236	75.21	82.6934
0	407782	75.31	82.8378
0	408328	75.41	82.9823
0	408874	75.51	83.1267
0	409420	75.61	83.2711
0	409966	75.71	83.4156
0	410512	75.81	83.56
0	411058	75.91	83.7045
0	411612	76.01	83.8489
0	412158	76.11	83.9933
0	412704	76.21	84.1378
0	413250	76.31	84.2822
0	413796	76.41	84.4267
0	414342	76.51	84.5711
0	414888	76.61	84.7155
0	415434	76.71	84.86
0	415980	76.81	85.0044
0	416526	76.91	85.1489
0	417080	77.01	85.2933
0	417626	77.11	85.4377
0	418172	77.21	85.5822
0	418718	77.31	85.7266
0	419264	77.41	85.8711
0	419810	77.51	86.0155
0	420356	77.61	86.1599
0	420902	77.71	86.3044
0	421448	77.81	86.4488
0	421994	77.91	86.5933
0	422548	78.01	86.7377
0	423094	78.11	86.8821
0	423640	78.21	87.0266
0	424186	78.31	87.171
0	424732	78.41	87.3155
0	425278	78.51	87.4599
0	425824	78.61	87.6043
0	426370	78.71	87.7488
0	426916	78.81	87.8932
0	427462	78.91	88.0377
0	428016	79.01	88.1821
0	428562	79.11	88.3265
0	429108	79.21	88.471
0	429654	79.31	88.6154
0	430200	79.41	88.7599
0	430746	79.51	88.9043
0	431292	79.61	89.0487
0	431838	79.71	89.1932
0	432384	79.81	89.3376
0	432930	79.91	89.4821
0	433484	80.01	89.6265
0	434030	80.11	89.7709
0	434576	80.21	89.9154
0	435122	80.31	90.0598
0	435668	80.41	90.2043
0	436214	80.51	90.3487
0	436760	80.61	90.4931
0	437306	80.71	90.6376
0	437852	80.81	90.782
0	438398	80.91	90.9265
0	438952	81.01	91.0709
0	439498	81.11	91.2153
0	440044	81.21	91.3598
0	440590	81.31	91.5042
0	441136	81.41	91.6487
0	441682	81.51	91.7931
0	442228	81.61	91.9375
0	442774	81.71	92.082
0	443320	81.81	92.2264
0	443866	81.91	92.3709
0	444420	82.01	92.5153
0	444966	82.11	92.6597
0	445512	82.21	92.8042
0	446058	82.31	92.9486
0	446604	82.41	93.0931
0	447150	82.51	93.2375
0	447696	82.61	93.3819
0	448242	82.71	93.5264
0	448788	82.81	93.6708
0	449334	82.91	93.8153
0	449888	83.01	93.9597
0	450434	83.11	94.1041
0	450980	83.21	94.2486
0	451526	83.31	94.393
0	452072	83.41	94.5375
0	452618	83.51	94.6819
0	453164	83.61	94.8263
0	453710	83.71	94.9708
0	454256	83.81	95.1152
0	454802	83.91	95.2597
0	455356	84.01	95.4041
0	455902	84.11	95.5485
0	456448	84.21	95.693
0	456994	84.31	95.8374
0	457540	84.41	95.9819
0	458086	84.51	96.1263
0	458632	84.61	96.2707
0	459178	84.71	96.4152
0	459724	84.81	96.5596
0	460270	84.91	96.7041
0	460824	85.01	96.8485
0	461370	85.11	96.9929
0	461916	85.21	97.1374
0	462462	85.31	97.2818
0	463008	85.41	97.4263
0	463554	85.51	97.5707
0	464100	85.61	97.7151
0	464646	85.71	97.8596
0	465192	85.81	98.004
0	465738	85.91	98.1485
0	466292	86.01	98.2929
0	466838	86.11	98.4373
0	467384	86.21	98.5818
0	467930	86.31	98.7262
0	468476	86.41	98.8707
0	469022	86.51	99.0151
0	469568	86.61	99.1595
0	470114	86.71	99.304
0	470660	86.81	99.4484
0	471206	86.91	99.5929
0	471760	87.01	99.7373
0	472306	87.11	99.8817
0	472852	87.21	100.026
0	473398	87.31	100.171
0	473944	87.41	100.315
0	474490	87.51	100.46
0	475036	87.61	100.604
0	475582	87.71	100.748
0	476128	87.81	100.893
0	476674	87.91	101.037
0	477228	88.01	101.182
0	477774	88.11	101.326
0	478320	88.21	101.471
0	478866	88.31	101.615
0	479412	88.41	101.759
0	479958	88.51	101.904
0	480504	88.61	102.048
0	481050	88.71	102.193
0	481596	88.81	102.337
0	482142	88.91	102.482
0	482696	89.01	102.626
0	483242	89.11	102.771
0	483788	89.21	102.915
0	484334	89.31	103.059
0	484880	89.41	103.204
0	485426	89.51	103.348
0	485972	89.61	103.493
0	486518	89.71	103.637
0	487064	89.81	103.782
0	487610	89.91	103.926
0	488164	90.01	104.071
0	488710	90.11	104.215
0	489256	90.21	104.359
0	489802	90.31	104.504
0	490348	90.41	104.648
0	490894	90.51	104.793
0	491440	90.61	104.937
0	491986	90.71	105.082
0	492532	90.81	105.226
0	493078	90.91	105.37
0	493632	91.01	105.515
0	494178	91.11	105.659
0	494724	91.21	105.804
0	495270	91.31	105.948
0	495816	91.41	106.093
0	496362	91.51	106.237
0	496908	91.61	106.382
0	497454	91.71	106.526
0	498000	91.81	106.67
0	498546	91.91	106.815
0	499100	92.01	106.959
0	499646	92.11	107.104
0	500192	92.21	107.248
0	500738	92.31	107.393
0	501284	92.41	107.537
0	501830	92.51	107.682
0	502376	92.61	107.826
0	502922	92.71	107.97
0	503468	92.81	108.115
0	504014	92.91	108.259
0	504568	93.01	108.404
0	505114	93.11	108.548
0	505660	93.21	108.693
0	506206	93.31	108.837
0	506752	93.41	108.981
0	507298	93.51	109.126
0	507844	93.61	109.27
0	508390	93.71	109.415
0	508936	93.81	109.559
0	509482	93.91	109.704
0	510036	94.01	109.848
0	510582	94.11	109.993
0	511128	94.21	110.137
0	511674	94.31	110.281
0	512220	94.41	110.426
0	512766	94.51	110.57
0	513312	94.61	110.715
0	513858	94.71	110.859
0	514404	94.81	111.004
0	514950	94.91	111.148
0	515504	95.01	111.293
0	516050	95.11	111.437
0	516596	95.21	111.581
0	517142	95.31	111.726
0	517688	95.41	111.87
0	518234	95.51	112.015
0	518780	95.61	112.159
0	519326	95.71	112.304
0	519872	95.81	112.448
0	520418	95.91	112.592
0	520972	96.01	112.737
0	521518	96.11	112.881
0	522064	96.21	113.026
0	522610	96.31	113.17
0	523156	96.41	113.315
0	523702	96.51	113.459
0	524248	96.61	113.604
0	524794	96.71	113.748
0	525340	96.81	113.892
0	525886	96.91	114.037
0	526440	97.01	114.181
0	526986	97.11	114.326
0	527532	97.21	114.47
0	528078	97.31	114.615
0	528624	97.41	114.759
0	529170	97.51	114.904
0	529716	97.61	115.048
0	530262	97.71	115.192
0	530808	97.81	115.337
0	531354	97.91	115.481
0	531908	98.01	115.626
0	532454	98.11	115.77
0	533000	98.21	115.915
0	533546	98.31	116.059
0	534092	98.41	116.203
0	534638	98.51	116.348
0	535184	98.61	116.492
0	535730	98.71	116.637
0	536276	98.81	116.781
0	536822	98.91	116.926
0	537376	99.01	117.07
0	537922	99.11	117.215
0	538468	99.21	117.359
0	539014	99.31	117.503
0	539560	99.41	117.648
0	540106	99.51	117.792
0	540652	99.61	117.937
0	541198	99.71	118.081
0	541744	99.81	118.226
0	542290	99.91	118.37
1	113	1.11	0
1	659	1.21	0
1	1205	1.31	0
1	1751	1.41	0
1	2297	1.51	0
1	2843	1.61	0
1	3389	1.71	0
1	3935	1.81	0
1	4481	1.91	0
1	5035	2.01	0
1	5581	2.11	0
1	6127	2.21	0
1	6673	2.31	0
1	7219	2.41	0
1	7765	2.51	0
1	8311	2.61	0
1	8857	2.71	0
1	9403	2.81	0
1	9949	2.91	0
1	10503	3.01	0
1	11049	3.11	0
1	11595	3.21	0
1	12141	3.31	0
1	12687	3.41	0
1	13233	3.51	0
1	13779	3.61	0
1	14325	3.71	0
1	14871	3.81	0
1	15417	3.91	0
1	15971	4.01	0
1	16517	4.11	0
1	17063	4.21	0
1	17609	4.31	0
1	18155	4.41	0
1	18701	4.51	0
1	19247	4.61	0
1	19793	4.71	0
1	20339	4.81	0
1	20885	4.91	0
1	21439	5.01	0
1	21985	5.11	0
1	22531	5.21	0
1	23077	5.31	0
1	23623	5.41	0
1	24169	5.51	0
1	24715	5.61	0
1	25261	5.71	0
1	25807	5.81	0
1	26353	5.91	0
1	26907	6.01	0
1	27453	6.11	0
1	27999	6.21	0
1	28545	6.31	0
1	29091	6.41	0
1	29637	6.51	0
1	30183	6.61	0
1	30729	6.71	0
1	31275	6.81	0
1	31821	6.91	0
1	32375	7.01	0
1	32921	7.11	0
1	33467	7.21	0
1	34013	7.31	0
1	34559	7.41	0
1	35105	7.51	0
1	35651	7.61	0
1	36197	7.71	0
1	36743	7.81	0
1	37289	7.91	0
1	37843	8.01	0
1	38389	8.11	0
1	38935	8.21	0
1	39481	8.31	0
1	40027	8.41	0
1	40573	8.51	0
1	41119	8.61	0
1	41665	8.71	0
1	42211	8.81	0
1	42757	8.91	0
1	43311	9.01	0
1	43857	9.11	0
1	44403	9.21	0
1	44949	9.31	0
1	45495	9.41	0
1	46041	9.51	0
1	46587	9.61	0
1	47133	9.71	0
1	47679	9.81	0
1	48225	9.91	0
1	50724	10.01	0
1	51270	10.11	0
1	51816	10.21	0
1	52362	10.31	0
1	52908	10.41	0
1	53454	10.51	0
1	54000	10.61	0
1	54546	10.71	0
1	55092	10.81	0
1	55638	10.91	0
1	56192	11.01	0
1	56738	11.11	0
1	57284	11.21	0
1	57830	11.31	0
1	58376	11.41	0
1	58922	11.51	0
1	59468	11.61	0
1	60014	11.71	0
1	60560	11.81	0
1	61106	11.91	0
1	61660	12.01	0
1	62206	12.11	0
1	62752	12.21	0
1	63298	12.31	0
1	63844	12.41	0
1	64390	12.51	0
1	64936	12.61	0
1	65482	12.71	0
1	66028	12.81	0
1	66574	12.91	0
1	67128	13.01	0
1	67674	13.11	0
1	68220	13.21	0
1	68766	13.31	0
1	69312	13.41	0
1	69858	13.51	0
1	70404	13.61	0
1	70950	13.71	0
1	71496	13.81	0
1	72042	13.91	0
1	72596	14.01	0
1	73142	14.11	0
1	73688	14.21	0
1	74234	14.31	0
1	74780	14.41	0
1	75326	14.51	0
1	75872	14.61	0
1	76418	14.71	0
1	76964	14.81	0
1	77510	14.91	0
1	78064	15.01	0
1	78610	15.11	0
1	79156	15.21	0
1	79702	15.31	0
1	80248	15.41	0
1	80794	15.51	0
1	81340	15.61	0
1	81886	15.71	0
1	82432	15.81	0
1	82978	15.91	0
1	83532	16.01	0
1	84078	16.11	0
1	84624	16.21	0
1	85170	16.31	0
1	85716	16.41	0
1	86262	16.51	0
1	86808	16.61	0
1	87354	16.71	0
1	87900	16.81	0
1	88446	16.91	0
1	89000	17.01	0
1	89546	17.11	0
1	90092	17.21	0
1	90638	17.31	0
1	91184	17.41	0
1	91730	17.51	0
1	92276	17.61	0
1	92822	17.71	0
1	93368	17.81	0
1	93914	17.91	0
1	94468	18.01	0
1	95014	18.11	0
1	95560	18.21	0
1	96106	18.31	0
1	96652	18.41	0
1	97198	18.51	0
1	97744	18.61	0
1	98290	18.71	0
1	98836	18.81	0
1	99382	18.91	0
1	99936	19.01	0
1	100482	19.11	0
1	101028	19.21	0
1	101574	19.31	0
1	102120	19.41	0
1	102666	19.51	0
1	103212	19.61	0
1	103758	19.71	0
1	104304	19.81	0
1	104850	19.91	0
1	105404	20.01	0
1	105950	20.11	0
1	106496	20.21	0
1	107042	20.31	0
1	107588	20.41	0
1	108134	20.51	0
1	108680	20.61	0
1	109226	20.71	0
1	109772	20.81	0
1	110318	20.91	0
1	110872	21.01	0
1	111418	21.11	0
1	111964	21.21	0
1	112510	21.31	0
1	113056	21.41	0
1	113602	21.51	0
1	114148	21.61	0
1	114694	21.71	0
1	115240	21.81	0
1	115786	21.91	0
1	116340	22.01	0
1	116886	22.11	0
1	117432	22.21	0
1	117978	22.31	0
1	118524	22.41	0
1	119070	22.51	0
1	119616	22.61	0
1	120162	22.71	0
1	120708	22.81	0
1	121254	22.91	0
1	121808	23.01	0
1	122354	23.11	0
1	122900	23.21	0
1	123446	23.31	0
1	123992	23.41	0
1	124538	23.51	0
1	125084	23.61	0
1	125630	23.71	0
1	126176	23.81	0
1	126722	23.91	0
1	127276	24.01	0
1	127822	24.11	0
1	128368	24.21	0
1	128914	24.31	0
1	129460	24.41	0
1	130006	24.51	0
1	130552	24.61	0
1	131098	24.71	0
1	131644	24.81	0
1	132190	24.91	0
1	132744	25.01	0
1	133290	25.11	0
1	133836	25.21	0
1	134382	25.31	0
1	134928	25.41	0
1	135474	25.51	0
1	136020	25.61	0
1	136566	25.71	0
1	137112	25.81	0
1	137658	25.91	0
1	138212	26.01	0
1	138758	26.11	0
1	139304	26.21	0
1	139850	26.31	0
1	140396	26.41	0
1	140942	26.51	0
1	141488	26.61	0
1	142034	26.71	0
1	142580	26.81	0
1	143126	26.91	0
1	143680	27.01	0
1	144226	27.11	0
1	144772	27.21	0
1	145318	27.31	0
1	145864	27.41	0
1	146410	27.51	0
1	146956	27.61	0
1	147502	27.71	0
1	148048	27.81	0
1	148594	27.91	0
1	149148	28.01	0
1	149694	28.11	0
1	150240	28.21	0
1	150786	28.31	0
1	151332	28.41	0
1	151878	28.51	0
1	152424	28.61	0
1	152970	28.71	0
1	153516	28.81	0
1	154062	28.91	0
1	154616	29.01	0
1	155162	29.11	0
1	155708	29.21	0
1	156254	29.31	0
1	156800	29.41	0
1	157346	29.51	0
1	157892	29.61	0
1	158438	29.71	0
1	158984	29.81	0
1	159530	29.91	0
1	160084	30.01	0
1	160630	30.11	0
1	161176	30.21	0
1	161722	30.31	0
1	162268	30.41	0
1	162814	30.51	0
1	163360	30.61	0
1	163906	30.71	0
1	164452	30.81	0
1	164998	30.91	0
1	165552	31.01	0
1	166098	31.11	0
1	166644	31.21	0
1	167190	31.31	0
1	167736	31.41	0
1	168282	31.51	0
1	168828	31.61	0
1	169374	31.71	0
1	169920	31.81	0
1	170466	31.91	0
1	171020	32.01	0
1	171566	32.11	0
1	172112	32.21	0
1	172658	32.31	0
1	173204	32.41	0
1	173750	32.51	0
1	174296	32.61	0
1	174842	32.71	0
1	175388	32.81	0
1	175934	32.91	0
1	176488	33.01	0
1	177034	33.11	0
1	177580	33.21	0
1	178126	33.31	0
1	178672	33.41	0
1	179218	33.51	0
1	179764	33.61	0
1	180310	33.71	0
1	180856	33.81	0
1	181402	33.91	0
1	181956	34.01	0
1	182502	34.11	0
1	183048	34.21	0
1	183594	34.31	0
1	184140	34.41	0
1	184686	34.51	0
1	185232	34.61	0
1	185778	34.71	0
1	186324	34.81	0
1	186870	34.91	0
1	187424	35.01	0
1	187970	35.11	0
1	188516	35.21	0
1	189062	35.31	0
1	189608	35.41	0
1	190154	35.51	0
1	190700	35.61	0
1	191246	35.71	1.4444
1	191792	35.81	1.4444
1	192338	35.91	1.4444
1	192892	36.01	1.4444
1	193438	36.11	1.4444
1	193984	36.21	1.4444
1	194530	36.31	1.4444
1	195076	36.41	1.4444
1	195622	36.51	1.4444
1	196168	36.61	1.4444
1	196714	36.71	1.4444
1	197260	36.81	1.4444
1	197806	36.91	1.4444
1	198360	37.01	1.4444
1	198906	37.11	1.4444
1	199452	37.21	1.4444
1	199998	37.31	1.4444
1	200544	37.41	1.4444
1	201090	37.51	1.4444
1	201636	37.61	1.4444
1	202182	37.71	1.4444
1	202728	37.81	1.4444
1	203274	37.91	1.4444
1	203828	38.01	1.4444
1	204374	38.11	1.4444
1	204920	38.21	1.4444
1	205466	38.31	1.4444
1	206012	38.41	1.4444
1	206558	38.51	1.4444
1	207104	38.61	1.4444
1	207650	38.71	1.4444
1	208196	38.81	1.4444
1	208742	38.91	1.4444
1	209296	39.01	1.4444
1	209842	39.11	1.4444
1	210388	39.21	1.4444
1	210934	39.31	1.4444
1	211480	39.41	1.4444
1	212026	39.51	1.4444
1	212572	39.61	1.4444
1	213118	39.71	1.4444
1	213664	39.81	1.4444
1	214210	39.91	1.4444
1	214764	40.01	1.4444
1	215310	40.11	1.4444
1	215856	40.21	1.4444
1	216402	40.31	1.4444
1	216948	40.41	1.4444
1	217494	40.51	1.4444
1	218040	40.61	1.4444
1	218586	40.71	1.4444
1	219132	40.81	1.4444
1	219678	40.91	1.4444
1	220232	41.01	1.4444
1	220778	41.11	1.4444
1	221324	41.21	1.4444
1	221870	41.31	1.4444
1	222416	41.41	1.4444
1	222962	41.51	1.4444
1	223508	41.61	1.4444
1	224054	41.71	1.4444
1	224600	41.81	1.4444
1	225146	41.91	1.4444
1	225700	42.01	1.4444
1	226246	42.11	1.4444
1	226792	42.21	1.4444
1	227338	42.31	1.4444
1	227884	42.41	1.4444
1	228430	42.51	1.4444
1	228976	42.61	1.4444
1	229522	42.71	1.4444
1	230068	42.81	1.4444
1	230614	42.91	1.4444
1	231168	43.01	1.4444
1	231714	43.11	1.4444
1	232260	43.21	1.4444
1	232806	43.31	1.4444
1	233352	43.41	1.4444
1	233898	43.51	1.4444
1	234444	43.61	1.4444
1	234990	43.71	1.4444
1	235536	43.81	1.4444
1	236082	43.91	1.4444
1	236636	44.01	1.4444
1	237182	44.11	1.4444
1	237728	44.21	1.4444
1	238274	44.31	1.4444
1	238820	44.41	1.4444
1	239366	44.51	1.4444
1	239912	44.61	1.4444
1	240458	44.71	1.4444
1	241004	44.81	1.4444
1	241550	44.91	1.4444
1	242104	45.01	1.4444
1	242650	45.11	1.4444
1	243196	45.21	1.4444
1	243742	45.31	1.4444
1	244288	45.41	1.4444
1	244834	45.51	1.4444
1	245380	45.61	1.4444
1	245926	45.71	1.4444
1	246472	45.81	1.4444
1	247018	45.91	1.4444
1	247572	46.01	1.4444
1	248118	46.11	1.4444
1	248664	46.21	1.4444
1	249210	46.31	1.4444
1	249756	46.41	1.4444
1	250302	46.51	1.4444
1	250848	46.61	1.4444
1	251394	46.71	1.4444
1	251940	46.81	1.4444
1	252486	46.91	1.4444
1	253040	47.01	1.4444
1	253586	47.11	1.4444
1	254132	47.21	1.4444
1	254678	47.31	1.4444
1	255224	47.41	1.4444
1	255770	47.51	1.4444
1	256316	47.61	1.4444
1	256862	47.71	1.4444
1	257408	47.81	1.4444
1	257954	47.91	1.4444
1	258508	48.01	1.4444
1	259054	48.11	1.4444
1	259600	48.21	1.4444
1	260146	48.31	1.4444
1	260692	48.41	1.4444
1	261238	48.51	1.4444
1	261784	48.61	1.4444
1	262330	48.71	1.4444
1	262876	48.81	1.4444
1	263422	48.91	1.4444
1	263976	49.01	1.4444
1	264522	49.11	1.4444
1	265068	49.21	1.4444
1	265614	49.31	1.4444
1	266160	49.41	1.4444
1	266706	49.51	1.4444
1	267252	49.61	1.4444
1	267798	49.71	1.4444
1	268344	49.81	1.4444
1	268890	49.91	1.4444
1	269444	50.01	1.4444
1	269990	50.11	1.4444
1	270536	50.21	1.4444
1	271082	50.31	1.4444
1	271628	50.41	1.4444
1	272174	50.51	1.4444
1	272720	50.61	1.4444
1	273266	50.71	1.4444
1	273812	50.81	1.4444
1	274358	50.91	1.4444
1	274912	51.01	1.4444
1	275458	51.11	1.4444
1	276004	51.21	1.4444
1	276550	51.31	1.4444
1	277096	51.41	1.4444
1	277642	51.51	1.4444
1	278188	51.61	1.4444
1	278734	51.71	1.4444
1	279280	51.81	1.4444
1	279826	51.91	1.4444
1	280380	52.01	1.4444
1	280926	52.11	1.4444
1	281472	52.21	1.4444
1	282018	52.31	1.4444
1	282564	52.41	1.4444
1	283110	52.51	1.4444
1	283656	52.61	1.4444
1	284202	52.71	1.4444
1	284748	52.81	1.4444
1	285294	52.91	1.4444
1	285848	53.01	1.4444
1	286394	53.11	1.4444
1	286940	53.21	1.4444
1	287486	53.31	1.4444
1	288032	53.41	1.4444
1	288578	53.51	1.4444
1	289124	53.61	1.4444
1	289670	53.71	1.4444
1	290216	53.81	1.4444
1	290762	53.91	1.4444
1	291316	54.01	1.4444
1	291862	54.11	1.4444
1	292408	54.21	1.4444
1	292954	54.31	1.4444
1	293500	54.41	1.4444
1	294046	54.51	1.4444
1	294592	54.61	1.4444
1	295138	54.71	1.4444
1	295684	54.81	1.4444
1	296230	54.91	1.4444
1	296784	55.01	1.4444
1	297330	55.11	1.4444
1	297876	55.21	1.4444
1	298422	55.31	1.4444
1	298968	55.41	1.4444
1	299514	55.51	1.4444
1	300060	55.61	1.4444
1	300606	55.71	1.4444
1	301152	55.81	1.4444
1	301698	55.91	1.4444
1	302252	56.01	1.4444
1	302798	56.11	1.4444
1	303344	56.21	1.4444
1	303890	56.31	1.4444
1	304436	56.41	1.4444
1	304982	56.51	1.4444
1	305528	56.61	1.4444
1	306074	56.71	1.4444
1	306620	56.81	1.4444
1	307166	56.91	1.4444
1	307720	57.01	1.4444
1	308266	57.11	1.4444
1	308812	57.21	1.4444
1	309358	57.31	1.4444
1	309904	57.41	1.4444
1	310450	57.51	1.4444
1	310996	57.61	1.4444
1	311542	57.71	1.4444
1	312088	57.81	1.4444
1	312634	57.91	1.4444
1	313188	58.01	1.4444
1	313734	58.11	1.4444
1	314280	58.21	1.4444
1	314826	58.31	1.4444
1	315372	58.41	1.4444
1	315918	58.51	1.4444
1	316464	58.61	1.4444
1	317010	58.71	1.4444
1	317556	58.81	1.4444
1	318102	58.91	1.4444
1	318656	59.01	1.4444
1	319202	59.11	1.4444
1	319748	59.21	1.4444
1	320294	59.31	1.4444
1	320840	59.41	1.4444
1	321386	59.51	1.4444
1	321932	59.61	1.4444
1	322478	59.71	1.4444
1	323024	59.81	1.4444
1	323570	59.91	1.4444
1	324124	60.01	1.4444
1	324670	60.11	1.4444
1	325216	60.21	1.4444
1	325762	60.31	1.4444
1	326308	60.41	1.4444
1	326854	60.51	1.4444
1	327400	60.61	1.4444
1	327946	60.71	1.4444
1	328492	60.81	1.4444
1	329038	60.91	1.4444
1	329592	61.01	1.4444
1	330138	61.11	1.4444
1	330684	61.21	1.4444
1	331230	61.31	1.4444
1	331776	61.41	1.4444
1	332322	61.51	1.4444
1	332868	61.61	1.4444
1	333414	61.71	1.4444
1	333960	61.81	1.4444
1	334506	61.91	1.4444
1	335060	62.01	1.4444
1	335606	62.11	1.4444
1	336152	62.21	1.4444
1	336698	62.31	1.4444
1	337244	62.41	1.4444
1	337790	62.51	1.4444
1	338336	62.61	1.4444
1	338882	62.71	1.4444
1	339428	62.81	1.4444
1	339974	62.91	1.4444
1	340528	63.01	1.4444
1	341074	63.11	1.4444
1	341620	63.21	1.4444
1	342166	63.31	1.4444
1	342712	63.41	1.4444
1	343258	63.51	1.4444
1	343804	63.61	1.4444
1	344350	63.71	1.4444
1	344896	63.81	1.4444
1	345442	63.91	1.4444
1	345996	64.01	1.4444
1	346542	64.11	1.4444
1	347088	64.21	1.4444
1	347634	64.31	1.4444
1	348180	64.41	1.4444
1	348726	64.51	1.4444
1	349272	64.61	1.4444
1	349818	64.71	1.4444
1	350364	64.81	1.4444
1	350910	64.91	1.4444
1	351464	65.01	1.4444
1	352010	65.11	1.4444
1	352556	65.21	1.4444
1	353102	65.31	1.4444
1	353648	65.41	1.4444
1	354194	65.51	1.4444
1	354740	65.61	1.4444
1	355286	65.71	1.4444
1	355832	65.81	1.4444
1	356378	65.91	1.4444
1	356932	66.01	1.4444
1	357478	66.11	1.4444
1	358024	66.21	1.4444
1	358570	66.31	1.4444
1	359116	66.41	1.4444
1	359662	66.51	1.4444
1	360208	66.61	1.4444
1	360754	66.71	1.4444
1	361300	66.81	1.4444
1	361846	66.91	1.4444
1	362400	67.01	1.4444
1	362946	67.11	1.4444
1	363492	67.21	1.4444
1	364038	67.31	1.4444
1	364584	67.41	1.4444
1	365130	67.51	1.4444
1	365676	67.61	1.4444
1	366222	67.71	1.4444
1	366768	67.81	1.4444
1	367314	67.91	1.4444
1	367868	68.01	1.4444
1	368414	68.11	1.4444
1	368960	68.21	1.4444
1	369506	68.31	1.4444
1	370052	68.41	1.4444
1	370598	68.51	1.4444
1	371144	68.61	1.4444
1	371690	68.71	1.4444
1	372236	68.81	1.4444
1	372782	68.91	1.4444
1	373336	69.01	1.4444
1	373882	69.11	1.4444
1	374428	69.21	1.4444
1	374974	69.31	1.4444
1	375520	69.41	1.4444
1	376066	69.51	1.4444
1	376612	69.61	1.4444
1	377158	69.71	1.4444
1	377704	69.81	1.4444
1	378250	69.91	1.4444
1	378804	70.01	1.4444
1	379350	70.11	1.4444
1	379896	70.21	1.4444
1	380442	70.31	1.4444
1	380988	70.41	1.4444
1	381534	70.51	1.4444
1	382080	70.61	1.4444
1	382626	70.71	1.4444
1	383172	70.81	1.4444
1	383718	70.91	1.4444
1	384272	71.01	1.4444
1	384818	71.11	1.4444
1	385364	71.21	1.4444
1	385910	71.31	1.4444
1	386456	71.41	1.4444
1	387002	71.51	1.4444
1	387548	71.61	1.4444
1	388094	71.71	1.4444
1	388640	71.81	1.4444
1	389186	71.91	1.4444
1	389740	72.01	1.4444
1	390286	72.11	1.4444
1	390832	72.21	1.4444
1	391378	72.31	1.4444
1	391924	72.41	1.4444
1	392470	72.51	1.4444
1	393016	72.61	1.4444
1	393562	72.71	1.4444
1	394108	72.81	1.4444
1	394654	72.91	1.4444
1	395208	73.01	1.4444
1	395754	73.11	1.4444
1	396300	73.21	1.4444
1	396846	73.31	1.4444
1	397392	73.41	1.4444
1	397938	73.51	1.4444
1	398484	73.61	1.4444
1	399030	73.71	1.4444
1	399576	73.81	1.4444
1	400122	73.91	1.4444
1	400676	74.01	1.4444
1	401222	74.11	1.4444
1	401768	74.21	1.4444
1	402314	74.31	1.4444
1	402860	74.41	1.4444
1	403406	74.51	1.4444
1	403952	74.61	1.4444
1	404498	74.71	1.4444
1	405044	74.81	1.4444
1	405590	74.91	1.4444
1	406144	75.01	1.4444
1	406690	75.11	1.4444
1	407236	75.21	1.4444
1	407782	75.31	1.4444
1	408328	75.41	1.4444
1	408874	75.51	1.4444
1	409420	75.61	1.4444
1	409966	75.71	1.4444
1	410512	75.81	1.4444
1	411058	75.91	1.4444
1	411612	76.01	1.4444
1	412158	76.11	1.4444
1	412704	76.21	1.4444
1	413250	76.31	1.4444
1	413796	76.41	1.4444
1	414342	76.51	1.4444
1	414888	76.61	1.4444
1	415434	76.71	1.4444
1	415980	76.81	1.4444
1	416526	76.91	1.4444
1	417080	77.01	1.4444
1	417626	77.11	1.4444
1	418172	77.21	1.4444
1	418718	77.31	1.4444
1	419264	77.41	1.4444
1	419810	77.51	1.4444
1	420356	77.61	1.4444
1	420902	77.71	1.4444
1	421448	77.81	1.4444
1	421994	77.91	1.4444
1	422548	78.01	1.4444
1	423094	78.11	1.4444
1	423640	78.21	1.4444
1	424186	78.31	1.4444
1	424732	78.41	1.4444
1	425278	78.51	1.4444
1	425824	78.61	1.4444
1	426370	78.71	1.4444
1	426916	78.81	1.4444
1	427462	78.91	1.4444
1	428016	79.01	1.4444
1	428562	79.11	1.4444
1	429108	79.21	1.4444
1	429654	79.31	1.4444
1	430200	79.41	1.4444
1	430746	79.51	1.4444
1	431292	79.61	1.4444
1	431838	79.71	1.4444
1	432384	79.81	1.4444
1	432930	79.91	1.4444
1	433484	80.01	1.4444
1	434030	80.11	1.4444
1	434576	80.21	1.4444
1	435122	80.31	1.4444
1	435668	80.41	1.4444
1	436214	80.51	1.4444
1	436760	80.61	1.4444
1	437306	80.71	1.4444
1	437852	80.81	1.4444
1	438398	80.91	1.4444
1	438952	81.01	1.4444
1	439498	81.11	1.4444
1	440044	81.21	1.4444
1	440590	81.31	1.4444
1	441136	81.41	1.4444
1	441682	81.51	1.4444
1	442228	81.61	1.4444
1	442774	81.71	1.4444
1	443320	81.81	1.4444
1	443866	81.91	1.4444
1	444420	82.01	1.4444
1	444966	82.11	1.4444
1	445512	82.21	1.4444
1	446058	82.31	1.4444
1	446604	82.41	1.4444
1	447150	82.51	1.4444
1	447696	82.61	1.4444
1	448242	82.71	1.4444
1	448788	82.81	1.4444
1	449334	82.91	1.4444
1	449888	83.01	1.4444
1	450434	83.11	1.4444
1	450980	83.21	1.4444
1	451526	83.31	1.4444
1	452072	83.41	1.4444
1	452618	83.51	1.4444
1	453164	83.61	1.4444
1	453710	83.71	1.4444
1	454256	83.81	1.4444
1	454802	83.91	1.4444
1	455356	84.01	1.4444
1	455902	84.11	1.4444
1	456448	84.21	1.4444
1	456994	84.31	1.4444
1	457540	84.41	1.4444
1	458086	84.51	1.4444
1	458632	84.61	1.4444
1	459178	84.71	1.4444
1	459724	84.81	1.4444
1	460270	84.91	1.4444
1	460824	85.01	1.4444
1	461370	85.11	1.4444
1	461916	85.21	1.4444
1	462462	85.31	1.4444
1	463008	85.41	1.4444
1	463554	85.51	1.4444
1	464100	85.61	1.4444
1	464646	85.71	1.4444
1	465192	85.81	1.4444
1	465738	85.91	1.4444
1	466292	86.01	1.4444
1	466838	86.11	1.4444
1	467384	86.21	1.4444
1	467930	86.31	1.4444
1	468476	86.41	1.4444
1	469022	86.51	1.4444
1	469568	86.61	1.4444
1	470114	86.71	1.4444
1	470660	86.81	1.4444
1	471206	86.91	1.4444
1	471760	87.01	1.4444
1	472306	87.11	1.4444
1	472852	87.21	1.4444
1	473398	87.31	1.4444
1	473944	87.41	1.4444
1	474490	87.51	1.4444
1	475036	87.61	1.4444
1	475582	87.71	1.4444
1	476128	87.81	1.4444
1	476674	87.91	1.4444
1	477228	88.01	1.4444
1	477774	88.11	1.4444
1	478320	88.21	1.4444
1	478866	88.31	1.4444
1	479412	88.41	1.4444
1	479958	88.51	1.4444
1	480504	88.61	1.4444
1	481050	88.71	1.4444
1	481596	88.81	1.4444
1	482142	88.91	1.4444
1	482696	89.01	1.4444
1	483242	89.11	1.4444
1	483788	89.21	1.4444
1	484334	89.31	1.4444
1	484880	89.41	1.4444
1	485426	89.51	1.4444
1	485972	89.61	1.4444
1	486518	89.71	1.4444
1	487064	89.81	1.4444
1	487610	89.91	1.4444
1	488164	90.01	1.4444
1	488710	90.11	1.4444
1	489256	90.21	1.4444
1	489802	90.31	1.4444
1	490348	90.41	1.4444
1	490894	90.51	1.4444
1	491440	90.61	1.4444
1	491986	90.71	1.4444
1	492532	90.81	1.4444
1	493078	90.91	1.4444
1	493632	91.01	1.4444
1	494178	91.11	1.4444
1	494724	91.21	1.4444
1	495270	91.31	1.4444
1	495816	91.41	1.4444
1	496362	91.51	1.4444
1	496908	91.61	1.4444
1	497454	91.71	1.4444
1	498000	91.81	1.4444
1	498546	91.91	1.4444
1	499100	92.01	1.4444
1	499646	92.11	1.4444
1	500192	92.21	1.4444
1	500738	92.31	1.4444
1	501284	92.41	1.4444
1	501830	92.51	1.4444
1	502376	92.61	1.4444
1	502922	92.71	1.4444
1	503468	92.81	1.4444
1	504014	92.91	1.4444
1	504568	93.01	1.4444
1	505114	93.11	1.4444
1	505660	93.21	1.4444
1	506206	93.31	1.4444
1	506752	93.41	1.4444
1	507298	93.51	1.4444
1	507844	93.61	1.4444
1	508390	93.71	1.4444
1	508936	93.81	1.4444
1	509482	93.91	1.4444
1	510036	94.01	1.4444
1	510582	94.11	1.4444
1	511128	94.21	1.4444
1	511674	94.31	1.4444
1	512220	94.41	1.4444
1	512766	94.51	1.4444
1	513312	94.61	1.4444
1	513858	94.71	1.4444
1	514404	94.81	1.4444
1	514950	94.91	1.4444
1	515504	95.01	1.4444
1	516050	95.11	1.4444
1	516596	95.21	1.4444
1	517142	95.31	1.4444
1	517688	95.41	1.4444
1	518234	95.51	1.4444
1	518780	95.61	1.4444
1	519326	95.71	1.4444
1	519872	95.81	1.4444
1	520418	95.91	1.4444
1	520972	96.01	1.4444
1	521518	96.11	1.4444
1	522064	96.21	1.4444
1	522610	96.31	1.4444
1	523156	96.41	1.4444
1	523702	96.51	1.4444
1	524248	96.61	1.4444
1	524794	96.71	1.4444
1	525340	96.81	1.4444
1	525886	96.91	1.4444
1	526440	97.01	1.4444
1	526986	97.11	1.4444
1	527532	97.21	1.4444
1	528078	97.31	1.4444
1	528624	97.41	1.4444
1	529170	97.51	1.4444
1	529716	97.61	1.4444
1	530262	97.71	1.4444
1	530808	97.81	1.4444
1	531354	97.91	1.4444
1	531908	98.01	1.4444
1	532454	98.11	1.4444
1	533000	98.21	1.4444
1	533546	98.31	1.4444
1	534092	98.41	1.4444
1	534638	98.51	1.4444
1	535184	98.61	1.4444
1	535730	98.71	1.4444
1	536276	98.81	1.4444
1	536822	98.91	1.4444
1	537376	99.01	1.4444
1	537922	99.11	1.4444
1	538468	99.21	1.4444
1	539014	99.31	1.4444
1	539560	99.41	1.4444
1	540106	99.51	1.4444
1	540652	99.61	1.4444
1	541198	99.71	1.4444
1	541744	99.81	1.4444
1	542290	99.91	1.4444
2	113	1.11	0
2	659	1.21	0
2	1205	1.31	0
2	1751	1.41	0
2	2297	1.51	0
2	2843	1.61	0
2	3389	1.71	0
2	3935	1.81	0
2	4481	1.91	0
2	5035	2.01	0
2	5581	2.11	0
2	6127	2.21	0
2	6673	2.31	0
2	7219	2.41	0
2	7765	2.51	0
2	8311	2.61	0
2	8857	2.71	0
2	9403	2.81	0
2	9949	2.91	0
2	10503	3.01	0
2	11049	3.11	0
2	11595	3.21	0
2	12141	3.31	0
2	12687	3.41	0
2	13233	3.51	0
2	13779	3.61	0
2	14325	3.71	0
2	14871	3.81	0
2	15417	3.91	0
2	15971	4.01	0
2	16517	4.11	0
2	17063	4.21	0
2	17609	4.31	0
2	18155	4.41	0
2	18701	4.51	0
2	19247	4.61	0
2	19793	4.71	0
2	20339	4.81	0
2	20885	4.91	0
2	21439	5.01	0
2	21985	5.11	0
2	22531	5.21	0
2	23077	5.31	0
2	23623	5.41	0
2	24169	5.51	0
2	24715	5.61	0
2	25261	5.71	0
2	25807	5.81	0
2	26353	5.91	0
2	26907	6.01	0
2	27453	6.11	0
2	27999	6.21	0
2	28545	6.31	0
2	29091	6.41	0
2	29637	6.51	0
2	30183	6.61	0
2	30729	6.71	0
2	31275	6.81	0
2	31821	6.91	0
2	32375	7.01	0
2	32921	7.11	0
2	33467	7.21	0
2	34013	7.31	0
2	34559	7.41	0
2	35105	7.51	0
2	35651	7.61	0
2	36197	7.71	0
2	36743	7.81	0
2	37289	7.91	0
2	37843	8.01	0
2	38389	8.11	0
2	38935	8.21	0
2	39481	8.31	0
2	40027	8.41	0
2	40573	8.51	0
2	41119	8.61	0
2	41665	8.71	0
2	42211	8.81	0
2	42757	8.91	0
2	43311	9.01	0
2	43857	9.11	0
2	44403	9.21	0
2	44949	9.31	0
2	45495	9.41	0
2	46041	9.51	0
2	46587	9.61	0
2	47133	9.71	0
2	47679	9.81	0
2	48225	9.91	0
2	50724	10.01	0
2	51270	10.11	0
2	51816	10.21	0
2	52362	10.31	0
2	52908	10.41	0
2	53454	10.51	0
2	54000	10.61	0
2	54546	10.71	0
2	55092	10.81	0
2	55638	10.91	0
2	56192	11.01	0
2	56738	11.11	0
2	57284	11.21	0
2	57830	11.31	0
2	58376	11.41	0
2	58922	11.51	0
2	59468	11.61	0
2	60014	11.71	0
2	60560	11.81	0
2	61106	11.91	0
2	61660	12.01	0
2	62206	12.11	0
2	62752	12.21	0
2	63298	12.31	0
2	63844	12.41	0
2	64390	12.51	0
2	64936	12.61	0
2	65482	12.71	0
2	66028	12.81	0
2	66574	12.91	0
2	67128	13.01	0
2	67674	13.11	0
2	68220	13.21	0
2	68766	13.31	0
2	69312	13.41	0
2	69858	13.51	0
2	70404	13.61	0
2	70950	13.71	0
2	71496	13.81	0
2	72042	13.91	0
2	72596	14.01	0
2	73142	14.11	0
2	73688	14.21	0
2	74234	14.31	0
2	74780	14.41	0
2	75326	14.51	0
2	75872	14.61	0
2	76418	14.71	0
2	76964	14.81	0
2	77510	14.91	0
2	78064	15.01	0
2	78610	15.11	0
2	79156	15.21	0
2	79702	15.31	0
2	80248	15.41	0
2	80794	15.51	0
2	81340	15.61	0
2	81886	15.71	0
2	82432	15.81	0
2	82978	15.91	0
2	83532	16.01	0
2	84078	16.11	0
2	84624	16.21	0
2	85170	16.31	0
2	85716	16.41	0
2	86262	16.51	0
2	86808	16.61	0
2	87354	16.71	0
2	87900	16.81	0
2	88446	16.91	0
2	89000	17.01	0
2	89546	17.11	0
2	90092	17.21	0
2	90638	17.31	0
2	91184	17.41	0
2	91730	17.51	0
2	92276	17.61	0
2	92822	17.71	0
2	93368	17.81	0
2	93914	17.91	0
2	94468	18.01	0
2	95014	18.11	0
2	95560	18.21	0
2	96106	18.31	0
2	96652	18.41	0
2	97198	18.51	0
2	97744	18.61	0
2	98290	18.71	0
2	98836	18.81	0
2	99382	18.91	0
2	99936	19.01	0
2	100482	19.11	0
2	101028	19.21	0
2	101574	19.31	0
2	102120	19.41	0
2	102666	19.51	0
2	103212	19.61	0
2	103758	19.71	0
2	104304	19.81	0
2	104850	19.91	0
2	105404	20.01	0
2	105950	20.11	0
2	106496	20.21	0
2	107042	20.31	0
2	107588	20.41	0
2	108134	20.51	0
2	108680	20.61	0
2	109226	20.71	0
2	109772	20.81	0
2	110318	20.91	0
2	110872	21.01	0
2	111418	21.11	0
2	111964	21.21	0
2	112510	21.31	0
2	113056	21.41	0
2	113602	21.51	0
2	114148	21.61	0
2	114694	21.71	0
2	115240	21.81	0
2	115786	21.91	0
2	116340	22.01	0
2	116886	22.11	0
2	117432	22.21	0
2	117978	22.31	0
2	118524	22.41	0
2	119070	22.51	0
2	119616	22.61	0
2	120162	22.71	0
2	120708	22.81	0
2	121254	22.91	0
2	121808	23.01	0
2	122354	23.11	0
2	122900	23.21	0
2	123446	23.31	0
2	123992	23.41	0
2	124538	23.51	0
2	125084	23.61	0
2	125630	23.71	0
2	126176	23.81	0
2	126722	23.91	0
2	127276	24.01	0
2	127822	24.11	0
2	128368	24.21	0
2	128914	24.31	0
2	129460	24.41	0
2	130006	24.51	0
2	130552	24.61	0
2	131098	24.71	0
2	131644	24.81	0
2	132190	24.91	0
2	132744	25.01	0
2	133290	25.11	0
2	133836	25.21	0
2	134382	25.31	0
2	134928	25.41	0
2	135474	25.51	0
2	136020	25.61	0
2	136566	25.71	0
2	137112	25.81	0
2	137658	25.91	0
2	138212	26.01	0
2	138758	26.11	0
2	139304	26.21	0
2	139850	26.31	0
2	140396	26.41	0
2	140942	26.51	0
2	141488	26.61	0
2	142034	26.71	0
2	142580	26.81	0
2	143126	26.91	0
2	143680	27.01	0
2	144226	27.11	0
2	144772	27.21	0
2	145318	27.31	0
2	145864	27.41	0
2	146410	27.51	0
2	146956	27.61	0
2	147502	27.71	0
2	148048	27.81	0
2	148594	27.91	0
2	149148	28.01	0
2	149694	28.11	0
2	150240	28.21	0
2	150786	28.31	0
2	151332	28.41	0
2	151878	28.51	0
2	152424	28.61	0
2	152970	28.71	0
2	153516	28.81	0
2	154062	28.91	0
2	154616	29.01	0
2	155162	29.11	0
2	155708	29.21	0
2	156254	29.31	0
2	156800	29.41	0
2	157346	29.51	0
2	157892	29.61	0
2	158438	29.71	0
2	158984	29.81	0
2	159530	29.91	0
2	160084	30.01	0
2	160630	30.11	0
2	161176	30.21	0
2	161722	30.31	0
2	162268	30.41	0
2	162814	30.51	0
2	163360	30.61	0
2	163906	30.71	0
2	164452	30.81	0
2	164998	30.91	0
2	165552	31.01	0
2	166098	31.11	0
2	166644	31.21	0
2	167190	31.31	0
2	167736	31.41	0
2	168282	31.51	0
2	168828	31.61	0
2	169374	31.71	0
2	169920	31.81	0
2	170466	31.91	0
2	171020	32.01	0
2	171566	32.11	0
2	172112	32.21	0
2	172658	32.31	0
2	173204	32.41	0
2	173750	32.51	0
2	174296	32.61	0
2	174842	32.71	0
2	175388	32.81	0
2	175934	32.91	0
2	176488	33.01	0
2	177034	33.11	0
2	177580	33.21	0
2	178126	33.31	0
2	178672	33.41	0
2	179218	33.51	0
2	179764	33.61	0
2	180310	33.71	0
2	180856	33.81	0
2	181402	33.91	0
2	181956	34.01	0
2	182502	34.11	0
2	183048	34.21	0
2	183594	34.31	0
2	184140	34.41	0
2	184686	34.51	0
2	185232	34.61	0
2	185778	34.71	0
2	186324	34.81	0
2	186870	34.91	0
2	187424	35.01	0
2	187970	35.11	0
2	188516	35.21	0
2	189062	35.31	0
2	189608	35.41	0
2	190154	35.51	0
2	190700	35.61	0
2	191246	35.71	0
2	191792	35.81	0
2	192338	35.91	0
2	192892	36.01	0
2	193438	36.11	0
2	193984	36.21	0
2	194530	36.31	0
2	195076	36.41	0
2	195622	36.51	0
2	196168	36.61	0
2	196714	36.71	0
2	197260	36.81	0
2	197806	36.91	0
2	198360	37.01	0
2	198906	37.11	0
2	199452	37.21	0
2	199998	37.31	0
2	200544	37.41	0
2	201090	37.51	0
2	201636	37.61	0
2	202182	37.71	0
2	202728	37.81	0
2	203274	37.91	0
2	203828	38.01	0
2	204374	38.11	0
2	204920	38.21	0
2	205466	38.31	0
2	206012	38.41	0
2	206558	38.51	0
2	207104	38.61	0
2	207650	38.71	0
2	208196	38.81	0
2	208742	38.91	0
2	209296	39.01	0
2	209842	39.11	0
2	210388	39.21	0
2	210934	39.31	0
2	211480	39.41	0
2	212026	39.51	0
2	212572	39.61	0
2	213118	39.71	0
2	213664	39.81	0
2	214210	39.91	0
2	214764	40.01	0
2	215310	40.11	0
2	215856	40.21	0
2	216402	40.31	0
2	216948	40.41	0
2	217494	40.51	0
2	218040	40.61	0
2	218586	40.71	0
2	219132	40.81	0
2	219678	40.91	0
2	220232	41.01	0
2	220778	41.11	0
2	221324	41.21	0
2	221870	41.31	0
2	222416	41.41	0
2	222962	41.51	0
2	223508	41.61	0
2	224054	41.71	0
2	224600	41.81	0
2	225146	41.91	0
2	225700	42.01	0
2	226246	42.11	0
2	226792	42.21	0
2	227338	42.31	0
2	227884	42.41	0
2	228430	42.51	0
2	228976	42.61	0
2	229522	42.71	0
2	230068	42.81	0
2	230614	42.91	0
2	231168	43.01	0
2	231714	43.11	0
2	232260	43.21	0
2	232806	43.31	0
2	233352	43.41	0
2	233898	43.51	0
2	234444	43.61	0
2	234990	43.71	0
2	235536	43.81	0
2	236082	43.91	0
2	236636	44.01	0
2	237182	44.11	0
2	237728	44.21	0
2	238274	44.31	0
2	238820	44.41	0
2	239366	44.51	0
2	239912	44.61	0
2	240458	44.71	0
2	241004	44.81	0
2	241550	44.91	0
2	242104	45.01	0
2	242650	45.11	0
2	243196	45.21	0
2	243742	45.31	0
2	244288	45.41	0
2	244834	45.51	0
2	245380	45.61	0
2	245926	45.71	0
2	246472	45.81	0
2	247018	45.91	0
2	247572	46.01	0
2	248118	46.11	0
2	248664	46.21	0
2	249210	46.31	0
2	249756	46.41	0
2	250302	46.51	0
2	250848	46.61	0
2	251394	46.71	0
2	251940	46.81	0
2	252486	46.91	0
2	253040	47.01	0
2	253586	47.11	0
2	254132	47.21	0
2	254678	47.31	0
2	255224	47.41	0
2	255770	47.51	0
2	256316	47.61	0
2	256862	47.71	0
2	257408	47.81	0
2	257954	47.91	0
2	258508	48.01	0
2	259054	48.11	0
2	259600	48.21	0
2	260146	48.31	0
2	260692	48.41	0
2	261238	48.51	0
2	261784	48.61	0
2	262330	48.71	0
2	262876	48.81	0
2	263422	48.91	0
2	263976	49.01	0
2	264522	49.11	0
2	265068	49.21	0
2	265614	49.31	0
2	266160	49.41	0
2	266706	49.51	0
2	267252	49.61	0
2	267798	49.71	0
2	268344	49.81	0
2	268890	49.91	0
2	269444	50.01	0
2	269990	50.11	0
2	270536	50.21	0
2	271082	50.31	0
2	271628	50.41	0
2	272174	50.51	0
2	272720	50.61	0
2	273266	50.71	0
2	273812	50.81	0
2	274358	50.91	0
2	274912	51.01	0
2	275458	51.11	0
2	276004	51.21	0
2	276550	51.31	0
2	277096	51.41	0
2	277642	51.51	0
2	278188	51.61	0
2	278734	51.71	0
2	279280	51.81	0
2	279826	51.91	0
2	280380	52.01	0
2	280926	52.11	0
2	281472	52.21	0
2	282018	52.31	0
2	282564	52.41	0
2	283110	52.51	0
2	283656	52.61	0
2	284202	52.71	0
2	284748	52.81	0
2	285294	52.91	0
2	285848	53.01	0
2	286394	53.11	0
2	286940	53.21	0
2	287486	53.31	0
2	288032	53.41	0
2	288578	53.51	0
2	289124	53.61	0
2	289670	53.71	0
2	290216	53.81	0
2	290762	53.91	0
2	291316	54.01	0
2	291862	54.11	0
2	292408	54.21	0
2	292954	54.31	0
2	293500	54.41	0
2	294046	54.51	0
2	294592	54.61	0
2	295138	54.71	0
2	295684	54.81	0
2	296230	54.91	0
2	296784	55.01	0
2	297330	55.11	0
2	297876	55.21	0
2	298422	55.31	0
2	298968	55.41	0
2	299514	55.51	0
2	300060	55.61	0
2	300606	55.71	0
2	301152	55.81	0
2	301698	55.91	0
2	302252	56.01	0
2	302798	56.11	0
2	303344	56.21	0
2	303890	56.31	0
2	304436	56.41	0
2	304982	56.51	0
2	305528	56.61	0
2	306074	56.71	0
2	306620	56.81	0
2	307166	56.91	0
2	307720	57.01	0
2	308266	57.11	0
2	308812	57.21	0
2	309358	57.31	0
2	309904	57.41	0
2	310450	57.51	0
2	310996	57.61	0
2	311542	57.71	0
2	312088	57.81	0
2	312634	57.91	0
2	313188	58.01	0
2	313734	58.11	0
2	314280	58.21	0
2	314826	58.31	0
2	315372	58.41	0
2	315918	58.51	0
2	316464	58.61	0
2	317010	58.71	0
2	317556	58.81	0
2	318102	58.91	0
2	318656	59.01	0
2	319202	59.11	0
2	319748	59.21	0
2	320294	59.31	0
2	320840	59.41	0
2	321386	59.51	0
2	321932	59.61	0
2	322478	59.71	0
2	323024	59.81	0
2	323570	59.91	0
2	324124	60.01	0
2	324670	60.11	0
2	325216	60.21	0
2	325762	60.31	0
2	326308	60.41	0
2	326854	60.51	0
2	327400	60.61	0
2	327946	60.71	0
2	328492	60.81	0
2	329038	60.91	0
2	329592	61.01	0
2	330138	61.11	0
2	330684	61.21	0
2	331230	61.31	0
2	331776	61.41	0
2	332322	61.51	0
2	332868	61.61	0
2	333414	61.71	0
2	333960	61.81	0
2	334506	61.91	0
2	335060	62.01	0
2	335606	62.11	0
2	336152	62.21	0
2	336698	62.31	0
2	337244	62.41	0
2	337790	62.51	0
2	338336	62.61	0
2	338882	62.71	0
2	339428	62.81	0
2	339974	62.91	0
2	340528	63.01	0
2	341074	63.11	0
2	341620	63.21	0
2	342166	63.31	0
2	342712	63.41	0
2	343258	63.51	0
2	343804	63.61	0
2	344350	63.71	0
2	344896	63.81	0
2	345442	63.91	0
2	345996	64.01	0
2	346542	64.11	0
2	347088	64.21	0
2	347634	64.31	0
2	348180	64.41	0
2	348726	64.51	0
2	349272	64.61	0
2	349818	64.71	0
2	350364	64.81	0
2	350910	64.91	0
2	351464	65.01	0
2	352010	65.11	0
2	352556	65.21	0
2	353102	65.31	0
2	353648	65.41	0
2	354194	65.51	0
2	354740	65.61	0
2	355286	65.71	0
2	355832	65.81	0
2	356378	65.91	0
2	356932	66.01	0
2	357478	66.11	0
2	358024	66.21	0
2	358570	66.31	0
2	359116	66.41	0
2	359662	66.51	0
2	360208	66.61	0
2	360754	66.71	0
2	361300	66.81	0
2	361846	66.91	0
2	362400	67.01	0
2	362946	67.11	0
2	363492	67.21	0
2	364038	67.31	0
2	364584	67.41	0
2	365130	67.51	0
2	365676	67.61	0
2	366222	67.71	0
2	366768	67.81	0
2	367314	67.91	0
2	367868	68.01	0
2	368414	68.11	0
2	368960	68.21	0
2	369506	68.31	0
2	370052	68.41	0
2	370598	68.51	0
2	371144	68.61	0
2	371690	68.71	0
2	372236	68.81	0
2	372782	68.91	0
2	373336	69.01	0
2	373882	69.11	0
2	374428	69.21	0
2	374974	69.31	0
2	375520	69.41	0
2	376066	69.51	0
2	376612	69.61	0
2	377158	69.71	0
2	377704	69.81	0
2	378250	69.91	0
2	378804	70.01	0
2	379350	70.11	0
2	379896	70.21	0
2	380442	70.31	0
2	380988	70.41	0
2	381534	70.51	0
2	382080	70.61	0
2	382626	70.71	0
2	383172	70.81	0
2	383718	70.91	0
2	384272	71.01	0
2	384818	71.11	0
2	385364	71.21	0
2	385910	71.31	0
2	386456	71.41	0
2	387002	71.51	0
2	387548	71.61	0
2	388094	71.71	0
2	388640	71.81	0
2	389186	71.91	0
2	389740	72.01	0
2	390286	72.11	0
2	390832	72.21	0
2	391378	72.31	0
2	391924	72.41	0
2	392470	72.51	0
2	393016	72.61	0
2	393562	72.71	0
2	394108	72.81	0
2	394654	72.91	0
2	395208	73.01	0
2	395754	73.11	0
2	396300	73.21	0
2	396846	73.31	0
2	397392	73.41	0
2	397938	73.51	0
2	398484	73.61	0
2	399030	73.71	0
2	399576	73.81	0
2	400122	73.91	0
2	400676	74.01	0
2	401222	74.11	0
2	401768	74.21	0
2	402314	74.31	0
2	402860	74.41	0
2	403406	74.51	0
2	403952	74.61	0
2	404498	74.71	0
2	405044	74.81	0
2	405590	74.91	0
2	406144	75.01	0
2	406690	75.11	0
2	407236	75.21	0
2	407782	75.31	0
2	408328	75.41	0
2	408874	75.51	0
2	409420	75.61	0
2	409966	75.71	0
2	410512	75.81	0
2	411058	75.91	0
2	411612	76.01	0
2	412158	76.11	0
2	412704	76.21	0
2	413250	76.31	0
2	413796	76.41	0
2	414342	76.51	0
2	414888	76.61	0
2	415434	76.71	0
2	415980	76.81	0
2	416526	76.91	0
2	417080	77.01	0
2	417626	77.11	0
2	418172	77.21	0
2	418718	77.31	0
2	419264	77.41	0
2	419810	77.51	0
2	420356	77.61	0
2	420902	77.71	0
2	421448	77.81	0
2	421994	77.91	0
2	422548	78.01	0
2	423094	78.11	0
2	423640	78.21	0
2	424186	78.31	0
2	424732	78.41	0
2	425278	78.51	0
2	425824	78.61	0
2	426370	78.71	0
2	426916	78.81	0
2	427462	78.91	0
2	428016	79.01	0
2	428562	79.11	0
2	429108	79.21	0
2	429654	79.31	0
2	430200	79.41	0
2	430746	79.51	0
2	431292	79.61	0
2	431838	79.71	0
2	432384	79.81	0
2	432930	79.91	0
2	433484	80.01	0
2	434030	80.11	0
2	434576	80.21	0
2	435122	80.31	0
2	435668	80.41	0
2	436214	80.51	0
2	436760	80.61	0
2	437306	80.71	0
2	437852	80.81	0
2	438398	80.91	0
2	438952	81.01	0
2	439498	81.11	0
2	440044	81.21	0
2	440590	81.31	0
2	441136	81.41	0
2	441682	81.51	0
2	442228	81.61	0
2	442774	81.71	0
2	443320	81.81	0
2	443866	81.91	0
2	444420	82.01	0
2	444966	82.11	0
2	445512	82.21	0
2	446058	82.31	0
2	446604	82.41	0
2	447150	82.51	0
2	447696	82.61	0
2	448242	82.71	0
2	448788	82.81	0
2	449334	82.91	0
2	449888	83.01	0
2	450434	83.11	0
2	450980	83.21	0
2	451526	83.31	0
2	452072	83.41	0
2	452618	83.51	0
2	453164	83.61	0
2	453710	83.71	0
2	454256	83.81	0
2	454802	83.91	0
2	455356	84.01	0
2	455902	84.11	0
2	456448	84.21	0
2	456994	84.31	0
2	457540	84.41	0
2	458086	84.51	0
2	458632	84.61	0
2	459178	84.71	0
2	459724	84.81	0
2	460270	84.91	0
2	460824	85.01	0
2	461370	85.11	0
2	461916	85.21	0
2	462462	85.31	0
2	463008	85.41	0
2	463554	85.51	0
2	464100	85.61	0
2	464646	85.71	0
2	465192	85.81	0
2	465738	85.91	0
2	466292	86.01	0
2	466838	86.11	0
2	467384	86.21	0
2	467930	86.31	0
2	468476	86.41	0
2	469022	86.51	0
2	469568	86.61	0
2	470114	86.71	0
2	470660	86.81	0
2	471206	86.91	0
2	471760	87.01	0
2	472306	87.11	0
2	472852	87.21	0
2	473398	87.31	0
2	473944	87.41	0
2	474490	87.51	0
2	475036	87.61	0
2	475582	87.71	0
2	476128	87.81	0
2	476674	87.91	0
2	477228	88.01	0
2	477774	88.11	0
2	478320	88.21	0
2	478866	88.31	0
2	479412	88.41	0
2	479958	88.51	0
2	480504	88.61	0
2	481050	88.71	0
2	481596	88.81	0
2	482142	88.91	0
2	482696	89.01	0
2	483242	89.11	0
2	483788	89.21	0
2	484334	89.31	0
2	484880	89.41	0
2	485426	89.51	0
2	485972	89.61	0
2	486518	89.71	0
2	487064	89.81	0
2	487610	89.91	0
2	488164	90.01	0
2	488710	90.11	0
2	489256	90.21	0
2	489802	90.31	0
2	490348	90.41	0
2	490894	90.51	0
2	491440	90.61	0
2	491986	90.71	0
2	492532	90.81	0
2	493078	90.91	0
2	493632	91.01	0
2	494178	91.11	0
2	494724	91.21	0
2	495270	91.31	0
2	495816	91.41	0
2	496362	91.51	0
2	496908	91.61	0
2	497454	91.71	0
2	498000	91.81	0
2	498546	91.91	0
2	499100	92.01	0
2	499646	92.11	0
2	500192	92.21	0
2	500738	92.31	0
2	501284	92.41	0
2	501830	92.51	0
2	502376	92.61	0
2	502922	92.71	0
2	503468	92.81	0
2	504014	92.91	0
2	504568	93.01	0
2	505114	93.11	0
2	505660	93.21	0
2	506206	93.31	0
2	506752	93.41	0
2	507298	93.51	0
2	507844	93.61	0
2	508390	93.71	0
2	508936	93.81	0
2	509482	93.91	0
2	510036	94.01	0
2	510582	94.11	0
2	511128	94.21	0
2	511674	94.31	0
2	512220	94.41	0
2	512766	94.51	0
2	513312	94.61	0
2	513858	94.71	0
2	514404	94.81	0
2	514950	94.91	0
2	515504	95.01	0
2	516050	95.11	0
2	516596	95.21	0
2	517142	95.31	0
2	517688	95.41	0
2	518234	95.51	0
2	518780	95.61	0
2	519326	95.71	0
2	519872	95.81	0
2	520418	95.91	0
2	520972	96.01	0
2	521518	96.11	0
2	522064	96.21	0
2	522610	96.31	0
2	523156	96.41	0
2	523702	96.51	0
2	524248	96.61	0
2	524794	96.71	0
2	525340	96.81	0
2	525886	96.91	0
2	526440	97.01	0
2	526986	97.11	0
2	527532	97.21	0
2	528078	97.31	0
2	528624	97.41	0
2	529170	97.51	0
2	529716	97.61	0
2	530262	97.71	0
2	530808	97.81	0
2	531354	97.91	0
2	531908	98.01	0
2	532454	98.11	0
2	533000	98.21	0
2	533546	98.31	0
2	534092	98.41	0
2	534638	98.51	0
2	535184	98.61	0
2	535730	98.71	0
2	536276	98.81	0
2	536822	98.91	0
2	537376	99.01	0
2	537922	99.11	0
2	538468	99.21	0
2	539014	99.31	0
2	539560	99.41	0
2	540106	99.51	0
2	540652	99.61	0
2	541198	99.71	0
2	541744	99.81	0
2	542290	99.91	0
3	113	1.11	-0.000716383
3	659	1.21	-0.00136341
3	1205	1.31	-0.00186974
3	1751	1.41	-0.00225157
3	2297	1.51	-0.00252443
3	2843	1.61	-0.00270298
3	3389	1.71	-0.00280098
3	3935	1.81	-0.00283113
3	4481	1.91	-0.00280509
3	5035	2.01	-0.00273342
3	5581	2.11	-0.00262559
3	6127	2.21	-0.00249005
3	6673	2.31	-0.00233419
3	7219	2.41	-0.00216447
3	7765	2.51	-0.00198642
3	8311	2.61	-0.00180472
3	8857	2.71	-0.0016233
3	9403	2.81	-0.00144536
3	9949	2.91	-0.00127346
3	10503	3.01	-0.0011096
3	11049	3.11	-0.000955278
3	11595	3.21	-0.000811546
3	12141	3.31	-0.00067908
3	12687	3.41	-0.000558232
3	13233	3.51	-0.000449082
3	13779	3.61	-0.000351487
3	14325	3.71	-0.00026512
3	14871	3.81	-0.000189514
3	15417	3.91	-0.000124092
3	15971	4.01	-6.81972e-05
3	16517	4.11	-2.11209e-05
3	17063	4.21	1.78769e-05
3	17609	4.31	4.9548e-05
3	18155	4.41	7.46407e-05
3	18701	4.51	9.38867e-05
3	19247	4.61	0.000107991
3	19793	4.71	0.000117625
3	20339	4.81	0.000123418
3	20885	4.91	0.000125957
3	21439	5.01	0.000125781
3	21985	5.11	0.00012338
3	22531	5.21	0.000119198
3	23077	5.31	0.000113629
3	23623	5.41	0.000107022
3	24169	5.51	9.96832e-05
3	24715	5.61	9.18747e-05
3	25261	5.71	8.38211e-05
3	25807	5.81	7.57109e-05
3	26353	5.91	6.76999e-05
3	26907	6.01	5.99137e-05
3	27453	6.11	5.24518e-05
3	27999	6.21	4.53896e-05
3	28545	6.31	3.87821e-05
3	29091	6.41	3.2666e-05
3	29637	6.51	2.70628e-05
3	30183	6.61	2.19809e-05
3	30729	6.71	1.74176e-05
3	31275	6.81	1.33618e-05
3	31821	6.91	9.79494e-06
3	32375	7.01	6.6932e-06
3	32921	7.11	4.02864e-06
3	33467	7.21	1.77051e-06
3	34013	7.31	-1.13691e-07
3	34559	7.41	-1.65736e-06
3	35105	7.51	-2.89397e-06
3	35651	7.61	-3.85652e-06
3	36197	7.71	-4.57698e-06
3	36743	7.81	-5.08591e-06
3	37289	7.91	-5.41219e-06
3	37843	8.01	-5.58279e-06
3	38389	8.11	-5.6226e-06
3	38935	8.21	-5.55442e-06
3	39481	8.31	-5.39886e-06
3	40027	8.41	-5.17441e-06
3	40573	8.51	-4.89748e-06
3	41119	8.61	-4.58246e-06
3	41665	8.71	-4.24184e-06
3	42211	8.81	-3.88634e-06
3	42757	8.91	-3.52499e-06
3	43311	9.01	-3.16534e-06
3	43857	9.11	-2.81353e-06
3	44403	9.21	-2.47446e-06
3	44949	9.31	-2.15192e-06
3	45495	9.41	-1.84873e-06
3	46041	9.51	-1.56685e-06
3	46587	9.61	-1.30751e-06
3	47133	9.71	-1.0713e-06
3	47679	9.81	-8.58321e-07
3	48225	9.91	-6.68206e-07
3	50724	10.01	-5.0026e-07
3	51270	10.11	-3.53514e-07
3	51816	10.21	-2.2679e-07
3	52362	10.31	-1.18765e-07
3	52908	10.41	-2.80163e-08
3	53454	10.51	4.6931e-08
3	54000	10.61	1.07573e-07
3	54546	10.71	1.55391e-07
3	55092	10.81	1.91831e-07
3	55638	10.91	2.18284e-07
3	56192	11.01	2.3607e-07
3	56738	11.11	2.46427e-07
3	57284	11.21	2.50502e-07
3	57830	11.31	2.49353e-07
3	58376	11.41	2.43938e-07
3	58922	11.51	2.3512e-07
3	59468	11.61	2.23669e-07
3	60014	11.71	2.10264e-07
3	60560	11.81	1.95496e-07
3	61106	11.91	1.79874e-07
3	61660	12.01	1.63833e-07
3	62206	12.11	1.47736e-07
3	62752	12.21	1.3188e-07
3	63298	12.31	1.16508e-07
3	63844	12.41	1.01807e-07
3	64390	12.51	8.79222e-08
3	64936	12.61	7.49541e-08
3	65482	12.71	6.29711e-08
3	66028	12.81	5.20114e-08
3	66574	12.91	4.20883e-08
3	67128	13.01	3.3193e-08
3	67674	13.11	2.53003e-08
3	68220	13.21	1.83718e-08
3	68766	13.31	1.23581e-08
3	69312	13.41	7.20348e-09
3	69858	13.51	2.84537e-09
3	70404	13.61	-7.80886e-10
3	70950	13.71	-3.74136e-09
3	71496	13.81	-6.10285e-09
3	72042	13.91	-7.93072e-09
3	72596	14.01	-9.28821e-09
3	73142	14.11	-1.0235e-08
3	73688	14.21	-1.08283e-08
3	74234	14.31	-1.11211e-08
3	74780	14.41	-1.11612e-08
3	75326	14.51	-1.09946e-08
3	75872	14.61	-1.06599e-08
3	76418	14.71	-1.01945e-08
3	76964	14.81	-9.62999e-09
3	77510	14.91	-8.99405e-09
3	78064	15.01	-8.31086e-09
3	78610	15.11	-7.60103e-09
3	79156	15.21	-6.88338e-09
3	79702	15.31	-6.17071e-09
3	80248	15.41	-5.47544e-09
3	80794	15.51	-4.80682e-09
3	81340	15.61	-4.17266e-09
3	81886	15.71	-3.57687e-09
3	82432	15.81	-3.02443e-09
3	82978	15.91	-2.51674e-09
3	83532	16.01	-2.05489e-09
3	84078	16.11	-1.63958e-09
3	84624	16.21	-1.26903e-09
3	85170	16.31	-9.42535e-10
3	85716	16.41	-6.57963e-10
3	86262	16.51	-4.1247e-10
3	86808	16.61	-2.04636e-10
3	87354	16.71	-2.91323e-11
3	87900	16.81	1.14753e-10
3	88446	16.91	2.30926e-10
3	89000	17.01	3.22231e-10
3	89546	17.11	3.91154e-10
3	90092	17.21	4.40892e-10
3	90638	17.31	4.73577e-10
3	91184	17.41	4.92051e-10
3	91730	17.51	4.98446e-10
3	92276	17.61	4.94893e-10
3	92822	17.71	4.82814e-10
3	93368	17.81	4.6434e-10
3	93914	17.91	4.40892e-10
3	94468	18.01	4.13536e-10
3	95014	18.11	3.83693e-10
3	95560	18.21	3.51719e-10
3	96106	18.31	3.19744e-10
3	96652	18.41	2.8777e-10
3	97198	18.51	2.55795e-10
3	97744	18.61	2.25953e-10
3	98290	18.71	1.97531e-10
3	98836	18.81	1.6982e-10
3	99382	18.91	1.44951e-10
3	99936	19.01	1.21503e-10
3	100482	19.11	1.00187e-10
3	101028	19.21	8.10019e-11
3	101574	19.31	6.32383e-11
3	102120	19.41	4.86722e-11
3	102666	19.51	3.44613e-11
3	103212	19.61	2.34479e-11
3	103758	19.71	1.27898e-11
3	104304	19.81	4.9738e-12
3	104850	19.91	-2.13163e-12
3	105404	20.01	-8.17124e-12
3	105950	20.11	-1.1724e-11
3	106496	20.21	-1.52767e-11
3	107042	20.31	-1.88294e-11
3	107588	20.41	-2.02505e-11
3	108134	20.51	-2.02505e-11
3	108680	20.61	-2.02505e-11
3	109226	20.71	-2.02505e-11
3	109772	20.81	-2.02505e-11
3	110318	20.91	-2.02505e-11
3	110872	21.01	-2.02505e-11
3	111418	21.11	-2.02505e-11
3	111964	21.21	-2.02505e-11
3	112510	21.31	-1.88294e-11
3	113056	21.41	-1.7053e-11
3	113602	21.51	-1.52767e-11
3	114148	21.61	-1.38556e-11
3	114694	21.71	-1.24345e-11
3	115240	21.81	-1.13687e-11
3	115786	21.91	-1.03029e-11
3	116340	22.01	-9.23706e-12
3	116886	22.11	-8.52651e-12
3	117432	22.21	-7.4607e-12
3	117978	22.31	-6.75016e-12
3	118524	22.41	-6.03961e-12
3	119070	22.51	-5.68434e-12
3	119616	22.61	-4.9738e-12
3	120162	22.71	-4.61853e-12
3	120708	22.81	-4.26326e-12
3	121254	22.91	-3.90799e-12
3	121808	23.01	-3.55271e-12
3	122354	23.11	-3.19744e-12
3	122900	23.21	-2.84217e-12
3	123446	23.31	-2.4869e-12
3	123992	23.41	-2.13163e-12
3	124538	23.51	-2.13163e-12
3	125084	23.61	-1.77636e-12
3	125630	23.71	-1.77636e-12
3	126176	23.81	-1.42109e-12
3	126722	23.91	-1.42109e-12
3	127276	24.01	-1.06581e-12
3	127822	24.11	-1.06581e-12
3	128368	24.21	-1.06581e-12
3	128914	24.31	-1.06581e-12
3	129460	24.41	-7.10543e-13
3	130006	24.51	-7.10543e-13
3	130552	24.61	-7.10543e-13
3	131098	24.71	-7.10543e-13
3	131644	24.81	-7.10543e-13
3	132190	24.91	-3.55271e-13
3	132744	25.01	-3.55271e-13
3	133290	25.11	-3.55271e-13
3	133836	25.21	-3.55271e-13
3	134382	25.31	-3.55271e-13
3	134928	25.41	-3.55271e-13
3	135474	25.51	-3.55271e-13
3	136020	25.61	-3.55271e-13
3	136566	25.71	-3.55271e-13
3	137112	25.81	-3.55271e-13
3	137658	25.91	0
3	138212	26.01	0
3	138758	26.11	0
3	139304	26.21	0
3	139850	26.31	0
3	140396	26.41	0
3	140942	26.51	0
3	141488	26.61	0
3	142034	26.71	0
3	142580	26.81	0
3	143126	26.91	0
3	143680	27.01	0
3	144226	27.11	0
3	144772	27.21	0
3	145318	27.31	0
3	145864	27.41	0
3	146410	27.51	0
3	146956	27.61	0
3	147502	27.71	0
3	148048	27.81	0
3	148594	27.91	0
3	149148	28.01	0
3	149694	28.11	0
3	150240	28.21	0
3	150786	28.31	0
3	151332	28.41	0
3	151878	28.51	0
3	152424	28.61	0
3	152970	28.71	0
3	153516	28.81	0
3	154062	28.91	0
3	154616	29.01	0
3	155162	29.11	0
3	155708	29.21	0
3	156254	29.31	0
3	156800	29.41	0
3	157346	29.51	0
3	157892	29.61	0
3	158438	29.71	0
3	158984	29.81	0
3	159530	29.91	0
3	160084	30.01	0
3	160630	30.11	0
3	161176	30.21	0
3	161722	30.31	0
3	162268	30.41	0
3	162814	30.51	0
3	163360	30.61	0
3	163906	30.71	0
3	164452	30.81	0
3	164998	30.91	0
3	165552	31.01	0
3	166098	31.11	0
3	166644	31.21	0
3	167190	31.31	0
3	167736	31.41	0
3	168282	31.51	0
3	168828	31.61	0
3	169374	31.71	0
3	169920	31.81	0
3	170466	31.91	0
3	171020	32.01	0
3	171566	32.11	0
3	172112	32.21	0
3	172658	32.31	0
3	173204	32.41	0
3	173750	32.51	0
3	174296	32.61	0
3	174842	32.71	0
3	175388	32.81	0
3	175934	32.91	0
3	176488	33.01	0
3	177034	33.11	0
3	177580	33.21	0
3	178126	33.31	0
3	178672	33.41	0
3	179218	33.51	0
3	179764	33.61	0
3	180310	33.71	0
3	180856	33.81	0
3	181402	33.91	0
3	181956	34.01	0
3	182502	34.11	0
3	183048	34.21	0
3	183594	34.31	0
3	184140	34.41	0
3	184686	34.51	0
3	185232	34.61	0
3	185778	34.71	0
3	186324	34.81	0
3	186870	34.91	0
3	187424	35.01	0
3	187970	35.11	0
3	188516	35.21	0
3	189062	35.31	0
3	189608	35.41	0
3	190154	35.51	0
3	190700	35.61	0
3	191246	35.71	0
3	191792	35.81	0
3	192338	35.91	0
3	192892	36.01	0
3	193438	36.11	0
3	193984	36.21	0
3	194530	36.31	0
3	195076	36.41	0
3	195622	36.51	0
3	196168	36.61	0
3	196714	36.71	0
3	197260	36.81	0
3	197806	36.91	0
3	198360	37.01	0
3	198906	37.11	0
3	199452	37.21	0
3	199998	37.31	0
3	200544	37.41	0
3	201090	37.51	0
3	201636	37.61	0
3	202182	37.71	0
3	202728	37.81	0
3	203274	37.91	0
3	203828	38.01	0
3	204374	38.11	0
3	204920	38.21	0
3	205466	38.31	0
3	206012	38.41	0
3	206558	38.51	0
3	207104	38.61	0
3	207650	38.71	0
3	208196	38.81	0
3	208742	38.91	0
3	209296	39.01	0
3	209842	39.11	0
3	210388	39.21	0
3	210934	39.31	0
3	211480	39.41	0
3	212026	39.51	0
3	212572	39.61	0
3	213118	39.71	0
3	213664	39.81	0
3	214210	39.91	0
3	214764	40.01	0
3	215310	40.11	0
3	215856	40.21	0
3	216402	40.31	0
3	216948	40.41	0
3	217494	40.51	0
3	218040	40.61	0
3	218586	40.71	0
3	219132	40.81	0
3	219678	40.91	0
3	220232	41.01	0
3	220778	41.11	0
3	221324	41.21	0
3	221870	41.31	0
3	222416	41.41	0
3	222962	41.51	0
3	223508	41.61	0
3	224054	41.71	0
3	224600	41.81	0
3	225146	41.91	0
3	225700	42.01	0
3	226246	42.11	0
3	226792	42.21	0
3	227338	42.31	0
3	227884	42.41	0
3	228430	42.51	0
3	228976	42.61	0
3	229522	42.71	0
3	230068	42.81	0
3	230614	42.91	0
3	231168	43.01	0
3	231714	43.11	0
3	232260	43.21	0
3	232806	43.31	0
3	233352	43.41	0
3	233898	43.51	0
3	234444	43.61	0
3	234990	43.71	0
3	235536	43.81	0
3	236082	43.91	0
3	236636	44.01	0
3	237182	44.11	0
3	237728	44.21	0
3	238274	44.31	0
3	238820	44.41	0
3	239366	44.51	0
3	239912	44.61	0
3	240458	44.71	0
3	241004	44.81	0
3	241550	44.91	0
3	242104	45.01	0
3	242650	45.11	0
3	243196	45.21	0
3	243742	45.31	0
3	244288	45.41	0
3	244834	45.51	0
3	245380	45.61	0
3	245926	45.71	0
3	246472	45.81	0
3	247018	45.91	0
3	247572	46.01	0
3	248118	46.11	0
3	248664	46.21	0
3	249210	46.31	0
3	249756	46.41	0
3	250302	46.51	0
3	250848	46.61	0
3	251394	46.71	0
3	251940	46.81	0
3	252486	46.91	0
3	253040	47.01	0
3	253586	47.11	0
3	254132	47.21	0
3	254678	47.31	0
3	255224	47.41	0
3	255770	47.51	0
3	256316	47.61	0
3	256862	47.71	0
3	257408	47.81	0
3	257954	47.91	0
3	258508	48.01	0
3	259054	48.11	0
3	259600	48.21	0
3	260146	48.31	0
3	260692	48.41	0
3	261238	48.51	0
3	261784	48.61	0
3	262330	48.71	0
3	262876	48.81	0
3	263422	48.91	0
3	263976	49.01	0
3	264522	49.11	0
3	265068	49.21	0
3	265614	49.31	0
3	266160	49.41	0
3	266706	49.51	0
3	267252	49.61	0
3	267798	49.71	0
3	268344	49.81	0
3	268890	49.91	0
3	269444	50.01	0
3	269990	50.11	0
3	270536	50.21	0
3	271082	50.31	0
3	271628	50.41	0
3	272174	50.51	0
3	272720	50.61	0
3	273266	50.71	0
3	273812	50.81	0
3	274358	50.91	0
3	274912	51.01	0
3	275458	51.11	0
3	276004	51.21	0
3	276550	51.31	0
3	277096	51.41	0
3	277642	51.51	0
3	278188	51.61	0
3	278734	51.71	0
3	279280	51.81	0
3	279826	51.91	0
3	280380	52.01	0
3	280926	52.11	0
3	281472	52.21	0
3	282018	52.31	0
3	282564	52.41	0
3	283110	52.51	0
3	283656	52.61	0
3	284202	52.71	0
3	284748	52.81	0
3	285294	52.91	0
3	285848	53.01	0
3	286394	53.11	0
3	286940	53.21	0
3	287486	53.31	0
3	288032	53.41	0
3	288578	53.51	0
3	289124	53.61	0
3	289670	53.71	0
3	290216	53.81	0
3	290762	53.91	0
3	291316	54.01	0
3	291862	54.11	0
3	292408	54.21	0
3	292954	54.31	0
3	293500	54.41	0
3	294046	54.51	0
3	294592	54.61	0
3	295138	54.71	0
3	295684	54.81	0
3	296230	54.91	0
3	296784	55.01	0
3	297330	55.11	0
3	297876	55.21	0
3	298422	55.31	0
3	298968	55.41	0
3	299514	55.51	0
3	300060	55.61	0
3	300606	55.71	0
3	301152	55.81	0
3	301698	55.91	0
3	302252	56.01	0
3	302798	56.11	0
3	303344	56.21	0
3	303890	56.31	0
3	304436	56.41	0
3	304982	56.51	0
[...]
104	395137	73	4
104	400605	74	4
104	406073	75	4
104	411541	76	4
104	417009	77	4
104	422477	78	4
104	427945	79	4
104	433413	80	4
104	438881	81	4
104	444349	82	4
104	449817	83	4
104	455285	84	4
104	460753	85	4
104	466221	86	4
104	471689	87	4
104	477157	88	4
104	482625	89	4
104	488093	90	4
104	493561	91	4
104	499029	92	4
104	504497	93	4
104	509965	94	4
104	515433	95	4
104	520901	96	4
104	526369	97	4
104	531837	98	4
104	537305	99	4
104	542773	100	4
105	4964	2	0.022161
105	10432	3	0.02497
105	15900	4	0.02497
105	21368	5	0.02497
105	26836	6	0.02497
105	32304	7	0.02497
105	37772	8	0.02497
105	43240	9	0.02497
105	48709	10	0.02497
105	56121	11	0.026890440288
105	61589	12	0.02497
105	67057	13	0.02497
105	72525	14	0.02497
105	77993	15	0.02497
105	83461	16	0.02497
105	88929	17	0.02497
105	94397	18	0.02497
105	99865	19	0.02497
105	105333	20	0.02497
105	110801	21	0.02497
105	116269	22	0.02497
105	121737	23	0.02497
105	127205	24	0.02497
105	132673	25	0.02497
105	138141	26	0.02497
105	143609	27	0.02497
105	149077	28	0.02497
105	154545	29	0.02497
105	160013	30	0.02497
105	165481	31	0.02497
105	170949	32	0.02497
105	176417	33	0.02497
105	181885	34	0.02497
105	187353	35	0.02497
105	192821	36	0.02497
105	198289	37	0.02497
105	203757	38	0.02497
105	209225	39	0.02497
105	214693	40	0.02497
105	220161	41	0.02497
105	225629	42	0.02497
105	231097	43	0.02497
105	236565	44	0.02497
105	242033	45	0.02497
105	247501	46	0.02497
105	252969	47	0.02497
105	258437	48	0.02497
105	263905	49	0.02497
105	269373	50	0.02497
105	274841	51	0.02497
105	280309	52	0.02497
105	285777	53	0.02497
105	291245	54	0.02497
105	296713	55	0.02497
105	302181	56	0.02497
105	307649	57	0.02497
105	313117	58	0.02497
105	318585	59	0.02497
105	324053	60	0.02497
105	329521	61	0.02497
105	334989	62	0.02497
105	340457	63	0.02497
105	345925	64	0.02497
105	351393	65	0.02497
105	356861	66	0.02497
105	362329	67	0.02497
105	367797	68	0.02497
105	373265	69	0.02497
105	378733	70	0.02497
105	384201	71	0.02497
105	389669	72	0.02497
105	395137	73	0.02497
105	400605	74	0.02497
105	406073	75	0.02497
105	411541	76	0.02497
105	417009	77	0.02497
105	422477	78	0.02497
105	427945	79	0.02497
105	433413	80	0.02497
105	438881	81	0.02497
105	444349	82	0.02497
105	449817	83	0.02497
105	455285	84	0.02497
105	460753	85	0.02497
105	466221	86	0.02497
105	471689	87	0.02497
105	477157	88	0.02497
105	482625	89	0.02497
105	488093	90	0.02497
105	493561	91	0.02497
105	499029	92	0.02497
105	504497	93	0.02497
105	509965	94	0.02497
105	515433	95	0.02497
105	520901	96	0.02497
105	526369	97	0.02497
105	531837	98	0.02497
105	537305	99	0.02497
105	542773	100	0.02497
106	4964	2	0
106	10432	3	0
106	15900	4	0
106	21368	5	0
106	26836	6	0
106	32304	7	0
106	37772	8	0
106	43240	9	0
106	48709	10	0
106	56121	11	0
106	61589	12	0
106	67057	13	0
106	72525	14	0
106	77993	15	0
106	83461	16	0
106	88929	17	0
106	94397	18	0
106	99865	19	0
106	105333	20	0
106	110801	21	0
106	116269	22	0
106	121737	23	0
106	127205	24	0
106	132673	25	0
106	138141	26	0
106	143609	27	0
106	149077	28	0
106	154545	29	0
106	160013	30	0
106	165481	31	0
106	170949	32	0
106	176417	33	0
106	181885	34	0
106	187353	35	0
106	192821	36	0
106	198289	37	0
106	203757	38	0
106	209225	39	0
106	214693	40	0
106	220161	41	0
106	225629	42	0
106	231097	43	0
106	236565	44	0
106	242033	45	0
106	247501	46	0
106	252969	47	0
106	258437	48	0
106	263905	49	0
106	269373	50	0
106	274841	51	0
106	280309	52	0
106	285777	53	0
106	291245	54	0
106	296713	55	0
106	302181	56	0
106	307649	57	0
106	313117	58	0
106	318585	59	0
106	324053	60	0
106	329521	61	0
106	334989	62	0
106	340457	63	0
106	345925	64	0
106	351393	65	0
106	356861	66	0
106	362329	67	0
106	367797	68	0
106	373265	69	0
106	378733	70	0
106	384201	71	0
106	389669	72	0
106	395137	73	0
106	400605	74	0
106	406073	75	0
106	411541	76	0
106	417009	77	0
106	422477	78	0
106	427945	79	0
106	433413	80	0
106	438881	81	0
106	444349	82	0
106	449817	83	0
106	455285	84	0
106	460753	85	0
106	466221	86	0
106	471689	87	0
106	477157	88	0
106	482625	89	0
106	488093	90	0
106	493561	91	0
106	499029	92	0
106	504497	93	0
106	509965	94	0
106	515433	95	0
106	520901	96	0
106	526369	97	0
106	531837	98	0
106	537305	99	0
106	542773	100	0
107	4965	2	5
107	10433	3	5
107	15901	4	5
107	21369	5	5
107	26837	6	5
107	32305	7	5
107	37773	8	5
107	43241	9	5
107	48710	10	5
107	56122	11	5
107	61590	12	5
107	67058	13	5
107	72526	14	5
107	77994	15	5
107	83462	16	5
107	88930	17	5
107	94398	18	5
107	99866	19	5
107	105334	20	5
107	110802	21	5
107	116270	22	5
107	121738	23	5
107	127206	24	5
107	132674	25	5
107	138142	26	5
107	143610	27	5
107	149078	28	5
107	154546	29	5
107	160014	30	5
107	165482	31	5
107	170950	32	5
107	176418	33	5
107	181886	34	5
107	187354	35	5
107	192822	36	5
107	198290	37	5
107	203758	38	5
107	209226	39	5
107	214694	40	5
107	220162	41	5
107	225630	42	5
107	231098	43	5
107	236566	44	5
107	242034	45	5
107	247502	46	5
107	252970	47	5
107	258438	48	5
107	263906	49	5
107	269374	50	5
107	274842	51	5
107	280310	52	5
107	285778	53	5
107	291246	54	5
107	296714	55	5
107	302182	56	5
107	307650	57	5
107	313118	58	5
107	318586	59	5
107	324054	60	5
107	329522	61	5
107	334990	62	5
107	340458	63	5
107	345926	64	5
107	351394	65	5
107	356862	66	5
107	362330	67	5
107	367798	68	5
107	373266	69	5
107	378734	70	5
107	384202	71	5
107	389670	72	5
107	395138	73	5
107	400606	74	5
107	406074	75	5
107	411542	76	5
107	417010	77	5
107	422478	78	5
107	427946	79	5
107	433414	80	5
107	438882	81	5
107	444350	82	5
107	449818	83	5
107	455286	84	5
107	460754	85	5
107	466222	86	5
107	471690	87	5
107	477158	88	5
107	482626	89	5
107	488094	90	5
107	493562	91	5
107	499030	92	5
107	504498	93	5
107	509966	94	5
107	515434	95	5
107	520902	96	5
107	526370	97	5
107	531838	98	5
107	537306	99	5
107	542774	100	5
108	4965	2	0.022161
108	10433	3	0.02497
108	15901	4	0.02497
108	21369	5	0.02497
108	26837	6	0.02497
108	32305	7	0.02497
108	37773	8	0.02497
108	43241	9	0.02497
108	48710	10	0.02497
108	56122	11	0.026976640419
108	61590	12	0.02497
108	67058	13	0.02497
108	72526	14	0.02497
108	77994	15	0.02497
108	83462	16	0.02497
108	88930	17	0.02497
108	94398	18	0.02497
108	99866	19	0.02497
108	105334	20	0.02497
108	110802	21	0.02497
108	116270	22	0.02497
108	121738	23	0.02497
108	127206	24	0.02497
108	132674	25	0.02497
108	138142	26	0.02497
108	143610	27	0.02497
108	149078	28	0.02497
108	154546	29	0.02497
108	160014	30	0.02497
108	165482	31	0.02497
108	170950	32	0.02497
108	176418	33	0.02497
108	181886	34	0.02497
108	187354	35	0.02497
108	192822	36	0.02497
108	198290	37	0.02497
108	203758	38	0.02497
108	209226	39	0.02497
108	214694	40	0.02497
108	220162	41	0.02497
108	225630	42	0.02497
108	231098	43	0.02497
108	236566	44	0.02497
108	242034	45	0.02497
108	247502	46	0.02497
108	252970	47	0.02497
108	258438	48	0.02497
108	263906	49	0.02497
108	269374	50	0.02497
108	274842	51	0.02497
108	280310	52	0.02497
108	285778	53	0.02497
108	291246	54	0.02497
108	296714	55	0.02497
108	302182	56	0.02497
108	307650	57	0.02497
108	313118	58	0.02497
108	318586	59	0.02497
108	324054	60	0.02497
108	329522	61	0.02497
108	334990	62	0.02497
108	340458	63	0.02497
108	345926	64	0.02497
108	351394	65	0.02497
108	356862	66	0.02497
108	362330	67	0.02497
108	367798	68	0.02497
108	373266	69	0.02497
108	378734	70	0.02497
108	384202	71	0.02497
108	389670	72	0.02497
108	395138	73	0.02497
108	400606	74	0.02497
108	406074	75	0.02497
108	411542	76	0.02497
108	417010	77	0.02497
108	422478	78	0.02497
108	427946	79	0.02497
108	433414	80	0.02497
108	438882	81	0.02497
108	444350	82	0.02497
108	449818	83	0.02497
108	455286	84	0.02497
108	460754	85	0.02497
108	466222	86	0.02497
108	471690	87	0.02497
108	477158	88	0.02497
108	482626	89	0.02497
108	488094	90	0.02497
108	493562	91	0.02497
108	499030	92	0.02497
108	504498	93	0.02497
108	509966	94	0.02497
108	515434	95	0.02497
108	520902	96	0.02497
108	526370	97	0.02497
108	531838	98	0.02497
108	537306	99	0.02497
108	542774	100	0.02497
109	4965	2	0
109	10433	3	0
109	15901	4	0
109	21369	5	0
109	26837	6	0
109	32305	7	0
109	37773	8	0
109	43241	9	0
109	48710	10	0
109	56122	11	0
109	61590	12	0
109	67058	13	0
109	72526	14	0
109	77994	15	0
109	83462	16	0
109	88930	17	0
109	94398	18	0
109	99866	19	0
109	105334	20	0
109	110802	21	0
109	116270	22	0
109	121738	23	0
109	127206	24	0
109	132674	25	0
109	138142	26	0
109	143610	27	0
109	149078	28	0
109	154546	29	0
109	160014	30	0
109	165482	31	0
109	170950	32	0
109	176418	33	0
109	181886	34	0
109	187354	35	0
109	192822	36	0
109	198290	37	0
109	203758	38	0
109	209226	39	0
109	214694	40	0
109	220162	41	0
109	225630	42	0
109	231098	43	0
109	236566	44	0
109	242034	45	0
109	247502	46	0
109	252970	47	0
109	258438	48	0
109	263906	49	0
109	269374	50	0
109	274842	51	0
109	280310	52	0
109	285778	53	0
109	291246	54	0
109	296714	55	0
109	302182	56	0
109	307650	57	0
109	313118	58	0
109	318586	59	0
109	324054	60	0
109	329522	61	0
109	334990	62	0
109	340458	63	0
109	345926	64	0
109	351394	65	0
109	356862	66	0
109	362330	67	0
109	367798	68	0
109	373266	69	0
109	378734	70	0
109	384202	71	0
109	389670	72	0
109	395138	73	0
109	400606	74	0
109	406074	75	0
109	411542	76	0
109	417010	77	0
109	422478	78	0
109	427946	79	0
109	433414	80	0
109	438882	81	0
109	444350	82	0
109	449818	83	0
109	455286	84	0
109	460754	85	0
109	466222	86	0
109	471690	87	0
109	477158	88	0
109	482626	89	0
109	488094	90	0
109	493562	91	0
109	499030	92	0
109	504498	93	0
109	509966	94	0
109	515434	95	0
109	520902	96	0
109	526370	97	0
109	531838	98	0
109	537306	99	0
109	542774	100	0
110	4966	2	6
110	10434	3	6
110	15902	4	6
110	21370	5	6
110	26838	6	6
110	32306	7	6
110	37774	8	6
110	43242	9	6
110	48711	10	6
110	56123	11	6
110	61591	12	6
110	67059	13	6
110	72527	14	6
110	77995	15	6
110	83463	16	6
110	88931	17	6
110	94399	18	6
110	99867	19	6
110	105335	20	6
110	110803	21	6
110	116271	22	6
110	121739	23	6
110	127207	24	6
110	132675	25	6
110	138143	26	6
110	143611	27	6
110	149079	28	6
110	154547	29	6
110	160015	30	6
110	165483	31	6
110	170951	32	6
110	176419	33	6
110	181887	34	6
110	187355	35	6
110	192823	36	6
110	198291	37	6
110	203759	38	6
110	209227	39	6
110	214695	40	6
110	220163	41	6
110	225631	42	6
110	231099	43	6
110	236567	44	6
110	242035	45	6
110	247503	46	6
110	252971	47	6
110	258439	48	6
110	263907	49	6
110	269375	50	6
110	274843	51	6
110	280311	52	6
110	285779	53	6
110	291247	54	6
110	296715	55	6
110	302183	56	6
110	307651	57	6
110	313119	58	6
110	318587	59	6
110	324055	60	6
110	329523	61	6
110	334991	62	6
110	340459	63	6
110	345927	64	6
110	351395	65	6
110	356863	66	6
110	362331	67	6
110	367799	68	6
110	373267	69	6
110	378735	70	6
110	384203	71	6
110	389671	72	6
110	395139	73	6
110	400607	74	6
110	406075	75	6
110	411543	76	6
110	417011	77	6
110	422479	78	6
110	427947	79	6
110	433415	80	6
110	438883	81	6
110	444351	82	6
110	449819	83	6
110	455287	84	6
110	460755	85	6
110	466223	86	6
110	471691	87	6
110	477159	88	6
110	482627	89	6
110	488095	90	6
110	493563	91	6
110	499031	92	6
110	504499	93	6
110	509967	94	6
110	515435	95	6
110	520903	96	6
110	526371	97	6
110	531839	98	6
110	537307	99	6
110	542775	100	6
111	4966	2	0.02216
111	10434	3	0.02497
111	15902	4	0.02497
111	21370	5	0.02497
111	26838	6	0.02497
111	32306	7	0.02497
111	37774	8	0.02497
111	43242	9	0.02497
111	48711	10	0.02497
111	56123	11	0.027009640411
111	61591	12	0.02497
111	67059	13	0.02497
111	72527	14	0.02497
111	77995	15	0.02497
111	83463	16	0.02497
111	88931	17	0.02497
111	94399	18	0.02497
111	99867	19	0.02497
111	105335	20	0.02497
111	110803	21	0.02497
111	116271	22	0.02497
111	121739	23	0.02497
111	127207	24	0.02497
111	132675	25	0.02497
111	138143	26	0.02497
111	143611	27	0.02497
111	149079	28	0.02497
111	154547	29	0.02497
111	160015	30	0.02497
111	165483	31	0.02497
111	170951	32	0.02497
111	176419	33	0.02497
111	181887	34	0.02497
111	187355	35	0.02497
111	192823	36	0.02497
111	198291	37	0.02497
111	203759	38	0.02497
111	209227	39	0.02497
111	214695	40	0.02497
111	220163	41	0.02497
111	225631	42	0.02497
111	231099	43	0.02497
111	236567	44	0.02497
111	242035	45	0.02497
111	247503	46	0.02497
111	252971	47	0.02497
111	258439	48	0.02497
111	263907	49	0.02497
111	269375	50	0.02497
111	274843	51	0.02497
111	280311	52	0.02497
111	285779	53	0.02497
111	291247	54	0.02497
111	296715	55	0.02497
111	302183	56	0.02497
111	307651	57	0.02497
111	313119	58	0.02497
111	318587	59	0.02497
111	324055	60	0.02497
111	329523	61	0.02497
111	334991	62	0.02497
111	340459	63	0.02497
111	345927	64	0.02497
111	351395	65	0.02497
111	356863	66	0.02497
111	362331	67	0.02497
111	367799	68	0.02497
111	373267	69	0.02497
111	378735	70	0.02497
111	384203	71	0.02497
111	389671	72	0.02497
111	395139	73	0.02497
111	400607	74	0.02497
111	406075	75	0.02497
111	411543	76	0.02497
111	417011	77	0.02497
111	422479	78	0.02497
111	427947	79	0.02497
111	433415	80	0.02497
111	438883	81	0.02497
111	444351	82	0.02497
111	449819	83	0.02497
111	455287	84	0.02497
111	460755	85	0.02497
111	466223	86	0.02497
111	471691	87	0.02497
111	477159	88	0.02497
111	482627	89	0.02497
111	488095	90	0.02497
111	493563	91	0.02497
111	499031	92	0.02497
111	504499	93	0.02497
111	509967	94	0.02497
111	515435	95	0.02497
111	520903	96	0.02497
111	526371	97	0.02497
111	531839	98	0.02497
111	537307	99	0.02497
111	542775	100	0.02497
112	4966	2	0
112	10434	3	0
112	15902	4	0
112	21370	5	0
112	26838	6	0
112	32306	7	0
112	37774	8	0
112	43242	9	0
112	48711	10	0
112	56123	11	0
112	61591	12	0
112	67059	13	0
112	72527	14	0
112	77995	15	0
112	83463	16	0
112	88931	17	0
112	94399	18	0
112	99867	19	0
112	105335	20	0
112	110803	21	0
112	116271	22	0
112	121739	23	0
112	127207	24	0
112	132675	25	0
112	138143	26	0
112	143611	27	0
112	149079	28	0
112	154547	29	0
112	160015	30	0
112	165483	31	0
112	170951	32	0
112	176419	33	0
112	181887	34	0
112	187355	35	0
112	192823	36	0
112	198291	37	0
112	203759	38	0
112	209227	39	0
112	214695	40	0
112	220163	41	0
112	225631	42	0
112	231099	43	0
112	236567	44	0
112	242035	45	0
112	247503	46	0
112	252971	47	0
112	258439	48	0
112	263907	49	0
112	269375	50	0
112	274843	51	0
112	280311	52	0
112	285779	53	0
112	291247	54	0
112	296715	55	0
112	302183	56	0
112	307651	57	0
112	313119	58	0
112	318587	59	0
112	324055	60	0
112	329523	61	0
112	334991	62	0
112	340459	63	0
112	345927	64	0
112	351395	65	0
112	356863	66	0
112	362331	67	0
112	367799	68	0
112	373267	69	0
112	378735	70	0
112	384203	71	0
112	389671	72	0
112	395139	73	0
112	400607	74	0
112	406075	75	0
112	411543	76	0
112	417011	77	0
112	422479	78	0
112	427947	79	0
112	433415	80	0
112	438883	81	0
112	444351	82	0
112	449819	83	0
112	455287	84	0
112	460755	85	0
112	466223	86	0
112	471691	87	0
112	477159	88	0
112	482627	89	0
112	488095	90	0
112	493563	91	0
112	499031	92	0
112	504499	93	0
112	509967	94	0
112	515435	95	0
112	520903	96	0
112	526371	97	0
112	531839	98	0
112	537307	99	0
112	542775	100	0
113	4967	2	7
113	10435	3	7
113	15903	4	7
113	21371	5	7
113	26839	6	7
113	32307	7	7
113	37775	8	7
113	43243	9	7
113	48712	10	7
113	56124	11	7
113	61592	12	7
113	67060	13	7
113	72528	14	7
113	77996	15	7
113	83464	16	7
113	88932	17	7
113	94400	18	7
113	99868	19	7
113	105336	20	7
113	110804	21	7
113	116272	22	7
113	121740	23	7
113	127208	24	7
113	132676	25	7
113	138144	26	7
113	143612	27	7
113	149080	28	7
113	154548	29	7
113	160016	30	7
113	165484	31	7
113	170952	32	7
113	176420	33	7
113	181888	34	7
113	187356	35	7
113	192824	36	7
113	198292	37	7
113	203760	38	7
113	209228	39	7
113	214696	40	7
113	220164	41	7
113	225632	42	7
113	231100	43	7
113	236568	44	7
113	242036	45	7
113	247504	46	7
113	252972	47	7
113	258440	48	7
113	263908	49	7
113	269376	50	7
113	274844	51	7
113	280312	52	7
113	285780	53	7
113	291248	54	7
113	296716	55	7
113	302184	56	7
113	307652	57	7
113	313120	58	7
113	318588	59	7
113	324056	60	7
113	329524	61	7
113	334992	62	7
113	340460	63	7
113	345928	64	7
113	351396	65	7
113	356864	66	7
113	362332	67	7
113	367800	68	7
113	373268	69	7
113	378736	70	7
113	384204	71	7
113	389672	72	7
113	395140	73	7
113	400608	74	7
113	406076	75	7
113	411544	76	7
113	417012	77	7
113	422480	78	7
113	427948	79	7
113	433416	80	7
113	438884	81	7
113	444352	82	7
113	449820	83	7
113	455288	84	7
113	460756	85	7
113	466224	86	7
113	471692	87	7
113	477160	88	7
113	482628	89	7
113	488096	90	7
113	493564	91	7
113	499032	92	7
113	504500	93	7
113	509968	94	7
113	515436	95	7
113	520904	96	7
113	526372	97	7
113	531840	98	7
113	537308	99	7
113	542776	100	7
114	4967	2	0.022161
114	10435	3	0.02497
114	15903	4	0.02497
114	21371	5	0.02497
114	26839	6	0.02497
114	32307	7	0.02497
114	37775	8	0.02497
114	43243	9	0.02497
114	48712	10	0.02497
114	56124	11	0.027042800512
114	61592	12	0.02497
114	67060	13	0.02497
114	72528	14	0.02497
114	77996	15	0.02497
114	83464	16	0.02497
114	88932	17	0.02497
114	94400	18	0.02497
114	99868	19	0.02497
114	105336	20	0.02497
114	110804	21	0.02497
114	116272	22	0.02497
114	121740	23	0.02497
114	127208	24	0.02497
114	132676	25	0.02497
114	138144	26	0.02497
114	143612	27	0.02497
114	149080	28	0.02497
114	154548	29	0.02497
114	160016	30	0.02497
114	165484	31	0.02497
114	170952	32	0.02497
114	176420	33	0.02497
114	181888	34	0.02497
114	187356	35	0.02497
114	192824	36	0.02497
114	198292	37	0.02497
114	203760	38	0.02497
114	209228	39	0.02497
114	214696	40	0.02497
114	220164	41	0.02497
114	225632	42	0.02497
114	231100	43	0.02497
114	236568	44	0.02497
114	242036	45	0.02497
114	247504	46	0.02497
114	252972	47	0.02497
114	258440	48	0.02497
114	263908	49	0.02497
114	269376	50	0.02497
114	274844	51	0.02497
114	280312	52	0.02497
114	285780	53	0.02497
114	291248	54	0.02497
114	296716	55	0.02497
114	302184	56	0.02497
114	307652	57	0.02497
114	313120	58	0.02497
114	318588	59	0.02497
114	324056	60	0.02497
114	329524	61	0.02497
114	334992	62	0.02497
114	340460	63	0.02497
114	345928	64	0.02497
114	351396	65	0.02497
114	356864	66	0.02497
114	362332	67	0.02497
114	367800	68	0.02497
114	373268	69	0.02497
114	378736	70	0.02497
114	384204	71	0.02497
114	389672	72	0.02497
114	395140	73	0.02497
114	400608	74	0.02497
114	406076	75	0.02497
114	411544	76	0.02497
114	417012	77	0.02497
114	422480	78	0.02497
114	427948	79	0.02497
114	433416	80	0.02497
114	438884	81	0.02497
114	444352	82	0.02497
114	449820	83	0.02497
114	455288	84	0.02497
114	460756	85	0.02497
114	466224	86	0.02497
114	471692	87	0.02497
114	477160	88	0.02497
114	482628	89	0.02497
114	488096	90	0.02497
114	493564	91	0.02497
114	499032	92	0.02497
114	504500	93	0.02497
114	509968	94	0.02497
114	515436	95	0.02497
114	520904	96	0.02497
114	526372	97	0.02497
114	531840	98	0.02497
114	537308	99	0.02497
114	542776	100	0.02497
115	4967	2	0
115	10435	3	0
115	15903	4	0
115	21371	5	0
115	26839	6	0
115	32307	7	0
115	37775	8	0
115	43243	9	0
115	48712	10	0
115	56124	11	0
115	61592	12	0
115	67060	13	0
115	72528	14	0
115	77996	15	0
115	83464	16	0
115	88932	17	0
115	94400	18	0
115	99868	19	0
115	105336	20	0
115	110804	21	0
115	116272	22	0
115	121740	23	0
115	127208	24	0
115	132676	25	0
115	138144	26	0
115	143612	27	0
115	149080	28	0
115	154548	29	0
115	160016	30	0
115	165484	31	0
115	170952	32	0
115	176420	33	0
115	181888	34	0
115	187356	35	0
115	192824	36	0
115	198292	37	0
115	203760	38	0
115	209228	39	0
115	214696	40	0
115	220164	41	0
115	225632	42	0
115	231100	43	0
115	236568	44	0
115	242036	45	0
115	247504	46	0
115	252972	47	0
115	258440	48	0
115	263908	49	0
115	269376	50	0
115	274844	51	0
115	280312	52	0
115	285780	53	0
115	291248	54	0
115	296716	55	0
115	302184	56	0
115	307652	57	0
115	313120	58	0
115	318588	59	0
115	324056	60	0
115	329524	61	0
115	334992	62	0
115	340460	63	0
115	345928	64	0
115	351396	65	0
115	356864	66	0
115	362332	67	0
115	367800	68	0
115	373268	69	0
115	378736	70	0
115	384204	71	0
115	389672	72	0
115	395140	73	0
115	400608	74	0
115	406076	75	0
115	411544	76	0
115	417012	77	0
115	422480	78	0
115	427948	79	0
115	433416	80	0
115	438884	81	0
115	444352	82	0
115	449820	83	0
115	455288	84	0
115	460756	85	0
115	466224	86	0
115	471692	87	0
115	477160	88	0
115	482628	89	0
115	488096	90	0
115	493564	91	0
115	499032	92	0
115	504500	93	0
115	509968	94	0
115	515436	95	0
115	520904	96	0
115	526372	97	0
115	531840	98	0
115	537308	99	0
115	542776	100	0

