version 3
run BreakRanksNoGui-23-20240710-05:36:19-231416
attr configname BreakRanksNoGui
attr datetime 20240710-05:36:19
attr datetimef 20240710-053619
attr experiment BreakRanksNoGui
attr inifile omnetpp.ini
attr iterationvars "$nCars=8, $platoonSize=8, $nLanes=1, $ploegH=0.5, $controller=1, $headway=0.1, $leaderHeadway=1.2, $leaderSpeed=110, $breakRanksSafetyDistance=2, $minSpeed=100, $maxSpeed=120, $beaconInterval=0.1, $priority=4, $packetSize=200, $sController=\"CACC\", $0=2, $1=0"
attr iterationvarsd nCars=8/platoonSize=8/nLanes=1/ploegH=0.5/controller=1/headway=0.1/leaderHeadway=1.2/leaderSpeed=110/breakRanksSafetyDistance=2/minSpeed=100/maxSpeed=120/beaconInterval=0.1/priority=4/packetSize=200/sController=CACC/2/0
attr iterationvarsf nCars=8,platoonSize=8,nLanes=1,ploegH=0.5,controller=1,headway=0.1,leaderHeadway=1.2,leaderSpeed=110,breakRanksSafetyDistance=2,minSpeed=100,maxSpeed=120,beaconInterval=0.1,priority=4,packetSize=200,sController=CACC,2,0-
attr measurement "$nCars=8, $platoonSize=8, $nLanes=1, $ploegH=0.5, $controller=1, $headway=0.1, $leaderHeadway=1.2, $leaderSpeed=110, $breakRanksSafetyDistance=2, $minSpeed=100, $maxSpeed=120, $beaconInterval=0.1, $priority=4, $packetSize=200, $sController=\"CACC\", $0=2, $1=0"
attr network Highway
attr processid 231416
attr repetition 3
attr replication #3
attr resultdir results
attr runnumber 23
attr seedset 3
itervar beaconInterval 0.1
itervar breakRanksSafetyDistance 2
itervar controller 1
itervar headway 0.1
itervar leaderHeadway 1.2
itervar leaderSpeed 110
itervar maxSpeed 120
itervar minSpeed 100
itervar nCars 8
itervar nLanes 1
itervar packetSize 200
itervar platoonSize 8
itervar ploegH 0.5
itervar priority 4
itervar sController "\"CACC\""
config image-path ../../../veins/images
config repeat 10
config extends BreakRanks
config *.manager.command "\"sumo\""
config *.manager.ignoreGuiCommands true
config output-vector-file results/BreakRanks_1_0.1_110_2/result_3.vec
config output-scalar-file results/BreakRanks_1_0.1_110_2/result_3.sca
config extends Platooning
config *.node[*].scenario_type "\"BreakRanksScenario\""
config *.manager.command "\"sumo-gui\""
config *.node[*].scenario_type "\"SimpleScenario\""
config cmdenv-express-mode true
config cmdenv-autoflush true
config cmdenv-status-frequency 15s
config num-rngs 6
config network Highway
config debug-on-errors true
config print-undisposed true
config *.playgroundSizeX 65000m
config *.playgroundSizeY 25000m
config *.playgroundSizeZ 50m
config sim-time-limit "100 s"
config *.annotations.draw false
config *.obstacles.debug false
config *.world.useTorus false
config *.world.use2D false
config *.manager.updateInterval 0.01s
config *.manager.host "\"localhost\""
config *.manager.moduleType "\"org.car2x.plexe.PlatoonCar\""
config *.manager.moduleName "\"node\""
config *.manager.moduleDisplayString "\"\""
config *.manager.autoShutdown true
config *.manager.margin 25
config *.connectionManager.sendDirect true
config *.connectionManager.maxInterfDist 2600m
config *.connectionManager.drawMaxIntfDist false
config *.**.nic.mac1609_4.useServiceChannel false
config *.**.nic.mac1609_4.txPower 100mW
config *.**.nic.mac1609_4.bitrate 6Mbps
config *.**.nic.mac1609_4.useAcks true
config *.**.nic.mac1609_4.ackErrorRate 0.0
config *.**.nic.mac1609_4.frameErrorRate 0.0
config *.**.nic.phy80211p.minPowerLevel -94dBm
config *.**.nic.phy80211p.maxTXPower 100mW
config *.**.nic.phy80211p.useNoiseFloor true
config *.**.nic.phy80211p.noiseFloor -95dBm
config *.**.nic.phy80211p.decider "xmldoc(\"config.xml\")"
config *.**.nic.phy80211p.analogueModels "xmldoc(\"config.xml\")"
config *.**.nic.phy80211p.usePropagationDelay true
config *.node[*].mobility.x 0
config *.node[*].mobility.y 0
config *.node[*].mobility.z 1.895
config seed-set 3
config **.seed 3
config *.node[*].prot.rng-0 2
config *.node[*].appl.rng-0 3
config *.node[*].scenario.rng-0 4
config **.traffic.rng-0 5
config *.manager.configFile "\"./sumocfg/freeway.sumo.cfg\""
config *.manager.launchConfig "xmldoc(\"./sumocfg/freeway.launchd.xml\")"
config **.numberOfCars 8
config **.numberOfCarsPerPlatoon 8
config **.numberOfLanes 1
config *.node[*].helper_type "\"PositionHelper\""
config *.node[*].scenario.caccC1 0.5
config *.node[*].scenario.caccXi 1
config *.node[*].scenario.caccOmegaN "0.2 Hz"
config *.node[*].scenario.caccSpacing "2 m"
config *.node[*].scenario.engineTau "0.5 s"
config *.node[*].scenario.ploegH 0.5s
config *.node[*].scenario.ploegKp 0.2
config *.node[*].scenario.ploegKd 0.7
config *.node[*].scenario.useRealisticEngine false
config *.node[*].scenario.useControllerAcceleration true
config *.node[*].scenario.nLanes 1
config **.numericController 1
config **.headway 0.1s
config *.node[*].scenario.accHeadway 0.1s
config *.node[*].scenario.leaderHeadway 1.2s
config *.node[*].scenario.leaderSpeed 110kmph
config *.node[*].appl_type "\"SimplePlatooningApp\""
config *.node[*].appl.*.scalar-recording true
config *.node[*].appl.*.vector-recording true
config *.node[0].appl.breakRanksSafetyDistance 2m
config *.node[*].appl.minSpeed 100kmph
config *.node[*].appl.maxSpeed 120kmph
config *.node[*].protocol_type "\"SimplePlatooningBeaconing\""
config *.node[*].prot.*.scalar-recording true
config *.node[*].prot.*.vector-recording true
config *.node[*].prot.beaconingInterval 0.1s
config *.node[*].prot.priority 4
config *.node[*].prot.packetSize 200
config **.traffic_type "\"PlatoonsTrafficManager\""
config **.traffic.platoonInsertTime "1 s"
config **.traffic.platoonInsertSpeed 110kmph
config **.traffic.nCars 8
config **.traffic.platoonSize 8
config **.traffic.nLanes 1
config **.traffic.platooningVType "\"vtypeauto\""
config **.traffic.controller "\"CACC\""
config **.traffic.platoonInsertDistance 2m
config **.traffic.platoonInsertHeadway 0s
config **.traffic.platoonLeaderHeadway 1.2s
config **.scalar-recording false
config **.vector-recording false

vector 0 Highway.node[0].appl distance ETV
vector 1 Highway.node[0].appl relativeSpeed ETV
vector 2 Highway.node[0].appl nodeId ETV
vector 3 Highway.node[0].appl acceleration ETV
vector 4 Highway.node[0].appl controllerAcceleration ETV
vector 5 Highway.node[0].appl speed ETV
vector 6 Highway.node[0].appl posx ETV
vector 7 Highway.node[0].appl posy ETV
vector 8 Highway.node[1].appl distance ETV
vector 9 Highway.node[1].appl relativeSpeed ETV
vector 10 Highway.node[1].appl nodeId ETV
vector 11 Highway.node[1].appl acceleration ETV
vector 12 Highway.node[1].appl controllerAcceleration ETV
vector 13 Highway.node[1].appl speed ETV
vector 14 Highway.node[1].appl posx ETV
vector 15 Highway.node[1].appl posy ETV
vector 16 Highway.node[2].appl distance ETV
vector 17 Highway.node[2].appl relativeSpeed ETV
vector 18 Highway.node[2].appl nodeId ETV
vector 19 Highway.node[2].appl acceleration ETV
vector 20 Highway.node[2].appl controllerAcceleration ETV
vector 21 Highway.node[2].appl speed ETV
vector 22 Highway.node[2].appl posx ETV
vector 23 Highway.node[2].appl posy ETV
vector 24 Highway.node[3].appl distance ETV
vector 25 Highway.node[3].appl relativeSpeed ETV
vector 26 Highway.node[3].appl nodeId ETV
vector 27 Highway.node[3].appl acceleration ETV
vector 28 Highway.node[3].appl controllerAcceleration ETV
vector 29 Highway.node[3].appl speed ETV
vector 30 Highway.node[3].appl posx ETV
vector 31 Highway.node[3].appl posy ETV
vector 32 Highway.node[4].appl distance ETV
vector 33 Highway.node[4].appl relativeSpeed ETV
vector 34 Highway.node[4].appl nodeId ETV
vector 35 Highway.node[4].appl acceleration ETV
vector 36 Highway.node[4].appl controllerAcceleration ETV
vector 37 Highway.node[4].appl speed ETV
vector 38 Highway.node[4].appl posx ETV
vector 39 Highway.node[4].appl posy ETV
vector 40 Highway.node[5].appl distance ETV
vector 41 Highway.node[5].appl relativeSpeed ETV
vector 42 Highway.node[5].appl nodeId ETV
vector 43 Highway.node[5].appl acceleration ETV
vector 44 Highway.node[5].appl controllerAcceleration ETV
vector 45 Highway.node[5].appl speed ETV
vector 46 Highway.node[5].appl posx ETV
vector 47 Highway.node[5].appl posy ETV
vector 48 Highway.node[6].appl distance ETV
vector 49 Highway.node[6].appl relativeSpeed ETV
vector 50 Highway.node[6].appl nodeId ETV
vector 51 Highway.node[6].appl acceleration ETV
vector 52 Highway.node[6].appl controllerAcceleration ETV
vector 53 Highway.node[6].appl speed ETV
vector 54 Highway.node[6].appl posx ETV
vector 55 Highway.node[6].appl posy ETV
vector 56 Highway.node[7].appl distance ETV
vector 57 Highway.node[7].appl relativeSpeed ETV
vector 58 Highway.node[7].appl nodeId ETV
vector 59 Highway.node[7].appl acceleration ETV
vector 60 Highway.node[7].appl controllerAcceleration ETV
vector 61 Highway.node[7].appl speed ETV
vector 62 Highway.node[7].appl posx ETV
vector 63 Highway.node[7].appl posy ETV
vector 64 Highway.node[1].prot leaderDelay ETV
vector 65 Highway.node[1].prot leaderDelayId ETV
vector 66 Highway.node[1].prot frontDelay ETV
vector 67 Highway.node[1].prot frontDelayId ETV
vector 68 Highway.node[2].prot leaderDelay ETV
vector 69 Highway.node[2].prot leaderDelayId ETV
vector 70 Highway.node[3].prot leaderDelay ETV
vector 71 Highway.node[3].prot leaderDelayId ETV
vector 72 Highway.node[4].prot leaderDelay ETV
vector 73 Highway.node[4].prot leaderDelayId ETV
vector 74 Highway.node[5].prot leaderDelay ETV
vector 75 Highway.node[5].prot leaderDelayId ETV
vector 76 Highway.node[6].prot leaderDelay ETV
vector 77 Highway.node[6].prot leaderDelayId ETV
vector 78 Highway.node[7].prot leaderDelay ETV
vector 79 Highway.node[7].prot leaderDelayId ETV
vector 80 Highway.node[7].prot frontDelay ETV
vector 81 Highway.node[7].prot frontDelayId ETV
vector 82 Highway.node[2].prot frontDelay ETV
vector 83 Highway.node[2].prot frontDelayId ETV
vector 84 Highway.node[5].prot frontDelay ETV
vector 85 Highway.node[5].prot frontDelayId ETV
vector 86 Highway.node[3].prot frontDelay ETV
vector 87 Highway.node[3].prot frontDelayId ETV
vector 88 Highway.node[6].prot frontDelay ETV
vector 89 Highway.node[6].prot frontDelayId ETV
vector 90 Highway.node[4].prot frontDelay ETV
vector 91 Highway.node[4].prot frontDelayId ETV
vector 92 Highway.node[0].prot nodeId ETV
vector 93 Highway.node[0].prot busyTime ETV
vector 94 Highway.node[0].prot collisions ETV
vector 95 Highway.node[1].prot nodeId ETV
vector 96 Highway.node[1].prot busyTime ETV
vector 97 Highway.node[1].prot collisions ETV
vector 98 Highway.node[2].prot nodeId ETV
vector 99 Highway.node[2].prot busyTime ETV
vector 100 Highway.node[2].prot collisions ETV
vector 101 Highway.node[3].prot nodeId ETV
vector 102 Highway.node[3].prot busyTime ETV
vector 103 Highway.node[3].prot collisions ETV
vector 104 Highway.node[4].prot nodeId ETV
vector 105 Highway.node[4].prot busyTime ETV
vector 106 Highway.node[4].prot collisions ETV
vector 107 Highway.node[5].prot nodeId ETV
vector 108 Highway.node[5].prot busyTime ETV
vector 109 Highway.node[5].prot collisions ETV
vector 110 Highway.node[6].prot nodeId ETV
vector 111 Highway.node[6].prot busyTime ETV
vector 112 Highway.node[6].prot collisions ETV
vector 113 Highway.node[7].prot nodeId ETV
vector 114 Highway.node[7].prot busyTime ETV
vector 115 Highway.node[7].prot collisions ETV
0	113	1.11	-1
0	659	1.21	-1
0	1205	1.31	-1
0	1751	1.41	-1
0	2297	1.51	-1
0	2843	1.61	-1
0	3389	1.71	-1
0	3935	1.81	-1
0	4481	1.91	-1
0	5035	2.01	-1
0	5581	2.11	-1
0	6127	2.21	-1
0	6673	2.31	-1
0	7219	2.41	-1
0	7765	2.51	-1
0	8311	2.61	-1
0	8857	2.71	-1
0	9403	2.81	-1
0	9949	2.91	-1
0	10503	3.01	-1
0	11049	3.11	-1
0	11595	3.21	-1
0	12141	3.31	-1
0	12687	3.41	-1
0	13233	3.51	-1
0	13779	3.61	-1
0	14325	3.71	-1
0	14871	3.81	-1
0	15417	3.91	-1
0	15971	4.01	-1
0	16517	4.11	-1
0	17063	4.21	-1
0	17609	4.31	-1
0	18155	4.41	-1
0	18701	4.51	-1
0	19247	4.61	-1
0	19793	4.71	-1
0	20339	4.81	-1
0	20885	4.91	-1
0	21439	5.01	-1
0	21985	5.11	-1
0	22531	5.21	-1
0	23077	5.31	-1
0	23623	5.41	-1
0	24169	5.51	-1
0	24715	5.61	-1
0	25261	5.71	-1
0	25807	5.81	-1
0	26353	5.91	-1
0	26907	6.01	-1
0	27453	6.11	-1
0	27999	6.21	-1
0	28545	6.31	-1
0	29091	6.41	-1
0	29637	6.51	-1
0	30183	6.61	-1
0	30729	6.71	-1
0	31275	6.81	-1
0	31821	6.91	-1
0	32375	7.01	-1
0	32921	7.11	-1
0	33467	7.21	-1
0	34013	7.31	-1
0	34559	7.41	-1
0	35105	7.51	-1
0	35651	7.61	-1
0	36197	7.71	-1
0	36743	7.81	-1
0	37289	7.91	-1
0	37843	8.01	-1
0	38389	8.11	-1
0	38935	8.21	-1
0	39481	8.31	-1
0	40027	8.41	-1
0	40573	8.51	-1
0	41119	8.61	-1
0	41665	8.71	-1
0	42211	8.81	-1
0	42757	8.91	-1
0	43311	9.01	-1
0	43857	9.11	-1
0	44403	9.21	-1
0	44949	9.31	-1
0	45495	9.41	-1
0	46041	9.51	-1
0	46587	9.61	-1
0	47133	9.71	-1
0	47679	9.81	-1
0	48225	9.91	-1
0	50575	10.01	-1
0	51121	10.11	-1
0	51667	10.21	-1
0	52213	10.31	-1
0	52759	10.41	-1
0	53305	10.51	-1
0	53851	10.61	-1
0	54397	10.71	-1
0	54943	10.81	-1
0	55489	10.91	-1
0	56043	11.01	-1
0	56589	11.11	-1
0	57135	11.21	-1
0	57681	11.31	-1
0	58227	11.41	-1
0	58773	11.51	-1
0	59319	11.61	-1
0	59865	11.71	-1
0	60411	11.81	-1
0	60957	11.91	-1
0	61511	12.01	-1
0	62057	12.11	-1
0	62603	12.21	-1
0	63149	12.31	-1
0	63695	12.41	-1
0	64241	12.51	-1
0	64787	12.61	-1
0	65333	12.71	-1
0	65879	12.81	-1
0	66425	12.91	-1
0	66979	13.01	-1
0	67525	13.11	-1
0	68071	13.21	-1
0	68617	13.31	-1
0	69163	13.41	-1
0	69709	13.51	-1
0	70255	13.61	-1
0	70801	13.71	-1
0	71347	13.81	-1
0	71893	13.91	-1
0	72447	14.01	-1
0	72993	14.11	-1
0	73539	14.21	-1
0	74085	14.31	-1
0	74631	14.41	-1
0	75177	14.51	-1
0	75723	14.61	-1
0	76269	14.71	-1
0	76815	14.81	-1
0	77361	14.91	-1
0	77915	15.01	-1
0	78461	15.11	-1
0	79007	15.21	-1
0	79553	15.31	-1
0	80099	15.41	-1
0	80645	15.51	-1
0	81191	15.61	-1
0	81737	15.71	-1
0	82283	15.81	-1
0	82829	15.91	-1
0	83383	16.01	-1
0	83929	16.11	-1
0	84475	16.21	-1
0	85021	16.31	-1
0	85567	16.41	-1
0	86113	16.51	-1
0	86659	16.61	-1
0	87205	16.71	-1
0	87751	16.81	-1
0	88297	16.91	-1
0	88851	17.01	-1
0	89397	17.11	-1
0	89943	17.21	-1
0	90489	17.31	-1
0	91035	17.41	-1
0	91581	17.51	-1
0	92127	17.61	-1
0	92673	17.71	-1
0	93219	17.81	-1
0	93765	17.91	-1
0	94319	18.01	-1
0	94865	18.11	-1
0	95411	18.21	-1
0	95957	18.31	-1
0	96503	18.41	-1
0	97049	18.51	-1
0	97595	18.61	-1
0	98141	18.71	-1
0	98687	18.81	-1
0	99233	18.91	-1
0	99787	19.01	-1
0	100333	19.11	-1
0	100879	19.21	-1
0	101425	19.31	-1
0	101971	19.41	-1
0	102517	19.51	-1
0	103063	19.61	-1
0	103609	19.71	-1
0	104155	19.81	-1
0	104701	19.91	-1
0	105255	20.01	-1
0	105801	20.11	-1
0	106347	20.21	-1
0	106893	20.31	-1
0	107439	20.41	-1
0	107985	20.51	-1
0	108531	20.61	-1
0	109077	20.71	-1
0	109623	20.81	-1
0	110169	20.91	-1
0	110723	21.01	-1
0	111269	21.11	-1
0	111815	21.21	-1
0	112361	21.31	-1
0	112907	21.41	-1
0	113453	21.51	-1
0	113999	21.61	-1
0	114545	21.71	-1
0	115091	21.81	-1
0	115637	21.91	-1
0	116191	22.01	-1
0	116737	22.11	-1
0	117283	22.21	-1
0	117829	22.31	-1
0	118375	22.41	-1
0	118921	22.51	-1
0	119467	22.61	-1
0	120013	22.71	-1
0	120559	22.81	-1
0	121105	22.91	-1
0	121659	23.01	-1
0	122205	23.11	-1
0	122751	23.21	-1
0	123297	23.31	-1
0	123843	23.41	-1
0	124389	23.51	-1
0	124935	23.61	-1
0	125481	23.71	-1
0	126027	23.81	-1
0	126573	23.91	-1
0	127127	24.01	-1
0	127673	24.11	-1
0	128219	24.21	-1
0	128765	24.31	-1
0	129311	24.41	-1
0	129857	24.51	-1
0	130403	24.61	-1
0	130949	24.71	-1
0	131495	24.81	-1
0	132041	24.91	-1
0	132595	25.01	-1
0	133141	25.11	-1
0	133687	25.21	-1
0	134233	25.31	-1
0	134779	25.41	-1
0	135325	25.51	-1
0	135871	25.61	-1
0	136417	25.71	-1
0	136963	25.81	-1
0	137509	25.91	-1
0	138063	26.01	-1
0	138609	26.11	-1
0	139155	26.21	-1
0	139701	26.31	-1
0	140247	26.41	-1
0	140793	26.51	-1
0	141339	26.61	-1
0	141885	26.71	-1
0	142431	26.81	-1
0	142977	26.91	-1
0	143531	27.01	-1
0	144077	27.11	-1
0	144623	27.21	-1
0	145169	27.31	-1
0	145715	27.41	-1
0	146261	27.51	-1
0	146807	27.61	-1
0	147353	27.71	-1
0	147899	27.81	-1
0	148445	27.91	-1
0	148999	28.01	-1
0	149545	28.11	-1
0	150091	28.21	-1
0	150637	28.31	-1
0	151183	28.41	-1
0	151729	28.51	-1
0	152275	28.61	-1
0	152821	28.71	-1
0	153367	28.81	-1
0	153913	28.91	-1
0	154467	29.01	-1
0	155013	29.11	-1
0	155559	29.21	-1
0	156105	29.31	-1
0	156651	29.41	-1
0	157197	29.51	-1
0	157743	29.61	-1
0	158289	29.71	-1
0	158835	29.81	-1
0	159381	29.91	-1
0	159935	30.01	-1
0	160481	30.11	-1
0	161027	30.21	-1
0	161573	30.31	-1
0	162119	30.41	-1
0	162665	30.51	-1
0	163211	30.61	-1
0	163757	30.71	-1
0	164303	30.81	-1
0	164849	30.91	-1
0	165403	31.01	-1
0	165949	31.11	-1
0	166495	31.21	-1
0	167041	31.31	-1
0	167587	31.41	-1
0	168133	31.51	-1
0	168679	31.61	-1
0	169225	31.71	-1
0	169771	31.81	-1
0	170317	31.91	-1
0	170871	32.01	-1
0	171417	32.11	-1
0	171963	32.21	-1
0	172509	32.31	-1
0	173055	32.41	-1
0	173601	32.51	-1
0	174147	32.61	-1
0	174693	32.71	-1
0	175239	32.81	-1
0	175785	32.91	-1
0	176339	33.01	-1
0	176885	33.11	-1
0	177431	33.21	-1
0	177977	33.31	-1
0	178523	33.41	-1
0	179069	33.51	-1
0	179615	33.61	-1
0	180161	33.71	-1
0	180707	33.81	-1
0	181253	33.91	-1
0	181807	34.01	-1
0	182353	34.11	-1
0	182899	34.21	-1
0	183445	34.31	-1
0	183991	34.41	-1
0	184537	34.51	-1
0	185083	34.61	-1
0	185629	34.71	-1
0	186175	34.81	-1
0	186721	34.91	-1
0	187275	35.01	-1
0	187821	35.11	-1
0	188367	35.21	-1
0	188913	35.31	-1
0	189459	35.41	-1
0	190005	35.51	-1
0	190551	35.61	-1
0	191097	35.71	-1
0	191643	35.81	-1
0	192189	35.91	-1
0	192743	36.01	-1
0	193289	36.11	-1
0	193835	36.21	-1
0	194381	36.31	-1
0	194927	36.41	-1
0	195473	36.51	-1
0	196019	36.61	-1
0	196565	36.71	-1
0	197111	36.81	-1
0	197657	36.91	-1
0	198211	37.01	-1
0	198757	37.11	-1
0	199303	37.21	-1
0	199849	37.31	-1
0	200395	37.41	-1
0	200941	37.51	-1
0	201487	37.61	-1
0	202033	37.71	-1
0	202579	37.81	-1
0	203125	37.91	-1
0	203679	38.01	-1
0	204225	38.11	-1
0	204771	38.21	-1
0	205317	38.31	-1
0	205863	38.41	-1
0	206409	38.51	-1
0	206955	38.61	-1
0	207501	38.71	-1
0	208047	38.81	-1
0	208593	38.91	-1
0	209147	39.01	-1
0	209693	39.11	-1
0	210239	39.21	-1
0	210785	39.31	-1
0	211331	39.41	-1
0	211877	39.51	-1
0	212423	39.61	-1
0	212969	39.71	-1
0	213515	39.81	-1
0	214061	39.91	-1
0	214615	40.01	-1
0	215161	40.11	-1
0	215707	40.21	-1
0	216253	40.31	-1
0	216799	40.41	-1
0	217345	40.51	-1
0	217891	40.61	-1
0	218437	40.71	-1
0	218983	40.81	-1
0	219529	40.91	-1
0	220083	41.01	-1
0	220629	41.11	-1
0	221175	41.21	-1
0	221721	41.31	-1
0	222267	41.41	-1
0	222813	41.51	-1
0	223359	41.61	-1
0	223905	41.71	-1
0	224451	41.81	-1
0	224997	41.91	-1
0	225551	42.01	-1
0	226097	42.11	-1
0	226643	42.21	-1
0	227189	42.31	-1
0	227735	42.41	-1
0	228281	42.51	-1
0	228827	42.61	-1
0	229373	42.71	-1
0	229919	42.81	-1
0	230465	42.91	-1
0	231019	43.01	-1
0	231565	43.11	-1
0	232111	43.21	-1
0	232657	43.31	-1
0	233203	43.41	-1
0	233749	43.51	-1
0	234295	43.61	-1
0	234841	43.71	-1
0	235387	43.81	-1
0	235933	43.91	-1
0	236487	44.01	-1
0	237033	44.11	-1
0	237579	44.21	-1
0	238125	44.31	-1
0	238671	44.41	-1
0	239217	44.51	-1
0	239763	44.61	-1
0	240309	44.71	-1
0	240855	44.81	-1
0	241401	44.91	-1
0	241955	45.01	-1
0	242501	45.11	-1
0	243047	45.21	-1
0	243593	45.31	-1
0	244139	45.41	-1
0	244685	45.51	-1
0	245231	45.61	-1
0	245777	45.71	-1
0	246323	45.81	-1
0	246869	45.91	-1
0	247423	46.01	-1
0	247969	46.11	-1
0	248515	46.21	-1
0	249061	46.31	-1
0	249607	46.41	-1
0	250153	46.51	-1
0	250699	46.61	-1
0	251245	46.71	-1
0	251791	46.81	-1
0	252337	46.91	-1
0	252891	47.01	-1
0	253437	47.11	-1
0	253983	47.21	-1
0	254529	47.31	-1
0	255075	47.41	-1
0	255621	47.51	-1
0	256167	47.61	-1
0	256713	47.71	-1
0	257259	47.81	-1
0	257805	47.91	-1
0	258359	48.01	-1
0	258905	48.11	-1
0	259451	48.21	-1
0	259997	48.31	-1
0	260543	48.41	-1
0	261089	48.51	-1
0	261635	48.61	-1
0	262181	48.71	-1
0	262727	48.81	-1
0	263273	48.91	-1
0	263827	49.01	-1
0	264373	49.11	-1
0	264919	49.21	-1
0	265465	49.31	-1
0	266011	49.41	-1
0	266557	49.51	-1
0	267103	49.61	-1
0	267649	49.71	-1
0	268195	49.81	-1
0	268741	49.91	-1
0	269295	50.01	-1
0	269841	50.11	-1
0	270387	50.21	-1
0	270933	50.31	-1
0	271479	50.41	-1
0	272025	50.51	-1
0	272571	50.61	-1
0	273117	50.71	-1
0	273663	50.81	-1
0	274209	50.91	-1
0	274763	51.01	-1
0	275309	51.11	-1
0	275855	51.21	-1
0	276401	51.31	-1
0	276947	51.41	-1
0	277493	51.51	-1
0	278039	51.61	-1
0	278585	51.71	-1
0	279131	51.81	-1
0	279677	51.91	-1
0	280231	52.01	-1
0	280777	52.11	-1
0	281323	52.21	-1
0	281869	52.31	-1
0	282415	52.41	-1
0	282961	52.51	-1
0	283507	52.61	-1
0	284053	52.71	-1
0	284599	52.81	-1
0	285145	52.91	-1
0	285699	53.01	-1
0	286245	53.11	-1
0	286791	53.21	-1
0	287337	53.31	-1
0	287883	53.41	-1
0	288429	53.51	-1
0	288975	53.61	-1
0	289521	53.71	-1
0	290067	53.81	-1
0	290613	53.91	-1
0	291167	54.01	-1
0	291713	54.11	-1
0	292259	54.21	-1
0	292805	54.31	-1
0	293351	54.41	-1
0	293897	54.51	-1
0	294443	54.61	-1
0	294989	54.71	-1
0	295535	54.81	-1
0	296081	54.91	-1
0	296635	55.01	-1
0	297181	55.11	-1
0	297727	55.21	-1
0	298273	55.31	-1
0	298819	55.41	-1
0	299365	55.51	-1
0	299911	55.61	-1
0	300457	55.71	-1
0	301003	55.81	-1
0	301549	55.91	-1
0	302103	56.01	-1
0	302649	56.11	-1
0	303195	56.21	-1
0	303741	56.31	-1
0	304287	56.41	-1
0	304833	56.51	-1
0	305379	56.61	-1
0	305925	56.71	-1
0	306471	56.81	-1
0	307017	56.91	-1
0	307571	57.01	-1
0	308117	57.11	-1
0	308663	57.21	-1
0	309209	57.31	-1
0	309755	57.41	-1
0	310301	57.51	-1
0	310847	57.61	-1
0	311393	57.71	-1
0	311939	57.81	-1
0	312485	57.91	-1
0	313039	58.01	-1
0	313585	58.11	-1
0	314131	58.21	-1
0	314677	58.31	-1
0	315223	58.41	-1
0	315769	58.51	-1
0	316315	58.61	-1
0	316861	58.71	-1
0	317407	58.81	-1
0	317953	58.91	-1
0	318507	59.01	-1
0	319053	59.11	-1
0	319599	59.21	-1
0	320145	59.31	-1
0	320691	59.41	-1
0	321237	59.51	-1
0	321783	59.61	-1
0	322329	59.71	-1
0	322875	59.81	-1
0	323421	59.91	-1
0	323975	60.01	-1
0	324521	60.11	-1
0	325067	60.21	-1
0	325613	60.31	-1
0	326159	60.41	-1
0	326705	60.51	-1
0	327251	60.61	25.5668
0	327797	60.71	25.7112
0	328343	60.81	25.8556
0	328889	60.91	26.0001
0	329443	61.01	26.1445
0	329989	61.11	26.289
0	330535	61.21	26.4334
0	331081	61.31	26.5778
0	331627	61.41	26.7223
0	332173	61.51	26.8667
0	332719	61.61	27.0112
0	333265	61.71	27.1556
0	333811	61.81	27.3
0	334357	61.91	27.4445
0	334911	62.01	27.5889
0	335457	62.11	27.7334
0	336003	62.21	27.8778
0	336549	62.31	28.0222
0	337095	62.41	28.1667
0	337641	62.51	28.3111
0	338187	62.61	28.4556
0	338733	62.71	28.6
0	339279	62.81	28.7444
0	339825	62.91	28.8889
0	340379	63.01	29.0333
0	340925	63.11	29.1778
0	341471	63.21	29.3222
0	342017	63.31	29.4666
0	342563	63.41	29.6111
0	343109	63.51	29.7555
0	343655	63.61	29.9
0	344201	63.71	30.0444
0	344747	63.81	30.1888
0	345293	63.91	30.3333
0	345847	64.01	30.4777
0	346393	64.11	30.6222
0	346939	64.21	30.7666
0	347485	64.31	30.911
0	348031	64.41	31.0555
0	348577	64.51	31.1999
0	349123	64.61	31.3444
0	349669	64.71	31.4888
0	350215	64.81	31.6332
0	350761	64.91	31.7777
0	351315	65.01	31.9221
0	351861	65.11	32.0666
0	352407	65.21	32.211
0	352953	65.31	32.3554
0	353499	65.41	32.4999
0	354045	65.51	32.6443
0	354591	65.61	32.7888
0	355137	65.71	32.9332
0	355683	65.81	33.0776
0	356229	65.91	33.2221
0	356783	66.01	33.3665
0	357329	66.11	33.511
0	357875	66.21	33.6554
0	358421	66.31	33.7998
0	358967	66.41	33.9443
0	359513	66.51	34.0887
0	360059	66.61	34.2332
0	360605	66.71	34.3776
0	361151	66.81	34.522
0	361697	66.91	34.6665
0	362251	67.01	34.8109
0	362797	67.11	34.9554
0	363343	67.21	35.0998
0	363889	67.31	35.2442
0	364435	67.41	35.3887
0	364981	67.51	35.5331
0	365527	67.61	35.6776
0	366073	67.71	35.822
0	366619	67.81	35.9664
0	367165	67.91	36.1109
0	367719	68.01	36.2553
0	368265	68.11	36.3998
0	368811	68.21	36.5442
0	369357	68.31	36.6886
0	369903	68.41	36.8331
0	370449	68.51	36.9775
0	370995	68.61	37.122
0	371541	68.71	37.2664
0	372087	68.81	37.4108
0	372633	68.91	37.5553
0	373187	69.01	37.6997
0	373733	69.11	37.8442
0	374279	69.21	37.9886
0	374825	69.31	38.133
0	375371	69.41	38.2775
0	375917	69.51	38.4219
0	376463	69.61	38.5664
0	377009	69.71	38.7108
0	377555	69.81	38.8552
0	378101	69.91	38.9997
0	378655	70.01	39.1441
0	379201	70.11	39.2886
0	379747	70.21	39.433
0	380293	70.31	39.5774
0	380839	70.41	39.7219
0	381385	70.51	39.8663
0	381931	70.61	40.0108
0	382477	70.71	40.1552
0	383023	70.81	40.2996
0	383569	70.91	40.4441
0	384123	71.01	40.5885
0	384669	71.11	40.733
0	385215	71.21	40.8774
0	385761	71.31	41.0218
0	386307	71.41	41.1663
0	386853	71.51	41.3107
0	387399	71.61	41.4552
0	387945	71.71	41.5996
0	388491	71.81	41.744
0	389037	71.91	41.8885
0	389591	72.01	42.0329
0	390137	72.11	42.1774
0	390683	72.21	42.3218
0	391229	72.31	42.4662
0	391775	72.41	42.6107
0	392321	72.51	42.7551
0	392867	72.61	42.8996
0	393413	72.71	43.044
0	393959	72.81	43.1884
0	394505	72.91	43.3329
0	395059	73.01	43.4773
0	395605	73.11	43.6218
0	396151	73.21	43.7662
0	396697	73.31	43.9106
0	397243	73.41	44.0551
0	397789	73.51	44.1995
0	398335	73.61	44.344
0	398881	73.71	44.4884
0	399427	73.81	44.6328
0	399973	73.91	44.7773
0	400527	74.01	44.9217
0	401073	74.11	45.0662
0	401619	74.21	45.2106
0	402165	74.31	45.355
0	402711	74.41	45.4995
0	403257	74.51	45.6439
0	403803	74.61	45.7884
0	404349	74.71	45.9328
0	404895	74.81	46.0772
0	405441	74.91	46.2217
0	405995	75.01	46.3661
0	406541	75.11	46.5106
0	407087	75.21	46.655
0	407633	75.31	46.7994
0	408179	75.41	46.9439
0	408725	75.51	47.0883
0	409271	75.61	47.2328
0	409817	75.71	47.3772
0	410363	75.81	47.5216
0	410909	75.91	47.6661
0	411463	76.01	47.8105
0	412009	76.11	47.955
0	412555	76.21	48.0994
0	413101	76.31	48.2438
0	413647	76.41	48.3883
0	414193	76.51	48.5327
0	414739	76.61	48.6772
0	415285	76.71	48.8216
0	415831	76.81	48.966
0	416377	76.91	49.1105
0	416931	77.01	49.2549
0	417477	77.11	49.3994
0	418023	77.21	49.5438
0	418569	77.31	49.6882
0	419115	77.41	49.8327
0	419661	77.51	49.9771
0	420207	77.61	50.1216
0	420753	77.71	50.266
0	421299	77.81	50.4104
0	421845	77.91	50.5549
0	422399	78.01	50.6993
0	422945	78.11	50.8438
0	423491	78.21	50.9882
0	424037	78.31	51.1326
0	424583	78.41	51.2771
0	425129	78.51	51.4215
0	425675	78.61	51.566
0	426221	78.71	51.7104
0	426767	78.81	51.8548
0	427313	78.91	51.9993
0	427867	79.01	52.1437
0	428413	79.11	52.2882
0	428959	79.21	52.4326
0	429505	79.31	52.577
0	430051	79.41	52.7215
0	430597	79.51	52.8659
0	431143	79.61	53.0104
0	431689	79.71	53.1548
0	432235	79.81	53.2992
0	432781	79.91	53.4437
0	433335	80.01	53.5881
0	433881	80.11	53.7326
0	434427	80.21	53.877
0	434973	80.31	54.0214
0	435519	80.41	54.1659
0	436065	80.51	54.3103
0	436611	80.61	54.4548
0	437157	80.71	54.5992
0	437703	80.81	54.7436
0	438249	80.91	54.8881
0	438803	81.01	55.0325
0	439349	81.11	55.177
0	439895	81.21	55.3214
0	440441	81.31	55.4658
0	440987	81.41	55.6103
0	441533	81.51	55.7547
0	442079	81.61	55.8992
0	442625	81.71	56.0436
0	443171	81.81	56.188
0	443717	81.91	56.3325
0	444271	82.01	56.4769
0	444817	82.11	56.6214
0	445363	82.21	56.7658
0	445909	82.31	56.9102
0	446455	82.41	57.0547
0	447001	82.51	57.1991
0	447547	82.61	57.3436
0	448093	82.71	57.488
0	448639	82.81	57.6324
0	449185	82.91	57.7769
0	449739	83.01	57.9213
0	450285	83.11	58.0658
0	450831	83.21	58.2102
0	451377	83.31	58.3546
0	451923	83.41	58.4991
0	452469	83.51	58.6435
0	453015	83.61	58.788
0	453561	83.71	58.9324
0	454107	83.81	59.0768
0	454653	83.91	59.2213
0	455207	84.01	59.3657
0	455753	84.11	59.5102
0	456299	84.21	59.6546
0	456845	84.31	59.799
0	457391	84.41	59.9435
0	457937	84.51	60.0879
0	458483	84.61	60.2324
0	459029	84.71	60.3768
0	459575	84.81	60.5212
0	460121	84.91	60.6657
0	460675	85.01	60.8101
0	461221	85.11	60.9546
0	461767	85.21	61.099
0	462313	85.31	61.2434
0	462859	85.41	61.3879
0	463405	85.51	61.5323
0	463951	85.61	61.6768
0	464497	85.71	61.8212
0	465043	85.81	61.9656
0	465589	85.91	62.1101
0	466143	86.01	62.2545
0	466689	86.11	62.399
0	467235	86.21	62.5434
0	467781	86.31	62.6878
0	468327	86.41	62.8323
0	468873	86.51	62.9767
0	469419	86.61	63.1212
0	469965	86.71	63.2656
0	470511	86.81	63.41
0	471057	86.91	63.5545
0	471611	87.01	63.6989
0	472157	87.11	63.8434
0	472703	87.21	63.9878
0	473249	87.31	64.1322
0	473795	87.41	64.2767
0	474341	87.51	64.4211
0	474887	87.61	64.5656
0	475433	87.71	64.71
0	475979	87.81	64.8544
0	476525	87.91	64.9989
0	477079	88.01	65.1433
0	477625	88.11	65.2878
0	478171	88.21	65.4322
0	478717	88.31	65.5766
0	479263	88.41	65.7211
0	479809	88.51	65.8655
0	480355	88.61	66.01
0	480901	88.71	66.1544
0	481447	88.81	66.2988
0	481993	88.91	66.4433
0	482547	89.01	66.5877
0	483093	89.11	66.7322
0	483639	89.21	66.8766
0	484185	89.31	67.021
0	484731	89.41	67.1655
0	485277	89.51	67.3099
0	485823	89.61	67.4544
0	486369	89.71	67.5988
0	486915	89.81	67.7432
0	487461	89.91	67.8877
0	488015	90.01	68.0321
0	488561	90.11	68.1766
0	489107	90.21	68.321
0	489653	90.31	68.4654
0	490199	90.41	68.6099
0	490745	90.51	68.7543
0	491291	90.61	68.8988
0	491837	90.71	69.0432
0	492383	90.81	69.1876
0	492929	90.91	69.3321
0	493483	91.01	69.4765
0	494029	91.11	69.621
0	494575	91.21	69.7654
0	495121	91.31	69.9098
0	495667	91.41	70.0543
0	496213	91.51	70.1987
0	496759	91.61	70.3432
0	497305	91.71	70.4876
0	497851	91.81	70.632
0	498397	91.91	70.7765
0	498951	92.01	70.9209
0	499497	92.11	71.0654
0	500043	92.21	71.2098
0	500589	92.31	71.3542
0	501135	92.41	71.4987
0	501681	92.51	71.6431
0	502227	92.61	71.7876
0	502773	92.71	71.932
0	503319	92.81	72.0764
0	503865	92.91	72.2209
0	504419	93.01	72.3653
0	504965	93.11	72.5098
0	505511	93.21	72.6542
0	506057	93.31	72.7986
0	506603	93.41	72.9431
0	507149	93.51	73.0875
0	507695	93.61	73.232
0	508241	93.71	73.3764
0	508787	93.81	73.5208
0	509333	93.91	73.6653
0	509887	94.01	73.8097
0	510433	94.11	73.9542
0	510979	94.21	74.0986
0	511525	94.31	74.243
0	512071	94.41	74.3875
0	512617	94.51	74.5319
0	513163	94.61	74.6764
0	513709	94.71	74.8208
0	514255	94.81	74.9652
0	514801	94.91	75.1097
0	515355	95.01	75.2541
0	515901	95.11	75.3986
0	516447	95.21	75.543
0	516993	95.31	75.6874
0	517539	95.41	75.8319
0	518085	95.51	75.9763
0	518631	95.61	76.1208
0	519177	95.71	76.2652
0	519723	95.81	76.4096
0	520269	95.91	76.5541
0	520823	96.01	76.6985
0	521369	96.11	76.843
0	521915	96.21	76.9874
0	522461	96.31	77.1318
0	523007	96.41	77.2763
0	523553	96.51	77.4207
0	524099	96.61	77.5652
0	524645	96.71	77.7096
0	525191	96.81	77.854
0	525737	96.91	77.9985
0	526291	97.01	78.1429
0	526837	97.11	78.2874
0	527383	97.21	78.4318
0	527929	97.31	78.5762
0	528475	97.41	78.7207
0	529021	97.51	78.8651
0	529567	97.61	79.0096
0	530113	97.71	79.154
0	530659	97.81	79.2984
0	531205	97.91	79.4429
0	531759	98.01	79.5873
0	532305	98.11	79.7318
0	532851	98.21	79.8762
0	533397	98.31	80.0206
0	533943	98.41	80.1651
0	534489	98.51	80.3095
0	535035	98.61	80.454
0	535581	98.71	80.5984
0	536127	98.81	80.7428
0	536673	98.91	80.8873
0	537227	99.01	81.0317
0	537773	99.11	81.1762
0	538319	99.21	81.3206
0	538865	99.31	81.465
0	539411	99.41	81.6095
0	539957	99.51	81.7539
0	540503	99.61	81.8984
0	541049	99.71	82.0428
0	541595	99.81	82.1872
0	542141	99.91	82.3317
1	113	1.11	0
1	659	1.21	0
1	1205	1.31	0
1	1751	1.41	0
1	2297	1.51	0
1	2843	1.61	0
1	3389	1.71	0
1	3935	1.81	0
1	4481	1.91	0
1	5035	2.01	0
1	5581	2.11	0
1	6127	2.21	0
1	6673	2.31	0
1	7219	2.41	0
1	7765	2.51	0
1	8311	2.61	0
1	8857	2.71	0
1	9403	2.81	0
1	9949	2.91	0
1	10503	3.01	0
1	11049	3.11	0
1	11595	3.21	0
1	12141	3.31	0
1	12687	3.41	0
1	13233	3.51	0
1	13779	3.61	0
1	14325	3.71	0
1	14871	3.81	0
1	15417	3.91	0
1	15971	4.01	0
1	16517	4.11	0
1	17063	4.21	0
1	17609	4.31	0
1	18155	4.41	0
1	18701	4.51	0
1	19247	4.61	0
1	19793	4.71	0
1	20339	4.81	0
1	20885	4.91	0
1	21439	5.01	0
1	21985	5.11	0
1	22531	5.21	0
1	23077	5.31	0
1	23623	5.41	0
1	24169	5.51	0
1	24715	5.61	0
1	25261	5.71	0
1	25807	5.81	0
1	26353	5.91	0
1	26907	6.01	0
1	27453	6.11	0
1	27999	6.21	0
1	28545	6.31	0
1	29091	6.41	0
1	29637	6.51	0
1	30183	6.61	0
1	30729	6.71	0
1	31275	6.81	0
1	31821	6.91	0
1	32375	7.01	0
1	32921	7.11	0
1	33467	7.21	0
1	34013	7.31	0
1	34559	7.41	0
1	35105	7.51	0
1	35651	7.61	0
1	36197	7.71	0
1	36743	7.81	0
1	37289	7.91	0
1	37843	8.01	0
1	38389	8.11	0
1	38935	8.21	0
1	39481	8.31	0
1	40027	8.41	0
1	40573	8.51	0
1	41119	8.61	0
1	41665	8.71	0
1	42211	8.81	0
1	42757	8.91	0
1	43311	9.01	0
1	43857	9.11	0
1	44403	9.21	0
1	44949	9.31	0
1	45495	9.41	0
1	46041	9.51	0
1	46587	9.61	0
1	47133	9.71	0
1	47679	9.81	0
1	48225	9.91	0
1	50575	10.01	0
1	51121	10.11	0
1	51667	10.21	0
1	52213	10.31	0
1	52759	10.41	0
1	53305	10.51	0
1	53851	10.61	0
1	54397	10.71	0
1	54943	10.81	0
1	55489	10.91	0
1	56043	11.01	0
1	56589	11.11	0
1	57135	11.21	0
1	57681	11.31	0
1	58227	11.41	0
1	58773	11.51	0
1	59319	11.61	0
1	59865	11.71	0
1	60411	11.81	0
1	60957	11.91	0
1	61511	12.01	0
1	62057	12.11	0
1	62603	12.21	0
1	63149	12.31	0
1	63695	12.41	0
1	64241	12.51	0
1	64787	12.61	0
1	65333	12.71	0
1	65879	12.81	0
1	66425	12.91	0
1	66979	13.01	0
1	67525	13.11	0
1	68071	13.21	0
1	68617	13.31	0
1	69163	13.41	0
1	69709	13.51	0
1	70255	13.61	0
1	70801	13.71	0
1	71347	13.81	0
1	71893	13.91	0
1	72447	14.01	0
1	72993	14.11	0
1	73539	14.21	0
1	74085	14.31	0
1	74631	14.41	0
1	75177	14.51	0
1	75723	14.61	0
1	76269	14.71	0
1	76815	14.81	0
1	77361	14.91	0
1	77915	15.01	0
1	78461	15.11	0
1	79007	15.21	0
1	79553	15.31	0
1	80099	15.41	0
1	80645	15.51	0
1	81191	15.61	0
1	81737	15.71	0
1	82283	15.81	0
1	82829	15.91	0
1	83383	16.01	0
1	83929	16.11	0
1	84475	16.21	0
1	85021	16.31	0
1	85567	16.41	0
1	86113	16.51	0
1	86659	16.61	0
1	87205	16.71	0
1	87751	16.81	0
1	88297	16.91	0
1	88851	17.01	0
1	89397	17.11	0
1	89943	17.21	0
1	90489	17.31	0
1	91035	17.41	0
1	91581	17.51	0
1	92127	17.61	0
1	92673	17.71	0
1	93219	17.81	0
1	93765	17.91	0
1	94319	18.01	0
1	94865	18.11	0
1	95411	18.21	0
1	95957	18.31	0
1	96503	18.41	0
1	97049	18.51	0
1	97595	18.61	0
1	98141	18.71	0
1	98687	18.81	0
1	99233	18.91	0
1	99787	19.01	0
1	100333	19.11	0
1	100879	19.21	0
1	101425	19.31	0
1	101971	19.41	0
1	102517	19.51	0
1	103063	19.61	0
1	103609	19.71	0
1	104155	19.81	0
1	104701	19.91	0
1	105255	20.01	0
1	105801	20.11	0
1	106347	20.21	0
1	106893	20.31	0
1	107439	20.41	0
1	107985	20.51	0
1	108531	20.61	0
1	109077	20.71	0
1	109623	20.81	0
1	110169	20.91	0
1	110723	21.01	0
1	111269	21.11	0
1	111815	21.21	0
1	112361	21.31	0
1	112907	21.41	0
1	113453	21.51	0
1	113999	21.61	0
1	114545	21.71	0
1	115091	21.81	0
1	115637	21.91	0
1	116191	22.01	0
1	116737	22.11	0
1	117283	22.21	0
1	117829	22.31	0
1	118375	22.41	0
1	118921	22.51	0
1	119467	22.61	0
1	120013	22.71	0
1	120559	22.81	0
1	121105	22.91	0
1	121659	23.01	0
1	122205	23.11	0
1	122751	23.21	0
1	123297	23.31	0
1	123843	23.41	0
1	124389	23.51	0
1	124935	23.61	0
1	125481	23.71	0
1	126027	23.81	0
1	126573	23.91	0
1	127127	24.01	0
1	127673	24.11	0
1	128219	24.21	0
1	128765	24.31	0
1	129311	24.41	0
1	129857	24.51	0
1	130403	24.61	0
1	130949	24.71	0
1	131495	24.81	0
1	132041	24.91	0
1	132595	25.01	0
1	133141	25.11	0
1	133687	25.21	0
1	134233	25.31	0
1	134779	25.41	0
1	135325	25.51	0
1	135871	25.61	0
1	136417	25.71	0
1	136963	25.81	0
1	137509	25.91	0
1	138063	26.01	0
1	138609	26.11	0
1	139155	26.21	0
1	139701	26.31	0
1	140247	26.41	0
1	140793	26.51	0
1	141339	26.61	0
1	141885	26.71	0
1	142431	26.81	0
1	142977	26.91	0
1	143531	27.01	0
1	144077	27.11	0
1	144623	27.21	0
1	145169	27.31	0
1	145715	27.41	0
1	146261	27.51	0
1	146807	27.61	0
1	147353	27.71	0
1	147899	27.81	0
1	148445	27.91	0
1	148999	28.01	0
1	149545	28.11	0
1	150091	28.21	0
1	150637	28.31	0
1	151183	28.41	0
1	151729	28.51	0
1	152275	28.61	0
1	152821	28.71	0
1	153367	28.81	0
1	153913	28.91	0
1	154467	29.01	0
1	155013	29.11	0
1	155559	29.21	0
1	156105	29.31	0
1	156651	29.41	0
1	157197	29.51	0
1	157743	29.61	0
1	158289	29.71	0
1	158835	29.81	0
1	159381	29.91	0
1	159935	30.01	0
1	160481	30.11	0
1	161027	30.21	0
1	161573	30.31	0
1	162119	30.41	0
1	162665	30.51	0
1	163211	30.61	0
1	163757	30.71	0
1	164303	30.81	0
1	164849	30.91	0
1	165403	31.01	0
1	165949	31.11	0
1	166495	31.21	0
1	167041	31.31	0
1	167587	31.41	0
1	168133	31.51	0
1	168679	31.61	0
1	169225	31.71	0
1	169771	31.81	0
1	170317	31.91	0
1	170871	32.01	0
1	171417	32.11	0
1	171963	32.21	0
1	172509	32.31	0
1	173055	32.41	0
1	173601	32.51	0
1	174147	32.61	0
1	174693	32.71	0
1	175239	32.81	0
1	175785	32.91	0
1	176339	33.01	0
1	176885	33.11	0
1	177431	33.21	0
1	177977	33.31	0
1	178523	33.41	0
1	179069	33.51	0
1	179615	33.61	0
1	180161	33.71	0
1	180707	33.81	0
1	181253	33.91	0
1	181807	34.01	0
1	182353	34.11	0
1	182899	34.21	0
1	183445	34.31	0
1	183991	34.41	0
1	184537	34.51	0
1	185083	34.61	0
1	185629	34.71	0
1	186175	34.81	0
1	186721	34.91	0
1	187275	35.01	0
1	187821	35.11	0
1	188367	35.21	0
1	188913	35.31	0
1	189459	35.41	0
1	190005	35.51	0
1	190551	35.61	0
1	191097	35.71	0
1	191643	35.81	0
1	192189	35.91	0
1	192743	36.01	0
1	193289	36.11	0
1	193835	36.21	0
1	194381	36.31	0
1	194927	36.41	0
1	195473	36.51	0
1	196019	36.61	0
1	196565	36.71	0
1	197111	36.81	0
1	197657	36.91	0
1	198211	37.01	0
1	198757	37.11	0
1	199303	37.21	0
1	199849	37.31	0
1	200395	37.41	0
1	200941	37.51	0
1	201487	37.61	0
1	202033	37.71	0
1	202579	37.81	0
1	203125	37.91	0
1	203679	38.01	0
1	204225	38.11	0
1	204771	38.21	0
1	205317	38.31	0
1	205863	38.41	0
1	206409	38.51	0
1	206955	38.61	0
1	207501	38.71	0
1	208047	38.81	0
1	208593	38.91	0
1	209147	39.01	0
1	209693	39.11	0
1	210239	39.21	0
1	210785	39.31	0
1	211331	39.41	0
1	211877	39.51	0
1	212423	39.61	0
1	212969	39.71	0
1	213515	39.81	0
1	214061	39.91	0
1	214615	40.01	0
1	215161	40.11	0
1	215707	40.21	0
1	216253	40.31	0
1	216799	40.41	0
1	217345	40.51	0
1	217891	40.61	0
1	218437	40.71	0
1	218983	40.81	0
1	219529	40.91	0
1	220083	41.01	0
1	220629	41.11	0
1	221175	41.21	0
1	221721	41.31	0
1	222267	41.41	0
1	222813	41.51	0
1	223359	41.61	0
1	223905	41.71	0
1	224451	41.81	0
1	224997	41.91	0
1	225551	42.01	0
1	226097	42.11	0
1	226643	42.21	0
1	227189	42.31	0
1	227735	42.41	0
1	228281	42.51	0
1	228827	42.61	0
1	229373	42.71	0
1	229919	42.81	0
1	230465	42.91	0
1	231019	43.01	0
1	231565	43.11	0
1	232111	43.21	0
1	232657	43.31	0
1	233203	43.41	0
1	233749	43.51	0
1	234295	43.61	0
1	234841	43.71	0
1	235387	43.81	0
1	235933	43.91	0
1	236487	44.01	0
1	237033	44.11	0
1	237579	44.21	0
1	238125	44.31	0
1	238671	44.41	0
1	239217	44.51	0
1	239763	44.61	0
1	240309	44.71	0
1	240855	44.81	0
1	241401	44.91	0
1	241955	45.01	0
1	242501	45.11	0
1	243047	45.21	0
1	243593	45.31	0
1	244139	45.41	0
1	244685	45.51	0
1	245231	45.61	0
1	245777	45.71	0
1	246323	45.81	0
1	246869	45.91	0
1	247423	46.01	0
1	247969	46.11	0
1	248515	46.21	0
1	249061	46.31	0
1	249607	46.41	0
1	250153	46.51	0
1	250699	46.61	0
1	251245	46.71	0
1	251791	46.81	0
1	252337	46.91	0
1	252891	47.01	0
1	253437	47.11	0
1	253983	47.21	0
1	254529	47.31	0
1	255075	47.41	0
1	255621	47.51	0
1	256167	47.61	0
1	256713	47.71	0
1	257259	47.81	0
1	257805	47.91	0
1	258359	48.01	0
1	258905	48.11	0
1	259451	48.21	0
1	259997	48.31	0
1	260543	48.41	0
1	261089	48.51	0
1	261635	48.61	0
1	262181	48.71	0
1	262727	48.81	0
1	263273	48.91	0
1	263827	49.01	0
1	264373	49.11	0
1	264919	49.21	0
1	265465	49.31	0
1	266011	49.41	0
1	266557	49.51	0
1	267103	49.61	0
1	267649	49.71	0
1	268195	49.81	0
1	268741	49.91	0
1	269295	50.01	0
1	269841	50.11	0
1	270387	50.21	0
1	270933	50.31	0
1	271479	50.41	0
1	272025	50.51	0
1	272571	50.61	0
1	273117	50.71	0
1	273663	50.81	0
1	274209	50.91	0
1	274763	51.01	0
1	275309	51.11	0
1	275855	51.21	0
1	276401	51.31	0
1	276947	51.41	0
1	277493	51.51	0
1	278039	51.61	0
1	278585	51.71	0
1	279131	51.81	0
1	279677	51.91	0
1	280231	52.01	0
1	280777	52.11	0
1	281323	52.21	0
1	281869	52.31	0
1	282415	52.41	0
1	282961	52.51	0
1	283507	52.61	0
1	284053	52.71	0
1	284599	52.81	0
1	285145	52.91	0
1	285699	53.01	0
1	286245	53.11	0
1	286791	53.21	0
1	287337	53.31	0
1	287883	53.41	0
1	288429	53.51	0
1	288975	53.61	0
1	289521	53.71	0
1	290067	53.81	0
1	290613	53.91	0
1	291167	54.01	0
1	291713	54.11	0
1	292259	54.21	0
1	292805	54.31	0
1	293351	54.41	0
1	293897	54.51	0
1	294443	54.61	0
1	294989	54.71	0
1	295535	54.81	0
1	296081	54.91	0
1	296635	55.01	0
1	297181	55.11	0
1	297727	55.21	0
1	298273	55.31	0
1	298819	55.41	0
1	299365	55.51	0
1	299911	55.61	0
1	300457	55.71	0
1	301003	55.81	0
1	301549	55.91	0
1	302103	56.01	0
1	302649	56.11	0
1	303195	56.21	0
1	303741	56.31	0
1	304287	56.41	0
1	304833	56.51	0
1	305379	56.61	0
1	305925	56.71	0
1	306471	56.81	0
1	307017	56.91	0
1	307571	57.01	0
1	308117	57.11	0
1	308663	57.21	0
1	309209	57.31	0
1	309755	57.41	0
1	310301	57.51	0
1	310847	57.61	0
1	311393	57.71	0
1	311939	57.81	0
1	312485	57.91	0
1	313039	58.01	0
1	313585	58.11	0
1	314131	58.21	0
1	314677	58.31	0
1	315223	58.41	0
1	315769	58.51	0
1	316315	58.61	0
1	316861	58.71	0
1	317407	58.81	0
1	317953	58.91	0
1	318507	59.01	0
1	319053	59.11	0
1	319599	59.21	0
1	320145	59.31	0
1	320691	59.41	0
1	321237	59.51	0
1	321783	59.61	0
1	322329	59.71	0
1	322875	59.81	0
1	323421	59.91	0
1	323975	60.01	0
1	324521	60.11	0
1	325067	60.21	0
1	325613	60.31	0
1	326159	60.41	0
1	326705	60.51	0
1	327251	60.61	1.4444
1	327797	60.71	1.4444
1	328343	60.81	1.4444
1	328889	60.91	1.4444
1	329443	61.01	1.4444
1	329989	61.11	1.4444
1	330535	61.21	1.4444
1	331081	61.31	1.4444
1	331627	61.41	1.4444
1	332173	61.51	1.4444
1	332719	61.61	1.4444
1	333265	61.71	1.4444
1	333811	61.81	1.4444
1	334357	61.91	1.4444
1	334911	62.01	1.4444
1	335457	62.11	1.4444
1	336003	62.21	1.4444
1	336549	62.31	1.4444
1	337095	62.41	1.4444
1	337641	62.51	1.4444
1	338187	62.61	1.4444
1	338733	62.71	1.4444
1	339279	62.81	1.4444
1	339825	62.91	1.4444
1	340379	63.01	1.4444
1	340925	63.11	1.4444
1	341471	63.21	1.4444
1	342017	63.31	1.4444
1	342563	63.41	1.4444
1	343109	63.51	1.4444
1	343655	63.61	1.4444
1	344201	63.71	1.4444
1	344747	63.81	1.4444
1	345293	63.91	1.4444
1	345847	64.01	1.4444
1	346393	64.11	1.4444
1	346939	64.21	1.4444
1	347485	64.31	1.4444
1	348031	64.41	1.4444
1	348577	64.51	1.4444
1	349123	64.61	1.4444
1	349669	64.71	1.4444
1	350215	64.81	1.4444
1	350761	64.91	1.4444
1	351315	65.01	1.4444
1	351861	65.11	1.4444
1	352407	65.21	1.4444
1	352953	65.31	1.4444
1	353499	65.41	1.4444
1	354045	65.51	1.4444
1	354591	65.61	1.4444
1	355137	65.71	1.4444
1	355683	65.81	1.4444
1	356229	65.91	1.4444
1	356783	66.01	1.4444
1	357329	66.11	1.4444
1	357875	66.21	1.4444
1	358421	66.31	1.4444
1	358967	66.41	1.4444
1	359513	66.51	1.4444
1	360059	66.61	1.4444
1	360605	66.71	1.4444
1	361151	66.81	1.4444
1	361697	66.91	1.4444
1	362251	67.01	1.4444
1	362797	67.11	1.4444
1	363343	67.21	1.4444
1	363889	67.31	1.4444
1	364435	67.41	1.4444
1	364981	67.51	1.4444
1	365527	67.61	1.4444
1	366073	67.71	1.4444
1	366619	67.81	1.4444
1	367165	67.91	1.4444
1	367719	68.01	1.4444
1	368265	68.11	1.4444
1	368811	68.21	1.4444
1	369357	68.31	1.4444
1	369903	68.41	1.4444
1	370449	68.51	1.4444
1	370995	68.61	1.4444
1	371541	68.71	1.4444
1	372087	68.81	1.4444
1	372633	68.91	1.4444
1	373187	69.01	1.4444
1	373733	69.11	1.4444
1	374279	69.21	1.4444
1	374825	69.31	1.4444
1	375371	69.41	1.4444
1	375917	69.51	1.4444
1	376463	69.61	1.4444
1	377009	69.71	1.4444
1	377555	69.81	1.4444
1	378101	69.91	1.4444
1	378655	70.01	1.4444
1	379201	70.11	1.4444
1	379747	70.21	1.4444
1	380293	70.31	1.4444
1	380839	70.41	1.4444
1	381385	70.51	1.4444
1	381931	70.61	1.4444
1	382477	70.71	1.4444
1	383023	70.81	1.4444
1	383569	70.91	1.4444
1	384123	71.01	1.4444
1	384669	71.11	1.4444
1	385215	71.21	1.4444
1	385761	71.31	1.4444
1	386307	71.41	1.4444
1	386853	71.51	1.4444
1	387399	71.61	1.4444
1	387945	71.71	1.4444
1	388491	71.81	1.4444
1	389037	71.91	1.4444
1	389591	72.01	1.4444
1	390137	72.11	1.4444
1	390683	72.21	1.4444
1	391229	72.31	1.4444
1	391775	72.41	1.4444
1	392321	72.51	1.4444
1	392867	72.61	1.4444
1	393413	72.71	1.4444
1	393959	72.81	1.4444
1	394505	72.91	1.4444
1	395059	73.01	1.4444
1	395605	73.11	1.4444
1	396151	73.21	1.4444
1	396697	73.31	1.4444
1	397243	73.41	1.4444
1	397789	73.51	1.4444
1	398335	73.61	1.4444
1	398881	73.71	1.4444
1	399427	73.81	1.4444
1	399973	73.91	1.4444
1	400527	74.01	1.4444
1	401073	74.11	1.4444
1	401619	74.21	1.4444
1	402165	74.31	1.4444
1	402711	74.41	1.4444
1	403257	74.51	1.4444
1	403803	74.61	1.4444
1	404349	74.71	1.4444
1	404895	74.81	1.4444
1	405441	74.91	1.4444
1	405995	75.01	1.4444
1	406541	75.11	1.4444
1	407087	75.21	1.4444
1	407633	75.31	1.4444
1	408179	75.41	1.4444
1	408725	75.51	1.4444
1	409271	75.61	1.4444
1	409817	75.71	1.4444
1	410363	75.81	1.4444
1	410909	75.91	1.4444
1	411463	76.01	1.4444
1	412009	76.11	1.4444
1	412555	76.21	1.4444
1	413101	76.31	1.4444
1	413647	76.41	1.4444
1	414193	76.51	1.4444
1	414739	76.61	1.4444
1	415285	76.71	1.4444
1	415831	76.81	1.4444
1	416377	76.91	1.4444
1	416931	77.01	1.4444
1	417477	77.11	1.4444
1	418023	77.21	1.4444
1	418569	77.31	1.4444
1	419115	77.41	1.4444
1	419661	77.51	1.4444
1	420207	77.61	1.4444
1	420753	77.71	1.4444
1	421299	77.81	1.4444
1	421845	77.91	1.4444
1	422399	78.01	1.4444
1	422945	78.11	1.4444
1	423491	78.21	1.4444
1	424037	78.31	1.4444
1	424583	78.41	1.4444
1	425129	78.51	1.4444
1	425675	78.61	1.4444
1	426221	78.71	1.4444
1	426767	78.81	1.4444
1	427313	78.91	1.4444
1	427867	79.01	1.4444
1	428413	79.11	1.4444
1	428959	79.21	1.4444
1	429505	79.31	1.4444
1	430051	79.41	1.4444
1	430597	79.51	1.4444
1	431143	79.61	1.4444
1	431689	79.71	1.4444
1	432235	79.81	1.4444
1	432781	79.91	1.4444
1	433335	80.01	1.4444
1	433881	80.11	1.4444
1	434427	80.21	1.4444
1	434973	80.31	1.4444
1	435519	80.41	1.4444
1	436065	80.51	1.4444
1	436611	80.61	1.4444
1	437157	80.71	1.4444
1	437703	80.81	1.4444
1	438249	80.91	1.4444
1	438803	81.01	1.4444
1	439349	81.11	1.4444
1	439895	81.21	1.4444
1	440441	81.31	1.4444
1	440987	81.41	1.4444
1	441533	81.51	1.4444
1	442079	81.61	1.4444
1	442625	81.71	1.4444
1	443171	81.81	1.4444
1	443717	81.91	1.4444
1	444271	82.01	1.4444
1	444817	82.11	1.4444
1	445363	82.21	1.4444
1	445909	82.31	1.4444
1	446455	82.41	1.4444
1	447001	82.51	1.4444
1	447547	82.61	1.4444
1	448093	82.71	1.4444
1	448639	82.81	1.4444
1	449185	82.91	1.4444
1	449739	83.01	1.4444
1	450285	83.11	1.4444
1	450831	83.21	1.4444
1	451377	83.31	1.4444
1	451923	83.41	1.4444
1	452469	83.51	1.4444
1	453015	83.61	1.4444
1	453561	83.71	1.4444
1	454107	83.81	1.4444
1	454653	83.91	1.4444
1	455207	84.01	1.4444
1	455753	84.11	1.4444
1	456299	84.21	1.4444
1	456845	84.31	1.4444
1	457391	84.41	1.4444
1	457937	84.51	1.4444
1	458483	84.61	1.4444
1	459029	84.71	1.4444
1	459575	84.81	1.4444
1	460121	84.91	1.4444
1	460675	85.01	1.4444
1	461221	85.11	1.4444
1	461767	85.21	1.4444
1	462313	85.31	1.4444
1	462859	85.41	1.4444
1	463405	85.51	1.4444
1	463951	85.61	1.4444
1	464497	85.71	1.4444
1	465043	85.81	1.4444
1	465589	85.91	1.4444
1	466143	86.01	1.4444
1	466689	86.11	1.4444
1	467235	86.21	1.4444
1	467781	86.31	1.4444
1	468327	86.41	1.4444
1	468873	86.51	1.4444
1	469419	86.61	1.4444
1	469965	86.71	1.4444
1	470511	86.81	1.4444
1	471057	86.91	1.4444
1	471611	87.01	1.4444
1	472157	87.11	1.4444
1	472703	87.21	1.4444
1	473249	87.31	1.4444
1	473795	87.41	1.4444
1	474341	87.51	1.4444
1	474887	87.61	1.4444
1	475433	87.71	1.4444
1	475979	87.81	1.4444
1	476525	87.91	1.4444
1	477079	88.01	1.4444
1	477625	88.11	1.4444
1	478171	88.21	1.4444
1	478717	88.31	1.4444
1	479263	88.41	1.4444
1	479809	88.51	1.4444
1	480355	88.61	1.4444
1	480901	88.71	1.4444
1	481447	88.81	1.4444
1	481993	88.91	1.4444
1	482547	89.01	1.4444
1	483093	89.11	1.4444
1	483639	89.21	1.4444
1	484185	89.31	1.4444
1	484731	89.41	1.4444
1	485277	89.51	1.4444
1	485823	89.61	1.4444
1	486369	89.71	1.4444
1	486915	89.81	1.4444
1	487461	89.91	1.4444
1	488015	90.01	1.4444
1	488561	90.11	1.4444
1	489107	90.21	1.4444
1	489653	90.31	1.4444
1	490199	90.41	1.4444
1	490745	90.51	1.4444
1	491291	90.61	1.4444
1	491837	90.71	1.4444
1	492383	90.81	1.4444
1	492929	90.91	1.4444
1	493483	91.01	1.4444
1	494029	91.11	1.4444
1	494575	91.21	1.4444
1	495121	91.31	1.4444
1	495667	91.41	1.4444
1	496213	91.51	1.4444
1	496759	91.61	1.4444
1	497305	91.71	1.4444
1	497851	91.81	1.4444
1	498397	91.91	1.4444
1	498951	92.01	1.4444
1	499497	92.11	1.4444
1	500043	92.21	1.4444
1	500589	92.31	1.4444
1	501135	92.41	1.4444
1	501681	92.51	1.4444
1	502227	92.61	1.4444
1	502773	92.71	1.4444
1	503319	92.81	1.4444
1	503865	92.91	1.4444
1	504419	93.01	1.4444
1	504965	93.11	1.4444
1	505511	93.21	1.4444
1	506057	93.31	1.4444
1	506603	93.41	1.4444
1	507149	93.51	1.4444
1	507695	93.61	1.4444
1	508241	93.71	1.4444
1	508787	93.81	1.4444
1	509333	93.91	1.4444
1	509887	94.01	1.4444
1	510433	94.11	1.4444
1	510979	94.21	1.4444
1	511525	94.31	1.4444
1	512071	94.41	1.4444
1	512617	94.51	1.4444
1	513163	94.61	1.4444
1	513709	94.71	1.4444
1	514255	94.81	1.4444
1	514801	94.91	1.4444
1	515355	95.01	1.4444
1	515901	95.11	1.4444
1	516447	95.21	1.4444
1	516993	95.31	1.4444
1	517539	95.41	1.4444
1	518085	95.51	1.4444
1	518631	95.61	1.4444
1	519177	95.71	1.4444
1	519723	95.81	1.4444
1	520269	95.91	1.4444
1	520823	96.01	1.4444
1	521369	96.11	1.4444
1	521915	96.21	1.4444
1	522461	96.31	1.4444
1	523007	96.41	1.4444
1	523553	96.51	1.4444
1	524099	96.61	1.4444
1	524645	96.71	1.4444
1	525191	96.81	1.4444
1	525737	96.91	1.4444
1	526291	97.01	1.4444
1	526837	97.11	1.4444
1	527383	97.21	1.4444
1	527929	97.31	1.4444
1	528475	97.41	1.4444
1	529021	97.51	1.4444
1	529567	97.61	1.4444
1	530113	97.71	1.4444
1	530659	97.81	1.4444
1	531205	97.91	1.4444
1	531759	98.01	1.4444
1	532305	98.11	1.4444
1	532851	98.21	1.4444
1	533397	98.31	1.4444
1	533943	98.41	1.4444
1	534489	98.51	1.4444
1	535035	98.61	1.4444
1	535581	98.71	1.4444
1	536127	98.81	1.4444
1	536673	98.91	1.4444
1	537227	99.01	1.4444
1	537773	99.11	1.4444
1	538319	99.21	1.4444
1	538865	99.31	1.4444
1	539411	99.41	1.4444
1	539957	99.51	1.4444
1	540503	99.61	1.4444
1	541049	99.71	1.4444
1	541595	99.81	1.4444
1	542141	99.91	1.4444
2	113	1.11	0
2	659	1.21	0
2	1205	1.31	0
2	1751	1.41	0
2	2297	1.51	0
2	2843	1.61	0
2	3389	1.71	0
2	3935	1.81	0
2	4481	1.91	0
2	5035	2.01	0
2	5581	2.11	0
2	6127	2.21	0
2	6673	2.31	0
2	7219	2.41	0
2	7765	2.51	0
2	8311	2.61	0
2	8857	2.71	0
2	9403	2.81	0
2	9949	2.91	0
2	10503	3.01	0
2	11049	3.11	0
2	11595	3.21	0
2	12141	3.31	0
2	12687	3.41	0
2	13233	3.51	0
2	13779	3.61	0
2	14325	3.71	0
2	14871	3.81	0
2	15417	3.91	0
2	15971	4.01	0
2	16517	4.11	0
2	17063	4.21	0
2	17609	4.31	0
2	18155	4.41	0
2	18701	4.51	0
2	19247	4.61	0
2	19793	4.71	0
2	20339	4.81	0
2	20885	4.91	0
2	21439	5.01	0
2	21985	5.11	0
2	22531	5.21	0
2	23077	5.31	0
2	23623	5.41	0
2	24169	5.51	0
2	24715	5.61	0
2	25261	5.71	0
2	25807	5.81	0
2	26353	5.91	0
2	26907	6.01	0
2	27453	6.11	0
2	27999	6.21	0
2	28545	6.31	0
2	29091	6.41	0
2	29637	6.51	0
2	30183	6.61	0
2	30729	6.71	0
2	31275	6.81	0
2	31821	6.91	0
2	32375	7.01	0
2	32921	7.11	0
2	33467	7.21	0
2	34013	7.31	0
2	34559	7.41	0
2	35105	7.51	0
2	35651	7.61	0
2	36197	7.71	0
2	36743	7.81	0
2	37289	7.91	0
2	37843	8.01	0
2	38389	8.11	0
2	38935	8.21	0
2	39481	8.31	0
2	40027	8.41	0
2	40573	8.51	0
2	41119	8.61	0
2	41665	8.71	0
2	42211	8.81	0
2	42757	8.91	0
2	43311	9.01	0
2	43857	9.11	0
2	44403	9.21	0
2	44949	9.31	0
2	45495	9.41	0
2	46041	9.51	0
2	46587	9.61	0
2	47133	9.71	0
2	47679	9.81	0
2	48225	9.91	0
2	50575	10.01	0
2	51121	10.11	0
2	51667	10.21	0
2	52213	10.31	0
2	52759	10.41	0
2	53305	10.51	0
2	53851	10.61	0
2	54397	10.71	0
2	54943	10.81	0
2	55489	10.91	0
2	56043	11.01	0
2	56589	11.11	0
2	57135	11.21	0
2	57681	11.31	0
2	58227	11.41	0
2	58773	11.51	0
2	59319	11.61	0
2	59865	11.71	0
2	60411	11.81	0
2	60957	11.91	0
2	61511	12.01	0
2	62057	12.11	0
2	62603	12.21	0
2	63149	12.31	0
2	63695	12.41	0
2	64241	12.51	0
2	64787	12.61	0
2	65333	12.71	0
2	65879	12.81	0
2	66425	12.91	0
2	66979	13.01	0
2	67525	13.11	0
2	68071	13.21	0
2	68617	13.31	0
2	69163	13.41	0
2	69709	13.51	0
2	70255	13.61	0
2	70801	13.71	0
2	71347	13.81	0
2	71893	13.91	0
2	72447	14.01	0
2	72993	14.11	0
2	73539	14.21	0
2	74085	14.31	0
2	74631	14.41	0
2	75177	14.51	0
2	75723	14.61	0
2	76269	14.71	0
2	76815	14.81	0
2	77361	14.91	0
2	77915	15.01	0
2	78461	15.11	0
2	79007	15.21	0
2	79553	15.31	0
2	80099	15.41	0
2	80645	15.51	0
2	81191	15.61	0
2	81737	15.71	0
2	82283	15.81	0
2	82829	15.91	0
2	83383	16.01	0
2	83929	16.11	0
2	84475	16.21	0
2	85021	16.31	0
2	85567	16.41	0
2	86113	16.51	0
2	86659	16.61	0
2	87205	16.71	0
2	87751	16.81	0
2	88297	16.91	0
2	88851	17.01	0
2	89397	17.11	0
2	89943	17.21	0
2	90489	17.31	0
2	91035	17.41	0
2	91581	17.51	0
2	92127	17.61	0
2	92673	17.71	0
2	93219	17.81	0
2	93765	17.91	0
2	94319	18.01	0
2	94865	18.11	0
2	95411	18.21	0
2	95957	18.31	0
2	96503	18.41	0
2	97049	18.51	0
2	97595	18.61	0
2	98141	18.71	0
2	98687	18.81	0
2	99233	18.91	0
2	99787	19.01	0
2	100333	19.11	0
2	100879	19.21	0
2	101425	19.31	0
2	101971	19.41	0
2	102517	19.51	0
2	103063	19.61	0
2	103609	19.71	0
2	104155	19.81	0
2	104701	19.91	0
2	105255	20.01	0
2	105801	20.11	0
2	106347	20.21	0
2	106893	20.31	0
2	107439	20.41	0
2	107985	20.51	0
2	108531	20.61	0
2	109077	20.71	0
2	109623	20.81	0
2	110169	20.91	0
2	110723	21.01	0
2	111269	21.11	0
2	111815	21.21	0
2	112361	21.31	0
2	112907	21.41	0
2	113453	21.51	0
2	113999	21.61	0
2	114545	21.71	0
2	115091	21.81	0
2	115637	21.91	0
2	116191	22.01	0
2	116737	22.11	0
2	117283	22.21	0
2	117829	22.31	0
2	118375	22.41	0
2	118921	22.51	0
2	119467	22.61	0
2	120013	22.71	0
2	120559	22.81	0
2	121105	22.91	0
2	121659	23.01	0
2	122205	23.11	0
2	122751	23.21	0
2	123297	23.31	0
2	123843	23.41	0
2	124389	23.51	0
2	124935	23.61	0
2	125481	23.71	0
2	126027	23.81	0
2	126573	23.91	0
2	127127	24.01	0
2	127673	24.11	0
2	128219	24.21	0
2	128765	24.31	0
2	129311	24.41	0
2	129857	24.51	0
2	130403	24.61	0
2	130949	24.71	0
2	131495	24.81	0
2	132041	24.91	0
2	132595	25.01	0
2	133141	25.11	0
2	133687	25.21	0
2	134233	25.31	0
2	134779	25.41	0
2	135325	25.51	0
2	135871	25.61	0
2	136417	25.71	0
2	136963	25.81	0
2	137509	25.91	0
2	138063	26.01	0
2	138609	26.11	0
2	139155	26.21	0
2	139701	26.31	0
2	140247	26.41	0
2	140793	26.51	0
2	141339	26.61	0
2	141885	26.71	0
2	142431	26.81	0
2	142977	26.91	0
2	143531	27.01	0
2	144077	27.11	0
2	144623	27.21	0
2	145169	27.31	0
2	145715	27.41	0
2	146261	27.51	0
2	146807	27.61	0
2	147353	27.71	0
2	147899	27.81	0
2	148445	27.91	0
2	148999	28.01	0
2	149545	28.11	0
2	150091	28.21	0
2	150637	28.31	0
2	151183	28.41	0
2	151729	28.51	0
2	152275	28.61	0
2	152821	28.71	0
2	153367	28.81	0
2	153913	28.91	0
2	154467	29.01	0
2	155013	29.11	0
2	155559	29.21	0
2	156105	29.31	0
2	156651	29.41	0
2	157197	29.51	0
2	157743	29.61	0
2	158289	29.71	0
2	158835	29.81	0
2	159381	29.91	0
2	159935	30.01	0
2	160481	30.11	0
2	161027	30.21	0
2	161573	30.31	0
2	162119	30.41	0
2	162665	30.51	0
2	163211	30.61	0
2	163757	30.71	0
2	164303	30.81	0
2	164849	30.91	0
2	165403	31.01	0
2	165949	31.11	0
2	166495	31.21	0
2	167041	31.31	0
2	167587	31.41	0
2	168133	31.51	0
2	168679	31.61	0
2	169225	31.71	0
2	169771	31.81	0
2	170317	31.91	0
2	170871	32.01	0
2	171417	32.11	0
2	171963	32.21	0
2	172509	32.31	0
2	173055	32.41	0
2	173601	32.51	0
2	174147	32.61	0
2	174693	32.71	0
2	175239	32.81	0
2	175785	32.91	0
2	176339	33.01	0
2	176885	33.11	0
2	177431	33.21	0
2	177977	33.31	0
2	178523	33.41	0
2	179069	33.51	0
2	179615	33.61	0
2	180161	33.71	0
2	180707	33.81	0
2	181253	33.91	0
2	181807	34.01	0
2	182353	34.11	0
2	182899	34.21	0
2	183445	34.31	0
2	183991	34.41	0
2	184537	34.51	0
2	185083	34.61	0
2	185629	34.71	0
2	186175	34.81	0
2	186721	34.91	0
2	187275	35.01	0
2	187821	35.11	0
2	188367	35.21	0
2	188913	35.31	0
2	189459	35.41	0
2	190005	35.51	0
2	190551	35.61	0
2	191097	35.71	0
2	191643	35.81	0
2	192189	35.91	0
2	192743	36.01	0
2	193289	36.11	0
2	193835	36.21	0
2	194381	36.31	0
2	194927	36.41	0
2	195473	36.51	0
2	196019	36.61	0
2	196565	36.71	0
2	197111	36.81	0
2	197657	36.91	0
2	198211	37.01	0
2	198757	37.11	0
2	199303	37.21	0
2	199849	37.31	0
2	200395	37.41	0
2	200941	37.51	0
2	201487	37.61	0
2	202033	37.71	0
2	202579	37.81	0
2	203125	37.91	0
2	203679	38.01	0
2	204225	38.11	0
2	204771	38.21	0
2	205317	38.31	0
2	205863	38.41	0
2	206409	38.51	0
2	206955	38.61	0
2	207501	38.71	0
2	208047	38.81	0
2	208593	38.91	0
2	209147	39.01	0
2	209693	39.11	0
2	210239	39.21	0
2	210785	39.31	0
2	211331	39.41	0
2	211877	39.51	0
2	212423	39.61	0
2	212969	39.71	0
2	213515	39.81	0
2	214061	39.91	0
2	214615	40.01	0
2	215161	40.11	0
2	215707	40.21	0
2	216253	40.31	0
2	216799	40.41	0
2	217345	40.51	0
2	217891	40.61	0
2	218437	40.71	0
2	218983	40.81	0
2	219529	40.91	0
2	220083	41.01	0
2	220629	41.11	0
2	221175	41.21	0
2	221721	41.31	0
2	222267	41.41	0
2	222813	41.51	0
2	223359	41.61	0
2	223905	41.71	0
2	224451	41.81	0
2	224997	41.91	0
2	225551	42.01	0
2	226097	42.11	0
2	226643	42.21	0
2	227189	42.31	0
2	227735	42.41	0
2	228281	42.51	0
2	228827	42.61	0
2	229373	42.71	0
2	229919	42.81	0
2	230465	42.91	0
2	231019	43.01	0
2	231565	43.11	0
2	232111	43.21	0
2	232657	43.31	0
2	233203	43.41	0
2	233749	43.51	0
2	234295	43.61	0
2	234841	43.71	0
2	235387	43.81	0
2	235933	43.91	0
2	236487	44.01	0
2	237033	44.11	0
2	237579	44.21	0
2	238125	44.31	0
2	238671	44.41	0
2	239217	44.51	0
2	239763	44.61	0
2	240309	44.71	0
2	240855	44.81	0
2	241401	44.91	0
2	241955	45.01	0
2	242501	45.11	0
2	243047	45.21	0
2	243593	45.31	0
2	244139	45.41	0
2	244685	45.51	0
2	245231	45.61	0
2	245777	45.71	0
2	246323	45.81	0
2	246869	45.91	0
2	247423	46.01	0
2	247969	46.11	0
2	248515	46.21	0
2	249061	46.31	0
2	249607	46.41	0
2	250153	46.51	0
2	250699	46.61	0
2	251245	46.71	0
2	251791	46.81	0
2	252337	46.91	0
2	252891	47.01	0
2	253437	47.11	0
2	253983	47.21	0
2	254529	47.31	0
2	255075	47.41	0
2	255621	47.51	0
2	256167	47.61	0
2	256713	47.71	0
2	257259	47.81	0
2	257805	47.91	0
2	258359	48.01	0
2	258905	48.11	0
2	259451	48.21	0
2	259997	48.31	0
2	260543	48.41	0
2	261089	48.51	0
2	261635	48.61	0
2	262181	48.71	0
2	262727	48.81	0
2	263273	48.91	0
2	263827	49.01	0
2	264373	49.11	0
2	264919	49.21	0
2	265465	49.31	0
2	266011	49.41	0
2	266557	49.51	0
2	267103	49.61	0
2	267649	49.71	0
2	268195	49.81	0
2	268741	49.91	0
2	269295	50.01	0
2	269841	50.11	0
2	270387	50.21	0
2	270933	50.31	0
2	271479	50.41	0
2	272025	50.51	0
2	272571	50.61	0
2	273117	50.71	0
2	273663	50.81	0
2	274209	50.91	0
2	274763	51.01	0
2	275309	51.11	0
2	275855	51.21	0
2	276401	51.31	0
2	276947	51.41	0
2	277493	51.51	0
2	278039	51.61	0
2	278585	51.71	0
2	279131	51.81	0
2	279677	51.91	0
2	280231	52.01	0
2	280777	52.11	0
2	281323	52.21	0
2	281869	52.31	0
2	282415	52.41	0
2	282961	52.51	0
2	283507	52.61	0
2	284053	52.71	0
2	284599	52.81	0
2	285145	52.91	0
2	285699	53.01	0
2	286245	53.11	0
2	286791	53.21	0
2	287337	53.31	0
2	287883	53.41	0
2	288429	53.51	0
2	288975	53.61	0
2	289521	53.71	0
2	290067	53.81	0
2	290613	53.91	0
2	291167	54.01	0
2	291713	54.11	0
2	292259	54.21	0
2	292805	54.31	0
2	293351	54.41	0
2	293897	54.51	0
2	294443	54.61	0
2	294989	54.71	0
2	295535	54.81	0
2	296081	54.91	0
2	296635	55.01	0
2	297181	55.11	0
2	297727	55.21	0
2	298273	55.31	0
2	298819	55.41	0
2	299365	55.51	0
2	299911	55.61	0
2	300457	55.71	0
2	301003	55.81	0
2	301549	55.91	0
2	302103	56.01	0
2	302649	56.11	0
2	303195	56.21	0
2	303741	56.31	0
2	304287	56.41	0
2	304833	56.51	0
2	305379	56.61	0
2	305925	56.71	0
2	306471	56.81	0
2	307017	56.91	0
2	307571	57.01	0
2	308117	57.11	0
2	308663	57.21	0
2	309209	57.31	0
2	309755	57.41	0
2	310301	57.51	0
2	310847	57.61	0
2	311393	57.71	0
2	311939	57.81	0
2	312485	57.91	0
2	313039	58.01	0
2	313585	58.11	0
2	314131	58.21	0
2	314677	58.31	0
2	315223	58.41	0
2	315769	58.51	0
2	316315	58.61	0
2	316861	58.71	0
2	317407	58.81	0
2	317953	58.91	0
2	318507	59.01	0
2	319053	59.11	0
2	319599	59.21	0
2	320145	59.31	0
2	320691	59.41	0
2	321237	59.51	0
2	321783	59.61	0
2	322329	59.71	0
2	322875	59.81	0
2	323421	59.91	0
2	323975	60.01	0
2	324521	60.11	0
2	325067	60.21	0
2	325613	60.31	0
2	326159	60.41	0
2	326705	60.51	0
2	327251	60.61	0
2	327797	60.71	0
2	328343	60.81	0
2	328889	60.91	0
2	329443	61.01	0
2	329989	61.11	0
2	330535	61.21	0
2	331081	61.31	0
2	331627	61.41	0
2	332173	61.51	0
2	332719	61.61	0
2	333265	61.71	0
2	333811	61.81	0
2	334357	61.91	0
2	334911	62.01	0
2	335457	62.11	0
2	336003	62.21	0
2	336549	62.31	0
2	337095	62.41	0
2	337641	62.51	0
2	338187	62.61	0
2	338733	62.71	0
2	339279	62.81	0
2	339825	62.91	0
2	340379	63.01	0
2	340925	63.11	0
2	341471	63.21	0
2	342017	63.31	0
2	342563	63.41	0
2	343109	63.51	0
2	343655	63.61	0
2	344201	63.71	0
2	344747	63.81	0
2	345293	63.91	0
2	345847	64.01	0
2	346393	64.11	0
2	346939	64.21	0
2	347485	64.31	0
2	348031	64.41	0
2	348577	64.51	0
2	349123	64.61	0
2	349669	64.71	0
2	350215	64.81	0
2	350761	64.91	0
2	351315	65.01	0
2	351861	65.11	0
2	352407	65.21	0
2	352953	65.31	0
2	353499	65.41	0
2	354045	65.51	0
2	354591	65.61	0
2	355137	65.71	0
2	355683	65.81	0
2	356229	65.91	0
2	356783	66.01	0
2	357329	66.11	0
2	357875	66.21	0
2	358421	66.31	0
2	358967	66.41	0
2	359513	66.51	0
2	360059	66.61	0
2	360605	66.71	0
2	361151	66.81	0
2	361697	66.91	0
2	362251	67.01	0
2	362797	67.11	0
2	363343	67.21	0
2	363889	67.31	0
2	364435	67.41	0
2	364981	67.51	0
2	365527	67.61	0
2	366073	67.71	0
2	366619	67.81	0
2	367165	67.91	0
2	367719	68.01	0
2	368265	68.11	0
2	368811	68.21	0
2	369357	68.31	0
2	369903	68.41	0
2	370449	68.51	0
2	370995	68.61	0
2	371541	68.71	0
2	372087	68.81	0
2	372633	68.91	0
2	373187	69.01	0
2	373733	69.11	0
2	374279	69.21	0
2	374825	69.31	0
2	375371	69.41	0
2	375917	69.51	0
2	376463	69.61	0
2	377009	69.71	0
2	377555	69.81	0
2	378101	69.91	0
2	378655	70.01	0
2	379201	70.11	0
2	379747	70.21	0
2	380293	70.31	0
2	380839	70.41	0
2	381385	70.51	0
2	381931	70.61	0
2	382477	70.71	0
2	383023	70.81	0
2	383569	70.91	0
2	384123	71.01	0
2	384669	71.11	0
2	385215	71.21	0
2	385761	71.31	0
2	386307	71.41	0
2	386853	71.51	0
2	387399	71.61	0
2	387945	71.71	0
2	388491	71.81	0
2	389037	71.91	0
2	389591	72.01	0
2	390137	72.11	0
2	390683	72.21	0
2	391229	72.31	0
2	391775	72.41	0
2	392321	72.51	0
2	392867	72.61	0
2	393413	72.71	0
2	393959	72.81	0
2	394505	72.91	0
2	395059	73.01	0
2	395605	73.11	0
2	396151	73.21	0
2	396697	73.31	0
2	397243	73.41	0
2	397789	73.51	0
2	398335	73.61	0
2	398881	73.71	0
2	399427	73.81	0
2	399973	73.91	0
2	400527	74.01	0
2	401073	74.11	0
2	401619	74.21	0
2	402165	74.31	0
2	402711	74.41	0
2	403257	74.51	0
2	403803	74.61	0
2	404349	74.71	0
2	404895	74.81	0
2	405441	74.91	0
2	405995	75.01	0
2	406541	75.11	0
2	407087	75.21	0
2	407633	75.31	0
2	408179	75.41	0
2	408725	75.51	0
2	409271	75.61	0
2	409817	75.71	0
2	410363	75.81	0
2	410909	75.91	0
2	411463	76.01	0
2	412009	76.11	0
2	412555	76.21	0
2	413101	76.31	0
2	413647	76.41	0
2	414193	76.51	0
2	414739	76.61	0
2	415285	76.71	0
2	415831	76.81	0
2	416377	76.91	0
2	416931	77.01	0
2	417477	77.11	0
2	418023	77.21	0
2	418569	77.31	0
2	419115	77.41	0
2	419661	77.51	0
2	420207	77.61	0
2	420753	77.71	0
2	421299	77.81	0
2	421845	77.91	0
2	422399	78.01	0
2	422945	78.11	0
2	423491	78.21	0
2	424037	78.31	0
2	424583	78.41	0
2	425129	78.51	0
2	425675	78.61	0
2	426221	78.71	0
2	426767	78.81	0
2	427313	78.91	0
2	427867	79.01	0
2	428413	79.11	0
2	428959	79.21	0
2	429505	79.31	0
2	430051	79.41	0
2	430597	79.51	0
2	431143	79.61	0
2	431689	79.71	0
2	432235	79.81	0
2	432781	79.91	0
2	433335	80.01	0
2	433881	80.11	0
2	434427	80.21	0
2	434973	80.31	0
2	435519	80.41	0
2	436065	80.51	0
2	436611	80.61	0
2	437157	80.71	0
2	437703	80.81	0
2	438249	80.91	0
2	438803	81.01	0
2	439349	81.11	0
2	439895	81.21	0
2	440441	81.31	0
2	440987	81.41	0
2	441533	81.51	0
2	442079	81.61	0
2	442625	81.71	0
2	443171	81.81	0
2	443717	81.91	0
2	444271	82.01	0
2	444817	82.11	0
2	445363	82.21	0
2	445909	82.31	0
2	446455	82.41	0
2	447001	82.51	0
2	447547	82.61	0
2	448093	82.71	0
2	448639	82.81	0
2	449185	82.91	0
2	449739	83.01	0
2	450285	83.11	0
2	450831	83.21	0
2	451377	83.31	0
2	451923	83.41	0
2	452469	83.51	0
2	453015	83.61	0
2	453561	83.71	0
2	454107	83.81	0
2	454653	83.91	0
2	455207	84.01	0
2	455753	84.11	0
2	456299	84.21	0
2	456845	84.31	0
2	457391	84.41	0
2	457937	84.51	0
2	458483	84.61	0
2	459029	84.71	0
2	459575	84.81	0
2	460121	84.91	0
2	460675	85.01	0
2	461221	85.11	0
2	461767	85.21	0
2	462313	85.31	0
2	462859	85.41	0
2	463405	85.51	0
2	463951	85.61	0
2	464497	85.71	0
2	465043	85.81	0
2	465589	85.91	0
2	466143	86.01	0
2	466689	86.11	0
2	467235	86.21	0
2	467781	86.31	0
2	468327	86.41	0
2	468873	86.51	0
2	469419	86.61	0
2	469965	86.71	0
2	470511	86.81	0
2	471057	86.91	0
2	471611	87.01	0
2	472157	87.11	0
2	472703	87.21	0
2	473249	87.31	0
2	473795	87.41	0
2	474341	87.51	0
2	474887	87.61	0
2	475433	87.71	0
2	475979	87.81	0
2	476525	87.91	0
2	477079	88.01	0
2	477625	88.11	0
2	478171	88.21	0
2	478717	88.31	0
2	479263	88.41	0
2	479809	88.51	0
2	480355	88.61	0
2	480901	88.71	0
2	481447	88.81	0
2	481993	88.91	0
2	482547	89.01	0
2	483093	89.11	0
2	483639	89.21	0
2	484185	89.31	0
2	484731	89.41	0
2	485277	89.51	0
2	485823	89.61	0
2	486369	89.71	0
2	486915	89.81	0
2	487461	89.91	0
2	488015	90.01	0
2	488561	90.11	0
2	489107	90.21	0
2	489653	90.31	0
2	490199	90.41	0
2	490745	90.51	0
2	491291	90.61	0
2	491837	90.71	0
2	492383	90.81	0
2	492929	90.91	0
2	493483	91.01	0
2	494029	91.11	0
2	494575	91.21	0
2	495121	91.31	0
2	495667	91.41	0
2	496213	91.51	0
2	496759	91.61	0
2	497305	91.71	0
2	497851	91.81	0
2	498397	91.91	0
2	498951	92.01	0
2	499497	92.11	0
2	500043	92.21	0
2	500589	92.31	0
2	501135	92.41	0
2	501681	92.51	0
2	502227	92.61	0
2	502773	92.71	0
2	503319	92.81	0
2	503865	92.91	0
2	504419	93.01	0
2	504965	93.11	0
2	505511	93.21	0
2	506057	93.31	0
2	506603	93.41	0
2	507149	93.51	0
2	507695	93.61	0
2	508241	93.71	0
2	508787	93.81	0
2	509333	93.91	0
2	509887	94.01	0
2	510433	94.11	0
2	510979	94.21	0
2	511525	94.31	0
2	512071	94.41	0
2	512617	94.51	0
2	513163	94.61	0
2	513709	94.71	0
2	514255	94.81	0
2	514801	94.91	0
2	515355	95.01	0
2	515901	95.11	0
2	516447	95.21	0
2	516993	95.31	0
2	517539	95.41	0
2	518085	95.51	0
2	518631	95.61	0
2	519177	95.71	0
2	519723	95.81	0
2	520269	95.91	0
2	520823	96.01	0
2	521369	96.11	0
2	521915	96.21	0
2	522461	96.31	0
2	523007	96.41	0
2	523553	96.51	0
2	524099	96.61	0
2	524645	96.71	0
2	525191	96.81	0
2	525737	96.91	0
2	526291	97.01	0
2	526837	97.11	0
2	527383	97.21	0
2	527929	97.31	0
2	528475	97.41	0
2	529021	97.51	0
2	529567	97.61	0
2	530113	97.71	0
2	530659	97.81	0
2	531205	97.91	0
2	531759	98.01	0
2	532305	98.11	0
2	532851	98.21	0
2	533397	98.31	0
2	533943	98.41	0
2	534489	98.51	0
2	535035	98.61	0
2	535581	98.71	0
2	536127	98.81	0
2	536673	98.91	0
2	537227	99.01	0
2	537773	99.11	0
2	538319	99.21	0
2	538865	99.31	0
2	539411	99.41	0
2	539957	99.51	0
2	540503	99.61	0
2	541049	99.71	0
2	541595	99.81	0
2	542141	99.91	0
3	113	1.11	-0.000716383
3	659	1.21	-0.00136341
3	1205	1.31	-0.00186974
3	1751	1.41	-0.00225157
3	2297	1.51	-0.00252443
3	2843	1.61	-0.00270298
3	3389	1.71	-0.00280098
3	3935	1.81	-0.00283113
3	4481	1.91	-0.00280509
3	5035	2.01	-0.00273342
3	5581	2.11	-0.00262559
3	6127	2.21	-0.00249005
3	6673	2.31	-0.00233419
3	7219	2.41	-0.00216447
3	7765	2.51	-0.00198642
3	8311	2.61	-0.00180472
3	8857	2.71	-0.0016233
3	9403	2.81	-0.00144536
3	9949	2.91	-0.00127346
3	10503	3.01	-0.0011096
3	11049	3.11	-0.000955278
3	11595	3.21	-0.000811546
3	12141	3.31	-0.00067908
3	12687	3.41	-0.000558232
3	13233	3.51	-0.000449082
3	13779	3.61	-0.000351487
3	14325	3.71	-0.00026512
3	14871	3.81	-0.000189514
3	15417	3.91	-0.000124092
3	15971	4.01	-6.81972e-05
3	16517	4.11	-2.11209e-05
3	17063	4.21	1.78769e-05
3	17609	4.31	4.9548e-05
3	18155	4.41	7.46407e-05
3	18701	4.51	9.38867e-05
3	19247	4.61	0.000107991
3	19793	4.71	0.000117625
3	20339	4.81	0.000123418
3	20885	4.91	0.000125957
3	21439	5.01	0.000125781
3	21985	5.11	0.00012338
3	22531	5.21	0.000119198
3	23077	5.31	0.000113629
3	23623	5.41	0.000107022
3	24169	5.51	9.96832e-05
3	24715	5.61	9.18747e-05
3	25261	5.71	8.38211e-05
3	25807	5.81	7.57109e-05
3	26353	5.91	6.76999e-05
3	26907	6.01	5.99137e-05
3	27453	6.11	5.24518e-05
3	27999	6.21	4.53896e-05
3	28545	6.31	3.87821e-05
3	29091	6.41	3.2666e-05
3	29637	6.51	2.70628e-05
3	30183	6.61	2.19809e-05
3	30729	6.71	1.74176e-05
3	31275	6.81	1.33618e-05
3	31821	6.91	9.79494e-06
3	32375	7.01	6.6932e-06
3	32921	7.11	4.02864e-06
3	33467	7.21	1.77051e-06
3	34013	7.31	-1.13691e-07
3	34559	7.41	-1.65736e-06
3	35105	7.51	-2.89397e-06
3	35651	7.61	-3.85652e-06
3	36197	7.71	-4.57698e-06
3	36743	7.81	-5.08591e-06
3	37289	7.91	-5.41219e-06
3	37843	8.01	-5.58279e-06
3	38389	8.11	-5.6226e-06
3	38935	8.21	-5.55442e-06
3	39481	8.31	-5.39886e-06
3	40027	8.41	-5.17441e-06
3	40573	8.51	-4.89748e-06
3	41119	8.61	-4.58246e-06
3	41665	8.71	-4.24184e-06
3	42211	8.81	-3.88634e-06
3	42757	8.91	-3.52499e-06
3	43311	9.01	-3.16534e-06
3	43857	9.11	-2.81353e-06
3	44403	9.21	-2.47446e-06
3	44949	9.31	-2.15192e-06
3	45495	9.41	-1.84873e-06
3	46041	9.51	-1.56685e-06
3	46587	9.61	-1.30751e-06
3	47133	9.71	-1.0713e-06
3	47679	9.81	-8.58321e-07
3	48225	9.91	-6.68206e-07
3	50575	10.01	-5.0026e-07
3	51121	10.11	-3.53514e-07
3	51667	10.21	-2.2679e-07
3	52213	10.31	-1.18765e-07
3	52759	10.41	-2.80163e-08
3	53305	10.51	4.6931e-08
3	53851	10.61	1.07573e-07
3	54397	10.71	1.55391e-07
3	54943	10.81	1.91831e-07
3	55489	10.91	2.18284e-07
3	56043	11.01	2.3607e-07
3	56589	11.11	2.46427e-07
3	57135	11.21	2.50502e-07
3	57681	11.31	2.49353e-07
3	58227	11.41	2.43938e-07
3	58773	11.51	2.3512e-07
3	59319	11.61	2.23669e-07
3	59865	11.71	2.10264e-07
3	60411	11.81	1.95496e-07
3	60957	11.91	1.79874e-07
3	61511	12.01	1.63833e-07
3	62057	12.11	1.47736e-07
3	62603	12.21	1.3188e-07
3	63149	12.31	1.16508e-07
3	63695	12.41	1.01807e-07
3	64241	12.51	8.79222e-08
3	64787	12.61	7.49541e-08
3	65333	12.71	6.29711e-08
3	65879	12.81	5.20114e-08
3	66425	12.91	4.20883e-08
3	66979	13.01	3.3193e-08
3	67525	13.11	2.53003e-08
3	68071	13.21	1.83718e-08
3	68617	13.31	1.23581e-08
3	69163	13.41	7.20348e-09
3	69709	13.51	2.84537e-09
3	70255	13.61	-7.80886e-10
3	70801	13.71	-3.74136e-09
3	71347	13.81	-6.10285e-09
3	71893	13.91	-7.93072e-09
3	72447	14.01	-9.28821e-09
3	72993	14.11	-1.0235e-08
3	73539	14.21	-1.08283e-08
3	74085	14.31	-1.11211e-08
3	74631	14.41	-1.11612e-08
3	75177	14.51	-1.09946e-08
3	75723	14.61	-1.06599e-08
3	76269	14.71	-1.01945e-08
3	76815	14.81	-9.62999e-09
3	77361	14.91	-8.99405e-09
3	77915	15.01	-8.31086e-09
3	78461	15.11	-7.60103e-09
3	79007	15.21	-6.88338e-09
3	79553	15.31	-6.17071e-09
3	80099	15.41	-5.47544e-09
3	80645	15.51	-4.80682e-09
3	81191	15.61	-4.17266e-09
3	81737	15.71	-3.57687e-09
3	82283	15.81	-3.02443e-09
3	82829	15.91	-2.51674e-09
3	83383	16.01	-2.05489e-09
3	83929	16.11	-1.63958e-09
3	84475	16.21	-1.26903e-09
3	85021	16.31	-9.42535e-10
3	85567	16.41	-6.57963e-10
3	86113	16.51	-4.1247e-10
3	86659	16.61	-2.04636e-10
3	87205	16.71	-2.91323e-11
3	87751	16.81	1.14753e-10
3	88297	16.91	2.30926e-10
3	88851	17.01	3.22231e-10
3	89397	17.11	3.91154e-10
3	89943	17.21	4.40892e-10
3	90489	17.31	4.73577e-10
3	91035	17.41	4.92051e-10
3	91581	17.51	4.98446e-10
3	92127	17.61	4.94893e-10
3	92673	17.71	4.82814e-10
3	93219	17.81	4.6434e-10
3	93765	17.91	4.40892e-10
3	94319	18.01	4.13536e-10
3	94865	18.11	3.83693e-10
3	95411	18.21	3.51719e-10
3	95957	18.31	3.19744e-10
3	96503	18.41	2.8777e-10
3	97049	18.51	2.55795e-10
3	97595	18.61	2.25953e-10
3	98141	18.71	1.97531e-10
3	98687	18.81	1.6982e-10
3	99233	18.91	1.44951e-10
3	99787	19.01	1.21503e-10
3	100333	19.11	1.00187e-10
3	100879	19.21	8.10019e-11
3	101425	19.31	6.32383e-11
3	101971	19.41	4.86722e-11
3	102517	19.51	3.44613e-11
3	103063	19.61	2.34479e-11
3	103609	19.71	1.27898e-11
3	104155	19.81	4.9738e-12
3	104701	19.91	-2.13163e-12
3	105255	20.01	-8.17124e-12
3	105801	20.11	-1.1724e-11
3	106347	20.21	-1.52767e-11
3	106893	20.31	-1.88294e-11
3	107439	20.41	-2.02505e-11
3	107985	20.51	-2.02505e-11
3	108531	20.61	-2.02505e-11
3	109077	20.71	-2.02505e-11
3	109623	20.81	-2.02505e-11
3	110169	20.91	-2.02505e-11
3	110723	21.01	-2.02505e-11
3	111269	21.11	-2.02505e-11
3	111815	21.21	-2.02505e-11
3	112361	21.31	-1.88294e-11
3	112907	21.41	-1.7053e-11
3	113453	21.51	-1.52767e-11
3	113999	21.61	-1.38556e-11
3	114545	21.71	-1.24345e-11
3	115091	21.81	-1.13687e-11
3	115637	21.91	-1.03029e-11
3	116191	22.01	-9.23706e-12
3	116737	22.11	-8.52651e-12
3	117283	22.21	-7.4607e-12
3	117829	22.31	-6.75016e-12
3	118375	22.41	-6.03961e-12
3	118921	22.51	-5.68434e-12
3	119467	22.61	-4.9738e-12
3	120013	22.71	-4.61853e-12
3	120559	22.81	-4.26326e-12
3	121105	22.91	-3.90799e-12
3	121659	23.01	-3.55271e-12
3	122205	23.11	-3.19744e-12
3	122751	23.21	-2.84217e-12
3	123297	23.31	-2.4869e-12
3	123843	23.41	-2.13163e-12
3	124389	23.51	-2.13163e-12
3	124935	23.61	-1.77636e-12
3	125481	23.71	-1.77636e-12
3	126027	23.81	-1.42109e-12
3	126573	23.91	-1.42109e-12
3	127127	24.01	-1.06581e-12
3	127673	24.11	-1.06581e-12
3	128219	24.21	-1.06581e-12
3	128765	24.31	-1.06581e-12
3	129311	24.41	-7.10543e-13
3	129857	24.51	-7.10543e-13
3	130403	24.61	-7.10543e-13
3	130949	24.71	-7.10543e-13
3	131495	24.81	-7.10543e-13
3	132041	24.91	-3.55271e-13
3	132595	25.01	-3.55271e-13
3	133141	25.11	-3.55271e-13
3	133687	25.21	-3.55271e-13
3	134233	25.31	-3.55271e-13
3	134779	25.41	-3.55271e-13
3	135325	25.51	-3.55271e-13
3	135871	25.61	-3.55271e-13
3	136417	25.71	-3.55271e-13
3	136963	25.81	-3.55271e-13
3	137509	25.91	0
3	138063	26.01	0
3	138609	26.11	0
3	139155	26.21	0
3	139701	26.31	0
3	140247	26.41	0
3	140793	26.51	0
3	141339	26.61	0
3	141885	26.71	0
3	142431	26.81	0
3	142977	26.91	0
3	143531	27.01	0
3	144077	27.11	0
3	144623	27.21	0
3	145169	27.31	0
3	145715	27.41	0
3	146261	27.51	0
3	146807	27.61	0
3	147353	27.71	0
3	147899	27.81	0
3	148445	27.91	0
3	148999	28.01	0
3	149545	28.11	0
3	150091	28.21	0
3	150637	28.31	0
3	151183	28.41	0
3	151729	28.51	0
3	152275	28.61	0
3	152821	28.71	0
3	153367	28.81	0
3	153913	28.91	0
3	154467	29.01	0
3	155013	29.11	0
3	155559	29.21	0
3	156105	29.31	0
3	156651	29.41	0
3	157197	29.51	0
3	157743	29.61	0
3	158289	29.71	0
3	158835	29.81	0
3	159381	29.91	0
3	159935	30.01	0
3	160481	30.11	0
3	161027	30.21	0
3	161573	30.31	0
3	162119	30.41	0
3	162665	30.51	0
3	163211	30.61	0
3	163757	30.71	0
3	164303	30.81	0
3	164849	30.91	0
3	165403	31.01	0
3	165949	31.11	0
3	166495	31.21	0
3	167041	31.31	0
3	167587	31.41	0
3	168133	31.51	0
3	168679	31.61	0
3	169225	31.71	0
3	169771	31.81	0
3	170317	31.91	0
3	170871	32.01	0
3	171417	32.11	0
3	171963	32.21	0
3	172509	32.31	0
3	173055	32.41	0
3	173601	32.51	0
3	174147	32.61	0
3	174693	32.71	0
3	175239	32.81	0
3	175785	32.91	0
3	176339	33.01	0
3	176885	33.11	0
3	177431	33.21	0
3	177977	33.31	0
3	178523	33.41	0
3	179069	33.51	0
3	179615	33.61	0
3	180161	33.71	0
3	180707	33.81	0
3	181253	33.91	0
3	181807	34.01	0
3	182353	34.11	0
3	182899	34.21	0
3	183445	34.31	0
3	183991	34.41	0
3	184537	34.51	0
3	185083	34.61	0
3	185629	34.71	0
3	186175	34.81	0
3	186721	34.91	0
3	187275	35.01	0
3	187821	35.11	0
3	188367	35.21	0
3	188913	35.31	0
3	189459	35.41	0
3	190005	35.51	0
3	190551	35.61	0
3	191097	35.71	0
3	191643	35.81	0
3	192189	35.91	0
3	192743	36.01	0
3	193289	36.11	0
3	193835	36.21	0
3	194381	36.31	0
3	194927	36.41	0
3	195473	36.51	0
3	196019	36.61	0
3	196565	36.71	0
3	197111	36.81	0
3	197657	36.91	0
3	198211	37.01	0
3	198757	37.11	0
3	199303	37.21	0
3	199849	37.31	0
3	200395	37.41	0
3	200941	37.51	0
3	201487	37.61	0
3	202033	37.71	0
3	202579	37.81	0
3	203125	37.91	0
3	203679	38.01	0
3	204225	38.11	0
3	204771	38.21	0
3	205317	38.31	0
3	205863	38.41	0
3	206409	38.51	0
3	206955	38.61	0
3	207501	38.71	0
3	208047	38.81	0
3	208593	38.91	0
3	209147	39.01	0
3	209693	39.11	0
3	210239	39.21	0
3	210785	39.31	0
3	211331	39.41	0
3	211877	39.51	0
3	212423	39.61	0
3	212969	39.71	0
3	213515	39.81	0
3	214061	39.91	0
3	214615	40.01	0
3	215161	40.11	0
3	215707	40.21	0
3	216253	40.31	0
3	216799	40.41	0
3	217345	40.51	0
3	217891	40.61	0
3	218437	40.71	0
3	218983	40.81	0
3	219529	40.91	0
3	220083	41.01	0
3	220629	41.11	0
3	221175	41.21	0
3	221721	41.31	0
3	222267	41.41	0
3	222813	41.51	0
3	223359	41.61	0
3	223905	41.71	0
3	224451	41.81	0
3	224997	41.91	0
3	225551	42.01	0
3	226097	42.11	0
3	226643	42.21	0
3	227189	42.31	0
3	227735	42.41	0
3	228281	42.51	0
3	228827	42.61	0
3	229373	42.71	0
3	229919	42.81	0
3	230465	42.91	0
3	231019	43.01	0
3	231565	43.11	0
3	232111	43.21	0
3	232657	43.31	0
3	233203	43.41	0
3	233749	43.51	0
3	234295	43.61	0
3	234841	43.71	0
3	235387	43.81	0
3	235933	43.91	0
3	236487	44.01	0
3	237033	44.11	0
3	237579	44.21	0
3	238125	44.31	0
3	238671	44.41	0
3	239217	44.51	0
3	239763	44.61	0
3	240309	44.71	0
3	240855	44.81	0
3	241401	44.91	0
3	241955	45.01	0
3	242501	45.11	0
3	243047	45.21	0
3	243593	45.31	0
3	244139	45.41	0
3	244685	45.51	0
3	245231	45.61	0
3	245777	45.71	0
3	246323	45.81	0
3	246869	45.91	0
3	247423	46.01	0
3	247969	46.11	0
3	248515	46.21	0
3	249061	46.31	0
3	249607	46.41	0
3	250153	46.51	0
3	250699	46.61	0
3	251245	46.71	0
3	251791	46.81	0
3	252337	46.91	0
3	252891	47.01	0
3	253437	47.11	0
3	253983	47.21	0
3	254529	47.31	0
3	255075	47.41	0
3	255621	47.51	0
3	256167	47.61	0
3	256713	47.71	0
3	257259	47.81	0
3	257805	47.91	0
3	258359	48.01	0
3	258905	48.11	0
3	259451	48.21	0
3	259997	48.31	0
3	260543	48.41	0
3	261089	48.51	0
3	261635	48.61	0
3	262181	48.71	0
3	262727	48.81	0
3	263273	48.91	0
3	263827	49.01	0
3	264373	49.11	0
3	264919	49.21	0
3	265465	49.31	0
3	266011	49.41	0
3	266557	49.51	0
3	267103	49.61	0
3	267649	49.71	0
3	268195	49.81	0
3	268741	49.91	0
3	269295	50.01	0
3	269841	50.11	0
3	270387	50.21	0
3	270933	50.31	0
3	271479	50.41	0
3	272025	50.51	0
3	272571	50.61	0
3	273117	50.71	0
3	273663	50.81	0
3	274209	50.91	0
3	274763	51.01	0
3	275309	51.11	0
3	275855	51.21	0
3	276401	51.31	0
3	276947	51.41	0
3	277493	51.51	0
3	278039	51.61	0
3	278585	51.71	0
3	279131	51.81	0
3	279677	51.91	0
3	280231	52.01	0
3	280777	52.11	0
3	281323	52.21	0
3	281869	52.31	0
3	282415	52.41	0
3	282961	52.51	0
3	283507	52.61	0
3	284053	52.71	0
3	284599	52.81	0
3	285145	52.91	0
3	285699	53.01	0
3	286245	53.11	0
3	286791	53.21	0
3	287337	53.31	0
3	287883	53.41	0
3	288429	53.51	0
3	288975	53.61	0
3	289521	53.71	0
3	290067	53.81	0
3	290613	53.91	0
3	291167	54.01	0
3	291713	54.11	0
3	292259	54.21	0
3	292805	54.31	0
3	293351	54.41	0
3	293897	54.51	0
3	294443	54.61	0
3	294989	54.71	0
3	295535	54.81	0
3	296081	54.91	0
3	296635	55.01	0
3	297181	55.11	0
3	297727	55.21	0
3	298273	55.31	0
3	298819	55.41	0
3	299365	55.51	0
3	299911	55.61	0
3	300457	55.71	0
3	301003	55.81	0
3	301549	55.91	0
3	302103	56.01	0
3	302649	56.11	0
3	303195	56.21	0
3	303741	56.31	0
3	304287	56.41	0
3	304833	56.51	0
3	305379	56.61	0
3	305925	56.71	0
3	306471	56.81	0
3	307017	56.91	0
3	307571	57.01	0
3	308117	57.11	0
3	308663	57.21	0
3	309209	57.31	0
3	309755	57.41	0
3	310301	57.51	0
3	310847	57.61	0
3	311393	57.71	0
3	311939	57.81	0
3	312485	57.91	0
3	313039	58.01	0
3	313585	58.11	0
3	314131	58.21	0
3	314677	58.31	0
3	315223	58.41	0
3	315769	58.51	0
3	316315	58.61	0
3	316861	58.71	0
3	317407	58.81	0
3	317953	58.91	0
3	318507	59.01	0
3	319053	59.11	0
3	319599	59.21	0
3	320145	59.31	0
3	320691	59.41	0
3	321237	59.51	0
3	321783	59.61	0
3	322329	59.71	0
3	322875	59.81	0
3	323421	59.91	0
3	323975	60.01	0
3	324521	60.11	0
3	325067	60.21	0
3	325613	60.31	0
3	326159	60.41	0
3	326705	60.51	0
3	327251	60.61	0
3	327797	60.71	0
3	328343	60.81	0
3	328889	60.91	0
3	329443	61.01	0
3	329989	61.11	0
3	330535	61.21	0
3	331081	61.31	0
3	331627	61.41	0
3	332173	61.51	0
3	332719	61.61	0
3	333265	61.71	0
3	333811	61.81	0
3	334357	61.91	0
3	334911	62.01	0
3	335457	62.11	0
3	336003	62.21	0
3	336549	62.31	0
3	337095	62.41	0
3	337641	62.51	0
3	338187	62.61	0
3	338733	62.71	0
3	339279	62.81	0
3	339825	62.91	0
3	340379	63.01	0
3	340925	63.11	0
3	341471	63.21	0
3	342017	63.31	0
3	342563	63.41	0
3	343109	63.51	0
3	343655	63.61	0
3	344201	63.71	0
3	344747	63.81	0
3	345293	63.91	0
3	345847	64.01	0
3	346393	64.11	0
3	346939	64.21	0
3	347485	64.31	0
3	348031	64.41	0
3	348577	64.51	0
3	349123	64.61	0
3	349669	64.71	0
3	350215	64.81	0
3	350761	64.91	0
3	351315	65.01	0
3	351861	65.11	0
3	352407	65.21	0
3	352953	65.31	0
3	353499	65.41	0
3	354045	65.51	0
3	354591	65.61	0
3	355137	65.71	0
3	355683	65.81	0
3	356229	65.91	0
3	356783	66.01	0
3	357329	66.11	0
3	357875	66.21	0
3	358421	66.31	0
3	358967	66.41	0
3	359513	66.51	0
3	360059	66.61	0
3	360605	66.71	0
3	361151	66.81	0
3	361697	66.91	0
3	362251	67.01	0
3	362797	67.11	0
3	363343	67.21	0
3	363889	67.31	0
3	364435	67.41	0
3	364981	67.51	0
3	365527	67.61	0
3	366073	67.71	0
3	366619	67.81	0
3	367165	67.91	0
3	367719	68.01	0
3	368265	68.11	0
3	368811	68.21	0
3	369357	68.31	0
3	369903	68.41	0
3	370449	68.51	0
3	370995	68.61	0
3	371541	68.71	0
3	372087	68.81	0
3	372633	68.91	0
3	373187	69.01	0
3	373733	69.11	0
3	374279	69.21	0
3	374825	69.31	0
3	375371	69.41	0
3	375917	69.51	0
3	376463	69.61	0
3	377009	69.71	0
3	377555	69.81	0
3	378101	69.91	0
3	378655	70.01	0
3	379201	70.11	0
3	379747	70.21	0
3	380293	70.31	0
3	380839	70.41	0
3	381385	70.51	0
3	381931	70.61	0
3	382477	70.71	0
3	383023	70.81	0
3	383569	70.91	0
3	384123	71.01	0
3	384669	71.11	0
3	385215	71.21	0
3	385761	71.31	0
3	386307	71.41	0
3	386853	71.51	0
3	387399	71.61	0
3	387945	71.71	0
3	388491	71.81	0
3	389037	71.91	0
3	389591	72.01	0
[...]
105	438620	81	0.024972646114
105	444088	82	0.024972312021
105	449556	83	0.024958977761
105	455024	84	0.024971643271
105	460492	85	0.024971308458
105	465960	86	0.024970973164
105	471428	87	0.02497063712
105	476896	88	0.024970299756
105	482364	89	0.024969959841
105	487832	90	0.024969614091
105	493300	91	0.024969252372
105	498768	92	0.024968850843
105	504236	93	0.024968399235
105	509704	94	0.02498092099
105	515172	95	0.024967433192
105	520640	96	0.024966941601
105	526108	97	0.024966448215
105	531576	98	0.024978953838
105	537044	99	0.024965458871
105	542512	100	0.02496496352
106	4852	2	0
106	10320	3	0
106	15788	4	0
106	21256	5	0
106	26724	6	0
106	32192	7	0
106	37660	8	0
106	43128	9	0
106	48597	10	0
106	55860	11	0
106	61328	12	0
106	66796	13	0
106	72264	14	0
106	77732	15	0
106	83200	16	0
106	88668	17	0
106	94136	18	0
106	99604	19	0
106	105072	20	0
106	110540	21	0
106	116008	22	0
106	121476	23	0
106	126944	24	0
106	132412	25	0
106	137880	26	0
106	143348	27	0
106	148816	28	0
106	154284	29	0
106	159752	30	0
106	165220	31	0
106	170688	32	0
106	176156	33	0
106	181624	34	0
106	187092	35	0
106	192560	36	0
106	198028	37	0
106	203496	38	0
106	208964	39	0
106	214432	40	0
106	219900	41	0
106	225368	42	0
106	230836	43	0
106	236304	44	0
106	241772	45	0
106	247240	46	0
106	252708	47	0
106	258176	48	0
106	263644	49	0
106	269112	50	0
106	274580	51	0
106	280048	52	0
106	285516	53	0
106	290984	54	0
106	296452	55	0
106	301920	56	0
106	307388	57	0
106	312856	58	0
106	318324	59	0
106	323792	60	0
106	329260	61	0
106	334728	62	0
106	340196	63	0
106	345664	64	0
106	351132	65	0
106	356600	66	0
106	362068	67	0
106	367536	68	0
106	373004	69	0
106	378472	70	0
106	383940	71	0
106	389408	72	0
106	394876	73	0
106	400344	74	0
106	405812	75	0
106	411280	76	0
106	416748	77	0
106	422216	78	0
106	427684	79	0
106	433152	80	0
106	438620	81	0
106	444088	82	0
106	449556	83	0
106	455024	84	0
106	460492	85	0
106	465960	86	0
106	471428	87	0
106	476896	88	0
106	482364	89	0
106	487832	90	0
106	493300	91	0
106	498768	92	0
106	504236	93	0
106	509704	94	0
106	515172	95	0
106	520640	96	0
106	526108	97	0
106	531576	98	0
106	537044	99	0
106	542512	100	0
107	4853	2	5
107	10321	3	5
107	15789	4	5
107	21257	5	5
107	26725	6	5
107	32193	7	5
107	37661	8	5
107	43129	9	5
107	48598	10	5
107	55861	11	5
107	61329	12	5
107	66797	13	5
107	72265	14	5
107	77733	15	5
107	83201	16	5
107	88669	17	5
107	94137	18	5
107	99605	19	5
107	105073	20	5
107	110541	21	5
107	116009	22	5
107	121477	23	5
107	126945	24	5
107	132413	25	5
107	137881	26	5
107	143349	27	5
107	148817	28	5
107	154285	29	5
107	159753	30	5
107	165221	31	5
107	170689	32	5
107	176157	33	5
107	181625	34	5
107	187093	35	5
107	192561	36	5
107	198029	37	5
107	203497	38	5
107	208965	39	5
107	214433	40	5
107	219901	41	5
107	225369	42	5
107	230837	43	5
107	236305	44	5
107	241773	45	5
107	247241	46	5
107	252709	47	5
107	258177	48	5
107	263645	49	5
107	269113	50	5
107	274581	51	5
107	280049	52	5
107	285517	53	5
107	290985	54	5
107	296453	55	5
107	301921	56	5
107	307389	57	5
107	312857	58	5
107	318325	59	5
107	323793	60	5
107	329261	61	5
107	334729	62	5
107	340197	63	5
107	345665	64	5
107	351133	65	5
107	356601	66	5
107	362069	67	5
107	367537	68	5
107	373005	69	5
107	378473	70	5
107	383941	71	5
107	389409	72	5
107	394877	73	5
107	400345	74	5
107	405813	75	5
107	411281	76	5
107	416749	77	5
107	422217	78	5
107	427685	79	5
107	433153	80	5
107	438621	81	5
107	444089	82	5
107	449557	83	5
107	455025	84	5
107	460493	85	5
107	465961	86	5
107	471429	87	5
107	476897	88	5
107	482365	89	5
107	487833	90	5
107	493301	91	5
107	498769	92	5
107	504237	93	5
107	509705	94	5
107	515173	95	5
107	520641	96	5
107	526109	97	5
107	531577	98	5
107	537045	99	5
107	542513	100	5
108	4853	2	0.021650416841
108	10321	3	0.024977796495
108	15789	4	0.024964796568
108	21257	5	0.024977796609
108	26725	6	0.024964796661
108	32193	7	0.024964796688
108	37661	8	0.024977796701
108	43129	9	0.024964796718
108	48598	10	0.02497779671
108	55861	11	0.026879746533
108	61329	12	0.024977670101
108	66797	13	0.024964376172
108	72265	14	0.024976700144
108	77733	15	0.024962752229
108	83201	16	0.024974654184
108	88669	17	0.024973654782
108	94137	18	0.024959932668
108	99605	19	0.024972471303
108	105073	20	0.024972214297
108	110541	21	0.024972096669
108	116009	22	0.024972085932
108	121477	23	0.024972165388
108	126945	24	0.024959300107
108	132413	25	0.024972450195
108	137881	26	0.024972616233
108	143349	27	0.02497276658
108	148817	28	0.024972903285
108	154285	29	0.024960019857
108	159753	30	0.024973099879
108	165221	31	0.024973180297
108	170689	32	0.024972991765
108	176157	33	0.024959754344
108	181625	34	0.024972512508
108	187093	35	0.024972264574
108	192561	36	0.024972012456
108	198029	37	0.02497177014
108	203497	38	0.024971509783
108	208965	39	0.024958232528
108	214433	40	0.024970963236
108	219901	41	0.024970695589
108	225369	42	0.024970401545
108	230837	43	0.024970153662
108	236305	44	0.024969953391
108	241773	45	0.024969774015
108	247241	46	0.024969597077
108	252709	47	0.024969411813
108	258177	48	0.024969220182
108	263645	49	0.024982025469
108	269113	50	0.024968829066
108	274581	51	0.024968631198
108	280049	52	0.024968410138
108	285517	53	0.024968209234
108	290985	54	0.024968009546
108	296453	55	0.024967802446
108	301921	56	0.024980591006
108	307389	57	0.02496745599
108	312857	58	0.024967200165
108	318325	59	0.024966908402
108	323793	60	0.024966594782
108	329261	61	0.024979275032
108	334729	62	0.024965952514
108	340197	63	0.024965622629
108	345665	64	0.024978297737
108	351133	65	0.024964972884
108	356601	66	0.024977641879
108	362069	67	0.024964309752
108	367537	68	0.024963977046
108	373005	69	0.024976644071
108	378473	70	0.024963310955
108	383941	71	0.024975977728
108	389409	72	0.024975644404
108	394877	73	0.024962310998
108	400345	74	0.024974977522
108	405813	75	0.024961643974
108	411281	76	0.024974310375
108	416749	77	0.024973976708
108	422217	78	0.024960642972
108	427685	79	0.024973309164
108	433153	80	0.024972975272
108	438621	81	0.024972641275
108	444089	82	0.024972307148
108	449557	83	0.024958972859
108	455025	84	0.024971638341
108	460493	85	0.024971303504
108	465961	86	0.024970968189
108	471429	87	0.024970632123
108	476897	88	0.024970294742
108	482365	89	0.02496995481
108	487833	90	0.024969609044
108	493301	91	0.024969247313
108	498769	92	0.024968845772
108	504237	93	0.024968394151
108	509705	94	0.024980915898
108	515173	95	0.02496742809
108	520641	96	0.024966936491
108	526109	97	0.024966443097
108	531577	98	0.024978948714
108	537045	99	0.02496545374
108	542513	100	0.024964958385
109	4853	2	0
109	10321	3	0
109	15789	4	0
109	21257	5	0
109	26725	6	0
109	32193	7	0
109	37661	8	0
109	43129	9	0
109	48598	10	0
109	55861	11	0
109	61329	12	0
109	66797	13	0
109	72265	14	0
109	77733	15	0
109	83201	16	0
109	88669	17	0
109	94137	18	0
109	99605	19	0
109	105073	20	0
109	110541	21	0
109	116009	22	0
109	121477	23	0
109	126945	24	0
109	132413	25	0
109	137881	26	0
109	143349	27	0
109	148817	28	0
109	154285	29	0
109	159753	30	0
109	165221	31	0
109	170689	32	0
109	176157	33	0
109	181625	34	0
109	187093	35	0
109	192561	36	0
109	198029	37	0
109	203497	38	0
109	208965	39	0
109	214433	40	0
109	219901	41	0
109	225369	42	0
109	230837	43	0
109	236305	44	0
109	241773	45	0
109	247241	46	0
109	252709	47	0
109	258177	48	0
109	263645	49	0
109	269113	50	0
109	274581	51	0
109	280049	52	0
109	285517	53	0
109	290985	54	0
109	296453	55	0
109	301921	56	0
109	307389	57	0
109	312857	58	0
109	318325	59	0
109	323793	60	0
109	329261	61	0
109	334729	62	0
109	340197	63	0
109	345665	64	0
109	351133	65	0
109	356601	66	0
109	362069	67	0
109	367537	68	0
109	373005	69	0
109	378473	70	0
109	383941	71	0
109	389409	72	0
109	394877	73	0
109	400345	74	0
109	405813	75	0
109	411281	76	0
109	416749	77	0
109	422217	78	0
109	427685	79	0
109	433153	80	0
109	438621	81	0
109	444089	82	0
109	449557	83	0
109	455025	84	0
109	460493	85	0
109	465961	86	0
109	471429	87	0
109	476897	88	0
109	482365	89	0
109	487833	90	0
109	493301	91	0
109	498769	92	0
109	504237	93	0
109	509705	94	0
109	515173	95	0
109	520641	96	0
109	526109	97	0
109	531577	98	0
109	537045	99	0
109	542513	100	0
110	4854	2	6
110	10322	3	6
110	15790	4	6
110	21258	5	6
110	26726	6	6
110	32194	7	6
110	37662	8	6
110	43130	9	6
110	48599	10	6
110	55862	11	6
110	61330	12	6
110	66798	13	6
110	72266	14	6
110	77734	15	6
110	83202	16	6
110	88670	17	6
110	94138	18	6
110	99606	19	6
110	105074	20	6
110	110542	21	6
110	116010	22	6
110	121478	23	6
110	126946	24	6
110	132414	25	6
110	137882	26	6
110	143350	27	6
110	148818	28	6
110	154286	29	6
110	159754	30	6
110	165222	31	6
110	170690	32	6
110	176158	33	6
110	181626	34	6
110	187094	35	6
110	192562	36	6
110	198030	37	6
110	203498	38	6
110	208966	39	6
110	214434	40	6
110	219902	41	6
110	225370	42	6
110	230838	43	6
110	236306	44	6
110	241774	45	6
110	247242	46	6
110	252710	47	6
110	258178	48	6
110	263646	49	6
110	269114	50	6
110	274582	51	6
110	280050	52	6
110	285518	53	6
110	290986	54	6
110	296454	55	6
110	301922	56	6
110	307390	57	6
110	312858	58	6
110	318326	59	6
110	323794	60	6
110	329262	61	6
110	334730	62	6
110	340198	63	6
110	345666	64	6
110	351134	65	6
110	356602	66	6
110	362070	67	6
110	367538	68	6
110	373006	69	6
110	378474	70	6
110	383942	71	6
110	389410	72	6
110	394878	73	6
110	400346	74	6
110	405814	75	6
110	411282	76	6
110	416750	77	6
110	422218	78	6
110	427686	79	6
110	433154	80	6
110	438622	81	6
110	444090	82	6
110	449558	83	6
110	455026	84	6
110	460494	85	6
110	465962	86	6
110	471430	87	6
110	476898	88	6
110	482366	89	6
110	487834	90	6
110	493302	91	6
110	498770	92	6
110	504238	93	6
110	509706	94	6
110	515174	95	6
110	520642	96	6
110	526110	97	6
110	531578	98	6
110	537046	99	6
110	542514	100	6
111	4854	2	0.021651396827
111	10322	3	0.024977796495
111	15790	4	0.024964796568
111	21258	5	0.024977796609
111	26726	6	0.024964796661
111	32194	7	0.024964796688
111	37662	8	0.024977796701
111	43130	9	0.024964796719
111	48599	10	0.02497779671
111	55862	11	0.026879785811
111	61330	12	0.024977672244
111	66798	13	0.024964385375
111	72266	14	0.024976716053
111	77734	15	0.024962773432
111	83202	16	0.024974676881
111	88670	17	0.024973673497
111	94138	18	0.024959950656
111	99606	19	0.024972487214
111	105074	20	0.024972226443
111	110542	21	0.024972104323
111	116010	22	0.024972088944
111	121478	23	0.024972164823
111	126946	24	0.024959298342
111	132414	25	0.024972448199
111	137882	26	0.024972613476
111	143350	27	0.0249727617
111	148818	28	0.024972894647
111	154286	29	0.024960007003
111	159754	30	0.02497308127
111	165222	31	0.024973163103
111	170690	32	0.024972974606
111	176158	33	0.024959737112
111	181626	34	0.02497249503
111	187094	35	0.02497224687
111	192562	36	0.024971994649
111	198030	37	0.024971752383
111	203498	38	0.02497149398
111	208966	39	0.024958215131
111	214434	40	0.024970947124
111	219902	41	0.024970682435
111	225370	42	0.024970392679
111	230838	43	0.024970148562
111	236306	44	0.024969950521
111	241774	45	0.024969772296
111	247242	46	0.024969595967
111	252710	47	0.024969411048
111	258178	48	0.024969219626
111	263646	49	0.024982025051
111	269114	50	0.02496882874
111	274582	51	0.024968629103
111	280050	52	0.024968409906
111	285518	53	0.02496820861
111	290986	54	0.024968008768
111	296454	55	0.024967801933
111	301922	56	0.024980591029
111	307390	57	0.024967457121
111	312858	58	0.024967201748
111	318326	59	0.02496691003
111	323794	60	0.024966596362
111	329262	61	0.024979276578
111	334730	62	0.024965954047
111	340198	63	0.024965624158
111	345666	64	0.024978298452
111	351134	65	0.024964972306
111	356602	66	0.024977640482
111	362070	67	0.024964308279
111	367538	68	0.024963975741
111	373006	69	0.024976642936
111	378474	70	0.024963309946
111	383942	71	0.024975976816
111	389410	72	0.024975643577
111	394878	73	0.024962310248
111	400346	74	0.024974976843
111	405814	75	0.024961643358
111	411282	76	0.024974309818
111	416750	77	0.024973976204
111	422218	78	0.024960642515
111	427686	79	0.02497330875
111	433154	80	0.024972974898
111	438622	81	0.024972640936
111	444090	82	0.024972306841
111	449558	83	0.024958972581
111	455026	84	0.024971638089
111	460494	85	0.024971303277
111	465962	86	0.024970967981
111	471430	87	0.024970631937
111	476898	88	0.024970294572
111	482366	89	0.024969954657
111	487834	90	0.024969608906
111	493302	91	0.024969247187
111	498770	92	0.024968845658
111	504238	93	0.024968394049
111	509706	94	0.024980915804
111	515174	95	0.024967428006
111	520642	96	0.024966936414
111	526110	97	0.024966443029
111	531578	98	0.02497894865
111	537046	99	0.024965453684
111	542514	100	0.024964958333
112	4854	2	0
112	10322	3	0
112	15790	4	0
112	21258	5	0
112	26726	6	0
112	32194	7	0
112	37662	8	0
112	43130	9	0
112	48599	10	0
112	55862	11	0
112	61330	12	0
112	66798	13	0
112	72266	14	0
112	77734	15	0
112	83202	16	0
112	88670	17	0
112	94138	18	0
112	99606	19	0
112	105074	20	0
112	110542	21	0
112	116010	22	0
112	121478	23	0
112	126946	24	0
112	132414	25	0
112	137882	26	0
112	143350	27	0
112	148818	28	0
112	154286	29	0
112	159754	30	0
112	165222	31	0
112	170690	32	0
112	176158	33	0
112	181626	34	0
112	187094	35	0
112	192562	36	0
112	198030	37	0
112	203498	38	0
112	208966	39	0
112	214434	40	0
112	219902	41	0
112	225370	42	0
112	230838	43	0
112	236306	44	0
112	241774	45	0
112	247242	46	0
112	252710	47	0
112	258178	48	0
112	263646	49	0
112	269114	50	0
112	274582	51	0
112	280050	52	0
112	285518	53	0
112	290986	54	0
112	296454	55	0
112	301922	56	0
112	307390	57	0
112	312858	58	0
112	318326	59	0
112	323794	60	0
112	329262	61	0
112	334730	62	0
112	340198	63	0
112	345666	64	0
112	351134	65	0
112	356602	66	0
112	362070	67	0
112	367538	68	0
112	373006	69	0
112	378474	70	0
112	383942	71	0
112	389410	72	0
112	394878	73	0
112	400346	74	0
112	405814	75	0
112	411282	76	0
112	416750	77	0
112	422218	78	0
112	427686	79	0
112	433154	80	0
112	438622	81	0
112	444090	82	0
112	449558	83	0
112	455026	84	0
112	460494	85	0
112	465962	86	0
112	471430	87	0
112	476898	88	0
112	482366	89	0
112	487834	90	0
112	493302	91	0
112	498770	92	0
112	504238	93	0
112	509706	94	0
112	515174	95	0
112	520642	96	0
112	526110	97	0
112	531578	98	0
112	537046	99	0
112	542514	100	0
113	4855	2	7
113	10323	3	7
113	15791	4	7
113	21259	5	7
113	26727	6	7
113	32195	7	7
113	37663	8	7
113	43131	9	7
113	48600	10	7
113	55863	11	7
113	61331	12	7
113	66799	13	7
113	72267	14	7
113	77735	15	7
113	83203	16	7
113	88671	17	7
113	94139	18	7
113	99607	19	7
113	105075	20	7
113	110543	21	7
113	116011	22	7
113	121479	23	7
113	126947	24	7
113	132415	25	7
113	137883	26	7
113	143351	27	7
113	148819	28	7
113	154287	29	7
113	159755	30	7
113	165223	31	7
113	170691	32	7
113	176159	33	7
113	181627	34	7
113	187095	35	7
113	192563	36	7
113	198031	37	7
113	203499	38	7
113	208967	39	7
113	214435	40	7
113	219903	41	7
113	225371	42	7
113	230839	43	7
113	236307	44	7
113	241775	45	7
113	247243	46	7
113	252711	47	7
113	258179	48	7
113	263647	49	7
113	269115	50	7
113	274583	51	7
113	280051	52	7
113	285519	53	7
113	290987	54	7
113	296455	55	7
113	301923	56	7
113	307391	57	7
113	312859	58	7
113	318327	59	7
113	323795	60	7
113	329263	61	7
113	334731	62	7
113	340199	63	7
113	345667	64	7
113	351135	65	7
113	356603	66	7
113	362071	67	7
113	367539	68	7
113	373007	69	7
113	378475	70	7
113	383943	71	7
113	389411	72	7
113	394879	73	7
113	400347	74	7
113	405815	75	7
113	411283	76	7
113	416751	77	7
113	422219	78	7
113	427687	79	7
113	433155	80	7
113	438623	81	7
113	444091	82	7
113	449559	83	7
113	455027	84	7
113	460495	85	7
113	465963	86	7
113	471431	87	7
113	476899	88	7
113	482367	89	7
113	487835	90	7
113	493303	91	7
113	498771	92	7
113	504239	93	7
113	509707	94	7
113	515175	95	7
113	520643	96	7
113	526111	97	7
113	531579	98	7
113	537047	99	7
113	542515	100	7
114	4855	2	0.021651376813
114	10323	3	0.024977796495
114	15791	4	0.024964796569
114	21259	5	0.024977796608
114	26727	6	0.024964796662
114	32195	7	0.024964796687
114	37663	8	0.024977796702
114	43131	9	0.024964796718
114	48600	10	0.02497779671
114	55863	11	0.026879827084
114	61331	12	0.024977683349
114	66799	13	0.024964399366
114	72267	14	0.024976730864
114	77735	15	0.024962788241
114	83203	16	0.024974692871
114	88671	17	0.02497368425
114	94139	18	0.024959954047
114	99607	19	0.024972481111
114	105075	20	0.024972212406
114	110543	21	0.024972086346
114	116011	22	0.024972069244
114	121479	23	0.024972144259
114	126947	24	0.024959277379
114	132415	25	0.024972427299
114	137883	26	0.024972595213
114	143351	27	0.024972743585
114	148819	28	0.02497288032
114	154287	29	0.024959996928
114	159755	30	0.024973074168
114	165223	31	0.024973157592
114	170691	32	0.024972969915
114	176159	33	0.024959732872
114	181627	34	0.024972491053
114	187095	35	0.024972243059
114	192563	36	0.024971990949
114	198031	37	0.024971748759
114	203499	38	0.024971488667
114	208967	39	0.024958211755
114	214435	40	0.024970943755
114	219903	41	0.024970679072
114	225371	42	0.02497038932
114	230839	43	0.024970145206
114	236307	44	0.024969947169
114	241775	45	0.024969768946
114	247243	46	0.024969592618
114	252711	47	0.024969407701
114	258179	48	0.024969216281
114	263647	49	0.024982021705
114	269115	50	0.024968825397
114	274583	51	0.02496862576
114	280051	52	0.024968406564
114	285519	53	0.024968205268
114	290987	54	0.024968005427
114	296455	55	0.024967798362
114	301923	56	0.024980587209
114	307391	57	0.02496745254
114	312859	58	0.024967196831
114	318327	59	0.02496690507
114	323795	60	0.024966591436
114	329263	61	0.024979271789
114	334731	62	0.024965949162
114	340199	63	0.024965619279
114	345667	64	0.024978293578
114	351135	65	0.024964967437
114	356603	66	0.024977635618
114	362071	67	0.024964303418
114	367539	68	0.024963970885
114	373007	69	0.024976638084
114	378475	70	0.024963305097
114	383943	71	0.02497597197
114	389411	72	0.024975638733
114	394879	73	0.024962305408
114	400347	74	0.024974972003
114	405815	75	0.024961638521
114	411283	76	0.024974304983
114	416751	77	0.02497397137
114	422219	78	0.024960637684
114	427687	79	0.024973303919
114	433155	80	0.024972970069
114	438623	81	0.024972636107
114	444091	82	0.024972302014
114	449559	83	0.024958967754
114	455027	84	0.024971633263
114	460495	85	0.024971298452
114	465963	86	0.024970963157
114	471431	87	0.024970627113
114	476899	88	0.024970289749
114	482367	89	0.024969949835
114	487835	90	0.024969604083
114	493303	91	0.024969242365
114	498771	92	0.024968840837
114	504239	93	0.024968389227
114	509707	94	0.024980910984
114	515175	95	0.024967423185
114	520643	96	0.024966931594
114	526111	97	0.024966438208
114	531579	98	0.02497894383
114	537047	99	0.024965448865
114	542515	100	0.024964953513
115	4855	2	0
115	10323	3	0
115	15791	4	0
115	21259	5	0
115	26727	6	0
115	32195	7	0
115	37663	8	0
115	43131	9	0
115	48600	10	0
115	55863	11	0
115	61331	12	0
115	66799	13	0
115	72267	14	0
115	77735	15	0
115	83203	16	0
115	88671	17	0
115	94139	18	0
115	99607	19	0
115	105075	20	0
115	110543	21	0
115	116011	22	0
115	121479	23	0
115	126947	24	0
115	132415	25	0
115	137883	26	0
115	143351	27	0
115	148819	28	0
115	154287	29	0
115	159755	30	0
115	165223	31	0
115	170691	32	0
115	176159	33	0
115	181627	34	0
115	187095	35	0
115	192563	36	0
115	198031	37	0
115	203499	38	0
115	208967	39	0
115	214435	40	0
115	219903	41	0
115	225371	42	0
115	230839	43	0
115	236307	44	0
115	241775	45	0
115	247243	46	0
115	252711	47	0
115	258179	48	0
115	263647	49	0
115	269115	50	0
115	274583	51	0
115	280051	52	0
115	285519	53	0
115	290987	54	0
115	296455	55	0
115	301923	56	0
115	307391	57	0
115	312859	58	0
115	318327	59	0
115	323795	60	0
115	329263	61	0
115	334731	62	0
115	340199	63	0
115	345667	64	0
115	351135	65	0
115	356603	66	0
115	362071	67	0
115	367539	68	0
115	373007	69	0
115	378475	70	0
115	383943	71	0
115	389411	72	0
115	394879	73	0
115	400347	74	0
115	405815	75	0
115	411283	76	0
115	416751	77	0
115	422219	78	0
115	427687	79	0
115	433155	80	0
115	438623	81	0
115	444091	82	0
115	449559	83	0
115	455027	84	0
115	460495	85	0
115	465963	86	0
115	471431	87	0
115	476899	88	0
115	482367	89	0
115	487835	90	0
115	493303	91	0
115	498771	92	0
115	504239	93	0
115	509707	94	0
115	515175	95	0
115	520643	96	0
115	526111	97	0
115	531579	98	0
115	537047	99	0
115	542515	100	0

