file 2395629 1720582633                                         
version 3
run BreakRanksNoGui-27-20240710-05:37:03-231503
attr configname BreakRanksNoGui
attr datetime 20240710-05:37:03
attr datetimef 20240710-053703
attr experiment BreakRanksNoGui
attr inifile omnetpp.ini
attr iterationvars "$nCars=8, $platoonSize=8, $nLanes=1, $ploegH=0.5, $controller=1, $headway=0.1, $leaderHeadway=1.2, $leaderSpeed=110, $breakRanksSafetyDistance=2, $minSpeed=100, $maxSpeed=120, $beaconInterval=0.1, $priority=4, $packetSize=200, $sController=\"CACC\", $0=2, $1=0"
attr iterationvarsd nCars=8/platoonSize=8/nLanes=1/ploegH=0.5/controller=1/headway=0.1/leaderHeadway=1.2/leaderSpeed=110/breakRanksSafetyDistance=2/minSpeed=100/maxSpeed=120/beaconInterval=0.1/priority=4/packetSize=200/sController=CACC/2/0
attr iterationvarsf nCars=8,platoonSize=8,nLanes=1,ploegH=0.5,controller=1,headway=0.1,leaderHeadway=1.2,leaderSpeed=110,breakRanksSafetyDistance=2,minSpeed=100,maxSpeed=120,beaconInterval=0.1,priority=4,packetSize=200,sController=CACC,2,0-
attr measurement "$nCars=8, $platoonSize=8, $nLanes=1, $ploegH=0.5, $controller=1, $headway=0.1, $leaderHeadway=1.2, $leaderSpeed=110, $breakRanksSafetyDistance=2, $minSpeed=100, $maxSpeed=120, $beaconInterval=0.1, $priority=4, $packetSize=200, $sController=\"CACC\", $0=2, $1=0"
attr network Highway
attr processid 231503
attr repetition 7
attr replication #7
attr resultdir results
attr runnumber 27
attr seedset 7
itervar beaconInterval 0.1
itervar breakRanksSafetyDistance 2
itervar controller 1
itervar headway 0.1
itervar leaderHeadway 1.2
itervar leaderSpeed 110
itervar maxSpeed 120
itervar minSpeed 100
itervar nCars 8
itervar nLanes 1
itervar packetSize 200
itervar platoonSize 8
itervar ploegH 0.5
itervar priority 4
itervar sController "\"CACC\""
config image-path ../../../veins/images
config repeat 10
config extends BreakRanks
config *.manager.command "\"sumo\""
config *.manager.ignoreGuiCommands true
config output-vector-file results/BreakRanks_1_0.1_110_2/result_7.vec
config output-scalar-file results/BreakRanks_1_0.1_110_2/result_7.sca
config extends Platooning
config *.node[*].scenario_type "\"BreakRanksScenario\""
config *.manager.command "\"sumo-gui\""
config *.node[*].scenario_type "\"SimpleScenario\""
config cmdenv-express-mode true
config cmdenv-autoflush true
config cmdenv-status-frequency 15s
config num-rngs 6
config network Highway
config debug-on-errors true
config print-undisposed true
config *.playgroundSizeX 65000m
config *.playgroundSizeY 25000m
config *.playgroundSizeZ 50m
config sim-time-limit "100 s"
config *.annotations.draw false
config *.obstacles.debug false
config *.world.useTorus false
config *.world.use2D false
config *.manager.updateInterval 0.01s
config *.manager.host "\"localhost\""
config *.manager.moduleType "\"org.car2x.plexe.PlatoonCar\""
config *.manager.moduleName "\"node\""
config *.manager.moduleDisplayString "\"\""
config *.manager.autoShutdown true
config *.manager.margin 25
config *.connectionManager.sendDirect true
config *.connectionManager.maxInterfDist 2600m
config *.connectionManager.drawMaxIntfDist false
config *.**.nic.mac1609_4.useServiceChannel false
config *.**.nic.mac1609_4.txPower 100mW
config *.**.nic.mac1609_4.bitrate 6Mbps
config *.**.nic.mac1609_4.useAcks true
config *.**.nic.mac1609_4.ackErrorRate 0.0
config *.**.nic.mac1609_4.frameErrorRate 0.0
config *.**.nic.phy80211p.minPowerLevel -94dBm
config *.**.nic.phy80211p.maxTXPower 100mW
config *.**.nic.phy80211p.useNoiseFloor true
config *.**.nic.phy80211p.noiseFloor -95dBm
config *.**.nic.phy80211p.decider "xmldoc(\"config.xml\")"
config *.**.nic.phy80211p.analogueModels "xmldoc(\"config.xml\")"
config *.**.nic.phy80211p.usePropagationDelay true
config *.node[*].mobility.x 0
config *.node[*].mobility.y 0
config *.node[*].mobility.z 1.895
config seed-set 7
config **.seed 7
config *.node[*].prot.rng-0 2
config *.node[*].appl.rng-0 3
config *.node[*].scenario.rng-0 4
config **.traffic.rng-0 5
config *.manager.configFile "\"./sumocfg/freeway.sumo.cfg\""
config *.manager.launchConfig "xmldoc(\"./sumocfg/freeway.launchd.xml\")"
config **.numberOfCars 8
config **.numberOfCarsPerPlatoon 8
config **.numberOfLanes 1
config *.node[*].helper_type "\"PositionHelper\""
config *.node[*].scenario.caccC1 0.5
config *.node[*].scenario.caccXi 1
config *.node[*].scenario.caccOmegaN "0.2 Hz"
config *.node[*].scenario.caccSpacing "2 m"
config *.node[*].scenario.engineTau "0.5 s"
config *.node[*].scenario.ploegH 0.5s
config *.node[*].scenario.ploegKp 0.2
config *.node[*].scenario.ploegKd 0.7
config *.node[*].scenario.useRealisticEngine false
config *.node[*].scenario.useControllerAcceleration true
config *.node[*].scenario.nLanes 1
config **.numericController 1
config **.headway 0.1s
config *.node[*].scenario.accHeadway 0.1s
config *.node[*].scenario.leaderHeadway 1.2s
config *.node[*].scenario.leaderSpeed 110kmph
config *.node[*].appl_type "\"SimplePlatooningApp\""
config *.node[*].appl.*.scalar-recording true
config *.node[*].appl.*.vector-recording true
config *.node[0].appl.breakRanksSafetyDistance 2m
config *.node[*].appl.minSpeed 100kmph
config *.node[*].appl.maxSpeed 120kmph
config *.node[*].protocol_type "\"SimplePlatooningBeaconing\""
config *.node[*].prot.*.scalar-recording true
config *.node[*].prot.*.vector-recording true
config *.node[*].prot.beaconingInterval 0.1s
config *.node[*].prot.priority 4
config *.node[*].prot.packetSize 200
config **.traffic_type "\"PlatoonsTrafficManager\""
config **.traffic.platoonInsertTime "1 s"
config **.traffic.platoonInsertSpeed 110kmph
config **.traffic.nCars 8
config **.traffic.platoonSize 8
config **.traffic.nLanes 1
config **.traffic.platooningVType "\"vtypeauto\""
config **.traffic.controller "\"CACC\""
config **.traffic.platoonInsertDistance 2m
config **.traffic.platoonInsertHeadway 0s
config **.traffic.platoonLeaderHeadway 1.2s
config **.scalar-recording false
config **.vector-recording false

vector 0 Highway.node[0].appl distance ETV
vector 1 Highway.node[0].appl relativeSpeed ETV
vector 2 Highway.node[0].appl nodeId ETV
vector 3 Highway.node[0].appl acceleration ETV
vector 4 Highway.node[0].appl controllerAcceleration ETV
vector 5 Highway.node[0].appl speed ETV
vector 6 Highway.node[0].appl posx ETV
vector 7 Highway.node[0].appl posy ETV
vector 8 Highway.node[1].appl distance ETV
vector 9 Highway.node[1].appl relativeSpeed ETV
vector 10 Highway.node[1].appl nodeId ETV
vector 11 Highway.node[1].appl acceleration ETV
vector 12 Highway.node[1].appl controllerAcceleration ETV
vector 13 Highway.node[1].appl speed ETV
vector 14 Highway.node[1].appl posx ETV
vector 15 Highway.node[1].appl posy ETV
vector 16 Highway.node[2].appl distance ETV
vector 17 Highway.node[2].appl relativeSpeed ETV
vector 18 Highway.node[2].appl nodeId ETV
vector 19 Highway.node[2].appl acceleration ETV
vector 20 Highway.node[2].appl controllerAcceleration ETV
vector 21 Highway.node[2].appl speed ETV
vector 22 Highway.node[2].appl posx ETV
vector 23 Highway.node[2].appl posy ETV
vector 24 Highway.node[3].appl distance ETV
vector 25 Highway.node[3].appl relativeSpeed ETV
vector 26 Highway.node[3].appl nodeId ETV
vector 27 Highway.node[3].appl acceleration ETV
vector 28 Highway.node[3].appl controllerAcceleration ETV
vector 29 Highway.node[3].appl speed ETV
vector 30 Highway.node[3].appl posx ETV
vector 31 Highway.node[3].appl posy ETV
vector 32 Highway.node[4].appl distance ETV
vector 33 Highway.node[4].appl relativeSpeed ETV
vector 34 Highway.node[4].appl nodeId ETV
vector 35 Highway.node[4].appl acceleration ETV
vector 36 Highway.node[4].appl controllerAcceleration ETV
vector 37 Highway.node[4].appl speed ETV
vector 38 Highway.node[4].appl posx ETV
vector 39 Highway.node[4].appl posy ETV
vector 40 Highway.node[5].appl distance ETV
vector 41 Highway.node[5].appl relativeSpeed ETV
vector 42 Highway.node[5].appl nodeId ETV
vector 43 Highway.node[5].appl acceleration ETV
vector 44 Highway.node[5].appl controllerAcceleration ETV
vector 45 Highway.node[5].appl speed ETV
vector 46 Highway.node[5].appl posx ETV
vector 47 Highway.node[5].appl posy ETV
vector 48 Highway.node[6].appl distance ETV
vector 49 Highway.node[6].appl relativeSpeed ETV
vector 50 Highway.node[6].appl nodeId ETV
vector 51 Highway.node[6].appl acceleration ETV
vector 52 Highway.node[6].appl controllerAcceleration ETV
vector 53 Highway.node[6].appl speed ETV
vector 54 Highway.node[6].appl posx ETV
vector 55 Highway.node[6].appl posy ETV
vector 56 Highway.node[7].appl distance ETV
vector 57 Highway.node[7].appl relativeSpeed ETV
vector 58 Highway.node[7].appl nodeId ETV
vector 59 Highway.node[7].appl acceleration ETV
vector 60 Highway.node[7].appl controllerAcceleration ETV
vector 61 Highway.node[7].appl speed ETV
vector 62 Highway.node[7].appl posx ETV
vector 63 Highway.node[7].appl posy ETV
vector 64 Highway.node[4].prot frontDelay ETV
vector 65 Highway.node[4].prot frontDelayId ETV
vector 66 Highway.node[3].prot frontDelay ETV
vector 67 Highway.node[3].prot frontDelayId ETV
vector 68 Highway.node[7].prot frontDelay ETV
vector 69 Highway.node[7].prot frontDelayId ETV
vector 70 Highway.node[2].prot frontDelay ETV
vector 71 Highway.node[2].prot frontDelayId ETV
vector 72 Highway.node[6].prot frontDelay ETV
vector 73 Highway.node[6].prot frontDelayId ETV
vector 74 Highway.node[5].prot frontDelay ETV
vector 75 Highway.node[5].prot frontDelayId ETV
vector 76 Highway.node[1].prot leaderDelay ETV
vector 77 Highway.node[1].prot leaderDelayId ETV
vector 78 Highway.node[1].prot frontDelay ETV
vector 79 Highway.node[1].prot frontDelayId ETV
vector 80 Highway.node[2].prot leaderDelay ETV
vector 81 Highway.node[2].prot leaderDelayId ETV
vector 82 Highway.node[3].prot leaderDelay ETV
vector 83 Highway.node[3].prot leaderDelayId ETV
vector 84 Highway.node[4].prot leaderDelay ETV
vector 85 Highway.node[4].prot leaderDelayId ETV
vector 86 Highway.node[5].prot leaderDelay ETV
vector 87 Highway.node[5].prot leaderDelayId ETV
vector 88 Highway.node[6].prot leaderDelay ETV
vector 89 Highway.node[6].prot leaderDelayId ETV
vector 90 Highway.node[7].prot leaderDelay ETV
vector 91 Highway.node[7].prot leaderDelayId ETV
vector 92 Highway.node[0].prot nodeId ETV
vector 93 Highway.node[0].prot busyTime ETV
vector 94 Highway.node[0].prot collisions ETV
vector 95 Highway.node[1].prot nodeId ETV
vector 96 Highway.node[1].prot busyTime ETV
vector 97 Highway.node[1].prot collisions ETV
vector 98 Highway.node[2].prot nodeId ETV
vector 99 Highway.node[2].prot busyTime ETV
vector 100 Highway.node[2].prot collisions ETV
vector 101 Highway.node[3].prot nodeId ETV
vector 102 Highway.node[3].prot busyTime ETV
vector 103 Highway.node[3].prot collisions ETV
vector 104 Highway.node[4].prot nodeId ETV
vector 105 Highway.node[4].prot busyTime ETV
vector 106 Highway.node[4].prot collisions ETV
vector 107 Highway.node[5].prot nodeId ETV
vector 108 Highway.node[5].prot busyTime ETV
vector 109 Highway.node[5].prot collisions ETV
vector 110 Highway.node[6].prot nodeId ETV
vector 111 Highway.node[6].prot busyTime ETV
vector 112 Highway.node[6].prot collisions ETV
vector 113 Highway.node[7].prot nodeId ETV
vector 114 Highway.node[7].prot busyTime ETV
vector 115 Highway.node[7].prot collisions ETV
0	11185 18157 113 542089 1.11 99.91 989 -1 77.8704 7869.994 597532.8470905
1	29342 17192 113 542089 1.11 99.91 989 0 1.4444 181.641138 258.60987361102
2	46534 16523 113 542089 1.11 99.91 989 0 0 0 0
3	63057 19178 113 542089 1.11 99.91 989 -0.267299 0.000125957 -1.4679919237843 0.31411404959423
4	82235 26475 113 542089 1.11 99.91 989 -0.432124 0.00019576 -3.0056413101051 1.1180113093924
5	108710 22452 113 542089 1.11 99.91 989 30.4249 30.56 30219.1057 923351.25124083
6	131162 22380 113 542089 1.11 99.91 989 51.0204 3069.88 1543305.7264 3160926128.1253
7	153542 21468 113 542089 1.11 99.91 989 242.45 242.45 239783.05 58135400.472499
8	175010 18227 114 542090 1.11 99.91 989 -1 45.6732 1205.74887 62999.977387665
9	193237 17759 114 542090 1.11 99.91 989 -0.000537994 1.06586 59.235321934393 60.547631867237
10	210996 17512 114 542090 1.11 99.91 989 1 1 989 989
11	228508 27385 114 542090 1.11 99.91 989 -0.0685896 0.287037 4.4219022819397 1.0548143516081
12	255893 27450 114 542090 1.11 99.91 989 -0.138007 0.446469 4.5425441215725 1.6724333845569
13	283343 19788 114 542090 1.11 99.91 989 30.5538 31.0199 30613.2787 947613.61095839
14	303131 23431 114 542090 1.11 99.91 989 45.0204 3103.27 1554902.4713 3218617282.9216
15	326562 22457 114 542090 1.11 99.91 989 242.45 245.75 242723.35 59570854.9325
16	349019 23327 115 542091 1.11 99.91 989 1.99968 150.537 72619.75627 7320731.7007885
17	372346 23138 115 542091 1.11 99.91 989 -9.06016e-05 2.62712 1426.0912079074 2302.2190474967
18	395484 17512 115 542091 1.11 99.91 989 2 2 1978 3956
19	412996 21738 115 542091 1.11 99.91 989 -1.66117 0.290724 -15.553925439413 35.387191333318
20	434734 27261 115 542091 1.11 99.91 989 -2.53478 0.327907 -14.39857645436 49.623117737898
21	461995 19632 115 542091 1.11 99.91 989 27.9285 30.56 28793.0227 838505.06969405
22	481627 23418 115 542091 1.11 99.91 989 39.0204 2915.34 1466187.0592 2852316386.5744
23	505045 22457 115 542091 1.11 99.91 989 242.45 242.45 239783.05 58135400.472499
24	527502 22414 116 542092 1.11 99.91 989 -1 40.2109 25302.49157 938698.6281442
25	549916 23572 116 542092 1.11 99.91 989 -4.72856e-05 5.88611 357.96664482758 805.69058508642
26	573488 17512 116 542092 1.11 99.91 989 3 3 2967 8901
27	591000 25998 116 542092 1.11 99.91 989 -2.42344 1.49568 24.466186844431 177.48342066046
28	616998 25906 116 542092 1.11 99.91 989 -3.05019 1.5 25.772991081405 212.18528896225
29	642904 22942 116 542092 1.11 99.91 989 25.1304 33.0454 30959.2666 971231.33090254
30	665846 23350 116 542092 1.11 99.91 989 33.0204 3125.77 1530456.337 3159587760.0438
31	689196 22457 116 542092 1.11 99.91 989 242.45 249.05 244617.55 60508714.932502
32	711653 23386 117 542093 1.11 99.91 989 1.99975 81.6573 44916.22582 2553910.8023458
33	735039 20085 117 542093 1.11 99.91 989 -3.65536e-05 5.11829 1249.225502452 2204.9089037936
34	755124 17512 117 542093 1.11 99.91 989 4 4 3956 15824
35	772636 24204 117 542093 1.11 99.91 989 -2.66052 1.4772 -35.53495870482 212.20387280446
36	796840 27478 117 542093 1.11 99.91 989 -3.05303 1.5 -34.31930135151 253.37262668924
37	824318 19994 117 542093 1.11 99.91 989 23.0338 30.56 26933.3621 735011.39728335
38	844312 23422 117 542093 1.11 99.91 989 27.0204 2717.48 1368317.5502 2481448770.3468
39	867734 22457 117 542093 1.11 99.91 989 242.45 242.45 239783.05 58135400.472499
40	890191 21000 118 542094 1.11 99.91 989 -1 80.4066 14444.90467 608977.54253841
41	911191 21024 118 542094 1.11 99.91 989 -1.04455 8.58933 576.5370379502 2851.2052300498
42	932215 17512 118 542094 1.11 99.91 989 5 5 4945 24725
43	949727 25008 118 542094 1.11 99.91 989 -2.71202 1.49995 14.409968125466 316.59023853441
44	974735 26632 118 542094 1.11 99.91 989 -3.05304 1.5 14.059199055874 372.2621628466
45	1001367 21088 118 542094 1.11 99.91 989 22.0658 32.0492 30609.0974 951207.96363582
46	1022455 23223 118 542094 1.11 99.91 989 21.0204 3078.8 1499046.1582 3055106431.1154
47	1045678 22457 118 542094 1.11 99.91 989 242.45 252.35 246231.25 61316996.472501
48	1068135 19085 119 542095 1.11 99.91 989 -1 30.8005 190.21947 26031.700468569
49	1087220 18713 119 542095 1.11 99.91 989 -2.79013e-05 1.95828 46.205491335391 74.325394105446
50	1105933 17512 119 542095 1.11 99.91 989 6 6 5934 35604
51	1123445 21769 119 542095 1.11 99.91 989 -2.09974 1.2066 14.462302546789 49.661115933775
52	1145214 27817 119 542095 1.11 99.91 989 -3.05303 1.5 16.168252129349 88.433006907799
53	1173031 19648 119 542095 1.11 99.91 989 28.9209 32.0835 31410.5129 997978.98785105
54	1192679 23429 119 542095 1.11 99.91 989 15.0204 3152.94 1556636.0566 3270459951.3162
55	1216108 22457 119 542095 1.11 99.91 989 242.45 249.05 244548.25 60476625.072501
56	1238565 22894 120 542096 1.11 99.91 989 -1 129.655 59402.11758 4844167.1516529
57	1261459 19289 120 542096 1.11 99.91 989 -2.52656e-05 4.04455 1458.8917253116 3905.5837526927
58	1280748 17512 120 542096 1.11 99.91 989 7 7 6923 48461
59	1298260 21569 120 542096 1.11 99.91 989 -1.35998 0.060752 -25.561986090717 27.087381715577
60	1319829 27313 120 542096 1.11 99.91 989 -1.5 0.0944277 -24.763881795949 33.821581938097
61	1347142 19497 120 542096 1.11 99.91 989 27.9056 30.56 27953.4536 790664.92005594
62	1366639 23429 120 542096 1.11 99.91 989 9.0204 2801.44 1401299.9143 2620964644.7863
63	1390068 22457 120 542096 1.11 99.91 989 242.45 252.35 241898.35000001 59175908.952499
64	1412525 40006 702 542162 1.214462500346 99.914465050549 988 0.09998748031 0.100005064276 98.800003030535 9.8800006291345
65	1452531 27275 702 542162 1.214462500346 99.914465050549 988 4 4 3952 15808
66	1479806 40000 769 542223 1.22169752036 99.921700092768 988 0.099987480312 0.100005071624 98.80000305274 9.8800006336343
67	1519806 27261 769 542223 1.22169752036 99.921700092768 988 3 3 2964 8892
68	1547067 39985 903 542357 1.247009640443 99.947014116328 988 0.099987480311 0.100005073291 98.800004956217 9.8800010143107
69	1587052 27260 903 542357 1.247009640443 99.947014116328 988 7 7 6916 48412
70	1614312 40024 970 542418 1.254140740512 99.954144736309 988 0.099987480311 0.100005072957 98.800004476129 9.8800009182842
71	1654336 27282 970 542418 1.254140740512 99.954144736309 988 2 2 1976 3952
72	1681618 39996 1038 542480 1.273478820567 99.973482441784 988 0.099987480311 0.100005071968 98.800004101549 9.8800008433929
73	1721614 27265 1038 542480 1.273478820567 99.973482441784 988 6 6 5928 35568
74	1748879 39971 1105 542547 1.285042840581 99.985035606889 988 0.09998748031 0.100006606427 98.79999324664 9.8799986726277
75	1788850 27251 1105 542547 1.285042840581 99.985035606889 988 5 5 4940 24700
76	1816101 39991 1166 542602 1.293967920636 99.993973688059 988 0.099987480311 0.10000507497 98.800006247755 9.8800012726164
77	1856092 27275 1166 542602 1.293967920636 99.993973688059 988 1 1 988 988
78	1883367 39991 1166 542602 1.293967920636 99.993973688059 988 0.099987480311 0.10000507497 98.800006247755 9.8800012726164
79	1923358 27275 1166 542602 1.293967920636 99.993973688059 988 1 1 988 988
80	1950633 39975 1172 542620 1.29396794065 99.993974092416 988 0.099987480311 0.100005075246 98.800006632098 9.880001349485
81	1990608 27245 1172 542620 1.29396794065 99.993974092416 988 2 2 1976 3952
82	2017853 40010 1178 542608 1.293967960663 99.99397376403 988 0.099987480311 0.100005075636 98.800006283698 9.880001279805
83	2057863 27273 1178 542608 1.293967960663 99.99397376403 988 3 3 2964 8892
84	2085136 39997 1184 542632 1.293967980677 99.993974753026 988 0.099987480311 0.100005075913 98.800007252681 9.8800014736016
85	2125133 27268 1184 542632 1.293967980677 99.993974753026 988 4 4 3952 15808
86	2152401 40009 1190 542596 1.293968000691 99.993973613908 988 0.099987480311 0.100005075201 98.800006093549 9.8800012417751
87	2192410 27276 1190 542596 1.293968000691 99.993973613908 988 5 5 4940 24700
88	2219686 40000 1196 542614 1.293968020705 99.993973854051 988 0.099987480311 0.100005075304 98.800006313678 9.880001285801
89	2259686 27277 1196 542614 1.293968020705 99.993973854051 988 6 6 5928 35568
90	2286963 39981 1202 542626 1.293968040719 99.993974472669 988 0.099987480311 0.10000507558 98.800006912282 9.8800014055218
91	2326944 27270 1202 542626 1.293968040719 99.993974472669 988 7 7 6916 48412
92	2354214 1459 5026 542634 2 100 99 0 0 0 0
93	2355673 2060 5026 542634 2 100 99 0.022473 0.02709136086 2.47165436086 0.061718564862247
94	2357733 1459 5026 542634 2 100 99 0 0 0 0
95	2359192 1459 5027 542635 2 100 99 1 1 99 99
96	2360651 2061 5027 542635 2 100 99 0.022473 0.026794240152 2.471357240152 0.061702554334323
97	2362712 1459 5027 542635 2 100 99 0 0 0 0
98	2364171 1459 5028 542636 2 100 99 2 2 198 396
99	2365630 2061 5028 542636 2 100 99 0.022473 0.026794280178 2.471357280178 0.061702556479257
100	2367691 1558 5028 542636 2 100 99 0 0 0 0
101	2369249 1558 5029 542637 2 100 99 3 3 297 891
102	2370807 2160 5029 542637 2 100 99 0.022473 0.026794200126 2.471357200126 0.061702552189392
103	2372967 1558 5029 542637 2 100 99 0 0 0 0
104	2374525 1558 5030 542638 2 100 99 4 4 396 1584
105	2376083 2160 5030 542638 2 100 99 0.022473 0.026860360223 2.471423360223 0.061706101980309
106	2378243 1558 5030 542638 2 100 99 0 0 0 0
107	2379801 1558 5031 542639 2 100 99 5 5 495 2475
108	2381359 2160 5031 542639 2 100 99 0.022473 0.026794240152 2.471357240152 0.061702554334323
109	2383519 1558 5031 542639 2 100 99 0 0 0 0
110	2385077 1558 5032 542640 2 100 99 6 6 594 3564
111	2386635 2160 5032 542640 2 100 99 0.022473 0.026827360228 2.471390360228 0.061704330285803
112	2388795 1558 5032 542640 2 100 99 0 0 0 0
113	2390353 1558 5033 542641 2 100 99 7 7 693 4851
114	2391911 2159 5033 542641 2 100 99 0.022473 0.02679428018 2.47135728018 0.061702556479364
115	2394070 1558 5033 542641 2 100 99 0 0 0 0

