version 3
run BreakRanksNoGui-29-20240710-05:37:25-232227
attr configname BreakRanksNoGui
attr datetime 20240710-05:37:25
attr datetimef 20240710-053725
attr experiment BreakRanksNoGui
attr inifile omnetpp.ini
attr iterationvars "$nCars=8, $platoonSize=8, $nLanes=1, $ploegH=0.5, $controller=1, $headway=0.1, $leaderHeadway=1.2, $leaderSpeed=110, $breakRanksSafetyDistance=2, $minSpeed=100, $maxSpeed=120, $beaconInterval=0.1, $priority=4, $packetSize=200, $sController=\"CACC\", $0=2, $1=0"
attr iterationvarsd nCars=8/platoonSize=8/nLanes=1/ploegH=0.5/controller=1/headway=0.1/leaderHeadway=1.2/leaderSpeed=110/breakRanksSafetyDistance=2/minSpeed=100/maxSpeed=120/beaconInterval=0.1/priority=4/packetSize=200/sController=CACC/2/0
attr iterationvarsf nCars=8,platoonSize=8,nLanes=1,ploegH=0.5,controller=1,headway=0.1,leaderHeadway=1.2,leaderSpeed=110,breakRanksSafetyDistance=2,minSpeed=100,maxSpeed=120,beaconInterval=0.1,priority=4,packetSize=200,sController=CACC,2,0-
attr measurement "$nCars=8, $platoonSize=8, $nLanes=1, $ploegH=0.5, $controller=1, $headway=0.1, $leaderHeadway=1.2, $leaderSpeed=110, $breakRanksSafetyDistance=2, $minSpeed=100, $maxSpeed=120, $beaconInterval=0.1, $priority=4, $packetSize=200, $sController=\"CACC\", $0=2, $1=0"
attr network Highway
attr processid 232227
attr repetition 9
attr replication #9
attr resultdir results
attr runnumber 29
attr seedset 9
itervar beaconInterval 0.1
itervar breakRanksSafetyDistance 2
itervar controller 1
itervar headway 0.1
itervar leaderHeadway 1.2
itervar leaderSpeed 110
itervar maxSpeed 120
itervar minSpeed 100
itervar nCars 8
itervar nLanes 1
itervar packetSize 200
itervar platoonSize 8
itervar ploegH 0.5
itervar priority 4
itervar sController "\"CACC\""
config image-path ../../../veins/images
config repeat 10
config extends BreakRanks
config *.manager.command "\"sumo\""
config *.manager.ignoreGuiCommands true
config output-vector-file results/BreakRanks_1_0.1_110_2/result_9.vec
config output-scalar-file results/BreakRanks_1_0.1_110_2/result_9.sca
config extends Platooning
config *.node[*].scenario_type "\"BreakRanksScenario\""
config *.manager.command "\"sumo-gui\""
config *.node[*].scenario_type "\"SimpleScenario\""
config cmdenv-express-mode true
config cmdenv-autoflush true
config cmdenv-status-frequency 15s
config num-rngs 6
config network Highway
config debug-on-errors true
config print-undisposed true
config *.playgroundSizeX 65000m
config *.playgroundSizeY 25000m
config *.playgroundSizeZ 50m
config sim-time-limit "100 s"
config *.annotations.draw false
config *.obstacles.debug false
config *.world.useTorus false
config *.world.use2D false
config *.manager.updateInterval 0.01s
config *.manager.host "\"localhost\""
config *.manager.moduleType "\"org.car2x.plexe.PlatoonCar\""
config *.manager.moduleName "\"node\""
config *.manager.moduleDisplayString "\"\""
config *.manager.autoShutdown true
config *.manager.margin 25
config *.connectionManager.sendDirect true
config *.connectionManager.maxInterfDist 2600m
config *.connectionManager.drawMaxIntfDist false
config *.**.nic.mac1609_4.useServiceChannel false
config *.**.nic.mac1609_4.txPower 100mW
config *.**.nic.mac1609_4.bitrate 6Mbps
config *.**.nic.mac1609_4.useAcks true
config *.**.nic.mac1609_4.ackErrorRate 0.0
config *.**.nic.mac1609_4.frameErrorRate 0.0
config *.**.nic.phy80211p.minPowerLevel -94dBm
config *.**.nic.phy80211p.maxTXPower 100mW
config *.**.nic.phy80211p.useNoiseFloor true
config *.**.nic.phy80211p.noiseFloor -95dBm
config *.**.nic.phy80211p.decider "xmldoc(\"config.xml\")"
config *.**.nic.phy80211p.analogueModels "xmldoc(\"config.xml\")"
config *.**.nic.phy80211p.usePropagationDelay true
config *.node[*].mobility.x 0
config *.node[*].mobility.y 0
config *.node[*].mobility.z 1.895
config seed-set 9
config **.seed 9
config *.node[*].prot.rng-0 2
config *.node[*].appl.rng-0 3
config *.node[*].scenario.rng-0 4
config **.traffic.rng-0 5
config *.manager.configFile "\"./sumocfg/freeway.sumo.cfg\""
config *.manager.launchConfig "xmldoc(\"./sumocfg/freeway.launchd.xml\")"
config **.numberOfCars 8
config **.numberOfCarsPerPlatoon 8
config **.numberOfLanes 1
config *.node[*].helper_type "\"PositionHelper\""
config *.node[*].scenario.caccC1 0.5
config *.node[*].scenario.caccXi 1
config *.node[*].scenario.caccOmegaN "0.2 Hz"
config *.node[*].scenario.caccSpacing "2 m"
config *.node[*].scenario.engineTau "0.5 s"
config *.node[*].scenario.ploegH 0.5s
config *.node[*].scenario.ploegKp 0.2
config *.node[*].scenario.ploegKd 0.7
config *.node[*].scenario.useRealisticEngine false
config *.node[*].scenario.useControllerAcceleration true
config *.node[*].scenario.nLanes 1
config **.numericController 1
config **.headway 0.1s
config *.node[*].scenario.accHeadway 0.1s
config *.node[*].scenario.leaderHeadway 1.2s
config *.node[*].scenario.leaderSpeed 110kmph
config *.node[*].appl_type "\"SimplePlatooningApp\""
config *.node[*].appl.*.scalar-recording true
config *.node[*].appl.*.vector-recording true
config *.node[0].appl.breakRanksSafetyDistance 2m
config *.node[*].appl.minSpeed 100kmph
config *.node[*].appl.maxSpeed 120kmph
config *.node[*].protocol_type "\"SimplePlatooningBeaconing\""
config *.node[*].prot.*.scalar-recording true
config *.node[*].prot.*.vector-recording true
config *.node[*].prot.beaconingInterval 0.1s
config *.node[*].prot.priority 4
config *.node[*].prot.packetSize 200
config **.traffic_type "\"PlatoonsTrafficManager\""
config **.traffic.platoonInsertTime "1 s"
config **.traffic.platoonInsertSpeed 110kmph
config **.traffic.nCars 8
config **.traffic.platoonSize 8
config **.traffic.nLanes 1
config **.traffic.platooningVType "\"vtypeauto\""
config **.traffic.controller "\"CACC\""
config **.traffic.platoonInsertDistance 2m
config **.traffic.platoonInsertHeadway 0s
config **.traffic.platoonLeaderHeadway 1.2s
config **.scalar-recording false
config **.vector-recording false

vector 0 Highway.node[0].appl distance ETV
vector 1 Highway.node[0].appl relativeSpeed ETV
vector 2 Highway.node[0].appl nodeId ETV
vector 3 Highway.node[0].appl acceleration ETV
vector 4 Highway.node[0].appl controllerAcceleration ETV
vector 5 Highway.node[0].appl speed ETV
vector 6 Highway.node[0].appl posx ETV
vector 7 Highway.node[0].appl posy ETV
vector 8 Highway.node[1].appl distance ETV
vector 9 Highway.node[1].appl relativeSpeed ETV
vector 10 Highway.node[1].appl nodeId ETV
vector 11 Highway.node[1].appl acceleration ETV
vector 12 Highway.node[1].appl controllerAcceleration ETV
vector 13 Highway.node[1].appl speed ETV
vector 14 Highway.node[1].appl posx ETV
vector 15 Highway.node[1].appl posy ETV
vector 16 Highway.node[2].appl distance ETV
vector 17 Highway.node[2].appl relativeSpeed ETV
vector 18 Highway.node[2].appl nodeId ETV
vector 19 Highway.node[2].appl acceleration ETV
vector 20 Highway.node[2].appl controllerAcceleration ETV
vector 21 Highway.node[2].appl speed ETV
vector 22 Highway.node[2].appl posx ETV
vector 23 Highway.node[2].appl posy ETV
vector 24 Highway.node[3].appl distance ETV
vector 25 Highway.node[3].appl relativeSpeed ETV
vector 26 Highway.node[3].appl nodeId ETV
vector 27 Highway.node[3].appl acceleration ETV
vector 28 Highway.node[3].appl controllerAcceleration ETV
vector 29 Highway.node[3].appl speed ETV
vector 30 Highway.node[3].appl posx ETV
vector 31 Highway.node[3].appl posy ETV
vector 32 Highway.node[4].appl distance ETV
vector 33 Highway.node[4].appl relativeSpeed ETV
vector 34 Highway.node[4].appl nodeId ETV
vector 35 Highway.node[4].appl acceleration ETV
vector 36 Highway.node[4].appl controllerAcceleration ETV
vector 37 Highway.node[4].appl speed ETV
vector 38 Highway.node[4].appl posx ETV
vector 39 Highway.node[4].appl posy ETV
vector 40 Highway.node[5].appl distance ETV
vector 41 Highway.node[5].appl relativeSpeed ETV
vector 42 Highway.node[5].appl nodeId ETV
vector 43 Highway.node[5].appl acceleration ETV
vector 44 Highway.node[5].appl controllerAcceleration ETV
vector 45 Highway.node[5].appl speed ETV
vector 46 Highway.node[5].appl posx ETV
vector 47 Highway.node[5].appl posy ETV
vector 48 Highway.node[6].appl distance ETV
vector 49 Highway.node[6].appl relativeSpeed ETV
vector 50 Highway.node[6].appl nodeId ETV
vector 51 Highway.node[6].appl acceleration ETV
vector 52 Highway.node[6].appl controllerAcceleration ETV
vector 53 Highway.node[6].appl speed ETV
vector 54 Highway.node[6].appl posx ETV
vector 55 Highway.node[6].appl posy ETV
vector 56 Highway.node[7].appl distance ETV
vector 57 Highway.node[7].appl relativeSpeed ETV
vector 58 Highway.node[7].appl nodeId ETV
vector 59 Highway.node[7].appl acceleration ETV
vector 60 Highway.node[7].appl controllerAcceleration ETV
vector 61 Highway.node[7].appl speed ETV
vector 62 Highway.node[7].appl posx ETV
vector 63 Highway.node[7].appl posy ETV
vector 64 Highway.node[2].prot frontDelay ETV
vector 65 Highway.node[2].prot frontDelayId ETV
vector 66 Highway.node[7].prot frontDelay ETV
vector 67 Highway.node[7].prot frontDelayId ETV
vector 68 Highway.node[3].prot frontDelay ETV
vector 69 Highway.node[3].prot frontDelayId ETV
vector 70 Highway.node[6].prot frontDelay ETV
vector 71 Highway.node[6].prot frontDelayId ETV
vector 72 Highway.node[5].prot frontDelay ETV
vector 73 Highway.node[5].prot frontDelayId ETV
vector 74 Highway.node[4].prot frontDelay ETV
vector 75 Highway.node[4].prot frontDelayId ETV
vector 76 Highway.node[1].prot leaderDelay ETV
vector 77 Highway.node[1].prot leaderDelayId ETV
vector 78 Highway.node[1].prot frontDelay ETV
vector 79 Highway.node[1].prot frontDelayId ETV
vector 80 Highway.node[2].prot leaderDelay ETV
vector 81 Highway.node[2].prot leaderDelayId ETV
vector 82 Highway.node[3].prot leaderDelay ETV
vector 83 Highway.node[3].prot leaderDelayId ETV
vector 84 Highway.node[4].prot leaderDelay ETV
vector 85 Highway.node[4].prot leaderDelayId ETV
vector 86 Highway.node[5].prot leaderDelay ETV
vector 87 Highway.node[5].prot leaderDelayId ETV
vector 88 Highway.node[6].prot leaderDelay ETV
vector 89 Highway.node[6].prot leaderDelayId ETV
vector 90 Highway.node[7].prot leaderDelay ETV
vector 91 Highway.node[7].prot leaderDelayId ETV
vector 92 Highway.node[0].prot nodeId ETV
vector 93 Highway.node[0].prot busyTime ETV
vector 94 Highway.node[0].prot collisions ETV
vector 95 Highway.node[1].prot nodeId ETV
vector 96 Highway.node[1].prot busyTime ETV
vector 97 Highway.node[1].prot collisions ETV
vector 98 Highway.node[2].prot nodeId ETV
vector 99 Highway.node[2].prot busyTime ETV
vector 100 Highway.node[2].prot collisions ETV
vector 101 Highway.node[3].prot nodeId ETV
vector 102 Highway.node[3].prot busyTime ETV
vector 103 Highway.node[3].prot collisions ETV
vector 104 Highway.node[4].prot nodeId ETV
vector 105 Highway.node[4].prot busyTime ETV
vector 106 Highway.node[4].prot collisions ETV
vector 107 Highway.node[5].prot nodeId ETV
vector 108 Highway.node[5].prot busyTime ETV
vector 109 Highway.node[5].prot collisions ETV
vector 110 Highway.node[6].prot nodeId ETV
vector 111 Highway.node[6].prot busyTime ETV
vector 112 Highway.node[6].prot collisions ETV
vector 113 Highway.node[7].prot nodeId ETV
vector 114 Highway.node[7].prot busyTime ETV
vector 115 Highway.node[7].prot collisions ETV
0	113	1.11	-1
0	659	1.21	-1
0	1205	1.31	-1
0	1751	1.41	-1
0	2297	1.51	-1
0	2843	1.61	-1
0	3389	1.71	-1
0	3935	1.81	-1
0	4481	1.91	-1
0	5035	2.01	-1
0	5581	2.11	-1
0	6127	2.21	-1
0	6673	2.31	-1
0	7219	2.41	-1
0	7765	2.51	-1
0	8311	2.61	-1
0	8857	2.71	-1
0	9403	2.81	-1
0	9949	2.91	-1
0	10503	3.01	-1
0	11049	3.11	-1
0	11595	3.21	-1
0	12141	3.31	-1
0	12687	3.41	-1
0	13233	3.51	-1
0	13779	3.61	-1
0	14325	3.71	-1
0	14871	3.81	-1
0	15417	3.91	-1
0	15971	4.01	-1
0	16517	4.11	-1
0	17063	4.21	-1
0	17609	4.31	-1
0	18155	4.41	-1
0	18701	4.51	-1
0	19247	4.61	-1
0	19793	4.71	-1
0	20339	4.81	-1
0	20885	4.91	-1
0	21439	5.01	-1
0	21985	5.11	-1
0	22531	5.21	-1
0	23077	5.31	-1
0	23623	5.41	-1
0	24169	5.51	-1
0	24715	5.61	-1
0	25261	5.71	-1
0	25807	5.81	-1
0	26353	5.91	-1
0	26907	6.01	-1
0	27453	6.11	-1
0	27999	6.21	-1
0	28545	6.31	-1
0	29091	6.41	-1
0	29637	6.51	-1
0	30183	6.61	-1
0	30729	6.71	-1
0	31275	6.81	-1
0	31821	6.91	-1
0	32375	7.01	-1
0	32921	7.11	-1
0	33467	7.21	-1
0	34013	7.31	-1
0	34559	7.41	-1
0	35105	7.51	-1
0	35651	7.61	-1
0	36197	7.71	-1
0	36743	7.81	-1
0	37289	7.91	-1
0	37843	8.01	-1
0	38389	8.11	-1
0	38935	8.21	-1
0	39481	8.31	-1
0	40027	8.41	-1
0	40573	8.51	-1
0	41119	8.61	-1
0	41665	8.71	-1
0	42211	8.81	-1
0	42757	8.91	-1
0	43311	9.01	-1
0	43857	9.11	-1
0	44403	9.21	-1
0	44949	9.31	-1
0	45495	9.41	-1
0	46041	9.51	-1
0	46587	9.61	-1
0	47133	9.71	-1
0	47679	9.81	-1
0	48225	9.91	-1
0	50614	10.01	-1
0	51160	10.11	-1
0	51706	10.21	-1
0	52252	10.31	-1
0	52798	10.41	-1
0	53344	10.51	-1
0	53890	10.61	-1
0	54436	10.71	-1
0	54982	10.81	-1
0	55528	10.91	-1
0	56082	11.01	-1
0	56628	11.11	-1
0	57174	11.21	-1
0	57720	11.31	-1
0	58266	11.41	-1
0	58812	11.51	-1
0	59358	11.61	-1
0	59904	11.71	-1
0	60450	11.81	-1
0	60996	11.91	-1
0	61550	12.01	-1
0	62096	12.11	-1
0	62642	12.21	-1
0	63188	12.31	-1
0	63734	12.41	-1
0	64280	12.51	-1
0	64826	12.61	-1
0	65372	12.71	-1
0	65918	12.81	-1
0	66464	12.91	-1
0	67018	13.01	-1
0	67564	13.11	-1
0	68110	13.21	-1
0	68656	13.31	-1
0	69202	13.41	-1
0	69748	13.51	-1
0	70294	13.61	-1
0	70840	13.71	-1
0	71386	13.81	-1
0	71932	13.91	-1
0	72486	14.01	-1
0	73032	14.11	-1
0	73578	14.21	-1
0	74124	14.31	-1
0	74670	14.41	-1
0	75216	14.51	-1
0	75762	14.61	-1
0	76308	14.71	-1
0	76854	14.81	-1
0	77400	14.91	-1
0	77954	15.01	-1
0	78500	15.11	-1
0	79046	15.21	-1
0	79592	15.31	-1
0	80138	15.41	-1
0	80684	15.51	-1
0	81230	15.61	-1
0	81776	15.71	-1
0	82322	15.81	-1
0	82868	15.91	-1
0	83422	16.01	-1
0	83968	16.11	-1
0	84514	16.21	-1
0	85060	16.31	-1
0	85606	16.41	-1
0	86152	16.51	-1
0	86698	16.61	-1
0	87244	16.71	-1
0	87790	16.81	-1
0	88336	16.91	-1
0	88890	17.01	-1
0	89436	17.11	-1
0	89982	17.21	-1
0	90528	17.31	-1
0	91074	17.41	-1
0	91620	17.51	-1
0	92166	17.61	-1
0	92712	17.71	-1
0	93258	17.81	-1
0	93804	17.91	-1
0	94358	18.01	-1
0	94904	18.11	-1
0	95450	18.21	-1
0	95996	18.31	-1
0	96542	18.41	-1
0	97088	18.51	-1
0	97634	18.61	-1
0	98180	18.71	-1
0	98726	18.81	-1
0	99272	18.91	-1
0	99826	19.01	-1
0	100372	19.11	-1
0	100918	19.21	-1
0	101464	19.31	-1
0	102010	19.41	-1
0	102556	19.51	-1
0	103102	19.61	-1
0	103648	19.71	-1
0	104194	19.81	-1
0	104740	19.91	-1
0	105294	20.01	-1
0	105840	20.11	-1
0	106386	20.21	-1
0	106932	20.31	-1
0	107478	20.41	-1
0	108024	20.51	-1
0	108570	20.61	-1
0	109116	20.71	-1
0	109662	20.81	-1
0	110208	20.91	-1
0	110762	21.01	-1
0	111308	21.11	-1
0	111854	21.21	-1
0	112400	21.31	-1
0	112946	21.41	-1
0	113492	21.51	-1
0	114038	21.61	-1
0	114584	21.71	-1
0	115130	21.81	-1
0	115676	21.91	-1
0	116230	22.01	-1
0	116776	22.11	-1
0	117322	22.21	-1
0	117868	22.31	-1
0	118414	22.41	-1
0	118960	22.51	-1
0	119506	22.61	-1
0	120052	22.71	-1
0	120598	22.81	-1
0	121144	22.91	-1
0	121698	23.01	-1
0	122244	23.11	-1
0	122790	23.21	-1
0	123336	23.31	-1
0	123882	23.41	-1
0	124428	23.51	-1
0	124974	23.61	-1
0	125520	23.71	-1
0	126066	23.81	-1
0	126612	23.91	-1
0	127166	24.01	-1
0	127712	24.11	-1
0	128258	24.21	-1
0	128804	24.31	-1
0	129350	24.41	-1
0	129896	24.51	-1
0	130442	24.61	-1
0	130988	24.71	-1
0	131534	24.81	-1
0	132080	24.91	-1
0	132634	25.01	-1
0	133180	25.11	-1
0	133726	25.21	-1
0	134272	25.31	-1
0	134818	25.41	-1
0	135364	25.51	-1
0	135910	25.61	-1
0	136456	25.71	-1
0	137002	25.81	-1
0	137548	25.91	-1
0	138102	26.01	-1
0	138648	26.11	-1
0	139194	26.21	-1
0	139740	26.31	-1
0	140286	26.41	-1
0	140832	26.51	-1
0	141378	26.61	-1
0	141924	26.71	-1
0	142470	26.81	-1
0	143016	26.91	-1
0	143570	27.01	-1
0	144116	27.11	-1
0	144662	27.21	-1
0	145208	27.31	-1
0	145754	27.41	-1
0	146300	27.51	-1
0	146846	27.61	-1
0	147392	27.71	-1
0	147938	27.81	-1
0	148484	27.91	-1
0	149038	28.01	-1
0	149584	28.11	-1
0	150130	28.21	-1
0	150676	28.31	-1
0	151222	28.41	-1
0	151768	28.51	-1
0	152314	28.61	-1
0	152860	28.71	-1
0	153406	28.81	-1
0	153952	28.91	-1
0	154506	29.01	-1
0	155052	29.11	-1
0	155598	29.21	-1
0	156144	29.31	-1
0	156690	29.41	-1
0	157236	29.51	-1
0	157782	29.61	-1
0	158328	29.71	-1
0	158874	29.81	-1
0	159420	29.91	-1
0	159974	30.01	-1
0	160520	30.11	-1
0	161066	30.21	-1
0	161612	30.31	-1
0	162158	30.41	-1
0	162704	30.51	-1
0	163250	30.61	-1
0	163796	30.71	-1
0	164342	30.81	-1
0	164888	30.91	-1
0	165442	31.01	-1
0	165988	31.11	-1
0	166534	31.21	-1
0	167080	31.31	-1
0	167626	31.41	-1
0	168172	31.51	-1
0	168718	31.61	-1
0	169264	31.71	-1
0	169810	31.81	-1
0	170356	31.91	-1
0	170910	32.01	-1
0	171456	32.11	-1
0	172002	32.21	-1
0	172548	32.31	-1
0	173094	32.41	-1
0	173640	32.51	-1
0	174186	32.61	-1
0	174732	32.71	-1
0	175278	32.81	-1
0	175824	32.91	-1
0	176378	33.01	-1
0	176924	33.11	-1
0	177470	33.21	-1
0	178016	33.31	-1
0	178562	33.41	-1
0	179108	33.51	-1
0	179654	33.61	-1
0	180200	33.71	-1
0	180746	33.81	-1
0	181292	33.91	-1
0	181846	34.01	-1
0	182392	34.11	-1
0	182938	34.21	-1
0	183484	34.31	-1
0	184030	34.41	-1
0	184576	34.51	-1
0	185122	34.61	-1
0	185668	34.71	-1
0	186214	34.81	-1
0	186760	34.91	-1
0	187314	35.01	-1
0	187860	35.11	-1
0	188406	35.21	-1
0	188952	35.31	-1
0	189498	35.41	-1
0	190044	35.51	-1
0	190590	35.61	-1
0	191136	35.71	-1
0	191682	35.81	-1
0	192228	35.91	-1
0	192782	36.01	-1
0	193328	36.11	-1
0	193874	36.21	-1
0	194420	36.31	-1
0	194966	36.41	-1
0	195512	36.51	-1
0	196058	36.61	-1
0	196604	36.71	-1
0	197150	36.81	-1
0	197696	36.91	-1
0	198250	37.01	-1
0	198796	37.11	-1
0	199342	37.21	-1
0	199888	37.31	-1
0	200434	37.41	-1
0	200980	37.51	-1
0	201526	37.61	-1
0	202072	37.71	-1
0	202618	37.81	-1
0	203164	37.91	-1
0	203718	38.01	-1
0	204264	38.11	-1
0	204810	38.21	-1
0	205356	38.31	-1
0	205902	38.41	-1
0	206448	38.51	-1
0	206994	38.61	-1
0	207540	38.71	-1
0	208086	38.81	-1
0	208632	38.91	-1
0	209186	39.01	-1
0	209732	39.11	-1
0	210278	39.21	-1
0	210824	39.31	-1
0	211370	39.41	-1
0	211916	39.51	-1
0	212462	39.61	-1
0	213008	39.71	-1
0	213554	39.81	-1
0	214100	39.91	-1
0	214654	40.01	-1
0	215200	40.11	-1
0	215746	40.21	-1
0	216292	40.31	-1
0	216838	40.41	-1
0	217384	40.51	-1
0	217930	40.61	-1
0	218476	40.71	-1
0	219022	40.81	-1
0	219568	40.91	-1
0	220122	41.01	-1
0	220668	41.11	-1
0	221214	41.21	-1
0	221760	41.31	-1
0	222306	41.41	-1
0	222852	41.51	-1
0	223398	41.61	-1
0	223944	41.71	-1
0	224490	41.81	-1
0	225036	41.91	-1
0	225590	42.01	-1
0	226136	42.11	-1
0	226682	42.21	-1
0	227228	42.31	-1
0	227774	42.41	-1
0	228320	42.51	-1
0	228866	42.61	-1
0	229412	42.71	-1
0	229958	42.81	-1
0	230504	42.91	-1
0	231058	43.01	-1
0	231604	43.11	-1
0	232150	43.21	-1
0	232696	43.31	-1
0	233242	43.41	-1
0	233788	43.51	-1
0	234334	43.61	-1
0	234880	43.71	-1
0	235426	43.81	-1
0	235972	43.91	-1
0	236526	44.01	-1
0	237072	44.11	-1
0	237618	44.21	-1
0	238164	44.31	-1
0	238710	44.41	-1
0	239256	44.51	-1
0	239802	44.61	-1
0	240348	44.71	-1
0	240894	44.81	-1
0	241440	44.91	-1
0	241994	45.01	-1
0	242540	45.11	-1
0	243086	45.21	-1
0	243632	45.31	-1
0	244178	45.41	-1
0	244724	45.51	-1
0	245270	45.61	-1
0	245816	45.71	-1
0	246362	45.81	-1
0	246908	45.91	-1
0	247462	46.01	-1
0	248008	46.11	-1
0	248554	46.21	-1
0	249100	46.31	-1
0	249646	46.41	-1
0	250192	46.51	-1
0	250738	46.61	-1
0	251284	46.71	-1
0	251830	46.81	-1
0	252376	46.91	-1
0	252930	47.01	-1
0	253476	47.11	-1
0	254022	47.21	-1
0	254568	47.31	-1
0	255114	47.41	-1
0	255660	47.51	-1
0	256206	47.61	-1
0	256752	47.71	-1
0	257298	47.81	-1
0	257844	47.91	-1
0	258398	48.01	-1
0	258944	48.11	-1
0	259490	48.21	-1
0	260036	48.31	-1
0	260582	48.41	-1
0	261128	48.51	-1
0	261674	48.61	-1
0	262220	48.71	-1
0	262766	48.81	-1
0	263312	48.91	-1
0	263866	49.01	-1
0	264412	49.11	-1
0	264958	49.21	-1
0	265504	49.31	-1
0	266050	49.41	-1
0	266596	49.51	-1
0	267142	49.61	-1
0	267688	49.71	-1
0	268234	49.81	-1
0	268780	49.91	-1
0	269334	50.01	-1
0	269880	50.11	-1
0	270426	50.21	-1
0	270972	50.31	-1
0	271518	50.41	-1
0	272064	50.51	-1
0	272610	50.61	-1
0	273156	50.71	-1
0	273702	50.81	-1
0	274248	50.91	-1
0	274802	51.01	-1
0	275348	51.11	-1
0	275894	51.21	-1
0	276440	51.31	-1
0	276986	51.41	-1
0	277532	51.51	-1
0	278078	51.61	-1
0	278624	51.71	-1
0	279170	51.81	-1
0	279716	51.91	-1
0	280270	52.01	-1
0	280816	52.11	-1
0	281362	52.21	-1
0	281908	52.31	-1
0	282454	52.41	-1
0	283000	52.51	-1
0	283546	52.61	-1
0	284092	52.71	-1
0	284638	52.81	-1
0	285184	52.91	47.0356
0	285738	53.01	47.28
0	286284	53.11	47.5244
0	286830	53.21	47.7689
0	287376	53.31	48.0133
0	287922	53.41	48.2578
0	288468	53.51	48.5022
0	289014	53.61	48.7466
0	289560	53.71	48.9911
0	290106	53.81	49.2355
0	290652	53.91	49.48
0	291206	54.01	49.7244
0	291752	54.11	49.9688
0	292298	54.21	50.2133
0	292844	54.31	50.4577
0	293390	54.41	50.7022
0	293936	54.51	50.9466
0	294482	54.61	51.191
0	295028	54.71	51.4355
0	295574	54.81	51.6799
0	296120	54.91	51.9244
0	296674	55.01	52.1688
0	297220	55.11	52.4132
0	297766	55.21	52.6577
0	298312	55.31	52.9021
0	298858	55.41	53.1466
0	299404	55.51	53.391
0	299950	55.61	53.6354
0	300496	55.71	53.8799
0	301042	55.81	54.1243
0	301588	55.91	54.3688
0	302142	56.01	54.6132
0	302688	56.11	54.8576
0	303234	56.21	55.1021
0	303780	56.31	55.3465
0	304326	56.41	55.591
0	304872	56.51	55.8354
0	305418	56.61	56.0798
0	305964	56.71	56.3243
0	306510	56.81	56.5687
0	307056	56.91	56.8132
0	307610	57.01	57.0576
0	308156	57.11	57.302
0	308702	57.21	57.5465
0	309248	57.31	57.7909
0	309794	57.41	58.0354
0	310340	57.51	58.2798
0	310886	57.61	58.5242
0	311432	57.71	58.7687
0	311978	57.81	59.0131
0	312524	57.91	59.2576
0	313078	58.01	59.502
0	313624	58.11	59.7464
0	314170	58.21	59.9909
0	314716	58.31	60.2353
0	315262	58.41	60.4798
0	315808	58.51	60.7242
0	316354	58.61	60.9686
0	316900	58.71	61.2131
0	317446	58.81	61.4575
0	317992	58.91	61.702
0	318546	59.01	61.9464
0	319092	59.11	62.1908
0	319638	59.21	62.4353
0	320184	59.31	62.6797
0	320730	59.41	62.9242
0	321276	59.51	63.1686
0	321822	59.61	63.413
0	322368	59.71	63.6575
0	322914	59.81	63.9019
0	323460	59.91	64.1464
0	324014	60.01	64.3908
0	324560	60.11	64.6352
0	325106	60.21	64.8797
0	325652	60.31	65.1241
0	326198	60.41	65.3686
0	326744	60.51	65.613
0	327290	60.61	65.8574
0	327836	60.71	66.1019
0	328382	60.81	66.3463
0	328928	60.91	66.5908
0	329482	61.01	66.8352
0	330028	61.11	67.0796
0	330574	61.21	67.3241
0	331120	61.31	67.5685
0	331666	61.41	67.813
0	332212	61.51	68.0574
0	332758	61.61	68.3018
0	333304	61.71	68.5463
0	333850	61.81	68.7907
0	334396	61.91	69.0352
0	334950	62.01	69.2796
0	335496	62.11	69.524
0	336042	62.21	69.7685
0	336588	62.31	70.0129
0	337134	62.41	70.2574
0	337680	62.51	70.5018
0	338226	62.61	70.7462
0	338772	62.71	70.9907
0	339318	62.81	71.2351
0	339864	62.91	71.4796
0	340418	63.01	71.724
0	340964	63.11	71.9684
0	341510	63.21	72.2129
0	342056	63.31	72.4573
0	342602	63.41	72.7018
0	343148	63.51	72.9462
0	343694	63.61	73.1906
0	344240	63.71	73.4351
0	344786	63.81	73.6795
0	345332	63.91	73.924
0	345886	64.01	74.1684
0	346432	64.11	74.4128
0	346978	64.21	74.6573
0	347524	64.31	74.9017
0	348070	64.41	75.1462
0	348616	64.51	75.3906
0	349162	64.61	75.635
0	349708	64.71	75.8795
0	350254	64.81	76.1239
0	350800	64.91	76.3684
0	351354	65.01	76.6128
0	351900	65.11	76.8572
0	352446	65.21	77.1017
0	352992	65.31	77.3461
0	353538	65.41	77.5906
0	354084	65.51	77.835
0	354630	65.61	78.0794
0	355176	65.71	78.3239
0	355722	65.81	78.5683
0	356268	65.91	78.8128
0	356822	66.01	79.0572
0	357368	66.11	79.3016
0	357914	66.21	79.5461
0	358460	66.31	79.7905
0	359006	66.41	80.035
0	359552	66.51	80.2794
0	360098	66.61	80.5238
0	360644	66.71	80.7683
0	361190	66.81	81.0127
0	361736	66.91	81.2572
0	362290	67.01	81.5016
0	362836	67.11	81.746
0	363382	67.21	81.9905
0	363928	67.31	82.2349
0	364474	67.41	82.4794
0	365020	67.51	82.7238
0	365566	67.61	82.9682
0	366112	67.71	83.2127
0	366658	67.81	83.4571
0	367204	67.91	83.7016
0	367758	68.01	83.946
0	368304	68.11	84.1904
0	368850	68.21	84.4349
0	369396	68.31	84.6793
0	369942	68.41	84.9238
0	370488	68.51	85.1682
0	371034	68.61	85.4126
0	371580	68.71	85.6571
0	372126	68.81	85.9015
0	372672	68.91	86.146
0	373226	69.01	86.3904
0	373772	69.11	86.6348
0	374318	69.21	86.8793
0	374864	69.31	87.1237
0	375410	69.41	87.3682
0	375956	69.51	87.6126
0	376502	69.61	87.857
0	377048	69.71	88.1015
0	377594	69.81	88.3459
0	378140	69.91	88.5904
0	378694	70.01	88.8348
0	379240	70.11	89.0792
0	379786	70.21	89.3237
0	380332	70.31	89.5681
0	380878	70.41	89.8126
0	381424	70.51	90.057
0	381970	70.61	90.3014
0	382516	70.71	90.5459
0	383062	70.81	90.7903
0	383608	70.91	91.0348
0	384162	71.01	91.2792
0	384708	71.11	91.5236
0	385254	71.21	91.7681
0	385800	71.31	92.0125
0	386346	71.41	92.257
0	386892	71.51	92.5014
0	387438	71.61	92.7458
0	387984	71.71	92.9903
0	388530	71.81	93.2347
0	389076	71.91	93.4792
0	389630	72.01	93.7236
0	390176	72.11	93.968
0	390722	72.21	94.2125
0	391268	72.31	94.4569
0	391814	72.41	94.7014
0	392360	72.51	94.9458
0	392906	72.61	95.1902
0	393452	72.71	95.4347
0	393998	72.81	95.6791
0	394544	72.91	95.9236
0	395098	73.01	96.168
0	395644	73.11	96.4124
0	396190	73.21	96.6569
0	396736	73.31	96.9013
0	397282	73.41	97.1458
0	397828	73.51	97.3902
0	398374	73.61	97.6346
0	398920	73.71	97.8791
0	399466	73.81	98.1235
0	400012	73.91	98.368
0	400566	74.01	98.6124
0	401112	74.11	98.8568
0	401658	74.21	99.1013
0	402204	74.31	99.3457
0	402750	74.41	99.5902
0	403296	74.51	99.8346
0	403842	74.61	100.079
0	404388	74.71	100.323
0	404934	74.81	56.8291
0	405480	74.91	57.0733
0	406034	75.01	57.3171
0	406580	75.11	57.5602
0	407126	75.21	57.8026
0	407672	75.31	58.0441
0	408218	75.41	58.2846
0	408764	75.51	58.5241
0	409310	75.61	58.7627
0	409856	75.71	59.0002
0	410402	75.81	59.2368
0	410948	75.91	59.4724
0	411502	76.01	59.7071
0	412048	76.11	59.9409
0	412594	76.21	60.174
0	413140	76.31	60.4064
0	413686	76.41	60.6381
0	414232	76.51	60.8692
0	414778	76.61	61.0997
0	415324	76.71	61.3299
0	415870	76.81	61.5596
0	416416	76.91	61.789
0	416970	77.01	62.0182
0	417516	77.11	62.2471
0	418062	77.21	62.4758
0	418608	77.31	62.7045
0	419154	77.41	62.933
0	419700	77.51	63.1615
0	420246	77.61	63.39
0	420792	77.71	63.6185
0	421338	77.81	63.8471
0	421884	77.91	64.0758
0	422438	78.01	64.3045
0	422984	78.11	64.5334
0	423530	78.21	64.7624
0	424076	78.31	64.9915
0	424622	78.41	65.2208
0	425168	78.51	65.4502
0	425714	78.61	65.6798
0	426260	78.71	65.9096
0	426806	78.81	66.1396
0	427352	78.91	66.3697
0	427906	79.01	66.6
0	428452	79.11	66.8305
0	428998	79.21	67.0612
0	429544	79.31	67.292
0	430090	79.41	67.523
0	430636	79.51	67.7542
0	431182	79.61	67.9855
0	431728	79.71	68.217
0	432274	79.81	68.4487
0	432820	79.91	68.6805
0	433374	80.01	68.9125
0	433920	80.11	69.1446
0	434466	80.21	69.3769
0	435012	80.31	69.6093
0	435558	80.41	69.8418
0	436104	80.51	70.0745
0	436650	80.61	70.3073
0	437196	80.71	70.5402
0	437742	80.81	70.7732
0	438288	80.91	71.0064
0	438842	81.01	71.2397
0	439388	81.11	71.4731
0	439934	81.21	71.7066
0	440480	81.31	71.9403
0	441026	81.41	72.174
0	441572	81.51	72.4079
0	442118	81.61	72.6418
0	442664	81.71	72.8759
0	443210	81.81	73.11
0	443756	81.91	73.3443
0	444310	82.01	73.5787
0	444856	82.11	73.8132
0	445402	82.21	74.0477
0	445948	82.31	74.2824
0	446494	82.41	74.5171
0	447040	82.51	74.752
0	447586	82.61	74.9869
0	448132	82.71	75.222
0	448678	82.81	75.4571
0	449224	82.91	75.6923
0	449778	83.01	75.9277
0	450324	83.11	76.1631
0	450870	83.21	76.3985
0	451416	83.31	76.6341
0	451962	83.41	76.8698
0	452508	83.51	77.1055
0	453054	83.61	77.3414
0	453600	83.71	77.5773
0	454146	83.81	77.8133
0	454692	83.91	78.0494
0	455246	84.01	78.2855
0	455792	84.11	78.5218
0	456338	84.21	78.7581
0	456884	84.31	78.9945
0	457430	84.41	79.231
0	457976	84.51	79.4676
0	458522	84.61	79.7042
0	459068	84.71	79.9409
0	459614	84.81	80.1777
0	460160	84.91	80.4146
0	460714	85.01	80.6515
0	461260	85.11	80.8886
0	461806	85.21	81.1256
0	462352	85.31	81.3628
0	462898	85.41	81.6001
0	463444	85.51	81.8374
0	463990	85.61	82.0747
0	464536	85.71	82.3122
0	465082	85.81	82.5497
0	465628	85.91	82.7873
0	466182	86.01	83.0249
0	466728	86.11	83.2627
0	467274	86.21	83.5005
0	467820	86.31	83.7383
0	468366	86.41	83.9762
0	468912	86.51	84.2142
0	469458	86.61	84.4523
0	470004	86.71	84.6904
0	470550	86.81	84.9285
0	471096	86.91	85.1668
0	471650	87.01	85.4051
0	472196	87.11	85.6434
0	472742	87.21	85.8818
0	473288	87.31	86.1203
0	473834	87.41	86.3589
0	474380	87.51	86.5974
0	474926	87.61	86.8361
0	475472	87.71	87.0748
0	476018	87.81	87.3136
0	476564	87.91	87.5524
0	477118	88.01	87.7913
0	477664	88.11	88.0302
0	478210	88.21	88.2692
0	478756	88.31	88.5082
0	479302	88.41	88.7473
0	479848	88.51	88.9865
0	480394	88.61	89.2257
0	480940	88.71	89.4649
0	481486	88.81	89.7042
0	482032	88.91	89.9436
0	482586	89.01	90.183
0	483132	89.11	90.4224
0	483678	89.21	90.6619
0	484224	89.31	90.9015
0	484770	89.41	91.1411
0	485316	89.51	91.3807
0	485862	89.61	91.6204
0	486408	89.71	91.8602
0	486954	89.81	92.1
0	487500	89.91	92.3398
0	488054	90.01	92.5797
0	488600	90.11	92.8196
0	489146	90.21	93.0596
0	489692	90.31	93.2996
0	490238	90.41	93.5396
0	490784	90.51	93.7797
0	491330	90.61	94.0199
0	491876	90.71	94.2601
0	492422	90.81	94.5003
0	492968	90.91	94.7406
0	493522	91.01	94.9809
0	494068	91.11	95.2212
0	494614	91.21	95.4616
0	495160	91.31	95.702
0	495706	91.41	95.9425
0	496252	91.51	96.183
0	496798	91.61	96.4236
0	497344	91.71	96.6642
0	497890	91.81	96.9048
0	498436	91.91	97.1455
0	498990	92.01	97.3862
0	499536	92.11	97.6269
0	500082	92.21	97.8677
0	500628	92.31	98.1085
0	501174	92.41	98.3493
0	501720	92.51	98.5902
0	502266	92.61	98.8311
0	502812	92.71	99.0721
0	503358	92.81	99.3131
0	503904	92.91	99.5541
0	504458	93.01	99.7951
0	505004	93.11	100.036
0	505550	93.21	100.277
0	506096	93.31	100.519
0	506642	93.41	100.76
0	507188	93.51	101.001
0	507734	93.61	101.242
0	508280	93.71	101.483
0	508826	93.81	101.725
0	509372	93.91	101.966
0	509926	94.01	102.207
0	510472	94.11	102.449
0	511018	94.21	102.69
0	511564	94.31	102.932
0	512110	94.41	103.173
0	512656	94.51	103.415
0	513202	94.61	103.656
0	513748	94.71	103.898
0	514294	94.81	104.14
0	514840	94.91	104.381
0	515394	95.01	104.623
0	515940	95.11	104.865
0	516486	95.21	105.106
0	517032	95.31	105.348
0	517578	95.41	105.59
0	518124	95.51	105.832
0	518670	95.61	106.073
0	519216	95.71	106.315
0	519762	95.81	106.557
0	520308	95.91	106.799
0	520862	96.01	107.041
0	521408	96.11	107.283
0	521954	96.21	107.525
0	522500	96.31	107.767
0	523046	96.41	108.009
0	523592	96.51	108.251
0	524138	96.61	108.493
0	524684	96.71	108.735
0	525230	96.81	108.977
0	525776	96.91	109.219
0	526330	97.01	109.462
0	526876	97.11	109.704
0	527422	97.21	109.946
0	527968	97.31	110.188
0	528514	97.41	110.43
0	529060	97.51	110.673
0	529606	97.61	110.915
0	530152	97.71	111.157
0	530698	97.81	111.4
0	531244	97.91	111.642
0	531798	98.01	111.884
0	532344	98.11	112.127
0	532890	98.21	112.369
0	533436	98.31	112.612
0	533982	98.41	112.854
0	534528	98.51	113.097
0	535074	98.61	113.339
0	535620	98.71	113.582
0	536166	98.81	113.824
0	536712	98.91	114.067
0	537266	99.01	29.0753
0	537812	99.11	29.1204
0	538358	99.21	29.1669
0	538904	99.31	29.2152
0	539450	99.41	29.2655
0	539996	99.51	29.3184
0	540542	99.61	29.3737
0	541088	99.71	29.4318
0	541634	99.81	29.4925
0	542180	99.91	29.5558
1	113	1.11	0
1	659	1.21	0
1	1205	1.31	0
1	1751	1.41	0
1	2297	1.51	0
1	2843	1.61	0
1	3389	1.71	0
1	3935	1.81	0
1	4481	1.91	0
1	5035	2.01	0
1	5581	2.11	0
1	6127	2.21	0
1	6673	2.31	0
1	7219	2.41	0
1	7765	2.51	0
1	8311	2.61	0
1	8857	2.71	0
1	9403	2.81	0
1	9949	2.91	0
1	10503	3.01	0
1	11049	3.11	0
1	11595	3.21	0
1	12141	3.31	0
1	12687	3.41	0
1	13233	3.51	0
1	13779	3.61	0
1	14325	3.71	0
1	14871	3.81	0
1	15417	3.91	0
1	15971	4.01	0
1	16517	4.11	0
1	17063	4.21	0
1	17609	4.31	0
1	18155	4.41	0
1	18701	4.51	0
1	19247	4.61	0
1	19793	4.71	0
1	20339	4.81	0
1	20885	4.91	0
1	21439	5.01	0
1	21985	5.11	0
1	22531	5.21	0
1	23077	5.31	0
1	23623	5.41	0
1	24169	5.51	0
1	24715	5.61	0
1	25261	5.71	0
1	25807	5.81	0
1	26353	5.91	0
1	26907	6.01	0
1	27453	6.11	0
1	27999	6.21	0
1	28545	6.31	0
1	29091	6.41	0
1	29637	6.51	0
1	30183	6.61	0
1	30729	6.71	0
1	31275	6.81	0
1	31821	6.91	0
1	32375	7.01	0
1	32921	7.11	0
1	33467	7.21	0
1	34013	7.31	0
1	34559	7.41	0
1	35105	7.51	0
1	35651	7.61	0
1	36197	7.71	0
1	36743	7.81	0
1	37289	7.91	0
1	37843	8.01	0
1	38389	8.11	0
1	38935	8.21	0
1	39481	8.31	0
1	40027	8.41	0
1	40573	8.51	0
1	41119	8.61	0
1	41665	8.71	0
1	42211	8.81	0
1	42757	8.91	0
1	43311	9.01	0
1	43857	9.11	0
1	44403	9.21	0
1	44949	9.31	0
1	45495	9.41	0
1	46041	9.51	0
1	46587	9.61	0
1	47133	9.71	0
1	47679	9.81	0
1	48225	9.91	0
1	50614	10.01	0
1	51160	10.11	0
1	51706	10.21	0
1	52252	10.31	0
1	52798	10.41	0
1	53344	10.51	0
1	53890	10.61	0
1	54436	10.71	0
1	54982	10.81	0
1	55528	10.91	0
1	56082	11.01	0
1	56628	11.11	0
1	57174	11.21	0
1	57720	11.31	0
1	58266	11.41	0
1	58812	11.51	0
1	59358	11.61	0
1	59904	11.71	0
1	60450	11.81	0
1	60996	11.91	0
1	61550	12.01	0
1	62096	12.11	0
1	62642	12.21	0
1	63188	12.31	0
1	63734	12.41	0
1	64280	12.51	0
1	64826	12.61	0
1	65372	12.71	0
1	65918	12.81	0
1	66464	12.91	0
1	67018	13.01	0
1	67564	13.11	0
1	68110	13.21	0
1	68656	13.31	0
1	69202	13.41	0
1	69748	13.51	0
1	70294	13.61	0
1	70840	13.71	0
1	71386	13.81	0
1	71932	13.91	0
1	72486	14.01	0
1	73032	14.11	0
1	73578	14.21	0
1	74124	14.31	0
1	74670	14.41	0
1	75216	14.51	0
1	75762	14.61	0
1	76308	14.71	0
1	76854	14.81	0
1	77400	14.91	0
1	77954	15.01	0
1	78500	15.11	0
1	79046	15.21	0
1	79592	15.31	0
1	80138	15.41	0
1	80684	15.51	0
1	81230	15.61	0
1	81776	15.71	0
1	82322	15.81	0
1	82868	15.91	0
1	83422	16.01	0
1	83968	16.11	0
1	84514	16.21	0
1	85060	16.31	0
1	85606	16.41	0
1	86152	16.51	0
1	86698	16.61	0
1	87244	16.71	0
1	87790	16.81	0
1	88336	16.91	0
1	88890	17.01	0
1	89436	17.11	0
1	89982	17.21	0
1	90528	17.31	0
1	91074	17.41	0
1	91620	17.51	0
1	92166	17.61	0
1	92712	17.71	0
1	93258	17.81	0
1	93804	17.91	0
1	94358	18.01	0
1	94904	18.11	0
1	95450	18.21	0
1	95996	18.31	0
1	96542	18.41	0
1	97088	18.51	0
1	97634	18.61	0
1	98180	18.71	0
1	98726	18.81	0
1	99272	18.91	0
1	99826	19.01	0
1	100372	19.11	0
1	100918	19.21	0
1	101464	19.31	0
1	102010	19.41	0
1	102556	19.51	0
1	103102	19.61	0
1	103648	19.71	0
1	104194	19.81	0
1	104740	19.91	0
1	105294	20.01	0
1	105840	20.11	0
1	106386	20.21	0
1	106932	20.31	0
1	107478	20.41	0
1	108024	20.51	0
1	108570	20.61	0
1	109116	20.71	0
1	109662	20.81	0
1	110208	20.91	0
1	110762	21.01	0
1	111308	21.11	0
1	111854	21.21	0
1	112400	21.31	0
1	112946	21.41	0
1	113492	21.51	0
1	114038	21.61	0
1	114584	21.71	0
1	115130	21.81	0
1	115676	21.91	0
1	116230	22.01	0
1	116776	22.11	0
1	117322	22.21	0
1	117868	22.31	0
1	118414	22.41	0
1	118960	22.51	0
1	119506	22.61	0
1	120052	22.71	0
1	120598	22.81	0
1	121144	22.91	0
1	121698	23.01	0
1	122244	23.11	0
1	122790	23.21	0
1	123336	23.31	0
1	123882	23.41	0
1	124428	23.51	0
1	124974	23.61	0
1	125520	23.71	0
1	126066	23.81	0
1	126612	23.91	0
1	127166	24.01	0
1	127712	24.11	0
1	128258	24.21	0
1	128804	24.31	0
1	129350	24.41	0
1	129896	24.51	0
1	130442	24.61	0
1	130988	24.71	0
1	131534	24.81	0
1	132080	24.91	0
1	132634	25.01	0
1	133180	25.11	0
1	133726	25.21	0
1	134272	25.31	0
1	134818	25.41	0
1	135364	25.51	0
1	135910	25.61	0
1	136456	25.71	0
1	137002	25.81	0
1	137548	25.91	0
1	138102	26.01	0
1	138648	26.11	0
1	139194	26.21	0
1	139740	26.31	0
1	140286	26.41	0
1	140832	26.51	0
1	141378	26.61	0
1	141924	26.71	0
1	142470	26.81	0
1	143016	26.91	0
1	143570	27.01	0
1	144116	27.11	0
1	144662	27.21	0
1	145208	27.31	0
1	145754	27.41	0
1	146300	27.51	0
1	146846	27.61	0
1	147392	27.71	0
1	147938	27.81	0
1	148484	27.91	0
1	149038	28.01	0
1	149584	28.11	0
1	150130	28.21	0
1	150676	28.31	0
1	151222	28.41	0
1	151768	28.51	0
1	152314	28.61	0
1	152860	28.71	0
1	153406	28.81	0
1	153952	28.91	0
1	154506	29.01	0
1	155052	29.11	0
1	155598	29.21	0
1	156144	29.31	0
1	156690	29.41	0
1	157236	29.51	0
1	157782	29.61	0
1	158328	29.71	0
1	158874	29.81	0
1	159420	29.91	0
1	159974	30.01	0
1	160520	30.11	0
1	161066	30.21	0
1	161612	30.31	0
1	162158	30.41	0
1	162704	30.51	0
1	163250	30.61	0
1	163796	30.71	0
1	164342	30.81	0
1	164888	30.91	0
1	165442	31.01	0
1	165988	31.11	0
1	166534	31.21	0
1	167080	31.31	0
1	167626	31.41	0
1	168172	31.51	0
1	168718	31.61	0
1	169264	31.71	0
1	169810	31.81	0
1	170356	31.91	0
1	170910	32.01	0
1	171456	32.11	0
1	172002	32.21	0
1	172548	32.31	0
1	173094	32.41	0
1	173640	32.51	0
1	174186	32.61	0
1	174732	32.71	0
1	175278	32.81	0
1	175824	32.91	0
1	176378	33.01	0
1	176924	33.11	0
1	177470	33.21	0
1	178016	33.31	0
1	178562	33.41	0
1	179108	33.51	0
1	179654	33.61	0
1	180200	33.71	0
1	180746	33.81	0
1	181292	33.91	0
1	181846	34.01	0
1	182392	34.11	0
1	182938	34.21	0
1	183484	34.31	0
1	184030	34.41	0
1	184576	34.51	0
1	185122	34.61	0
1	185668	34.71	0
1	186214	34.81	0
1	186760	34.91	0
1	187314	35.01	0
1	187860	35.11	0
1	188406	35.21	0
1	188952	35.31	0
1	189498	35.41	0
1	190044	35.51	0
1	190590	35.61	0
1	191136	35.71	0
1	191682	35.81	0
1	192228	35.91	0
1	192782	36.01	0
1	193328	36.11	0
1	193874	36.21	0
1	194420	36.31	0
1	194966	36.41	0
1	195512	36.51	0
1	196058	36.61	0
1	196604	36.71	0
1	197150	36.81	0
1	197696	36.91	0
1	198250	37.01	0
1	198796	37.11	0
1	199342	37.21	0
1	199888	37.31	0
1	200434	37.41	0
1	200980	37.51	0
1	201526	37.61	0
1	202072	37.71	0
1	202618	37.81	0
1	203164	37.91	0
1	203718	38.01	0
1	204264	38.11	0
1	204810	38.21	0
1	205356	38.31	0
1	205902	38.41	0
1	206448	38.51	0
1	206994	38.61	0
1	207540	38.71	0
1	208086	38.81	0
1	208632	38.91	0
1	209186	39.01	0
1	209732	39.11	0
1	210278	39.21	0
1	210824	39.31	0
1	211370	39.41	0
1	211916	39.51	0
1	212462	39.61	0
1	213008	39.71	0
1	213554	39.81	0
1	214100	39.91	0
1	214654	40.01	0
1	215200	40.11	0
1	215746	40.21	0
1	216292	40.31	0
1	216838	40.41	0
1	217384	40.51	0
1	217930	40.61	0
1	218476	40.71	0
1	219022	40.81	0
1	219568	40.91	0
1	220122	41.01	0
1	220668	41.11	0
1	221214	41.21	0
1	221760	41.31	0
1	222306	41.41	0
1	222852	41.51	0
1	223398	41.61	0
1	223944	41.71	0
1	224490	41.81	0
1	225036	41.91	0
1	225590	42.01	0
1	226136	42.11	0
1	226682	42.21	0
1	227228	42.31	0
1	227774	42.41	0
1	228320	42.51	0
1	228866	42.61	0
1	229412	42.71	0
1	229958	42.81	0
1	230504	42.91	0
1	231058	43.01	0
1	231604	43.11	0
1	232150	43.21	0
1	232696	43.31	0
1	233242	43.41	0
1	233788	43.51	0
1	234334	43.61	0
1	234880	43.71	0
1	235426	43.81	0
1	235972	43.91	0
1	236526	44.01	0
1	237072	44.11	0
1	237618	44.21	0
1	238164	44.31	0
1	238710	44.41	0
1	239256	44.51	0
1	239802	44.61	0
1	240348	44.71	0
1	240894	44.81	0
1	241440	44.91	0
1	241994	45.01	0
1	242540	45.11	0
1	243086	45.21	0
1	243632	45.31	0
1	244178	45.41	0
1	244724	45.51	0
1	245270	45.61	0
1	245816	45.71	0
1	246362	45.81	0
1	246908	45.91	0
1	247462	46.01	0
1	248008	46.11	0
1	248554	46.21	0
1	249100	46.31	0
1	249646	46.41	0
1	250192	46.51	0
1	250738	46.61	0
1	251284	46.71	0
1	251830	46.81	0
1	252376	46.91	0
1	252930	47.01	0
1	253476	47.11	0
1	254022	47.21	0
1	254568	47.31	0
1	255114	47.41	0
1	255660	47.51	0
1	256206	47.61	0
1	256752	47.71	0
1	257298	47.81	0
1	257844	47.91	0
1	258398	48.01	0
1	258944	48.11	0
1	259490	48.21	0
1	260036	48.31	0
1	260582	48.41	0
1	261128	48.51	0
1	261674	48.61	0
1	262220	48.71	0
1	262766	48.81	0
1	263312	48.91	0
1	263866	49.01	0
1	264412	49.11	0
1	264958	49.21	0
1	265504	49.31	0
1	266050	49.41	0
1	266596	49.51	0
1	267142	49.61	0
1	267688	49.71	0
1	268234	49.81	0
1	268780	49.91	0
1	269334	50.01	0
1	269880	50.11	0
1	270426	50.21	0
1	270972	50.31	0
1	271518	50.41	0
1	272064	50.51	0
1	272610	50.61	0
1	273156	50.71	0
1	273702	50.81	0
1	274248	50.91	0
1	274802	51.01	0
1	275348	51.11	0
1	275894	51.21	0
1	276440	51.31	0
1	276986	51.41	0
1	277532	51.51	0
1	278078	51.61	0
1	278624	51.71	0
1	279170	51.81	0
1	279716	51.91	0
1	280270	52.01	0
1	280816	52.11	0
1	281362	52.21	0
1	281908	52.31	0
1	282454	52.41	0
1	283000	52.51	0
1	283546	52.61	0
1	284092	52.71	0
1	284638	52.81	0
1	285184	52.91	2.4444
1	285738	53.01	2.4444
1	286284	53.11	2.4444
1	286830	53.21	2.4444
1	287376	53.31	2.4444
1	287922	53.41	2.4444
1	288468	53.51	2.4444
1	289014	53.61	2.4444
1	289560	53.71	2.4444
1	290106	53.81	2.4444
1	290652	53.91	2.4444
1	291206	54.01	2.4444
1	291752	54.11	2.4444
1	292298	54.21	2.4444
1	292844	54.31	2.4444
1	293390	54.41	2.4444
1	293936	54.51	2.4444
1	294482	54.61	2.4444
1	295028	54.71	2.4444
1	295574	54.81	2.4444
1	296120	54.91	2.4444
1	296674	55.01	2.4444
1	297220	55.11	2.4444
1	297766	55.21	2.4444
1	298312	55.31	2.4444
1	298858	55.41	2.4444
1	299404	55.51	2.4444
1	299950	55.61	2.4444
1	300496	55.71	2.4444
1	301042	55.81	2.4444
1	301588	55.91	2.4444
1	302142	56.01	2.4444
1	302688	56.11	2.4444
1	303234	56.21	2.4444
1	303780	56.31	2.4444
1	304326	56.41	2.4444
1	304872	56.51	2.4444
1	305418	56.61	2.4444
1	305964	56.71	2.4444
1	306510	56.81	2.4444
1	307056	56.91	2.4444
1	307610	57.01	2.4444
1	308156	57.11	2.4444
1	308702	57.21	2.4444
1	309248	57.31	2.4444
1	309794	57.41	2.4444
1	310340	57.51	2.4444
1	310886	57.61	2.4444
1	311432	57.71	2.4444
1	311978	57.81	2.4444
1	312524	57.91	2.4444
1	313078	58.01	2.4444
1	313624	58.11	2.4444
1	314170	58.21	2.4444
1	314716	58.31	2.4444
1	315262	58.41	2.4444
1	315808	58.51	2.4444
1	316354	58.61	2.4444
1	316900	58.71	2.4444
1	317446	58.81	2.4444
1	317992	58.91	2.4444
1	318546	59.01	2.4444
1	319092	59.11	2.4444
1	319638	59.21	2.4444
1	320184	59.31	2.4444
1	320730	59.41	2.4444
1	321276	59.51	2.4444
1	321822	59.61	2.4444
1	322368	59.71	2.4444
1	322914	59.81	2.4444
1	323460	59.91	2.4444
1	324014	60.01	2.4444
1	324560	60.11	2.4444
1	325106	60.21	2.4444
1	325652	60.31	2.4444
1	326198	60.41	2.4444
1	326744	60.51	2.4444
1	327290	60.61	2.4444
1	327836	60.71	2.4444
1	328382	60.81	2.4444
1	328928	60.91	2.4444
1	329482	61.01	2.4444
1	330028	61.11	2.4444
1	330574	61.21	2.4444
1	331120	61.31	2.4444
1	331666	61.41	2.4444
1	332212	61.51	2.4444
1	332758	61.61	2.4444
1	333304	61.71	2.4444
1	333850	61.81	2.4444
1	334396	61.91	2.4444
1	334950	62.01	2.4444
1	335496	62.11	2.4444
1	336042	62.21	2.4444
1	336588	62.31	2.4444
1	337134	62.41	2.4444
1	337680	62.51	2.4444
1	338226	62.61	2.4444
1	338772	62.71	2.4444
1	339318	62.81	2.4444
1	339864	62.91	2.4444
1	340418	63.01	2.4444
1	340964	63.11	2.4444
1	341510	63.21	2.4444
1	342056	63.31	2.4444
1	342602	63.41	2.4444
1	343148	63.51	2.4444
1	343694	63.61	2.4444
1	344240	63.71	2.4444
1	344786	63.81	2.4444
1	345332	63.91	2.4444
1	345886	64.01	2.4444
1	346432	64.11	2.4444
1	346978	64.21	2.4444
1	347524	64.31	2.4444
1	348070	64.41	2.4444
1	348616	64.51	2.4444
1	349162	64.61	2.4444
1	349708	64.71	2.4444
1	350254	64.81	2.4444
1	350800	64.91	2.4444
1	351354	65.01	2.4444
1	351900	65.11	2.4444
1	352446	65.21	2.4444
1	352992	65.31	2.4444
1	353538	65.41	2.4444
1	354084	65.51	2.4444
1	354630	65.61	2.4444
1	355176	65.71	2.4444
1	355722	65.81	2.4444
1	356268	65.91	2.4444
1	356822	66.01	2.4444
1	357368	66.11	2.4444
1	357914	66.21	2.4444
1	358460	66.31	2.4444
1	359006	66.41	2.4444
1	359552	66.51	2.4444
1	360098	66.61	2.4444
1	360644	66.71	2.4444
1	361190	66.81	2.4444
1	361736	66.91	2.4444
1	362290	67.01	2.4444
1	362836	67.11	2.4444
1	363382	67.21	2.4444
1	363928	67.31	2.4444
1	364474	67.41	2.4444
1	365020	67.51	2.4444
1	365566	67.61	2.4444
1	366112	67.71	2.4444
1	366658	67.81	2.4444
1	367204	67.91	2.4444
1	367758	68.01	2.4444
1	368304	68.11	2.4444
1	368850	68.21	2.4444
1	369396	68.31	2.4444
1	369942	68.41	2.4444
1	370488	68.51	2.4444
1	371034	68.61	2.4444
1	371580	68.71	2.4444
1	372126	68.81	2.4444
1	372672	68.91	2.4444
1	373226	69.01	2.4444
1	373772	69.11	2.4444
1	374318	69.21	2.4444
1	374864	69.31	2.4444
1	375410	69.41	2.4444
1	375956	69.51	2.4444
1	376502	69.61	2.4444
1	377048	69.71	2.4444
1	377594	69.81	2.4444
1	378140	69.91	2.4444
1	378694	70.01	2.4444
1	379240	70.11	2.4444
1	379786	70.21	2.4444
1	380332	70.31	2.4444
1	380878	70.41	2.4444
1	381424	70.51	2.4444
1	381970	70.61	2.4444
1	382516	70.71	2.4444
1	383062	70.81	2.4444
1	383608	70.91	2.4444
1	384162	71.01	2.4444
1	384708	71.11	2.4444
1	385254	71.21	2.4444
1	385800	71.31	2.4444
1	386346	71.41	2.4444
1	386892	71.51	2.4444
1	387438	71.61	2.4444
1	387984	71.71	2.4444
1	388530	71.81	2.4444
1	389076	71.91	2.4444
1	389630	72.01	2.4444
1	390176	72.11	2.4444
1	390722	72.21	2.4444
1	391268	72.31	2.4444
1	391814	72.41	2.4444
1	392360	72.51	2.4444
1	392906	72.61	2.4444
1	393452	72.71	2.4444
1	393998	72.81	2.4444
1	394544	72.91	2.4444
1	395098	73.01	2.4444
1	395644	73.11	2.4444
1	396190	73.21	2.4444
1	396736	73.31	2.4444
1	397282	73.41	2.4444
1	397828	73.51	2.4444
1	398374	73.61	2.4444
1	398920	73.71	2.4444
1	399466	73.81	2.4444
1	400012	73.91	2.4444
1	400566	74.01	2.4444
1	401112	74.11	2.4444
1	401658	74.21	2.4444
1	402204	74.31	2.4444
1	402750	74.41	2.4444
1	403296	74.51	2.4444
1	403842	74.61	2.4444
1	404388	74.71	2.4444
1	404934	74.81	2.44358
1	405480	74.91	2.44022
1	406034	75.01	2.43475
1	406580	75.11	2.42764
1	407126	75.21	2.41931
1	407672	75.31	2.41013
1	408218	75.41	2.40039
1	408764	75.51	2.39038
1	409310	75.61	2.38031
1	409856	75.71	2.37037
1	410402	75.81	2.36072
1	410948	75.91	2.35148
1	411502	76.01	2.34274
1	412048	76.11	2.33457
1	412594	76.21	2.32703
1	413140	76.31	2.32014
1	413686	76.41	2.31392
1	414232	76.51	2.30837
1	414778	76.61	2.30349
1	415324	76.71	2.29925
1	415870	76.81	2.29564
1	416416	76.91	2.29263
1	416970	77.01	2.29017
1	417516	77.11	2.28824
1	418062	77.21	2.28679
1	418608	77.31	2.28579
1	419154	77.41	2.28519
1	419700	77.51	2.28496
1	420246	77.61	2.28506
1	420792	77.71	2.28545
1	421338	77.81	2.2861
1	421884	77.91	2.28697
1	422438	78.01	2.28803
1	422984	78.11	2.28926
1	423530	78.21	2.29062
1	424076	78.31	2.2921
1	424622	78.41	2.29367
1	425168	78.51	2.2953
1	425714	78.61	2.29699
1	426260	78.71	2.29872
1	426806	78.81	2.30047
1	427352	78.91	2.30223
1	427906	79.01	2.30399
1	428452	79.11	2.30575
1	428998	79.21	2.30749
1	429544	79.31	2.30921
1	430090	79.41	2.31091
1	430636	79.51	2.31258
1	431182	79.61	2.31421
1	431728	79.71	2.31581
1	432274	79.81	2.31738
1	432820	79.91	2.31891
1	433374	80.01	2.3204
1	433920	80.11	2.32186
1	434466	80.21	2.32328
1	435012	80.31	2.32467
1	435558	80.41	2.32602
1	436104	80.51	2.32734
1	436650	80.61	2.32863
1	437196	80.71	2.32989
1	437742	80.81	2.33112
1	438288	80.91	2.33232
1	438842	81.01	2.3335
1	439388	81.11	2.33466
1	439934	81.21	2.33579
1	440480	81.31	2.3369
1	441026	81.41	2.33799
1	441572	81.51	2.33907
1	442118	81.61	2.34012
1	442664	81.71	2.34116
1	443210	81.81	2.34219
1	443756	81.91	2.3432
1	444310	82.01	2.3442
1	444856	82.11	2.34518
1	445402	82.21	2.34615
1	445948	82.31	2.34711
1	446494	82.41	2.34806
1	447040	82.51	2.349
1	447586	82.61	2.34993
1	448132	82.71	2.35085
1	448678	82.81	2.35177
1	449224	82.91	2.35267
1	449778	83.01	2.35356
1	450324	83.11	2.35445
1	450870	83.21	2.35533
1	451416	83.31	2.3562
1	451962	83.41	2.35706
1	452508	83.51	2.35791
1	453054	83.61	2.35876
1	453600	83.71	2.3596
1	454146	83.81	2.36043
1	454692	83.91	2.36125
1	455246	84.01	2.36207
1	455792	84.11	2.36288
1	456338	84.21	2.36368
1	456884	84.31	2.36447
1	457430	84.41	2.36526
1	457976	84.51	2.36604
1	458522	84.61	2.36681
1	459068	84.71	2.36757
1	459614	84.81	2.36833
1	460160	84.91	2.36908
1	460714	85.01	2.36983
1	461260	85.11	2.37056
1	461806	85.21	2.37129
1	462352	85.31	2.37201
1	462898	85.41	2.37273
1	463444	85.51	2.37344
1	463990	85.61	2.37414
1	464536	85.71	2.37483
1	465082	85.81	2.37552
1	465628	85.91	2.3762
1	466182	86.01	2.37688
1	466728	86.11	2.37754
1	467274	86.21	2.37821
1	467820	86.31	2.37886
1	468366	86.41	2.37951
1	468912	86.51	2.38015
1	469458	86.61	2.38079
1	470004	86.71	2.38142
1	470550	86.81	2.38204
1	471096	86.91	2.38265
1	471650	87.01	2.38327
1	472196	87.11	2.38387
1	472742	87.21	2.38447
1	473288	87.31	2.38506
1	473834	87.41	2.38565
1	474380	87.51	2.38623
1	474926	87.61	2.3868
1	475472	87.71	2.38737
1	476018	87.81	2.38794
1	476564	87.91	2.3885
1	477118	88.01	2.38905
1	477664	88.11	2.38959
1	478210	88.21	2.39014
1	478756	88.31	2.39067
1	479302	88.41	2.3912
1	479848	88.51	2.39173
1	480394	88.61	2.39225
1	480940	88.71	2.39277
1	481486	88.81	2.39328
1	482032	88.91	2.39378
1	482586	89.01	2.39428
1	483132	89.11	2.39478
1	483678	89.21	2.39527
1	484224	89.31	2.39575
1	484770	89.41	2.39623
1	485316	89.51	2.39671
1	485862	89.61	2.39718
1	486408	89.71	2.39765
1	486954	89.81	2.39811
1	487500	89.91	2.39857
1	488054	90.01	2.39902
1	488600	90.11	2.39947
1	489146	90.21	2.39991
1	489692	90.31	2.40035
1	490238	90.41	2.40079
1	490784	90.51	2.40122
1	491330	90.61	2.40165
1	491876	90.71	2.40207
1	492422	90.81	2.40249
1	492968	90.91	2.4029
1	493522	91.01	2.40331
1	494068	91.11	2.40372
1	494614	91.21	2.40412
1	495160	91.31	2.40452
1	495706	91.41	2.40491
1	496252	91.51	2.4053
1	496798	91.61	2.40569
1	497344	91.71	2.40607
1	497890	91.81	2.40645
1	498436	91.91	2.40682
1	498990	92.01	2.4072
1	499536	92.11	2.40756
1	500082	92.21	2.40793
1	500628	92.31	2.40829
1	501174	92.41	2.40865
1	501720	92.51	2.409
1	502266	92.61	2.40935
1	502812	92.71	2.40969
1	503358	92.81	2.41004
1	503904	92.91	2.41038
1	504458	93.01	2.41071
1	505004	93.11	2.41105
1	505550	93.21	2.41138
1	506096	93.31	2.4117
1	506642	93.41	2.41203
1	507188	93.51	2.41235
1	507734	93.61	2.41266
1	508280	93.71	2.41298
1	508826	93.81	2.41329
1	509372	93.91	2.41359
1	509926	94.01	2.4139
1	510472	94.11	2.4142
1	511018	94.21	2.4145
1	511564	94.31	2.41479
1	512110	94.41	2.41509
1	512656	94.51	2.41538
1	513202	94.61	2.41566
1	513748	94.71	2.41595
1	514294	94.81	2.41623
1	514840	94.91	2.41651
1	515394	95.01	2.41678
1	515940	95.11	2.41706
1	516486	95.21	2.41733
1	517032	95.31	2.41759
1	517578	95.41	2.41786
1	518124	95.51	2.41812
1	518670	95.61	2.41838
1	519216	95.71	2.41864
1	519762	95.81	2.41889
1	520308	95.91	2.41914
1	520862	96.01	2.41939
1	521408	96.11	2.41964
1	521954	96.21	2.41989
1	522500	96.31	2.42013
1	523046	96.41	2.42037
1	523592	96.51	2.42061
1	524138	96.61	2.42084
1	524684	96.71	2.42107
1	525230	96.81	2.4213
1	525776	96.91	2.42153
1	526330	97.01	2.42176
1	526876	97.11	2.42198
1	527422	97.21	2.4222
1	527968	97.31	2.42242
1	528514	97.41	2.42264
1	529060	97.51	2.42286
1	529606	97.61	2.42307
1	530152	97.71	2.42328
1	530698	97.81	2.42349
1	531244	97.91	2.42369
1	531798	98.01	2.4239
1	532344	98.11	2.4241
1	532890	98.21	2.4243
1	533436	98.31	2.4245
1	533982	98.41	2.4247
1	534528	98.51	2.42489
1	535074	98.61	2.42509
1	535620	98.71	2.42528
1	536166	98.81	2.42547
1	536712	98.91	2.42565
1	537266	99.01	0.447304
1	537812	99.11	0.457261
1	538358	99.21	0.472839
1	538904	99.31	0.492698
1	539450	99.41	0.515665
1	539996	99.51	0.540722
1	540542	99.61	0.566994
1	541088	99.71	0.59374
1	541634	99.81	0.620341
1	542180	99.91	0.646286
2	113	1.11	0
2	659	1.21	0
2	1205	1.31	0
2	1751	1.41	0
2	2297	1.51	0
2	2843	1.61	0
2	3389	1.71	0
2	3935	1.81	0
2	4481	1.91	0
2	5035	2.01	0
2	5581	2.11	0
2	6127	2.21	0
2	6673	2.31	0
2	7219	2.41	0
2	7765	2.51	0
2	8311	2.61	0
2	8857	2.71	0
2	9403	2.81	0
2	9949	2.91	0
2	10503	3.01	0
2	11049	3.11	0
2	11595	3.21	0
2	12141	3.31	0
2	12687	3.41	0
2	13233	3.51	0
2	13779	3.61	0
2	14325	3.71	0
2	14871	3.81	0
2	15417	3.91	0
2	15971	4.01	0
2	16517	4.11	0
2	17063	4.21	0
2	17609	4.31	0
2	18155	4.41	0
2	18701	4.51	0
2	19247	4.61	0
2	19793	4.71	0
2	20339	4.81	0
2	20885	4.91	0
2	21439	5.01	0
2	21985	5.11	0
2	22531	5.21	0
2	23077	5.31	0
2	23623	5.41	0
2	24169	5.51	0
2	24715	5.61	0
2	25261	5.71	0
2	25807	5.81	0
2	26353	5.91	0
2	26907	6.01	0
2	27453	6.11	0
2	27999	6.21	0
2	28545	6.31	0
2	29091	6.41	0
2	29637	6.51	0
2	30183	6.61	0
2	30729	6.71	0
2	31275	6.81	0
2	31821	6.91	0
2	32375	7.01	0
2	32921	7.11	0
2	33467	7.21	0
2	34013	7.31	0
2	34559	7.41	0
2	35105	7.51	0
2	35651	7.61	0
2	36197	7.71	0
2	36743	7.81	0
2	37289	7.91	0
2	37843	8.01	0
2	38389	8.11	0
2	38935	8.21	0
2	39481	8.31	0
2	40027	8.41	0
2	40573	8.51	0
2	41119	8.61	0
2	41665	8.71	0
2	42211	8.81	0
2	42757	8.91	0
2	43311	9.01	0
2	43857	9.11	0
2	44403	9.21	0
2	44949	9.31	0
2	45495	9.41	0
2	46041	9.51	0
2	46587	9.61	0
2	47133	9.71	0
2	47679	9.81	0
2	48225	9.91	0
2	50614	10.01	0
2	51160	10.11	0
2	51706	10.21	0
2	52252	10.31	0
2	52798	10.41	0
2	53344	10.51	0
2	53890	10.61	0
2	54436	10.71	0
2	54982	10.81	0
2	55528	10.91	0
2	56082	11.01	0
2	56628	11.11	0
2	57174	11.21	0
2	57720	11.31	0
2	58266	11.41	0
2	58812	11.51	0
2	59358	11.61	0
2	59904	11.71	0
2	60450	11.81	0
2	60996	11.91	0
2	61550	12.01	0
2	62096	12.11	0
2	62642	12.21	0
2	63188	12.31	0
2	63734	12.41	0
2	64280	12.51	0
2	64826	12.61	0
2	65372	12.71	0
2	65918	12.81	0
2	66464	12.91	0
2	67018	13.01	0
2	67564	13.11	0
2	68110	13.21	0
2	68656	13.31	0
2	69202	13.41	0
2	69748	13.51	0
2	70294	13.61	0
2	70840	13.71	0
2	71386	13.81	0
2	71932	13.91	0
2	72486	14.01	0
2	73032	14.11	0
2	73578	14.21	0
2	74124	14.31	0
2	74670	14.41	0
2	75216	14.51	0
2	75762	14.61	0
2	76308	14.71	0
2	76854	14.81	0
2	77400	14.91	0
2	77954	15.01	0
2	78500	15.11	0
2	79046	15.21	0
2	79592	15.31	0
2	80138	15.41	0
2	80684	15.51	0
2	81230	15.61	0
2	81776	15.71	0
2	82322	15.81	0
2	82868	15.91	0
2	83422	16.01	0
2	83968	16.11	0
2	84514	16.21	0
2	85060	16.31	0
2	85606	16.41	0
2	86152	16.51	0
2	86698	16.61	0
2	87244	16.71	0
2	87790	16.81	0
2	88336	16.91	0
2	88890	17.01	0
2	89436	17.11	0
2	89982	17.21	0
2	90528	17.31	0
2	91074	17.41	0
2	91620	17.51	0
2	92166	17.61	0
2	92712	17.71	0
2	93258	17.81	0
2	93804	17.91	0
2	94358	18.01	0
2	94904	18.11	0
2	95450	18.21	0
2	95996	18.31	0
2	96542	18.41	0
2	97088	18.51	0
2	97634	18.61	0
2	98180	18.71	0
2	98726	18.81	0
2	99272	18.91	0
2	99826	19.01	0
2	100372	19.11	0
2	100918	19.21	0
2	101464	19.31	0
2	102010	19.41	0
2	102556	19.51	0
2	103102	19.61	0
2	103648	19.71	0
2	104194	19.81	0
2	104740	19.91	0
2	105294	20.01	0
2	105840	20.11	0
2	106386	20.21	0
2	106932	20.31	0
2	107478	20.41	0
2	108024	20.51	0
2	108570	20.61	0
2	109116	20.71	0
2	109662	20.81	0
2	110208	20.91	0
2	110762	21.01	0
2	111308	21.11	0
2	111854	21.21	0
2	112400	21.31	0
2	112946	21.41	0
2	113492	21.51	0
2	114038	21.61	0
2	114584	21.71	0
2	115130	21.81	0
2	115676	21.91	0
2	116230	22.01	0
2	116776	22.11	0
2	117322	22.21	0
2	117868	22.31	0
2	118414	22.41	0
2	118960	22.51	0
2	119506	22.61	0
2	120052	22.71	0
2	120598	22.81	0
2	121144	22.91	0
2	121698	23.01	0
2	122244	23.11	0
2	122790	23.21	0
2	123336	23.31	0
2	123882	23.41	0
2	124428	23.51	0
2	124974	23.61	0
2	125520	23.71	0
2	126066	23.81	0
2	126612	23.91	0
2	127166	24.01	0
2	127712	24.11	0
2	128258	24.21	0
2	128804	24.31	0
2	129350	24.41	0
2	129896	24.51	0
2	130442	24.61	0
2	130988	24.71	0
2	131534	24.81	0
2	132080	24.91	0
2	132634	25.01	0
2	133180	25.11	0
2	133726	25.21	0
2	134272	25.31	0
2	134818	25.41	0
2	135364	25.51	0
2	135910	25.61	0
2	136456	25.71	0
2	137002	25.81	0
2	137548	25.91	0
2	138102	26.01	0
2	138648	26.11	0
2	139194	26.21	0
2	139740	26.31	0
2	140286	26.41	0
2	140832	26.51	0
2	141378	26.61	0
2	141924	26.71	0
2	142470	26.81	0
2	143016	26.91	0
2	143570	27.01	0
2	144116	27.11	0
2	144662	27.21	0
2	145208	27.31	0
2	145754	27.41	0
2	146300	27.51	0
2	146846	27.61	0
2	147392	27.71	0
2	147938	27.81	0
2	148484	27.91	0
2	149038	28.01	0
2	149584	28.11	0
2	150130	28.21	0
2	150676	28.31	0
2	151222	28.41	0
2	151768	28.51	0
2	152314	28.61	0
2	152860	28.71	0
2	153406	28.81	0
2	153952	28.91	0
2	154506	29.01	0
2	155052	29.11	0
2	155598	29.21	0
2	156144	29.31	0
2	156690	29.41	0
2	157236	29.51	0
2	157782	29.61	0
2	158328	29.71	0
2	158874	29.81	0
2	159420	29.91	0
2	159974	30.01	0
2	160520	30.11	0
2	161066	30.21	0
2	161612	30.31	0
2	162158	30.41	0
2	162704	30.51	0
2	163250	30.61	0
2	163796	30.71	0
2	164342	30.81	0
2	164888	30.91	0
2	165442	31.01	0
2	165988	31.11	0
2	166534	31.21	0
2	167080	31.31	0
2	167626	31.41	0
2	168172	31.51	0
2	168718	31.61	0
2	169264	31.71	0
2	169810	31.81	0
2	170356	31.91	0
2	170910	32.01	0
2	171456	32.11	0
2	172002	32.21	0
2	172548	32.31	0
2	173094	32.41	0
2	173640	32.51	0
2	174186	32.61	0
2	174732	32.71	0
2	175278	32.81	0
2	175824	32.91	0
2	176378	33.01	0
2	176924	33.11	0
2	177470	33.21	0
2	178016	33.31	0
2	178562	33.41	0
2	179108	33.51	0
2	179654	33.61	0
2	180200	33.71	0
2	180746	33.81	0
2	181292	33.91	0
2	181846	34.01	0
2	182392	34.11	0
2	182938	34.21	0
2	183484	34.31	0
2	184030	34.41	0
2	184576	34.51	0
2	185122	34.61	0
2	185668	34.71	0
2	186214	34.81	0
2	186760	34.91	0
2	187314	35.01	0
2	187860	35.11	0
2	188406	35.21	0
2	188952	35.31	0
2	189498	35.41	0
2	190044	35.51	0
2	190590	35.61	0
2	191136	35.71	0
2	191682	35.81	0
2	192228	35.91	0
2	192782	36.01	0
2	193328	36.11	0
2	193874	36.21	0
2	194420	36.31	0
2	194966	36.41	0
2	195512	36.51	0
2	196058	36.61	0
2	196604	36.71	0
2	197150	36.81	0
2	197696	36.91	0
2	198250	37.01	0
2	198796	37.11	0
2	199342	37.21	0
2	199888	37.31	0
2	200434	37.41	0
2	200980	37.51	0
2	201526	37.61	0
2	202072	37.71	0
2	202618	37.81	0
2	203164	37.91	0
2	203718	38.01	0
2	204264	38.11	0
2	204810	38.21	0
2	205356	38.31	0
2	205902	38.41	0
2	206448	38.51	0
2	206994	38.61	0
2	207540	38.71	0
2	208086	38.81	0
2	208632	38.91	0
2	209186	39.01	0
2	209732	39.11	0
2	210278	39.21	0
2	210824	39.31	0
2	211370	39.41	0
2	211916	39.51	0
2	212462	39.61	0
2	213008	39.71	0
2	213554	39.81	0
2	214100	39.91	0
2	214654	40.01	0
2	215200	40.11	0
2	215746	40.21	0
2	216292	40.31	0
2	216838	40.41	0
2	217384	40.51	0
2	217930	40.61	0
2	218476	40.71	0
2	219022	40.81	0
2	219568	40.91	0
2	220122	41.01	0
2	220668	41.11	0
2	221214	41.21	0
2	221760	41.31	0
2	222306	41.41	0
2	222852	41.51	0
2	223398	41.61	0
2	223944	41.71	0
2	224490	41.81	0
2	225036	41.91	0
2	225590	42.01	0
2	226136	42.11	0
2	226682	42.21	0
2	227228	42.31	0
2	227774	42.41	0
2	228320	42.51	0
2	228866	42.61	0
2	229412	42.71	0
2	229958	42.81	0
2	230504	42.91	0
2	231058	43.01	0
2	231604	43.11	0
2	232150	43.21	0
2	232696	43.31	0
2	233242	43.41	0
2	233788	43.51	0
2	234334	43.61	0
2	234880	43.71	0
2	235426	43.81	0
2	235972	43.91	0
2	236526	44.01	0
2	237072	44.11	0
2	237618	44.21	0
2	238164	44.31	0
2	238710	44.41	0
2	239256	44.51	0
2	239802	44.61	0
2	240348	44.71	0
2	240894	44.81	0
2	241440	44.91	0
2	241994	45.01	0
2	242540	45.11	0
2	243086	45.21	0
2	243632	45.31	0
2	244178	45.41	0
2	244724	45.51	0
2	245270	45.61	0
2	245816	45.71	0
2	246362	45.81	0
2	246908	45.91	0
2	247462	46.01	0
2	248008	46.11	0
2	248554	46.21	0
2	249100	46.31	0
2	249646	46.41	0
2	250192	46.51	0
2	250738	46.61	0
2	251284	46.71	0
2	251830	46.81	0
2	252376	46.91	0
2	252930	47.01	0
2	253476	47.11	0
2	254022	47.21	0
2	254568	47.31	0
2	255114	47.41	0
2	255660	47.51	0
2	256206	47.61	0
2	256752	47.71	0
2	257298	47.81	0
2	257844	47.91	0
2	258398	48.01	0
2	258944	48.11	0
2	259490	48.21	0
2	260036	48.31	0
2	260582	48.41	0
2	261128	48.51	0
2	261674	48.61	0
2	262220	48.71	0
2	262766	48.81	0
2	263312	48.91	0
2	263866	49.01	0
2	264412	49.11	0
2	264958	49.21	0
2	265504	49.31	0
2	266050	49.41	0
2	266596	49.51	0
2	267142	49.61	0
2	267688	49.71	0
2	268234	49.81	0
2	268780	49.91	0
2	269334	50.01	0
2	269880	50.11	0
2	270426	50.21	0
2	270972	50.31	0
2	271518	50.41	0
2	272064	50.51	0
2	272610	50.61	0
2	273156	50.71	0
2	273702	50.81	0
2	274248	50.91	0
2	274802	51.01	0
2	275348	51.11	0
2	275894	51.21	0
2	276440	51.31	0
2	276986	51.41	0
2	277532	51.51	0
2	278078	51.61	0
2	278624	51.71	0
2	279170	51.81	0
2	279716	51.91	0
2	280270	52.01	0
2	280816	52.11	0
2	281362	52.21	0
2	281908	52.31	0
2	282454	52.41	0
2	283000	52.51	0
2	283546	52.61	0
2	284092	52.71	0
2	284638	52.81	0
2	285184	52.91	0
2	285738	53.01	0
2	286284	53.11	0
2	286830	53.21	0
2	287376	53.31	0
2	287922	53.41	0
2	288468	53.51	0
2	289014	53.61	0
2	289560	53.71	0
2	290106	53.81	0
2	290652	53.91	0
2	291206	54.01	0
2	291752	54.11	0
2	292298	54.21	0
2	292844	54.31	0
2	293390	54.41	0
2	293936	54.51	0
2	294482	54.61	0
2	295028	54.71	0
2	295574	54.81	0
2	296120	54.91	0
2	296674	55.01	0
2	297220	55.11	0
2	297766	55.21	0
2	298312	55.31	0
2	298858	55.41	0
2	299404	55.51	0
2	299950	55.61	0
2	300496	55.71	0
2	301042	55.81	0
2	301588	55.91	0
2	302142	56.01	0
2	302688	56.11	0
2	303234	56.21	0
2	303780	56.31	0
2	304326	56.41	0
2	304872	56.51	0
2	305418	56.61	0
2	305964	56.71	0
2	306510	56.81	0
2	307056	56.91	0
2	307610	57.01	0
2	308156	57.11	0
2	308702	57.21	0
2	309248	57.31	0
2	309794	57.41	0
2	310340	57.51	0
2	310886	57.61	0
2	311432	57.71	0
2	311978	57.81	0
2	312524	57.91	0
2	313078	58.01	0
2	313624	58.11	0
2	314170	58.21	0
2	314716	58.31	0
2	315262	58.41	0
2	315808	58.51	0
2	316354	58.61	0
2	316900	58.71	0
2	317446	58.81	0
2	317992	58.91	0
2	318546	59.01	0
2	319092	59.11	0
2	319638	59.21	0
2	320184	59.31	0
2	320730	59.41	0
2	321276	59.51	0
2	321822	59.61	0
2	322368	59.71	0
2	322914	59.81	0
2	323460	59.91	0
2	324014	60.01	0
2	324560	60.11	0
2	325106	60.21	0
2	325652	60.31	0
2	326198	60.41	0
2	326744	60.51	0
2	327290	60.61	0
2	327836	60.71	0
2	328382	60.81	0
2	328928	60.91	0
2	329482	61.01	0
2	330028	61.11	0
2	330574	61.21	0
2	331120	61.31	0
2	331666	61.41	0
2	332212	61.51	0
2	332758	61.61	0
2	333304	61.71	0
2	333850	61.81	0
2	334396	61.91	0
2	334950	62.01	0
2	335496	62.11	0
2	336042	62.21	0
2	336588	62.31	0
2	337134	62.41	0
2	337680	62.51	0
2	338226	62.61	0
2	338772	62.71	0
2	339318	62.81	0
2	339864	62.91	0
2	340418	63.01	0
2	340964	63.11	0
2	341510	63.21	0
2	342056	63.31	0
2	342602	63.41	0
2	343148	63.51	0
2	343694	63.61	0
2	344240	63.71	0
2	344786	63.81	0
2	345332	63.91	0
2	345886	64.01	0
2	346432	64.11	0
2	346978	64.21	0
2	347524	64.31	0
2	348070	64.41	0
2	348616	64.51	0
2	349162	64.61	0
2	349708	64.71	0
2	350254	64.81	0
2	350800	64.91	0
2	351354	65.01	0
2	351900	65.11	0
2	352446	65.21	0
2	352992	65.31	0
2	353538	65.41	0
2	354084	65.51	0
2	354630	65.61	0
2	355176	65.71	0
2	355722	65.81	0
2	356268	65.91	0
2	356822	66.01	0
2	357368	66.11	0
2	357914	66.21	0
2	358460	66.31	0
2	359006	66.41	0
2	359552	66.51	0
2	360098	66.61	0
2	360644	66.71	0
2	361190	66.81	0
2	361736	66.91	0
2	362290	67.01	0
2	362836	67.11	0
2	363382	67.21	0
2	363928	67.31	0
2	364474	67.41	0
2	365020	67.51	0
2	365566	67.61	0
2	366112	67.71	0
2	366658	67.81	0
2	367204	67.91	0
2	367758	68.01	0
2	368304	68.11	0
2	368850	68.21	0
2	369396	68.31	0
2	369942	68.41	0
2	370488	68.51	0
2	371034	68.61	0
2	371580	68.71	0
2	372126	68.81	0
2	372672	68.91	0
2	373226	69.01	0
2	373772	69.11	0
2	374318	69.21	0
2	374864	69.31	0
2	375410	69.41	0
2	375956	69.51	0
2	376502	69.61	0
2	377048	69.71	0
2	377594	69.81	0
2	378140	69.91	0
2	378694	70.01	0
2	379240	70.11	0
2	379786	70.21	0
2	380332	70.31	0
2	380878	70.41	0
2	381424	70.51	0
2	381970	70.61	0
2	382516	70.71	0
2	383062	70.81	0
2	383608	70.91	0
2	384162	71.01	0
2	384708	71.11	0
2	385254	71.21	0
2	385800	71.31	0
2	386346	71.41	0
2	386892	71.51	0
2	387438	71.61	0
2	387984	71.71	0
2	388530	71.81	0
2	389076	71.91	0
2	389630	72.01	0
2	390176	72.11	0
2	390722	72.21	0
2	391268	72.31	0
2	391814	72.41	0
2	392360	72.51	0
2	392906	72.61	0
2	393452	72.71	0
2	393998	72.81	0
2	394544	72.91	0
2	395098	73.01	0
2	395644	73.11	0
2	396190	73.21	0
2	396736	73.31	0
2	397282	73.41	0
2	397828	73.51	0
2	398374	73.61	0
2	398920	73.71	0
2	399466	73.81	0
2	400012	73.91	0
2	400566	74.01	0
2	401112	74.11	0
2	401658	74.21	0
2	402204	74.31	0
2	402750	74.41	0
2	403296	74.51	0
2	403842	74.61	0
2	404388	74.71	0
2	404934	74.81	0
2	405480	74.91	0
2	406034	75.01	0
2	406580	75.11	0
2	407126	75.21	0
2	407672	75.31	0
2	408218	75.41	0
2	408764	75.51	0
2	409310	75.61	0
2	409856	75.71	0
2	410402	75.81	0
2	410948	75.91	0
2	411502	76.01	0
2	412048	76.11	0
2	412594	76.21	0
2	413140	76.31	0
2	413686	76.41	0
2	414232	76.51	0
2	414778	76.61	0
2	415324	76.71	0
2	415870	76.81	0
2	416416	76.91	0
2	416970	77.01	0
2	417516	77.11	0
2	418062	77.21	0
2	418608	77.31	0
2	419154	77.41	0
2	419700	77.51	0
2	420246	77.61	0
2	420792	77.71	0
2	421338	77.81	0
2	421884	77.91	0
2	422438	78.01	0
2	422984	78.11	0
2	423530	78.21	0
2	424076	78.31	0
2	424622	78.41	0
2	425168	78.51	0
2	425714	78.61	0
2	426260	78.71	0
2	426806	78.81	0
2	427352	78.91	0
2	427906	79.01	0
2	428452	79.11	0
2	428998	79.21	0
2	429544	79.31	0
2	430090	79.41	0
2	430636	79.51	0
2	431182	79.61	0
2	431728	79.71	0
2	432274	79.81	0
2	432820	79.91	0
2	433374	80.01	0
2	433920	80.11	0
2	434466	80.21	0
2	435012	80.31	0
2	435558	80.41	0
2	436104	80.51	0
2	436650	80.61	0
2	437196	80.71	0
2	437742	80.81	0
2	438288	80.91	0
2	438842	81.01	0
2	439388	81.11	0
2	439934	81.21	0
2	440480	81.31	0
2	441026	81.41	0
2	441572	81.51	0
2	442118	81.61	0
2	442664	81.71	0
2	443210	81.81	0
2	443756	81.91	0
2	444310	82.01	0
2	444856	82.11	0
2	445402	82.21	0
2	445948	82.31	0
2	446494	82.41	0
2	447040	82.51	0
2	447586	82.61	0
2	448132	82.71	0
2	448678	82.81	0
2	449224	82.91	0
2	449778	83.01	0
2	450324	83.11	0
2	450870	83.21	0
2	451416	83.31	0
2	451962	83.41	0
2	452508	83.51	0
2	453054	83.61	0
2	453600	83.71	0
2	454146	83.81	0
2	454692	83.91	0
2	455246	84.01	0
2	455792	84.11	0
2	456338	84.21	0
2	456884	84.31	0
2	457430	84.41	0
2	457976	84.51	0
2	458522	84.61	0
2	459068	84.71	0
2	459614	84.81	0
2	460160	84.91	0
2	460714	85.01	0
2	461260	85.11	0
2	461806	85.21	0
2	462352	85.31	0
2	462898	85.41	0
2	463444	85.51	0
2	463990	85.61	0
2	464536	85.71	0
2	465082	85.81	0
2	465628	85.91	0
2	466182	86.01	0
2	466728	86.11	0
2	467274	86.21	0
2	467820	86.31	0
2	468366	86.41	0
2	468912	86.51	0
2	469458	86.61	0
2	470004	86.71	0
2	470550	86.81	0
2	471096	86.91	0
2	471650	87.01	0
2	472196	87.11	0
2	472742	87.21	0
2	473288	87.31	0
2	473834	87.41	0
2	474380	87.51	0
2	474926	87.61	0
2	475472	87.71	0
2	476018	87.81	0
2	476564	87.91	0
2	477118	88.01	0
2	477664	88.11	0
2	478210	88.21	0
2	478756	88.31	0
2	479302	88.41	0
2	479848	88.51	0
2	480394	88.61	0
2	480940	88.71	0
2	481486	88.81	0
2	482032	88.91	0
2	482586	89.01	0
2	483132	89.11	0
2	483678	89.21	0
2	484224	89.31	0
2	484770	89.41	0
2	485316	89.51	0
2	485862	89.61	0
2	486408	89.71	0
2	486954	89.81	0
2	487500	89.91	0
2	488054	90.01	0
2	488600	90.11	0
2	489146	90.21	0
2	489692	90.31	0
2	490238	90.41	0
2	490784	90.51	0
2	491330	90.61	0
2	491876	90.71	0
2	492422	90.81	0
2	492968	90.91	0
2	493522	91.01	0
2	494068	91.11	0
2	494614	91.21	0
2	495160	91.31	0
2	495706	91.41	0
2	496252	91.51	0
2	496798	91.61	0
2	497344	91.71	0
2	497890	91.81	0
2	498436	91.91	0
2	498990	92.01	0
2	499536	92.11	0
2	500082	92.21	0
2	500628	92.31	0
2	501174	92.41	0
2	501720	92.51	0
2	502266	92.61	0
2	502812	92.71	0
2	503358	92.81	0
2	503904	92.91	0
2	504458	93.01	0
2	505004	93.11	0
2	505550	93.21	0
2	506096	93.31	0
2	506642	93.41	0
2	507188	93.51	0
2	507734	93.61	0
2	508280	93.71	0
2	508826	93.81	0
2	509372	93.91	0
2	509926	94.01	0
2	510472	94.11	0
2	511018	94.21	0
2	511564	94.31	0
2	512110	94.41	0
2	512656	94.51	0
2	513202	94.61	0
2	513748	94.71	0
2	514294	94.81	0
2	514840	94.91	0
2	515394	95.01	0
2	515940	95.11	0
2	516486	95.21	0
2	517032	95.31	0
2	517578	95.41	0
2	518124	95.51	0
2	518670	95.61	0
2	519216	95.71	0
2	519762	95.81	0
2	520308	95.91	0
2	520862	96.01	0
2	521408	96.11	0
2	521954	96.21	0
2	522500	96.31	0
2	523046	96.41	0
2	523592	96.51	0
2	524138	96.61	0
2	524684	96.71	0
2	525230	96.81	0
2	525776	96.91	0
2	526330	97.01	0
2	526876	97.11	0
2	527422	97.21	0
2	527968	97.31	0
2	528514	97.41	0
2	529060	97.51	0
2	529606	97.61	0
2	530152	97.71	0
2	530698	97.81	0
2	531244	97.91	0
2	531798	98.01	0
2	532344	98.11	0
2	532890	98.21	0
2	533436	98.31	0
2	533982	98.41	0
2	534528	98.51	0
2	535074	98.61	0
2	535620	98.71	0
2	536166	98.81	0
2	536712	98.91	0
2	537266	99.01	0
2	537812	99.11	0
2	538358	99.21	0
2	538904	99.31	0
2	539450	99.41	0
2	539996	99.51	0
2	540542	99.61	0
2	541088	99.71	0
2	541634	99.81	0
2	542180	99.91	0
3	113	1.11	-0.000716383
3	659	1.21	-0.00136341
3	1205	1.31	-0.00186974
3	1751	1.41	-0.00225157
3	2297	1.51	-0.00252443
3	2843	1.61	-0.00270298
3	3389	1.71	-0.00280098
3	3935	1.81	-0.00283113
3	4481	1.91	-0.00280509
3	5035	2.01	-0.00273342
3	5581	2.11	-0.00262559
3	6127	2.21	-0.00249005
3	6673	2.31	-0.00233419
3	7219	2.41	-0.00216447
3	7765	2.51	-0.00198642
3	8311	2.61	-0.00180472
3	8857	2.71	-0.0016233
3	9403	2.81	-0.00144536
3	9949	2.91	-0.00127346
3	10503	3.01	-0.0011096
3	11049	3.11	-0.000955278
3	11595	3.21	-0.000811546
3	12141	3.31	-0.00067908
3	12687	3.41	-0.000558232
3	13233	3.51	-0.000449082
3	13779	3.61	-0.000351487
3	14325	3.71	-0.00026512
3	14871	3.81	-0.000189514
3	15417	3.91	-0.000124092
3	15971	4.01	-6.81972e-05
3	16517	4.11	-2.11209e-05
3	17063	4.21	1.78769e-05
3	17609	4.31	4.9548e-05
3	18155	4.41	7.46407e-05
3	18701	4.51	9.38867e-05
3	19247	4.61	0.000107991
3	19793	4.71	0.000117625
3	20339	4.81	0.000123418
3	20885	4.91	0.000125957
3	21439	5.01	0.000125781
3	21985	5.11	0.00012338
3	22531	5.21	0.000119198
3	23077	5.31	0.000113629
3	23623	5.41	0.000107022
3	24169	5.51	9.96832e-05
3	24715	5.61	9.18747e-05
3	25261	5.71	8.38211e-05
3	25807	5.81	7.57109e-05
3	26353	5.91	6.76999e-05
3	26907	6.01	5.99137e-05
3	27453	6.11	5.24518e-05
3	27999	6.21	4.53896e-05
3	28545	6.31	3.87821e-05
3	29091	6.41	3.2666e-05
3	29637	6.51	2.70628e-05
3	30183	6.61	2.19809e-05
3	30729	6.71	1.74176e-05
3	31275	6.81	1.33618e-05
3	31821	6.91	9.79494e-06
3	32375	7.01	6.6932e-06
3	32921	7.11	4.02864e-06
3	33467	7.21	1.77051e-06
3	34013	7.31	-1.13691e-07
3	34559	7.41	-1.65736e-06
3	35105	7.51	-2.89397e-06
3	35651	7.61	-3.85652e-06
3	36197	7.71	-4.57698e-06
3	36743	7.81	-5.08591e-06
3	37289	7.91	-5.41219e-06
3	37843	8.01	-5.58279e-06
3	38389	8.11	-5.6226e-06
3	38935	8.21	-5.55442e-06
3	39481	8.31	-5.39886e-06
3	40027	8.41	-5.17441e-06
3	40573	8.51	-4.89748e-06
3	41119	8.61	-4.58246e-06
3	41665	8.71	-4.24184e-06
3	42211	8.81	-3.88634e-06
3	42757	8.91	-3.52499e-06
3	43311	9.01	-3.16534e-06
3	43857	9.11	-2.81353e-06
3	44403	9.21	-2.47446e-06
3	44949	9.31	-2.15192e-06
3	45495	9.41	-1.84873e-06
3	46041	9.51	-1.56685e-06
3	46587	9.61	-1.30751e-06
3	47133	9.71	-1.0713e-06
3	47679	9.81	-8.58321e-07
3	48225	9.91	-6.68206e-07
3	50614	10.01	-5.0026e-07
3	51160	10.11	-3.53514e-07
3	51706	10.21	-2.2679e-07
3	52252	10.31	-1.18765e-07
3	52798	10.41	-2.80163e-08
3	53344	10.51	4.6931e-08
3	53890	10.61	1.07573e-07
3	54436	10.71	1.55391e-07
3	54982	10.81	1.91831e-07
3	55528	10.91	2.18284e-07
3	56082	11.01	2.3607e-07
3	56628	11.11	2.46427e-07
3	57174	11.21	2.50502e-07
3	57720	11.31	2.49353e-07
3	58266	11.41	2.43938e-07
3	58812	11.51	2.3512e-07
3	59358	11.61	2.23669e-07
3	59904	11.71	2.10264e-07
3	60450	11.81	1.95496e-07
3	60996	11.91	1.79874e-07
3	61550	12.01	1.63833e-07
3	62096	12.11	1.47736e-07
3	62642	12.21	1.3188e-07
3	63188	12.31	1.16508e-07
3	63734	12.41	1.01807e-07
3	64280	12.51	8.79222e-08
3	64826	12.61	7.49541e-08
3	65372	12.71	6.29711e-08
3	65918	12.81	5.20114e-08
3	66464	12.91	4.20883e-08
3	67018	13.01	3.3193e-08
3	67564	13.11	2.53003e-08
3	68110	13.21	1.83718e-08
3	68656	13.31	1.23581e-08
3	69202	13.41	7.20348e-09
3	69748	13.51	2.84537e-09
3	70294	13.61	-7.80886e-10
3	70840	13.71	-3.74136e-09
3	71386	13.81	-6.10285e-09
3	71932	13.91	-7.93072e-09
3	72486	14.01	-9.28821e-09
3	73032	14.11	-1.0235e-08
3	73578	14.21	-1.08283e-08
3	74124	14.31	-1.11211e-08
3	74670	14.41	-1.11612e-08
3	75216	14.51	-1.09946e-08
3	75762	14.61	-1.06599e-08
3	76308	14.71	-1.01945e-08
3	76854	14.81	-9.62999e-09
3	77400	14.91	-8.99405e-09
3	77954	15.01	-8.31086e-09
3	78500	15.11	-7.60103e-09
3	79046	15.21	-6.88338e-09
3	79592	15.31	-6.17071e-09
3	80138	15.41	-5.47544e-09
3	80684	15.51	-4.80682e-09
3	81230	15.61	-4.17266e-09
3	81776	15.71	-3.57687e-09
3	82322	15.81	-3.02443e-09
3	82868	15.91	-2.51674e-09
3	83422	16.01	-2.05489e-09
3	83968	16.11	-1.63958e-09
3	84514	16.21	-1.26903e-09
3	85060	16.31	-9.42535e-10
3	85606	16.41	-6.57963e-10
3	86152	16.51	-4.1247e-10
3	86698	16.61	-2.04636e-10
3	87244	16.71	-2.91323e-11
3	87790	16.81	1.14753e-10
3	88336	16.91	2.30926e-10
3	88890	17.01	3.22231e-10
3	89436	17.11	3.91154e-10
3	89982	17.21	4.40892e-10
3	90528	17.31	4.73577e-10
3	91074	17.41	4.92051e-10
3	91620	17.51	4.98446e-10
3	92166	17.61	4.94893e-10
3	92712	17.71	4.82814e-10
3	93258	17.81	4.6434e-10
3	93804	17.91	4.40892e-10
3	94358	18.01	4.13536e-10
3	94904	18.11	3.83693e-10
3	95450	18.21	3.51719e-10
3	95996	18.31	3.19744e-10
3	96542	18.41	2.8777e-10
3	97088	18.51	2.55795e-10
3	97634	18.61	2.25953e-10
3	98180	18.71	1.97531e-10
3	98726	18.81	1.6982e-10
3	99272	18.91	1.44951e-10
3	99826	19.01	1.21503e-10
3	100372	19.11	1.00187e-10
3	100918	19.21	8.10019e-11
3	101464	19.31	6.32383e-11
3	102010	19.41	4.86722e-11
3	102556	19.51	3.44613e-11
3	103102	19.61	2.34479e-11
3	103648	19.71	1.27898e-11
3	104194	19.81	4.9738e-12
3	104740	19.91	-2.13163e-12
3	105294	20.01	-8.17124e-12
3	105840	20.11	-1.1724e-11
3	106386	20.21	-1.52767e-11
3	106932	20.31	-1.88294e-11
3	107478	20.41	-2.02505e-11
3	108024	20.51	-2.02505e-11
3	108570	20.61	-2.02505e-11
3	109116	20.71	-2.02505e-11
3	109662	20.81	-2.02505e-11
3	110208	20.91	-2.02505e-11
3	110762	21.01	-2.02505e-11
3	111308	21.11	-2.02505e-11
3	111854	21.21	-2.02505e-11
3	112400	21.31	-1.88294e-11
3	112946	21.41	-1.7053e-11
3	113492	21.51	-1.52767e-11
3	114038	21.61	-1.38556e-11
3	114584	21.71	-1.24345e-11
3	115130	21.81	-1.13687e-11
3	115676	21.91	-1.03029e-11
3	116230	22.01	-9.23706e-12
3	116776	22.11	-8.52651e-12
3	117322	22.21	-7.4607e-12
3	117868	22.31	-6.75016e-12
3	118414	22.41	-6.03961e-12
3	118960	22.51	-5.68434e-12
3	119506	22.61	-4.9738e-12
3	120052	22.71	-4.61853e-12
3	120598	22.81	-4.26326e-12
3	121144	22.91	-3.90799e-12
3	121698	23.01	-3.55271e-12
3	122244	23.11	-3.19744e-12
3	122790	23.21	-2.84217e-12
3	123336	23.31	-2.4869e-12
3	123882	23.41	-2.13163e-12
3	124428	23.51	-2.13163e-12
3	124974	23.61	-1.77636e-12
3	125520	23.71	-1.77636e-12
3	126066	23.81	-1.42109e-12
3	126612	23.91	-1.42109e-12
3	127166	24.01	-1.06581e-12
3	127712	24.11	-1.06581e-12
3	128258	24.21	-1.06581e-12
3	128804	24.31	-1.06581e-12
3	129350	24.41	-7.10543e-13
3	129896	24.51	-7.10543e-13
3	130442	24.61	-7.10543e-13
3	130988	24.71	-7.10543e-13
3	131534	24.81	-7.10543e-13
3	132080	24.91	-3.55271e-13
3	132634	25.01	-3.55271e-13
3	133180	25.11	-3.55271e-13
3	133726	25.21	-3.55271e-13
3	134272	25.31	-3.55271e-13
3	134818	25.41	-3.55271e-13
3	135364	25.51	-3.55271e-13
3	135910	25.61	-3.55271e-13
3	136456	25.71	-3.55271e-13
3	137002	25.81	-3.55271e-13
3	137548	25.91	0
3	138102	26.01	0
3	138648	26.11	0
3	139194	26.21	0
3	139740	26.31	0
3	140286	26.41	0
3	140832	26.51	0
3	141378	26.61	0
3	141924	26.71	0
3	142470	26.81	0
3	143016	26.91	0
3	143570	27.01	0
3	144116	27.11	0
3	144662	27.21	0
3	145208	27.31	0
3	145754	27.41	0
3	146300	27.51	0
3	146846	27.61	0
3	147392	27.71	0
3	147938	27.81	0
3	148484	27.91	0
3	149038	28.01	0
3	149584	28.11	0
3	150130	28.21	0
3	150676	28.31	0
3	151222	28.41	0
3	151768	28.51	0
3	152314	28.61	0
3	152860	28.71	0
3	153406	28.81	0
3	153952	28.91	0
3	154506	29.01	0
3	155052	29.11	0
3	155598	29.21	0
3	156144	29.31	0
3	156690	29.41	0
3	157236	29.51	0
3	157782	29.61	0
3	158328	29.71	0
3	158874	29.81	0
3	159420	29.91	0
3	159974	30.01	0
3	160520	30.11	0
3	161066	30.21	0
3	161612	30.31	0
3	162158	30.41	0
3	162704	30.51	0
3	163250	30.61	0
3	163796	30.71	0
3	164342	30.81	0
3	164888	30.91	0
3	165442	31.01	0
3	165988	31.11	0
3	166534	31.21	0
3	167080	31.31	0
3	167626	31.41	0
3	168172	31.51	0
3	168718	31.61	0
3	169264	31.71	0
3	169810	31.81	0
3	170356	31.91	0
3	170910	32.01	0
3	171456	32.11	0
3	172002	32.21	0
3	172548	32.31	0
3	173094	32.41	0
3	173640	32.51	0
3	174186	32.61	0
3	174732	32.71	0
3	175278	32.81	0
3	175824	32.91	0
3	176378	33.01	0
3	176924	33.11	0
3	177470	33.21	0
3	178016	33.31	0
3	178562	33.41	0
3	179108	33.51	0
3	179654	33.61	0
3	180200	33.71	0
3	180746	33.81	0
3	181292	33.91	0
3	181846	34.01	0
3	182392	34.11	0
3	182938	34.21	0
3	183484	34.31	0
3	184030	34.41	0
3	184576	34.51	0
3	185122	34.61	0
3	185668	34.71	0
3	186214	34.81	0
3	186760	34.91	0
3	187314	35.01	0
3	187860	35.11	0
3	188406	35.21	0
3	188952	35.31	0
3	189498	35.41	0
3	190044	35.51	0
3	190590	35.61	0
3	191136	35.71	0
3	191682	35.81	0
3	192228	35.91	0
3	192782	36.01	0
3	193328	36.11	0
3	193874	36.21	0
3	194420	36.31	0
3	194966	36.41	0
3	195512	36.51	0
3	196058	36.61	0
3	196604	36.71	0
3	197150	36.81	0
3	197696	36.91	0
3	198250	37.01	0
3	198796	37.11	0
3	199342	37.21	0
3	199888	37.31	0
3	200434	37.41	0
3	200980	37.51	0
3	201526	37.61	0
3	202072	37.71	0
3	202618	37.81	0
3	203164	37.91	0
3	203718	38.01	0
3	204264	38.11	0
3	204810	38.21	0
3	205356	38.31	0
3	205902	38.41	0
3	206448	38.51	0
3	206994	38.61	0
3	207540	38.71	0
3	208086	38.81	0
3	208632	38.91	0
3	209186	39.01	0
3	209732	39.11	0
3	210278	39.21	0
3	210824	39.31	0
3	211370	39.41	0
3	211916	39.51	0
3	212462	39.61	0
3	213008	39.71	0
3	213554	39.81	0
3	214100	39.91	0
3	214654	40.01	0
3	215200	40.11	0
3	215746	40.21	0
3	216292	40.31	0
3	216838	40.41	0
3	217384	40.51	0
3	217930	40.61	0
3	218476	40.71	0
3	219022	40.81	0
3	219568	40.91	0
3	220122	41.01	0
3	220668	41.11	0
3	221214	41.21	0
3	221760	41.31	0
3	222306	41.41	0
3	222852	41.51	0
3	223398	41.61	0
3	223944	41.71	0
3	224490	41.81	0
3	225036	41.91	0
3	225590	42.01	0
3	226136	42.11	0
3	226682	42.21	0
3	227228	42.31	0
3	227774	42.41	0
3	228320	42.51	0
3	228866	42.61	0
3	229412	42.71	0
3	229958	42.81	0
3	230504	42.91	0
3	231058	43.01	0
3	231604	43.11	0
3	232150	43.21	0
3	232696	43.31	0
3	233242	43.41	0
3	233788	43.51	0
3	234334	43.61	0
3	234880	43.71	0
3	235426	43.81	0
3	235972	43.91	0
3	236526	44.01	0
3	237072	44.11	0
3	237618	44.21	0
3	238164	44.31	0
3	238710	44.41	0
3	239256	44.51	0
3	239802	44.61	0
3	240348	44.71	0
3	240894	44.81	0
3	241440	44.91	0
3	241994	45.01	0
3	242540	45.11	0
3	243086	45.21	0
3	243632	45.31	0
3	244178	45.41	0
3	244724	45.51	0
3	245270	45.61	0
3	245816	45.71	0
3	246362	45.81	0
3	246908	45.91	0
3	247462	46.01	0
3	248008	46.11	0
3	248554	46.21	0
3	249100	46.31	0
3	249646	46.41	0
3	250192	46.51	0
3	250738	46.61	0
3	251284	46.71	0
3	251830	46.81	0
3	252376	46.91	0
3	252930	47.01	0
3	253476	47.11	0
3	254022	47.21	0
3	254568	47.31	0
3	255114	47.41	0
3	255660	47.51	0
3	256206	47.61	0
3	256752	47.71	0
3	257298	47.81	0
3	257844	47.91	0
3	258398	48.01	0
3	258944	48.11	0
3	259490	48.21	0
3	260036	48.31	0
3	260582	48.41	0
3	261128	48.51	0
3	261674	48.61	0
3	262220	48.71	0
3	262766	48.81	0
3	263312	48.91	0
3	263866	49.01	0
3	264412	49.11	0
3	264958	49.21	0
3	265504	49.31	0
3	266050	49.41	0
3	266596	49.51	0
3	267142	49.61	0
3	267688	49.71	0
3	268234	49.81	0
3	268780	49.91	0
3	269334	50.01	0
3	269880	50.11	0
3	270426	50.21	0
3	270972	50.31	0
3	271518	50.41	0
3	272064	50.51	0
3	272610	50.61	0
3	273156	50.71	0
3	273702	50.81	0
3	274248	50.91	0
3	274802	51.01	0
3	275348	51.11	0
3	275894	51.21	0
3	276440	51.31	0
3	276986	51.41	0
3	277532	51.51	0
3	278078	51.61	0
3	278624	51.71	0
3	279170	51.81	0
3	279716	51.91	0
3	280270	52.01	0
3	280816	52.11	0
3	281362	52.21	0
3	281908	52.31	0
3	282454	52.41	0
3	283000	52.51	0
3	283546	52.61	0
3	284092	52.71	0
3	284638	52.81	0
3	285184	52.91	0
3	285738	53.01	0
3	286284	53.11	0
3	286830	53.21	0
3	287376	53.31	0
3	287922	53.41	0
3	288468	53.51	0
3	289014	53.61	0
3	289560	53.71	0
3	290106	53.81	0
3	290652	53.91	0
3	291206	54.01	0
3	291752	54.11	0
3	292298	54.21	0
3	292844	54.31	0
3	293390	54.41	0
3	293936	54.51	0
3	294482	54.61	0
3	295028	54.71	0
3	295574	54.81	0
3	296120	54.91	0
3	296674	55.01	0
3	297220	55.11	0
3	297766	55.21	0
3	298312	55.31	0
3	298858	55.41	0
3	299404	55.51	0
3	299950	55.61	0
3	300496	55.71	0
3	301042	55.81	0
3	301588	55.91	0
3	302142	56.01	0
3	302688	56.11	0
3	303234	56.21	0
3	303780	56.31	0
3	304326	56.41	0
3	304872	56.51	0
3	305418	56.61	0
3	305964	56.71	0
3	306510	56.81	0
3	307056	56.91	0
3	307610	57.01	0
3	308156	57.11	0
3	308702	57.21	0
3	309248	57.31	0
3	309794	57.41	0
3	310340	57.51	0
3	310886	57.61	0
3	311432	57.71	0
3	311978	57.81	0
3	312524	57.91	0
3	313078	58.01	0
3	313624	58.11	0
3	314170	58.21	0
3	314716	58.31	0
3	315262	58.41	0
3	315808	58.51	0
3	316354	58.61	0
3	316900	58.71	0
3	317446	58.81	0
3	317992	58.91	0
3	318546	59.01	0
3	319092	59.11	0
3	319638	59.21	0
3	320184	59.31	0
3	320730	59.41	0
3	321276	59.51	0
3	321822	59.61	0
3	322368	59.71	0
3	322914	59.81	0
3	323460	59.91	0
3	324014	60.01	0
3	324560	60.11	0
3	325106	60.21	0
3	325652	60.31	0
3	326198	60.41	0
3	326744	60.51	0
3	327290	60.61	0
3	327836	60.71	0
3	328382	60.81	0
3	328928	60.91	0
3	329482	61.01	0
3	330028	61.11	0
3	330574	61.21	0
3	331120	61.31	0
3	331666	61.41	0
3	332212	61.51	0
3	332758	61.61	0
3	333304	61.71	0
3	333850	61.81	0
3	334396	61.91	0
3	334950	62.01	0
3	335496	62.11	0
3	336042	62.21	0
3	336588	62.31	0
3	337134	62.41	0
3	337680	62.51	0
3	338226	62.61	0
3	338772	62.71	0
3	339318	62.81	0
3	339864	62.91	0
3	340418	63.01	0
3	340964	63.11	0
3	341510	63.21	0
3	342056	63.31	0
3	342602	63.41	0
3	343148	63.51	0
3	343694	63.61	0
3	344240	63.71	0
3	344786	63.81	0
3	345332	63.91	0
3	345886	64.01	0
3	346432	64.11	0
3	346978	64.21	0
3	347524	64.31	0
3	348070	64.41	0
3	348616	64.51	0
3	349162	64.61	0
3	349708	64.71	0
3	350254	64.81	0
3	350800	64.91	0
3	351354	65.01	0
3	351900	65.11	0
3	352446	65.21	0
3	352992	65.31	0
3	353538	65.41	0
3	354084	65.51	0
3	354630	65.61	0
3	355176	65.71	0
3	355722	65.81	0
3	356268	65.91	0
3	356822	66.01	0
3	357368	66.11	0
[...]
104	395027	73	4
104	400495	74	4
104	405963	75	4
104	411431	76	4
104	416899	77	4
104	422367	78	4
104	427835	79	4
104	433303	80	4
104	438771	81	4
104	444239	82	4
104	449707	83	4
104	455175	84	4
104	460643	85	4
104	466111	86	4
104	471579	87	4
104	477047	88	4
104	482515	89	4
104	487983	90	4
104	493451	91	4
104	498919	92	4
104	504387	93	4
104	509855	94	4
104	515323	95	4
104	520791	96	4
104	526259	97	4
104	531727	98	4
104	537195	99	4
104	542663	100	4
105	4964	2	0.022161
105	10432	3	0.02497
105	15900	4	0.02497
105	21368	5	0.02497
105	26836	6	0.02497
105	32304	7	0.02497
105	37772	8	0.02497
105	43240	9	0.02497
105	48709	10	0.02497
105	56011	11	0.027045280179
105	61479	12	0.02497
105	66947	13	0.02497
105	72415	14	0.02497
105	77883	15	0.02497
105	83351	16	0.02497
105	88819	17	0.02497
105	94287	18	0.02497
105	99755	19	0.02497
105	105223	20	0.02497
105	110691	21	0.02497
105	116159	22	0.02497
105	121627	23	0.02497
105	127095	24	0.02497
105	132563	25	0.02497
105	138031	26	0.02497
105	143499	27	0.02497
105	148967	28	0.02497
105	154435	29	0.02497
105	159903	30	0.02497
105	165371	31	0.02497
105	170839	32	0.02497
105	176307	33	0.02497
105	181775	34	0.02497
105	187243	35	0.02497
105	192711	36	0.02497
105	198179	37	0.02497
105	203647	38	0.02497
105	209115	39	0.02497
105	214583	40	0.02497
105	220051	41	0.02497
105	225519	42	0.02497
105	230987	43	0.02497
105	236455	44	0.02497
105	241923	45	0.02497
105	247391	46	0.02497
105	252859	47	0.02497
105	258327	48	0.02497
105	263795	49	0.02497
105	269263	50	0.02497
105	274731	51	0.02497
105	280199	52	0.02497
105	285667	53	0.02497
105	291135	54	0.02497
105	296603	55	0.02497
105	302071	56	0.02497
105	307539	57	0.02497
105	313007	58	0.02497
105	318475	59	0.02497
105	323943	60	0.02497
105	329411	61	0.02497
105	334879	62	0.02497
105	340347	63	0.02497
105	345815	64	0.02497
105	351283	65	0.02497
105	356751	66	0.02497
105	362219	67	0.02497
105	367687	68	0.02497
105	373155	69	0.02497
105	378623	70	0.02497
105	384091	71	0.02497
105	389559	72	0.02497
105	395027	73	0.02497
105	400495	74	0.02497
105	405963	75	0.02497
105	411431	76	0.02497
105	416899	77	0.02497
105	422367	78	0.02497
105	427835	79	0.02497
105	433303	80	0.02497
105	438771	81	0.02497
105	444239	82	0.02497
105	449707	83	0.02497
105	455175	84	0.02497
105	460643	85	0.02497
105	466111	86	0.02497
105	471579	87	0.02497
105	477047	88	0.02497
105	482515	89	0.02497
105	487983	90	0.02497
105	493451	91	0.02497
105	498919	92	0.02497
105	504387	93	0.02497
105	509855	94	0.02497
105	515323	95	0.02497
105	520791	96	0.02497
105	526259	97	0.02497
105	531727	98	0.02497
105	537195	99	0.02497
105	542663	100	0.02497
106	4964	2	0
106	10432	3	0
106	15900	4	0
106	21368	5	0
106	26836	6	0
106	32304	7	0
106	37772	8	0
106	43240	9	0
106	48709	10	0
106	56011	11	0
106	61479	12	0
106	66947	13	0
106	72415	14	0
106	77883	15	0
106	83351	16	0
106	88819	17	0
106	94287	18	0
106	99755	19	0
106	105223	20	0
106	110691	21	0
106	116159	22	0
106	121627	23	0
106	127095	24	0
106	132563	25	0
106	138031	26	0
106	143499	27	0
106	148967	28	0
106	154435	29	0
106	159903	30	0
106	165371	31	0
106	170839	32	0
106	176307	33	0
106	181775	34	0
106	187243	35	0
106	192711	36	0
106	198179	37	0
106	203647	38	0
106	209115	39	0
106	214583	40	0
106	220051	41	0
106	225519	42	0
106	230987	43	0
106	236455	44	0
106	241923	45	0
106	247391	46	0
106	252859	47	0
106	258327	48	0
106	263795	49	0
106	269263	50	0
106	274731	51	0
106	280199	52	0
106	285667	53	0
106	291135	54	0
106	296603	55	0
106	302071	56	0
106	307539	57	0
106	313007	58	0
106	318475	59	0
106	323943	60	0
106	329411	61	0
106	334879	62	0
106	340347	63	0
106	345815	64	0
106	351283	65	0
106	356751	66	0
106	362219	67	0
106	367687	68	0
106	373155	69	0
106	378623	70	0
106	384091	71	0
106	389559	72	0
106	395027	73	0
106	400495	74	0
106	405963	75	0
106	411431	76	0
106	416899	77	0
106	422367	78	0
106	427835	79	0
106	433303	80	0
106	438771	81	0
106	444239	82	0
106	449707	83	0
106	455175	84	0
106	460643	85	0
106	466111	86	0
106	471579	87	0
106	477047	88	0
106	482515	89	0
106	487983	90	0
106	493451	91	0
106	498919	92	0
106	504387	93	0
106	509855	94	0
106	515323	95	0
106	520791	96	0
106	526259	97	0
106	531727	98	0
106	537195	99	0
106	542663	100	0
107	4965	2	5
107	10433	3	5
107	15901	4	5
107	21369	5	5
107	26837	6	5
107	32305	7	5
107	37773	8	5
107	43241	9	5
107	48710	10	5
107	56012	11	5
107	61480	12	5
107	66948	13	5
107	72416	14	5
107	77884	15	5
107	83352	16	5
107	88820	17	5
107	94288	18	5
107	99756	19	5
107	105224	20	5
107	110692	21	5
107	116160	22	5
107	121628	23	5
107	127096	24	5
107	132564	25	5
107	138032	26	5
107	143500	27	5
107	148968	28	5
107	154436	29	5
107	159904	30	5
107	165372	31	5
107	170840	32	5
107	176308	33	5
107	181776	34	5
107	187244	35	5
107	192712	36	5
107	198180	37	5
107	203648	38	5
107	209116	39	5
107	214584	40	5
107	220052	41	5
107	225520	42	5
107	230988	43	5
107	236456	44	5
107	241924	45	5
107	247392	46	5
107	252860	47	5
107	258328	48	5
107	263796	49	5
107	269264	50	5
107	274732	51	5
107	280200	52	5
107	285668	53	5
107	291136	54	5
107	296604	55	5
107	302072	56	5
107	307540	57	5
107	313008	58	5
107	318476	59	5
107	323944	60	5
107	329412	61	5
107	334880	62	5
107	340348	63	5
107	345816	64	5
107	351284	65	5
107	356752	66	5
107	362220	67	5
107	367688	68	5
107	373156	69	5
107	378624	70	5
107	384092	71	5
107	389560	72	5
107	395028	73	5
107	400496	74	5
107	405964	75	5
107	411432	76	5
107	416900	77	5
107	422368	78	5
107	427836	79	5
107	433304	80	5
107	438772	81	5
107	444240	82	5
107	449708	83	5
107	455176	84	5
107	460644	85	5
107	466112	86	5
107	471580	87	5
107	477048	88	5
107	482516	89	5
107	487984	90	5
107	493452	91	5
107	498920	92	5
107	504388	93	5
107	509856	94	5
107	515324	95	5
107	520792	96	5
107	526260	97	5
107	531728	98	5
107	537196	99	5
107	542664	100	5
108	4965	2	0.022161
108	10433	3	0.02497
108	15901	4	0.02497
108	21369	5	0.02497
108	26837	6	0.02497
108	32305	7	0.02497
108	37773	8	0.02497
108	43241	9	0.02497
108	48710	10	0.02497
108	56012	11	0.02704528018
108	61480	12	0.02497
108	66948	13	0.02497
108	72416	14	0.02497
108	77884	15	0.02497
108	83352	16	0.02497
108	88820	17	0.02497
108	94288	18	0.02497
108	99756	19	0.02497
108	105224	20	0.02497
108	110692	21	0.02497
108	116160	22	0.02497
108	121628	23	0.02497
108	127096	24	0.02497
108	132564	25	0.02497
108	138032	26	0.02497
108	143500	27	0.02497
108	148968	28	0.02497
108	154436	29	0.02497
108	159904	30	0.02497
108	165372	31	0.02497
108	170840	32	0.02497
108	176308	33	0.02497
108	181776	34	0.02497
108	187244	35	0.02497
108	192712	36	0.02497
108	198180	37	0.02497
108	203648	38	0.02497
108	209116	39	0.02497
108	214584	40	0.02497
108	220052	41	0.02497
108	225520	42	0.02497
108	230988	43	0.02497
108	236456	44	0.02497
108	241924	45	0.02497
108	247392	46	0.02497
108	252860	47	0.02497
108	258328	48	0.02497
108	263796	49	0.02497
108	269264	50	0.02497
108	274732	51	0.02497
108	280200	52	0.02497
108	285668	53	0.02497
108	291136	54	0.02497
108	296604	55	0.02497
108	302072	56	0.02497
108	307540	57	0.02497
108	313008	58	0.02497
108	318476	59	0.02497
108	323944	60	0.02497
108	329412	61	0.02497
108	334880	62	0.02497
108	340348	63	0.02497
108	345816	64	0.02497
108	351284	65	0.02497
108	356752	66	0.02497
108	362220	67	0.02497
108	367688	68	0.02497
108	373156	69	0.02497
108	378624	70	0.02497
108	384092	71	0.02497
108	389560	72	0.02497
108	395028	73	0.02497
108	400496	74	0.02497
108	405964	75	0.02497
108	411432	76	0.02497
108	416900	77	0.02497
108	422368	78	0.02497
108	427836	79	0.02497
108	433304	80	0.02497
108	438772	81	0.02497
108	444240	82	0.02497
108	449708	83	0.02497
108	455176	84	0.02497
108	460644	85	0.02497
108	466112	86	0.02497
108	471580	87	0.02497
108	477048	88	0.02497
108	482516	89	0.02497
108	487984	90	0.02497
108	493452	91	0.02497
108	498920	92	0.02497
108	504388	93	0.02497
108	509856	94	0.02497
108	515324	95	0.02497
108	520792	96	0.02497
108	526260	97	0.02497
108	531728	98	0.02497
108	537196	99	0.02497
108	542664	100	0.02497
109	4965	2	0
109	10433	3	0
109	15901	4	0
109	21369	5	0
109	26837	6	0
109	32305	7	0
109	37773	8	0
109	43241	9	0
109	48710	10	0
109	56012	11	0
109	61480	12	0
109	66948	13	0
109	72416	14	0
109	77884	15	0
109	83352	16	0
109	88820	17	0
109	94288	18	0
109	99756	19	0
109	105224	20	0
109	110692	21	0
109	116160	22	0
109	121628	23	0
109	127096	24	0
109	132564	25	0
109	138032	26	0
109	143500	27	0
109	148968	28	0
109	154436	29	0
109	159904	30	0
109	165372	31	0
109	170840	32	0
109	176308	33	0
109	181776	34	0
109	187244	35	0
109	192712	36	0
109	198180	37	0
109	203648	38	0
109	209116	39	0
109	214584	40	0
109	220052	41	0
109	225520	42	0
109	230988	43	0
109	236456	44	0
109	241924	45	0
109	247392	46	0
109	252860	47	0
109	258328	48	0
109	263796	49	0
109	269264	50	0
109	274732	51	0
109	280200	52	0
109	285668	53	0
109	291136	54	0
109	296604	55	0
109	302072	56	0
109	307540	57	0
109	313008	58	0
109	318476	59	0
109	323944	60	0
109	329412	61	0
109	334880	62	0
109	340348	63	0
109	345816	64	0
109	351284	65	0
109	356752	66	0
109	362220	67	0
109	367688	68	0
109	373156	69	0
109	378624	70	0
109	384092	71	0
109	389560	72	0
109	395028	73	0
109	400496	74	0
109	405964	75	0
109	411432	76	0
109	416900	77	0
109	422368	78	0
109	427836	79	0
109	433304	80	0
109	438772	81	0
109	444240	82	0
109	449708	83	0
109	455176	84	0
109	460644	85	0
109	466112	86	0
109	471580	87	0
109	477048	88	0
109	482516	89	0
109	487984	90	0
109	493452	91	0
109	498920	92	0
109	504388	93	0
109	509856	94	0
109	515324	95	0
109	520792	96	0
109	526260	97	0
109	531728	98	0
109	537196	99	0
109	542664	100	0
110	4966	2	6
110	10434	3	6
110	15902	4	6
110	21370	5	6
110	26838	6	6
110	32306	7	6
110	37774	8	6
110	43242	9	6
110	48711	10	6
110	56013	11	6
110	61481	12	6
110	66949	13	6
110	72417	14	6
110	77885	15	6
110	83353	16	6
110	88821	17	6
110	94289	18	6
110	99757	19	6
110	105225	20	6
110	110693	21	6
110	116161	22	6
110	121629	23	6
110	127097	24	6
110	132565	25	6
110	138033	26	6
110	143501	27	6
110	148969	28	6
110	154437	29	6
110	159905	30	6
110	165373	31	6
110	170841	32	6
110	176309	33	6
110	181777	34	6
110	187245	35	6
110	192713	36	6
110	198181	37	6
110	203649	38	6
110	209117	39	6
110	214585	40	6
110	220053	41	6
110	225521	42	6
110	230989	43	6
110	236457	44	6
110	241925	45	6
110	247393	46	6
110	252861	47	6
110	258329	48	6
110	263797	49	6
110	269265	50	6
110	274733	51	6
110	280201	52	6
110	285669	53	6
110	291137	54	6
110	296605	55	6
110	302073	56	6
110	307541	57	6
110	313009	58	6
110	318477	59	6
110	323945	60	6
110	329413	61	6
110	334881	62	6
110	340349	63	6
110	345817	64	6
110	351285	65	6
110	356753	66	6
110	362221	67	6
110	367689	68	6
110	373157	69	6
110	378625	70	6
110	384093	71	6
110	389561	72	6
110	395029	73	6
110	400497	74	6
110	405965	75	6
110	411433	76	6
110	416901	77	6
110	422369	78	6
110	427837	79	6
110	433305	80	6
110	438773	81	6
110	444241	82	6
110	449709	83	6
110	455177	84	6
110	460645	85	6
110	466113	86	6
110	471581	87	6
110	477049	88	6
110	482517	89	6
110	487985	90	6
110	493453	91	6
110	498921	92	6
110	504389	93	6
110	509857	94	6
110	515325	95	6
110	520793	96	6
110	526261	97	6
110	531729	98	6
110	537197	99	6
110	542665	100	6
111	4966	2	0.022161
111	10434	3	0.02497
111	15902	4	0.02497
111	21370	5	0.02497
111	26838	6	0.02497
111	32306	7	0.02497
111	37774	8	0.02497
111	43242	9	0.02497
111	48711	10	0.02497
111	56013	11	0.026890240152
111	61481	12	0.02497
111	66949	13	0.02497
111	72417	14	0.02497
111	77885	15	0.02497
111	83353	16	0.02497
111	88821	17	0.02497
111	94289	18	0.02497
111	99757	19	0.02497
111	105225	20	0.02497
111	110693	21	0.02497
111	116161	22	0.02497
111	121629	23	0.02497
111	127097	24	0.02497
111	132565	25	0.02497
111	138033	26	0.02497
111	143501	27	0.02497
111	148969	28	0.02497
111	154437	29	0.02497
111	159905	30	0.02497
111	165373	31	0.02497
111	170841	32	0.02497
111	176309	33	0.02497
111	181777	34	0.02497
111	187245	35	0.02497
111	192713	36	0.02497
111	198181	37	0.02497
111	203649	38	0.02497
111	209117	39	0.02497
111	214585	40	0.02497
111	220053	41	0.02497
111	225521	42	0.02497
111	230989	43	0.02497
111	236457	44	0.02497
111	241925	45	0.02497
111	247393	46	0.02497
111	252861	47	0.02497
111	258329	48	0.02497
111	263797	49	0.02497
111	269265	50	0.02497
111	274733	51	0.02497
111	280201	52	0.02497
111	285669	53	0.02497
111	291137	54	0.02497
111	296605	55	0.02497
111	302073	56	0.02497
111	307541	57	0.02497
111	313009	58	0.02497
111	318477	59	0.02497
111	323945	60	0.02497
111	329413	61	0.02497
111	334881	62	0.02497
111	340349	63	0.02497
111	345817	64	0.02497
111	351285	65	0.02497
111	356753	66	0.02497
111	362221	67	0.02497
111	367689	68	0.02497
111	373157	69	0.02497
111	378625	70	0.02497
111	384093	71	0.02497
111	389561	72	0.02497
111	395029	73	0.02497
111	400497	74	0.02497
111	405965	75	0.02497
111	411433	76	0.02497
111	416901	77	0.02497
111	422369	78	0.02497
111	427837	79	0.02497
111	433305	80	0.02497
111	438773	81	0.02497
111	444241	82	0.02497
111	449709	83	0.02497
111	455177	84	0.02497
111	460645	85	0.02497
111	466113	86	0.02497
111	471581	87	0.02497
111	477049	88	0.02497
111	482517	89	0.02497
111	487985	90	0.02497
111	493453	91	0.02497
111	498921	92	0.02497
111	504389	93	0.02497
111	509857	94	0.02497
111	515325	95	0.02497
111	520793	96	0.02497
111	526261	97	0.02497
111	531729	98	0.02497
111	537197	99	0.02497
111	542665	100	0.02497
112	4966	2	0
112	10434	3	0
112	15902	4	0
112	21370	5	0
112	26838	6	0
112	32306	7	0
112	37774	8	0
112	43242	9	0
112	48711	10	0
112	56013	11	0
112	61481	12	0
112	66949	13	0
112	72417	14	0
112	77885	15	0
112	83353	16	0
112	88821	17	0
112	94289	18	0
112	99757	19	0
112	105225	20	0
112	110693	21	0
112	116161	22	0
112	121629	23	0
112	127097	24	0
112	132565	25	0
112	138033	26	0
112	143501	27	0
112	148969	28	0
112	154437	29	0
112	159905	30	0
112	165373	31	0
112	170841	32	0
112	176309	33	0
112	181777	34	0
112	187245	35	0
112	192713	36	0
112	198181	37	0
112	203649	38	0
112	209117	39	0
112	214585	40	0
112	220053	41	0
112	225521	42	0
112	230989	43	0
112	236457	44	0
112	241925	45	0
112	247393	46	0
112	252861	47	0
112	258329	48	0
112	263797	49	0
112	269265	50	0
112	274733	51	0
112	280201	52	0
112	285669	53	0
112	291137	54	0
112	296605	55	0
112	302073	56	0
112	307541	57	0
112	313009	58	0
112	318477	59	0
112	323945	60	0
112	329413	61	0
112	334881	62	0
112	340349	63	0
112	345817	64	0
112	351285	65	0
112	356753	66	0
112	362221	67	0
112	367689	68	0
112	373157	69	0
112	378625	70	0
112	384093	71	0
112	389561	72	0
112	395029	73	0
112	400497	74	0
112	405965	75	0
112	411433	76	0
112	416901	77	0
112	422369	78	0
112	427837	79	0
112	433305	80	0
112	438773	81	0
112	444241	82	0
112	449709	83	0
112	455177	84	0
112	460645	85	0
112	466113	86	0
112	471581	87	0
112	477049	88	0
112	482517	89	0
112	487985	90	0
112	493453	91	0
112	498921	92	0
112	504389	93	0
112	509857	94	0
112	515325	95	0
112	520793	96	0
112	526261	97	0
112	531729	98	0
112	537197	99	0
112	542665	100	0
113	4967	2	7
113	10435	3	7
113	15903	4	7
113	21371	5	7
113	26839	6	7
113	32307	7	7
113	37775	8	7
113	43243	9	7
113	48712	10	7
113	56014	11	7
113	61482	12	7
113	66950	13	7
113	72418	14	7
113	77886	15	7
113	83354	16	7
113	88822	17	7
113	94290	18	7
113	99758	19	7
113	105226	20	7
113	110694	21	7
113	116162	22	7
113	121630	23	7
113	127098	24	7
113	132566	25	7
113	138034	26	7
113	143502	27	7
113	148970	28	7
113	154438	29	7
113	159906	30	7
113	165374	31	7
113	170842	32	7
113	176310	33	7
113	181778	34	7
113	187246	35	7
113	192714	36	7
113	198182	37	7
113	203650	38	7
113	209118	39	7
113	214586	40	7
113	220054	41	7
113	225522	42	7
113	230990	43	7
113	236458	44	7
113	241926	45	7
113	247394	46	7
113	252862	47	7
113	258330	48	7
113	263798	49	7
113	269266	50	7
113	274734	51	7
113	280202	52	7
113	285670	53	7
113	291138	54	7
113	296606	55	7
113	302074	56	7
113	307542	57	7
113	313010	58	7
113	318478	59	7
113	323946	60	7
113	329414	61	7
113	334882	62	7
113	340350	63	7
113	345818	64	7
113	351286	65	7
113	356754	66	7
113	362222	67	7
113	367690	68	7
113	373158	69	7
113	378626	70	7
113	384094	71	7
113	389562	72	7
113	395030	73	7
113	400498	74	7
113	405966	75	7
113	411434	76	7
113	416902	77	7
113	422370	78	7
113	427838	79	7
113	433306	80	7
113	438774	81	7
113	444242	82	7
113	449710	83	7
113	455178	84	7
113	460646	85	7
113	466114	86	7
113	471582	87	7
113	477050	88	7
113	482518	89	7
113	487986	90	7
113	493454	91	7
113	498922	92	7
113	504390	93	7
113	509858	94	7
113	515326	95	7
113	520794	96	7
113	526262	97	7
113	531730	98	7
113	537198	99	7
113	542666	100	7
114	4967	2	0.022161
114	10435	3	0.02497
114	15903	4	0.02497
114	21371	5	0.02497
114	26839	6	0.02497
114	32307	7	0.02497
114	37775	8	0.02497
114	43243	9	0.02497
114	48712	10	0.02497
114	56014	11	0.02689028018
114	61482	12	0.02497
114	66950	13	0.02497
114	72418	14	0.02497
114	77886	15	0.02497
114	83354	16	0.02497
114	88822	17	0.02497
114	94290	18	0.02497
114	99758	19	0.02497
114	105226	20	0.02497
114	110694	21	0.02497
114	116162	22	0.02497
114	121630	23	0.02497
114	127098	24	0.02497
114	132566	25	0.02497
114	138034	26	0.02497
114	143502	27	0.02497
114	148970	28	0.02497
114	154438	29	0.02497
114	159906	30	0.02497
114	165374	31	0.02497
114	170842	32	0.02497
114	176310	33	0.02497
114	181778	34	0.02497
114	187246	35	0.02497
114	192714	36	0.02497
114	198182	37	0.02497
114	203650	38	0.02497
114	209118	39	0.02497
114	214586	40	0.02497
114	220054	41	0.02497
114	225522	42	0.02497
114	230990	43	0.02497
114	236458	44	0.02497
114	241926	45	0.02497
114	247394	46	0.02497
114	252862	47	0.02497
114	258330	48	0.02497
114	263798	49	0.02497
114	269266	50	0.02497
114	274734	51	0.02497
114	280202	52	0.02497
114	285670	53	0.02497
114	291138	54	0.02497
114	296606	55	0.02497
114	302074	56	0.02497
114	307542	57	0.02497
114	313010	58	0.02497
114	318478	59	0.02497
114	323946	60	0.02497
114	329414	61	0.02497
114	334882	62	0.02497
114	340350	63	0.02497
114	345818	64	0.02497
114	351286	65	0.02497
114	356754	66	0.02497
114	362222	67	0.02497
114	367690	68	0.02497
114	373158	69	0.02497
114	378626	70	0.02497
114	384094	71	0.02497
114	389562	72	0.02497
114	395030	73	0.02497
114	400498	74	0.02497
114	405966	75	0.02497
114	411434	76	0.02497
114	416902	77	0.02497
114	422370	78	0.02497
114	427838	79	0.02497
114	433306	80	0.02497
114	438774	81	0.02497
114	444242	82	0.02497
114	449710	83	0.02497
114	455178	84	0.02497
114	460646	85	0.02497
114	466114	86	0.02497
114	471582	87	0.02497
114	477050	88	0.02497
114	482518	89	0.02497
114	487986	90	0.02497
114	493454	91	0.02497
114	498922	92	0.02497
114	504390	93	0.02497
114	509858	94	0.02497
114	515326	95	0.02497
114	520794	96	0.02497
114	526262	97	0.02497
114	531730	98	0.02497
114	537198	99	0.02497
114	542666	100	0.02497
115	4967	2	0
115	10435	3	0
115	15903	4	0
115	21371	5	0
115	26839	6	0
115	32307	7	0
115	37775	8	0
115	43243	9	0
115	48712	10	0
115	56014	11	0
115	61482	12	0
115	66950	13	0
115	72418	14	0
115	77886	15	0
115	83354	16	0
115	88822	17	0
115	94290	18	0
115	99758	19	0
115	105226	20	0
115	110694	21	0
115	116162	22	0
115	121630	23	0
115	127098	24	0
115	132566	25	0
115	138034	26	0
115	143502	27	0
115	148970	28	0
115	154438	29	0
115	159906	30	0
115	165374	31	0
115	170842	32	0
115	176310	33	0
115	181778	34	0
115	187246	35	0
115	192714	36	0
115	198182	37	0
115	203650	38	0
115	209118	39	0
115	214586	40	0
115	220054	41	0
115	225522	42	0
115	230990	43	0
115	236458	44	0
115	241926	45	0
115	247394	46	0
115	252862	47	0
115	258330	48	0
115	263798	49	0
115	269266	50	0
115	274734	51	0
115	280202	52	0
115	285670	53	0
115	291138	54	0
115	296606	55	0
115	302074	56	0
115	307542	57	0
115	313010	58	0
115	318478	59	0
115	323946	60	0
115	329414	61	0
115	334882	62	0
115	340350	63	0
115	345818	64	0
115	351286	65	0
115	356754	66	0
115	362222	67	0
115	367690	68	0
115	373158	69	0
115	378626	70	0
115	384094	71	0
115	389562	72	0
115	395030	73	0
115	400498	74	0
115	405966	75	0
115	411434	76	0
115	416902	77	0
115	422370	78	0
115	427838	79	0
115	433306	80	0
115	438774	81	0
115	444242	82	0
115	449710	83	0
115	455178	84	0
115	460646	85	0
115	466114	86	0
115	471582	87	0
115	477050	88	0
115	482518	89	0
115	487986	90	0
115	493454	91	0
115	498922	92	0
115	504390	93	0
115	509858	94	0
115	515326	95	0
115	520794	96	0
115	526262	97	0
115	531730	98	0
115	537198	99	0
115	542666	100	0

