version 3
run BreakRanksNoGui-20-20240710-05:35:49-231359
attr configname BreakRanksNoGui
attr datetime 20240710-05:35:49
attr datetimef 20240710-053549
attr experiment BreakRanksNoGui
attr inifile omnetpp.ini
attr iterationvars "$nCars=8, $platoonSize=8, $nLanes=1, $ploegH=0.5, $controller=1, $headway=0.1, $leaderHeadway=1.2, $leaderSpeed=110, $breakRanksSafetyDistance=2, $minSpeed=100, $maxSpeed=120, $beaconInterval=0.1, $priority=4, $packetSize=200, $sController=\"CACC\", $0=2, $1=0"
attr iterationvarsd nCars=8/platoonSize=8/nLanes=1/ploegH=0.5/controller=1/headway=0.1/leaderHeadway=1.2/leaderSpeed=110/breakRanksSafetyDistance=2/minSpeed=100/maxSpeed=120/beaconInterval=0.1/priority=4/packetSize=200/sController=CACC/2/0
attr iterationvarsf nCars=8,platoonSize=8,nLanes=1,ploegH=0.5,controller=1,headway=0.1,leaderHeadway=1.2,leaderSpeed=110,breakRanksSafetyDistance=2,minSpeed=100,maxSpeed=120,beaconInterval=0.1,priority=4,packetSize=200,sController=CACC,2,0-
attr measurement "$nCars=8, $platoonSize=8, $nLanes=1, $ploegH=0.5, $controller=1, $headway=0.1, $leaderHeadway=1.2, $leaderSpeed=110, $breakRanksSafetyDistance=2, $minSpeed=100, $maxSpeed=120, $beaconInterval=0.1, $priority=4, $packetSize=200, $sController=\"CACC\", $0=2, $1=0"
attr network Highway
attr processid 231359
attr repetition 0
attr replication #0
attr resultdir results
attr runnumber 20
attr seedset 0
itervar beaconInterval 0.1
itervar breakRanksSafetyDistance 2
itervar controller 1
itervar headway 0.1
itervar leaderHeadway 1.2
itervar leaderSpeed 110
itervar maxSpeed 120
itervar minSpeed 100
itervar nCars 8
itervar nLanes 1
itervar packetSize 200
itervar platoonSize 8
itervar ploegH 0.5
itervar priority 4
itervar sController "\"CACC\""
config image-path ../../../veins/images
config repeat 10
config extends BreakRanks
config *.manager.command "\"sumo\""
config *.manager.ignoreGuiCommands true
config output-vector-file results/BreakRanks_1_0.1_110_2/result_0.vec
config output-scalar-file results/BreakRanks_1_0.1_110_2/result_0.sca
config extends Platooning
config *.node[*].scenario_type "\"BreakRanksScenario\""
config *.manager.command "\"sumo-gui\""
config *.node[*].scenario_type "\"SimpleScenario\""
config cmdenv-express-mode true
config cmdenv-autoflush true
config cmdenv-status-frequency 15s
config num-rngs 6
config network Highway
config debug-on-errors true
config print-undisposed true
config *.playgroundSizeX 65000m
config *.playgroundSizeY 25000m
config *.playgroundSizeZ 50m
config sim-time-limit "100 s"
config *.annotations.draw false
config *.obstacles.debug false
config *.world.useTorus false
config *.world.use2D false
config *.manager.updateInterval 0.01s
config *.manager.host "\"localhost\""
config *.manager.moduleType "\"org.car2x.plexe.PlatoonCar\""
config *.manager.moduleName "\"node\""
config *.manager.moduleDisplayString "\"\""
config *.manager.autoShutdown true
config *.manager.margin 25
config *.connectionManager.sendDirect true
config *.connectionManager.maxInterfDist 2600m
config *.connectionManager.drawMaxIntfDist false
config *.**.nic.mac1609_4.useServiceChannel false
config *.**.nic.mac1609_4.txPower 100mW
config *.**.nic.mac1609_4.bitrate 6Mbps
config *.**.nic.mac1609_4.useAcks true
config *.**.nic.mac1609_4.ackErrorRate 0.0
config *.**.nic.mac1609_4.frameErrorRate 0.0
config *.**.nic.phy80211p.minPowerLevel -94dBm
config *.**.nic.phy80211p.maxTXPower 100mW
config *.**.nic.phy80211p.useNoiseFloor true
config *.**.nic.phy80211p.noiseFloor -95dBm
config *.**.nic.phy80211p.decider "xmldoc(\"config.xml\")"
config *.**.nic.phy80211p.analogueModels "xmldoc(\"config.xml\")"
config *.**.nic.phy80211p.usePropagationDelay true
config *.node[*].mobility.x 0
config *.node[*].mobility.y 0
config *.node[*].mobility.z 1.895
config seed-set 0
config **.seed 0
config *.node[*].prot.rng-0 2
config *.node[*].appl.rng-0 3
config *.node[*].scenario.rng-0 4
config **.traffic.rng-0 5
config *.manager.configFile "\"./sumocfg/freeway.sumo.cfg\""
config *.manager.launchConfig "xmldoc(\"./sumocfg/freeway.launchd.xml\")"
config **.numberOfCars 8
config **.numberOfCarsPerPlatoon 8
config **.numberOfLanes 1
config *.node[*].helper_type "\"PositionHelper\""
config *.node[*].scenario.caccC1 0.5
config *.node[*].scenario.caccXi 1
config *.node[*].scenario.caccOmegaN "0.2 Hz"
config *.node[*].scenario.caccSpacing "2 m"
config *.node[*].scenario.engineTau "0.5 s"
config *.node[*].scenario.ploegH 0.5s
config *.node[*].scenario.ploegKp 0.2
config *.node[*].scenario.ploegKd 0.7
config *.node[*].scenario.useRealisticEngine false
config *.node[*].scenario.useControllerAcceleration true
config *.node[*].scenario.nLanes 1
config **.numericController 1
config **.headway 0.1s
config *.node[*].scenario.accHeadway 0.1s
config *.node[*].scenario.leaderHeadway 1.2s
config *.node[*].scenario.leaderSpeed 110kmph
config *.node[*].appl_type "\"SimplePlatooningApp\""
config *.node[*].appl.*.scalar-recording true
config *.node[*].appl.*.vector-recording true
config *.node[0].appl.breakRanksSafetyDistance 2m
config *.node[*].appl.minSpeed 100kmph
config *.node[*].appl.maxSpeed 120kmph
config *.node[*].protocol_type "\"SimplePlatooningBeaconing\""
config *.node[*].prot.*.scalar-recording true
config *.node[*].prot.*.vector-recording true
config *.node[*].prot.beaconingInterval 0.1s
config *.node[*].prot.priority 4
config *.node[*].prot.packetSize 200
config **.traffic_type "\"PlatoonsTrafficManager\""
config **.traffic.platoonInsertTime "1 s"
config **.traffic.platoonInsertSpeed 110kmph
config **.traffic.nCars 8
config **.traffic.platoonSize 8
config **.traffic.nLanes 1
config **.traffic.platooningVType "\"vtypeauto\""
config **.traffic.controller "\"CACC\""
config **.traffic.platoonInsertDistance 2m
config **.traffic.platoonInsertHeadway 0s
config **.traffic.platoonLeaderHeadway 1.2s
config **.scalar-recording false
config **.vector-recording false

vector 0 Highway.node[0].appl distance ETV
vector 1 Highway.node[0].appl relativeSpeed ETV
vector 2 Highway.node[0].appl nodeId ETV
vector 3 Highway.node[0].appl acceleration ETV
vector 4 Highway.node[0].appl controllerAcceleration ETV
vector 5 Highway.node[0].appl speed ETV
vector 6 Highway.node[0].appl posx ETV
vector 7 Highway.node[0].appl posy ETV
vector 8 Highway.node[1].appl distance ETV
vector 9 Highway.node[1].appl relativeSpeed ETV
vector 10 Highway.node[1].appl nodeId ETV
vector 11 Highway.node[1].appl acceleration ETV
vector 12 Highway.node[1].appl controllerAcceleration ETV
vector 13 Highway.node[1].appl speed ETV
vector 14 Highway.node[1].appl posx ETV
vector 15 Highway.node[1].appl posy ETV
vector 16 Highway.node[2].appl distance ETV
vector 17 Highway.node[2].appl relativeSpeed ETV
vector 18 Highway.node[2].appl nodeId ETV
vector 19 Highway.node[2].appl acceleration ETV
vector 20 Highway.node[2].appl controllerAcceleration ETV
vector 21 Highway.node[2].appl speed ETV
vector 22 Highway.node[2].appl posx ETV
vector 23 Highway.node[2].appl posy ETV
vector 24 Highway.node[3].appl distance ETV
vector 25 Highway.node[3].appl relativeSpeed ETV
vector 26 Highway.node[3].appl nodeId ETV
vector 27 Highway.node[3].appl acceleration ETV
vector 28 Highway.node[3].appl controllerAcceleration ETV
vector 29 Highway.node[3].appl speed ETV
vector 30 Highway.node[3].appl posx ETV
vector 31 Highway.node[3].appl posy ETV
vector 32 Highway.node[4].appl distance ETV
vector 33 Highway.node[4].appl relativeSpeed ETV
vector 34 Highway.node[4].appl nodeId ETV
vector 35 Highway.node[4].appl acceleration ETV
vector 36 Highway.node[4].appl controllerAcceleration ETV
vector 37 Highway.node[4].appl speed ETV
vector 38 Highway.node[4].appl posx ETV
vector 39 Highway.node[4].appl posy ETV
vector 40 Highway.node[5].appl distance ETV
vector 41 Highway.node[5].appl relativeSpeed ETV
vector 42 Highway.node[5].appl nodeId ETV
vector 43 Highway.node[5].appl acceleration ETV
vector 44 Highway.node[5].appl controllerAcceleration ETV
vector 45 Highway.node[5].appl speed ETV
vector 46 Highway.node[5].appl posx ETV
vector 47 Highway.node[5].appl posy ETV
vector 48 Highway.node[6].appl distance ETV
vector 49 Highway.node[6].appl relativeSpeed ETV
vector 50 Highway.node[6].appl nodeId ETV
vector 51 Highway.node[6].appl acceleration ETV
vector 52 Highway.node[6].appl controllerAcceleration ETV
vector 53 Highway.node[6].appl speed ETV
vector 54 Highway.node[6].appl posx ETV
vector 55 Highway.node[6].appl posy ETV
vector 56 Highway.node[7].appl distance ETV
vector 57 Highway.node[7].appl relativeSpeed ETV
vector 58 Highway.node[7].appl nodeId ETV
vector 59 Highway.node[7].appl acceleration ETV
vector 60 Highway.node[7].appl controllerAcceleration ETV
vector 61 Highway.node[7].appl speed ETV
vector 62 Highway.node[7].appl posx ETV
vector 63 Highway.node[7].appl posy ETV
vector 64 Highway.node[3].prot frontDelay ETV
vector 65 Highway.node[3].prot frontDelayId ETV
vector 66 Highway.node[2].prot frontDelay ETV
vector 67 Highway.node[2].prot frontDelayId ETV
vector 68 Highway.node[7].prot frontDelay ETV
vector 69 Highway.node[7].prot frontDelayId ETV
vector 70 Highway.node[1].prot leaderDelay ETV
vector 71 Highway.node[1].prot leaderDelayId ETV
vector 72 Highway.node[1].prot frontDelay ETV
vector 73 Highway.node[1].prot frontDelayId ETV
vector 74 Highway.node[2].prot leaderDelay ETV
vector 75 Highway.node[2].prot leaderDelayId ETV
vector 76 Highway.node[3].prot leaderDelay ETV
vector 77 Highway.node[3].prot leaderDelayId ETV
vector 78 Highway.node[4].prot leaderDelay ETV
vector 79 Highway.node[4].prot leaderDelayId ETV
vector 80 Highway.node[5].prot leaderDelay ETV
vector 81 Highway.node[5].prot leaderDelayId ETV
vector 82 Highway.node[6].prot leaderDelay ETV
vector 83 Highway.node[6].prot leaderDelayId ETV
vector 84 Highway.node[7].prot leaderDelay ETV
vector 85 Highway.node[7].prot leaderDelayId ETV
vector 86 Highway.node[5].prot frontDelay ETV
vector 87 Highway.node[5].prot frontDelayId ETV
vector 88 Highway.node[4].prot frontDelay ETV
vector 89 Highway.node[4].prot frontDelayId ETV
vector 90 Highway.node[6].prot frontDelay ETV
vector 91 Highway.node[6].prot frontDelayId ETV
vector 92 Highway.node[0].prot nodeId ETV
vector 93 Highway.node[0].prot busyTime ETV
vector 94 Highway.node[0].prot collisions ETV
vector 95 Highway.node[1].prot nodeId ETV
vector 96 Highway.node[1].prot busyTime ETV
vector 97 Highway.node[1].prot collisions ETV
vector 98 Highway.node[2].prot nodeId ETV
vector 99 Highway.node[2].prot busyTime ETV
vector 100 Highway.node[2].prot collisions ETV
vector 101 Highway.node[3].prot nodeId ETV
vector 102 Highway.node[3].prot busyTime ETV
vector 103 Highway.node[3].prot collisions ETV
vector 104 Highway.node[4].prot nodeId ETV
vector 105 Highway.node[4].prot busyTime ETV
vector 106 Highway.node[4].prot collisions ETV
vector 107 Highway.node[5].prot nodeId ETV
vector 108 Highway.node[5].prot busyTime ETV
vector 109 Highway.node[5].prot collisions ETV
vector 110 Highway.node[6].prot nodeId ETV
vector 111 Highway.node[6].prot busyTime ETV
vector 112 Highway.node[6].prot collisions ETV
vector 113 Highway.node[7].prot nodeId ETV
vector 114 Highway.node[7].prot busyTime ETV
vector 115 Highway.node[7].prot collisions ETV
0	113	1.11	-1
0	659	1.21	-1
0	1205	1.31	-1
0	1751	1.41	-1
0	2297	1.51	-1
0	2843	1.61	-1
0	3389	1.71	-1
0	3935	1.81	-1
0	4481	1.91	-1
0	5035	2.01	-1
0	5581	2.11	-1
0	6127	2.21	-1
0	6673	2.31	-1
0	7219	2.41	-1
0	7765	2.51	-1
0	8311	2.61	-1
0	8857	2.71	-1
0	9403	2.81	-1
0	9949	2.91	-1
0	10503	3.01	-1
0	11049	3.11	-1
0	11595	3.21	-1
0	12141	3.31	-1
0	12687	3.41	-1
0	13233	3.51	-1
0	13779	3.61	-1
0	14325	3.71	-1
0	14871	3.81	-1
0	15417	3.91	-1
0	15971	4.01	-1
0	16517	4.11	-1
0	17063	4.21	-1
0	17609	4.31	-1
0	18155	4.41	-1
0	18701	4.51	-1
0	19247	4.61	-1
0	19793	4.71	-1
0	20339	4.81	-1
0	20885	4.91	-1
0	21439	5.01	-1
0	21985	5.11	-1
0	22531	5.21	-1
0	23077	5.31	-1
0	23623	5.41	-1
0	24169	5.51	-1
0	24715	5.61	-1
0	25261	5.71	-1
0	25807	5.81	-1
0	26353	5.91	-1
0	26907	6.01	-1
0	27453	6.11	-1
0	27999	6.21	-1
0	28545	6.31	-1
0	29091	6.41	-1
0	29637	6.51	-1
0	30183	6.61	-1
0	30729	6.71	-1
0	31275	6.81	-1
0	31821	6.91	-1
0	32375	7.01	-1
0	32921	7.11	-1
0	33467	7.21	-1
0	34013	7.31	-1
0	34559	7.41	-1
0	35105	7.51	-1
0	35651	7.61	-1
0	36197	7.71	-1
0	36743	7.81	-1
0	37289	7.91	-1
0	37843	8.01	-1
0	38389	8.11	-1
0	38935	8.21	-1
0	39481	8.31	-1
0	40027	8.41	-1
0	40573	8.51	-1
0	41119	8.61	-1
0	41665	8.71	-1
0	42211	8.81	-1
0	42757	8.91	-1
0	43311	9.01	-1
0	43857	9.11	-1
0	44403	9.21	-1
0	44949	9.31	-1
0	45495	9.41	-1
0	46041	9.51	-1
0	46587	9.61	-1
0	47133	9.71	-1
0	47679	9.81	-1
0	48225	9.91	-1
0	50714	10.01	-1
0	51260	10.11	-1
0	51806	10.21	-1
0	52352	10.31	-1
0	52898	10.41	-1
0	53444	10.51	-1
0	53990	10.61	-1
0	54536	10.71	-1
0	55082	10.81	-1
0	55628	10.91	-1
0	56182	11.01	-1
0	56728	11.11	-1
0	57274	11.21	-1
0	57820	11.31	-1
0	58366	11.41	-1
0	58912	11.51	-1
0	59458	11.61	-1
0	60004	11.71	-1
0	60550	11.81	-1
0	61096	11.91	-1
0	61650	12.01	-1
0	62196	12.11	-1
0	62742	12.21	-1
0	63288	12.31	-1
0	63834	12.41	-1
0	64380	12.51	-1
0	64926	12.61	-1
0	65472	12.71	-1
0	66018	12.81	-1
0	66564	12.91	-1
0	67118	13.01	-1
0	67664	13.11	-1
0	68210	13.21	-1
0	68756	13.31	-1
0	69302	13.41	-1
0	69848	13.51	-1
0	70394	13.61	-1
0	70940	13.71	-1
0	71486	13.81	-1
0	72032	13.91	-1
0	72586	14.01	-1
0	73132	14.11	-1
0	73678	14.21	-1
0	74224	14.31	-1
0	74770	14.41	-1
0	75316	14.51	-1
0	75862	14.61	-1
0	76408	14.71	-1
0	76954	14.81	-1
0	77500	14.91	-1
0	78054	15.01	-1
0	78600	15.11	-1
0	79146	15.21	-1
0	79692	15.31	-1
0	80238	15.41	-1
0	80784	15.51	-1
0	81330	15.61	-1
0	81876	15.71	-1
0	82422	15.81	-1
0	82968	15.91	-1
0	83522	16.01	-1
0	84068	16.11	-1
0	84614	16.21	-1
0	85160	16.31	-1
0	85706	16.41	-1
0	86252	16.51	-1
0	86798	16.61	-1
0	87344	16.71	-1
0	87890	16.81	-1
0	88436	16.91	-1
0	88990	17.01	-1
0	89536	17.11	-1
0	90082	17.21	-1
0	90628	17.31	-1
0	91174	17.41	-1
0	91720	17.51	-1
0	92266	17.61	-1
0	92812	17.71	-1
0	93358	17.81	-1
0	93904	17.91	-1
0	94458	18.01	-1
0	95004	18.11	-1
0	95550	18.21	-1
0	96096	18.31	-1
0	96642	18.41	-1
0	97188	18.51	-1
0	97734	18.61	-1
0	98280	18.71	-1
0	98826	18.81	-1
0	99372	18.91	-1
0	99926	19.01	-1
0	100472	19.11	-1
0	101018	19.21	-1
0	101564	19.31	-1
0	102110	19.41	-1
0	102656	19.51	-1
0	103202	19.61	-1
0	103748	19.71	-1
0	104294	19.81	-1
0	104840	19.91	-1
0	105394	20.01	-1
0	105940	20.11	-1
0	106486	20.21	-1
0	107032	20.31	-1
0	107578	20.41	-1
0	108124	20.51	-1
0	108670	20.61	-1
0	109216	20.71	-1
0	109762	20.81	-1
0	110308	20.91	-1
0	110862	21.01	-1
0	111408	21.11	-1
0	111954	21.21	-1
0	112500	21.31	-1
0	113046	21.41	-1
0	113592	21.51	-1
0	114138	21.61	-1
0	114684	21.71	-1
0	115230	21.81	-1
0	115776	21.91	-1
0	116330	22.01	-1
0	116876	22.11	-1
0	117422	22.21	-1
0	117968	22.31	-1
0	118514	22.41	-1
0	119060	22.51	-1
0	119606	22.61	-1
0	120152	22.71	-1
0	120698	22.81	-1
0	121244	22.91	-1
0	121798	23.01	-1
0	122344	23.11	-1
0	122890	23.21	-1
0	123436	23.31	-1
0	123982	23.41	-1
0	124528	23.51	-1
0	125074	23.61	-1
0	125620	23.71	-1
0	126166	23.81	-1
0	126712	23.91	-1
0	127266	24.01	-1
0	127812	24.11	-1
0	128358	24.21	-1
0	128904	24.31	-1
0	129450	24.41	-1
0	129996	24.51	-1
0	130542	24.61	-1
0	131088	24.71	-1
0	131634	24.81	-1
0	132180	24.91	-1
0	132734	25.01	-1
0	133280	25.11	-1
0	133826	25.21	-1
0	134372	25.31	-1
0	134918	25.41	-1
0	135464	25.51	-1
0	136010	25.61	-1
0	136556	25.71	-1
0	137102	25.81	-1
0	137648	25.91	-1
0	138202	26.01	-1
0	138748	26.11	-1
0	139294	26.21	-1
0	139840	26.31	-1
0	140386	26.41	-1
0	140932	26.51	-1
0	141478	26.61	-1
0	142024	26.71	-1
0	142570	26.81	-1
0	143116	26.91	-1
0	143670	27.01	-1
0	144216	27.11	-1
0	144762	27.21	-1
0	145308	27.31	-1
0	145854	27.41	-1
0	146400	27.51	-1
0	146946	27.61	-1
0	147492	27.71	-1
0	148038	27.81	-1
0	148584	27.91	-1
0	149138	28.01	-1
0	149684	28.11	-1
0	150230	28.21	-1
0	150776	28.31	-1
0	151322	28.41	-1
0	151868	28.51	-1
0	152414	28.61	-1
0	152960	28.71	-1
0	153506	28.81	-1
0	154052	28.91	-1
0	154606	29.01	-1
0	155152	29.11	-1
0	155698	29.21	-1
0	156244	29.31	-1
0	156790	29.41	-1
0	157336	29.51	-1
0	157882	29.61	-1
0	158428	29.71	-1
0	158974	29.81	-1
0	159520	29.91	-1
0	160074	30.01	-1
0	160620	30.11	-1
0	161166	30.21	-1
0	161712	30.31	-1
0	162258	30.41	-1
0	162804	30.51	-1
0	163350	30.61	-1
0	163896	30.71	-1
0	164442	30.81	-1
0	164988	30.91	-1
0	165542	31.01	-1
0	166088	31.11	-1
0	166634	31.21	-1
0	167180	31.31	-1
0	167726	31.41	-1
0	168272	31.51	-1
0	168818	31.61	-1
0	169364	31.71	-1
0	169910	31.81	-1
0	170456	31.91	-1
0	171010	32.01	-1
0	171556	32.11	-1
0	172102	32.21	-1
0	172648	32.31	-1
0	173194	32.41	-1
0	173740	32.51	-1
0	174286	32.61	-1
0	174832	32.71	-1
0	175378	32.81	-1
0	175924	32.91	-1
0	176478	33.01	-1
0	177024	33.11	-1
0	177570	33.21	-1
0	178116	33.31	-1
0	178662	33.41	-1
0	179208	33.51	-1
0	179754	33.61	-1
0	180300	33.71	-1
0	180846	33.81	-1
0	181392	33.91	-1
0	181946	34.01	-1
0	182492	34.11	-1
0	183038	34.21	-1
0	183584	34.31	-1
0	184130	34.41	-1
0	184676	34.51	-1
0	185222	34.61	-1
0	185768	34.71	-1
0	186314	34.81	-1
0	186860	34.91	-1
0	187414	35.01	-1
0	187960	35.11	-1
0	188506	35.21	-1
0	189052	35.31	-1
0	189598	35.41	-1
0	190144	35.51	-1
0	190690	35.61	-1
0	191236	35.71	25.6394
0	191782	35.81	25.7838
0	192328	35.91	25.9282
0	192882	36.01	26.0727
0	193428	36.11	26.2171
0	193974	36.21	26.3616
0	194520	36.31	26.506
0	195066	36.41	26.6504
0	195612	36.51	26.7949
0	196158	36.61	26.9393
0	196704	36.71	27.0838
0	197250	36.81	27.2282
0	197796	36.91	27.3726
0	198350	37.01	27.5171
0	198896	37.11	27.6615
0	199442	37.21	27.806
0	199988	37.31	27.9504
0	200534	37.41	28.0948
0	201080	37.51	28.2393
0	201626	37.61	28.3837
0	202172	37.71	28.5282
0	202718	37.81	28.6726
0	203264	37.91	28.817
0	203818	38.01	28.9615
0	204364	38.11	29.1059
0	204910	38.21	29.2504
0	205456	38.31	29.3948
0	206002	38.41	29.5392
0	206548	38.51	29.6837
0	207094	38.61	29.8281
0	207640	38.71	29.9726
0	208186	38.81	30.117
0	208732	38.91	30.2614
0	209286	39.01	30.4059
0	209832	39.11	30.5503
0	210378	39.21	30.6948
0	210924	39.31	30.8392
0	211470	39.41	30.9836
0	212016	39.51	31.1281
0	212562	39.61	31.2725
0	213108	39.71	31.417
0	213654	39.81	31.5614
0	214200	39.91	31.7058
0	214754	40.01	31.8503
0	215300	40.11	31.9947
0	215846	40.21	32.1392
0	216392	40.31	32.2836
0	216938	40.41	32.428
0	217484	40.51	32.5725
0	218030	40.61	32.7169
0	218576	40.71	32.8614
0	219122	40.81	33.0058
0	219668	40.91	33.1502
0	220222	41.01	33.2947
0	220768	41.11	33.4391
0	221314	41.21	33.5836
0	221860	41.31	33.728
0	222406	41.41	33.8724
0	222952	41.51	34.0169
0	223498	41.61	34.1613
0	224044	41.71	34.3058
0	224590	41.81	34.4502
0	225136	41.91	34.5946
0	225690	42.01	34.7391
0	226236	42.11	34.8835
0	226782	42.21	35.028
0	227328	42.31	35.1724
0	227874	42.41	35.3168
0	228420	42.51	35.4613
0	228966	42.61	35.6057
0	229512	42.71	35.7502
0	230058	42.81	35.8946
0	230604	42.91	36.039
0	231158	43.01	36.1835
0	231704	43.11	36.3279
0	232250	43.21	36.4724
0	232796	43.31	36.6168
0	233342	43.41	36.7612
0	233888	43.51	36.9057
0	234434	43.61	37.0501
0	234980	43.71	37.1946
0	235526	43.81	37.339
0	236072	43.91	37.4834
0	236626	44.01	37.6279
0	237172	44.11	37.7723
0	237718	44.21	37.9168
0	238264	44.31	38.0612
0	238810	44.41	38.2056
0	239356	44.51	38.3501
0	239902	44.61	38.4945
0	240448	44.71	38.639
0	240994	44.81	38.7834
0	241540	44.91	38.9278
0	242094	45.01	39.0723
0	242640	45.11	39.2167
0	243186	45.21	39.3612
0	243732	45.31	39.5056
0	244278	45.41	39.65
0	244824	45.51	39.7945
0	245370	45.61	39.9389
0	245916	45.71	40.0834
0	246462	45.81	40.2278
0	247008	45.91	40.3722
0	247562	46.01	40.5167
0	248108	46.11	40.6611
0	248654	46.21	40.8056
0	249200	46.31	40.95
0	249746	46.41	41.0944
0	250292	46.51	41.2389
0	250838	46.61	41.3833
0	251384	46.71	41.5278
0	251930	46.81	41.6722
0	252476	46.91	41.8166
0	253030	47.01	41.9611
0	253576	47.11	42.1055
0	254122	47.21	42.25
0	254668	47.31	42.3944
0	255214	47.41	42.5388
0	255760	47.51	42.6833
0	256306	47.61	42.8277
0	256852	47.71	42.9722
0	257398	47.81	43.1166
0	257944	47.91	43.261
0	258498	48.01	43.4055
0	259044	48.11	43.5499
0	259590	48.21	43.6944
0	260136	48.31	43.8388
0	260682	48.41	43.9832
0	261228	48.51	44.1277
0	261774	48.61	44.2721
0	262320	48.71	44.4166
0	262866	48.81	44.561
0	263412	48.91	44.7054
0	263966	49.01	44.8499
0	264512	49.11	44.9943
0	265058	49.21	45.1388
0	265604	49.31	45.2832
0	266150	49.41	45.4276
0	266696	49.51	45.5721
0	267242	49.61	45.7165
0	267788	49.71	45.861
0	268334	49.81	46.0054
0	268880	49.91	46.1498
0	269434	50.01	46.2943
0	269980	50.11	46.4387
0	270526	50.21	46.5832
0	271072	50.31	46.7276
0	271618	50.41	46.872
0	272164	50.51	47.0165
0	272710	50.61	47.1609
0	273256	50.71	47.3054
0	273802	50.81	47.4498
0	274348	50.91	47.5942
0	274902	51.01	47.7387
0	275448	51.11	47.8831
0	275994	51.21	48.0276
0	276540	51.31	48.172
0	277086	51.41	48.3164
0	277632	51.51	48.4609
0	278178	51.61	48.6053
0	278724	51.71	48.7498
0	279270	51.81	48.8942
0	279816	51.91	49.0386
0	280370	52.01	49.1831
0	280916	52.11	49.3275
0	281462	52.21	49.472
0	282008	52.31	49.6164
0	282554	52.41	49.7608
0	283100	52.51	49.9053
0	283646	52.61	50.0497
0	284192	52.71	50.1942
0	284738	52.81	50.3386
0	285284	52.91	50.483
0	285838	53.01	50.6275
0	286384	53.11	50.7719
0	286930	53.21	50.9164
0	287476	53.31	51.0608
0	288022	53.41	51.2052
0	288568	53.51	51.3497
0	289114	53.61	51.4941
0	289660	53.71	51.6386
0	290206	53.81	51.783
0	290752	53.91	51.9274
0	291306	54.01	52.0719
0	291852	54.11	52.2163
0	292398	54.21	52.3608
0	292944	54.31	52.5052
0	293490	54.41	52.6496
0	294036	54.51	52.7941
0	294582	54.61	52.9385
0	295128	54.71	53.083
0	295674	54.81	53.2274
0	296220	54.91	53.3718
0	296774	55.01	53.5163
0	297320	55.11	53.6607
0	297866	55.21	53.8052
0	298412	55.31	53.9496
0	298958	55.41	54.094
0	299504	55.51	54.2385
0	300050	55.61	54.3829
0	300596	55.71	54.5274
0	301142	55.81	54.6718
0	301688	55.91	54.8162
0	302242	56.01	54.9607
0	302788	56.11	55.1051
0	303334	56.21	55.2496
0	303880	56.31	55.394
0	304426	56.41	55.5384
0	304972	56.51	55.6829
0	305518	56.61	55.8273
0	306064	56.71	55.9718
0	306610	56.81	56.1162
0	307156	56.91	56.2606
0	307710	57.01	56.4051
0	308256	57.11	56.5495
0	308802	57.21	56.694
0	309348	57.31	56.8384
0	309894	57.41	56.9828
0	310440	57.51	57.1273
0	310986	57.61	57.2717
0	311532	57.71	57.4162
0	312078	57.81	57.5606
0	312624	57.91	57.705
0	313178	58.01	57.8495
0	313724	58.11	57.9939
0	314270	58.21	58.1384
0	314816	58.31	58.2828
0	315362	58.41	58.4272
0	315908	58.51	58.5717
0	316454	58.61	58.7161
0	317000	58.71	58.8606
0	317546	58.81	59.005
0	318092	58.91	59.1494
0	318646	59.01	59.2939
0	319192	59.11	59.4383
0	319738	59.21	59.5828
0	320284	59.31	59.7272
0	320830	59.41	59.8716
0	321376	59.51	60.0161
0	321922	59.61	60.1605
0	322468	59.71	60.305
0	323014	59.81	60.4494
0	323560	59.91	60.5938
0	324114	60.01	60.7383
0	324660	60.11	60.8827
0	325206	60.21	61.0272
0	325752	60.31	61.1716
0	326298	60.41	61.316
0	326844	60.51	61.4605
0	327390	60.61	61.6049
0	327936	60.71	61.7494
0	328482	60.81	61.8938
0	329028	60.91	62.0382
0	329582	61.01	62.1827
0	330128	61.11	62.3271
0	330674	61.21	62.4716
0	331220	61.31	62.616
0	331766	61.41	62.7604
0	332312	61.51	62.9049
0	332858	61.61	63.0493
0	333404	61.71	63.1938
0	333950	61.81	63.3382
0	334496	61.91	63.4826
0	335050	62.01	63.6271
0	335596	62.11	63.7715
0	336142	62.21	63.916
0	336688	62.31	64.0604
0	337234	62.41	64.2048
0	337780	62.51	64.3493
0	338326	62.61	64.4937
0	338872	62.71	64.6382
0	339418	62.81	64.7826
0	339964	62.91	64.927
0	340518	63.01	65.0715
0	341064	63.11	65.2159
0	341610	63.21	65.3604
0	342156	63.31	65.5048
0	342702	63.41	65.6492
0	343248	63.51	65.7937
0	343794	63.61	65.9381
0	344340	63.71	66.0826
0	344886	63.81	66.227
0	345432	63.91	66.3714
0	345986	64.01	66.5159
0	346532	64.11	66.6603
0	347078	64.21	66.8048
0	347624	64.31	66.9492
0	348170	64.41	67.0936
0	348716	64.51	67.2381
0	349262	64.61	67.3825
0	349808	64.71	67.527
0	350354	64.81	67.6714
0	350900	64.91	67.8158
0	351454	65.01	67.9603
0	352000	65.11	68.1047
0	352546	65.21	68.2492
0	353092	65.31	68.3936
0	353638	65.41	68.538
0	354184	65.51	68.6825
0	354730	65.61	68.8269
0	355276	65.71	68.9714
0	355822	65.81	69.1158
0	356368	65.91	69.2602
0	356922	66.01	69.4047
0	357468	66.11	69.5491
0	358014	66.21	69.6936
0	358560	66.31	69.838
0	359106	66.41	69.9824
0	359652	66.51	70.1269
0	360198	66.61	70.2713
0	360744	66.71	70.4158
0	361290	66.81	70.5602
0	361836	66.91	70.7046
0	362390	67.01	70.8491
0	362936	67.11	70.9935
0	363482	67.21	71.138
0	364028	67.31	71.2824
0	364574	67.41	71.4268
0	365120	67.51	71.5713
0	365666	67.61	71.7157
0	366212	67.71	71.8602
0	366758	67.81	72.0046
0	367304	67.91	72.149
0	367858	68.01	72.2935
0	368404	68.11	72.4379
0	368950	68.21	72.5824
0	369496	68.31	72.7268
0	370042	68.41	72.8712
0	370588	68.51	73.0157
0	371134	68.61	73.1601
0	371680	68.71	73.3046
0	372226	68.81	73.449
0	372772	68.91	73.5934
0	373326	69.01	73.7379
0	373872	69.11	73.8823
0	374418	69.21	74.0268
0	374964	69.31	74.1712
0	375510	69.41	74.3156
0	376056	69.51	74.4601
0	376602	69.61	74.6045
0	377148	69.71	74.749
0	377694	69.81	74.8934
0	378240	69.91	75.0378
0	378794	70.01	75.1823
0	379340	70.11	75.3267
0	379886	70.21	75.4712
0	380432	70.31	75.6156
0	380978	70.41	75.76
0	381524	70.51	75.9045
0	382070	70.61	76.0489
0	382616	70.71	76.1934
0	383162	70.81	76.3378
0	383708	70.91	76.4822
0	384262	71.01	76.6267
0	384808	71.11	76.7711
0	385354	71.21	76.9156
0	385900	71.31	77.06
0	386446	71.41	77.2044
0	386992	71.51	77.3489
0	387538	71.61	77.4933
0	388084	71.71	77.6378
0	388630	71.81	77.7822
0	389176	71.91	77.9266
0	389730	72.01	78.0711
0	390276	72.11	78.2155
0	390822	72.21	78.36
0	391368	72.31	78.5044
0	391914	72.41	78.6488
0	392460	72.51	78.7933
0	393006	72.61	78.9377
0	393552	72.71	79.0822
0	394098	72.81	79.2266
0	394644	72.91	79.371
0	395198	73.01	79.5155
0	395744	73.11	79.6599
0	396290	73.21	79.8044
0	396836	73.31	79.9488
0	397382	73.41	80.0932
0	397928	73.51	80.2377
0	398474	73.61	80.3821
0	399020	73.71	80.5266
0	399566	73.81	80.671
0	400112	73.91	80.8154
0	400666	74.01	80.9599
0	401212	74.11	81.1043
0	401758	74.21	81.2488
0	402304	74.31	81.3932
0	402850	74.41	81.5376
0	403396	74.51	81.6821
0	403942	74.61	81.8265
0	404488	74.71	81.971
0	405034	74.81	82.1154
0	405580	74.91	82.2598
0	406134	75.01	82.4043
0	406680	75.11	82.5487
0	407226	75.21	82.6932
0	407772	75.31	82.8376
0	408318	75.41	82.982
0	408864	75.51	83.1265
0	409410	75.61	83.2709
0	409956	75.71	83.4154
0	410502	75.81	83.5598
0	411048	75.91	83.7042
0	411602	76.01	83.8487
0	412148	76.11	83.9931
0	412694	76.21	84.1376
0	413240	76.31	84.282
0	413786	76.41	84.4264
0	414332	76.51	84.5709
0	414878	76.61	84.7153
0	415424	76.71	84.8598
0	415970	76.81	85.0042
0	416516	76.91	85.1486
0	417070	77.01	85.2931
0	417616	77.11	85.4375
0	418162	77.21	85.582
0	418708	77.31	85.7264
0	419254	77.41	85.8708
0	419800	77.51	86.0153
0	420346	77.61	86.1597
0	420892	77.71	86.3042
0	421438	77.81	86.4486
0	421984	77.91	86.593
0	422538	78.01	86.7375
0	423084	78.11	86.8819
0	423630	78.21	87.0264
0	424176	78.31	87.1708
0	424722	78.41	87.3152
0	425268	78.51	87.4597
0	425814	78.61	87.6041
0	426360	78.71	87.7486
0	426906	78.81	87.893
0	427452	78.91	88.0374
0	428006	79.01	88.1819
0	428552	79.11	88.3263
0	429098	79.21	88.4708
0	429644	79.31	88.6152
0	430190	79.41	88.7596
0	430736	79.51	88.9041
0	431282	79.61	89.0485
0	431828	79.71	89.193
0	432374	79.81	89.3374
0	432920	79.91	89.4818
0	433474	80.01	89.6263
0	434020	80.11	89.7707
0	434566	80.21	89.9152
0	435112	80.31	90.0596
0	435658	80.41	90.204
0	436204	80.51	90.3485
0	436750	80.61	90.4929
0	437296	80.71	90.6374
0	437842	80.81	90.7818
0	438388	80.91	90.9262
0	438942	81.01	91.0707
0	439488	81.11	91.2151
0	440034	81.21	91.3596
0	440580	81.31	91.504
0	441126	81.41	91.6484
0	441672	81.51	91.7929
0	442218	81.61	91.9373
0	442764	81.71	92.0818
0	443310	81.81	92.2262
0	443856	81.91	92.3706
0	444410	82.01	92.5151
0	444956	82.11	92.6595
0	445502	82.21	92.804
0	446048	82.31	92.9484
0	446594	82.41	93.0928
0	447140	82.51	93.2373
0	447686	82.61	93.3817
0	448232	82.71	93.5262
0	448778	82.81	93.6706
0	449324	82.91	93.815
0	449878	83.01	93.9595
0	450424	83.11	94.1039
0	450970	83.21	94.2484
0	451516	83.31	94.3928
0	452062	83.41	94.5372
0	452608	83.51	94.6817
0	453154	83.61	94.8261
0	453700	83.71	94.9706
0	454246	83.81	95.115
0	454792	83.91	95.2594
0	455346	84.01	95.4039
0	455892	84.11	95.5483
0	456438	84.21	95.6928
0	456984	84.31	95.8372
0	457530	84.41	95.9816
0	458076	84.51	96.1261
0	458622	84.61	96.2705
0	459168	84.71	96.415
0	459714	84.81	96.5594
0	460260	84.91	96.7038
0	460814	85.01	96.8483
0	461360	85.11	96.9927
0	461906	85.21	97.1372
0	462452	85.31	97.2816
0	462998	85.41	97.426
0	463544	85.51	97.5705
0	464090	85.61	97.7149
0	464636	85.71	97.8594
0	465182	85.81	98.0038
0	465728	85.91	98.1482
0	466282	86.01	98.2927
0	466828	86.11	98.4371
0	467374	86.21	98.5816
0	467920	86.31	98.726
0	468466	86.41	98.8704
0	469012	86.51	99.0149
0	469558	86.61	99.1593
0	470104	86.71	99.3038
0	470650	86.81	99.4482
0	471196	86.91	99.5926
0	471750	87.01	99.7371
0	472296	87.11	99.8815
0	472842	87.21	100.026
0	473388	87.31	100.17
0	473934	87.41	100.315
0	474480	87.51	100.459
0	475026	87.61	100.604
0	475572	87.71	100.748
0	476118	87.81	100.893
0	476664	87.91	101.037
0	477218	88.01	101.181
0	477764	88.11	101.326
0	478310	88.21	101.47
0	478856	88.31	101.615
0	479402	88.41	101.759
0	479948	88.51	101.904
0	480494	88.61	102.048
0	481040	88.71	102.193
0	481586	88.81	102.337
0	482132	88.91	102.481
0	482686	89.01	102.626
0	483232	89.11	102.77
0	483778	89.21	102.915
0	484324	89.31	103.059
0	484870	89.41	103.204
0	485416	89.51	103.348
0	485962	89.61	103.493
0	486508	89.71	103.637
0	487054	89.81	103.781
0	487600	89.91	103.926
0	488154	90.01	104.07
0	488700	90.11	104.215
0	489246	90.21	104.359
0	489792	90.31	104.504
0	490338	90.41	104.648
0	490884	90.51	104.792
0	491430	90.61	104.937
0	491976	90.71	105.081
0	492522	90.81	105.226
0	493068	90.91	105.37
0	493622	91.01	105.515
0	494168	91.11	105.659
0	494714	91.21	105.804
0	495260	91.31	105.948
0	495806	91.41	106.092
0	496352	91.51	106.237
0	496898	91.61	106.381
0	497444	91.71	106.526
0	497990	91.81	106.67
0	498536	91.91	106.815
0	499090	92.01	106.959
0	499636	92.11	107.104
0	500182	92.21	107.248
0	500728	92.31	107.392
0	501274	92.41	107.537
0	501820	92.51	107.681
0	502366	92.61	107.826
0	502912	92.71	107.97
0	503458	92.81	108.115
0	504004	92.91	108.259
0	504558	93.01	108.403
0	505104	93.11	108.548
0	505650	93.21	108.692
0	506196	93.31	108.837
0	506742	93.41	108.981
0	507288	93.51	109.126
0	507834	93.61	109.27
0	508380	93.71	109.415
0	508926	93.81	109.559
0	509472	93.91	109.703
0	510026	94.01	109.848
0	510572	94.11	109.992
0	511118	94.21	110.137
0	511664	94.31	110.281
0	512210	94.41	110.426
0	512756	94.51	110.57
0	513302	94.61	110.715
0	513848	94.71	110.859
0	514394	94.81	111.003
0	514940	94.91	111.148
0	515494	95.01	111.292
0	516040	95.11	111.437
0	516586	95.21	111.581
0	517132	95.31	111.726
0	517678	95.41	111.87
0	518224	95.51	112.014
0	518770	95.61	112.159
0	519316	95.71	112.303
0	519862	95.81	112.448
0	520408	95.91	112.592
0	520962	96.01	112.737
0	521508	96.11	112.881
0	522054	96.21	113.026
0	522600	96.31	113.17
0	523146	96.41	113.314
0	523692	96.51	113.459
0	524238	96.61	113.603
0	524784	96.71	113.748
0	525330	96.81	113.892
0	525876	96.91	114.037
0	526430	97.01	114.181
0	526976	97.11	114.326
0	527522	97.21	114.47
0	528068	97.31	114.614
0	528614	97.41	114.759
0	529160	97.51	114.903
0	529706	97.61	115.048
0	530252	97.71	115.192
0	530798	97.81	115.337
0	531344	97.91	115.481
0	531898	98.01	115.625
0	532444	98.11	115.77
0	532990	98.21	115.914
0	533536	98.31	116.059
0	534082	98.41	116.203
0	534628	98.51	116.348
0	535174	98.61	116.492
0	535720	98.71	116.637
0	536266	98.81	116.781
0	536812	98.91	116.925
0	537366	99.01	117.07
0	537912	99.11	117.214
0	538458	99.21	117.359
0	539004	99.31	117.503
0	539550	99.41	117.648
0	540096	99.51	117.792
0	540642	99.61	117.937
0	541188	99.71	118.081
0	541734	99.81	118.225
0	542280	99.91	118.37
1	113	1.11	0
1	659	1.21	0
1	1205	1.31	0
1	1751	1.41	0
1	2297	1.51	0
1	2843	1.61	0
1	3389	1.71	0
1	3935	1.81	0
1	4481	1.91	0
1	5035	2.01	0
1	5581	2.11	0
1	6127	2.21	0
1	6673	2.31	0
1	7219	2.41	0
1	7765	2.51	0
1	8311	2.61	0
1	8857	2.71	0
1	9403	2.81	0
1	9949	2.91	0
1	10503	3.01	0
1	11049	3.11	0
1	11595	3.21	0
1	12141	3.31	0
1	12687	3.41	0
1	13233	3.51	0
1	13779	3.61	0
1	14325	3.71	0
1	14871	3.81	0
1	15417	3.91	0
1	15971	4.01	0
1	16517	4.11	0
1	17063	4.21	0
1	17609	4.31	0
1	18155	4.41	0
1	18701	4.51	0
1	19247	4.61	0
1	19793	4.71	0
1	20339	4.81	0
1	20885	4.91	0
1	21439	5.01	0
1	21985	5.11	0
1	22531	5.21	0
1	23077	5.31	0
1	23623	5.41	0
1	24169	5.51	0
1	24715	5.61	0
1	25261	5.71	0
1	25807	5.81	0
1	26353	5.91	0
1	26907	6.01	0
1	27453	6.11	0
1	27999	6.21	0
1	28545	6.31	0
1	29091	6.41	0
1	29637	6.51	0
1	30183	6.61	0
1	30729	6.71	0
1	31275	6.81	0
1	31821	6.91	0
1	32375	7.01	0
1	32921	7.11	0
1	33467	7.21	0
1	34013	7.31	0
1	34559	7.41	0
1	35105	7.51	0
1	35651	7.61	0
1	36197	7.71	0
1	36743	7.81	0
1	37289	7.91	0
1	37843	8.01	0
1	38389	8.11	0
1	38935	8.21	0
1	39481	8.31	0
1	40027	8.41	0
1	40573	8.51	0
1	41119	8.61	0
1	41665	8.71	0
1	42211	8.81	0
1	42757	8.91	0
1	43311	9.01	0
1	43857	9.11	0
1	44403	9.21	0
1	44949	9.31	0
1	45495	9.41	0
1	46041	9.51	0
1	46587	9.61	0
1	47133	9.71	0
1	47679	9.81	0
1	48225	9.91	0
1	50714	10.01	0
1	51260	10.11	0
1	51806	10.21	0
1	52352	10.31	0
1	52898	10.41	0
1	53444	10.51	0
1	53990	10.61	0
1	54536	10.71	0
1	55082	10.81	0
1	55628	10.91	0
1	56182	11.01	0
1	56728	11.11	0
1	57274	11.21	0
1	57820	11.31	0
1	58366	11.41	0
1	58912	11.51	0
1	59458	11.61	0
1	60004	11.71	0
1	60550	11.81	0
1	61096	11.91	0
1	61650	12.01	0
1	62196	12.11	0
1	62742	12.21	0
1	63288	12.31	0
1	63834	12.41	0
1	64380	12.51	0
1	64926	12.61	0
1	65472	12.71	0
1	66018	12.81	0
1	66564	12.91	0
1	67118	13.01	0
1	67664	13.11	0
1	68210	13.21	0
1	68756	13.31	0
1	69302	13.41	0
1	69848	13.51	0
1	70394	13.61	0
1	70940	13.71	0
1	71486	13.81	0
1	72032	13.91	0
1	72586	14.01	0
1	73132	14.11	0
1	73678	14.21	0
1	74224	14.31	0
1	74770	14.41	0
1	75316	14.51	0
1	75862	14.61	0
1	76408	14.71	0
1	76954	14.81	0
1	77500	14.91	0
1	78054	15.01	0
1	78600	15.11	0
1	79146	15.21	0
1	79692	15.31	0
1	80238	15.41	0
1	80784	15.51	0
1	81330	15.61	0
1	81876	15.71	0
1	82422	15.81	0
1	82968	15.91	0
1	83522	16.01	0
1	84068	16.11	0
1	84614	16.21	0
1	85160	16.31	0
1	85706	16.41	0
1	86252	16.51	0
1	86798	16.61	0
1	87344	16.71	0
1	87890	16.81	0
1	88436	16.91	0
1	88990	17.01	0
1	89536	17.11	0
1	90082	17.21	0
1	90628	17.31	0
1	91174	17.41	0
1	91720	17.51	0
1	92266	17.61	0
1	92812	17.71	0
1	93358	17.81	0
1	93904	17.91	0
1	94458	18.01	0
1	95004	18.11	0
1	95550	18.21	0
1	96096	18.31	0
1	96642	18.41	0
1	97188	18.51	0
1	97734	18.61	0
1	98280	18.71	0
1	98826	18.81	0
1	99372	18.91	0
1	99926	19.01	0
1	100472	19.11	0
1	101018	19.21	0
1	101564	19.31	0
1	102110	19.41	0
1	102656	19.51	0
1	103202	19.61	0
1	103748	19.71	0
1	104294	19.81	0
1	104840	19.91	0
1	105394	20.01	0
1	105940	20.11	0
1	106486	20.21	0
1	107032	20.31	0
1	107578	20.41	0
1	108124	20.51	0
1	108670	20.61	0
1	109216	20.71	0
1	109762	20.81	0
1	110308	20.91	0
1	110862	21.01	0
1	111408	21.11	0
1	111954	21.21	0
1	112500	21.31	0
1	113046	21.41	0
1	113592	21.51	0
1	114138	21.61	0
1	114684	21.71	0
1	115230	21.81	0
1	115776	21.91	0
1	116330	22.01	0
1	116876	22.11	0
1	117422	22.21	0
1	117968	22.31	0
1	118514	22.41	0
1	119060	22.51	0
1	119606	22.61	0
1	120152	22.71	0
1	120698	22.81	0
1	121244	22.91	0
1	121798	23.01	0
1	122344	23.11	0
1	122890	23.21	0
1	123436	23.31	0
1	123982	23.41	0
1	124528	23.51	0
1	125074	23.61	0
1	125620	23.71	0
1	126166	23.81	0
1	126712	23.91	0
1	127266	24.01	0
1	127812	24.11	0
1	128358	24.21	0
1	128904	24.31	0
1	129450	24.41	0
1	129996	24.51	0
1	130542	24.61	0
1	131088	24.71	0
1	131634	24.81	0
1	132180	24.91	0
1	132734	25.01	0
1	133280	25.11	0
1	133826	25.21	0
1	134372	25.31	0
1	134918	25.41	0
1	135464	25.51	0
1	136010	25.61	0
1	136556	25.71	0
1	137102	25.81	0
1	137648	25.91	0
1	138202	26.01	0
1	138748	26.11	0
1	139294	26.21	0
1	139840	26.31	0
1	140386	26.41	0
1	140932	26.51	0
1	141478	26.61	0
1	142024	26.71	0
1	142570	26.81	0
1	143116	26.91	0
1	143670	27.01	0
1	144216	27.11	0
1	144762	27.21	0
1	145308	27.31	0
1	145854	27.41	0
1	146400	27.51	0
1	146946	27.61	0
1	147492	27.71	0
1	148038	27.81	0
1	148584	27.91	0
1	149138	28.01	0
1	149684	28.11	0
1	150230	28.21	0
1	150776	28.31	0
1	151322	28.41	0
1	151868	28.51	0
1	152414	28.61	0
1	152960	28.71	0
1	153506	28.81	0
1	154052	28.91	0
1	154606	29.01	0
1	155152	29.11	0
1	155698	29.21	0
1	156244	29.31	0
1	156790	29.41	0
1	157336	29.51	0
1	157882	29.61	0
1	158428	29.71	0
1	158974	29.81	0
1	159520	29.91	0
1	160074	30.01	0
1	160620	30.11	0
1	161166	30.21	0
1	161712	30.31	0
1	162258	30.41	0
1	162804	30.51	0
1	163350	30.61	0
1	163896	30.71	0
1	164442	30.81	0
1	164988	30.91	0
1	165542	31.01	0
1	166088	31.11	0
1	166634	31.21	0
1	167180	31.31	0
1	167726	31.41	0
1	168272	31.51	0
1	168818	31.61	0
1	169364	31.71	0
1	169910	31.81	0
1	170456	31.91	0
1	171010	32.01	0
1	171556	32.11	0
1	172102	32.21	0
1	172648	32.31	0
1	173194	32.41	0
1	173740	32.51	0
1	174286	32.61	0
1	174832	32.71	0
1	175378	32.81	0
1	175924	32.91	0
1	176478	33.01	0
1	177024	33.11	0
1	177570	33.21	0
1	178116	33.31	0
1	178662	33.41	0
1	179208	33.51	0
1	179754	33.61	0
1	180300	33.71	0
1	180846	33.81	0
1	181392	33.91	0
1	181946	34.01	0
1	182492	34.11	0
1	183038	34.21	0
1	183584	34.31	0
1	184130	34.41	0
1	184676	34.51	0
1	185222	34.61	0
1	185768	34.71	0
1	186314	34.81	0
1	186860	34.91	0
1	187414	35.01	0
1	187960	35.11	0
1	188506	35.21	0
1	189052	35.31	0
1	189598	35.41	0
1	190144	35.51	0
1	190690	35.61	0
1	191236	35.71	1.4444
1	191782	35.81	1.4444
1	192328	35.91	1.4444
1	192882	36.01	1.4444
1	193428	36.11	1.4444
1	193974	36.21	1.4444
1	194520	36.31	1.4444
1	195066	36.41	1.4444
1	195612	36.51	1.4444
1	196158	36.61	1.4444
1	196704	36.71	1.4444
1	197250	36.81	1.4444
1	197796	36.91	1.4444
1	198350	37.01	1.4444
1	198896	37.11	1.4444
1	199442	37.21	1.4444
1	199988	37.31	1.4444
1	200534	37.41	1.4444
1	201080	37.51	1.4444
1	201626	37.61	1.4444
1	202172	37.71	1.4444
1	202718	37.81	1.4444
1	203264	37.91	1.4444
1	203818	38.01	1.4444
1	204364	38.11	1.4444
1	204910	38.21	1.4444
1	205456	38.31	1.4444
1	206002	38.41	1.4444
1	206548	38.51	1.4444
1	207094	38.61	1.4444
1	207640	38.71	1.4444
1	208186	38.81	1.4444
1	208732	38.91	1.4444
1	209286	39.01	1.4444
1	209832	39.11	1.4444
1	210378	39.21	1.4444
1	210924	39.31	1.4444
1	211470	39.41	1.4444
1	212016	39.51	1.4444
1	212562	39.61	1.4444
1	213108	39.71	1.4444
1	213654	39.81	1.4444
1	214200	39.91	1.4444
1	214754	40.01	1.4444
1	215300	40.11	1.4444
1	215846	40.21	1.4444
1	216392	40.31	1.4444
1	216938	40.41	1.4444
1	217484	40.51	1.4444
1	218030	40.61	1.4444
1	218576	40.71	1.4444
1	219122	40.81	1.4444
1	219668	40.91	1.4444
1	220222	41.01	1.4444
1	220768	41.11	1.4444
1	221314	41.21	1.4444
1	221860	41.31	1.4444
1	222406	41.41	1.4444
1	222952	41.51	1.4444
1	223498	41.61	1.4444
1	224044	41.71	1.4444
1	224590	41.81	1.4444
1	225136	41.91	1.4444
1	225690	42.01	1.4444
1	226236	42.11	1.4444
1	226782	42.21	1.4444
1	227328	42.31	1.4444
1	227874	42.41	1.4444
1	228420	42.51	1.4444
1	228966	42.61	1.4444
1	229512	42.71	1.4444
1	230058	42.81	1.4444
1	230604	42.91	1.4444
1	231158	43.01	1.4444
1	231704	43.11	1.4444
1	232250	43.21	1.4444
1	232796	43.31	1.4444
1	233342	43.41	1.4444
1	233888	43.51	1.4444
1	234434	43.61	1.4444
1	234980	43.71	1.4444
1	235526	43.81	1.4444
1	236072	43.91	1.4444
1	236626	44.01	1.4444
1	237172	44.11	1.4444
1	237718	44.21	1.4444
1	238264	44.31	1.4444
1	238810	44.41	1.4444
1	239356	44.51	1.4444
1	239902	44.61	1.4444
1	240448	44.71	1.4444
1	240994	44.81	1.4444
1	241540	44.91	1.4444
1	242094	45.01	1.4444
1	242640	45.11	1.4444
1	243186	45.21	1.4444
1	243732	45.31	1.4444
1	244278	45.41	1.4444
1	244824	45.51	1.4444
1	245370	45.61	1.4444
1	245916	45.71	1.4444
1	246462	45.81	1.4444
1	247008	45.91	1.4444
1	247562	46.01	1.4444
1	248108	46.11	1.4444
1	248654	46.21	1.4444
1	249200	46.31	1.4444
1	249746	46.41	1.4444
1	250292	46.51	1.4444
1	250838	46.61	1.4444
1	251384	46.71	1.4444
1	251930	46.81	1.4444
1	252476	46.91	1.4444
1	253030	47.01	1.4444
1	253576	47.11	1.4444
1	254122	47.21	1.4444
1	254668	47.31	1.4444
1	255214	47.41	1.4444
1	255760	47.51	1.4444
1	256306	47.61	1.4444
1	256852	47.71	1.4444
1	257398	47.81	1.4444
1	257944	47.91	1.4444
1	258498	48.01	1.4444
1	259044	48.11	1.4444
1	259590	48.21	1.4444
1	260136	48.31	1.4444
1	260682	48.41	1.4444
1	261228	48.51	1.4444
1	261774	48.61	1.4444
1	262320	48.71	1.4444
1	262866	48.81	1.4444
1	263412	48.91	1.4444
1	263966	49.01	1.4444
1	264512	49.11	1.4444
1	265058	49.21	1.4444
1	265604	49.31	1.4444
1	266150	49.41	1.4444
1	266696	49.51	1.4444
1	267242	49.61	1.4444
1	267788	49.71	1.4444
1	268334	49.81	1.4444
1	268880	49.91	1.4444
1	269434	50.01	1.4444
1	269980	50.11	1.4444
1	270526	50.21	1.4444
1	271072	50.31	1.4444
1	271618	50.41	1.4444
1	272164	50.51	1.4444
1	272710	50.61	1.4444
1	273256	50.71	1.4444
1	273802	50.81	1.4444
1	274348	50.91	1.4444
1	274902	51.01	1.4444
1	275448	51.11	1.4444
1	275994	51.21	1.4444
1	276540	51.31	1.4444
1	277086	51.41	1.4444
1	277632	51.51	1.4444
1	278178	51.61	1.4444
1	278724	51.71	1.4444
1	279270	51.81	1.4444
1	279816	51.91	1.4444
1	280370	52.01	1.4444
1	280916	52.11	1.4444
1	281462	52.21	1.4444
1	282008	52.31	1.4444
1	282554	52.41	1.4444
1	283100	52.51	1.4444
1	283646	52.61	1.4444
1	284192	52.71	1.4444
1	284738	52.81	1.4444
1	285284	52.91	1.4444
1	285838	53.01	1.4444
1	286384	53.11	1.4444
1	286930	53.21	1.4444
1	287476	53.31	1.4444
1	288022	53.41	1.4444
1	288568	53.51	1.4444
1	289114	53.61	1.4444
1	289660	53.71	1.4444
1	290206	53.81	1.4444
1	290752	53.91	1.4444
1	291306	54.01	1.4444
1	291852	54.11	1.4444
1	292398	54.21	1.4444
1	292944	54.31	1.4444
1	293490	54.41	1.4444
1	294036	54.51	1.4444
1	294582	54.61	1.4444
1	295128	54.71	1.4444
1	295674	54.81	1.4444
1	296220	54.91	1.4444
1	296774	55.01	1.4444
1	297320	55.11	1.4444
1	297866	55.21	1.4444
1	298412	55.31	1.4444
1	298958	55.41	1.4444
1	299504	55.51	1.4444
1	300050	55.61	1.4444
1	300596	55.71	1.4444
1	301142	55.81	1.4444
1	301688	55.91	1.4444
1	302242	56.01	1.4444
1	302788	56.11	1.4444
1	303334	56.21	1.4444
1	303880	56.31	1.4444
1	304426	56.41	1.4444
1	304972	56.51	1.4444
1	305518	56.61	1.4444
1	306064	56.71	1.4444
1	306610	56.81	1.4444
1	307156	56.91	1.4444
1	307710	57.01	1.4444
1	308256	57.11	1.4444
1	308802	57.21	1.4444
1	309348	57.31	1.4444
1	309894	57.41	1.4444
1	310440	57.51	1.4444
1	310986	57.61	1.4444
1	311532	57.71	1.4444
1	312078	57.81	1.4444
1	312624	57.91	1.4444
1	313178	58.01	1.4444
1	313724	58.11	1.4444
1	314270	58.21	1.4444
1	314816	58.31	1.4444
1	315362	58.41	1.4444
1	315908	58.51	1.4444
1	316454	58.61	1.4444
1	317000	58.71	1.4444
1	317546	58.81	1.4444
1	318092	58.91	1.4444
1	318646	59.01	1.4444
1	319192	59.11	1.4444
1	319738	59.21	1.4444
1	320284	59.31	1.4444
1	320830	59.41	1.4444
1	321376	59.51	1.4444
1	321922	59.61	1.4444
1	322468	59.71	1.4444
1	323014	59.81	1.4444
1	323560	59.91	1.4444
1	324114	60.01	1.4444
1	324660	60.11	1.4444
1	325206	60.21	1.4444
1	325752	60.31	1.4444
1	326298	60.41	1.4444
1	326844	60.51	1.4444
1	327390	60.61	1.4444
1	327936	60.71	1.4444
1	328482	60.81	1.4444
1	329028	60.91	1.4444
1	329582	61.01	1.4444
1	330128	61.11	1.4444
1	330674	61.21	1.4444
1	331220	61.31	1.4444
1	331766	61.41	1.4444
1	332312	61.51	1.4444
1	332858	61.61	1.4444
1	333404	61.71	1.4444
1	333950	61.81	1.4444
1	334496	61.91	1.4444
1	335050	62.01	1.4444
1	335596	62.11	1.4444
1	336142	62.21	1.4444
1	336688	62.31	1.4444
1	337234	62.41	1.4444
1	337780	62.51	1.4444
1	338326	62.61	1.4444
1	338872	62.71	1.4444
1	339418	62.81	1.4444
1	339964	62.91	1.4444
1	340518	63.01	1.4444
1	341064	63.11	1.4444
1	341610	63.21	1.4444
1	342156	63.31	1.4444
1	342702	63.41	1.4444
1	343248	63.51	1.4444
1	343794	63.61	1.4444
1	344340	63.71	1.4444
1	344886	63.81	1.4444
1	345432	63.91	1.4444
1	345986	64.01	1.4444
1	346532	64.11	1.4444
1	347078	64.21	1.4444
1	347624	64.31	1.4444
1	348170	64.41	1.4444
1	348716	64.51	1.4444
1	349262	64.61	1.4444
1	349808	64.71	1.4444
1	350354	64.81	1.4444
1	350900	64.91	1.4444
1	351454	65.01	1.4444
1	352000	65.11	1.4444
1	352546	65.21	1.4444
1	353092	65.31	1.4444
1	353638	65.41	1.4444
1	354184	65.51	1.4444
1	354730	65.61	1.4444
1	355276	65.71	1.4444
1	355822	65.81	1.4444
1	356368	65.91	1.4444
1	356922	66.01	1.4444
1	357468	66.11	1.4444
1	358014	66.21	1.4444
1	358560	66.31	1.4444
1	359106	66.41	1.4444
1	359652	66.51	1.4444
1	360198	66.61	1.4444
1	360744	66.71	1.4444
1	361290	66.81	1.4444
1	361836	66.91	1.4444
1	362390	67.01	1.4444
1	362936	67.11	1.4444
1	363482	67.21	1.4444
1	364028	67.31	1.4444
1	364574	67.41	1.4444
1	365120	67.51	1.4444
1	365666	67.61	1.4444
1	366212	67.71	1.4444
1	366758	67.81	1.4444
1	367304	67.91	1.4444
1	367858	68.01	1.4444
1	368404	68.11	1.4444
1	368950	68.21	1.4444
1	369496	68.31	1.4444
1	370042	68.41	1.4444
1	370588	68.51	1.4444
1	371134	68.61	1.4444
1	371680	68.71	1.4444
1	372226	68.81	1.4444
1	372772	68.91	1.4444
1	373326	69.01	1.4444
1	373872	69.11	1.4444
1	374418	69.21	1.4444
1	374964	69.31	1.4444
1	375510	69.41	1.4444
1	376056	69.51	1.4444
1	376602	69.61	1.4444
1	377148	69.71	1.4444
1	377694	69.81	1.4444
1	378240	69.91	1.4444
1	378794	70.01	1.4444
1	379340	70.11	1.4444
1	379886	70.21	1.4444
1	380432	70.31	1.4444
1	380978	70.41	1.4444
1	381524	70.51	1.4444
1	382070	70.61	1.4444
1	382616	70.71	1.4444
1	383162	70.81	1.4444
1	383708	70.91	1.4444
1	384262	71.01	1.4444
1	384808	71.11	1.4444
1	385354	71.21	1.4444
1	385900	71.31	1.4444
1	386446	71.41	1.4444
1	386992	71.51	1.4444
1	387538	71.61	1.4444
1	388084	71.71	1.4444
1	388630	71.81	1.4444
1	389176	71.91	1.4444
1	389730	72.01	1.4444
1	390276	72.11	1.4444
1	390822	72.21	1.4444
1	391368	72.31	1.4444
1	391914	72.41	1.4444
1	392460	72.51	1.4444
1	393006	72.61	1.4444
1	393552	72.71	1.4444
1	394098	72.81	1.4444
1	394644	72.91	1.4444
1	395198	73.01	1.4444
1	395744	73.11	1.4444
1	396290	73.21	1.4444
1	396836	73.31	1.4444
1	397382	73.41	1.4444
1	397928	73.51	1.4444
1	398474	73.61	1.4444
1	399020	73.71	1.4444
1	399566	73.81	1.4444
1	400112	73.91	1.4444
1	400666	74.01	1.4444
1	401212	74.11	1.4444
1	401758	74.21	1.4444
1	402304	74.31	1.4444
1	402850	74.41	1.4444
1	403396	74.51	1.4444
1	403942	74.61	1.4444
1	404488	74.71	1.4444
1	405034	74.81	1.4444
1	405580	74.91	1.4444
1	406134	75.01	1.4444
1	406680	75.11	1.4444
1	407226	75.21	1.4444
1	407772	75.31	1.4444
1	408318	75.41	1.4444
1	408864	75.51	1.4444
1	409410	75.61	1.4444
1	409956	75.71	1.4444
1	410502	75.81	1.4444
1	411048	75.91	1.4444
1	411602	76.01	1.4444
1	412148	76.11	1.4444
1	412694	76.21	1.4444
1	413240	76.31	1.4444
1	413786	76.41	1.4444
1	414332	76.51	1.4444
1	414878	76.61	1.4444
1	415424	76.71	1.4444
1	415970	76.81	1.4444
1	416516	76.91	1.4444
1	417070	77.01	1.4444
1	417616	77.11	1.4444
1	418162	77.21	1.4444
1	418708	77.31	1.4444
1	419254	77.41	1.4444
1	419800	77.51	1.4444
1	420346	77.61	1.4444
1	420892	77.71	1.4444
1	421438	77.81	1.4444
1	421984	77.91	1.4444
1	422538	78.01	1.4444
1	423084	78.11	1.4444
1	423630	78.21	1.4444
1	424176	78.31	1.4444
1	424722	78.41	1.4444
1	425268	78.51	1.4444
1	425814	78.61	1.4444
1	426360	78.71	1.4444
1	426906	78.81	1.4444
1	427452	78.91	1.4444
1	428006	79.01	1.4444
1	428552	79.11	1.4444
1	429098	79.21	1.4444
1	429644	79.31	1.4444
1	430190	79.41	1.4444
1	430736	79.51	1.4444
1	431282	79.61	1.4444
1	431828	79.71	1.4444
1	432374	79.81	1.4444
1	432920	79.91	1.4444
1	433474	80.01	1.4444
1	434020	80.11	1.4444
1	434566	80.21	1.4444
1	435112	80.31	1.4444
1	435658	80.41	1.4444
1	436204	80.51	1.4444
1	436750	80.61	1.4444
1	437296	80.71	1.4444
1	437842	80.81	1.4444
1	438388	80.91	1.4444
1	438942	81.01	1.4444
1	439488	81.11	1.4444
1	440034	81.21	1.4444
1	440580	81.31	1.4444
1	441126	81.41	1.4444
1	441672	81.51	1.4444
1	442218	81.61	1.4444
1	442764	81.71	1.4444
1	443310	81.81	1.4444
1	443856	81.91	1.4444
1	444410	82.01	1.4444
1	444956	82.11	1.4444
1	445502	82.21	1.4444
1	446048	82.31	1.4444
1	446594	82.41	1.4444
1	447140	82.51	1.4444
1	447686	82.61	1.4444
1	448232	82.71	1.4444
1	448778	82.81	1.4444
1	449324	82.91	1.4444
1	449878	83.01	1.4444
1	450424	83.11	1.4444
1	450970	83.21	1.4444
1	451516	83.31	1.4444
1	452062	83.41	1.4444
1	452608	83.51	1.4444
1	453154	83.61	1.4444
1	453700	83.71	1.4444
1	454246	83.81	1.4444
1	454792	83.91	1.4444
1	455346	84.01	1.4444
1	455892	84.11	1.4444
1	456438	84.21	1.4444
1	456984	84.31	1.4444
1	457530	84.41	1.4444
1	458076	84.51	1.4444
1	458622	84.61	1.4444
1	459168	84.71	1.4444
1	459714	84.81	1.4444
1	460260	84.91	1.4444
1	460814	85.01	1.4444
1	461360	85.11	1.4444
1	461906	85.21	1.4444
1	462452	85.31	1.4444
1	462998	85.41	1.4444
1	463544	85.51	1.4444
1	464090	85.61	1.4444
1	464636	85.71	1.4444
1	465182	85.81	1.4444
1	465728	85.91	1.4444
1	466282	86.01	1.4444
1	466828	86.11	1.4444
1	467374	86.21	1.4444
1	467920	86.31	1.4444
1	468466	86.41	1.4444
1	469012	86.51	1.4444
1	469558	86.61	1.4444
1	470104	86.71	1.4444
1	470650	86.81	1.4444
1	471196	86.91	1.4444
1	471750	87.01	1.4444
1	472296	87.11	1.4444
1	472842	87.21	1.4444
1	473388	87.31	1.4444
1	473934	87.41	1.4444
1	474480	87.51	1.4444
1	475026	87.61	1.4444
1	475572	87.71	1.4444
1	476118	87.81	1.4444
1	476664	87.91	1.4444
1	477218	88.01	1.4444
1	477764	88.11	1.4444
1	478310	88.21	1.4444
1	478856	88.31	1.4444
1	479402	88.41	1.4444
1	479948	88.51	1.4444
1	480494	88.61	1.4444
1	481040	88.71	1.4444
1	481586	88.81	1.4444
1	482132	88.91	1.4444
1	482686	89.01	1.4444
1	483232	89.11	1.4444
1	483778	89.21	1.4444
1	484324	89.31	1.4444
1	484870	89.41	1.4444
1	485416	89.51	1.4444
1	485962	89.61	1.4444
1	486508	89.71	1.4444
1	487054	89.81	1.4444
1	487600	89.91	1.4444
1	488154	90.01	1.4444
1	488700	90.11	1.4444
1	489246	90.21	1.4444
1	489792	90.31	1.4444
1	490338	90.41	1.4444
1	490884	90.51	1.4444
1	491430	90.61	1.4444
1	491976	90.71	1.4444
1	492522	90.81	1.4444
1	493068	90.91	1.4444
1	493622	91.01	1.4444
1	494168	91.11	1.4444
1	494714	91.21	1.4444
1	495260	91.31	1.4444
1	495806	91.41	1.4444
1	496352	91.51	1.4444
1	496898	91.61	1.4444
1	497444	91.71	1.4444
1	497990	91.81	1.4444
1	498536	91.91	1.4444
1	499090	92.01	1.4444
1	499636	92.11	1.4444
1	500182	92.21	1.4444
1	500728	92.31	1.4444
1	501274	92.41	1.4444
1	501820	92.51	1.4444
1	502366	92.61	1.4444
1	502912	92.71	1.4444
1	503458	92.81	1.4444
1	504004	92.91	1.4444
1	504558	93.01	1.4444
1	505104	93.11	1.4444
1	505650	93.21	1.4444
1	506196	93.31	1.4444
1	506742	93.41	1.4444
1	507288	93.51	1.4444
1	507834	93.61	1.4444
1	508380	93.71	1.4444
1	508926	93.81	1.4444
1	509472	93.91	1.4444
1	510026	94.01	1.4444
1	510572	94.11	1.4444
1	511118	94.21	1.4444
1	511664	94.31	1.4444
1	512210	94.41	1.4444
1	512756	94.51	1.4444
1	513302	94.61	1.4444
1	513848	94.71	1.4444
1	514394	94.81	1.4444
1	514940	94.91	1.4444
1	515494	95.01	1.4444
1	516040	95.11	1.4444
1	516586	95.21	1.4444
1	517132	95.31	1.4444
1	517678	95.41	1.4444
1	518224	95.51	1.4444
1	518770	95.61	1.4444
1	519316	95.71	1.4444
1	519862	95.81	1.4444
1	520408	95.91	1.4444
1	520962	96.01	1.4444
1	521508	96.11	1.4444
1	522054	96.21	1.4444
1	522600	96.31	1.4444
1	523146	96.41	1.4444
1	523692	96.51	1.4444
1	524238	96.61	1.4444
1	524784	96.71	1.4444
1	525330	96.81	1.4444
1	525876	96.91	1.4444
1	526430	97.01	1.4444
1	526976	97.11	1.4444
1	527522	97.21	1.4444
1	528068	97.31	1.4444
1	528614	97.41	1.4444
1	529160	97.51	1.4444
1	529706	97.61	1.4444
1	530252	97.71	1.4444
1	530798	97.81	1.4444
1	531344	97.91	1.4444
1	531898	98.01	1.4444
1	532444	98.11	1.4444
1	532990	98.21	1.4444
1	533536	98.31	1.4444
1	534082	98.41	1.4444
1	534628	98.51	1.4444
1	535174	98.61	1.4444
1	535720	98.71	1.4444
1	536266	98.81	1.4444
1	536812	98.91	1.4444
1	537366	99.01	1.4444
1	537912	99.11	1.4444
1	538458	99.21	1.4444
1	539004	99.31	1.4444
1	539550	99.41	1.4444
1	540096	99.51	1.4444
1	540642	99.61	1.4444
1	541188	99.71	1.4444
1	541734	99.81	1.4444
1	542280	99.91	1.4444
2	113	1.11	0
2	659	1.21	0
2	1205	1.31	0
2	1751	1.41	0
2	2297	1.51	0
2	2843	1.61	0
2	3389	1.71	0
2	3935	1.81	0
2	4481	1.91	0
2	5035	2.01	0
2	5581	2.11	0
2	6127	2.21	0
2	6673	2.31	0
2	7219	2.41	0
2	7765	2.51	0
2	8311	2.61	0
2	8857	2.71	0
2	9403	2.81	0
2	9949	2.91	0
2	10503	3.01	0
2	11049	3.11	0
2	11595	3.21	0
2	12141	3.31	0
2	12687	3.41	0
2	13233	3.51	0
2	13779	3.61	0
2	14325	3.71	0
2	14871	3.81	0
2	15417	3.91	0
2	15971	4.01	0
2	16517	4.11	0
2	17063	4.21	0
2	17609	4.31	0
2	18155	4.41	0
2	18701	4.51	0
2	19247	4.61	0
2	19793	4.71	0
2	20339	4.81	0
2	20885	4.91	0
2	21439	5.01	0
2	21985	5.11	0
2	22531	5.21	0
2	23077	5.31	0
2	23623	5.41	0
2	24169	5.51	0
2	24715	5.61	0
2	25261	5.71	0
2	25807	5.81	0
2	26353	5.91	0
2	26907	6.01	0
2	27453	6.11	0
2	27999	6.21	0
2	28545	6.31	0
2	29091	6.41	0
2	29637	6.51	0
2	30183	6.61	0
2	30729	6.71	0
2	31275	6.81	0
2	31821	6.91	0
2	32375	7.01	0
2	32921	7.11	0
2	33467	7.21	0
2	34013	7.31	0
2	34559	7.41	0
2	35105	7.51	0
2	35651	7.61	0
2	36197	7.71	0
2	36743	7.81	0
2	37289	7.91	0
2	37843	8.01	0
2	38389	8.11	0
2	38935	8.21	0
2	39481	8.31	0
2	40027	8.41	0
2	40573	8.51	0
2	41119	8.61	0
2	41665	8.71	0
2	42211	8.81	0
2	42757	8.91	0
2	43311	9.01	0
2	43857	9.11	0
2	44403	9.21	0
2	44949	9.31	0
2	45495	9.41	0
2	46041	9.51	0
2	46587	9.61	0
2	47133	9.71	0
2	47679	9.81	0
2	48225	9.91	0
2	50714	10.01	0
2	51260	10.11	0
2	51806	10.21	0
2	52352	10.31	0
2	52898	10.41	0
2	53444	10.51	0
2	53990	10.61	0
2	54536	10.71	0
2	55082	10.81	0
2	55628	10.91	0
2	56182	11.01	0
2	56728	11.11	0
2	57274	11.21	0
2	57820	11.31	0
2	58366	11.41	0
2	58912	11.51	0
2	59458	11.61	0
2	60004	11.71	0
2	60550	11.81	0
2	61096	11.91	0
2	61650	12.01	0
2	62196	12.11	0
2	62742	12.21	0
2	63288	12.31	0
2	63834	12.41	0
2	64380	12.51	0
2	64926	12.61	0
2	65472	12.71	0
2	66018	12.81	0
2	66564	12.91	0
2	67118	13.01	0
2	67664	13.11	0
2	68210	13.21	0
2	68756	13.31	0
2	69302	13.41	0
2	69848	13.51	0
2	70394	13.61	0
2	70940	13.71	0
2	71486	13.81	0
2	72032	13.91	0
2	72586	14.01	0
2	73132	14.11	0
2	73678	14.21	0
2	74224	14.31	0
2	74770	14.41	0
2	75316	14.51	0
2	75862	14.61	0
2	76408	14.71	0
2	76954	14.81	0
2	77500	14.91	0
2	78054	15.01	0
2	78600	15.11	0
2	79146	15.21	0
2	79692	15.31	0
2	80238	15.41	0
2	80784	15.51	0
2	81330	15.61	0
2	81876	15.71	0
2	82422	15.81	0
2	82968	15.91	0
2	83522	16.01	0
2	84068	16.11	0
2	84614	16.21	0
2	85160	16.31	0
2	85706	16.41	0
2	86252	16.51	0
2	86798	16.61	0
2	87344	16.71	0
2	87890	16.81	0
2	88436	16.91	0
2	88990	17.01	0
2	89536	17.11	0
2	90082	17.21	0
2	90628	17.31	0
2	91174	17.41	0
2	91720	17.51	0
2	92266	17.61	0
2	92812	17.71	0
2	93358	17.81	0
2	93904	17.91	0
2	94458	18.01	0
2	95004	18.11	0
2	95550	18.21	0
2	96096	18.31	0
2	96642	18.41	0
2	97188	18.51	0
2	97734	18.61	0
2	98280	18.71	0
2	98826	18.81	0
2	99372	18.91	0
2	99926	19.01	0
2	100472	19.11	0
2	101018	19.21	0
2	101564	19.31	0
2	102110	19.41	0
2	102656	19.51	0
2	103202	19.61	0
2	103748	19.71	0
2	104294	19.81	0
2	104840	19.91	0
2	105394	20.01	0
2	105940	20.11	0
2	106486	20.21	0
2	107032	20.31	0
2	107578	20.41	0
2	108124	20.51	0
2	108670	20.61	0
2	109216	20.71	0
2	109762	20.81	0
2	110308	20.91	0
2	110862	21.01	0
2	111408	21.11	0
2	111954	21.21	0
2	112500	21.31	0
2	113046	21.41	0
2	113592	21.51	0
2	114138	21.61	0
2	114684	21.71	0
2	115230	21.81	0
2	115776	21.91	0
2	116330	22.01	0
2	116876	22.11	0
2	117422	22.21	0
2	117968	22.31	0
2	118514	22.41	0
2	119060	22.51	0
2	119606	22.61	0
2	120152	22.71	0
2	120698	22.81	0
2	121244	22.91	0
2	121798	23.01	0
2	122344	23.11	0
2	122890	23.21	0
2	123436	23.31	0
2	123982	23.41	0
2	124528	23.51	0
2	125074	23.61	0
2	125620	23.71	0
2	126166	23.81	0
2	126712	23.91	0
2	127266	24.01	0
2	127812	24.11	0
2	128358	24.21	0
2	128904	24.31	0
2	129450	24.41	0
2	129996	24.51	0
2	130542	24.61	0
2	131088	24.71	0
2	131634	24.81	0
2	132180	24.91	0
2	132734	25.01	0
2	133280	25.11	0
2	133826	25.21	0
2	134372	25.31	0
2	134918	25.41	0
2	135464	25.51	0
2	136010	25.61	0
2	136556	25.71	0
2	137102	25.81	0
2	137648	25.91	0
2	138202	26.01	0
2	138748	26.11	0
2	139294	26.21	0
2	139840	26.31	0
2	140386	26.41	0
2	140932	26.51	0
2	141478	26.61	0
2	142024	26.71	0
2	142570	26.81	0
2	143116	26.91	0
2	143670	27.01	0
2	144216	27.11	0
2	144762	27.21	0
2	145308	27.31	0
2	145854	27.41	0
2	146400	27.51	0
2	146946	27.61	0
2	147492	27.71	0
2	148038	27.81	0
2	148584	27.91	0
2	149138	28.01	0
2	149684	28.11	0
2	150230	28.21	0
2	150776	28.31	0
2	151322	28.41	0
2	151868	28.51	0
2	152414	28.61	0
2	152960	28.71	0
2	153506	28.81	0
2	154052	28.91	0
2	154606	29.01	0
2	155152	29.11	0
2	155698	29.21	0
2	156244	29.31	0
2	156790	29.41	0
2	157336	29.51	0
2	157882	29.61	0
2	158428	29.71	0
2	158974	29.81	0
2	159520	29.91	0
2	160074	30.01	0
2	160620	30.11	0
2	161166	30.21	0
2	161712	30.31	0
2	162258	30.41	0
2	162804	30.51	0
2	163350	30.61	0
2	163896	30.71	0
2	164442	30.81	0
2	164988	30.91	0
2	165542	31.01	0
2	166088	31.11	0
2	166634	31.21	0
2	167180	31.31	0
2	167726	31.41	0
2	168272	31.51	0
2	168818	31.61	0
2	169364	31.71	0
2	169910	31.81	0
2	170456	31.91	0
2	171010	32.01	0
2	171556	32.11	0
2	172102	32.21	0
2	172648	32.31	0
2	173194	32.41	0
2	173740	32.51	0
2	174286	32.61	0
2	174832	32.71	0
2	175378	32.81	0
2	175924	32.91	0
2	176478	33.01	0
2	177024	33.11	0
2	177570	33.21	0
2	178116	33.31	0
2	178662	33.41	0
2	179208	33.51	0
2	179754	33.61	0
2	180300	33.71	0
2	180846	33.81	0
2	181392	33.91	0
2	181946	34.01	0
2	182492	34.11	0
2	183038	34.21	0
2	183584	34.31	0
2	184130	34.41	0
2	184676	34.51	0
2	185222	34.61	0
2	185768	34.71	0
2	186314	34.81	0
2	186860	34.91	0
2	187414	35.01	0
2	187960	35.11	0
2	188506	35.21	0
2	189052	35.31	0
2	189598	35.41	0
2	190144	35.51	0
2	190690	35.61	0
2	191236	35.71	0
2	191782	35.81	0
2	192328	35.91	0
2	192882	36.01	0
2	193428	36.11	0
2	193974	36.21	0
2	194520	36.31	0
2	195066	36.41	0
2	195612	36.51	0
2	196158	36.61	0
2	196704	36.71	0
2	197250	36.81	0
2	197796	36.91	0
2	198350	37.01	0
2	198896	37.11	0
2	199442	37.21	0
2	199988	37.31	0
2	200534	37.41	0
2	201080	37.51	0
2	201626	37.61	0
2	202172	37.71	0
2	202718	37.81	0
2	203264	37.91	0
2	203818	38.01	0
2	204364	38.11	0
2	204910	38.21	0
2	205456	38.31	0
2	206002	38.41	0
2	206548	38.51	0
2	207094	38.61	0
2	207640	38.71	0
2	208186	38.81	0
2	208732	38.91	0
2	209286	39.01	0
2	209832	39.11	0
2	210378	39.21	0
2	210924	39.31	0
2	211470	39.41	0
2	212016	39.51	0
2	212562	39.61	0
2	213108	39.71	0
2	213654	39.81	0
2	214200	39.91	0
2	214754	40.01	0
2	215300	40.11	0
2	215846	40.21	0
2	216392	40.31	0
2	216938	40.41	0
2	217484	40.51	0
2	218030	40.61	0
2	218576	40.71	0
2	219122	40.81	0
2	219668	40.91	0
2	220222	41.01	0
2	220768	41.11	0
2	221314	41.21	0
2	221860	41.31	0
2	222406	41.41	0
2	222952	41.51	0
2	223498	41.61	0
2	224044	41.71	0
2	224590	41.81	0
2	225136	41.91	0
2	225690	42.01	0
2	226236	42.11	0
2	226782	42.21	0
2	227328	42.31	0
2	227874	42.41	0
2	228420	42.51	0
2	228966	42.61	0
2	229512	42.71	0
2	230058	42.81	0
2	230604	42.91	0
2	231158	43.01	0
2	231704	43.11	0
2	232250	43.21	0
2	232796	43.31	0
2	233342	43.41	0
2	233888	43.51	0
2	234434	43.61	0
2	234980	43.71	0
2	235526	43.81	0
2	236072	43.91	0
2	236626	44.01	0
2	237172	44.11	0
2	237718	44.21	0
2	238264	44.31	0
2	238810	44.41	0
2	239356	44.51	0
2	239902	44.61	0
2	240448	44.71	0
2	240994	44.81	0
2	241540	44.91	0
2	242094	45.01	0
2	242640	45.11	0
2	243186	45.21	0
2	243732	45.31	0
2	244278	45.41	0
2	244824	45.51	0
2	245370	45.61	0
2	245916	45.71	0
2	246462	45.81	0
2	247008	45.91	0
2	247562	46.01	0
2	248108	46.11	0
2	248654	46.21	0
2	249200	46.31	0
2	249746	46.41	0
2	250292	46.51	0
2	250838	46.61	0
2	251384	46.71	0
2	251930	46.81	0
2	252476	46.91	0
2	253030	47.01	0
2	253576	47.11	0
2	254122	47.21	0
2	254668	47.31	0
2	255214	47.41	0
2	255760	47.51	0
2	256306	47.61	0
2	256852	47.71	0
2	257398	47.81	0
2	257944	47.91	0
2	258498	48.01	0
2	259044	48.11	0
2	259590	48.21	0
2	260136	48.31	0
2	260682	48.41	0
2	261228	48.51	0
2	261774	48.61	0
2	262320	48.71	0
2	262866	48.81	0
2	263412	48.91	0
2	263966	49.01	0
2	264512	49.11	0
2	265058	49.21	0
2	265604	49.31	0
2	266150	49.41	0
2	266696	49.51	0
2	267242	49.61	0
2	267788	49.71	0
2	268334	49.81	0
2	268880	49.91	0
2	269434	50.01	0
2	269980	50.11	0
2	270526	50.21	0
2	271072	50.31	0
2	271618	50.41	0
2	272164	50.51	0
2	272710	50.61	0
2	273256	50.71	0
2	273802	50.81	0
2	274348	50.91	0
2	274902	51.01	0
2	275448	51.11	0
2	275994	51.21	0
2	276540	51.31	0
2	277086	51.41	0
2	277632	51.51	0
2	278178	51.61	0
2	278724	51.71	0
2	279270	51.81	0
2	279816	51.91	0
2	280370	52.01	0
2	280916	52.11	0
2	281462	52.21	0
2	282008	52.31	0
2	282554	52.41	0
2	283100	52.51	0
2	283646	52.61	0
2	284192	52.71	0
2	284738	52.81	0
2	285284	52.91	0
2	285838	53.01	0
2	286384	53.11	0
2	286930	53.21	0
2	287476	53.31	0
2	288022	53.41	0
2	288568	53.51	0
2	289114	53.61	0
2	289660	53.71	0
2	290206	53.81	0
2	290752	53.91	0
2	291306	54.01	0
2	291852	54.11	0
2	292398	54.21	0
2	292944	54.31	0
2	293490	54.41	0
2	294036	54.51	0
2	294582	54.61	0
2	295128	54.71	0
2	295674	54.81	0
2	296220	54.91	0
2	296774	55.01	0
2	297320	55.11	0
2	297866	55.21	0
2	298412	55.31	0
2	298958	55.41	0
2	299504	55.51	0
2	300050	55.61	0
2	300596	55.71	0
2	301142	55.81	0
2	301688	55.91	0
2	302242	56.01	0
2	302788	56.11	0
2	303334	56.21	0
2	303880	56.31	0
2	304426	56.41	0
2	304972	56.51	0
2	305518	56.61	0
2	306064	56.71	0
2	306610	56.81	0
2	307156	56.91	0
2	307710	57.01	0
2	308256	57.11	0
2	308802	57.21	0
2	309348	57.31	0
2	309894	57.41	0
2	310440	57.51	0
2	310986	57.61	0
2	311532	57.71	0
2	312078	57.81	0
2	312624	57.91	0
2	313178	58.01	0
2	313724	58.11	0
2	314270	58.21	0
2	314816	58.31	0
2	315362	58.41	0
2	315908	58.51	0
2	316454	58.61	0
2	317000	58.71	0
2	317546	58.81	0
2	318092	58.91	0
2	318646	59.01	0
2	319192	59.11	0
2	319738	59.21	0
2	320284	59.31	0
2	320830	59.41	0
2	321376	59.51	0
2	321922	59.61	0
2	322468	59.71	0
2	323014	59.81	0
2	323560	59.91	0
2	324114	60.01	0
2	324660	60.11	0
2	325206	60.21	0
2	325752	60.31	0
2	326298	60.41	0
2	326844	60.51	0
2	327390	60.61	0
2	327936	60.71	0
2	328482	60.81	0
2	329028	60.91	0
2	329582	61.01	0
2	330128	61.11	0
2	330674	61.21	0
2	331220	61.31	0
2	331766	61.41	0
2	332312	61.51	0
2	332858	61.61	0
2	333404	61.71	0
2	333950	61.81	0
2	334496	61.91	0
2	335050	62.01	0
2	335596	62.11	0
2	336142	62.21	0
2	336688	62.31	0
2	337234	62.41	0
2	337780	62.51	0
2	338326	62.61	0
2	338872	62.71	0
2	339418	62.81	0
2	339964	62.91	0
2	340518	63.01	0
2	341064	63.11	0
2	341610	63.21	0
2	342156	63.31	0
2	342702	63.41	0
2	343248	63.51	0
2	343794	63.61	0
2	344340	63.71	0
2	344886	63.81	0
2	345432	63.91	0
2	345986	64.01	0
2	346532	64.11	0
2	347078	64.21	0
2	347624	64.31	0
2	348170	64.41	0
2	348716	64.51	0
2	349262	64.61	0
2	349808	64.71	0
2	350354	64.81	0
2	350900	64.91	0
2	351454	65.01	0
2	352000	65.11	0
2	352546	65.21	0
2	353092	65.31	0
2	353638	65.41	0
2	354184	65.51	0
2	354730	65.61	0
2	355276	65.71	0
2	355822	65.81	0
2	356368	65.91	0
2	356922	66.01	0
2	357468	66.11	0
2	358014	66.21	0
2	358560	66.31	0
2	359106	66.41	0
2	359652	66.51	0
2	360198	66.61	0
2	360744	66.71	0
2	361290	66.81	0
2	361836	66.91	0
2	362390	67.01	0
2	362936	67.11	0
2	363482	67.21	0
2	364028	67.31	0
2	364574	67.41	0
2	365120	67.51	0
2	365666	67.61	0
2	366212	67.71	0
2	366758	67.81	0
2	367304	67.91	0
2	367858	68.01	0
2	368404	68.11	0
2	368950	68.21	0
2	369496	68.31	0
2	370042	68.41	0
2	370588	68.51	0
2	371134	68.61	0
2	371680	68.71	0
2	372226	68.81	0
2	372772	68.91	0
2	373326	69.01	0
2	373872	69.11	0
2	374418	69.21	0
2	374964	69.31	0
2	375510	69.41	0
2	376056	69.51	0
2	376602	69.61	0
2	377148	69.71	0
2	377694	69.81	0
2	378240	69.91	0
2	378794	70.01	0
2	379340	70.11	0
2	379886	70.21	0
2	380432	70.31	0
2	380978	70.41	0
2	381524	70.51	0
2	382070	70.61	0
2	382616	70.71	0
2	383162	70.81	0
2	383708	70.91	0
2	384262	71.01	0
2	384808	71.11	0
2	385354	71.21	0
2	385900	71.31	0
2	386446	71.41	0
2	386992	71.51	0
2	387538	71.61	0
2	388084	71.71	0
2	388630	71.81	0
2	389176	71.91	0
2	389730	72.01	0
2	390276	72.11	0
2	390822	72.21	0
2	391368	72.31	0
2	391914	72.41	0
2	392460	72.51	0
2	393006	72.61	0
2	393552	72.71	0
2	394098	72.81	0
2	394644	72.91	0
2	395198	73.01	0
2	395744	73.11	0
2	396290	73.21	0
2	396836	73.31	0
2	397382	73.41	0
2	397928	73.51	0
2	398474	73.61	0
2	399020	73.71	0
2	399566	73.81	0
2	400112	73.91	0
2	400666	74.01	0
2	401212	74.11	0
2	401758	74.21	0
2	402304	74.31	0
2	402850	74.41	0
2	403396	74.51	0
2	403942	74.61	0
2	404488	74.71	0
2	405034	74.81	0
2	405580	74.91	0
2	406134	75.01	0
2	406680	75.11	0
2	407226	75.21	0
2	407772	75.31	0
2	408318	75.41	0
2	408864	75.51	0
2	409410	75.61	0
2	409956	75.71	0
2	410502	75.81	0
2	411048	75.91	0
2	411602	76.01	0
2	412148	76.11	0
2	412694	76.21	0
2	413240	76.31	0
2	413786	76.41	0
2	414332	76.51	0
2	414878	76.61	0
2	415424	76.71	0
2	415970	76.81	0
2	416516	76.91	0
2	417070	77.01	0
2	417616	77.11	0
2	418162	77.21	0
2	418708	77.31	0
2	419254	77.41	0
2	419800	77.51	0
2	420346	77.61	0
2	420892	77.71	0
2	421438	77.81	0
2	421984	77.91	0
2	422538	78.01	0
2	423084	78.11	0
2	423630	78.21	0
2	424176	78.31	0
2	424722	78.41	0
2	425268	78.51	0
2	425814	78.61	0
2	426360	78.71	0
2	426906	78.81	0
2	427452	78.91	0
2	428006	79.01	0
2	428552	79.11	0
2	429098	79.21	0
2	429644	79.31	0
2	430190	79.41	0
2	430736	79.51	0
2	431282	79.61	0
2	431828	79.71	0
2	432374	79.81	0
2	432920	79.91	0
2	433474	80.01	0
2	434020	80.11	0
2	434566	80.21	0
2	435112	80.31	0
2	435658	80.41	0
2	436204	80.51	0
2	436750	80.61	0
2	437296	80.71	0
2	437842	80.81	0
2	438388	80.91	0
2	438942	81.01	0
2	439488	81.11	0
2	440034	81.21	0
2	440580	81.31	0
2	441126	81.41	0
2	441672	81.51	0
2	442218	81.61	0
2	442764	81.71	0
2	443310	81.81	0
2	443856	81.91	0
2	444410	82.01	0
2	444956	82.11	0
2	445502	82.21	0
2	446048	82.31	0
2	446594	82.41	0
2	447140	82.51	0
2	447686	82.61	0
2	448232	82.71	0
2	448778	82.81	0
2	449324	82.91	0
2	449878	83.01	0
2	450424	83.11	0
2	450970	83.21	0
2	451516	83.31	0
2	452062	83.41	0
2	452608	83.51	0
2	453154	83.61	0
2	453700	83.71	0
2	454246	83.81	0
2	454792	83.91	0
2	455346	84.01	0
2	455892	84.11	0
2	456438	84.21	0
2	456984	84.31	0
2	457530	84.41	0
2	458076	84.51	0
2	458622	84.61	0
2	459168	84.71	0
2	459714	84.81	0
2	460260	84.91	0
2	460814	85.01	0
2	461360	85.11	0
2	461906	85.21	0
2	462452	85.31	0
2	462998	85.41	0
2	463544	85.51	0
2	464090	85.61	0
2	464636	85.71	0
2	465182	85.81	0
2	465728	85.91	0
2	466282	86.01	0
2	466828	86.11	0
2	467374	86.21	0
2	467920	86.31	0
2	468466	86.41	0
2	469012	86.51	0
2	469558	86.61	0
2	470104	86.71	0
2	470650	86.81	0
2	471196	86.91	0
2	471750	87.01	0
2	472296	87.11	0
2	472842	87.21	0
2	473388	87.31	0
2	473934	87.41	0
2	474480	87.51	0
2	475026	87.61	0
2	475572	87.71	0
2	476118	87.81	0
2	476664	87.91	0
2	477218	88.01	0
2	477764	88.11	0
2	478310	88.21	0
2	478856	88.31	0
2	479402	88.41	0
2	479948	88.51	0
2	480494	88.61	0
2	481040	88.71	0
2	481586	88.81	0
2	482132	88.91	0
2	482686	89.01	0
2	483232	89.11	0
2	483778	89.21	0
2	484324	89.31	0
2	484870	89.41	0
2	485416	89.51	0
2	485962	89.61	0
2	486508	89.71	0
2	487054	89.81	0
2	487600	89.91	0
2	488154	90.01	0
2	488700	90.11	0
2	489246	90.21	0
2	489792	90.31	0
2	490338	90.41	0
2	490884	90.51	0
2	491430	90.61	0
2	491976	90.71	0
2	492522	90.81	0
2	493068	90.91	0
2	493622	91.01	0
2	494168	91.11	0
2	494714	91.21	0
2	495260	91.31	0
2	495806	91.41	0
2	496352	91.51	0
2	496898	91.61	0
2	497444	91.71	0
2	497990	91.81	0
2	498536	91.91	0
2	499090	92.01	0
2	499636	92.11	0
2	500182	92.21	0
2	500728	92.31	0
2	501274	92.41	0
2	501820	92.51	0
2	502366	92.61	0
2	502912	92.71	0
2	503458	92.81	0
2	504004	92.91	0
2	504558	93.01	0
2	505104	93.11	0
2	505650	93.21	0
2	506196	93.31	0
2	506742	93.41	0
2	507288	93.51	0
2	507834	93.61	0
2	508380	93.71	0
2	508926	93.81	0
2	509472	93.91	0
2	510026	94.01	0
2	510572	94.11	0
2	511118	94.21	0
2	511664	94.31	0
2	512210	94.41	0
2	512756	94.51	0
2	513302	94.61	0
2	513848	94.71	0
2	514394	94.81	0
2	514940	94.91	0
2	515494	95.01	0
2	516040	95.11	0
2	516586	95.21	0
2	517132	95.31	0
2	517678	95.41	0
2	518224	95.51	0
2	518770	95.61	0
2	519316	95.71	0
2	519862	95.81	0
2	520408	95.91	0
2	520962	96.01	0
2	521508	96.11	0
2	522054	96.21	0
2	522600	96.31	0
2	523146	96.41	0
2	523692	96.51	0
2	524238	96.61	0
2	524784	96.71	0
2	525330	96.81	0
2	525876	96.91	0
2	526430	97.01	0
2	526976	97.11	0
2	527522	97.21	0
2	528068	97.31	0
2	528614	97.41	0
2	529160	97.51	0
2	529706	97.61	0
2	530252	97.71	0
2	530798	97.81	0
2	531344	97.91	0
2	531898	98.01	0
2	532444	98.11	0
2	532990	98.21	0
2	533536	98.31	0
2	534082	98.41	0
2	534628	98.51	0
2	535174	98.61	0
2	535720	98.71	0
2	536266	98.81	0
2	536812	98.91	0
2	537366	99.01	0
2	537912	99.11	0
2	538458	99.21	0
2	539004	99.31	0
2	539550	99.41	0
2	540096	99.51	0
2	540642	99.61	0
2	541188	99.71	0
2	541734	99.81	0
2	542280	99.91	0
3	113	1.11	-0.000716383
3	659	1.21	-0.00136341
3	1205	1.31	-0.00186974
3	1751	1.41	-0.00225157
3	2297	1.51	-0.00252443
3	2843	1.61	-0.00270298
3	3389	1.71	-0.00280098
3	3935	1.81	-0.00283113
3	4481	1.91	-0.00280509
3	5035	2.01	-0.00273342
3	5581	2.11	-0.00262559
3	6127	2.21	-0.00249005
3	6673	2.31	-0.00233419
3	7219	2.41	-0.00216447
3	7765	2.51	-0.00198642
3	8311	2.61	-0.00180472
3	8857	2.71	-0.0016233
3	9403	2.81	-0.00144536
3	9949	2.91	-0.00127346
3	10503	3.01	-0.0011096
3	11049	3.11	-0.000955278
3	11595	3.21	-0.000811546
3	12141	3.31	-0.00067908
3	12687	3.41	-0.000558232
3	13233	3.51	-0.000449082
3	13779	3.61	-0.000351487
3	14325	3.71	-0.00026512
3	14871	3.81	-0.000189514
3	15417	3.91	-0.000124092
3	15971	4.01	-6.81972e-05
3	16517	4.11	-2.11209e-05
3	17063	4.21	1.78769e-05
3	17609	4.31	4.9548e-05
3	18155	4.41	7.46407e-05
3	18701	4.51	9.38867e-05
3	19247	4.61	0.000107991
3	19793	4.71	0.000117625
3	20339	4.81	0.000123418
3	20885	4.91	0.000125957
3	21439	5.01	0.000125781
3	21985	5.11	0.00012338
3	22531	5.21	0.000119198
3	23077	5.31	0.000113629
3	23623	5.41	0.000107022
3	24169	5.51	9.96832e-05
3	24715	5.61	9.18747e-05
3	25261	5.71	8.38211e-05
3	25807	5.81	7.57109e-05
3	26353	5.91	6.76999e-05
3	26907	6.01	5.99137e-05
3	27453	6.11	5.24518e-05
3	27999	6.21	4.53896e-05
3	28545	6.31	3.87821e-05
3	29091	6.41	3.2666e-05
3	29637	6.51	2.70628e-05
3	30183	6.61	2.19809e-05
3	30729	6.71	1.74176e-05
3	31275	6.81	1.33618e-05
3	31821	6.91	9.79494e-06
3	32375	7.01	6.6932e-06
3	32921	7.11	4.02864e-06
3	33467	7.21	1.77051e-06
3	34013	7.31	-1.13691e-07
3	34559	7.41	-1.65736e-06
3	35105	7.51	-2.89397e-06
3	35651	7.61	-3.85652e-06
3	36197	7.71	-4.57698e-06
3	36743	7.81	-5.08591e-06
3	37289	7.91	-5.41219e-06
3	37843	8.01	-5.58279e-06
3	38389	8.11	-5.6226e-06
3	38935	8.21	-5.55442e-06
3	39481	8.31	-5.39886e-06
3	40027	8.41	-5.17441e-06
3	40573	8.51	-4.89748e-06
3	41119	8.61	-4.58246e-06
3	41665	8.71	-4.24184e-06
3	42211	8.81	-3.88634e-06
3	42757	8.91	-3.52499e-06
3	43311	9.01	-3.16534e-06
3	43857	9.11	-2.81353e-06
3	44403	9.21	-2.47446e-06
3	44949	9.31	-2.15192e-06
3	45495	9.41	-1.84873e-06
3	46041	9.51	-1.56685e-06
3	46587	9.61	-1.30751e-06
3	47133	9.71	-1.0713e-06
3	47679	9.81	-8.58321e-07
3	48225	9.91	-6.68206e-07
3	50714	10.01	-5.0026e-07
3	51260	10.11	-3.53514e-07
3	51806	10.21	-2.2679e-07
3	52352	10.31	-1.18765e-07
3	52898	10.41	-2.80163e-08
3	53444	10.51	4.6931e-08
3	53990	10.61	1.07573e-07
3	54536	10.71	1.55391e-07
3	55082	10.81	1.91831e-07
3	55628	10.91	2.18284e-07
3	56182	11.01	2.3607e-07
3	56728	11.11	2.46427e-07
3	57274	11.21	2.50502e-07
3	57820	11.31	2.49353e-07
3	58366	11.41	2.43938e-07
3	58912	11.51	2.3512e-07
3	59458	11.61	2.23669e-07
3	60004	11.71	2.10264e-07
3	60550	11.81	1.95496e-07
3	61096	11.91	1.79874e-07
3	61650	12.01	1.63833e-07
3	62196	12.11	1.47736e-07
3	62742	12.21	1.3188e-07
3	63288	12.31	1.16508e-07
3	63834	12.41	1.01807e-07
3	64380	12.51	8.79222e-08
3	64926	12.61	7.49541e-08
3	65472	12.71	6.29711e-08
3	66018	12.81	5.20114e-08
3	66564	12.91	4.20883e-08
3	67118	13.01	3.3193e-08
3	67664	13.11	2.53003e-08
3	68210	13.21	1.83718e-08
3	68756	13.31	1.23581e-08
3	69302	13.41	7.20348e-09
3	69848	13.51	2.84537e-09
3	70394	13.61	-7.80886e-10
3	70940	13.71	-3.74136e-09
3	71486	13.81	-6.10285e-09
3	72032	13.91	-7.93072e-09
3	72586	14.01	-9.28821e-09
3	73132	14.11	-1.0235e-08
3	73678	14.21	-1.08283e-08
3	74224	14.31	-1.11211e-08
3	74770	14.41	-1.11612e-08
3	75316	14.51	-1.09946e-08
3	75862	14.61	-1.06599e-08
3	76408	14.71	-1.01945e-08
3	76954	14.81	-9.62999e-09
3	77500	14.91	-8.99405e-09
3	78054	15.01	-8.31086e-09
3	78600	15.11	-7.60103e-09
3	79146	15.21	-6.88338e-09
3	79692	15.31	-6.17071e-09
3	80238	15.41	-5.47544e-09
3	80784	15.51	-4.80682e-09
3	81330	15.61	-4.17266e-09
3	81876	15.71	-3.57687e-09
3	82422	15.81	-3.02443e-09
3	82968	15.91	-2.51674e-09
3	83522	16.01	-2.05489e-09
3	84068	16.11	-1.63958e-09
3	84614	16.21	-1.26903e-09
3	85160	16.31	-9.42535e-10
3	85706	16.41	-6.57963e-10
3	86252	16.51	-4.1247e-10
3	86798	16.61	-2.04636e-10
3	87344	16.71	-2.91323e-11
3	87890	16.81	1.14753e-10
3	88436	16.91	2.30926e-10
3	88990	17.01	3.22231e-10
3	89536	17.11	3.91154e-10
3	90082	17.21	4.40892e-10
3	90628	17.31	4.73577e-10
3	91174	17.41	4.92051e-10
3	91720	17.51	4.98446e-10
3	92266	17.61	4.94893e-10
3	92812	17.71	4.82814e-10
3	93358	17.81	4.6434e-10
3	93904	17.91	4.40892e-10
3	94458	18.01	4.13536e-10
3	95004	18.11	3.83693e-10
3	95550	18.21	3.51719e-10
3	96096	18.31	3.19744e-10
3	96642	18.41	2.8777e-10
3	97188	18.51	2.55795e-10
3	97734	18.61	2.25953e-10
3	98280	18.71	1.97531e-10
3	98826	18.81	1.6982e-10
3	99372	18.91	1.44951e-10
3	99926	19.01	1.21503e-10
3	100472	19.11	1.00187e-10
3	101018	19.21	8.10019e-11
3	101564	19.31	6.32383e-11
3	102110	19.41	4.86722e-11
3	102656	19.51	3.44613e-11
3	103202	19.61	2.34479e-11
3	103748	19.71	1.27898e-11
3	104294	19.81	4.9738e-12
3	104840	19.91	-2.13163e-12
3	105394	20.01	-8.17124e-12
3	105940	20.11	-1.1724e-11
3	106486	20.21	-1.52767e-11
3	107032	20.31	-1.88294e-11
3	107578	20.41	-2.02505e-11
3	108124	20.51	-2.02505e-11
3	108670	20.61	-2.02505e-11
3	109216	20.71	-2.02505e-11
3	109762	20.81	-2.02505e-11
3	110308	20.91	-2.02505e-11
3	110862	21.01	-2.02505e-11
3	111408	21.11	-2.02505e-11
3	111954	21.21	-2.02505e-11
3	112500	21.31	-1.88294e-11
3	113046	21.41	-1.7053e-11
3	113592	21.51	-1.52767e-11
3	114138	21.61	-1.38556e-11
3	114684	21.71	-1.24345e-11
3	115230	21.81	-1.13687e-11
3	115776	21.91	-1.03029e-11
3	116330	22.01	-9.23706e-12
3	116876	22.11	-8.52651e-12
3	117422	22.21	-7.4607e-12
3	117968	22.31	-6.75016e-12
3	118514	22.41	-6.03961e-12
3	119060	22.51	-5.68434e-12
3	119606	22.61	-4.9738e-12
3	120152	22.71	-4.61853e-12
3	120698	22.81	-4.26326e-12
3	121244	22.91	-3.90799e-12
3	121798	23.01	-3.55271e-12
3	122344	23.11	-3.19744e-12
3	122890	23.21	-2.84217e-12
3	123436	23.31	-2.4869e-12
3	123982	23.41	-2.13163e-12
3	124528	23.51	-2.13163e-12
3	125074	23.61	-1.77636e-12
3	125620	23.71	-1.77636e-12
3	126166	23.81	-1.42109e-12
3	126712	23.91	-1.42109e-12
3	127266	24.01	-1.06581e-12
3	127812	24.11	-1.06581e-12
3	128358	24.21	-1.06581e-12
3	128904	24.31	-1.06581e-12
3	129450	24.41	-7.10543e-13
3	129996	24.51	-7.10543e-13
3	130542	24.61	-7.10543e-13
3	131088	24.71	-7.10543e-13
3	131634	24.81	-7.10543e-13
3	132180	24.91	-3.55271e-13
3	132734	25.01	-3.55271e-13
3	133280	25.11	-3.55271e-13
3	133826	25.21	-3.55271e-13
3	134372	25.31	-3.55271e-13
3	134918	25.41	-3.55271e-13
3	135464	25.51	-3.55271e-13
3	136010	25.61	-3.55271e-13
3	136556	25.71	-3.55271e-13
3	137102	25.81	-3.55271e-13
3	137648	25.91	0
3	138202	26.01	0
3	138748	26.11	0
3	139294	26.21	0
3	139840	26.31	0
3	140386	26.41	0
3	140932	26.51	0
3	141478	26.61	0
3	142024	26.71	0
3	142570	26.81	0
3	143116	26.91	0
3	143670	27.01	0
3	144216	27.11	0
3	144762	27.21	0
3	145308	27.31	0
3	145854	27.41	0
3	146400	27.51	0
3	146946	27.61	0
3	147492	27.71	0
3	148038	27.81	0
3	148584	27.91	0
3	149138	28.01	0
3	149684	28.11	0
3	150230	28.21	0
3	150776	28.31	0
3	151322	28.41	0
3	151868	28.51	0
3	152414	28.61	0
3	152960	28.71	0
3	153506	28.81	0
3	154052	28.91	0
3	154606	29.01	0
3	155152	29.11	0
3	155698	29.21	0
3	156244	29.31	0
3	156790	29.41	0
3	157336	29.51	0
3	157882	29.61	0
3	158428	29.71	0
3	158974	29.81	0
3	159520	29.91	0
3	160074	30.01	0
3	160620	30.11	0
3	161166	30.21	0
3	161712	30.31	0
3	162258	30.41	0
3	162804	30.51	0
3	163350	30.61	0
3	163896	30.71	0
3	164442	30.81	0
3	164988	30.91	0
3	165542	31.01	0
3	166088	31.11	0
3	166634	31.21	0
3	167180	31.31	0
3	167726	31.41	0
3	168272	31.51	0
3	168818	31.61	0
3	169364	31.71	0
3	169910	31.81	0
3	170456	31.91	0
3	171010	32.01	0
3	171556	32.11	0
3	172102	32.21	0
3	172648	32.31	0
3	173194	32.41	0
3	173740	32.51	0
3	174286	32.61	0
3	174832	32.71	0
3	175378	32.81	0
3	175924	32.91	0
3	176478	33.01	0
3	177024	33.11	0
3	177570	33.21	0
3	178116	33.31	0
3	178662	33.41	0
3	179208	33.51	0
3	179754	33.61	0
3	180300	33.71	0
3	180846	33.81	0
3	181392	33.91	0
3	181946	34.01	0
3	182492	34.11	0
3	183038	34.21	0
3	183584	34.31	0
3	184130	34.41	0
3	184676	34.51	0
3	185222	34.61	0
3	185768	34.71	0
3	186314	34.81	0
3	186860	34.91	0
3	187414	35.01	0
3	187960	35.11	0
3	188506	35.21	0
3	189052	35.31	0
3	189598	35.41	0
3	190144	35.51	0
3	190690	35.61	0
3	191236	35.71	0
3	191782	35.81	0
3	192328	35.91	0
3	192882	36.01	0
3	193428	36.11	0
3	193974	36.21	0
3	194520	36.31	0
3	195066	36.41	0
3	195612	36.51	0
3	196158	36.61	0
3	196704	36.71	0
3	197250	36.81	0
3	197796	36.91	0
3	198350	37.01	0
3	198896	37.11	0
3	199442	37.21	0
3	199988	37.31	0
3	200534	37.41	0
3	201080	37.51	0
3	201626	37.61	0
3	202172	37.71	0
3	202718	37.81	0
3	203264	37.91	0
3	203818	38.01	0
3	204364	38.11	0
3	204910	38.21	0
3	205456	38.31	0
3	206002	38.41	0
3	206548	38.51	0
3	207094	38.61	0
3	207640	38.71	0
3	208186	38.81	0
3	208732	38.91	0
3	209286	39.01	0
3	209832	39.11	0
3	210378	39.21	0
3	210924	39.31	0
3	211470	39.41	0
3	212016	39.51	0
3	212562	39.61	0
3	213108	39.71	0
3	213654	39.81	0
3	214200	39.91	0
3	214754	40.01	0
3	215300	40.11	0
3	215846	40.21	0
3	216392	40.31	0
3	216938	40.41	0
3	217484	40.51	0
3	218030	40.61	0
3	218576	40.71	0
3	219122	40.81	0
3	219668	40.91	0
3	220222	41.01	0
3	220768	41.11	0
3	221314	41.21	0
3	221860	41.31	0
3	222406	41.41	0
3	222952	41.51	0
3	223498	41.61	0
3	224044	41.71	0
3	224590	41.81	0
3	225136	41.91	0
3	225690	42.01	0
3	226236	42.11	0
3	226782	42.21	0
3	227328	42.31	0
3	227874	42.41	0
3	228420	42.51	0
3	228966	42.61	0
3	229512	42.71	0
3	230058	42.81	0
3	230604	42.91	0
3	231158	43.01	0
3	231704	43.11	0
3	232250	43.21	0
3	232796	43.31	0
3	233342	43.41	0
3	233888	43.51	0
3	234434	43.61	0
3	234980	43.71	0
3	235526	43.81	0
3	236072	43.91	0
3	236626	44.01	0
3	237172	44.11	0
3	237718	44.21	0
3	238264	44.31	0
3	238810	44.41	0
3	239356	44.51	0
3	239902	44.61	0
3	240448	44.71	0
3	240994	44.81	0
3	241540	44.91	0
3	242094	45.01	0
3	242640	45.11	0
3	243186	45.21	0
3	243732	45.31	0
3	244278	45.41	0
3	244824	45.51	0
3	245370	45.61	0
3	245916	45.71	0
3	246462	45.81	0
3	247008	45.91	0
3	247562	46.01	0
3	248108	46.11	0
3	248654	46.21	0
3	249200	46.31	0
3	249746	46.41	0
3	250292	46.51	0
3	250838	46.61	0
3	251384	46.71	0
3	251930	46.81	0
3	252476	46.91	0
3	253030	47.01	0
3	253576	47.11	0
3	254122	47.21	0
3	254668	47.31	0
3	255214	47.41	0
3	255760	47.51	0
3	256306	47.61	0
3	256852	47.71	0
3	257398	47.81	0
3	257944	47.91	0
3	258498	48.01	0
3	259044	48.11	0
3	259590	48.21	0
3	260136	48.31	0
3	260682	48.41	0
3	261228	48.51	0
3	261774	48.61	0
3	262320	48.71	0
3	262866	48.81	0
3	263412	48.91	0
3	263966	49.01	0
3	264512	49.11	0
3	265058	49.21	0
3	265604	49.31	0
3	266150	49.41	0
3	266696	49.51	0
3	267242	49.61	0
3	267788	49.71	0
3	268334	49.81	0
3	268880	49.91	0
3	269434	50.01	0
3	269980	50.11	0
3	270526	50.21	0
3	271072	50.31	0
3	271618	50.41	0
3	272164	50.51	0
3	272710	50.61	0
3	273256	50.71	0
3	273802	50.81	0
3	274348	50.91	0
3	274902	51.01	0
3	275448	51.11	0
3	275994	51.21	0
3	276540	51.31	0
3	277086	51.41	0
3	277632	51.51	0
3	278178	51.61	0
3	278724	51.71	0
3	279270	51.81	0
3	279816	51.91	0
3	280370	52.01	0
3	280916	52.11	0
3	281462	52.21	0
3	282008	52.31	0
3	282554	52.41	0
3	283100	52.51	0
3	283646	52.61	0
3	284192	52.71	0
3	284738	52.81	0
3	285284	52.91	0
3	285838	53.01	0
3	286384	53.11	0
3	286930	53.21	0
3	287476	53.31	0
3	288022	53.41	0
3	288568	53.51	0
3	289114	53.61	0
3	289660	53.71	0
3	290206	53.81	0
3	290752	53.91	0
3	291306	54.01	0
3	291852	54.11	0
3	292398	54.21	0
3	292944	54.31	0
3	293490	54.41	0
3	294036	54.51	0
3	294582	54.61	0
3	295128	54.71	0
3	295674	54.81	0
3	296220	54.91	0
3	296774	55.01	0
3	297320	55.11	0
3	297866	55.21	0
3	298412	55.31	0
3	298958	55.41	0
3	299504	55.51	0
3	300050	55.61	0
3	300596	55.71	0
3	301142	55.81	0
3	301688	55.91	0
3	302242	56.01	0
3	302788	56.11	0
3	303334	56.21	0
3	303880	56.31	0
3	304426	56.41	0
3	304972	56.51	0
3	305518	56.61	0
3	306064	56.71	0
3	306610	56.81	0
3	307156	56.91	0
3	307710	57.01	0
3	308256	57.11	0
3	308802	57.21	0
3	309348	57.31	0
3	309894	57.41	0
3	310440	57.51	0
[...]
104	395061	73	4
104	400529	74	4
104	405997	75	4
104	411465	76	4
104	416933	77	4
104	422401	78	4
104	427869	79	4
104	433337	80	4
104	438805	81	4
104	444273	82	4
104	449741	83	4
104	455209	84	4
104	460677	85	4
104	466145	86	4
104	471613	87	4
104	477081	88	4
104	482549	89	4
104	488017	90	4
104	493485	91	4
104	498953	92	4
104	504421	93	4
104	509889	94	4
104	515357	95	4
104	520825	96	4
104	526293	97	4
104	531761	98	4
104	537229	99	4
104	542697	100	4
105	4898	2	0.021849
105	10366	3	0.02497
105	15834	4	0.02497
105	21302	5	0.02497
105	26770	6	0.02497
105	32238	7	0.02497
105	37706	8	0.02497
105	43174	9	0.02497
105	48643	10	0.02497
105	56045	11	0.026983440282
105	61513	12	0.02497
105	66981	13	0.02497
105	72449	14	0.02497
105	77917	15	0.02497
105	83385	16	0.02497
105	88853	17	0.02497
105	94321	18	0.02497
105	99789	19	0.02497
105	105257	20	0.02497
105	110725	21	0.02497
105	116193	22	0.02497
105	121661	23	0.02497
105	127129	24	0.02497
105	132597	25	0.02497
105	138065	26	0.02497
105	143533	27	0.02497
105	149001	28	0.02497
105	154469	29	0.02497
105	159937	30	0.02497
105	165405	31	0.02497
105	170873	32	0.02497
105	176341	33	0.02497
105	181809	34	0.02497
105	187277	35	0.02497
105	192745	36	0.02497
105	198213	37	0.02497
105	203681	38	0.02497
105	209149	39	0.02497
105	214617	40	0.02497
105	220085	41	0.02497
105	225553	42	0.02497
105	231021	43	0.02497
105	236489	44	0.02497
105	241957	45	0.02497
105	247425	46	0.02497
105	252893	47	0.02497
105	258361	48	0.02497
105	263829	49	0.02497
105	269297	50	0.02497
105	274765	51	0.02497
105	280233	52	0.02497
105	285701	53	0.02497
105	291169	54	0.02497
105	296637	55	0.02497
105	302105	56	0.02497
105	307573	57	0.02497
105	313041	58	0.02497
105	318509	59	0.02497
105	323977	60	0.02497
105	329445	61	0.02497
105	334913	62	0.02497
105	340381	63	0.02497
105	345849	64	0.02497
105	351317	65	0.02497
105	356785	66	0.02497
105	362253	67	0.02497
105	367721	68	0.02497
105	373189	69	0.02497
105	378657	70	0.02497
105	384125	71	0.02497
105	389593	72	0.02497
105	395061	73	0.02497
105	400529	74	0.02497
105	405997	75	0.02497
105	411465	76	0.02497
105	416933	77	0.02497
105	422401	78	0.02497
105	427869	79	0.02497
105	433337	80	0.02497
105	438805	81	0.02497
105	444273	82	0.02497
105	449741	83	0.02497
105	455209	84	0.02497
105	460677	85	0.02497
105	466145	86	0.02497
105	471613	87	0.02497
105	477081	88	0.02497
105	482549	89	0.02497
105	488017	90	0.02497
105	493485	91	0.02497
105	498953	92	0.02497
105	504421	93	0.02497
105	509889	94	0.02497
105	515357	95	0.02497
105	520825	96	0.02497
105	526293	97	0.02497
105	531761	98	0.02497
105	537229	99	0.02497
105	542697	100	0.02497
106	4898	2	0
106	10366	3	0
106	15834	4	0
106	21302	5	0
106	26770	6	0
106	32238	7	0
106	37706	8	0
106	43174	9	0
106	48643	10	0
106	56045	11	0
106	61513	12	0
106	66981	13	0
106	72449	14	0
106	77917	15	0
106	83385	16	0
106	88853	17	0
106	94321	18	0
106	99789	19	0
106	105257	20	0
106	110725	21	0
106	116193	22	0
106	121661	23	0
106	127129	24	0
106	132597	25	0
106	138065	26	0
106	143533	27	0
106	149001	28	0
106	154469	29	0
106	159937	30	0
106	165405	31	0
106	170873	32	0
106	176341	33	0
106	181809	34	0
106	187277	35	0
106	192745	36	0
106	198213	37	0
106	203681	38	0
106	209149	39	0
106	214617	40	0
106	220085	41	0
106	225553	42	0
106	231021	43	0
106	236489	44	0
106	241957	45	0
106	247425	46	0
106	252893	47	0
106	258361	48	0
106	263829	49	0
106	269297	50	0
106	274765	51	0
106	280233	52	0
106	285701	53	0
106	291169	54	0
106	296637	55	0
106	302105	56	0
106	307573	57	0
106	313041	58	0
106	318509	59	0
106	323977	60	0
106	329445	61	0
106	334913	62	0
106	340381	63	0
106	345849	64	0
106	351317	65	0
106	356785	66	0
106	362253	67	0
106	367721	68	0
106	373189	69	0
106	378657	70	0
106	384125	71	0
106	389593	72	0
106	395061	73	0
106	400529	74	0
106	405997	75	0
106	411465	76	0
106	416933	77	0
106	422401	78	0
106	427869	79	0
106	433337	80	0
106	438805	81	0
106	444273	82	0
106	449741	83	0
106	455209	84	0
106	460677	85	0
106	466145	86	0
106	471613	87	0
106	477081	88	0
106	482549	89	0
106	488017	90	0
106	493485	91	0
106	498953	92	0
106	504421	93	0
106	509889	94	0
106	515357	95	0
106	520825	96	0
106	526293	97	0
106	531761	98	0
106	537229	99	0
106	542697	100	0
107	4899	2	5
107	10367	3	5
107	15835	4	5
107	21303	5	5
107	26771	6	5
107	32239	7	5
107	37707	8	5
107	43175	9	5
107	48644	10	5
107	56046	11	5
107	61514	12	5
107	66982	13	5
107	72450	14	5
107	77918	15	5
107	83386	16	5
107	88854	17	5
107	94322	18	5
107	99790	19	5
107	105258	20	5
107	110726	21	5
107	116194	22	5
107	121662	23	5
107	127130	24	5
107	132598	25	5
107	138066	26	5
107	143534	27	5
107	149002	28	5
107	154470	29	5
107	159938	30	5
107	165406	31	5
107	170874	32	5
107	176342	33	5
107	181810	34	5
107	187278	35	5
107	192746	36	5
107	198214	37	5
107	203682	38	5
107	209150	39	5
107	214618	40	5
107	220086	41	5
107	225554	42	5
107	231022	43	5
107	236490	44	5
107	241958	45	5
107	247426	46	5
107	252894	47	5
107	258362	48	5
107	263830	49	5
107	269298	50	5
107	274766	51	5
107	280234	52	5
107	285702	53	5
107	291170	54	5
107	296638	55	5
107	302106	56	5
107	307574	57	5
107	313042	58	5
107	318510	59	5
107	323978	60	5
107	329446	61	5
107	334914	62	5
107	340382	63	5
107	345850	64	5
107	351318	65	5
107	356786	66	5
107	362254	67	5
107	367722	68	5
107	373190	69	5
107	378658	70	5
107	384126	71	5
107	389594	72	5
107	395062	73	5
107	400530	74	5
107	405998	75	5
107	411466	76	5
107	416934	77	5
107	422402	78	5
107	427870	79	5
107	433338	80	5
107	438806	81	5
107	444274	82	5
107	449742	83	5
107	455210	84	5
107	460678	85	5
107	466146	86	5
107	471614	87	5
107	477082	88	5
107	482550	89	5
107	488018	90	5
107	493486	91	5
107	498954	92	5
107	504422	93	5
107	509890	94	5
107	515358	95	5
107	520826	96	5
107	526294	97	5
107	531762	98	5
107	537230	99	5
107	542698	100	5
108	4899	2	0.021848
108	10367	3	0.02497
108	15835	4	0.02497
108	21303	5	0.02497
108	26771	6	0.02497
108	32239	7	0.02497
108	37707	8	0.02497
108	43175	9	0.02497
108	48644	10	0.02497
108	56046	11	0.026983480308
108	61514	12	0.02497
108	66982	13	0.02497
108	72450	14	0.02497
108	77918	15	0.02497
108	83386	16	0.02497
108	88854	17	0.02497
108	94322	18	0.02497
108	99790	19	0.02497
108	105258	20	0.02497
108	110726	21	0.02497
108	116194	22	0.02497
108	121662	23	0.02497
108	127130	24	0.02497
108	132598	25	0.02497
108	138066	26	0.02497
108	143534	27	0.02497
108	149002	28	0.02497
108	154470	29	0.02497
108	159938	30	0.02497
108	165406	31	0.02497
108	170874	32	0.02497
108	176342	33	0.02497
108	181810	34	0.02497
108	187278	35	0.02497
108	192746	36	0.02497
108	198214	37	0.02497
108	203682	38	0.02497
108	209150	39	0.02497
108	214618	40	0.02497
108	220086	41	0.02497
108	225554	42	0.02497
108	231022	43	0.02497
108	236490	44	0.02497
108	241958	45	0.02497
108	247426	46	0.02497
108	252894	47	0.02497
108	258362	48	0.02497
108	263830	49	0.02497
108	269298	50	0.02497
108	274766	51	0.02497
108	280234	52	0.02497
108	285702	53	0.02497
108	291170	54	0.02497
108	296638	55	0.02497
108	302106	56	0.02497
108	307574	57	0.02497
108	313042	58	0.02497
108	318510	59	0.02497
108	323978	60	0.02497
108	329446	61	0.02497
108	334914	62	0.02497
108	340382	63	0.02497
108	345850	64	0.02497
108	351318	65	0.02497
108	356786	66	0.02497
108	362254	67	0.02497
108	367722	68	0.02497
108	373190	69	0.02497
108	378658	70	0.02497
108	384126	71	0.02497
108	389594	72	0.02497
108	395062	73	0.02497
108	400530	74	0.02497
108	405998	75	0.02497
108	411466	76	0.02497
108	416934	77	0.02497
108	422402	78	0.02497
108	427870	79	0.02497
108	433338	80	0.02497
108	438806	81	0.02497
108	444274	82	0.02497
108	449742	83	0.02497
108	455210	84	0.02497
108	460678	85	0.02497
108	466146	86	0.02497
108	471614	87	0.02497
108	477082	88	0.02497
108	482550	89	0.02497
108	488018	90	0.02497
108	493486	91	0.02497
108	498954	92	0.02497
108	504422	93	0.02497
108	509890	94	0.02497
108	515358	95	0.02497
108	520826	96	0.02497
108	526294	97	0.02497
108	531762	98	0.02497
108	537230	99	0.02497
108	542698	100	0.02497
109	4899	2	0
109	10367	3	0
109	15835	4	0
109	21303	5	0
109	26771	6	0
109	32239	7	0
109	37707	8	0
109	43175	9	0
109	48644	10	0
109	56046	11	0
109	61514	12	0
109	66982	13	0
109	72450	14	0
109	77918	15	0
109	83386	16	0
109	88854	17	0
109	94322	18	0
109	99790	19	0
109	105258	20	0
109	110726	21	0
109	116194	22	0
109	121662	23	0
109	127130	24	0
109	132598	25	0
109	138066	26	0
109	143534	27	0
109	149002	28	0
109	154470	29	0
109	159938	30	0
109	165406	31	0
109	170874	32	0
109	176342	33	0
109	181810	34	0
109	187278	35	0
109	192746	36	0
109	198214	37	0
109	203682	38	0
109	209150	39	0
109	214618	40	0
109	220086	41	0
109	225554	42	0
109	231022	43	0
109	236490	44	0
109	241958	45	0
109	247426	46	0
109	252894	47	0
109	258362	48	0
109	263830	49	0
109	269298	50	0
109	274766	51	0
109	280234	52	0
109	285702	53	0
109	291170	54	0
109	296638	55	0
109	302106	56	0
109	307574	57	0
109	313042	58	0
109	318510	59	0
109	323978	60	0
109	329446	61	0
109	334914	62	0
109	340382	63	0
109	345850	64	0
109	351318	65	0
109	356786	66	0
109	362254	67	0
109	367722	68	0
109	373190	69	0
109	378658	70	0
109	384126	71	0
109	389594	72	0
109	395062	73	0
109	400530	74	0
109	405998	75	0
109	411466	76	0
109	416934	77	0
109	422402	78	0
109	427870	79	0
109	433338	80	0
109	438806	81	0
109	444274	82	0
109	449742	83	0
109	455210	84	0
109	460678	85	0
109	466146	86	0
109	471614	87	0
109	477082	88	0
109	482550	89	0
109	488018	90	0
109	493486	91	0
109	498954	92	0
109	504422	93	0
109	509890	94	0
109	515358	95	0
109	520826	96	0
109	526294	97	0
109	531762	98	0
109	537230	99	0
109	542698	100	0
110	4900	2	6
110	10368	3	6
110	15836	4	6
110	21304	5	6
110	26772	6	6
110	32240	7	6
110	37708	8	6
110	43176	9	6
110	48645	10	6
110	56047	11	6
110	61515	12	6
110	66983	13	6
110	72451	14	6
110	77919	15	6
110	83387	16	6
110	88855	17	6
110	94323	18	6
110	99791	19	6
110	105259	20	6
110	110727	21	6
110	116195	22	6
110	121663	23	6
110	127131	24	6
110	132599	25	6
110	138067	26	6
110	143535	27	6
110	149003	28	6
110	154471	29	6
110	159939	30	6
110	165407	31	6
110	170875	32	6
110	176343	33	6
110	181811	34	6
110	187279	35	6
110	192747	36	6
110	198215	37	6
110	203683	38	6
110	209151	39	6
110	214619	40	6
110	220087	41	6
110	225555	42	6
110	231023	43	6
110	236491	44	6
110	241959	45	6
110	247427	46	6
110	252895	47	6
110	258363	48	6
110	263831	49	6
110	269299	50	6
110	274767	51	6
110	280235	52	6
110	285703	53	6
110	291171	54	6
110	296639	55	6
110	302107	56	6
110	307575	57	6
110	313043	58	6
110	318511	59	6
110	323979	60	6
110	329447	61	6
110	334915	62	6
110	340383	63	6
110	345851	64	6
110	351319	65	6
110	356787	66	6
110	362255	67	6
110	367723	68	6
110	373191	69	6
110	378659	70	6
110	384127	71	6
110	389595	72	6
110	395063	73	6
110	400531	74	6
110	405999	75	6
110	411467	76	6
110	416935	77	6
110	422403	78	6
110	427871	79	6
110	433339	80	6
110	438807	81	6
110	444275	82	6
110	449743	83	6
110	455211	84	6
110	460679	85	6
110	466147	86	6
110	471615	87	6
110	477083	88	6
110	482551	89	6
110	488019	90	6
110	493487	91	6
110	498955	92	6
110	504423	93	6
110	509891	94	6
110	515359	95	6
110	520827	96	6
110	526295	97	6
110	531763	98	6
110	537231	99	6
110	542699	100	6
111	4900	2	0.021849
111	10368	3	0.02497
111	15836	4	0.02497
111	21304	5	0.02497
111	26772	6	0.02497
111	32240	7	0.02497
111	37708	8	0.02497
111	43176	9	0.02497
111	48645	10	0.02497
111	56047	11	0.026950440284
111	61515	12	0.02497
111	66983	13	0.02497
111	72451	14	0.02497
111	77919	15	0.02497
111	83387	16	0.02497
111	88855	17	0.02497
111	94323	18	0.02497
111	99791	19	0.02497
111	105259	20	0.02497
111	110727	21	0.02497
111	116195	22	0.02497
111	121663	23	0.02497
111	127131	24	0.02497
111	132599	25	0.02497
111	138067	26	0.02497
111	143535	27	0.02497
111	149003	28	0.02497
111	154471	29	0.02497
111	159939	30	0.02497
111	165407	31	0.02497
111	170875	32	0.02497
111	176343	33	0.02497
111	181811	34	0.02497
111	187279	35	0.02497
111	192747	36	0.02497
111	198215	37	0.02497
111	203683	38	0.02497
111	209151	39	0.02497
111	214619	40	0.02497
111	220087	41	0.02497
111	225555	42	0.02497
111	231023	43	0.02497
111	236491	44	0.02497
111	241959	45	0.02497
111	247427	46	0.02497
111	252895	47	0.02497
111	258363	48	0.02497
111	263831	49	0.02497
111	269299	50	0.02497
111	274767	51	0.02497
111	280235	52	0.02497
111	285703	53	0.02497
111	291171	54	0.02497
111	296639	55	0.02497
111	302107	56	0.02497
111	307575	57	0.02497
111	313043	58	0.02497
111	318511	59	0.02497
111	323979	60	0.02497
111	329447	61	0.02497
111	334915	62	0.02497
111	340383	63	0.02497
111	345851	64	0.02497
111	351319	65	0.02497
111	356787	66	0.02497
111	362255	67	0.02497
111	367723	68	0.02497
111	373191	69	0.02497
111	378659	70	0.02497
111	384127	71	0.02497
111	389595	72	0.02497
111	395063	73	0.02497
111	400531	74	0.02497
111	405999	75	0.02497
111	411467	76	0.02497
111	416935	77	0.02497
111	422403	78	0.02497
111	427871	79	0.02497
111	433339	80	0.02497
111	438807	81	0.02497
111	444275	82	0.02497
111	449743	83	0.02497
111	455211	84	0.02497
111	460679	85	0.02497
111	466147	86	0.02497
111	471615	87	0.02497
111	477083	88	0.02497
111	482551	89	0.02497
111	488019	90	0.02497
111	493487	91	0.02497
111	498955	92	0.02497
111	504423	93	0.02497
111	509891	94	0.02497
111	515359	95	0.02497
111	520827	96	0.02497
111	526295	97	0.02497
111	531763	98	0.02497
111	537231	99	0.02497
111	542699	100	0.02497
112	4900	2	0
112	10368	3	0
112	15836	4	0
112	21304	5	0
112	26772	6	0
112	32240	7	0
112	37708	8	0
112	43176	9	0
112	48645	10	0
112	56047	11	0
112	61515	12	0
112	66983	13	0
112	72451	14	0
112	77919	15	0
112	83387	16	0
112	88855	17	0
112	94323	18	0
112	99791	19	0
112	105259	20	0
112	110727	21	0
112	116195	22	0
112	121663	23	0
112	127131	24	0
112	132599	25	0
112	138067	26	0
112	143535	27	0
112	149003	28	0
112	154471	29	0
112	159939	30	0
112	165407	31	0
112	170875	32	0
112	176343	33	0
112	181811	34	0
112	187279	35	0
112	192747	36	0
112	198215	37	0
112	203683	38	0
112	209151	39	0
112	214619	40	0
112	220087	41	0
112	225555	42	0
112	231023	43	0
112	236491	44	0
112	241959	45	0
112	247427	46	0
112	252895	47	0
112	258363	48	0
112	263831	49	0
112	269299	50	0
112	274767	51	0
112	280235	52	0
112	285703	53	0
112	291171	54	0
112	296639	55	0
112	302107	56	0
112	307575	57	0
112	313043	58	0
112	318511	59	0
112	323979	60	0
112	329447	61	0
112	334915	62	0
112	340383	63	0
112	345851	64	0
112	351319	65	0
112	356787	66	0
112	362255	67	0
112	367723	68	0
112	373191	69	0
112	378659	70	0
112	384127	71	0
112	389595	72	0
112	395063	73	0
112	400531	74	0
112	405999	75	0
112	411467	76	0
112	416935	77	0
112	422403	78	0
112	427871	79	0
112	433339	80	0
112	438807	81	0
112	444275	82	0
112	449743	83	0
112	455211	84	0
112	460679	85	0
112	466147	86	0
112	471615	87	0
112	477083	88	0
112	482551	89	0
112	488019	90	0
112	493487	91	0
112	498955	92	0
112	504423	93	0
112	509891	94	0
112	515359	95	0
112	520827	96	0
112	526295	97	0
112	531763	98	0
112	537231	99	0
112	542699	100	0
113	4901	2	7
113	10369	3	7
113	15837	4	7
113	21305	5	7
113	26773	6	7
113	32241	7	7
113	37709	8	7
113	43177	9	7
113	48646	10	7
113	56048	11	7
113	61516	12	7
113	66984	13	7
113	72452	14	7
113	77920	15	7
113	83388	16	7
113	88856	17	7
113	94324	18	7
113	99792	19	7
113	105260	20	7
113	110728	21	7
113	116196	22	7
113	121664	23	7
113	127132	24	7
113	132600	25	7
113	138068	26	7
113	143536	27	7
113	149004	28	7
113	154472	29	7
113	159940	30	7
113	165408	31	7
113	170876	32	7
113	176344	33	7
113	181812	34	7
113	187280	35	7
113	192748	36	7
113	198216	37	7
113	203684	38	7
113	209152	39	7
113	214620	40	7
113	220088	41	7
113	225556	42	7
113	231024	43	7
113	236492	44	7
113	241960	45	7
113	247428	46	7
113	252896	47	7
113	258364	48	7
113	263832	49	7
113	269300	50	7
113	274768	51	7
113	280236	52	7
113	285704	53	7
113	291172	54	7
113	296640	55	7
113	302108	56	7
113	307576	57	7
113	313044	58	7
113	318512	59	7
113	323980	60	7
113	329448	61	7
113	334916	62	7
113	340384	63	7
113	345852	64	7
113	351320	65	7
113	356788	66	7
113	362256	67	7
113	367724	68	7
113	373192	69	7
113	378660	70	7
113	384128	71	7
113	389596	72	7
113	395064	73	7
113	400532	74	7
113	406000	75	7
113	411468	76	7
113	416936	77	7
113	422404	78	7
113	427872	79	7
113	433340	80	7
113	438808	81	7
113	444276	82	7
113	449744	83	7
113	455212	84	7
113	460680	85	7
113	466148	86	7
113	471616	87	7
113	477084	88	7
113	482552	89	7
113	488020	90	7
113	493488	91	7
113	498956	92	7
113	504424	93	7
113	509892	94	7
113	515360	95	7
113	520828	96	7
113	526296	97	7
113	531764	98	7
113	537232	99	7
113	542700	100	7
114	4901	2	0.021849
114	10369	3	0.02497
114	15837	4	0.02497
114	21305	5	0.02497
114	26773	6	0.02497
114	32241	7	0.02497
114	37709	8	0.02497
114	43177	9	0.02497
114	48646	10	0.02497
114	56048	11	0.026890440286
114	61516	12	0.02497
114	66984	13	0.02497
114	72452	14	0.02497
114	77920	15	0.02497
114	83388	16	0.02497
114	88856	17	0.02497
114	94324	18	0.02497
114	99792	19	0.02497
114	105260	20	0.02497
114	110728	21	0.02497
114	116196	22	0.02497
114	121664	23	0.02497
114	127132	24	0.02497
114	132600	25	0.02497
114	138068	26	0.02497
114	143536	27	0.02497
114	149004	28	0.02497
114	154472	29	0.02497
114	159940	30	0.02497
114	165408	31	0.02497
114	170876	32	0.02497
114	176344	33	0.02497
114	181812	34	0.02497
114	187280	35	0.02497
114	192748	36	0.02497
114	198216	37	0.02497
114	203684	38	0.02497
114	209152	39	0.02497
114	214620	40	0.02497
114	220088	41	0.02497
114	225556	42	0.02497
114	231024	43	0.02497
114	236492	44	0.02497
114	241960	45	0.02497
114	247428	46	0.02497
114	252896	47	0.02497
114	258364	48	0.02497
114	263832	49	0.02497
114	269300	50	0.02497
114	274768	51	0.02497
114	280236	52	0.02497
114	285704	53	0.02497
114	291172	54	0.02497
114	296640	55	0.02497
114	302108	56	0.02497
114	307576	57	0.02497
114	313044	58	0.02497
114	318512	59	0.02497
114	323980	60	0.02497
114	329448	61	0.02497
114	334916	62	0.02497
114	340384	63	0.02497
114	345852	64	0.02497
114	351320	65	0.02497
114	356788	66	0.02497
114	362256	67	0.02497
114	367724	68	0.02497
114	373192	69	0.02497
114	378660	70	0.02497
114	384128	71	0.02497
114	389596	72	0.02497
114	395064	73	0.02497
114	400532	74	0.02497
114	406000	75	0.02497
114	411468	76	0.02497
114	416936	77	0.02497
114	422404	78	0.02497
114	427872	79	0.02497
114	433340	80	0.02497
114	438808	81	0.02497
114	444276	82	0.02497
114	449744	83	0.02497
114	455212	84	0.02497
114	460680	85	0.02497
114	466148	86	0.02497
114	471616	87	0.02497
114	477084	88	0.02497
114	482552	89	0.02497
114	488020	90	0.02497
114	493488	91	0.02497
114	498956	92	0.02497
114	504424	93	0.02497
114	509892	94	0.02497
114	515360	95	0.02497
114	520828	96	0.02497
114	526296	97	0.02497
114	531764	98	0.02497
114	537232	99	0.02497
114	542700	100	0.02497
115	4901	2	0
115	10369	3	0
115	15837	4	0
115	21305	5	0
115	26773	6	0
115	32241	7	0
115	37709	8	0
115	43177	9	0
115	48646	10	0
115	56048	11	0
115	61516	12	0
115	66984	13	0
115	72452	14	0
115	77920	15	0
115	83388	16	0
115	88856	17	0
115	94324	18	0
115	99792	19	0
115	105260	20	0
115	110728	21	0
115	116196	22	0
115	121664	23	0
115	127132	24	0
115	132600	25	0
115	138068	26	0
115	143536	27	0
115	149004	28	0
115	154472	29	0
115	159940	30	0
115	165408	31	0
115	170876	32	0
115	176344	33	0
115	181812	34	0
115	187280	35	0
115	192748	36	0
115	198216	37	0
115	203684	38	0
115	209152	39	0
115	214620	40	0
115	220088	41	0
115	225556	42	0
115	231024	43	0
115	236492	44	0
115	241960	45	0
115	247428	46	0
115	252896	47	0
115	258364	48	0
115	263832	49	0
115	269300	50	0
115	274768	51	0
115	280236	52	0
115	285704	53	0
115	291172	54	0
115	296640	55	0
115	302108	56	0
115	307576	57	0
115	313044	58	0
115	318512	59	0
115	323980	60	0
115	329448	61	0
115	334916	62	0
115	340384	63	0
115	345852	64	0
115	351320	65	0
115	356788	66	0
115	362256	67	0
115	367724	68	0
115	373192	69	0
115	378660	70	0
115	384128	71	0
115	389596	72	0
115	395064	73	0
115	400532	74	0
115	406000	75	0
115	411468	76	0
115	416936	77	0
115	422404	78	0
115	427872	79	0
115	433340	80	0
115	438808	81	0
115	444276	82	0
115	449744	83	0
115	455212	84	0
115	460680	85	0
115	466148	86	0
115	471616	87	0
115	477084	88	0
115	482552	89	0
115	488020	90	0
115	493488	91	0
115	498956	92	0
115	504424	93	0
115	509892	94	0
115	515360	95	0
115	520828	96	0
115	526296	97	0
115	531764	98	0
115	537232	99	0
115	542700	100	0

