file 2391164 1720582644                                         
version 3
run BreakRanksNoGui-28-20240710-05:37:14-231568
attr configname BreakRanksNoGui
attr datetime 20240710-05:37:14
attr datetimef 20240710-053714
attr experiment BreakRanksNoGui
attr inifile omnetpp.ini
attr iterationvars "$nCars=8, $platoonSize=8, $nLanes=1, $ploegH=0.5, $controller=1, $headway=0.1, $leaderHeadway=1.2, $leaderSpeed=110, $breakRanksSafetyDistance=2, $minSpeed=100, $maxSpeed=120, $beaconInterval=0.1, $priority=4, $packetSize=200, $sController=\"CACC\", $0=2, $1=0"
attr iterationvarsd nCars=8/platoonSize=8/nLanes=1/ploegH=0.5/controller=1/headway=0.1/leaderHeadway=1.2/leaderSpeed=110/breakRanksSafetyDistance=2/minSpeed=100/maxSpeed=120/beaconInterval=0.1/priority=4/packetSize=200/sController=CACC/2/0
attr iterationvarsf nCars=8,platoonSize=8,nLanes=1,ploegH=0.5,controller=1,headway=0.1,leaderHeadway=1.2,leaderSpeed=110,breakRanksSafetyDistance=2,minSpeed=100,maxSpeed=120,beaconInterval=0.1,priority=4,packetSize=200,sController=CACC,2,0-
attr measurement "$nCars=8, $platoonSize=8, $nLanes=1, $ploegH=0.5, $controller=1, $headway=0.1, $leaderHeadway=1.2, $leaderSpeed=110, $breakRanksSafetyDistance=2, $minSpeed=100, $maxSpeed=120, $beaconInterval=0.1, $priority=4, $packetSize=200, $sController=\"CACC\", $0=2, $1=0"
attr network Highway
attr processid 231568
attr repetition 8
attr replication #8
attr resultdir results
attr runnumber 28
attr seedset 8
itervar beaconInterval 0.1
itervar breakRanksSafetyDistance 2
itervar controller 1
itervar headway 0.1
itervar leaderHeadway 1.2
itervar leaderSpeed 110
itervar maxSpeed 120
itervar minSpeed 100
itervar nCars 8
itervar nLanes 1
itervar packetSize 200
itervar platoonSize 8
itervar ploegH 0.5
itervar priority 4
itervar sController "\"CACC\""
config image-path ../../../veins/images
config repeat 10
config extends BreakRanks
config *.manager.command "\"sumo\""
config *.manager.ignoreGuiCommands true
config output-vector-file results/BreakRanks_1_0.1_110_2/result_8.vec
config output-scalar-file results/BreakRanks_1_0.1_110_2/result_8.sca
config extends Platooning
config *.node[*].scenario_type "\"BreakRanksScenario\""
config *.manager.command "\"sumo-gui\""
config *.node[*].scenario_type "\"SimpleScenario\""
config cmdenv-express-mode true
config cmdenv-autoflush true
config cmdenv-status-frequency 15s
config num-rngs 6
config network Highway
config debug-on-errors true
config print-undisposed true
config *.playgroundSizeX 65000m
config *.playgroundSizeY 25000m
config *.playgroundSizeZ 50m
config sim-time-limit "100 s"
config *.annotations.draw false
config *.obstacles.debug false
config *.world.useTorus false
config *.world.use2D false
config *.manager.updateInterval 0.01s
config *.manager.host "\"localhost\""
config *.manager.moduleType "\"org.car2x.plexe.PlatoonCar\""
config *.manager.moduleName "\"node\""
config *.manager.moduleDisplayString "\"\""
config *.manager.autoShutdown true
config *.manager.margin 25
config *.connectionManager.sendDirect true
config *.connectionManager.maxInterfDist 2600m
config *.connectionManager.drawMaxIntfDist false
config *.**.nic.mac1609_4.useServiceChannel false
config *.**.nic.mac1609_4.txPower 100mW
config *.**.nic.mac1609_4.bitrate 6Mbps
config *.**.nic.mac1609_4.useAcks true
config *.**.nic.mac1609_4.ackErrorRate 0.0
config *.**.nic.mac1609_4.frameErrorRate 0.0
config *.**.nic.phy80211p.minPowerLevel -94dBm
config *.**.nic.phy80211p.maxTXPower 100mW
config *.**.nic.phy80211p.useNoiseFloor true
config *.**.nic.phy80211p.noiseFloor -95dBm
config *.**.nic.phy80211p.decider "xmldoc(\"config.xml\")"
config *.**.nic.phy80211p.analogueModels "xmldoc(\"config.xml\")"
config *.**.nic.phy80211p.usePropagationDelay true
config *.node[*].mobility.x 0
config *.node[*].mobility.y 0
config *.node[*].mobility.z 1.895
config seed-set 8
config **.seed 8
config *.node[*].prot.rng-0 2
config *.node[*].appl.rng-0 3
config *.node[*].scenario.rng-0 4
config **.traffic.rng-0 5
config *.manager.configFile "\"./sumocfg/freeway.sumo.cfg\""
config *.manager.launchConfig "xmldoc(\"./sumocfg/freeway.launchd.xml\")"
config **.numberOfCars 8
config **.numberOfCarsPerPlatoon 8
config **.numberOfLanes 1
config *.node[*].helper_type "\"PositionHelper\""
config *.node[*].scenario.caccC1 0.5
config *.node[*].scenario.caccXi 1
config *.node[*].scenario.caccOmegaN "0.2 Hz"
config *.node[*].scenario.caccSpacing "2 m"
config *.node[*].scenario.engineTau "0.5 s"
config *.node[*].scenario.ploegH 0.5s
config *.node[*].scenario.ploegKp 0.2
config *.node[*].scenario.ploegKd 0.7
config *.node[*].scenario.useRealisticEngine false
config *.node[*].scenario.useControllerAcceleration true
config *.node[*].scenario.nLanes 1
config **.numericController 1
config **.headway 0.1s
config *.node[*].scenario.accHeadway 0.1s
config *.node[*].scenario.leaderHeadway 1.2s
config *.node[*].scenario.leaderSpeed 110kmph
config *.node[*].appl_type "\"SimplePlatooningApp\""
config *.node[*].appl.*.scalar-recording true
config *.node[*].appl.*.vector-recording true
config *.node[0].appl.breakRanksSafetyDistance 2m
config *.node[*].appl.minSpeed 100kmph
config *.node[*].appl.maxSpeed 120kmph
config *.node[*].protocol_type "\"SimplePlatooningBeaconing\""
config *.node[*].prot.*.scalar-recording true
config *.node[*].prot.*.vector-recording true
config *.node[*].prot.beaconingInterval 0.1s
config *.node[*].prot.priority 4
config *.node[*].prot.packetSize 200
config **.traffic_type "\"PlatoonsTrafficManager\""
config **.traffic.platoonInsertTime "1 s"
config **.traffic.platoonInsertSpeed 110kmph
config **.traffic.nCars 8
config **.traffic.platoonSize 8
config **.traffic.nLanes 1
config **.traffic.platooningVType "\"vtypeauto\""
config **.traffic.controller "\"CACC\""
config **.traffic.platoonInsertDistance 2m
config **.traffic.platoonInsertHeadway 0s
config **.traffic.platoonLeaderHeadway 1.2s
config **.scalar-recording false
config **.vector-recording false

vector 0 Highway.node[0].appl distance ETV
vector 1 Highway.node[0].appl relativeSpeed ETV
vector 2 Highway.node[0].appl nodeId ETV
vector 3 Highway.node[0].appl acceleration ETV
vector 4 Highway.node[0].appl controllerAcceleration ETV
vector 5 Highway.node[0].appl speed ETV
vector 6 Highway.node[0].appl posx ETV
vector 7 Highway.node[0].appl posy ETV
vector 8 Highway.node[1].appl distance ETV
vector 9 Highway.node[1].appl relativeSpeed ETV
vector 10 Highway.node[1].appl nodeId ETV
vector 11 Highway.node[1].appl acceleration ETV
vector 12 Highway.node[1].appl controllerAcceleration ETV
vector 13 Highway.node[1].appl speed ETV
vector 14 Highway.node[1].appl posx ETV
vector 15 Highway.node[1].appl posy ETV
vector 16 Highway.node[2].appl distance ETV
vector 17 Highway.node[2].appl relativeSpeed ETV
vector 18 Highway.node[2].appl nodeId ETV
vector 19 Highway.node[2].appl acceleration ETV
vector 20 Highway.node[2].appl controllerAcceleration ETV
vector 21 Highway.node[2].appl speed ETV
vector 22 Highway.node[2].appl posx ETV
vector 23 Highway.node[2].appl posy ETV
vector 24 Highway.node[3].appl distance ETV
vector 25 Highway.node[3].appl relativeSpeed ETV
vector 26 Highway.node[3].appl nodeId ETV
vector 27 Highway.node[3].appl acceleration ETV
vector 28 Highway.node[3].appl controllerAcceleration ETV
vector 29 Highway.node[3].appl speed ETV
vector 30 Highway.node[3].appl posx ETV
vector 31 Highway.node[3].appl posy ETV
vector 32 Highway.node[4].appl distance ETV
vector 33 Highway.node[4].appl relativeSpeed ETV
vector 34 Highway.node[4].appl nodeId ETV
vector 35 Highway.node[4].appl acceleration ETV
vector 36 Highway.node[4].appl controllerAcceleration ETV
vector 37 Highway.node[4].appl speed ETV
vector 38 Highway.node[4].appl posx ETV
vector 39 Highway.node[4].appl posy ETV
vector 40 Highway.node[5].appl distance ETV
vector 41 Highway.node[5].appl relativeSpeed ETV
vector 42 Highway.node[5].appl nodeId ETV
vector 43 Highway.node[5].appl acceleration ETV
vector 44 Highway.node[5].appl controllerAcceleration ETV
vector 45 Highway.node[5].appl speed ETV
vector 46 Highway.node[5].appl posx ETV
vector 47 Highway.node[5].appl posy ETV
vector 48 Highway.node[6].appl distance ETV
vector 49 Highway.node[6].appl relativeSpeed ETV
vector 50 Highway.node[6].appl nodeId ETV
vector 51 Highway.node[6].appl acceleration ETV
vector 52 Highway.node[6].appl controllerAcceleration ETV
vector 53 Highway.node[6].appl speed ETV
vector 54 Highway.node[6].appl posx ETV
vector 55 Highway.node[6].appl posy ETV
vector 56 Highway.node[7].appl distance ETV
vector 57 Highway.node[7].appl relativeSpeed ETV
vector 58 Highway.node[7].appl nodeId ETV
vector 59 Highway.node[7].appl acceleration ETV
vector 60 Highway.node[7].appl controllerAcceleration ETV
vector 61 Highway.node[7].appl speed ETV
vector 62 Highway.node[7].appl posx ETV
vector 63 Highway.node[7].appl posy ETV
vector 64 Highway.node[4].prot frontDelay ETV
vector 65 Highway.node[4].prot frontDelayId ETV
vector 66 Highway.node[2].prot frontDelay ETV
vector 67 Highway.node[2].prot frontDelayId ETV
vector 68 Highway.node[3].prot frontDelay ETV
vector 69 Highway.node[3].prot frontDelayId ETV
vector 70 Highway.node[5].prot frontDelay ETV
vector 71 Highway.node[5].prot frontDelayId ETV
vector 72 Highway.node[7].prot frontDelay ETV
vector 73 Highway.node[7].prot frontDelayId ETV
vector 74 Highway.node[1].prot leaderDelay ETV
vector 75 Highway.node[1].prot leaderDelayId ETV
vector 76 Highway.node[1].prot frontDelay ETV
vector 77 Highway.node[1].prot frontDelayId ETV
vector 78 Highway.node[2].prot leaderDelay ETV
vector 79 Highway.node[2].prot leaderDelayId ETV
vector 80 Highway.node[3].prot leaderDelay ETV
vector 81 Highway.node[3].prot leaderDelayId ETV
vector 82 Highway.node[4].prot leaderDelay ETV
vector 83 Highway.node[4].prot leaderDelayId ETV
vector 84 Highway.node[5].prot leaderDelay ETV
vector 85 Highway.node[5].prot leaderDelayId ETV
vector 86 Highway.node[6].prot leaderDelay ETV
vector 87 Highway.node[6].prot leaderDelayId ETV
vector 88 Highway.node[7].prot leaderDelay ETV
vector 89 Highway.node[7].prot leaderDelayId ETV
vector 90 Highway.node[6].prot frontDelay ETV
vector 91 Highway.node[6].prot frontDelayId ETV
vector 92 Highway.node[0].prot nodeId ETV
vector 93 Highway.node[0].prot busyTime ETV
vector 94 Highway.node[0].prot collisions ETV
vector 95 Highway.node[1].prot nodeId ETV
vector 96 Highway.node[1].prot busyTime ETV
vector 97 Highway.node[1].prot collisions ETV
vector 98 Highway.node[2].prot nodeId ETV
vector 99 Highway.node[2].prot busyTime ETV
vector 100 Highway.node[2].prot collisions ETV
vector 101 Highway.node[3].prot nodeId ETV
vector 102 Highway.node[3].prot busyTime ETV
vector 103 Highway.node[3].prot collisions ETV
vector 104 Highway.node[4].prot nodeId ETV
vector 105 Highway.node[4].prot busyTime ETV
vector 106 Highway.node[4].prot collisions ETV
vector 107 Highway.node[5].prot nodeId ETV
vector 108 Highway.node[5].prot busyTime ETV
vector 109 Highway.node[5].prot collisions ETV
vector 110 Highway.node[6].prot nodeId ETV
vector 111 Highway.node[6].prot busyTime ETV
vector 112 Highway.node[6].prot collisions ETV
vector 113 Highway.node[7].prot nodeId ETV
vector 114 Highway.node[7].prot busyTime ETV
vector 115 Highway.node[7].prot collisions ETV
0	11185 21222 113 542371 1.11 99.91 989 -1 104.443 44461.5221 2972261.0108176
1	32407 20304 113 542371 1.11 99.91 989 0 2.4444 1429.9664 2891.65066816
2	52711 16524 113 542371 1.11 99.91 989 0 0 0 0
3	69235 19112 113 542371 1.11 99.91 989 -0.00283113 0.000125957 -0.043966303784312 9.6812896349407e-05
4	88347 26492 113 542371 1.11 99.91 989 -0.00437036 0.00019576 -0.042459310034081 0.00013890441444735
5	114839 22454 113 542371 1.11 99.91 989 30.5554 30.56 30219.5304 923377.16656332
6	137293 22352 113 542371 1.11 99.91 989 65.6804 3084.58 1557804.5716 3206389031.5438
7	159645 21469 113 542371 1.11 99.91 989 242.45 242.45 239783.05 58135400.472499
8	181114 17953 114 542372 1.11 99.91 989 -1 2 -719.05405 1258.7838359873
9	199067 17447 114 542372 1.11 99.91 989 -0.0004354 6.33714e-05 -0.00509998937 2.6454531543482e-06
10	216514 17513 114 542372 1.11 99.91 989 1 1 989 989
11	234027 21513 114 542372 1.11 99.91 989 -0.0597332 1.34104 24.414929489485 25.43216134595
12	255540 27904 114 542372 1.11 99.91 989 -0.0929086 1.5 24.185521438868 33.011515379013
13	283444 19483 114 542372 1.11 99.91 989 30.5554 33.0929 32386.9458 1061110.1484683
14	302927 22586 114 542372 1.11 99.91 989 59.6804 3295.2 1647965.0526 3620004440.8739
15	325513 22458 114 542372 1.11 99.91 989 242.45 245.75 240254.95 58365782.052499
16	347971 23363 115 542373 1.11 99.91 989 1.99977 82.2824 42410.76271 2260424.0226617
17	371334 21691 115 542373 1.11 99.91 989 -8.70308e-05 2.6271 1183.0993177109 1681.1593845774
18	393025 17513 115 542373 1.11 99.91 989 2 2 1978 3956
19	410538 24992 115 542373 1.11 99.91 989 -1.66117 0.290722 -15.553884369639 35.400254386702
20	435530 27291 115 542373 1.11 99.91 989 -2.53478 0.327905 -14.430402160418 49.657708274925
21	462821 19997 115 542373 1.11 99.91 989 27.9285 30.56 28792.5281 838476.38370275
22	482818 23136 115 542373 1.11 99.91 989 53.6804 2929.96 1480668.3502 2895437606.1861
23	505954 22458 115 542373 1.11 99.91 989 242.45 242.45 239783.05 58135400.472499
24	528412 23294 116 542374 1.11 99.91 989 1.99976 36.7946 29165.37759 998692.9778143
25	551706 25439 116 542374 1.11 99.91 989 -3.43232e-05 3.0205 347.94600805929 575.32980881227
26	577145 17513 116 542374 1.11 99.91 989 3 3 2967 8901
27	594658 26224 116 542374 1.11 99.91 989 -2.42344 0.563525 -15.555471234681 113.07395709207
28	620882 26220 116 542374 1.11 99.91 989 -3.05019 0.605093 -14.22999845208 137.48579880231
29	647102 23333 116 542374 1.11 99.91 989 25.1259 30.56 28444.5827 819054.52601375
30	670435 23336 116 542374 1.11 99.91 989 47.6804 2889.16 1447546.1454 2782114258.1114
31	693771 22458 116 542374 1.11 99.91 989 242.45 242.45 239783.05 58135400.472499
32	716229 23178 117 542375 1.11 99.91 989 -1 79.1206 48298.77394 2913811.8391254
33	739407 21540 117 542375 1.11 99.91 989 -4.16455e-05 5.77739 1247.0772399439 2877.2256576452
34	760947 17513 117 542375 1.11 99.91 989 4 4 3956 15824
35	778460 21652 117 542375 1.11 99.91 989 -2.66052 1.43112 -5.5533123838497 114.24473864773
36	800112 27783 117 542375 1.11 99.91 989 -3.05303 1.5 -5.2540516355361 179.88845363579
37	827895 19607 117 542375 1.11 99.91 989 26.9203 30.56 29648.9626 889034.50868336
38	847502 23429 117 542375 1.11 99.91 989 41.6804 3003.55 1505394.4704 3015450846.9509
39	870931 22458 117 542375 1.11 99.91 989 242.45 245.75 241251.55000001 58852322.172499
40	893389 20966 118 542376 1.11 99.91 989 -1 116.728 39939.28047 3907050.9569147
41	914355 18589 118 542376 1.11 99.91 989 -2.4759e-05 3.68711 437.1087256943 479.8141534741
42	932944 17513 118 542376 1.11 99.91 989 5 5 4945 24725
43	950457 21689 118 542376 1.11 99.91 989 -2.47718 1.4654 14.466131208057 85.173012549548
44	972146 27745 118 542376 1.11 99.91 989 -3.05302 1.5 16.656162753654 142.08380629576
45	999891 19603 118 542376 1.11 99.91 989 28.3403 32.1017 31419.167 998551.0995567
46	1019494 23427 118 542376 1.11 99.91 989 35.6804 3174.47 1577794.0636 3337876429.7979
47	1042921 22458 118 542376 1.11 99.91 989 242.45 249.05 241881.85000001 59163606.552499
48	1065379 21265 119 542377 1.11 99.91 989 -1 154.773 21944.74929 1377263.2659142
49	1086644 19747 119 542377 1.11 99.91 989 -0.083029 7.34777 670.71493284739 1914.1434503902
50	1106391 17513 119 542377 1.11 99.91 989 6 6 5934 35604
51	1123904 21862 119 542377 1.11 99.91 989 -2.52395 1.49421 -15.532134042766 186.8055483491
52	1145766 27594 119 542377 1.11 99.91 989 -3.05301 1.5 -14.14490402705 225.7893323999
53	1173360 19760 119 542377 1.11 99.91 989 24.0438 30.56 28635.9359 830067.81619905
54	1193120 22641 119 542377 1.11 99.91 989 29.6804 2890.3 1443481.9758 2780420861.3254
55	1215761 22458 119 542377 1.11 99.91 989 242.45 249.05 242736.55 59577996.1325
56	1238219 19232 120 542378 1.11 99.91 989 -1 50.1993 3019.02923 135536.56763093
57	1257451 18936 120 542378 1.11 99.91 989 -4.73015e-05 3.01504 314.97883748532 944.87461436401
58	1276387 17513 120 542378 1.11 99.91 989 7 7 6923 48461
59	1293900 21553 120 542378 1.11 99.91 989 -1.00013 0.0445521 -15.562042431092 12.087186975953
60	1315453 27389 120 542378 1.11 99.91 989 -1.5 0.0691707 -14.77317890647 16.856016211657
61	1342842 19448 120 542378 1.11 99.91 989 28.9308 30.56 28835.6743 840954.81096455
62	1362290 23269 120 542378 1.11 99.91 989 23.6804 2904.27 1454713.2198 2819749882.499
63	1385559 22458 120 542378 1.11 99.91 989 242.45 252.35 245930.95 61159216.872502
64	1408017 39990 768 542492 1.218681580402 99.918686063375 988 0.099987480317 0.100005097465 98.800004963306 9.8800010166893
65	1448007 27264 768 542492 1.218681580402 99.918686063375 988 4 4 3952 15808
66	1475271 40002 835 542559 1.22410962043 99.924103254891 988 0.099987480318 0.100005094462 98.799994114794 9.8799988470579
67	1515273 27268 835 542559 1.22410962043 99.924103254891 988 2 2 1976 3952
68	1542541 40020 902 542620 1.233905640444 99.933899390967 988 0.099987480317 0.10000580689 98.799994230856 9.8799988704521
69	1582561 27269 902 542620 1.233905640444 99.933899390967 988 3 3 2964 8892
70	1609830 39996 968 542704 1.236616680472 99.936611070802 988 0.099987480317 0.10000580689 98.799994870663 9.8799989984081
71	1649826 27252 968 542704 1.236616680472 99.936611070802 988 5 5 4940 24700
72	1677078 39982 1036 542748 1.2505597205 99.950553926396 988 0.099987480318 0.10000509513 98.799994686229 9.879998961369
73	1717060 27268 1036 542748 1.2505597205 99.950553926396 988 7 7 6916 48412
74	1744328 39992 1097 542845 1.260290840583 99.960286229867 988 0.099987480317 0.100005809718 98.799995869617 9.8799991982074
75	1784320 27258 1097 542845 1.260290840583 99.960286229867 988 1 1 988 988
76	1811578 39992 1097 542845 1.260290840583 99.960286229867 988 0.099987480317 0.100005809718 98.799995869617 9.8799991982074
77	1851570 27258 1097 542845 1.260290840583 99.960286229867 988 1 1 988 988
78	1878828 40015 1103 542821 1.260290860597 99.960286042934 988 0.099987480317 0.100005806891 98.79999566267 9.879999156818
79	1918843 27265 1103 542821 1.260290860597 99.960286042934 988 2 2 1976 3952
80	1946108 39997 1109 542839 1.26029088061 99.96028617901 988 0.099987480317 0.100005806891 98.799995778732 9.8799991800304
81	1986105 27275 1109 542839 1.26029088061 99.96028617901 988 3 3 2964 8892
82	2013380 39977 1115 542809 1.260290900624 99.960285797286 988 0.099987480317 0.10000580689 98.799995376995 9.879999099683
83	2053357 27263 1115 542809 1.260290900624 99.960285797286 988 4 4 3952 15808
84	2080620 39998 1121 542815 1.260290920638 99.960285826996 988 0.099987480317 0.100005806891 98.799995386691 9.8799991016222
85	2120618 27288 1121 542815 1.260290920638 99.960285826996 988 5 5 4940 24700
86	2147906 40000 1127 542833 1.260290940652 99.960286175316 988 0.099987480317 0.10000580689 98.799995714997 9.8799991672834
87	2187906 27277 1127 542833 1.260290940652 99.960286175316 988 6 6 5928 35568
88	2215183 39980 1133 542827 1.260290960666 99.960286129013 988 0.099987480317 0.10000580861 98.79999564868 9.87999915402
89	2255163 27263 1133 542827 1.260290960666 99.960286129013 988 7 7 6916 48412
90	2282426 40016 1170 542906 1.271698940652 99.97170777566 988 0.099987480317 0.100005806891 98.800009315341 9.8800018872227
91	2322442 27281 1170 542906 1.271698940652 99.97170777566 988 6 6 5928 35568
92	2349723 1460 5026 542916 2 100 99 0 0 0 0
93	2351183 2062 5026 542916 2 100 99 0.022473 0.027235601047 2.471798601047 0.061726400993391
94	2353245 1460 5026 542916 2 100 99 0 0 0 0
95	2354705 1460 5027 542917 2 100 99 1 1 99 99
96	2356165 2062 5027 542917 2 100 99 0.022473 0.026938480319 2.471501480319 0.061710304750897
97	2358227 1460 5027 542917 2 100 99 0 0 0 0
98	2359687 1460 5028 542918 2 100 99 2 2 198 396
99	2361147 2062 5028 542918 2 100 99 0.022473 0.027011360237 2.471574360237 0.061714236610853
100	2363209 1559 5028 542918 2 100 99 0 0 0 0
101	2364768 1559 5029 542919 2 100 99 3 3 297 891
102	2366327 2161 5029 542919 2 100 99 0.022473 0.027044600397 2.471607600397 0.061716033439633
103	2368488 1559 5029 542919 2 100 99 0 0 0 0
104	2370047 1559 5030 542920 2 100 99 4 4 396 1584
105	2371606 2161 5030 542920 2 100 99 0.022473 0.027011520348 2.471574520348 0.06171424526051
106	2373767 1559 5030 542920 2 100 99 0 0 0 0
107	2375326 1559 5031 542921 2 100 99 5 5 495 2475
108	2376885 2161 5031 542921 2 100 99 0.022473 0.027011480318 2.471574480318 0.06171424309797
109	2379046 1559 5031 542921 2 100 99 0 0 0 0
110	2380605 1559 5032 542922 2 100 99 6 6 594 3564
111	2382164 2161 5032 542922 2 100 99 0.022473 0.027106440293 2.471669440293 0.061719382134358
112	2384325 1559 5032 542922 2 100 99 0 0 0 0
113	2385884 1559 5033 542923 2 100 99 7 7 693 4851
114	2387443 2161 5033 542923 2 100 99 0.022473 0.027139520342 2.471702520342 0.061721176593394
115	2389604 1559 5033 542923 2 100 99 0 0 0 0

