version 3
run BreakRanksNoGui-24-20240708-17:38:25-154606
attr configname BreakRanksNoGui
attr datetime 20240708-17:38:25
attr datetimef 20240708-173825
attr experiment BreakRanksNoGui
attr inifile omnetpp.ini
attr iterationvars "$nCars=8, $platoonSize=8, $nLanes=1, $ploegH=0.5, $controller=1, $headway=0.1, $leaderHeadway=1.2, $leaderSpeed=110, $breakRanksSafetyDistance=2, $minSpeed=100, $maxSpeed=120, $beaconInterval=0.1, $priority=4, $packetSize=200, $sController=\"CACC\", $0=2, $1=0"
attr iterationvarsd nCars=8/platoonSize=8/nLanes=1/ploegH=0.5/controller=1/headway=0.1/leaderHeadway=1.2/leaderSpeed=110/breakRanksSafetyDistance=2/minSpeed=100/maxSpeed=120/beaconInterval=0.1/priority=4/packetSize=200/sController=CACC/2/0
attr iterationvarsf nCars=8,platoonSize=8,nLanes=1,ploegH=0.5,controller=1,headway=0.1,leaderHeadway=1.2,leaderSpeed=110,breakRanksSafetyDistance=2,minSpeed=100,maxSpeed=120,beaconInterval=0.1,priority=4,packetSize=200,sController=CACC,2,0-
attr measurement "$nCars=8, $platoonSize=8, $nLanes=1, $ploegH=0.5, $controller=1, $headway=0.1, $leaderHeadway=1.2, $leaderSpeed=110, $breakRanksSafetyDistance=2, $minSpeed=100, $maxSpeed=120, $beaconInterval=0.1, $priority=4, $packetSize=200, $sController=\"CACC\", $0=2, $1=0"
attr network Highway
attr processid 154606
attr repetition 4
attr replication #4
attr resultdir results
attr runnumber 24
attr seedset 4
itervar beaconInterval 0.1
itervar breakRanksSafetyDistance 2
itervar controller 1
itervar headway 0.1
itervar leaderHeadway 1.2
itervar leaderSpeed 110
itervar maxSpeed 120
itervar minSpeed 100
itervar nCars 8
itervar nLanes 1
itervar packetSize 200
itervar platoonSize 8
itervar ploegH 0.5
itervar priority 4
itervar sController "\"CACC\""
config image-path ../../../veins/images
config repeat 10
config extends BreakRanks
config *.manager.command "\"sumo\""
config *.manager.ignoreGuiCommands true
config output-vector-file results/BreakRanks_1_0.1_110_2/result_4.vec
config output-scalar-file results/BreakRanks_1_0.1_110_2/result_4.sca
config extends Platooning
config *.node[*].scenario_type "\"BreakRanksScenario\""
config *.manager.command "\"sumo-gui\""
config *.node[*].scenario_type "\"SimpleScenario\""
config cmdenv-express-mode true
config cmdenv-autoflush true
config cmdenv-status-frequency 15s
config num-rngs 6
config network Highway
config debug-on-errors true
config print-undisposed true
config *.playgroundSizeX 65000m
config *.playgroundSizeY 25000m
config *.playgroundSizeZ 50m
config sim-time-limit "100 s"
config *.annotations.draw false
config *.obstacles.debug false
config *.world.useTorus false
config *.world.use2D false
config *.manager.updateInterval 0.01s
config *.manager.host "\"localhost\""
config *.manager.moduleType "\"org.car2x.plexe.PlatoonCar\""
config *.manager.moduleName "\"node\""
config *.manager.moduleDisplayString "\"\""
config *.manager.autoShutdown true
config *.manager.margin 25
config *.connectionManager.sendDirect true
config *.connectionManager.maxInterfDist 2600m
config *.connectionManager.drawMaxIntfDist false
config *.**.nic.mac1609_4.useServiceChannel false
config *.**.nic.mac1609_4.txPower 100mW
config *.**.nic.mac1609_4.bitrate 6Mbps
config *.**.nic.mac1609_4.useAcks true
config *.**.nic.mac1609_4.ackErrorRate 0.0
config *.**.nic.mac1609_4.frameErrorRate 0.0
config *.**.nic.phy80211p.minPowerLevel -94dBm
config *.**.nic.phy80211p.maxTXPower 100mW
config *.**.nic.phy80211p.useNoiseFloor true
config *.**.nic.phy80211p.noiseFloor -95dBm
config *.**.nic.phy80211p.decider "xmldoc(\"config.xml\")"
config *.**.nic.phy80211p.analogueModels "xmldoc(\"config.xml\")"
config *.**.nic.phy80211p.usePropagationDelay true
config *.node[*].mobility.x 0
config *.node[*].mobility.y 0
config *.node[*].mobility.z 1.895
config seed-set 4
config **.seed 4
config *.node[*].prot.rng-0 2
config *.node[*].appl.rng-0 3
config *.node[*].scenario.rng-0 4
config **.traffic.rng-0 5
config *.manager.configFile "\"./sumocfg/freeway.sumo.cfg\""
config *.manager.launchConfig "xmldoc(\"./sumocfg/freeway.launchd.xml\")"
config **.numberOfCars 8
config **.numberOfCarsPerPlatoon 8
config **.numberOfLanes 1
config *.node[*].helper_type "\"PositionHelper\""
config *.node[*].scenario.caccC1 0.5
config *.node[*].scenario.caccXi 1
config *.node[*].scenario.caccOmegaN "0.2 Hz"
config *.node[*].scenario.caccSpacing "2 m"
config *.node[*].scenario.engineTau "0.5 s"
config *.node[*].scenario.ploegH 0.5s
config *.node[*].scenario.ploegKp 0.2
config *.node[*].scenario.ploegKd 0.7
config *.node[*].scenario.useRealisticEngine false
config *.node[*].scenario.useControllerAcceleration true
config *.node[*].scenario.nLanes 1
config **.numericController 1
config **.headway 0.1s
config *.node[*].scenario.accHeadway 0.1s
config *.node[*].scenario.leaderHeadway 1.2s
config *.node[*].scenario.leaderSpeed 110kmph
config *.node[*].appl_type "\"SimplePlatooningApp\""
config *.node[*].appl.*.scalar-recording true
config *.node[*].appl.*.vector-recording true
config *.node[0].appl.breakRanksSafetyDistance 2m
config *.node[*].appl.minSpeed 100kmph
config *.node[*].appl.maxSpeed 120kmph
config *.node[*].protocol_type "\"SimplePlatooningBeaconing\""
config *.node[*].prot.*.scalar-recording true
config *.node[*].prot.*.vector-recording true
config *.node[*].prot.beaconingInterval 0.1s
config *.node[*].prot.priority 4
config *.node[*].prot.packetSize 200
config **.traffic_type "\"PlatoonsTrafficManager\""
config **.traffic.platoonInsertTime "1 s"
config **.traffic.platoonInsertSpeed 110kmph
config **.traffic.nCars 8
config **.traffic.platoonSize 8
config **.traffic.nLanes 1
config **.traffic.platooningVType "\"vtypeauto\""
config **.traffic.controller "\"CACC\""
config **.traffic.platoonInsertDistance 2m
config **.traffic.platoonInsertHeadway 0s
config **.traffic.platoonLeaderHeadway 1.2s
config **.scalar-recording false
config **.vector-recording false
config output-vector-file results/BreakRanksNoGui_1_0.1_110_2/result_4.vec
config output-scalar-file results/BreakRanksNoGui_1_0.1_110_2/result_4.sca

vector 0 Highway.node[0].appl distance ETV
vector 1 Highway.node[0].appl relativeSpeed ETV
vector 2 Highway.node[0].appl nodeId ETV
vector 3 Highway.node[0].appl acceleration ETV
vector 4 Highway.node[0].appl controllerAcceleration ETV
vector 5 Highway.node[0].appl speed ETV
vector 6 Highway.node[0].appl posx ETV
vector 7 Highway.node[0].appl posy ETV
vector 8 Highway.node[1].appl distance ETV
vector 9 Highway.node[1].appl relativeSpeed ETV
vector 10 Highway.node[1].appl nodeId ETV
vector 11 Highway.node[1].appl acceleration ETV
vector 12 Highway.node[1].appl controllerAcceleration ETV
vector 13 Highway.node[1].appl speed ETV
vector 14 Highway.node[1].appl posx ETV
vector 15 Highway.node[1].appl posy ETV
vector 16 Highway.node[2].appl distance ETV
vector 17 Highway.node[2].appl relativeSpeed ETV
vector 18 Highway.node[2].appl nodeId ETV
vector 19 Highway.node[2].appl acceleration ETV
vector 20 Highway.node[2].appl controllerAcceleration ETV
vector 21 Highway.node[2].appl speed ETV
vector 22 Highway.node[2].appl posx ETV
vector 23 Highway.node[2].appl posy ETV
vector 24 Highway.node[3].appl distance ETV
vector 25 Highway.node[3].appl relativeSpeed ETV
vector 26 Highway.node[3].appl nodeId ETV
vector 27 Highway.node[3].appl acceleration ETV
vector 28 Highway.node[3].appl controllerAcceleration ETV
vector 29 Highway.node[3].appl speed ETV
vector 30 Highway.node[3].appl posx ETV
vector 31 Highway.node[3].appl posy ETV
vector 32 Highway.node[4].appl distance ETV
vector 33 Highway.node[4].appl relativeSpeed ETV
vector 34 Highway.node[4].appl nodeId ETV
vector 35 Highway.node[4].appl acceleration ETV
vector 36 Highway.node[4].appl controllerAcceleration ETV
vector 37 Highway.node[4].appl speed ETV
vector 38 Highway.node[4].appl posx ETV
vector 39 Highway.node[4].appl posy ETV
vector 40 Highway.node[5].appl distance ETV
vector 41 Highway.node[5].appl relativeSpeed ETV
vector 42 Highway.node[5].appl nodeId ETV
vector 43 Highway.node[5].appl acceleration ETV
vector 44 Highway.node[5].appl controllerAcceleration ETV
vector 45 Highway.node[5].appl speed ETV
vector 46 Highway.node[5].appl posx ETV
vector 47 Highway.node[5].appl posy ETV
vector 48 Highway.node[6].appl distance ETV
vector 49 Highway.node[6].appl relativeSpeed ETV
vector 50 Highway.node[6].appl nodeId ETV
vector 51 Highway.node[6].appl acceleration ETV
vector 52 Highway.node[6].appl controllerAcceleration ETV
vector 53 Highway.node[6].appl speed ETV
vector 54 Highway.node[6].appl posx ETV
vector 55 Highway.node[6].appl posy ETV
vector 56 Highway.node[7].appl distance ETV
vector 57 Highway.node[7].appl relativeSpeed ETV
vector 58 Highway.node[7].appl nodeId ETV
vector 59 Highway.node[7].appl acceleration ETV
vector 60 Highway.node[7].appl controllerAcceleration ETV
vector 61 Highway.node[7].appl speed ETV
vector 62 Highway.node[7].appl posx ETV
vector 63 Highway.node[7].appl posy ETV
vector 64 Highway.node[4].prot frontDelay ETV
vector 65 Highway.node[4].prot frontDelayId ETV
vector 66 Highway.node[1].prot leaderDelay ETV
vector 67 Highway.node[1].prot leaderDelayId ETV
vector 68 Highway.node[1].prot frontDelay ETV
vector 69 Highway.node[1].prot frontDelayId ETV
vector 70 Highway.node[2].prot leaderDelay ETV
vector 71 Highway.node[2].prot leaderDelayId ETV
vector 72 Highway.node[3].prot leaderDelay ETV
vector 73 Highway.node[3].prot leaderDelayId ETV
vector 74 Highway.node[4].prot leaderDelay ETV
vector 75 Highway.node[4].prot leaderDelayId ETV
vector 76 Highway.node[5].prot leaderDelay ETV
vector 77 Highway.node[5].prot leaderDelayId ETV
vector 78 Highway.node[6].prot leaderDelay ETV
vector 79 Highway.node[6].prot leaderDelayId ETV
vector 80 Highway.node[7].prot leaderDelay ETV
vector 81 Highway.node[7].prot leaderDelayId ETV
vector 82 Highway.node[3].prot frontDelay ETV
vector 83 Highway.node[3].prot frontDelayId ETV
vector 84 Highway.node[6].prot frontDelay ETV
vector 85 Highway.node[6].prot frontDelayId ETV
vector 86 Highway.node[2].prot frontDelay ETV
vector 87 Highway.node[2].prot frontDelayId ETV
vector 88 Highway.node[5].prot frontDelay ETV
vector 89 Highway.node[5].prot frontDelayId ETV
vector 90 Highway.node[7].prot frontDelay ETV
vector 91 Highway.node[7].prot frontDelayId ETV
vector 92 Highway.node[0].prot nodeId ETV
vector 93 Highway.node[0].prot busyTime ETV
vector 94 Highway.node[0].prot collisions ETV
vector 95 Highway.node[1].prot nodeId ETV
vector 96 Highway.node[1].prot busyTime ETV
vector 97 Highway.node[1].prot collisions ETV
vector 98 Highway.node[2].prot nodeId ETV
vector 99 Highway.node[2].prot busyTime ETV
vector 100 Highway.node[2].prot collisions ETV
vector 101 Highway.node[3].prot nodeId ETV
vector 102 Highway.node[3].prot busyTime ETV
vector 103 Highway.node[3].prot collisions ETV
vector 104 Highway.node[4].prot nodeId ETV
vector 105 Highway.node[4].prot busyTime ETV
vector 106 Highway.node[4].prot collisions ETV
vector 107 Highway.node[5].prot nodeId ETV
vector 108 Highway.node[5].prot busyTime ETV
vector 109 Highway.node[5].prot collisions ETV
vector 110 Highway.node[6].prot nodeId ETV
vector 111 Highway.node[6].prot busyTime ETV
vector 112 Highway.node[6].prot collisions ETV
vector 113 Highway.node[7].prot nodeId ETV
vector 114 Highway.node[7].prot busyTime ETV
vector 115 Highway.node[7].prot collisions ETV
0	113	1.11	-1
0	659	1.21	-1
0	1205	1.31	-1
0	1751	1.41	-1
0	2297	1.51	-1
0	2843	1.61	-1
0	3389	1.71	-1
0	3935	1.81	-1
0	4481	1.91	-1
0	5035	2.01	-1
0	5581	2.11	-1
0	6127	2.21	-1
0	6673	2.31	-1
0	7219	2.41	-1
0	7765	2.51	-1
0	8311	2.61	-1
0	8857	2.71	-1
0	9403	2.81	-1
0	9949	2.91	-1
0	10503	3.01	-1
0	11049	3.11	-1
0	11595	3.21	-1
0	12141	3.31	-1
0	12687	3.41	-1
0	13233	3.51	-1
0	13779	3.61	-1
0	14325	3.71	-1
0	14871	3.81	-1
0	15417	3.91	-1
0	15971	4.01	-1
0	16517	4.11	-1
0	17063	4.21	-1
0	17609	4.31	-1
0	18155	4.41	-1
0	18701	4.51	-1
0	19247	4.61	-1
0	19793	4.71	-1
0	20339	4.81	-1
0	20885	4.91	-1
0	21439	5.01	-1
0	21985	5.11	-1
0	22531	5.21	-1
0	23077	5.31	-1
0	23623	5.41	-1
0	24169	5.51	-1
0	24715	5.61	-1
0	25261	5.71	-1
0	25807	5.81	-1
0	26353	5.91	-1
0	26907	6.01	-1
0	27453	6.11	-1
0	27999	6.21	-1
0	28545	6.31	-1
0	29091	6.41	-1
0	29637	6.51	-1
0	30183	6.61	-1
0	30729	6.71	-1
0	31275	6.81	-1
0	31821	6.91	-1
0	32375	7.01	-1
0	32921	7.11	-1
0	33467	7.21	-1
0	34013	7.31	-1
0	34559	7.41	-1
0	35105	7.51	-1
0	35651	7.61	-1
0	36197	7.71	-1
0	36743	7.81	-1
0	37289	7.91	-1
0	37843	8.01	-1
0	38389	8.11	-1
0	38935	8.21	-1
0	39481	8.31	-1
0	40027	8.41	-1
0	40573	8.51	-1
0	41119	8.61	-1
0	41665	8.71	-1
0	42211	8.81	-1
0	42757	8.91	-1
0	43311	9.01	-1
0	43857	9.11	-1
0	44403	9.21	-1
0	44949	9.31	-1
0	45495	9.41	-1
0	46041	9.51	-1
0	46587	9.61	-1
0	47133	9.71	-1
0	47679	9.81	-1
0	48225	9.91	-1
0	50415	10.01	-1
0	50961	10.11	-1
0	51507	10.21	-1
0	52053	10.31	-1
0	52599	10.41	-1
0	53145	10.51	-1
0	53691	10.61	-1
0	54237	10.71	-1
0	54783	10.81	-1
0	55329	10.91	-1
0	55883	11.01	-1
0	56429	11.11	-1
0	56975	11.21	-1
0	57521	11.31	-1
0	58067	11.41	-1
0	58613	11.51	-1
0	59159	11.61	-1
0	59705	11.71	-1
0	60251	11.81	-1
0	60797	11.91	-1
0	61351	12.01	-1
0	61897	12.11	-1
0	62443	12.21	-1
0	62989	12.31	-1
0	63535	12.41	-1
0	64081	12.51	-1
0	64627	12.61	-1
0	65173	12.71	-1
0	65719	12.81	-1
0	66265	12.91	-1
0	66819	13.01	-1
0	67365	13.11	-1
0	67911	13.21	-1
0	68457	13.31	-1
0	69003	13.41	-1
0	69549	13.51	-1
0	70095	13.61	-1
0	70641	13.71	-1
0	71187	13.81	-1
0	71733	13.91	-1
0	72287	14.01	-1
0	72833	14.11	-1
0	73379	14.21	-1
0	73925	14.31	-1
0	74471	14.41	-1
0	75017	14.51	-1
0	75563	14.61	-1
0	76109	14.71	-1
0	76655	14.81	-1
0	77201	14.91	-1
0	77755	15.01	-1
0	78301	15.11	-1
0	78847	15.21	-1
0	79393	15.31	-1
0	79939	15.41	-1
0	80485	15.51	-1
0	81031	15.61	-1
0	81577	15.71	-1
0	82123	15.81	-1
0	82669	15.91	-1
0	83223	16.01	-1
0	83769	16.11	-1
0	84315	16.21	-1
0	84861	16.31	-1
0	85407	16.41	-1
0	85953	16.51	-1
0	86499	16.61	-1
0	87045	16.71	-1
0	87591	16.81	-1
0	88137	16.91	-1
0	88691	17.01	-1
0	89237	17.11	-1
0	89783	17.21	-1
0	90329	17.31	-1
0	90875	17.41	-1
0	91421	17.51	-1
0	91967	17.61	-1
0	92513	17.71	-1
0	93059	17.81	-1
0	93605	17.91	-1
0	94159	18.01	-1
0	94705	18.11	-1
0	95251	18.21	-1
0	95797	18.31	-1
0	96343	18.41	-1
0	96889	18.51	-1
0	97435	18.61	-1
0	97981	18.71	-1
0	98527	18.81	-1
0	99073	18.91	-1
0	99627	19.01	-1
0	100173	19.11	-1
0	100719	19.21	-1
0	101265	19.31	-1
0	101811	19.41	-1
0	102357	19.51	-1
0	102903	19.61	-1
0	103449	19.71	-1
0	103995	19.81	-1
0	104541	19.91	-1
0	105095	20.01	-1
0	105641	20.11	-1
0	106187	20.21	-1
0	106733	20.31	-1
0	107279	20.41	-1
0	107825	20.51	-1
0	108371	20.61	-1
0	108917	20.71	-1
0	109463	20.81	-1
0	110009	20.91	-1
0	110563	21.01	-1
0	111109	21.11	-1
0	111655	21.21	-1
0	112201	21.31	-1
0	112747	21.41	-1
0	113293	21.51	-1
0	113839	21.61	-1
0	114385	21.71	-1
0	114931	21.81	-1
0	115477	21.91	-1
0	116031	22.01	-1
0	116577	22.11	-1
0	117123	22.21	-1
0	117669	22.31	-1
0	118215	22.41	-1
0	118761	22.51	-1
0	119307	22.61	-1
0	119853	22.71	-1
0	120399	22.81	-1
0	120945	22.91	-1
0	121499	23.01	-1
0	122045	23.11	-1
0	122591	23.21	-1
0	123137	23.31	-1
0	123683	23.41	-1
0	124229	23.51	-1
0	124775	23.61	-1
0	125321	23.71	-1
0	125867	23.81	-1
0	126413	23.91	-1
0	126967	24.01	-1
0	127513	24.11	-1
0	128059	24.21	-1
0	128605	24.31	-1
0	129151	24.41	-1
0	129697	24.51	-1
0	130243	24.61	-1
0	130789	24.71	-1
0	131335	24.81	-1
0	131881	24.91	-1
0	132435	25.01	-1
0	132981	25.11	-1
0	133527	25.21	-1
0	134073	25.31	-1
0	134619	25.41	-1
0	135165	25.51	-1
0	135711	25.61	-1
0	136257	25.71	-1
0	136803	25.81	-1
0	137349	25.91	-1
0	137903	26.01	-1
0	138449	26.11	-1
0	138995	26.21	-1
0	139541	26.31	-1
0	140087	26.41	-1
0	140633	26.51	-1
0	141179	26.61	-1
0	141725	26.71	-1
0	142271	26.81	-1
0	142817	26.91	-1
0	143371	27.01	-1
0	143917	27.11	-1
0	144463	27.21	-1
0	145009	27.31	-1
0	145555	27.41	-1
0	146101	27.51	-1
0	146647	27.61	-1
0	147193	27.71	-1
0	147739	27.81	-1
0	148285	27.91	-1
0	148839	28.01	-1
0	149385	28.11	-1
0	149931	28.21	-1
0	150477	28.31	-1
0	151023	28.41	-1
0	151569	28.51	-1
0	152115	28.61	-1
0	152661	28.71	-1
0	153207	28.81	-1
0	153753	28.91	-1
0	154307	29.01	-1
0	154853	29.11	-1
0	155399	29.21	-1
0	155945	29.31	-1
0	156491	29.41	-1
0	157037	29.51	-1
0	157583	29.61	-1
0	158129	29.71	-1
0	158675	29.81	-1
0	159221	29.91	-1
0	159775	30.01	-1
0	160321	30.11	-1
0	160867	30.21	-1
0	161413	30.31	-1
0	161959	30.41	-1
0	162505	30.51	-1
0	163051	30.61	-1
0	163597	30.71	-1
0	164143	30.81	-1
0	164689	30.91	-1
0	165243	31.01	-1
0	165789	31.11	-1
0	166335	31.21	-1
0	166881	31.31	-1
0	167427	31.41	-1
0	167973	31.51	-1
0	168519	31.61	-1
0	169065	31.71	-1
0	169611	31.81	-1
0	170157	31.91	-1
0	170711	32.01	-1
0	171257	32.11	-1
0	171803	32.21	-1
0	172349	32.31	-1
0	172895	32.41	-1
0	173441	32.51	-1
0	173987	32.61	-1
0	174533	32.71	-1
0	175079	32.81	-1
0	175625	32.91	-1
0	176179	33.01	-1
0	176725	33.11	-1
0	177271	33.21	-1
0	177817	33.31	-1
0	178363	33.41	-1
0	178909	33.51	-1
0	179455	33.61	-1
0	180001	33.71	-1
0	180547	33.81	-1
0	181093	33.91	-1
0	181647	34.01	-1
0	182193	34.11	-1
0	182739	34.21	-1
0	183285	34.31	-1
0	183831	34.41	-1
0	184377	34.51	-1
0	184923	34.61	-1
0	185469	34.71	-1
0	186015	34.81	-1
0	186561	34.91	-1
0	187115	35.01	-1
0	187661	35.11	-1
0	188207	35.21	-1
0	188753	35.31	-1
0	189299	35.41	-1
0	189845	35.51	-1
0	190391	35.61	-1
0	190937	35.71	-1
0	191483	35.81	-1
0	192029	35.91	-1
0	192583	36.01	-1
0	193129	36.11	-1
0	193675	36.21	-1
0	194221	36.31	-1
0	194767	36.41	-1
0	195313	36.51	-1
0	195859	36.61	-1
0	196405	36.71	-1
0	196951	36.81	-1
0	197497	36.91	-1
0	198051	37.01	-1
0	198597	37.11	-1
0	199143	37.21	-1
0	199689	37.31	-1
0	200235	37.41	-1
0	200781	37.51	-1
0	201327	37.61	-1
0	201873	37.71	-1
0	202419	37.81	-1
0	202965	37.91	-1
0	203519	38.01	-1
0	204065	38.11	-1
0	204611	38.21	-1
0	205157	38.31	-1
0	205703	38.41	-1
0	206249	38.51	-1
0	206795	38.61	-1
0	207341	38.71	-1
0	207887	38.81	-1
0	208433	38.91	-1
0	208987	39.01	-1
0	209533	39.11	-1
0	210079	39.21	-1
0	210625	39.31	-1
0	211171	39.41	-1
0	211717	39.51	-1
0	212263	39.61	-1
0	212809	39.71	-1
0	213355	39.81	-1
0	213901	39.91	-1
0	214455	40.01	-1
0	215001	40.11	-1
0	215547	40.21	-1
0	216093	40.31	-1
0	216639	40.41	-1
0	217185	40.51	-1
0	217731	40.61	-1
0	218277	40.71	-1
0	218823	40.81	-1
0	219369	40.91	-1
0	219923	41.01	-1
0	220469	41.11	-1
0	221015	41.21	-1
0	221561	41.31	-1
0	222107	41.41	-1
0	222653	41.51	-1
0	223199	41.61	-1
0	223745	41.71	-1
0	224291	41.81	-1
0	224837	41.91	-1
0	225391	42.01	-1
0	225937	42.11	-1
0	226483	42.21	-1
0	227029	42.31	-1
0	227575	42.41	-1
0	228121	42.51	-1
0	228667	42.61	-1
0	229213	42.71	-1
0	229759	42.81	-1
0	230305	42.91	-1
0	230859	43.01	-1
0	231405	43.11	-1
0	231951	43.21	-1
0	232497	43.31	-1
0	233043	43.41	-1
0	233589	43.51	-1
0	234135	43.61	-1
0	234681	43.71	-1
0	235227	43.81	-1
0	235773	43.91	-1
0	236327	44.01	-1
0	236873	44.11	-1
0	237419	44.21	-1
0	237965	44.31	-1
0	238511	44.41	-1
0	239057	44.51	-1
0	239603	44.61	-1
0	240149	44.71	-1
0	240695	44.81	-1
0	241241	44.91	-1
0	241795	45.01	-1
0	242341	45.11	-1
0	242887	45.21	-1
0	243433	45.31	-1
0	243979	45.41	-1
0	244525	45.51	-1
0	245071	45.61	-1
0	245617	45.71	-1
0	246163	45.81	-1
0	246709	45.91	-1
0	247263	46.01	-1
0	247809	46.11	-1
0	248355	46.21	-1
0	248901	46.31	-1
0	249447	46.41	-1
0	249993	46.51	-1
0	250539	46.61	-1
0	251085	46.71	-1
0	251631	46.81	-1
0	252177	46.91	-1
0	252731	47.01	-1
0	253277	47.11	-1
0	253823	47.21	-1
0	254369	47.31	-1
0	254915	47.41	-1
0	255461	47.51	-1
0	256007	47.61	-1
0	256553	47.71	-1
0	257099	47.81	-1
0	257645	47.91	-1
0	258199	48.01	-1
0	258745	48.11	-1
0	259291	48.21	-1
0	259837	48.31	-1
0	260383	48.41	-1
0	260929	48.51	-1
0	261475	48.61	-1
0	262021	48.71	-1
0	262567	48.81	-1
0	263113	48.91	-1
0	263667	49.01	-1
0	264213	49.11	-1
0	264759	49.21	-1
0	265305	49.31	-1
0	265851	49.41	-1
0	266397	49.51	-1
0	266943	49.61	-1
0	267489	49.71	-1
0	268035	49.81	-1
0	268581	49.91	-1
0	269135	50.01	-1
0	269681	50.11	-1
0	270227	50.21	-1
0	270773	50.31	-1
0	271319	50.41	-1
0	271865	50.51	-1
0	272411	50.61	-1
0	272957	50.71	-1
0	273503	50.81	-1
0	274049	50.91	-1
0	274603	51.01	-1
0	275149	51.11	-1
0	275695	51.21	-1
0	276241	51.31	-1
0	276787	51.41	-1
0	277333	51.51	-1
0	277879	51.61	-1
0	278425	51.71	-1
0	278971	51.81	-1
0	279517	51.91	-1
0	280071	52.01	-1
0	280617	52.11	-1
0	281163	52.21	-1
0	281709	52.31	-1
0	282255	52.41	-1
0	282801	52.51	-1
0	283347	52.61	-1
0	283893	52.71	-1
0	284439	52.81	-1
0	284985	52.91	-1
0	285539	53.01	-1
0	286085	53.11	-1
0	286631	53.21	-1
0	287177	53.31	-1
0	287723	53.41	-1
0	288269	53.51	-1
0	288815	53.61	-1
0	289361	53.71	-1
0	289907	53.81	-1
0	290453	53.91	-1
0	291007	54.01	-1
0	291553	54.11	-1
0	292099	54.21	-1
0	292645	54.31	-1
0	293191	54.41	-1
0	293737	54.51	-1
0	294283	54.61	-1
0	294829	54.71	-1
0	295375	54.81	-1
0	295921	54.91	-1
0	296475	55.01	-1
0	297021	55.11	-1
0	297567	55.21	-1
0	298113	55.31	-1
0	298659	55.41	-1
0	299205	55.51	-1
0	299751	55.61	-1
0	300297	55.71	-1
0	300843	55.81	-1
0	301389	55.91	-1
0	301943	56.01	-1
0	302489	56.11	-1
0	303035	56.21	-1
0	303581	56.31	-1
0	304127	56.41	-1
0	304673	56.51	-1
0	305219	56.61	-1
0	305765	56.71	-1
0	306311	56.81	-1
0	306857	56.91	-1
0	307411	57.01	-1
0	307957	57.11	-1
0	308503	57.21	-1
0	309049	57.31	-1
0	309595	57.41	-1
0	310141	57.51	-1
0	310687	57.61	-1
0	311233	57.71	-1
0	311779	57.81	-1
0	312325	57.91	-1
0	312879	58.01	-1
0	313425	58.11	-1
0	313971	58.21	-1
0	314517	58.31	-1
0	315063	58.41	-1
0	315609	58.51	-1
0	316155	58.61	-1
0	316701	58.71	-1
0	317247	58.81	-1
0	317793	58.91	-1
0	318347	59.01	-1
0	318893	59.11	-1
0	319439	59.21	-1
0	319985	59.31	-1
0	320531	59.41	-1
0	321077	59.51	-1
0	321623	59.61	-1
0	322169	59.71	-1
0	322715	59.81	-1
0	323261	59.91	-1
0	323815	60.01	-1
0	324361	60.11	-1
0	324907	60.21	-1
0	325453	60.31	-1
0	325999	60.41	-1
0	326545	60.51	-1
0	327091	60.61	-1
0	327637	60.71	-1
0	328183	60.81	-1
0	328729	60.91	-1
0	329283	61.01	-1
0	329829	61.11	-1
0	330375	61.21	-1
0	330921	61.31	-1
0	331467	61.41	-1
0	332013	61.51	-1
0	332559	61.61	-1
0	333105	61.71	-1
0	333651	61.81	-1
0	334197	61.91	-1
0	334751	62.01	-1
0	335297	62.11	-1
0	335843	62.21	-1
0	336389	62.31	-1
0	336935	62.41	-1
0	337481	62.51	-1
0	338027	62.61	-1
0	338573	62.71	-1
0	339119	62.81	-1
0	339665	62.91	-1
0	340219	63.01	-1
0	340765	63.11	-1
0	341311	63.21	-1
0	341857	63.31	-1
0	342403	63.41	-1
0	342949	63.51	-1
0	343495	63.61	-1
0	344041	63.71	-1
0	344587	63.81	-1
0	345133	63.91	-1
0	345687	64.01	-1
0	346233	64.11	-1
0	346779	64.21	-1
0	347325	64.31	-1
0	347871	64.41	-1
0	348417	64.51	-1
0	348963	64.61	-1
0	349509	64.71	-1
0	350055	64.81	-1
0	350601	64.91	-1
0	351155	65.01	-1
0	351701	65.11	-1
0	352247	65.21	-1
0	352793	65.31	-1
0	353339	65.41	-1
0	353885	65.51	-1
0	354431	65.61	-1
0	354977	65.71	-1
0	355523	65.81	-1
0	356069	65.91	-1
0	356623	66.01	-1
0	357169	66.11	-1
0	357715	66.21	-1
0	358261	66.31	-1
0	358807	66.41	-1
0	359353	66.51	-1
0	359899	66.61	-1
0	360445	66.71	-1
0	360991	66.81	-1
0	361537	66.91	-1
0	362091	67.01	-1
0	362637	67.11	-1
0	363183	67.21	-1
0	363729	67.31	-1
0	364275	67.41	-1
0	364821	67.51	-1
0	365367	67.61	-1
0	365913	67.71	-1
0	366459	67.81	-1
0	367005	67.91	-1
0	367559	68.01	-1
0	368105	68.11	-1
0	368651	68.21	-1
0	369197	68.31	-1
0	369743	68.41	-1
0	370289	68.51	-1
0	370835	68.61	-1
0	371381	68.71	-1
0	371927	68.81	-1
0	372473	68.91	-1
0	373027	69.01	-1
0	373573	69.11	-1
0	374119	69.21	-1
0	374665	69.31	-1
0	375211	69.41	-1
0	375757	69.51	-1
0	376303	69.61	-1
0	376849	69.71	-1
0	377395	69.81	-1
0	377941	69.91	-1
0	378495	70.01	-1
0	379041	70.11	-1
0	379587	70.21	-1
0	380133	70.31	-1
0	380679	70.41	-1
0	381225	70.51	-1
0	381771	70.61	-1
0	382317	70.71	-1
0	382863	70.81	-1
0	383409	70.91	-1
0	383963	71.01	-1
0	384509	71.11	-1
0	385055	71.21	-1
0	385601	71.31	-1
0	386147	71.41	-1
0	386693	71.51	-1
0	387239	71.61	-1
0	387785	71.71	-1
0	388331	71.81	-1
0	388877	71.91	-1
0	389431	72.01	-1
0	389977	72.11	-1
0	390523	72.21	-1
0	391069	72.31	-1
0	391615	72.41	-1
0	392161	72.51	-1
0	392707	72.61	-1
0	393253	72.71	-1
0	393799	72.81	-1
0	394345	72.91	-1
0	394899	73.01	-1
0	395445	73.11	-1
0	395991	73.21	-1
0	396537	73.31	-1
0	397083	73.41	-1
0	397629	73.51	-1
0	398175	73.61	-1
0	398721	73.71	-1
0	399267	73.81	-1
0	399813	73.91	-1
0	400367	74.01	-1
0	400913	74.11	-1
0	401459	74.21	-1
0	402005	74.31	-1
0	402551	74.41	-1
0	403097	74.51	-1
0	403643	74.61	-1
0	404189	74.71	-1
0	404735	74.81	-1
0	405281	74.91	-1
0	405835	75.01	-1
0	406381	75.11	-1
0	406927	75.21	-1
0	407473	75.31	-1
0	408019	75.41	-1
0	408565	75.51	-1
0	409111	75.61	-1
0	409657	75.71	-1
0	410203	75.81	-1
0	410749	75.91	-1
0	411303	76.01	-1
0	411849	76.11	-1
0	412395	76.21	-1
0	412941	76.31	-1
0	413487	76.41	-1
0	414033	76.51	-1
0	414579	76.61	-1
0	415125	76.71	-1
0	415671	76.81	-1
0	416217	76.91	-1
0	416771	77.01	-1
0	417317	77.11	-1
0	417863	77.21	-1
0	418409	77.31	-1
0	418955	77.41	-1
0	419501	77.51	-1
0	420047	77.61	-1
0	420593	77.71	-1
0	421139	77.81	-1
0	421685	77.91	-1
0	422239	78.01	-1
0	422785	78.11	-1
0	423331	78.21	-1
0	423877	78.31	-1
0	424423	78.41	-1
0	424969	78.51	-1
0	425515	78.61	-1
0	426061	78.71	-1
0	426607	78.81	-1
0	427153	78.91	-1
0	427707	79.01	-1
0	428253	79.11	-1
0	428799	79.21	-1
0	429345	79.31	-1
0	429891	79.41	-1
0	430437	79.51	-1
0	430983	79.61	-1
0	431529	79.71	-1
0	432075	79.81	-1
0	432621	79.91	-1
0	433175	80.01	-1
0	433721	80.11	-1
0	434267	80.21	-1
0	434813	80.31	-1
0	435359	80.41	-1
0	435905	80.51	-1
0	436451	80.61	-1
0	436997	80.71	-1
0	437543	80.81	-1
0	438089	80.91	-1
0	438643	81.01	-1
0	439189	81.11	-1
0	439735	81.21	-1
0	440281	81.31	-1
0	440827	81.41	-1
0	441373	81.51	-1
0	441919	81.61	-1
0	442465	81.71	-1
0	443011	81.81	-1
0	443557	81.91	-1
0	444111	82.01	-1
0	444657	82.11	-1
0	445203	82.21	-1
0	445749	82.31	-1
0	446295	82.41	24.1524
0	446841	82.51	24.3969
0	447387	82.61	24.6413
0	447933	82.71	24.8857
0	448479	82.81	25.1302
0	449025	82.91	25.3746
0	449579	83.01	25.6191
0	450125	83.11	25.8635
0	450671	83.21	26.1079
0	451217	83.31	26.3524
0	451763	83.41	26.5968
0	452309	83.51	26.8413
0	452855	83.61	27.0857
0	453401	83.71	27.3301
0	453947	83.81	27.5746
0	454493	83.91	27.819
0	455047	84.01	28.0635
0	455593	84.11	28.3079
0	456139	84.21	28.5523
0	456685	84.31	28.7968
0	457231	84.41	29.0412
0	457777	84.51	29.2857
0	458323	84.61	29.5301
0	458869	84.71	29.7745
0	459415	84.81	30.019
0	459961	84.91	30.2634
0	460515	85.01	30.5079
0	461061	85.11	30.7523
0	461607	85.21	30.9967
0	462153	85.31	31.2412
0	462699	85.41	31.4856
0	463245	85.51	31.7301
0	463791	85.61	31.9745
0	464337	85.71	32.2189
0	464883	85.81	32.4634
0	465429	85.91	32.7078
0	465983	86.01	32.9523
0	466529	86.11	33.1967
0	467075	86.21	33.4411
0	467621	86.31	33.6856
0	468167	86.41	33.93
0	468713	86.51	34.1745
0	469259	86.61	34.4189
0	469805	86.71	34.6633
0	470351	86.81	34.9078
0	470897	86.91	35.1522
0	471451	87.01	35.3967
0	471997	87.11	35.6411
0	472543	87.21	35.8855
0	473089	87.31	36.13
0	473635	87.41	36.3744
0	474181	87.51	36.6189
0	474727	87.61	36.8633
0	475273	87.71	37.1077
0	475819	87.81	37.3522
0	476365	87.91	37.5966
0	476919	88.01	37.8411
0	477465	88.11	38.0855
0	478011	88.21	38.3299
0	478557	88.31	38.5744
0	479103	88.41	38.8188
0	479649	88.51	39.0633
0	480195	88.61	39.3077
0	480741	88.71	39.5521
0	481287	88.81	39.7966
0	481833	88.91	40.041
0	482387	89.01	40.2855
0	482933	89.11	40.5299
0	483479	89.21	40.7743
0	484025	89.31	41.0188
0	484571	89.41	41.2632
0	485117	89.51	41.5077
0	485663	89.61	41.7521
0	486209	89.71	41.9965
0	486755	89.81	42.241
0	487301	89.91	42.4854
0	487855	90.01	42.7299
0	488401	90.11	42.9743
0	488947	90.21	43.2187
0	489493	90.31	43.4632
0	490039	90.41	43.7076
0	490585	90.51	43.9521
0	491131	90.61	44.1965
0	491677	90.71	44.4409
0	492223	90.81	44.6854
0	492769	90.91	44.9298
0	493323	91.01	45.1743
0	493869	91.11	45.4187
0	494415	91.21	45.6631
0	494961	91.31	45.9076
0	495507	91.41	46.152
0	496053	91.51	46.3965
0	496599	91.61	46.6409
0	497145	91.71	46.8853
0	497691	91.81	47.1298
0	498237	91.91	47.3742
0	498791	92.01	47.6187
0	499337	92.11	47.8631
0	499883	92.21	48.1075
0	500429	92.31	48.352
0	500975	92.41	48.5964
0	501521	92.51	48.8409
0	502067	92.61	49.0853
0	502613	92.71	49.3297
0	503159	92.81	49.5742
0	503705	92.91	49.8186
0	504259	93.01	50.0631
0	504805	93.11	50.3075
0	505351	93.21	50.5519
0	505897	93.31	50.7964
0	506443	93.41	51.0408
0	506989	93.51	51.2853
0	507535	93.61	51.5297
0	508081	93.71	51.7741
0	508627	93.81	52.0186
0	509173	93.91	52.263
0	509727	94.01	52.5075
0	510273	94.11	52.7519
0	510819	94.21	52.9963
0	511365	94.31	53.2408
0	511911	94.41	53.4852
0	512457	94.51	53.7297
0	513003	94.61	53.9741
0	513549	94.71	54.2185
0	514095	94.81	54.463
0	514641	94.91	54.7074
0	515195	95.01	54.9519
0	515741	95.11	55.1963
0	516287	95.21	55.4407
0	516833	95.31	55.6852
0	517379	95.41	55.9296
0	517925	95.51	56.1741
0	518471	95.61	56.4185
0	519017	95.71	56.6629
0	519563	95.81	56.9074
0	520109	95.91	57.1518
0	520663	96.01	57.3963
0	521209	96.11	57.6407
0	521755	96.21	57.8851
0	522301	96.31	58.1296
0	522847	96.41	58.374
0	523393	96.51	58.6185
0	523939	96.61	58.8629
0	524485	96.71	59.1073
0	525031	96.81	59.3518
0	525577	96.91	59.5962
0	526131	97.01	59.8407
0	526677	97.11	60.0851
0	527223	97.21	60.3295
0	527769	97.31	60.574
0	528315	97.41	60.8184
0	528861	97.51	61.0629
0	529407	97.61	61.3073
0	529953	97.71	61.5517
0	530499	97.81	61.7962
0	531045	97.91	62.0406
0	531599	98.01	62.2851
0	532145	98.11	62.5295
0	532691	98.21	62.7739
0	533237	98.31	63.0184
0	533783	98.41	63.2628
0	534329	98.51	63.5073
0	534875	98.61	63.7517
0	535421	98.71	63.9961
0	535967	98.81	64.2406
0	536513	98.91	64.485
0	537067	99.01	64.7295
0	537613	99.11	64.9739
0	538159	99.21	65.2183
0	538705	99.31	65.4628
0	539251	99.41	65.7072
0	539797	99.51	65.9517
0	540343	99.61	66.1961
0	540889	99.71	66.4405
0	541435	99.81	66.685
0	541981	99.91	66.9294
1	113	1.11	0
1	659	1.21	0
1	1205	1.31	0
1	1751	1.41	0
1	2297	1.51	0
1	2843	1.61	0
1	3389	1.71	0
1	3935	1.81	0
1	4481	1.91	0
1	5035	2.01	0
1	5581	2.11	0
1	6127	2.21	0
1	6673	2.31	0
1	7219	2.41	0
1	7765	2.51	0
1	8311	2.61	0
1	8857	2.71	0
1	9403	2.81	0
1	9949	2.91	0
1	10503	3.01	0
1	11049	3.11	0
1	11595	3.21	0
1	12141	3.31	0
1	12687	3.41	0
1	13233	3.51	0
1	13779	3.61	0
1	14325	3.71	0
1	14871	3.81	0
1	15417	3.91	0
1	15971	4.01	0
1	16517	4.11	0
1	17063	4.21	0
1	17609	4.31	0
1	18155	4.41	0
1	18701	4.51	0
1	19247	4.61	0
1	19793	4.71	0
1	20339	4.81	0
1	20885	4.91	0
1	21439	5.01	0
1	21985	5.11	0
1	22531	5.21	0
1	23077	5.31	0
1	23623	5.41	0
1	24169	5.51	0
1	24715	5.61	0
1	25261	5.71	0
1	25807	5.81	0
1	26353	5.91	0
1	26907	6.01	0
1	27453	6.11	0
1	27999	6.21	0
1	28545	6.31	0
1	29091	6.41	0
1	29637	6.51	0
1	30183	6.61	0
1	30729	6.71	0
1	31275	6.81	0
1	31821	6.91	0
1	32375	7.01	0
1	32921	7.11	0
1	33467	7.21	0
1	34013	7.31	0
1	34559	7.41	0
1	35105	7.51	0
1	35651	7.61	0
1	36197	7.71	0
1	36743	7.81	0
1	37289	7.91	0
1	37843	8.01	0
1	38389	8.11	0
1	38935	8.21	0
1	39481	8.31	0
1	40027	8.41	0
1	40573	8.51	0
1	41119	8.61	0
1	41665	8.71	0
1	42211	8.81	0
1	42757	8.91	0
1	43311	9.01	0
1	43857	9.11	0
1	44403	9.21	0
1	44949	9.31	0
1	45495	9.41	0
1	46041	9.51	0
1	46587	9.61	0
1	47133	9.71	0
1	47679	9.81	0
1	48225	9.91	0
1	50415	10.01	0
1	50961	10.11	0
1	51507	10.21	0
1	52053	10.31	0
1	52599	10.41	0
1	53145	10.51	0
1	53691	10.61	0
1	54237	10.71	0
1	54783	10.81	0
1	55329	10.91	0
1	55883	11.01	0
1	56429	11.11	0
1	56975	11.21	0
1	57521	11.31	0
1	58067	11.41	0
1	58613	11.51	0
1	59159	11.61	0
1	59705	11.71	0
1	60251	11.81	0
1	60797	11.91	0
1	61351	12.01	0
1	61897	12.11	0
1	62443	12.21	0
1	62989	12.31	0
1	63535	12.41	0
1	64081	12.51	0
1	64627	12.61	0
1	65173	12.71	0
1	65719	12.81	0
1	66265	12.91	0
1	66819	13.01	0
1	67365	13.11	0
1	67911	13.21	0
1	68457	13.31	0
1	69003	13.41	0
1	69549	13.51	0
1	70095	13.61	0
1	70641	13.71	0
1	71187	13.81	0
1	71733	13.91	0
1	72287	14.01	0
1	72833	14.11	0
1	73379	14.21	0
1	73925	14.31	0
1	74471	14.41	0
1	75017	14.51	0
1	75563	14.61	0
1	76109	14.71	0
1	76655	14.81	0
1	77201	14.91	0
1	77755	15.01	0
1	78301	15.11	0
1	78847	15.21	0
1	79393	15.31	0
1	79939	15.41	0
1	80485	15.51	0
1	81031	15.61	0
1	81577	15.71	0
1	82123	15.81	0
1	82669	15.91	0
1	83223	16.01	0
1	83769	16.11	0
1	84315	16.21	0
1	84861	16.31	0
1	85407	16.41	0
1	85953	16.51	0
1	86499	16.61	0
1	87045	16.71	0
1	87591	16.81	0
1	88137	16.91	0
1	88691	17.01	0
1	89237	17.11	0
1	89783	17.21	0
1	90329	17.31	0
1	90875	17.41	0
1	91421	17.51	0
1	91967	17.61	0
1	92513	17.71	0
1	93059	17.81	0
1	93605	17.91	0
1	94159	18.01	0
1	94705	18.11	0
1	95251	18.21	0
1	95797	18.31	0
1	96343	18.41	0
1	96889	18.51	0
1	97435	18.61	0
1	97981	18.71	0
1	98527	18.81	0
1	99073	18.91	0
1	99627	19.01	0
1	100173	19.11	0
1	100719	19.21	0
1	101265	19.31	0
1	101811	19.41	0
1	102357	19.51	0
1	102903	19.61	0
1	103449	19.71	0
1	103995	19.81	0
1	104541	19.91	0
1	105095	20.01	0
1	105641	20.11	0
1	106187	20.21	0
1	106733	20.31	0
1	107279	20.41	0
1	107825	20.51	0
1	108371	20.61	0
1	108917	20.71	0
1	109463	20.81	0
1	110009	20.91	0
1	110563	21.01	0
1	111109	21.11	0
1	111655	21.21	0
1	112201	21.31	0
1	112747	21.41	0
1	113293	21.51	0
1	113839	21.61	0
1	114385	21.71	0
1	114931	21.81	0
1	115477	21.91	0
1	116031	22.01	0
1	116577	22.11	0
1	117123	22.21	0
1	117669	22.31	0
1	118215	22.41	0
1	118761	22.51	0
1	119307	22.61	0
1	119853	22.71	0
1	120399	22.81	0
1	120945	22.91	0
1	121499	23.01	0
1	122045	23.11	0
1	122591	23.21	0
1	123137	23.31	0
1	123683	23.41	0
1	124229	23.51	0
1	124775	23.61	0
1	125321	23.71	0
1	125867	23.81	0
1	126413	23.91	0
1	126967	24.01	0
1	127513	24.11	0
1	128059	24.21	0
1	128605	24.31	0
1	129151	24.41	0
1	129697	24.51	0
1	130243	24.61	0
1	130789	24.71	0
1	131335	24.81	0
1	131881	24.91	0
1	132435	25.01	0
1	132981	25.11	0
1	133527	25.21	0
1	134073	25.31	0
1	134619	25.41	0
1	135165	25.51	0
1	135711	25.61	0
1	136257	25.71	0
1	136803	25.81	0
1	137349	25.91	0
1	137903	26.01	0
1	138449	26.11	0
1	138995	26.21	0
1	139541	26.31	0
1	140087	26.41	0
1	140633	26.51	0
1	141179	26.61	0
1	141725	26.71	0
1	142271	26.81	0
1	142817	26.91	0
1	143371	27.01	0
1	143917	27.11	0
1	144463	27.21	0
1	145009	27.31	0
1	145555	27.41	0
1	146101	27.51	0
1	146647	27.61	0
1	147193	27.71	0
1	147739	27.81	0
1	148285	27.91	0
1	148839	28.01	0
1	149385	28.11	0
1	149931	28.21	0
1	150477	28.31	0
1	151023	28.41	0
1	151569	28.51	0
1	152115	28.61	0
1	152661	28.71	0
1	153207	28.81	0
1	153753	28.91	0
1	154307	29.01	0
1	154853	29.11	0
1	155399	29.21	0
1	155945	29.31	0
1	156491	29.41	0
1	157037	29.51	0
1	157583	29.61	0
1	158129	29.71	0
1	158675	29.81	0
1	159221	29.91	0
1	159775	30.01	0
1	160321	30.11	0
1	160867	30.21	0
1	161413	30.31	0
1	161959	30.41	0
1	162505	30.51	0
1	163051	30.61	0
1	163597	30.71	0
1	164143	30.81	0
1	164689	30.91	0
1	165243	31.01	0
1	165789	31.11	0
1	166335	31.21	0
1	166881	31.31	0
1	167427	31.41	0
1	167973	31.51	0
1	168519	31.61	0
1	169065	31.71	0
1	169611	31.81	0
1	170157	31.91	0
1	170711	32.01	0
1	171257	32.11	0
1	171803	32.21	0
1	172349	32.31	0
1	172895	32.41	0
1	173441	32.51	0
1	173987	32.61	0
1	174533	32.71	0
1	175079	32.81	0
1	175625	32.91	0
1	176179	33.01	0
1	176725	33.11	0
1	177271	33.21	0
1	177817	33.31	0
1	178363	33.41	0
1	178909	33.51	0
1	179455	33.61	0
1	180001	33.71	0
1	180547	33.81	0
1	181093	33.91	0
1	181647	34.01	0
1	182193	34.11	0
1	182739	34.21	0
1	183285	34.31	0
1	183831	34.41	0
1	184377	34.51	0
1	184923	34.61	0
1	185469	34.71	0
1	186015	34.81	0
1	186561	34.91	0
1	187115	35.01	0
1	187661	35.11	0
1	188207	35.21	0
1	188753	35.31	0
1	189299	35.41	0
1	189845	35.51	0
1	190391	35.61	0
1	190937	35.71	0
1	191483	35.81	0
1	192029	35.91	0
1	192583	36.01	0
1	193129	36.11	0
1	193675	36.21	0
1	194221	36.31	0
1	194767	36.41	0
1	195313	36.51	0
1	195859	36.61	0
1	196405	36.71	0
1	196951	36.81	0
1	197497	36.91	0
1	198051	37.01	0
1	198597	37.11	0
1	199143	37.21	0
1	199689	37.31	0
1	200235	37.41	0
1	200781	37.51	0
1	201327	37.61	0
1	201873	37.71	0
1	202419	37.81	0
1	202965	37.91	0
1	203519	38.01	0
1	204065	38.11	0
1	204611	38.21	0
1	205157	38.31	0
1	205703	38.41	0
1	206249	38.51	0
1	206795	38.61	0
1	207341	38.71	0
1	207887	38.81	0
1	208433	38.91	0
1	208987	39.01	0
1	209533	39.11	0
1	210079	39.21	0
1	210625	39.31	0
1	211171	39.41	0
1	211717	39.51	0
1	212263	39.61	0
1	212809	39.71	0
1	213355	39.81	0
1	213901	39.91	0
1	214455	40.01	0
1	215001	40.11	0
1	215547	40.21	0
1	216093	40.31	0
1	216639	40.41	0
1	217185	40.51	0
1	217731	40.61	0
1	218277	40.71	0
1	218823	40.81	0
1	219369	40.91	0
1	219923	41.01	0
1	220469	41.11	0
1	221015	41.21	0
1	221561	41.31	0
1	222107	41.41	0
1	222653	41.51	0
1	223199	41.61	0
1	223745	41.71	0
1	224291	41.81	0
1	224837	41.91	0
1	225391	42.01	0
1	225937	42.11	0
1	226483	42.21	0
1	227029	42.31	0
1	227575	42.41	0
1	228121	42.51	0
1	228667	42.61	0
1	229213	42.71	0
1	229759	42.81	0
1	230305	42.91	0
1	230859	43.01	0
1	231405	43.11	0
1	231951	43.21	0
1	232497	43.31	0
1	233043	43.41	0
1	233589	43.51	0
1	234135	43.61	0
1	234681	43.71	0
1	235227	43.81	0
1	235773	43.91	0
1	236327	44.01	0
1	236873	44.11	0
1	237419	44.21	0
1	237965	44.31	0
1	238511	44.41	0
1	239057	44.51	0
1	239603	44.61	0
1	240149	44.71	0
1	240695	44.81	0
1	241241	44.91	0
1	241795	45.01	0
1	242341	45.11	0
1	242887	45.21	0
1	243433	45.31	0
1	243979	45.41	0
1	244525	45.51	0
1	245071	45.61	0
1	245617	45.71	0
1	246163	45.81	0
1	246709	45.91	0
1	247263	46.01	0
1	247809	46.11	0
1	248355	46.21	0
1	248901	46.31	0
1	249447	46.41	0
1	249993	46.51	0
1	250539	46.61	0
1	251085	46.71	0
1	251631	46.81	0
1	252177	46.91	0
1	252731	47.01	0
1	253277	47.11	0
1	253823	47.21	0
1	254369	47.31	0
1	254915	47.41	0
1	255461	47.51	0
1	256007	47.61	0
1	256553	47.71	0
1	257099	47.81	0
1	257645	47.91	0
1	258199	48.01	0
1	258745	48.11	0
1	259291	48.21	0
1	259837	48.31	0
1	260383	48.41	0
1	260929	48.51	0
1	261475	48.61	0
1	262021	48.71	0
1	262567	48.81	0
1	263113	48.91	0
1	263667	49.01	0
1	264213	49.11	0
1	264759	49.21	0
1	265305	49.31	0
1	265851	49.41	0
1	266397	49.51	0
1	266943	49.61	0
1	267489	49.71	0
1	268035	49.81	0
1	268581	49.91	0
1	269135	50.01	0
1	269681	50.11	0
1	270227	50.21	0
1	270773	50.31	0
1	271319	50.41	0
1	271865	50.51	0
1	272411	50.61	0
1	272957	50.71	0
1	273503	50.81	0
1	274049	50.91	0
1	274603	51.01	0
1	275149	51.11	0
1	275695	51.21	0
1	276241	51.31	0
1	276787	51.41	0
1	277333	51.51	0
1	277879	51.61	0
1	278425	51.71	0
1	278971	51.81	0
1	279517	51.91	0
1	280071	52.01	0
1	280617	52.11	0
1	281163	52.21	0
1	281709	52.31	0
1	282255	52.41	0
1	282801	52.51	0
1	283347	52.61	0
1	283893	52.71	0
1	284439	52.81	0
1	284985	52.91	0
1	285539	53.01	0
1	286085	53.11	0
1	286631	53.21	0
1	287177	53.31	0
1	287723	53.41	0
1	288269	53.51	0
1	288815	53.61	0
1	289361	53.71	0
1	289907	53.81	0
1	290453	53.91	0
1	291007	54.01	0
1	291553	54.11	0
1	292099	54.21	0
1	292645	54.31	0
1	293191	54.41	0
1	293737	54.51	0
1	294283	54.61	0
1	294829	54.71	0
1	295375	54.81	0
1	295921	54.91	0
1	296475	55.01	0
1	297021	55.11	0
1	297567	55.21	0
1	298113	55.31	0
1	298659	55.41	0
1	299205	55.51	0
1	299751	55.61	0
1	300297	55.71	0
1	300843	55.81	0
1	301389	55.91	0
1	301943	56.01	0
1	302489	56.11	0
1	303035	56.21	0
1	303581	56.31	0
1	304127	56.41	0
1	304673	56.51	0
1	305219	56.61	0
1	305765	56.71	0
1	306311	56.81	0
1	306857	56.91	0
1	307411	57.01	0
1	307957	57.11	0
1	308503	57.21	0
1	309049	57.31	0
1	309595	57.41	0
1	310141	57.51	0
1	310687	57.61	0
1	311233	57.71	0
1	311779	57.81	0
1	312325	57.91	0
1	312879	58.01	0
1	313425	58.11	0
1	313971	58.21	0
1	314517	58.31	0
1	315063	58.41	0
1	315609	58.51	0
1	316155	58.61	0
1	316701	58.71	0
1	317247	58.81	0
1	317793	58.91	0
1	318347	59.01	0
1	318893	59.11	0
1	319439	59.21	0
1	319985	59.31	0
1	320531	59.41	0
1	321077	59.51	0
1	321623	59.61	0
1	322169	59.71	0
1	322715	59.81	0
1	323261	59.91	0
1	323815	60.01	0
1	324361	60.11	0
1	324907	60.21	0
1	325453	60.31	0
1	325999	60.41	0
1	326545	60.51	0
1	327091	60.61	0
1	327637	60.71	0
1	328183	60.81	0
1	328729	60.91	0
1	329283	61.01	0
1	329829	61.11	0
1	330375	61.21	0
1	330921	61.31	0
1	331467	61.41	0
1	332013	61.51	0
1	332559	61.61	0
1	333105	61.71	0
1	333651	61.81	0
1	334197	61.91	0
1	334751	62.01	0
1	335297	62.11	0
1	335843	62.21	0
1	336389	62.31	0
1	336935	62.41	0
1	337481	62.51	0
1	338027	62.61	0
1	338573	62.71	0
1	339119	62.81	0
1	339665	62.91	0
1	340219	63.01	0
1	340765	63.11	0
1	341311	63.21	0
1	341857	63.31	0
1	342403	63.41	0
1	342949	63.51	0
1	343495	63.61	0
1	344041	63.71	0
1	344587	63.81	0
1	345133	63.91	0
1	345687	64.01	0
1	346233	64.11	0
1	346779	64.21	0
1	347325	64.31	0
1	347871	64.41	0
1	348417	64.51	0
1	348963	64.61	0
1	349509	64.71	0
1	350055	64.81	0
1	350601	64.91	0
1	351155	65.01	0
1	351701	65.11	0
1	352247	65.21	0
1	352793	65.31	0
1	353339	65.41	0
1	353885	65.51	0
1	354431	65.61	0
1	354977	65.71	0
1	355523	65.81	0
1	356069	65.91	0
1	356623	66.01	0
1	357169	66.11	0
1	357715	66.21	0
1	358261	66.31	0
1	358807	66.41	0
1	359353	66.51	0
1	359899	66.61	0
1	360445	66.71	0
1	360991	66.81	0
1	361537	66.91	0
1	362091	67.01	0
1	362637	67.11	0
1	363183	67.21	0
1	363729	67.31	0
1	364275	67.41	0
1	364821	67.51	0
1	365367	67.61	0
1	365913	67.71	0
1	366459	67.81	0
1	367005	67.91	0
1	367559	68.01	0
1	368105	68.11	0
1	368651	68.21	0
1	369197	68.31	0
1	369743	68.41	0
1	370289	68.51	0
1	370835	68.61	0
1	371381	68.71	0
1	371927	68.81	0
1	372473	68.91	0
1	373027	69.01	0
1	373573	69.11	0
1	374119	69.21	0
1	374665	69.31	0
1	375211	69.41	0
1	375757	69.51	0
1	376303	69.61	0
1	376849	69.71	0
1	377395	69.81	0
1	377941	69.91	0
1	378495	70.01	0
1	379041	70.11	0
1	379587	70.21	0
1	380133	70.31	0
1	380679	70.41	0
1	381225	70.51	0
1	381771	70.61	0
1	382317	70.71	0
1	382863	70.81	0
1	383409	70.91	0
1	383963	71.01	0
1	384509	71.11	0
1	385055	71.21	0
1	385601	71.31	0
1	386147	71.41	0
1	386693	71.51	0
1	387239	71.61	0
1	387785	71.71	0
1	388331	71.81	0
1	388877	71.91	0
1	389431	72.01	0
1	389977	72.11	0
1	390523	72.21	0
1	391069	72.31	0
1	391615	72.41	0
1	392161	72.51	0
1	392707	72.61	0
1	393253	72.71	0
1	393799	72.81	0
1	394345	72.91	0
1	394899	73.01	0
1	395445	73.11	0
1	395991	73.21	0
1	396537	73.31	0
1	397083	73.41	0
1	397629	73.51	0
1	398175	73.61	0
1	398721	73.71	0
1	399267	73.81	0
1	399813	73.91	0
1	400367	74.01	0
1	400913	74.11	0
1	401459	74.21	0
1	402005	74.31	0
1	402551	74.41	0
1	403097	74.51	0
1	403643	74.61	0
1	404189	74.71	0
1	404735	74.81	0
1	405281	74.91	0
1	405835	75.01	0
1	406381	75.11	0
1	406927	75.21	0
1	407473	75.31	0
1	408019	75.41	0
1	408565	75.51	0
1	409111	75.61	0
1	409657	75.71	0
1	410203	75.81	0
1	410749	75.91	0
1	411303	76.01	0
1	411849	76.11	0
1	412395	76.21	0
1	412941	76.31	0
1	413487	76.41	0
1	414033	76.51	0
1	414579	76.61	0
1	415125	76.71	0
1	415671	76.81	0
1	416217	76.91	0
1	416771	77.01	0
1	417317	77.11	0
1	417863	77.21	0
1	418409	77.31	0
1	418955	77.41	0
1	419501	77.51	0
1	420047	77.61	0
1	420593	77.71	0
1	421139	77.81	0
1	421685	77.91	0
1	422239	78.01	0
1	422785	78.11	0
1	423331	78.21	0
1	423877	78.31	0
1	424423	78.41	0
1	424969	78.51	0
1	425515	78.61	0
1	426061	78.71	0
1	426607	78.81	0
1	427153	78.91	0
1	427707	79.01	0
1	428253	79.11	0
1	428799	79.21	0
1	429345	79.31	0
1	429891	79.41	0
1	430437	79.51	0
1	430983	79.61	0
1	431529	79.71	0
1	432075	79.81	0
1	432621	79.91	0
1	433175	80.01	0
1	433721	80.11	0
1	434267	80.21	0
1	434813	80.31	0
1	435359	80.41	0
1	435905	80.51	0
1	436451	80.61	0
1	436997	80.71	0
1	437543	80.81	0
1	438089	80.91	0
1	438643	81.01	0
1	439189	81.11	0
1	439735	81.21	0
1	440281	81.31	0
1	440827	81.41	0
1	441373	81.51	0
1	441919	81.61	0
1	442465	81.71	0
1	443011	81.81	0
1	443557	81.91	0
1	444111	82.01	0
1	444657	82.11	0
1	445203	82.21	0
1	445749	82.31	0
1	446295	82.41	2.4444
1	446841	82.51	2.4444
1	447387	82.61	2.4444
1	447933	82.71	2.4444
1	448479	82.81	2.4444
1	449025	82.91	2.4444
1	449579	83.01	2.4444
1	450125	83.11	2.4444
1	450671	83.21	2.4444
1	451217	83.31	2.4444
1	451763	83.41	2.4444
1	452309	83.51	2.4444
1	452855	83.61	2.4444
1	453401	83.71	2.4444
1	453947	83.81	2.4444
1	454493	83.91	2.4444
1	455047	84.01	2.4444
1	455593	84.11	2.4444
1	456139	84.21	2.4444
1	456685	84.31	2.4444
1	457231	84.41	2.4444
1	457777	84.51	2.4444
1	458323	84.61	2.4444
1	458869	84.71	2.4444
1	459415	84.81	2.4444
1	459961	84.91	2.4444
1	460515	85.01	2.4444
1	461061	85.11	2.4444
1	461607	85.21	2.4444
1	462153	85.31	2.4444
1	462699	85.41	2.4444
1	463245	85.51	2.4444
1	463791	85.61	2.4444
1	464337	85.71	2.4444
1	464883	85.81	2.4444
1	465429	85.91	2.4444
1	465983	86.01	2.4444
1	466529	86.11	2.4444
1	467075	86.21	2.4444
1	467621	86.31	2.4444
1	468167	86.41	2.4444
1	468713	86.51	2.4444
1	469259	86.61	2.4444
1	469805	86.71	2.4444
1	470351	86.81	2.4444
1	470897	86.91	2.4444
1	471451	87.01	2.4444
1	471997	87.11	2.4444
1	472543	87.21	2.4444
1	473089	87.31	2.4444
1	473635	87.41	2.4444
1	474181	87.51	2.4444
1	474727	87.61	2.4444
1	475273	87.71	2.4444
1	475819	87.81	2.4444
1	476365	87.91	2.4444
1	476919	88.01	2.4444
1	477465	88.11	2.4444
1	478011	88.21	2.4444
1	478557	88.31	2.4444
1	479103	88.41	2.4444
1	479649	88.51	2.4444
1	480195	88.61	2.4444
1	480741	88.71	2.4444
1	481287	88.81	2.4444
1	481833	88.91	2.4444
1	482387	89.01	2.4444
1	482933	89.11	2.4444
1	483479	89.21	2.4444
1	484025	89.31	2.4444
1	484571	89.41	2.4444
1	485117	89.51	2.4444
1	485663	89.61	2.4444
1	486209	89.71	2.4444
1	486755	89.81	2.4444
1	487301	89.91	2.4444
1	487855	90.01	2.4444
1	488401	90.11	2.4444
1	488947	90.21	2.4444
1	489493	90.31	2.4444
1	490039	90.41	2.4444
1	490585	90.51	2.4444
1	491131	90.61	2.4444
1	491677	90.71	2.4444
1	492223	90.81	2.4444
1	492769	90.91	2.4444
1	493323	91.01	2.4444
1	493869	91.11	2.4444
1	494415	91.21	2.4444
1	494961	91.31	2.4444
1	495507	91.41	2.4444
1	496053	91.51	2.4444
1	496599	91.61	2.4444
1	497145	91.71	2.4444
1	497691	91.81	2.4444
1	498237	91.91	2.4444
1	498791	92.01	2.4444
1	499337	92.11	2.4444
1	499883	92.21	2.4444
1	500429	92.31	2.4444
1	500975	92.41	2.4444
1	501521	92.51	2.4444
1	502067	92.61	2.4444
1	502613	92.71	2.4444
1	503159	92.81	2.4444
1	503705	92.91	2.4444
1	504259	93.01	2.4444
1	504805	93.11	2.4444
1	505351	93.21	2.4444
1	505897	93.31	2.4444
1	506443	93.41	2.4444
1	506989	93.51	2.4444
1	507535	93.61	2.4444
1	508081	93.71	2.4444
1	508627	93.81	2.4444
1	509173	93.91	2.4444
1	509727	94.01	2.4444
1	510273	94.11	2.4444
1	510819	94.21	2.4444
1	511365	94.31	2.4444
1	511911	94.41	2.4444
1	512457	94.51	2.4444
1	513003	94.61	2.4444
1	513549	94.71	2.4444
1	514095	94.81	2.4444
1	514641	94.91	2.4444
1	515195	95.01	2.4444
1	515741	95.11	2.4444
1	516287	95.21	2.4444
1	516833	95.31	2.4444
1	517379	95.41	2.4444
1	517925	95.51	2.4444
1	518471	95.61	2.4444
1	519017	95.71	2.4444
1	519563	95.81	2.4444
1	520109	95.91	2.4444
1	520663	96.01	2.4444
1	521209	96.11	2.4444
1	521755	96.21	2.4444
1	522301	96.31	2.4444
1	522847	96.41	2.4444
1	523393	96.51	2.4444
1	523939	96.61	2.4444
1	524485	96.71	2.4444
1	525031	96.81	2.4444
1	525577	96.91	2.4444
1	526131	97.01	2.4444
1	526677	97.11	2.4444
1	527223	97.21	2.4444
1	527769	97.31	2.4444
1	528315	97.41	2.4444
1	528861	97.51	2.4444
1	529407	97.61	2.4444
1	529953	97.71	2.4444
1	530499	97.81	2.4444
1	531045	97.91	2.4444
1	531599	98.01	2.4444
1	532145	98.11	2.4444
1	532691	98.21	2.4444
1	533237	98.31	2.4444
1	533783	98.41	2.4444
1	534329	98.51	2.4444
1	534875	98.61	2.4444
1	535421	98.71	2.4444
1	535967	98.81	2.4444
1	536513	98.91	2.4444
1	537067	99.01	2.4444
1	537613	99.11	2.4444
1	538159	99.21	2.4444
1	538705	99.31	2.4444
1	539251	99.41	2.4444
1	539797	99.51	2.4444
1	540343	99.61	2.4444
1	540889	99.71	2.4444
1	541435	99.81	2.4444
1	541981	99.91	2.4444
2	113	1.11	0
2	659	1.21	0
2	1205	1.31	0
2	1751	1.41	0
2	2297	1.51	0
2	2843	1.61	0
2	3389	1.71	0
2	3935	1.81	0
2	4481	1.91	0
2	5035	2.01	0
2	5581	2.11	0
2	6127	2.21	0
2	6673	2.31	0
2	7219	2.41	0
2	7765	2.51	0
2	8311	2.61	0
2	8857	2.71	0
2	9403	2.81	0
2	9949	2.91	0
2	10503	3.01	0
2	11049	3.11	0
2	11595	3.21	0
2	12141	3.31	0
2	12687	3.41	0
2	13233	3.51	0
2	13779	3.61	0
2	14325	3.71	0
2	14871	3.81	0
2	15417	3.91	0
2	15971	4.01	0
2	16517	4.11	0
2	17063	4.21	0
2	17609	4.31	0
2	18155	4.41	0
2	18701	4.51	0
2	19247	4.61	0
2	19793	4.71	0
2	20339	4.81	0
2	20885	4.91	0
2	21439	5.01	0
2	21985	5.11	0
2	22531	5.21	0
2	23077	5.31	0
2	23623	5.41	0
2	24169	5.51	0
2	24715	5.61	0
2	25261	5.71	0
2	25807	5.81	0
2	26353	5.91	0
2	26907	6.01	0
2	27453	6.11	0
2	27999	6.21	0
2	28545	6.31	0
2	29091	6.41	0
2	29637	6.51	0
2	30183	6.61	0
2	30729	6.71	0
2	31275	6.81	0
2	31821	6.91	0
2	32375	7.01	0
2	32921	7.11	0
2	33467	7.21	0
2	34013	7.31	0
2	34559	7.41	0
2	35105	7.51	0
2	35651	7.61	0
2	36197	7.71	0
2	36743	7.81	0
2	37289	7.91	0
2	37843	8.01	0
2	38389	8.11	0
2	38935	8.21	0
2	39481	8.31	0
2	40027	8.41	0
2	40573	8.51	0
2	41119	8.61	0
2	41665	8.71	0
2	42211	8.81	0
2	42757	8.91	0
2	43311	9.01	0
2	43857	9.11	0
2	44403	9.21	0
2	44949	9.31	0
2	45495	9.41	0
2	46041	9.51	0
2	46587	9.61	0
2	47133	9.71	0
2	47679	9.81	0
2	48225	9.91	0
2	50415	10.01	0
2	50961	10.11	0
2	51507	10.21	0
2	52053	10.31	0
2	52599	10.41	0
2	53145	10.51	0
2	53691	10.61	0
2	54237	10.71	0
2	54783	10.81	0
2	55329	10.91	0
2	55883	11.01	0
2	56429	11.11	0
2	56975	11.21	0
2	57521	11.31	0
2	58067	11.41	0
2	58613	11.51	0
2	59159	11.61	0
2	59705	11.71	0
2	60251	11.81	0
2	60797	11.91	0
2	61351	12.01	0
2	61897	12.11	0
2	62443	12.21	0
2	62989	12.31	0
2	63535	12.41	0
2	64081	12.51	0
2	64627	12.61	0
2	65173	12.71	0
2	65719	12.81	0
2	66265	12.91	0
2	66819	13.01	0
2	67365	13.11	0
2	67911	13.21	0
2	68457	13.31	0
2	69003	13.41	0
2	69549	13.51	0
2	70095	13.61	0
2	70641	13.71	0
2	71187	13.81	0
2	71733	13.91	0
2	72287	14.01	0
2	72833	14.11	0
2	73379	14.21	0
2	73925	14.31	0
2	74471	14.41	0
2	75017	14.51	0
2	75563	14.61	0
2	76109	14.71	0
2	76655	14.81	0
2	77201	14.91	0
2	77755	15.01	0
2	78301	15.11	0
2	78847	15.21	0
2	79393	15.31	0
2	79939	15.41	0
2	80485	15.51	0
2	81031	15.61	0
2	81577	15.71	0
2	82123	15.81	0
2	82669	15.91	0
2	83223	16.01	0
2	83769	16.11	0
2	84315	16.21	0
2	84861	16.31	0
2	85407	16.41	0
2	85953	16.51	0
2	86499	16.61	0
2	87045	16.71	0
2	87591	16.81	0
2	88137	16.91	0
2	88691	17.01	0
2	89237	17.11	0
2	89783	17.21	0
2	90329	17.31	0
2	90875	17.41	0
2	91421	17.51	0
2	91967	17.61	0
2	92513	17.71	0
2	93059	17.81	0
2	93605	17.91	0
2	94159	18.01	0
2	94705	18.11	0
2	95251	18.21	0
2	95797	18.31	0
2	96343	18.41	0
2	96889	18.51	0
2	97435	18.61	0
2	97981	18.71	0
2	98527	18.81	0
2	99073	18.91	0
2	99627	19.01	0
2	100173	19.11	0
2	100719	19.21	0
2	101265	19.31	0
2	101811	19.41	0
2	102357	19.51	0
2	102903	19.61	0
2	103449	19.71	0
2	103995	19.81	0
2	104541	19.91	0
2	105095	20.01	0
2	105641	20.11	0
2	106187	20.21	0
2	106733	20.31	0
2	107279	20.41	0
2	107825	20.51	0
2	108371	20.61	0
2	108917	20.71	0
2	109463	20.81	0
2	110009	20.91	0
2	110563	21.01	0
2	111109	21.11	0
2	111655	21.21	0
2	112201	21.31	0
2	112747	21.41	0
2	113293	21.51	0
2	113839	21.61	0
2	114385	21.71	0
2	114931	21.81	0
2	115477	21.91	0
2	116031	22.01	0
2	116577	22.11	0
2	117123	22.21	0
2	117669	22.31	0
2	118215	22.41	0
2	118761	22.51	0
2	119307	22.61	0
2	119853	22.71	0
2	120399	22.81	0
2	120945	22.91	0
2	121499	23.01	0
2	122045	23.11	0
2	122591	23.21	0
2	123137	23.31	0
2	123683	23.41	0
2	124229	23.51	0
2	124775	23.61	0
2	125321	23.71	0
2	125867	23.81	0
2	126413	23.91	0
2	126967	24.01	0
2	127513	24.11	0
2	128059	24.21	0
2	128605	24.31	0
2	129151	24.41	0
2	129697	24.51	0
2	130243	24.61	0
2	130789	24.71	0
2	131335	24.81	0
2	131881	24.91	0
2	132435	25.01	0
2	132981	25.11	0
2	133527	25.21	0
2	134073	25.31	0
2	134619	25.41	0
2	135165	25.51	0
2	135711	25.61	0
2	136257	25.71	0
2	136803	25.81	0
2	137349	25.91	0
2	137903	26.01	0
2	138449	26.11	0
2	138995	26.21	0
2	139541	26.31	0
2	140087	26.41	0
2	140633	26.51	0
2	141179	26.61	0
2	141725	26.71	0
2	142271	26.81	0
2	142817	26.91	0
2	143371	27.01	0
2	143917	27.11	0
2	144463	27.21	0
2	145009	27.31	0
2	145555	27.41	0
2	146101	27.51	0
2	146647	27.61	0
2	147193	27.71	0
2	147739	27.81	0
2	148285	27.91	0
2	148839	28.01	0
2	149385	28.11	0
2	149931	28.21	0
2	150477	28.31	0
2	151023	28.41	0
2	151569	28.51	0
2	152115	28.61	0
2	152661	28.71	0
2	153207	28.81	0
2	153753	28.91	0
2	154307	29.01	0
2	154853	29.11	0
2	155399	29.21	0
2	155945	29.31	0
2	156491	29.41	0
2	157037	29.51	0
2	157583	29.61	0
2	158129	29.71	0
2	158675	29.81	0
2	159221	29.91	0
2	159775	30.01	0
2	160321	30.11	0
2	160867	30.21	0
2	161413	30.31	0
2	161959	30.41	0
2	162505	30.51	0
2	163051	30.61	0
2	163597	30.71	0
2	164143	30.81	0
2	164689	30.91	0
2	165243	31.01	0
2	165789	31.11	0
2	166335	31.21	0
2	166881	31.31	0
2	167427	31.41	0
2	167973	31.51	0
2	168519	31.61	0
2	169065	31.71	0
2	169611	31.81	0
2	170157	31.91	0
2	170711	32.01	0
2	171257	32.11	0
2	171803	32.21	0
2	172349	32.31	0
2	172895	32.41	0
2	173441	32.51	0
2	173987	32.61	0
2	174533	32.71	0
2	175079	32.81	0
2	175625	32.91	0
2	176179	33.01	0
2	176725	33.11	0
2	177271	33.21	0
2	177817	33.31	0
2	178363	33.41	0
2	178909	33.51	0
2	179455	33.61	0
2	180001	33.71	0
2	180547	33.81	0
2	181093	33.91	0
2	181647	34.01	0
2	182193	34.11	0
2	182739	34.21	0
2	183285	34.31	0
2	183831	34.41	0
2	184377	34.51	0
2	184923	34.61	0
2	185469	34.71	0
2	186015	34.81	0
2	186561	34.91	0
2	187115	35.01	0
2	187661	35.11	0
2	188207	35.21	0
2	188753	35.31	0
2	189299	35.41	0
2	189845	35.51	0
2	190391	35.61	0
2	190937	35.71	0
2	191483	35.81	0
2	192029	35.91	0
2	192583	36.01	0
2	193129	36.11	0
2	193675	36.21	0
2	194221	36.31	0
2	194767	36.41	0
2	195313	36.51	0
2	195859	36.61	0
2	196405	36.71	0
2	196951	36.81	0
2	197497	36.91	0
2	198051	37.01	0
2	198597	37.11	0
2	199143	37.21	0
2	199689	37.31	0
2	200235	37.41	0
2	200781	37.51	0
2	201327	37.61	0
2	201873	37.71	0
2	202419	37.81	0
2	202965	37.91	0
2	203519	38.01	0
2	204065	38.11	0
2	204611	38.21	0
2	205157	38.31	0
2	205703	38.41	0
2	206249	38.51	0
2	206795	38.61	0
2	207341	38.71	0
2	207887	38.81	0
2	208433	38.91	0
2	208987	39.01	0
2	209533	39.11	0
2	210079	39.21	0
2	210625	39.31	0
2	211171	39.41	0
2	211717	39.51	0
2	212263	39.61	0
2	212809	39.71	0
2	213355	39.81	0
2	213901	39.91	0
2	214455	40.01	0
2	215001	40.11	0
2	215547	40.21	0
2	216093	40.31	0
2	216639	40.41	0
2	217185	40.51	0
2	217731	40.61	0
2	218277	40.71	0
2	218823	40.81	0
2	219369	40.91	0
2	219923	41.01	0
2	220469	41.11	0
2	221015	41.21	0
2	221561	41.31	0
2	222107	41.41	0
2	222653	41.51	0
2	223199	41.61	0
2	223745	41.71	0
2	224291	41.81	0
2	224837	41.91	0
2	225391	42.01	0
2	225937	42.11	0
2	226483	42.21	0
2	227029	42.31	0
2	227575	42.41	0
2	228121	42.51	0
2	228667	42.61	0
2	229213	42.71	0
2	229759	42.81	0
2	230305	42.91	0
2	230859	43.01	0
2	231405	43.11	0
2	231951	43.21	0
2	232497	43.31	0
2	233043	43.41	0
2	233589	43.51	0
2	234135	43.61	0
2	234681	43.71	0
2	235227	43.81	0
2	235773	43.91	0
2	236327	44.01	0
2	236873	44.11	0
2	237419	44.21	0
2	237965	44.31	0
2	238511	44.41	0
2	239057	44.51	0
2	239603	44.61	0
2	240149	44.71	0
2	240695	44.81	0
2	241241	44.91	0
2	241795	45.01	0
2	242341	45.11	0
2	242887	45.21	0
2	243433	45.31	0
2	243979	45.41	0
2	244525	45.51	0
2	245071	45.61	0
2	245617	45.71	0
2	246163	45.81	0
2	246709	45.91	0
2	247263	46.01	0
2	247809	46.11	0
2	248355	46.21	0
2	248901	46.31	0
2	249447	46.41	0
2	249993	46.51	0
2	250539	46.61	0
2	251085	46.71	0
2	251631	46.81	0
2	252177	46.91	0
2	252731	47.01	0
2	253277	47.11	0
2	253823	47.21	0
2	254369	47.31	0
2	254915	47.41	0
2	255461	47.51	0
2	256007	47.61	0
2	256553	47.71	0
2	257099	47.81	0
2	257645	47.91	0
2	258199	48.01	0
2	258745	48.11	0
2	259291	48.21	0
2	259837	48.31	0
2	260383	48.41	0
2	260929	48.51	0
2	261475	48.61	0
2	262021	48.71	0
2	262567	48.81	0
2	263113	48.91	0
2	263667	49.01	0
2	264213	49.11	0
2	264759	49.21	0
2	265305	49.31	0
2	265851	49.41	0
2	266397	49.51	0
2	266943	49.61	0
2	267489	49.71	0
2	268035	49.81	0
2	268581	49.91	0
2	269135	50.01	0
2	269681	50.11	0
2	270227	50.21	0
2	270773	50.31	0
2	271319	50.41	0
2	271865	50.51	0
2	272411	50.61	0
2	272957	50.71	0
2	273503	50.81	0
2	274049	50.91	0
2	274603	51.01	0
2	275149	51.11	0
2	275695	51.21	0
2	276241	51.31	0
2	276787	51.41	0
2	277333	51.51	0
2	277879	51.61	0
2	278425	51.71	0
2	278971	51.81	0
2	279517	51.91	0
2	280071	52.01	0
2	280617	52.11	0
2	281163	52.21	0
2	281709	52.31	0
2	282255	52.41	0
2	282801	52.51	0
2	283347	52.61	0
2	283893	52.71	0
2	284439	52.81	0
2	284985	52.91	0
2	285539	53.01	0
2	286085	53.11	0
2	286631	53.21	0
2	287177	53.31	0
2	287723	53.41	0
2	288269	53.51	0
2	288815	53.61	0
2	289361	53.71	0
2	289907	53.81	0
2	290453	53.91	0
2	291007	54.01	0
2	291553	54.11	0
2	292099	54.21	0
2	292645	54.31	0
2	293191	54.41	0
2	293737	54.51	0
2	294283	54.61	0
2	294829	54.71	0
2	295375	54.81	0
2	295921	54.91	0
2	296475	55.01	0
2	297021	55.11	0
2	297567	55.21	0
2	298113	55.31	0
2	298659	55.41	0
2	299205	55.51	0
2	299751	55.61	0
2	300297	55.71	0
2	300843	55.81	0
2	301389	55.91	0
2	301943	56.01	0
2	302489	56.11	0
2	303035	56.21	0
2	303581	56.31	0
2	304127	56.41	0
2	304673	56.51	0
2	305219	56.61	0
2	305765	56.71	0
2	306311	56.81	0
2	306857	56.91	0
2	307411	57.01	0
2	307957	57.11	0
2	308503	57.21	0
2	309049	57.31	0
2	309595	57.41	0
2	310141	57.51	0
2	310687	57.61	0
2	311233	57.71	0
2	311779	57.81	0
2	312325	57.91	0
2	312879	58.01	0
2	313425	58.11	0
2	313971	58.21	0
2	314517	58.31	0
2	315063	58.41	0
2	315609	58.51	0
2	316155	58.61	0
2	316701	58.71	0
2	317247	58.81	0
2	317793	58.91	0
2	318347	59.01	0
2	318893	59.11	0
2	319439	59.21	0
2	319985	59.31	0
2	320531	59.41	0
2	321077	59.51	0
2	321623	59.61	0
2	322169	59.71	0
2	322715	59.81	0
2	323261	59.91	0
2	323815	60.01	0
2	324361	60.11	0
2	324907	60.21	0
2	325453	60.31	0
2	325999	60.41	0
2	326545	60.51	0
2	327091	60.61	0
2	327637	60.71	0
2	328183	60.81	0
2	328729	60.91	0
2	329283	61.01	0
2	329829	61.11	0
2	330375	61.21	0
2	330921	61.31	0
2	331467	61.41	0
2	332013	61.51	0
2	332559	61.61	0
2	333105	61.71	0
2	333651	61.81	0
2	334197	61.91	0
2	334751	62.01	0
2	335297	62.11	0
2	335843	62.21	0
2	336389	62.31	0
2	336935	62.41	0
2	337481	62.51	0
2	338027	62.61	0
2	338573	62.71	0
2	339119	62.81	0
2	339665	62.91	0
2	340219	63.01	0
2	340765	63.11	0
2	341311	63.21	0
2	341857	63.31	0
2	342403	63.41	0
2	342949	63.51	0
2	343495	63.61	0
2	344041	63.71	0
2	344587	63.81	0
2	345133	63.91	0
2	345687	64.01	0
2	346233	64.11	0
2	346779	64.21	0
2	347325	64.31	0
2	347871	64.41	0
2	348417	64.51	0
2	348963	64.61	0
2	349509	64.71	0
2	350055	64.81	0
2	350601	64.91	0
2	351155	65.01	0
2	351701	65.11	0
2	352247	65.21	0
2	352793	65.31	0
2	353339	65.41	0
2	353885	65.51	0
2	354431	65.61	0
2	354977	65.71	0
2	355523	65.81	0
2	356069	65.91	0
2	356623	66.01	0
2	357169	66.11	0
2	357715	66.21	0
2	358261	66.31	0
2	358807	66.41	0
2	359353	66.51	0
2	359899	66.61	0
2	360445	66.71	0
2	360991	66.81	0
2	361537	66.91	0
2	362091	67.01	0
2	362637	67.11	0
2	363183	67.21	0
2	363729	67.31	0
2	364275	67.41	0
2	364821	67.51	0
2	365367	67.61	0
2	365913	67.71	0
2	366459	67.81	0
2	367005	67.91	0
2	367559	68.01	0
2	368105	68.11	0
2	368651	68.21	0
2	369197	68.31	0
2	369743	68.41	0
2	370289	68.51	0
2	370835	68.61	0
2	371381	68.71	0
2	371927	68.81	0
2	372473	68.91	0
2	373027	69.01	0
2	373573	69.11	0
2	374119	69.21	0
2	374665	69.31	0
2	375211	69.41	0
2	375757	69.51	0
2	376303	69.61	0
2	376849	69.71	0
2	377395	69.81	0
2	377941	69.91	0
2	378495	70.01	0
2	379041	70.11	0
2	379587	70.21	0
2	380133	70.31	0
2	380679	70.41	0
2	381225	70.51	0
2	381771	70.61	0
2	382317	70.71	0
2	382863	70.81	0
2	383409	70.91	0
2	383963	71.01	0
2	384509	71.11	0
2	385055	71.21	0
2	385601	71.31	0
2	386147	71.41	0
2	386693	71.51	0
2	387239	71.61	0
2	387785	71.71	0
2	388331	71.81	0
2	388877	71.91	0
2	389431	72.01	0
2	389977	72.11	0
2	390523	72.21	0
2	391069	72.31	0
2	391615	72.41	0
2	392161	72.51	0
2	392707	72.61	0
2	393253	72.71	0
2	393799	72.81	0
2	394345	72.91	0
2	394899	73.01	0
2	395445	73.11	0
2	395991	73.21	0
2	396537	73.31	0
2	397083	73.41	0
2	397629	73.51	0
2	398175	73.61	0
2	398721	73.71	0
2	399267	73.81	0
2	399813	73.91	0
2	400367	74.01	0
2	400913	74.11	0
2	401459	74.21	0
2	402005	74.31	0
2	402551	74.41	0
2	403097	74.51	0
2	403643	74.61	0
2	404189	74.71	0
2	404735	74.81	0
2	405281	74.91	0
2	405835	75.01	0
2	406381	75.11	0
2	406927	75.21	0
2	407473	75.31	0
2	408019	75.41	0
2	408565	75.51	0
2	409111	75.61	0
2	409657	75.71	0
2	410203	75.81	0
2	410749	75.91	0
2	411303	76.01	0
2	411849	76.11	0
2	412395	76.21	0
2	412941	76.31	0
2	413487	76.41	0
2	414033	76.51	0
2	414579	76.61	0
2	415125	76.71	0
2	415671	76.81	0
2	416217	76.91	0
2	416771	77.01	0
2	417317	77.11	0
2	417863	77.21	0
2	418409	77.31	0
2	418955	77.41	0
2	419501	77.51	0
2	420047	77.61	0
2	420593	77.71	0
2	421139	77.81	0
2	421685	77.91	0
2	422239	78.01	0
2	422785	78.11	0
2	423331	78.21	0
2	423877	78.31	0
2	424423	78.41	0
2	424969	78.51	0
2	425515	78.61	0
2	426061	78.71	0
2	426607	78.81	0
2	427153	78.91	0
2	427707	79.01	0
2	428253	79.11	0
2	428799	79.21	0
2	429345	79.31	0
2	429891	79.41	0
2	430437	79.51	0
2	430983	79.61	0
2	431529	79.71	0
2	432075	79.81	0
2	432621	79.91	0
2	433175	80.01	0
2	433721	80.11	0
2	434267	80.21	0
2	434813	80.31	0
2	435359	80.41	0
2	435905	80.51	0
2	436451	80.61	0
2	436997	80.71	0
2	437543	80.81	0
2	438089	80.91	0
2	438643	81.01	0
2	439189	81.11	0
2	439735	81.21	0
2	440281	81.31	0
2	440827	81.41	0
2	441373	81.51	0
2	441919	81.61	0
2	442465	81.71	0
2	443011	81.81	0
2	443557	81.91	0
2	444111	82.01	0
2	444657	82.11	0
2	445203	82.21	0
2	445749	82.31	0
2	446295	82.41	0
2	446841	82.51	0
2	447387	82.61	0
2	447933	82.71	0
2	448479	82.81	0
2	449025	82.91	0
2	449579	83.01	0
2	450125	83.11	0
2	450671	83.21	0
2	451217	83.31	0
2	451763	83.41	0
2	452309	83.51	0
2	452855	83.61	0
2	453401	83.71	0
2	453947	83.81	0
2	454493	83.91	0
2	455047	84.01	0
2	455593	84.11	0
2	456139	84.21	0
2	456685	84.31	0
2	457231	84.41	0
2	457777	84.51	0
2	458323	84.61	0
2	458869	84.71	0
2	459415	84.81	0
2	459961	84.91	0
2	460515	85.01	0
2	461061	85.11	0
2	461607	85.21	0
2	462153	85.31	0
2	462699	85.41	0
2	463245	85.51	0
2	463791	85.61	0
2	464337	85.71	0
2	464883	85.81	0
2	465429	85.91	0
2	465983	86.01	0
2	466529	86.11	0
2	467075	86.21	0
2	467621	86.31	0
2	468167	86.41	0
2	468713	86.51	0
2	469259	86.61	0
2	469805	86.71	0
2	470351	86.81	0
2	470897	86.91	0
2	471451	87.01	0
2	471997	87.11	0
2	472543	87.21	0
2	473089	87.31	0
2	473635	87.41	0
2	474181	87.51	0
2	474727	87.61	0
2	475273	87.71	0
2	475819	87.81	0
2	476365	87.91	0
2	476919	88.01	0
2	477465	88.11	0
2	478011	88.21	0
2	478557	88.31	0
2	479103	88.41	0
2	479649	88.51	0
2	480195	88.61	0
2	480741	88.71	0
2	481287	88.81	0
2	481833	88.91	0
2	482387	89.01	0
2	482933	89.11	0
2	483479	89.21	0
2	484025	89.31	0
2	484571	89.41	0
2	485117	89.51	0
2	485663	89.61	0
2	486209	89.71	0
2	486755	89.81	0
2	487301	89.91	0
2	487855	90.01	0
2	488401	90.11	0
2	488947	90.21	0
2	489493	90.31	0
2	490039	90.41	0
2	490585	90.51	0
2	491131	90.61	0
2	491677	90.71	0
2	492223	90.81	0
2	492769	90.91	0
2	493323	91.01	0
2	493869	91.11	0
2	494415	91.21	0
2	494961	91.31	0
2	495507	91.41	0
2	496053	91.51	0
2	496599	91.61	0
2	497145	91.71	0
2	497691	91.81	0
2	498237	91.91	0
2	498791	92.01	0
2	499337	92.11	0
2	499883	92.21	0
2	500429	92.31	0
2	500975	92.41	0
2	501521	92.51	0
2	502067	92.61	0
2	502613	92.71	0
2	503159	92.81	0
2	503705	92.91	0
2	504259	93.01	0
2	504805	93.11	0
2	505351	93.21	0
2	505897	93.31	0
2	506443	93.41	0
2	506989	93.51	0
2	507535	93.61	0
2	508081	93.71	0
2	508627	93.81	0
2	509173	93.91	0
2	509727	94.01	0
2	510273	94.11	0
2	510819	94.21	0
2	511365	94.31	0
2	511911	94.41	0
2	512457	94.51	0
2	513003	94.61	0
2	513549	94.71	0
2	514095	94.81	0
2	514641	94.91	0
2	515195	95.01	0
2	515741	95.11	0
2	516287	95.21	0
2	516833	95.31	0
2	517379	95.41	0
2	517925	95.51	0
2	518471	95.61	0
2	519017	95.71	0
2	519563	95.81	0
2	520109	95.91	0
2	520663	96.01	0
2	521209	96.11	0
2	521755	96.21	0
2	522301	96.31	0
2	522847	96.41	0
2	523393	96.51	0
2	523939	96.61	0
2	524485	96.71	0
2	525031	96.81	0
2	525577	96.91	0
2	526131	97.01	0
2	526677	97.11	0
2	527223	97.21	0
2	527769	97.31	0
2	528315	97.41	0
2	528861	97.51	0
2	529407	97.61	0
2	529953	97.71	0
2	530499	97.81	0
2	531045	97.91	0
2	531599	98.01	0
2	532145	98.11	0
2	532691	98.21	0
2	533237	98.31	0
2	533783	98.41	0
2	534329	98.51	0
2	534875	98.61	0
2	535421	98.71	0
2	535967	98.81	0
2	536513	98.91	0
2	537067	99.01	0
2	537613	99.11	0
2	538159	99.21	0
2	538705	99.31	0
2	539251	99.41	0
2	539797	99.51	0
2	540343	99.61	0
2	540889	99.71	0
2	541435	99.81	0
2	541981	99.91	0
3	113	1.11	-0.000716383
3	659	1.21	-0.00136341
3	1205	1.31	-0.00186974
3	1751	1.41	-0.00225157
3	2297	1.51	-0.00252443
3	2843	1.61	-0.00270298
3	3389	1.71	-0.00280098
3	3935	1.81	-0.00283113
3	4481	1.91	-0.00280509
3	5035	2.01	-0.00273342
3	5581	2.11	-0.00262559
3	6127	2.21	-0.00249005
3	6673	2.31	-0.00233419
3	7219	2.41	-0.00216447
3	7765	2.51	-0.00198642
3	8311	2.61	-0.00180472
3	8857	2.71	-0.0016233
3	9403	2.81	-0.00144536
3	9949	2.91	-0.00127346
3	10503	3.01	-0.0011096
3	11049	3.11	-0.000955278
3	11595	3.21	-0.000811546
3	12141	3.31	-0.00067908
3	12687	3.41	-0.000558232
3	13233	3.51	-0.000449082
3	13779	3.61	-0.000351487
3	14325	3.71	-0.00026512
3	14871	3.81	-0.000189514
3	15417	3.91	-0.000124092
3	15971	4.01	-6.81972e-05
3	16517	4.11	-2.11209e-05
3	17063	4.21	1.78769e-05
3	17609	4.31	4.9548e-05
3	18155	4.41	7.46407e-05
3	18701	4.51	9.38867e-05
3	19247	4.61	0.000107991
3	19793	4.71	0.000117625
3	20339	4.81	0.000123418
3	20885	4.91	0.000125957
3	21439	5.01	0.000125781
3	21985	5.11	0.00012338
3	22531	5.21	0.000119198
3	23077	5.31	0.000113629
3	23623	5.41	0.000107022
3	24169	5.51	9.96832e-05
3	24715	5.61	9.18747e-05
3	25261	5.71	8.38211e-05
3	25807	5.81	7.57109e-05
3	26353	5.91	6.76999e-05
3	26907	6.01	5.99137e-05
3	27453	6.11	5.24518e-05
3	27999	6.21	4.53896e-05
3	28545	6.31	3.87821e-05
3	29091	6.41	3.2666e-05
3	29637	6.51	2.70628e-05
3	30183	6.61	2.19809e-05
3	30729	6.71	1.74176e-05
3	31275	6.81	1.33618e-05
3	31821	6.91	9.79494e-06
3	32375	7.01	6.6932e-06
3	32921	7.11	4.02864e-06
3	33467	7.21	1.77051e-06
3	34013	7.31	-1.13691e-07
3	34559	7.41	-1.65736e-06
3	35105	7.51	-2.89397e-06
3	35651	7.61	-3.85652e-06
3	36197	7.71	-4.57698e-06
3	36743	7.81	-5.08591e-06
3	37289	7.91	-5.41219e-06
3	37843	8.01	-5.58279e-06
3	38389	8.11	-5.6226e-06
3	38935	8.21	-5.55442e-06
3	39481	8.31	-5.39886e-06
3	40027	8.41	-5.17441e-06
3	40573	8.51	-4.89748e-06
3	41119	8.61	-4.58246e-06
3	41665	8.71	-4.24184e-06
3	42211	8.81	-3.88634e-06
3	42757	8.91	-3.52499e-06
3	43311	9.01	-3.16534e-06
3	43857	9.11	-2.81353e-06
3	44403	9.21	-2.47446e-06
3	44949	9.31	-2.15192e-06
3	45495	9.41	-1.84873e-06
3	46041	9.51	-1.56685e-06
3	46587	9.61	-1.30751e-06
3	47133	9.71	-1.0713e-06
3	47679	9.81	-8.58321e-07
3	48225	9.91	-6.68206e-07
3	50415	10.01	-5.0026e-07
3	50961	10.11	-3.53514e-07
3	51507	10.21	-2.2679e-07
3	52053	10.31	-1.18765e-07
3	52599	10.41	-2.80163e-08
3	53145	10.51	4.6931e-08
3	53691	10.61	1.07573e-07
3	54237	10.71	1.55391e-07
3	54783	10.81	1.91831e-07
3	55329	10.91	2.18284e-07
3	55883	11.01	2.3607e-07
3	56429	11.11	2.46427e-07
3	56975	11.21	2.50502e-07
3	57521	11.31	2.49353e-07
3	58067	11.41	2.43938e-07
3	58613	11.51	2.3512e-07
3	59159	11.61	2.23669e-07
3	59705	11.71	2.10264e-07
3	60251	11.81	1.95496e-07
3	60797	11.91	1.79874e-07
3	61351	12.01	1.63833e-07
3	61897	12.11	1.47736e-07
3	62443	12.21	1.3188e-07
3	62989	12.31	1.16508e-07
3	63535	12.41	1.01807e-07
3	64081	12.51	8.79222e-08
3	64627	12.61	7.49541e-08
3	65173	12.71	6.29711e-08
3	65719	12.81	5.20114e-08
3	66265	12.91	4.20883e-08
3	66819	13.01	3.3193e-08
3	67365	13.11	2.53003e-08
3	67911	13.21	1.83718e-08
3	68457	13.31	1.23581e-08
3	69003	13.41	7.20348e-09
3	69549	13.51	2.84537e-09
3	70095	13.61	-7.80886e-10
3	70641	13.71	-3.74136e-09
3	71187	13.81	-6.10285e-09
3	71733	13.91	-7.93072e-09
3	72287	14.01	-9.28821e-09
3	72833	14.11	-1.0235e-08
3	73379	14.21	-1.08283e-08
3	73925	14.31	-1.11211e-08
3	74471	14.41	-1.11612e-08
3	75017	14.51	-1.09946e-08
3	75563	14.61	-1.06599e-08
3	76109	14.71	-1.01945e-08
3	76655	14.81	-9.62999e-09
3	77201	14.91	-8.99405e-09
3	77755	15.01	-8.31086e-09
3	78301	15.11	-7.60103e-09
3	78847	15.21	-6.88338e-09
3	79393	15.31	-6.17071e-09
3	79939	15.41	-5.47544e-09
3	80485	15.51	-4.80682e-09
3	81031	15.61	-4.17266e-09
3	81577	15.71	-3.57687e-09
3	82123	15.81	-3.02443e-09
3	82669	15.91	-2.51674e-09
3	83223	16.01	-2.05489e-09
3	83769	16.11	-1.63958e-09
3	84315	16.21	-1.26903e-09
3	84861	16.31	-9.42535e-10
3	85407	16.41	-6.57963e-10
3	85953	16.51	-4.1247e-10
3	86499	16.61	-2.04636e-10
3	87045	16.71	-2.91323e-11
3	87591	16.81	1.14753e-10
3	88137	16.91	2.30926e-10
3	88691	17.01	3.22231e-10
3	89237	17.11	3.91154e-10
3	89783	17.21	4.40892e-10
3	90329	17.31	4.73577e-10
3	90875	17.41	4.92051e-10
3	91421	17.51	4.98446e-10
3	91967	17.61	4.94893e-10
3	92513	17.71	4.82814e-10
3	93059	17.81	4.6434e-10
3	93605	17.91	4.40892e-10
3	94159	18.01	4.13536e-10
3	94705	18.11	3.83693e-10
3	95251	18.21	3.51719e-10
3	95797	18.31	3.19744e-10
3	96343	18.41	2.8777e-10
3	96889	18.51	2.55795e-10
3	97435	18.61	2.25953e-10
3	97981	18.71	1.97531e-10
3	98527	18.81	1.6982e-10
3	99073	18.91	1.44951e-10
3	99627	19.01	1.21503e-10
3	100173	19.11	1.00187e-10
3	100719	19.21	8.10019e-11
3	101265	19.31	6.32383e-11
3	101811	19.41	4.86722e-11
3	102357	19.51	3.44613e-11
3	102903	19.61	2.34479e-11
3	103449	19.71	1.27898e-11
3	103995	19.81	4.9738e-12
3	104541	19.91	-2.13163e-12
3	105095	20.01	-8.17124e-12
3	105641	20.11	-1.1724e-11
3	106187	20.21	-1.52767e-11
3	106733	20.31	-1.88294e-11
3	107279	20.41	-2.02505e-11
3	107825	20.51	-2.02505e-11
3	108371	20.61	-2.02505e-11
3	108917	20.71	-2.02505e-11
3	109463	20.81	-2.02505e-11
3	110009	20.91	-2.02505e-11
3	110563	21.01	-2.02505e-11
3	111109	21.11	-2.02505e-11
3	111655	21.21	-2.02505e-11
3	112201	21.31	-1.88294e-11
3	112747	21.41	-1.7053e-11
3	113293	21.51	-1.52767e-11
3	113839	21.61	-1.38556e-11
3	114385	21.71	-1.24345e-11
3	114931	21.81	-1.13687e-11
3	115477	21.91	-1.03029e-11
3	116031	22.01	-9.23706e-12
3	116577	22.11	-8.52651e-12
3	117123	22.21	-7.4607e-12
3	117669	22.31	-6.75016e-12
3	118215	22.41	-6.03961e-12
3	118761	22.51	-5.68434e-12
3	119307	22.61	-4.9738e-12
3	119853	22.71	-4.61853e-12
3	120399	22.81	-4.26326e-12
3	120945	22.91	-3.90799e-12
3	121499	23.01	-3.55271e-12
3	122045	23.11	-3.19744e-12
3	122591	23.21	-2.84217e-12
3	123137	23.31	-2.4869e-12
3	123683	23.41	-2.13163e-12
3	124229	23.51	-2.13163e-12
3	124775	23.61	-1.77636e-12
3	125321	23.71	-1.77636e-12
3	125867	23.81	-1.42109e-12
3	126413	23.91	-1.42109e-12
3	126967	24.01	-1.06581e-12
3	127513	24.11	-1.06581e-12
3	128059	24.21	-1.06581e-12
3	128605	24.31	-1.06581e-12
3	129151	24.41	-7.10543e-13
3	129697	24.51	-7.10543e-13
3	130243	24.61	-7.10543e-13
3	130789	24.71	-7.10543e-13
3	131335	24.81	-7.10543e-13
3	131881	24.91	-3.55271e-13
3	132435	25.01	-3.55271e-13
3	132981	25.11	-3.55271e-13
3	133527	25.21	-3.55271e-13
3	134073	25.31	-3.55271e-13
3	134619	25.41	-3.55271e-13
3	135165	25.51	-3.55271e-13
3	135711	25.61	-3.55271e-13
3	136257	25.71	-3.55271e-13
3	136803	25.81	-3.55271e-13
3	137349	25.91	0
3	137903	26.01	0
3	138449	26.11	0
3	138995	26.21	0
3	139541	26.31	0
3	140087	26.41	0
3	140633	26.51	0
3	141179	26.61	0
3	141725	26.71	0
3	142271	26.81	0
3	142817	26.91	0
3	143371	27.01	0
3	143917	27.11	0
3	144463	27.21	0
3	145009	27.31	0
3	145555	27.41	0
3	146101	27.51	0
3	146647	27.61	0
3	147193	27.71	0
3	147739	27.81	0
3	148285	27.91	0
3	148839	28.01	0
3	149385	28.11	0
3	149931	28.21	0
3	150477	28.31	0
3	151023	28.41	0
3	151569	28.51	0
3	152115	28.61	0
3	152661	28.71	0
3	153207	28.81	0
3	153753	28.91	0
3	154307	29.01	0
3	154853	29.11	0
3	155399	29.21	0
3	155945	29.31	0
3	156491	29.41	0
3	157037	29.51	0
3	157583	29.61	0
3	158129	29.71	0
3	158675	29.81	0
3	159221	29.91	0
3	159775	30.01	0
3	160321	30.11	0
3	160867	30.21	0
3	161413	30.31	0
3	161959	30.41	0
3	162505	30.51	0
3	163051	30.61	0
3	163597	30.71	0
3	164143	30.81	0
3	164689	30.91	0
3	165243	31.01	0
3	165789	31.11	0
3	166335	31.21	0
3	166881	31.31	0
3	167427	31.41	0
3	167973	31.51	0
3	168519	31.61	0
3	169065	31.71	0
3	169611	31.81	0
3	170157	31.91	0
3	170711	32.01	0
3	171257	32.11	0
3	171803	32.21	0
3	172349	32.31	0
3	172895	32.41	0
3	173441	32.51	0
3	173987	32.61	0
3	174533	32.71	0
3	175079	32.81	0
3	175625	32.91	0
3	176179	33.01	0
3	176725	33.11	0
3	177271	33.21	0
3	177817	33.31	0
3	178363	33.41	0
3	178909	33.51	0
3	179455	33.61	0
3	180001	33.71	0
3	180547	33.81	0
3	181093	33.91	0
3	181647	34.01	0
3	182193	34.11	0
3	182739	34.21	0
3	183285	34.31	0
3	183831	34.41	0
3	184377	34.51	0
3	184923	34.61	0
3	185469	34.71	0
3	186015	34.81	0
3	186561	34.91	0
3	187115	35.01	0
3	187661	35.11	0
3	188207	35.21	0
3	188753	35.31	0
3	189299	35.41	0
3	189845	35.51	0
3	190391	35.61	0
3	190937	35.71	0
3	191483	35.81	0
3	192029	35.91	0
3	192583	36.01	0
3	193129	36.11	0
3	193675	36.21	0
3	194221	36.31	0
3	194767	36.41	0
3	195313	36.51	0
3	195859	36.61	0
3	196405	36.71	0
3	196951	36.81	0
3	197497	36.91	0
3	198051	37.01	0
3	198597	37.11	0
3	199143	37.21	0
3	199689	37.31	0
3	200235	37.41	0
3	200781	37.51	0
3	201327	37.61	0
3	201873	37.71	0
3	202419	37.81	0
3	202965	37.91	0
3	203519	38.01	0
3	204065	38.11	0
3	204611	38.21	0
3	205157	38.31	0
3	205703	38.41	0
3	206249	38.51	0
3	206795	38.61	0
3	207341	38.71	0
3	207887	38.81	0
3	208433	38.91	0
3	208987	39.01	0
3	209533	39.11	0
3	210079	39.21	0
3	210625	39.31	0
3	211171	39.41	0
3	211717	39.51	0
3	212263	39.61	0
3	212809	39.71	0
3	213355	39.81	0
3	213901	39.91	0
3	214455	40.01	0
3	215001	40.11	0
3	215547	40.21	0
3	216093	40.31	0
3	216639	40.41	0
3	217185	40.51	0
3	217731	40.61	0
3	218277	40.71	0
3	218823	40.81	0
3	219369	40.91	0
3	219923	41.01	0
3	220469	41.11	0
3	221015	41.21	0
3	221561	41.31	0
3	222107	41.41	0
3	222653	41.51	0
3	223199	41.61	0
3	223745	41.71	0
3	224291	41.81	0
3	224837	41.91	0
3	225391	42.01	0
3	225937	42.11	0
3	226483	42.21	0
3	227029	42.31	0
3	227575	42.41	0
3	228121	42.51	0
3	228667	42.61	0
3	229213	42.71	0
3	229759	42.81	0
3	230305	42.91	0
3	230859	43.01	0
3	231405	43.11	0
3	231951	43.21	0
3	232497	43.31	0
3	233043	43.41	0
3	233589	43.51	0
3	234135	43.61	0
3	234681	43.71	0
3	235227	43.81	0
3	235773	43.91	0
3	236327	44.01	0
3	236873	44.11	0
3	237419	44.21	0
3	237965	44.31	0
3	238511	44.41	0
3	239057	44.51	0
3	239603	44.61	0
3	240149	44.71	0
3	240695	44.81	0
3	241241	44.91	0
3	241795	45.01	0
3	242341	45.11	0
3	242887	45.21	0
3	243433	45.31	0
3	243979	45.41	0
3	244525	45.51	0
3	245071	45.61	0
3	245617	45.71	0
3	246163	45.81	0
3	246709	45.91	0
3	247263	46.01	0
3	247809	46.11	0
3	248355	46.21	0
3	248901	46.31	0
3	249447	46.41	0
3	249993	46.51	0
3	250539	46.61	0
3	251085	46.71	0
3	251631	46.81	0
3	252177	46.91	0
3	252731	47.01	0
3	253277	47.11	0
3	253823	47.21	0
3	254369	47.31	0
3	254915	47.41	0
3	255461	47.51	0
3	256007	47.61	0
3	256553	47.71	0
3	257099	47.81	0
3	257645	47.91	0
3	258199	48.01	0
3	258745	48.11	0
3	259291	48.21	0
3	259837	48.31	0
3	260383	48.41	0
3	260929	48.51	0
3	261475	48.61	0
3	262021	48.71	0
3	262567	48.81	0
3	263113	48.91	0
3	263667	49.01	0
3	264213	49.11	0
3	264759	49.21	0
3	265305	49.31	0
3	265851	49.41	0
3	266397	49.51	0
3	266943	49.61	0
3	267489	49.71	0
3	268035	49.81	0
3	268581	49.91	0
3	269135	50.01	0
3	269681	50.11	0
3	270227	50.21	0
3	270773	50.31	0
3	271319	50.41	0
3	271865	50.51	0
3	272411	50.61	0
3	272957	50.71	0
3	273503	50.81	0
3	274049	50.91	0
3	274603	51.01	0
3	275149	51.11	0
3	275695	51.21	0
3	276241	51.31	0
3	276787	51.41	0
3	277333	51.51	0
3	277879	51.61	0
3	278425	51.71	0
3	278971	51.81	0
3	279517	51.91	0
3	280071	52.01	0
3	280617	52.11	0
3	281163	52.21	0
3	281709	52.31	0
3	282255	52.41	0
3	282801	52.51	0
3	283347	52.61	0
3	283893	52.71	0
3	284439	52.81	0
3	284985	52.91	0
3	285539	53.01	0
3	286085	53.11	0
3	286631	53.21	0
3	287177	53.31	0
3	287723	53.41	0
3	288269	53.51	0
3	288815	53.61	0
3	289361	53.71	0
3	289907	53.81	0
3	290453	53.91	0
3	291007	54.01	0
3	291553	54.11	0
3	292099	54.21	0
3	292645	54.31	0
3	293191	54.41	0
3	293737	54.51	0
3	294283	54.61	0
3	294829	54.71	0
3	295375	54.81	0
3	295921	54.91	0
3	296475	55.01	0
3	297021	55.11	0
3	297567	55.21	0
3	298113	55.31	0
3	298659	55.41	0
3	299205	55.51	0
3	299751	55.61	0
3	300297	55.71	0
3	300843	55.81	0
3	301389	55.91	0
3	301943	56.01	0
3	302489	56.11	0
3	303035	56.21	0
3	303581	56.31	0
3	304127	56.41	0
3	304673	56.51	0
3	305219	56.61	0
3	305765	56.71	0
3	306311	56.81	0
3	306857	56.91	0
3	307411	57.01	0
3	307957	57.11	0
3	308503	57.21	0
3	309049	57.31	0
3	309595	57.41	0
3	310141	57.51	0
3	310687	57.61	0
3	311233	57.71	0
3	311779	57.81	0
3	312325	57.91	0
3	312879	58.01	0
3	313425	58.11	0
3	313971	58.21	0
3	314517	58.31	0
3	315063	58.41	0
3	315609	58.51	0
3	316155	58.61	0
3	316701	58.71	0
3	317247	58.81	0
3	317793	58.91	0
3	318347	59.01	0
3	318893	59.11	0
3	319439	59.21	0
3	319985	59.31	0
3	320531	59.41	0
3	321077	59.51	0
3	321623	59.61	0
3	322169	59.71	0
3	322715	59.81	0
3	323261	59.91	0
3	323815	60.01	0
3	324361	60.11	0
3	324907	60.21	0
3	325453	60.31	0
3	325999	60.41	0
3	326545	60.51	0
3	327091	60.61	0
3	327637	60.71	0
3	328183	60.81	0
3	328729	60.91	0
3	329283	61.01	0
3	329829	61.11	0
3	330375	61.21	0
3	330921	61.31	0
3	331467	61.41	0
3	332013	61.51	0
3	332559	61.61	0
3	333105	61.71	0
3	333651	61.81	0
3	334197	61.91	0
3	334751	62.01	0
3	335297	62.11	0
3	335843	62.21	0
3	336389	62.31	0
3	336935	62.41	0
3	337481	62.51	0
3	338027	62.61	0
3	338573	62.71	0
3	339119	62.81	0
3	339665	62.91	0
3	340219	63.01	0
3	340765	63.11	0
3	341311	63.21	0
3	341857	63.31	0
3	342403	63.41	0
3	342949	63.51	0
3	343495	63.61	0
3	344041	63.71	0
3	344587	63.81	0
3	345133	63.91	0
3	345687	64.01	0
3	346233	64.11	0
3	346779	64.21	0
3	347325	64.31	0
3	347871	64.41	0
3	348417	64.51	0
3	348963	64.61	0
3	349509	64.71	0
3	350055	64.81	0
3	350601	64.91	0
3	351155	65.01	0
3	351701	65.11	0
3	352247	65.21	0
3	352793	65.31	0
3	353339	65.41	0
3	353885	65.51	0
3	354431	65.61	0
3	354977	65.71	0
3	355523	65.81	0
3	356069	65.91	0
3	356623	66.01	0
3	357169	66.11	0
3	357715	66.21	0
3	358261	66.31	0
3	358807	66.41	0
3	359353	66.51	0
3	359899	66.61	0
3	360445	66.71	0
3	360991	66.81	0
3	361537	66.91	0
3	362091	67.01	0
3	362637	67.11	0
3	363183	67.21	0
3	363729	67.31	0
3	364275	67.41	0
3	364821	67.51	0
3	365367	67.61	0
3	365913	67.71	0
3	366459	67.81	0
3	367005	67.91	0
3	367559	68.01	0
3	368105	68.11	0
3	368651	68.21	0
3	369197	68.31	0
3	369743	68.41	0
3	370289	68.51	0
3	370835	68.61	0
3	371381	68.71	0
3	371927	68.81	0
3	372473	68.91	0
3	373027	69.01	0
3	373573	69.11	0
3	374119	69.21	0
3	374665	69.31	0
3	375211	69.41	0
3	375757	69.51	0
3	376303	69.61	0
3	376849	69.71	0
3	377395	69.81	0
3	377941	69.91	0
3	378495	70.01	0
3	379041	70.11	0
3	379587	70.21	0
3	380133	70.31	0
3	380679	70.41	0
3	381225	70.51	0
3	381771	70.61	0
3	382317	70.71	0
3	382863	70.81	0
3	383409	70.91	0
3	383963	71.01	0
3	384509	71.11	0
3	385055	71.21	0
3	385601	71.31	0
3	386147	71.41	0
3	386693	71.51	0
3	387239	71.61	0
3	387785	71.71	0
3	388331	71.81	0
3	388877	71.91	0
3	389431	72.01	0
3	389977	72.11	0
3	390523	72.21	0
3	391069	72.31	0
3	391615	72.41	0
3	392161	72.51	0
3	392707	72.61	0
3	393253	72.71	0
3	393799	72.81	0
3	394345	72.91	0
3	394899	73.01	0
3	395445	73.11	0
3	395991	73.21	0
3	396537	73.31	0
3	397083	73.41	0
3	397629	73.51	0
3	398175	73.61	0
3	398721	73.71	0
3	399267	73.81	0
3	399813	73.91	0
3	400367	74.01	0
3	400913	74.11	0
3	401459	74.21	0
3	402005	74.31	0
3	402551	74.41	0
3	403097	74.51	0
3	403643	74.61	0
3	404189	74.71	0
3	404735	74.81	0
3	405281	74.91	0
3	405835	75.01	0
3	406381	75.11	0
3	406927	75.21	0
3	407473	75.31	0
3	408019	75.41	0
3	408565	75.51	0
3	409111	75.61	0
3	409657	75.71	0
3	410203	75.81	0
3	410749	75.91	0
3	411303	76.01	0
3	411849	76.11	0
3	412395	76.21	0
3	412941	76.31	0
3	413487	76.41	0
3	414033	76.51	0
3	414579	76.61	0
3	415125	76.71	0
3	415671	76.81	0
3	416217	76.91	0
3	416771	77.01	0
3	417317	77.11	0
3	417863	77.21	0
3	418409	77.31	0
3	418955	77.41	0
3	419501	77.51	0
3	420047	77.61	0
3	420593	77.71	0
3	421139	77.81	0
3	421685	77.91	0
3	422239	78.01	0
3	422785	78.11	0
3	423331	78.21	0
3	423877	78.31	0
3	424423	78.41	0
3	424969	78.51	0
3	425515	78.61	0
3	426061	78.71	0
3	426607	78.81	0
3	427153	78.91	0
3	427707	79.01	0
3	428253	79.11	0
3	428799	79.21	0
3	429345	79.31	0
3	429891	79.41	0
3	430437	79.51	0
3	430983	79.61	0
3	431529	79.71	0
3	432075	79.81	0
3	432621	79.91	0
3	433175	80.01	0
3	433721	80.11	0
3	434267	80.21	0
3	434813	80.31	0
3	435359	80.41	0
3	435905	80.51	0
3	436451	80.61	0
3	436997	80.71	0
3	437543	80.81	0
3	438089	80.91	0
3	438643	81.01	0
3	439189	81.11	0
3	439735	81.21	0
3	440281	81.31	0
3	440827	81.41	0
3	441373	81.51	0
3	441919	81.61	0
3	442465	81.71	0
3	443011	81.81	0
3	443557	81.91	0
3	444111	82.01	0
3	444657	82.11	0
3	445203	82.21	0
3	445749	82.31	0
3	446295	82.41	0
3	446841	82.51	0
3	447387	82.61	0
3	447933	82.71	0
3	448479	82.81	0
3	449025	82.91	0
3	449579	83.01	0
3	450125	83.11	0
3	450671	83.21	0
3	451217	83.31	0
3	451763	83.41	0
3	452309	83.51	0
3	452855	83.61	0
3	453401	83.71	0
[...]
104	394894	73	4
104	400362	74	4
104	405830	75	4
104	411298	76	4
104	416766	77	4
104	422234	78	4
104	427702	79	4
104	433170	80	4
104	438638	81	4
104	444106	82	4
104	449574	83	4
104	455042	84	4
104	460510	85	4
104	465978	86	4
104	471446	87	4
104	476914	88	4
104	482382	89	4
104	487850	90	4
104	493318	91	4
104	498786	92	4
104	504254	93	4
104	509722	94	4
104	515190	95	4
104	520658	96	4
104	526126	97	4
104	531594	98	4
104	537062	99	4
104	542530	100	4
105	5030	2	0.022473
105	10498	3	0.02497
105	15966	4	0.02497
105	21434	5	0.02497
105	26902	6	0.02497
105	32370	7	0.02497
105	37838	8	0.02497
105	43306	9	0.02497
105	48775	10	0.02497
105	55878	11	0.026794160102
105	61346	12	0.02497
105	66814	13	0.02497
105	72282	14	0.02497
105	77750	15	0.02497
105	83218	16	0.02497
105	88686	17	0.02497
105	94154	18	0.02497
105	99622	19	0.02497
105	105090	20	0.02497
105	110558	21	0.02497
105	116026	22	0.02497
105	121494	23	0.02497
105	126962	24	0.02497
105	132430	25	0.02497
105	137898	26	0.02497
105	143366	27	0.02497
105	148834	28	0.02497
105	154302	29	0.02497
105	159770	30	0.02497
105	165238	31	0.02497
105	170706	32	0.02497
105	176174	33	0.02497
105	181642	34	0.02497
105	187110	35	0.02497
105	192578	36	0.02497
105	198046	37	0.02497
105	203514	38	0.02497
105	208982	39	0.02497
105	214450	40	0.02497
105	219918	41	0.02497
105	225386	42	0.02497
105	230854	43	0.02497
105	236322	44	0.02497
105	241790	45	0.02497
105	247258	46	0.02497
105	252726	47	0.02497
105	258194	48	0.02497
105	263662	49	0.02497
105	269130	50	0.02497
105	274598	51	0.02497
105	280066	52	0.02497
105	285534	53	0.02497
105	291002	54	0.02497
105	296470	55	0.02497
105	301938	56	0.02497
105	307406	57	0.02497
105	312874	58	0.02497
105	318342	59	0.02497
105	323810	60	0.02497
105	329278	61	0.02497
105	334746	62	0.02497
105	340214	63	0.02497
105	345682	64	0.02497
105	351150	65	0.02497
105	356618	66	0.02497
105	362086	67	0.02497
105	367554	68	0.02497
105	373022	69	0.02497
105	378490	70	0.02497
105	383958	71	0.02497
105	389426	72	0.02497
105	394894	73	0.02497
105	400362	74	0.02497
105	405830	75	0.02497
105	411298	76	0.02497
105	416766	77	0.02497
105	422234	78	0.02497
105	427702	79	0.02497
105	433170	80	0.02497
105	438638	81	0.02497
105	444106	82	0.02497
105	449574	83	0.02497
105	455042	84	0.02497
105	460510	85	0.02497
105	465978	86	0.02497
105	471446	87	0.02497
105	476914	88	0.02497
105	482382	89	0.02497
105	487850	90	0.02497
105	493318	91	0.02497
105	498786	92	0.02497
105	504254	93	0.02497
105	509722	94	0.02497
105	515190	95	0.02497
105	520658	96	0.02497
105	526126	97	0.02497
105	531594	98	0.02497
105	537062	99	0.02497
105	542530	100	0.02497
106	5030	2	0
106	10498	3	0
106	15966	4	0
106	21434	5	0
106	26902	6	0
106	32370	7	0
106	37838	8	0
106	43306	9	0
106	48775	10	0
106	55878	11	0
106	61346	12	0
106	66814	13	0
106	72282	14	0
106	77750	15	0
106	83218	16	0
106	88686	17	0
106	94154	18	0
106	99622	19	0
106	105090	20	0
106	110558	21	0
106	116026	22	0
106	121494	23	0
106	126962	24	0
106	132430	25	0
106	137898	26	0
106	143366	27	0
106	148834	28	0
106	154302	29	0
106	159770	30	0
106	165238	31	0
106	170706	32	0
106	176174	33	0
106	181642	34	0
106	187110	35	0
106	192578	36	0
106	198046	37	0
106	203514	38	0
106	208982	39	0
106	214450	40	0
106	219918	41	0
106	225386	42	0
106	230854	43	0
106	236322	44	0
106	241790	45	0
106	247258	46	0
106	252726	47	0
106	258194	48	0
106	263662	49	0
106	269130	50	0
106	274598	51	0
106	280066	52	0
106	285534	53	0
106	291002	54	0
106	296470	55	0
106	301938	56	0
106	307406	57	0
106	312874	58	0
106	318342	59	0
106	323810	60	0
106	329278	61	0
106	334746	62	0
106	340214	63	0
106	345682	64	0
106	351150	65	0
106	356618	66	0
106	362086	67	0
106	367554	68	0
106	373022	69	0
106	378490	70	0
106	383958	71	0
106	389426	72	0
106	394894	73	0
106	400362	74	0
106	405830	75	0
106	411298	76	0
106	416766	77	0
106	422234	78	0
106	427702	79	0
106	433170	80	0
106	438638	81	0
106	444106	82	0
106	449574	83	0
106	455042	84	0
106	460510	85	0
106	465978	86	0
106	471446	87	0
106	476914	88	0
106	482382	89	0
106	487850	90	0
106	493318	91	0
106	498786	92	0
106	504254	93	0
106	509722	94	0
106	515190	95	0
106	520658	96	0
106	526126	97	0
106	531594	98	0
106	537062	99	0
106	542530	100	0
107	5031	2	5
107	10499	3	5
107	15967	4	5
107	21435	5	5
107	26903	6	5
107	32371	7	5
107	37839	8	5
107	43307	9	5
107	48776	10	5
107	55879	11	5
107	61347	12	5
107	66815	13	5
107	72283	14	5
107	77751	15	5
107	83219	16	5
107	88687	17	5
107	94155	18	5
107	99623	19	5
107	105091	20	5
107	110559	21	5
107	116027	22	5
107	121495	23	5
107	126963	24	5
107	132431	25	5
107	137899	26	5
107	143367	27	5
107	148835	28	5
107	154303	29	5
107	159771	30	5
107	165239	31	5
107	170707	32	5
107	176175	33	5
107	181643	34	5
107	187111	35	5
107	192579	36	5
107	198047	37	5
107	203515	38	5
107	208983	39	5
107	214451	40	5
107	219919	41	5
107	225387	42	5
107	230855	43	5
107	236323	44	5
107	241791	45	5
107	247259	46	5
107	252727	47	5
107	258195	48	5
107	263663	49	5
107	269131	50	5
107	274599	51	5
107	280067	52	5
107	285535	53	5
107	291003	54	5
107	296471	55	5
107	301939	56	5
107	307407	57	5
107	312875	58	5
107	318343	59	5
107	323811	60	5
107	329279	61	5
107	334747	62	5
107	340215	63	5
107	345683	64	5
107	351151	65	5
107	356619	66	5
107	362087	67	5
107	367555	68	5
107	373023	69	5
107	378491	70	5
107	383959	71	5
107	389427	72	5
107	394895	73	5
107	400363	74	5
107	405831	75	5
107	411299	76	5
107	416767	77	5
107	422235	78	5
107	427703	79	5
107	433171	80	5
107	438639	81	5
107	444107	82	5
107	449575	83	5
107	455043	84	5
107	460511	85	5
107	465979	86	5
107	471447	87	5
107	476915	88	5
107	482383	89	5
107	487851	90	5
107	493319	91	5
107	498787	92	5
107	504255	93	5
107	509723	94	5
107	515191	95	5
107	520659	96	5
107	526127	97	5
107	531595	98	5
107	537063	99	5
107	542531	100	5
108	5031	2	0.022473
108	10499	3	0.02497
108	15967	4	0.02497
108	21435	5	0.02497
108	26903	6	0.02497
108	32371	7	0.02497
108	37839	8	0.02497
108	43307	9	0.02497
108	48776	10	0.02497
108	55879	11	0.02679420013
108	61347	12	0.02497
108	66815	13	0.02497
108	72283	14	0.02497
108	77751	15	0.02497
108	83219	16	0.02497
108	88687	17	0.02497
108	94155	18	0.02497
108	99623	19	0.02497
108	105091	20	0.02497
108	110559	21	0.02497
108	116027	22	0.02497
108	121495	23	0.02497
108	126963	24	0.02497
108	132431	25	0.02497
108	137899	26	0.02497
108	143367	27	0.02497
108	148835	28	0.02497
108	154303	29	0.02497
108	159771	30	0.02497
108	165239	31	0.02497
108	170707	32	0.02497
108	176175	33	0.02497
108	181643	34	0.02497
108	187111	35	0.02497
108	192579	36	0.02497
108	198047	37	0.02497
108	203515	38	0.02497
108	208983	39	0.02497
108	214451	40	0.02497
108	219919	41	0.02497
108	225387	42	0.02497
108	230855	43	0.02497
108	236323	44	0.02497
108	241791	45	0.02497
108	247259	46	0.02497
108	252727	47	0.02497
108	258195	48	0.02497
108	263663	49	0.02497
108	269131	50	0.02497
108	274599	51	0.02497
108	280067	52	0.02497
108	285535	53	0.02497
108	291003	54	0.02497
108	296471	55	0.02497
108	301939	56	0.02497
108	307407	57	0.02497
108	312875	58	0.02497
108	318343	59	0.02497
108	323811	60	0.02497
108	329279	61	0.02497
108	334747	62	0.02497
108	340215	63	0.02497
108	345683	64	0.02497
108	351151	65	0.02497
108	356619	66	0.02497
108	362087	67	0.02497
108	367555	68	0.02497
108	373023	69	0.02497
108	378491	70	0.02497
108	383959	71	0.02497
108	389427	72	0.02497
108	394895	73	0.02497
108	400363	74	0.02497
108	405831	75	0.02497
108	411299	76	0.02497
108	416767	77	0.02497
108	422235	78	0.02497
108	427703	79	0.02497
108	433171	80	0.02497
108	438639	81	0.02497
108	444107	82	0.02497
108	449575	83	0.02497
108	455043	84	0.02497
108	460511	85	0.02497
108	465979	86	0.02497
108	471447	87	0.02497
108	476915	88	0.02497
108	482383	89	0.02497
108	487851	90	0.02497
108	493319	91	0.02497
108	498787	92	0.02497
108	504255	93	0.02497
108	509723	94	0.02497
108	515191	95	0.02497
108	520659	96	0.02497
108	526127	97	0.02497
108	531595	98	0.02497
108	537063	99	0.02497
108	542531	100	0.02497
109	5031	2	0
109	10499	3	0
109	15967	4	0
109	21435	5	0
109	26903	6	0
109	32371	7	0
109	37839	8	0
109	43307	9	0
109	48776	10	0
109	55879	11	0
109	61347	12	0
109	66815	13	0
109	72283	14	0
109	77751	15	0
109	83219	16	0
109	88687	17	0
109	94155	18	0
109	99623	19	0
109	105091	20	0
109	110559	21	0
109	116027	22	0
109	121495	23	0
109	126963	24	0
109	132431	25	0
109	137899	26	0
109	143367	27	0
109	148835	28	0
109	154303	29	0
109	159771	30	0
109	165239	31	0
109	170707	32	0
109	176175	33	0
109	181643	34	0
109	187111	35	0
109	192579	36	0
109	198047	37	0
109	203515	38	0
109	208983	39	0
109	214451	40	0
109	219919	41	0
109	225387	42	0
109	230855	43	0
109	236323	44	0
109	241791	45	0
109	247259	46	0
109	252727	47	0
109	258195	48	0
109	263663	49	0
109	269131	50	0
109	274599	51	0
109	280067	52	0
109	285535	53	0
109	291003	54	0
109	296471	55	0
109	301939	56	0
109	307407	57	0
109	312875	58	0
109	318343	59	0
109	323811	60	0
109	329279	61	0
109	334747	62	0
109	340215	63	0
109	345683	64	0
109	351151	65	0
109	356619	66	0
109	362087	67	0
109	367555	68	0
109	373023	69	0
109	378491	70	0
109	383959	71	0
109	389427	72	0
109	394895	73	0
109	400363	74	0
109	405831	75	0
109	411299	76	0
109	416767	77	0
109	422235	78	0
109	427703	79	0
109	433171	80	0
109	438639	81	0
109	444107	82	0
109	449575	83	0
109	455043	84	0
109	460511	85	0
109	465979	86	0
109	471447	87	0
109	476915	88	0
109	482383	89	0
109	487851	90	0
109	493319	91	0
109	498787	92	0
109	504255	93	0
109	509723	94	0
109	515191	95	0
109	520659	96	0
109	526127	97	0
109	531595	98	0
109	537063	99	0
109	542531	100	0
110	5032	2	6
110	10500	3	6
110	15968	4	6
110	21436	5	6
110	26904	6	6
110	32372	7	6
110	37840	8	6
110	43308	9	6
110	48777	10	6
110	55880	11	6
110	61348	12	6
110	66816	13	6
110	72284	14	6
110	77752	15	6
110	83220	16	6
110	88688	17	6
110	94156	18	6
110	99624	19	6
110	105092	20	6
110	110560	21	6
110	116028	22	6
110	121496	23	6
110	126964	24	6
110	132432	25	6
110	137900	26	6
110	143368	27	6
110	148836	28	6
110	154304	29	6
110	159772	30	6
110	165240	31	6
110	170708	32	6
110	176176	33	6
110	181644	34	6
110	187112	35	6
110	192580	36	6
110	198048	37	6
110	203516	38	6
110	208984	39	6
110	214452	40	6
110	219920	41	6
110	225388	42	6
110	230856	43	6
110	236324	44	6
110	241792	45	6
110	247260	46	6
110	252728	47	6
110	258196	48	6
110	263664	49	6
110	269132	50	6
110	274600	51	6
110	280068	52	6
110	285536	53	6
110	291004	54	6
110	296472	55	6
110	301940	56	6
110	307408	57	6
110	312876	58	6
110	318344	59	6
110	323812	60	6
110	329280	61	6
110	334748	62	6
110	340216	63	6
110	345684	64	6
110	351152	65	6
110	356620	66	6
110	362088	67	6
110	367556	68	6
110	373024	69	6
110	378492	70	6
110	383960	71	6
110	389428	72	6
110	394896	73	6
110	400364	74	6
110	405832	75	6
110	411300	76	6
110	416768	77	6
110	422236	78	6
110	427704	79	6
110	433172	80	6
110	438640	81	6
110	444108	82	6
110	449576	83	6
110	455044	84	6
110	460512	85	6
110	465980	86	6
110	471448	87	6
110	476916	88	6
110	482384	89	6
110	487852	90	6
110	493320	91	6
110	498788	92	6
110	504256	93	6
110	509724	94	6
110	515192	95	6
110	520660	96	6
110	526128	97	6
110	531596	98	6
110	537064	99	6
110	542532	100	6
111	5032	2	0.022473
111	10500	3	0.02497
111	15968	4	0.02497
111	21436	5	0.02497
111	26904	6	0.02497
111	32372	7	0.02497
111	37840	8	0.02497
111	43308	9	0.02497
111	48777	10	0.02497
111	55880	11	0.026794240156
111	61348	12	0.02497
111	66816	13	0.02497
111	72284	14	0.02497
111	77752	15	0.02497
111	83220	16	0.02497
111	88688	17	0.02497
111	94156	18	0.02497
111	99624	19	0.02497
111	105092	20	0.02497
111	110560	21	0.02497
111	116028	22	0.02497
111	121496	23	0.02497
111	126964	24	0.02497
111	132432	25	0.02497
111	137900	26	0.02497
111	143368	27	0.02497
111	148836	28	0.02497
111	154304	29	0.02497
111	159772	30	0.02497
111	165240	31	0.02497
111	170708	32	0.02497
111	176176	33	0.02497
111	181644	34	0.02497
111	187112	35	0.02497
111	192580	36	0.02497
111	198048	37	0.02497
111	203516	38	0.02497
111	208984	39	0.02497
111	214452	40	0.02497
111	219920	41	0.02497
111	225388	42	0.02497
111	230856	43	0.02497
111	236324	44	0.02497
111	241792	45	0.02497
111	247260	46	0.02497
111	252728	47	0.02497
111	258196	48	0.02497
111	263664	49	0.02497
111	269132	50	0.02497
111	274600	51	0.02497
111	280068	52	0.02497
111	285536	53	0.02497
111	291004	54	0.02497
111	296472	55	0.02497
111	301940	56	0.02497
111	307408	57	0.02497
111	312876	58	0.02497
111	318344	59	0.02497
111	323812	60	0.02497
111	329280	61	0.02497
111	334748	62	0.02497
111	340216	63	0.02497
111	345684	64	0.02497
111	351152	65	0.02497
111	356620	66	0.02497
111	362088	67	0.02497
111	367556	68	0.02497
111	373024	69	0.02497
111	378492	70	0.02497
111	383960	71	0.02497
111	389428	72	0.02497
111	394896	73	0.02497
111	400364	74	0.02497
111	405832	75	0.02497
111	411300	76	0.02497
111	416768	77	0.02497
111	422236	78	0.02497
111	427704	79	0.02497
111	433172	80	0.02497
111	438640	81	0.02497
111	444108	82	0.02497
111	449576	83	0.02497
111	455044	84	0.02497
111	460512	85	0.02497
111	465980	86	0.02497
111	471448	87	0.02497
111	476916	88	0.02497
111	482384	89	0.02497
111	487852	90	0.02497
111	493320	91	0.02497
111	498788	92	0.02497
111	504256	93	0.02497
111	509724	94	0.02497
111	515192	95	0.02497
111	520660	96	0.02497
111	526128	97	0.02497
111	531596	98	0.02497
111	537064	99	0.02497
111	542532	100	0.02497
112	5032	2	0
112	10500	3	0
112	15968	4	0
112	21436	5	0
112	26904	6	0
112	32372	7	0
112	37840	8	0
112	43308	9	0
112	48777	10	0
112	55880	11	0
112	61348	12	0
112	66816	13	0
112	72284	14	0
112	77752	15	0
112	83220	16	0
112	88688	17	0
112	94156	18	0
112	99624	19	0
112	105092	20	0
112	110560	21	0
112	116028	22	0
112	121496	23	0
112	126964	24	0
112	132432	25	0
112	137900	26	0
112	143368	27	0
112	148836	28	0
112	154304	29	0
112	159772	30	0
112	165240	31	0
112	170708	32	0
112	176176	33	0
112	181644	34	0
112	187112	35	0
112	192580	36	0
112	198048	37	0
112	203516	38	0
112	208984	39	0
112	214452	40	0
112	219920	41	0
112	225388	42	0
112	230856	43	0
112	236324	44	0
112	241792	45	0
112	247260	46	0
112	252728	47	0
112	258196	48	0
112	263664	49	0
112	269132	50	0
112	274600	51	0
112	280068	52	0
112	285536	53	0
112	291004	54	0
112	296472	55	0
112	301940	56	0
112	307408	57	0
112	312876	58	0
112	318344	59	0
112	323812	60	0
112	329280	61	0
112	334748	62	0
112	340216	63	0
112	345684	64	0
112	351152	65	0
112	356620	66	0
112	362088	67	0
112	367556	68	0
112	373024	69	0
112	378492	70	0
112	383960	71	0
112	389428	72	0
112	394896	73	0
112	400364	74	0
112	405832	75	0
112	411300	76	0
112	416768	77	0
112	422236	78	0
112	427704	79	0
112	433172	80	0
112	438640	81	0
112	444108	82	0
112	449576	83	0
112	455044	84	0
112	460512	85	0
112	465980	86	0
112	471448	87	0
112	476916	88	0
112	482384	89	0
112	487852	90	0
112	493320	91	0
112	498788	92	0
112	504256	93	0
112	509724	94	0
112	515192	95	0
112	520660	96	0
112	526128	97	0
112	531596	98	0
112	537064	99	0
112	542532	100	0
113	5033	2	7
113	10501	3	7
113	15969	4	7
113	21437	5	7
113	26905	6	7
113	32373	7	7
113	37841	8	7
113	43309	9	7
113	48778	10	7
113	55881	11	7
113	61349	12	7
113	66817	13	7
113	72285	14	7
113	77753	15	7
113	83221	16	7
113	88689	17	7
113	94157	18	7
113	99625	19	7
113	105093	20	7
113	110561	21	7
113	116029	22	7
113	121497	23	7
113	126965	24	7
113	132433	25	7
113	137901	26	7
113	143369	27	7
113	148837	28	7
113	154305	29	7
113	159773	30	7
113	165241	31	7
113	170709	32	7
113	176177	33	7
113	181645	34	7
113	187113	35	7
113	192581	36	7
113	198049	37	7
113	203517	38	7
113	208985	39	7
113	214453	40	7
113	219921	41	7
113	225389	42	7
113	230857	43	7
113	236325	44	7
113	241793	45	7
113	247261	46	7
113	252729	47	7
113	258197	48	7
113	263665	49	7
113	269133	50	7
113	274601	51	7
113	280069	52	7
113	285537	53	7
113	291005	54	7
113	296473	55	7
113	301941	56	7
113	307409	57	7
113	312877	58	7
113	318345	59	7
113	323813	60	7
113	329281	61	7
113	334749	62	7
113	340217	63	7
113	345685	64	7
113	351153	65	7
113	356621	66	7
113	362089	67	7
113	367557	68	7
113	373025	69	7
113	378493	70	7
113	383961	71	7
113	389429	72	7
113	394897	73	7
113	400365	74	7
113	405833	75	7
113	411301	76	7
113	416769	77	7
113	422237	78	7
113	427705	79	7
113	433173	80	7
113	438641	81	7
113	444109	82	7
113	449577	83	7
113	455045	84	7
113	460513	85	7
113	465981	86	7
113	471449	87	7
113	476917	88	7
113	482385	89	7
113	487853	90	7
113	493321	91	7
113	498789	92	7
113	504257	93	7
113	509725	94	7
113	515193	95	7
113	520661	96	7
113	526129	97	7
113	531597	98	7
113	537065	99	7
113	542533	100	7
114	5033	2	0.022473
114	10501	3	0.02497
114	15969	4	0.02497
114	21437	5	0.02497
114	26905	6	0.02497
114	32373	7	0.02497
114	37841	8	0.02497
114	43309	9	0.02497
114	48778	10	0.02497
114	55881	11	0.026794280182
114	61349	12	0.02497
114	66817	13	0.02497
114	72285	14	0.02497
114	77753	15	0.02497
114	83221	16	0.02497
114	88689	17	0.02497
114	94157	18	0.02497
114	99625	19	0.02497
114	105093	20	0.02497
114	110561	21	0.02497
114	116029	22	0.02497
114	121497	23	0.02497
114	126965	24	0.02497
114	132433	25	0.02497
114	137901	26	0.02497
114	143369	27	0.02497
114	148837	28	0.02497
114	154305	29	0.02497
114	159773	30	0.02497
114	165241	31	0.02497
114	170709	32	0.02497
114	176177	33	0.02497
114	181645	34	0.02497
114	187113	35	0.02497
114	192581	36	0.02497
114	198049	37	0.02497
114	203517	38	0.02497
114	208985	39	0.02497
114	214453	40	0.02497
114	219921	41	0.02497
114	225389	42	0.02497
114	230857	43	0.02497
114	236325	44	0.02497
114	241793	45	0.02497
114	247261	46	0.02497
114	252729	47	0.02497
114	258197	48	0.02497
114	263665	49	0.02497
114	269133	50	0.02497
114	274601	51	0.02497
114	280069	52	0.02497
114	285537	53	0.02497
114	291005	54	0.02497
114	296473	55	0.02497
114	301941	56	0.02497
114	307409	57	0.02497
114	312877	58	0.02497
114	318345	59	0.02497
114	323813	60	0.02497
114	329281	61	0.02497
114	334749	62	0.02497
114	340217	63	0.02497
114	345685	64	0.02497
114	351153	65	0.02497
114	356621	66	0.02497
114	362089	67	0.02497
114	367557	68	0.02497
114	373025	69	0.02497
114	378493	70	0.02497
114	383961	71	0.02497
114	389429	72	0.02497
114	394897	73	0.02497
114	400365	74	0.02497
114	405833	75	0.02497
114	411301	76	0.02497
114	416769	77	0.02497
114	422237	78	0.02497
114	427705	79	0.02497
114	433173	80	0.02497
114	438641	81	0.02497
114	444109	82	0.02497
114	449577	83	0.02497
114	455045	84	0.02497
114	460513	85	0.02497
114	465981	86	0.02497
114	471449	87	0.02497
114	476917	88	0.02497
114	482385	89	0.02497
114	487853	90	0.02497
114	493321	91	0.02497
114	498789	92	0.02497
114	504257	93	0.02497
114	509725	94	0.02497
114	515193	95	0.02497
114	520661	96	0.02497
114	526129	97	0.02497
114	531597	98	0.02497
114	537065	99	0.02497
114	542533	100	0.02497
115	5033	2	0
115	10501	3	0
115	15969	4	0
115	21437	5	0
115	26905	6	0
115	32373	7	0
115	37841	8	0
115	43309	9	0
115	48778	10	0
115	55881	11	0
115	61349	12	0
115	66817	13	0
115	72285	14	0
115	77753	15	0
115	83221	16	0
115	88689	17	0
115	94157	18	0
115	99625	19	0
115	105093	20	0
115	110561	21	0
115	116029	22	0
115	121497	23	0
115	126965	24	0
115	132433	25	0
115	137901	26	0
115	143369	27	0
115	148837	28	0
115	154305	29	0
115	159773	30	0
115	165241	31	0
115	170709	32	0
115	176177	33	0
115	181645	34	0
115	187113	35	0
115	192581	36	0
115	198049	37	0
115	203517	38	0
115	208985	39	0
115	214453	40	0
115	219921	41	0
115	225389	42	0
115	230857	43	0
115	236325	44	0
115	241793	45	0
115	247261	46	0
115	252729	47	0
115	258197	48	0
115	263665	49	0
115	269133	50	0
115	274601	51	0
115	280069	52	0
115	285537	53	0
115	291005	54	0
115	296473	55	0
115	301941	56	0
115	307409	57	0
115	312877	58	0
115	318345	59	0
115	323813	60	0
115	329281	61	0
115	334749	62	0
115	340217	63	0
115	345685	64	0
115	351153	65	0
115	356621	66	0
115	362089	67	0
115	367557	68	0
115	373025	69	0
115	378493	70	0
115	383961	71	0
115	389429	72	0
115	394897	73	0
115	400365	74	0
115	405833	75	0
115	411301	76	0
115	416769	77	0
115	422237	78	0
115	427705	79	0
115	433173	80	0
115	438641	81	0
115	444109	82	0
115	449577	83	0
115	455045	84	0
115	460513	85	0
115	465981	86	0
115	471449	87	0
115	476917	88	0
115	482385	89	0
115	487853	90	0
115	493321	91	0
115	498789	92	0
115	504257	93	0
115	509725	94	0
115	515193	95	0
115	520661	96	0
115	526129	97	0
115	531597	98	0
115	537065	99	0
115	542533	100	0

