version 3
run BreakRanksNoGui-2033-20240710-16:52:12-266837
attr configname BreakRanksNoGui
attr datetime 20240710-16:52:12
attr datetimef 20240710-165212
attr experiment BreakRanksNoGui
attr inifile omnetpp.ini
attr iterationvars "$nCars=12, $platoonSize=12, $nLanes=1, $ploegH=0.5, $controller=1, $headway=0.1, $leaderHeadway=1.2, $leaderSpeed=110, $breakRanksSafetyDistance=10, $minSpeed=100, $maxSpeed=120, $beaconInterval=0.1, $priority=4, $packetSize=200, $sController=\"CACC\", $0=2, $1=0"
attr iterationvarsd nCars=12/platoonSize=12/nLanes=1/ploegH=0.5/controller=1/headway=0.1/leaderHeadway=1.2/leaderSpeed=110/breakRanksSafetyDistance=10/minSpeed=100/maxSpeed=120/beaconInterval=0.1/priority=4/packetSize=200/sController=CACC/2/0
attr iterationvarsf nCars=12,platoonSize=12,nLanes=1,ploegH=0.5,controller=1,headway=0.1,leaderHeadway=1.2,leaderSpeed=110,breakRanksSafetyDistance=10,minSpeed=100,maxSpeed=120,beaconInterval=0.1,priority=4,packetSize=200,sController=CACC,2,0-
attr measurement "$nCars=12, $platoonSize=12, $nLanes=1, $ploegH=0.5, $controller=1, $headway=0.1, $leaderHeadway=1.2, $leaderSpeed=110, $breakRanksSafetyDistance=10, $minSpeed=100, $maxSpeed=120, $beaconInterval=0.1, $priority=4, $packetSize=200, $sController=\"CACC\", $0=2, $1=0"
attr network Highway
attr processid 266837
attr repetition 3
attr replication #3
attr resultdir results
attr runnumber 2033
attr seedset 3
itervar beaconInterval 0.1
itervar breakRanksSafetyDistance 10
itervar controller 1
itervar headway 0.1
itervar leaderHeadway 1.2
itervar leaderSpeed 110
itervar maxSpeed 120
itervar minSpeed 100
itervar nCars 12
itervar nLanes 1
itervar packetSize 200
itervar platoonSize 12
itervar ploegH 0.5
itervar priority 4
itervar sController "\"CACC\""
config image-path ../../../veins/images
config repeat 10
config extends BreakRanks
config *.manager.command "\"sumo\""
config *.manager.ignoreGuiCommands true
config output-vector-file "results/BreakRanks_1_0.1_110_10_12 /result_3.vec"
config output-scalar-file "results/BreakRanks_1_0.1_110_10_12 /result_3.sca"
config extends Platooning
config *.node[*].scenario_type "\"BreakRanksScenario\""
config *.manager.command "\"sumo-gui\""
config *.node[*].scenario_type "\"SimpleScenario\""
config cmdenv-express-mode true
config cmdenv-autoflush true
config cmdenv-status-frequency 15s
config num-rngs 6
config network Highway
config debug-on-errors true
config print-undisposed true
config *.playgroundSizeX 65000m
config *.playgroundSizeY 25000m
config *.playgroundSizeZ 50m
config sim-time-limit "100 s"
config *.annotations.draw false
config *.obstacles.debug false
config *.world.useTorus false
config *.world.use2D false
config *.manager.updateInterval 0.01s
config *.manager.host "\"localhost\""
config *.manager.moduleType "\"org.car2x.plexe.PlatoonCar\""
config *.manager.moduleName "\"node\""
config *.manager.moduleDisplayString "\"\""
config *.manager.autoShutdown true
config *.manager.margin 25
config *.connectionManager.sendDirect true
config *.connectionManager.maxInterfDist 2600m
config *.connectionManager.drawMaxIntfDist false
config *.**.nic.mac1609_4.useServiceChannel false
config *.**.nic.mac1609_4.txPower 100mW
config *.**.nic.mac1609_4.bitrate 6Mbps
config *.**.nic.mac1609_4.useAcks true
config *.**.nic.mac1609_4.ackErrorRate 0.0
config *.**.nic.mac1609_4.frameErrorRate 0.0
config *.**.nic.phy80211p.minPowerLevel -94dBm
config *.**.nic.phy80211p.maxTXPower 100mW
config *.**.nic.phy80211p.useNoiseFloor true
config *.**.nic.phy80211p.noiseFloor -95dBm
config *.**.nic.phy80211p.decider "xmldoc(\"config.xml\")"
config *.**.nic.phy80211p.analogueModels "xmldoc(\"config.xml\")"
config *.**.nic.phy80211p.usePropagationDelay true
config *.node[*].mobility.x 0
config *.node[*].mobility.y 0
config *.node[*].mobility.z 1.895
config seed-set 3
config **.seed 3
config *.node[*].prot.rng-0 2
config *.node[*].appl.rng-0 3
config *.node[*].scenario.rng-0 4
config **.traffic.rng-0 5
config *.manager.configFile "\"./sumocfg/freeway.sumo.cfg\""
config *.manager.launchConfig "xmldoc(\"./sumocfg/freeway.launchd.xml\")"
config **.numberOfCars 12
config **.numberOfCarsPerPlatoon 12
config **.numberOfLanes 1
config *.node[*].helper_type "\"PositionHelper\""
config *.node[*].scenario.caccC1 0.5
config *.node[*].scenario.caccXi 1
config *.node[*].scenario.caccOmegaN "0.2 Hz"
config *.node[*].scenario.caccSpacing "2 m"
config *.node[*].scenario.engineTau "0.5 s"
config *.node[*].scenario.ploegH 0.5s
config *.node[*].scenario.ploegKp 0.2
config *.node[*].scenario.ploegKd 0.7
config *.node[*].scenario.useRealisticEngine false
config *.node[*].scenario.useControllerAcceleration true
config *.node[*].scenario.nLanes 1
config **.numericController 1
config **.headway 0.1s
config *.node[*].scenario.accHeadway 0.1s
config *.node[*].scenario.leaderHeadway 1.2s
config *.node[*].scenario.leaderSpeed 110kmph
config *.node[*].appl_type "\"SimplePlatooningApp\""
config *.node[*].appl.*.scalar-recording true
config *.node[*].appl.*.vector-recording true
config *.node[0].appl.breakRanksSafetyDistance 10m
config *.node[*].appl.minSpeed 100kmph
config *.node[*].appl.maxSpeed 120kmph
config *.node[*].protocol_type "\"SimplePlatooningBeaconing\""
config *.node[*].prot.*.scalar-recording true
config *.node[*].prot.*.vector-recording true
config *.node[*].prot.beaconingInterval 0.1s
config *.node[*].prot.priority 4
config *.node[*].prot.packetSize 200
config **.traffic_type "\"PlatoonsTrafficManager\""
config **.traffic.platoonInsertTime "1 s"
config **.traffic.platoonInsertSpeed 110kmph
config **.traffic.nCars 12
config **.traffic.platoonSize 12
config **.traffic.nLanes 1
config **.traffic.platooningVType "\"vtypeauto\""
config **.traffic.controller "\"CACC\""
config **.traffic.platoonInsertDistance 2m
config **.traffic.platoonInsertHeadway 0s
config **.traffic.platoonLeaderHeadway 1.2s
config **.scalar-recording false
config **.vector-recording false

vector 0 Highway.node[0].appl distance ETV
vector 1 Highway.node[0].appl relativeSpeed ETV
vector 2 Highway.node[0].appl nodeId ETV
vector 3 Highway.node[0].appl acceleration ETV
vector 4 Highway.node[0].appl controllerAcceleration ETV
vector 5 Highway.node[0].appl speed ETV
vector 6 Highway.node[0].appl posx ETV
vector 7 Highway.node[0].appl posy ETV
vector 8 Highway.node[1].appl distance ETV
vector 9 Highway.node[1].appl relativeSpeed ETV
vector 10 Highway.node[1].appl nodeId ETV
vector 11 Highway.node[1].appl acceleration ETV
vector 12 Highway.node[1].appl controllerAcceleration ETV
vector 13 Highway.node[1].appl speed ETV
vector 14 Highway.node[1].appl posx ETV
vector 15 Highway.node[1].appl posy ETV
vector 16 Highway.node[2].appl distance ETV
vector 17 Highway.node[2].appl relativeSpeed ETV
vector 18 Highway.node[2].appl nodeId ETV
vector 19 Highway.node[2].appl acceleration ETV
vector 20 Highway.node[2].appl controllerAcceleration ETV
vector 21 Highway.node[2].appl speed ETV
vector 22 Highway.node[2].appl posx ETV
vector 23 Highway.node[2].appl posy ETV
vector 24 Highway.node[3].appl distance ETV
vector 25 Highway.node[3].appl relativeSpeed ETV
vector 26 Highway.node[3].appl nodeId ETV
vector 27 Highway.node[3].appl acceleration ETV
vector 28 Highway.node[3].appl controllerAcceleration ETV
vector 29 Highway.node[3].appl speed ETV
vector 30 Highway.node[3].appl posx ETV
vector 31 Highway.node[3].appl posy ETV
vector 32 Highway.node[4].appl distance ETV
vector 33 Highway.node[4].appl relativeSpeed ETV
vector 34 Highway.node[4].appl nodeId ETV
vector 35 Highway.node[4].appl acceleration ETV
vector 36 Highway.node[4].appl controllerAcceleration ETV
vector 37 Highway.node[4].appl speed ETV
vector 38 Highway.node[4].appl posx ETV
vector 39 Highway.node[4].appl posy ETV
vector 40 Highway.node[5].appl distance ETV
vector 41 Highway.node[5].appl relativeSpeed ETV
vector 42 Highway.node[5].appl nodeId ETV
vector 43 Highway.node[5].appl acceleration ETV
vector 44 Highway.node[5].appl controllerAcceleration ETV
vector 45 Highway.node[5].appl speed ETV
vector 46 Highway.node[5].appl posx ETV
vector 47 Highway.node[5].appl posy ETV
vector 48 Highway.node[6].appl distance ETV
vector 49 Highway.node[6].appl relativeSpeed ETV
vector 50 Highway.node[6].appl nodeId ETV
vector 51 Highway.node[6].appl acceleration ETV
vector 52 Highway.node[6].appl controllerAcceleration ETV
vector 53 Highway.node[6].appl speed ETV
vector 54 Highway.node[6].appl posx ETV
vector 55 Highway.node[6].appl posy ETV
vector 56 Highway.node[7].appl distance ETV
vector 57 Highway.node[7].appl relativeSpeed ETV
vector 58 Highway.node[7].appl nodeId ETV
vector 59 Highway.node[7].appl acceleration ETV
vector 60 Highway.node[7].appl controllerAcceleration ETV
vector 61 Highway.node[7].appl speed ETV
vector 62 Highway.node[7].appl posx ETV
vector 63 Highway.node[7].appl posy ETV
vector 64 Highway.node[8].appl distance ETV
vector 65 Highway.node[8].appl relativeSpeed ETV
vector 66 Highway.node[8].appl nodeId ETV
vector 67 Highway.node[8].appl acceleration ETV
vector 68 Highway.node[8].appl controllerAcceleration ETV
vector 69 Highway.node[8].appl speed ETV
vector 70 Highway.node[8].appl posx ETV
vector 71 Highway.node[8].appl posy ETV
vector 72 Highway.node[9].appl distance ETV
vector 73 Highway.node[9].appl relativeSpeed ETV
vector 74 Highway.node[9].appl nodeId ETV
vector 75 Highway.node[9].appl acceleration ETV
vector 76 Highway.node[9].appl controllerAcceleration ETV
vector 77 Highway.node[9].appl speed ETV
vector 78 Highway.node[9].appl posx ETV
vector 79 Highway.node[9].appl posy ETV
vector 80 Highway.node[10].appl distance ETV
vector 81 Highway.node[10].appl relativeSpeed ETV
vector 82 Highway.node[10].appl nodeId ETV
vector 83 Highway.node[10].appl acceleration ETV
vector 84 Highway.node[10].appl controllerAcceleration ETV
vector 85 Highway.node[10].appl speed ETV
vector 86 Highway.node[10].appl posx ETV
vector 87 Highway.node[10].appl posy ETV
vector 88 Highway.node[11].appl distance ETV
vector 89 Highway.node[11].appl relativeSpeed ETV
vector 90 Highway.node[11].appl nodeId ETV
vector 91 Highway.node[11].appl acceleration ETV
vector 92 Highway.node[11].appl controllerAcceleration ETV
vector 93 Highway.node[11].appl speed ETV
vector 94 Highway.node[11].appl posx ETV
vector 95 Highway.node[11].appl posy ETV
vector 96 Highway.node[9].prot frontDelay ETV
vector 97 Highway.node[9].prot frontDelayId ETV
vector 98 Highway.node[1].prot leaderDelay ETV
vector 99 Highway.node[1].prot leaderDelayId ETV
vector 100 Highway.node[1].prot frontDelay ETV
vector 101 Highway.node[1].prot frontDelayId ETV
vector 102 Highway.node[4].prot leaderDelay ETV
vector 103 Highway.node[4].prot leaderDelayId ETV
vector 104 Highway.node[5].prot leaderDelay ETV
vector 105 Highway.node[5].prot leaderDelayId ETV
vector 106 Highway.node[6].prot leaderDelay ETV
vector 107 Highway.node[6].prot leaderDelayId ETV
vector 108 Highway.node[7].prot leaderDelay ETV
vector 109 Highway.node[7].prot leaderDelayId ETV
vector 110 Highway.node[8].prot leaderDelay ETV
vector 111 Highway.node[8].prot leaderDelayId ETV
vector 112 Highway.node[9].prot leaderDelay ETV
vector 113 Highway.node[9].prot leaderDelayId ETV
vector 114 Highway.node[10].prot leaderDelay ETV
vector 115 Highway.node[10].prot leaderDelayId ETV
vector 116 Highway.node[11].prot leaderDelay ETV
vector 117 Highway.node[11].prot leaderDelayId ETV
vector 118 Highway.node[2].prot leaderDelay ETV
vector 119 Highway.node[2].prot leaderDelayId ETV
vector 120 Highway.node[3].prot leaderDelay ETV
vector 121 Highway.node[3].prot leaderDelayId ETV
vector 122 Highway.node[8].prot frontDelay ETV
vector 123 Highway.node[8].prot frontDelayId ETV
vector 124 Highway.node[10].prot frontDelay ETV
vector 125 Highway.node[10].prot frontDelayId ETV
vector 126 Highway.node[11].prot frontDelay ETV
vector 127 Highway.node[11].prot frontDelayId ETV
vector 128 Highway.node[7].prot frontDelay ETV
vector 129 Highway.node[7].prot frontDelayId ETV
vector 130 Highway.node[4].prot frontDelay ETV
vector 131 Highway.node[4].prot frontDelayId ETV
vector 132 Highway.node[5].prot frontDelay ETV
vector 133 Highway.node[5].prot frontDelayId ETV
vector 134 Highway.node[3].prot frontDelay ETV
vector 135 Highway.node[3].prot frontDelayId ETV
vector 136 Highway.node[2].prot frontDelay ETV
vector 137 Highway.node[2].prot frontDelayId ETV
vector 138 Highway.node[6].prot frontDelay ETV
vector 139 Highway.node[6].prot frontDelayId ETV
vector 140 Highway.node[0].prot nodeId ETV
vector 141 Highway.node[0].prot busyTime ETV
vector 142 Highway.node[0].prot collisions ETV
vector 143 Highway.node[1].prot nodeId ETV
vector 144 Highway.node[1].prot busyTime ETV
vector 145 Highway.node[1].prot collisions ETV
vector 146 Highway.node[2].prot nodeId ETV
vector 147 Highway.node[2].prot busyTime ETV
vector 148 Highway.node[2].prot collisions ETV
vector 149 Highway.node[3].prot nodeId ETV
vector 150 Highway.node[3].prot busyTime ETV
vector 151 Highway.node[3].prot collisions ETV
vector 152 Highway.node[4].prot nodeId ETV
vector 153 Highway.node[4].prot busyTime ETV
vector 154 Highway.node[4].prot collisions ETV
vector 155 Highway.node[5].prot nodeId ETV
vector 156 Highway.node[5].prot busyTime ETV
vector 157 Highway.node[5].prot collisions ETV
vector 158 Highway.node[6].prot nodeId ETV
vector 159 Highway.node[6].prot busyTime ETV
vector 160 Highway.node[6].prot collisions ETV
vector 161 Highway.node[7].prot nodeId ETV
vector 162 Highway.node[7].prot busyTime ETV
vector 163 Highway.node[7].prot collisions ETV
vector 164 Highway.node[8].prot nodeId ETV
vector 165 Highway.node[8].prot busyTime ETV
vector 166 Highway.node[8].prot collisions ETV
vector 167 Highway.node[9].prot nodeId ETV
vector 168 Highway.node[9].prot busyTime ETV
vector 169 Highway.node[9].prot collisions ETV
vector 170 Highway.node[10].prot nodeId ETV
vector 171 Highway.node[10].prot busyTime ETV
vector 172 Highway.node[10].prot collisions ETV
vector 173 Highway.node[11].prot nodeId ETV
vector 174 Highway.node[11].prot busyTime ETV
vector 175 Highway.node[11].prot collisions ETV
0	113	1.11	-1
0	1311	1.21	-1
0	2509	1.31	-1
0	3707	1.41	-1
0	4905	1.51	-1
0	6103	1.61	-1
0	7301	1.71	-1
0	8499	1.81	-1
0	9697	1.91	-1
0	10907	2.01	-1
0	12045	2.11	-1
0	13243	2.21	-1
0	14441	2.31	-1
0	15579	2.41	-1
0	16777	2.51	-1
0	17975	2.61	-1
0	19173	2.71	-1
0	20371	2.81	-1
0	21569	2.91	-1
0	22779	3.01	-1
0	23917	3.11	-1
0	25115	3.21	-1
0	26313	3.31	-1
0	27511	3.41	-1
0	28709	3.51	-1
0	29907	3.61	-1
0	31045	3.71	-1
0	32243	3.81	-1
0	33441	3.91	-1
0	34651	4.01	-1
0	35789	4.11	-1
0	36927	4.21	-1
0	38125	4.31	-1
0	39263	4.41	-1
0	40461	4.51	-1
0	41659	4.61	-1
0	42857	4.71	-1
0	44055	4.81	-1
0	45253	4.91	-1
0	46463	5.01	-1
0	47604	5.11	-1
0	48802	5.21	-1
0	50000	5.31	-1
0	51198	5.41	-1
0	52396	5.51	-1
0	53594	5.61	-1
0	54735	5.71	-1
0	55933	5.81	-1
0	57131	5.91	-1
0	58281	6.01	-1
0	59479	6.11	-1
0	60677	6.21	-1
0	61875	6.31	-1
0	63073	6.41	-1
0	64271	6.51	-1
0	65469	6.61	-1
0	66667	6.71	-1
0	67865	6.81	-1
0	69063	6.91	-1
0	70216	7.01	-1
0	71414	7.11	-1
0	72612	7.21	-1
0	73753	7.31	-1
0	74894	7.41	-1
0	76092	7.51	-1
0	77290	7.61	-1
0	78488	7.71	-1
0	79686	7.81	-1
0	80827	7.91	-1
0	82037	8.01	-1
0	83235	8.11	-1
0	84433	8.21	-1
0	85631	8.31	-1
0	86829	8.41	-1
0	88027	8.51	-1
0	89225	8.61	-1
0	90423	8.71	-1
0	91621	8.81	-1
0	92762	8.91	-1
0	93972	9.01	-1
0	95170	9.11	-1
0	96368	9.21	-1
0	97509	9.31	-1
0	98707	9.41	-1
0	99905	9.51	-1
0	101103	9.61	-1
0	102301	9.71	-1
0	103499	9.81	-1
0	104697	9.91	-1
0	106017	10.01	-1
0	107226	10.11	-1
0	108435	10.21	-1
0	109644	10.31	-1
0	110793	10.41	-1
0	112002	10.51	-1
0	113211	10.61	-1
0	114420	10.71	-1
0	115629	10.81	-1
0	116838	10.91	-1
0	118059	11.01	-1
0	119268	11.11	-1
0	120477	11.21	-1
0	121686	11.31	-1
0	122835	11.41	-1
0	124044	11.51	-1
0	125253	11.61	-1
0	126462	11.71	-1
0	127671	11.81	-1
0	128820	11.91	-1
0	130041	12.01	-1
0	131250	12.11	-1
0	132459	12.21	-1
0	133668	12.31	-1
0	134877	12.41	-1
0	136086	12.51	-1
0	137295	12.61	-1
0	138504	12.71	-1
0	139713	12.81	-1
0	140922	12.91	-1
0	142143	13.01	-1
0	143352	13.11	-1
0	144561	13.21	-1
0	145770	13.31	-1
0	146979	13.41	-1
0	148188	13.51	-1
0	149397	13.61	-1
0	150606	13.71	-1
0	151815	13.81	-1
0	153024	13.91	-1
0	154245	14.01	-1
0	155454	14.11	-1
0	156663	14.21	-1
0	157872	14.31	-1
0	159081	14.41	-1
0	160290	14.51	-1
0	161499	14.61	-1
0	162708	14.71	-1
0	163917	14.81	-1
0	165126	14.91	-1
0	166347	15.01	-1
0	167496	15.11	-1
0	168705	15.21	-1
0	169914	15.31	-1
0	171123	15.41	-1
0	172332	15.51	-1
0	173481	15.61	-1
0	174690	15.71	-1
0	175899	15.81	-1
0	177108	15.91	-1
0	178329	16.01	-1
0	179538	16.11	-1
0	180747	16.21	-1
0	181956	16.31	-1
0	183165	16.41	-1
0	184374	16.51	-1
0	185523	16.61	-1
0	186732	16.71	-1
0	187941	16.81	-1
0	189150	16.91	-1
0	190371	17.01	-1
0	191580	17.11	-1
0	192729	17.21	-1
0	193938	17.31	-1
0	195087	17.41	-1
0	196296	17.51	-1
0	197505	17.61	-1
0	198714	17.71	-1
0	199923	17.81	-1
0	201132	17.91	-1
0	202353	18.01	-1
0	203562	18.11	-1
0	204771	18.21	-1
0	205980	18.31	-1
0	207189	18.41	-1
0	208398	18.51	-1
0	209607	18.61	-1
0	210816	18.71	-1
0	212025	18.81	-1
0	213234	18.91	-1
0	214455	19.01	-1
0	215664	19.11	-1
0	216873	19.21	-1
0	218082	19.31	-1
0	219231	19.41	-1
0	220440	19.51	-1
0	221649	19.61	-1
0	222858	19.71	-1
0	224007	19.81	-1
0	225216	19.91	-1
0	226437	20.01	-1
0	227586	20.11	-1
0	228795	20.21	-1
0	230004	20.31	-1
0	231213	20.41	-1
0	232362	20.51	-1
0	233571	20.61	-1
0	234720	20.71	-1
0	235929	20.81	-1
0	237138	20.91	-1
0	238359	21.01	-1
0	239568	21.11	-1
0	240777	21.21	-1
0	241926	21.31	-1
0	243135	21.41	-1
0	244344	21.51	-1
0	245553	21.61	-1
0	246762	21.71	-1
0	247971	21.81	-1
0	249180	21.91	-1
0	250401	22.01	-1
0	251610	22.11	-1
0	252819	22.21	-1
0	254028	22.31	-1
0	255237	22.41	-1
0	256386	22.51	-1
0	257595	22.61	-1
0	258804	22.71	-1
0	260013	22.81	-1
0	261222	22.91	-1
0	262443	23.01	-1
0	263652	23.11	-1
0	264861	23.21	-1
0	266013	23.31	-1
0	267222	23.41	-1
0	268431	23.51	-1
0	269640	23.61	-1
0	270849	23.71	-1
0	272058	23.81	-1
0	273267	23.91	-1
0	274488	24.01	-1
0	275697	24.11	-1
0	276906	24.21	-1
0	278115	24.31	-1
0	279324	24.41	-1
0	280533	24.51	-1
0	281742	24.61	-1
0	282951	24.71	-1
0	284160	24.81	-1
0	285369	24.91	-1
0	286590	25.01	-1
0	287799	25.11	-1
0	289008	25.21	-1
0	290217	25.31	-1
0	291426	25.41	-1
0	292635	25.51	-1
0	293844	25.61	-1
0	295053	25.71	-1
0	296262	25.81	-1
0	297471	25.91	-1
0	298692	26.01	-1
0	299901	26.11	-1
0	301110	26.21	-1
0	302319	26.31	-1
0	303528	26.41	-1
0	304737	26.51	-1
0	305946	26.61	-1
0	307098	26.71	-1
0	308307	26.81	-1
0	309516	26.91	-1
0	310737	27.01	-1
0	311946	27.11	-1
0	313098	27.21	-1
0	314307	27.31	-1
0	315516	27.41	-1
0	316668	27.51	-1
0	317877	27.61	-1
0	319086	27.71	-1
0	320295	27.81	-1
0	321504	27.91	-1
0	322668	28.01	-1
0	323877	28.11	-1
0	325086	28.21	-1
0	326295	28.31	-1
0	327504	28.41	-1
0	328713	28.51	-1
0	329922	28.61	-1
0	331131	28.71	-1
0	332340	28.81	-1
0	333549	28.91	-1
0	334770	29.01	-1
0	335979	29.11	-1
0	337188	29.21	-1
0	338397	29.31	-1
0	339606	29.41	-1
0	340815	29.51	-1
0	342024	29.61	-1
0	343233	29.71	-1
0	344442	29.81	-1
0	345651	29.91	-1
0	346815	30.01	-1
0	348024	30.11	-1
0	349176	30.21	-1
0	350385	30.31	-1
0	351594	30.41	-1
0	352803	30.51	-1
0	354012	30.61	-1
0	355221	30.71	-1
0	356430	30.81	-1
0	357639	30.91	-1
0	358803	31.01	-1
0	360012	31.11	-1
0	361164	31.21	-1
0	362373	31.31	-1
0	363582	31.41	-1
0	364791	31.51	-1
0	366000	31.61	-1
0	367209	31.71	-1
0	368418	31.81	-1
0	369627	31.91	-1
0	370791	32.01	-1
0	372000	32.11	-1
0	373209	32.21	-1
0	374418	32.31	-1
0	375627	32.41	-1
0	376836	32.51	-1
0	378045	32.61	-1
0	379254	32.71	-1
0	380463	32.81	-1
0	381672	32.91	-1
0	382893	33.01	-1
0	384045	33.11	-1
0	385254	33.21	-1
0	386463	33.31	-1
0	387672	33.41	-1
0	388881	33.51	-1
0	390090	33.61	-1
0	391299	33.71	-1
0	392448	33.81	-1
0	393657	33.91	-1
0	394878	34.01	-1
0	396030	34.11	-1
0	397239	34.21	-1
0	398448	34.31	-1
0	399600	34.41	-1
0	400809	34.51	-1
0	401961	34.61	-1
0	403170	34.71	-1
0	404322	34.81	-1
0	405531	34.91	-1
0	406752	35.01	-1
0	407961	35.11	-1
0	409170	35.21	-1
0	410379	35.31	-1
0	411588	35.41	-1
0	412797	35.51	-1
0	414006	35.61	-1
0	415215	35.71	-1
0	416424	35.81	-1
0	417633	35.91	-1
0	418854	36.01	-1
0	420063	36.11	-1
0	421272	36.21	-1
0	422481	36.31	-1
0	423690	36.41	-1
0	424899	36.51	-1
0	426108	36.61	-1
0	427317	36.71	-1
0	428469	36.81	-1
0	429678	36.91	-1
0	430899	37.01	-1
0	432108	37.11	-1
0	433317	37.21	-1
0	434526	37.31	-1
0	435735	37.41	-1
0	436944	37.51	-1
0	438153	37.61	-1
0	439362	37.71	-1
0	440514	37.81	-1
0	441723	37.91	-1
0	442944	38.01	-1
0	444153	38.11	-1
0	445362	38.21	-1
0	446571	38.31	-1
0	447780	38.41	-1
0	448932	38.51	-1
0	450141	38.61	-1
0	451293	38.71	-1
0	452502	38.81	-1
0	453654	38.91	-1
0	454875	39.01	-1
0	456084	39.11	-1
0	457293	39.21	-1
0	458502	39.31	-1
0	459654	39.41	-1
0	460863	39.51	-1
0	462072	39.61	-1
0	463281	39.71	-1
0	464490	39.81	-1
0	465699	39.91	-1
0	466920	40.01	-1
0	468129	40.11	-1
0	469281	40.21	-1
0	470490	40.31	-1
0	471699	40.41	-1
0	472848	40.51	-1
0	474057	40.61	-1
0	475266	40.71	-1
0	476475	40.81	-1
0	477684	40.91	-1
0	478905	41.01	-1
0	480114	41.11	-1
0	481323	41.21	-1
0	482532	41.31	-1
0	483684	41.41	-1
0	484893	41.51	-1
0	486102	41.61	-1
0	487254	41.71	-1
0	488463	41.81	-1
0	489672	41.91	-1
0	490893	42.01	-1
0	492102	42.11	-1
0	493311	42.21	-1
0	494520	42.31	-1
0	495729	42.41	-1
0	496938	42.51	-1
0	498147	42.61	-1
0	499489	42.71	-1
0	500697	42.81	-1
0	501905	42.91	-1
0	503125	43.01	-1
0	504276	43.11	-1
0	505484	43.21	-1
0	506692	43.31	-1
0	507900	43.41	-1
0	509108	43.51	-1
0	510316	43.61	-1
0	511524	43.71	-1
0	512675	43.81	-1
0	513883	43.91	-1
0	515103	44.01	-1
0	516311	44.11	-1
0	517519	44.21	-1
0	518727	44.31	-1
0	519935	44.41	-1
0	521143	44.51	-1
0	522291	44.61	-1
0	523499	44.71	-1
0	524707	44.81	-1
0	525915	44.91	-1
0	527135	45.01	-1
0	528343	45.11	-1
0	529551	45.21	-1
0	530759	45.31	-1
0	531967	45.41	-1
0	533175	45.51	-1
0	534383	45.61	-1
0	535591	45.71	-1
0	536799	45.81	-1
0	538007	45.91	-1
0	539227	46.01	-1
0	540435	46.11	-1
0	541643	46.21	-1
0	542851	46.31	-1
0	544059	46.41	-1
0	545267	46.51	-1
0	546475	46.61	-1
0	547683	46.71	-1
0	548891	46.81	-1
0	550099	46.91	-1
0	551319	47.01	-1
0	552527	47.11	-1
0	553735	47.21	-1
0	554943	47.31	-1
0	556151	47.41	-1
0	557299	47.51	-1
0	558507	47.61	-1
0	559715	47.71	-1
0	560923	47.81	-1
0	562131	47.91	-1
0	563351	48.01	-1
0	564559	48.11	-1
0	565767	48.21	-1
0	566975	48.31	-1
0	568183	48.41	-1
0	569524	48.51	-1
0	570731	48.61	-1
0	571938	48.71	-1
0	573145	48.81	-1
0	574352	48.91	-1
0	575571	49.01	-1
0	576778	49.11	-1
0	577985	49.21	-1
0	579192	49.31	-1
0	580339	49.41	-1
0	581546	49.51	-1
0	582753	49.61	-1
0	583960	49.71	-1
0	585167	49.81	-1
0	586314	49.91	-1
0	587533	50.01	-1
0	588740	50.11	-1
0	589947	50.21	-1
0	591154	50.31	-1
0	592361	50.41	-1
0	593508	50.51	-1
0	594715	50.61	-1
0	595922	50.71	-1
0	597069	50.81	-1
0	598276	50.91	-1
0	599495	51.01	-1
0	600702	51.11	-1
0	601909	51.21	-1
0	603116	51.31	-1
0	604323	51.41	-1
0	605530	51.51	-1
0	606737	51.61	-1
0	607944	51.71	-1
0	609151	51.81	-1
0	610358	51.91	-1
0	611577	52.01	-1
0	612784	52.11	-1
0	613991	52.21	-1
0	615198	52.31	-1
0	616345	52.41	-1
0	617552	52.51	-1
0	618759	52.61	-1
0	619966	52.71	-1
0	621173	52.81	-1
0	622380	52.91	-1
0	623599	53.01	-1
0	624806	53.11	-1
0	626013	53.21	-1
0	627220	53.31	-1
0	628427	53.41	-1
0	629574	53.51	-1
0	630781	53.61	-1
0	631988	53.71	-1
0	633328	53.81	-1
0	634474	53.91	-1
0	635692	54.01	-1
0	636838	54.11	-1
0	638044	54.21	-1
0	639190	54.31	-1
0	640396	54.41	-1
0	641602	54.51	-1
0	642808	54.61	-1
0	644014	54.71	-1
0	645220	54.81	-1
0	646426	54.91	-1
0	647644	55.01	-1
0	648790	55.11	-1
0	649996	55.21	-1
0	651202	55.31	-1
0	652408	55.41	-1
0	653554	55.51	-1
0	654760	55.61	-1
0	655906	55.71	-1
0	657112	55.81	-1
0	658318	55.91	-1
0	659536	56.01	-1
0	660742	56.11	-1
0	661948	56.21	-1
0	663154	56.31	-1
0	664360	56.41	-1
0	665566	56.51	-1
0	666772	56.61	-1
0	667918	56.71	-1
0	669124	56.81	-1
0	670330	56.91	-1
0	671548	57.01	-1
0	672754	57.11	-1
0	673960	57.21	-1
0	675166	57.31	-1
0	676372	57.41	-1
0	677578	57.51	-1
0	678784	57.61	-1
0	679990	57.71	-1
0	681196	57.81	-1
0	682402	57.91	-1
0	683620	58.01	-1
0	684826	58.11	-1
0	686032	58.21	-1
0	687238	58.31	-1
0	688444	58.41	-1
0	689650	58.51	-1
0	690989	58.61	-1
0	692134	58.71	-1
0	693339	58.81	-1
0	694484	58.91	-1
0	695701	59.01	-1
0	696906	59.11	-1
0	698111	59.21	-1
0	699316	59.31	-1
0	700521	59.41	-1
0	701726	59.51	-1
0	702871	59.61	-1
0	704076	59.71	-1
0	705281	59.81	-1
0	706486	59.91	-1
0	707643	60.01	-1
0	708788	60.11	-1
0	709993	60.21	-1
0	711198	60.31	-1
0	712403	60.41	-1
0	713608	60.51	-1
0	714813	60.61	-1
0	716018	60.71	-1
0	717223	60.81	-1
0	718428	60.91	-1
0	719645	61.01	-1
0	720850	61.11	-1
0	722055	61.21	-1
0	723200	61.31	-1
0	724405	61.41	-1
0	725610	61.51	-1
0	726815	61.61	-1
0	728020	61.71	-1
0	729225	61.81	-1
0	730430	61.91	-1
0	731647	62.01	-1
0	732852	62.11	-1
0	734057	62.21	-1
0	735262	62.31	-1
0	736467	62.41	-1
0	737672	62.51	-1
0	738877	62.61	-1
0	740082	62.71	-1
0	741287	62.81	-1
0	742492	62.91	-1
0	743709	63.01	-1
0	744914	63.11	-1
0	746119	63.21	-1
0	747457	63.31	-1
0	748661	63.41	-1
0	749805	63.51	-1
0	751009	63.61	-1
0	752213	63.71	-1
0	753417	63.81	-1
0	754621	63.91	-1
0	755837	64.01	-1
0	757041	64.11	-1
0	758245	64.21	-1
0	759449	64.31	-1
0	760593	64.41	-1
0	761797	64.51	-1
0	763001	64.61	-1
0	764205	64.71	-1
0	765349	64.81	-1
0	766493	64.91	-1
0	767709	65.01	-1
0	768913	65.11	-1
0	770117	65.21	-1
0	771321	65.31	-1
0	772465	65.41	-1
0	773669	65.51	-1
0	774873	65.61	-1
0	776077	65.71	-1
0	777221	65.81	-1
0	778425	65.91	-1
0	779581	66.01	-1
0	780785	66.11	-1
0	781989	66.21	-1
0	783193	66.31	-1
0	784397	66.41	-1
0	785601	66.51	-1
0	786805	66.61	-1
0	788009	66.71	-1
0	789213	66.81	-1
0	790417	66.91	-1
0	791633	67.01	-1
0	792837	67.11	-1
0	794041	67.21	-1
0	795245	67.31	-1
0	796449	67.41	-1
0	797653	67.51	-1
0	798857	67.61	-1
0	800194	67.71	-1
0	801397	67.81	-1
0	802540	67.91	-1
0	803755	68.01	-1
0	804958	68.11	-1
0	806161	68.21	-1
0	807364	68.31	-1
0	808567	68.41	-1
0	809770	68.51	-1
0	810973	68.61	-1
0	812176	68.71	-1
0	813379	68.81	-1
0	814582	68.91	-1
0	815797	69.01	-1
0	817000	69.11	-1
0	818203	69.21	-1
0	819346	69.31	-1
0	820489	69.41	-1
0	821692	69.51	-1
0	822895	69.61	-1
0	824098	69.71	-1
0	825301	69.81	-1
0	826444	69.91	-1
0	827659	70.01	-1
0	828862	70.11	-1
0	830065	70.21	-1
0	831268	70.31	-1
0	832471	70.41	-1
0	833674	70.51	-1
0	834877	70.61	-1
0	836080	70.71	-1
0	837283	70.81	-1
0	838486	70.91	-1
0	839701	71.01	-1
0	840844	71.11	-1
0	842047	71.21	-1
0	843250	71.31	-1
0	844453	71.41	-1
0	845656	71.51	-1
0	846799	71.61	-1
0	848002	71.71	-1
0	849205	71.81	-1
0	850408	71.91	-1
0	851696	72.01	-1
0	852898	72.11	-1
0	854100	72.21	-1
0	855302	72.31	-1
0	856504	72.41	-1
0	857706	72.51	-1
0	858908	72.61	-1
0	860110	72.71	-1
0	861312	72.81	-1
0	862514	72.91	-1
0	863728	73.01	-1
0	864930	73.11	-1
0	866072	73.21	-1
0	867274	73.31	-1
0	868476	73.41	-1
0	869678	73.51	-1
0	870880	73.61	-1
0	872082	73.71	-1
0	873284	73.81	-1
0	874486	73.91	-1
0	875700	74.01	-1
0	876902	74.11	-1
0	878104	74.21	-1
0	879306	74.31	-1
0	880508	74.41	-1
0	881650	74.51	-1
0	882852	74.61	-1
0	884054	74.71	-1
0	885256	74.81	-1
0	886458	74.91	-1
0	887672	75.01	-1
0	888874	75.11	-1
0	890076	75.21	-1
0	891278	75.31	-1
0	892420	75.41	-1
0	893622	75.51	-1
0	894764	75.61	-1
0	895906	75.71	-1
0	897108	75.81	-1
0	898310	75.91	-1
0	899524	76.01	-1
0	900726	76.11	-1
0	902001	76.21	-1
0	903142	76.31	-1
0	904283	76.41	-1
0	905484	76.51	-1
0	906685	76.61	-1
0	907886	76.71	-1
0	909087	76.81	-1
0	910288	76.91	-1
0	911501	77.01	-1
0	912702	77.11	-1
0	913903	77.21	-1
0	915104	77.31	-1
0	916305	77.41	-1
0	917506	77.51	-1
0	918707	77.61	-1
0	919908	77.71	-1
0	921109	77.81	-1
0	922250	77.91	-1
0	923403	78.01	-1
0	924604	78.11	-1
0	925805	78.21	-1
0	927006	78.31	-1
0	928207	78.41	-1
0	929348	78.51	-1
0	930549	78.61	-1
0	931750	78.71	-1
0	932951	78.81	-1
0	934152	78.91	-1
0	935365	79.01	-1
0	936566	79.11	-1
0	937767	79.21	-1
0	938968	79.31	-1
0	940109	79.41	-1
0	941310	79.51	-1
0	942511	79.61	-1
0	943712	79.71	-1
0	944913	79.81	-1
0	946114	79.91	-1
0	947327	80.01	-1
0	948528	80.11	-1
0	949729	80.21	-1
0	951003	80.31	-1
0	952203	80.41	-1
0	953403	80.51	-1
0	954603	80.61	-1
0	955803	80.71	-1
0	957003	80.81	-1
0	958143	80.91	-1
0	959355	81.01	-1
0	960495	81.11	-1
0	961695	81.21	-1
0	962895	81.31	-1
0	964095	81.41	-1
0	965295	81.51	-1
0	966495	81.61	-1
0	967695	81.71	-1
0	968895	81.81	-1
0	970095	81.91	-1
0	971307	82.01	-1
0	972507	82.11	-1
0	973707	82.21	-1
0	974847	82.31	-1
0	976047	82.41	-1
0	977247	82.51	-1
0	978447	82.61	-1
0	979647	82.71	-1
0	980787	82.81	-1
0	981987	82.91	-1
0	983199	83.01	-1
0	984399	83.11	-1
0	985599	83.21	-1
0	986799	83.31	-1
0	987999	83.41	-1
0	989199	83.51	-1
0	990399	83.61	-1
0	991599	83.71	-1
0	992799	83.81	-1
0	993999	83.91	-1
0	995211	84.01	-1
0	996411	84.11	-1
0	997551	84.21	-1
0	998884	84.31	-1
0	1000083	84.41	-1
0	1001282	84.51	-1
0	1002481	84.61	-1
0	1003620	84.71	-1
0	1004819	84.81	-1
0	1006018	84.91	-1
0	1007229	85.01	-1
0	1008368	85.11	-1
0	1009567	85.21	-1
0	1010766	85.31	-1
0	1011965	85.41	-1
0	1013164	85.51	-1
0	1014363	85.61	-1
0	1015562	85.71	-1
0	1016761	85.81	-1
0	1017960	85.91	-1
0	1019171	86.01	-1
0	1020370	86.11	-1
0	1021569	86.21	-1
0	1022768	86.31	-1
0	1023967	86.41	-1
0	1025166	86.51	-1
0	1026365	86.61	-1
0	1027564	86.71	-1
0	1028763	86.81	-1
0	1029962	86.91	-1
0	1031173	87.01	-1
0	1032372	87.11	-1
0	1033571	87.21	-1
0	1034770	87.31	-1
0	1035909	87.41	-1
0	1037108	87.51	-1
0	1038307	87.61	-1
0	1039506	87.71	-1
0	1040705	87.81	-1
0	1041904	87.91	-1
0	1043115	88.01	-1
0	1044254	88.11	-1
0	1045453	88.21	-1
0	1048248	88.31	-1
0	1049446	88.41	-1
0	1050644	88.51	-1
0	1051842	88.61	-1
0	1053040	88.71	-1
0	1054238	88.81	-1
0	1055436	88.91	-1
0	1056646	89.01	-1
0	1057844	89.11	-1
0	1059042	89.21	-1
0	1060240	89.31	-1
0	1061438	89.41	-1
0	1062636	89.51	-1
0	1063834	89.61	-1
0	1065032	89.71	-1
0	1066230	89.81	-1
0	1067428	89.91	-1
0	1068638	90.01	-1
0	1069836	90.11	-1
0	1070974	90.21	-1
0	1072172	90.31	-1
0	1073310	90.41	-1
0	1074508	90.51	-1
0	1075706	90.61	-1
0	1076904	90.71	-1
0	1078102	90.81	-1
0	1079300	90.91	-1
0	1080510	91.01	-1
0	1081708	91.11	-1
0	1082906	91.21	-1
0	1084104	91.31	-1
0	1085302	91.41	-1
0	1086500	91.51	-1
0	1087698	91.61	-1
0	1088896	91.71	-1
0	1090094	91.81	-1
0	1091292	91.91	-1
0	1092502	92.01	-1
0	1093700	92.11	-1
0	1094898	92.21	-1
0	1096096	92.31	-1
0	1097294	92.41	-1
0	1098435	92.51	-1
0	1099633	92.61	-1
0	1100831	92.71	-1
0	1102029	92.81	-1
0	1103227	92.91	-1
0	1104437	93.01	-1
0	1105578	93.11	-1
0	1106776	93.21	-1
0	1107974	93.31	-1
0	1109172	93.41	-1
0	1110370	93.51	-1
0	1111568	93.61	-1
0	1112766	93.71	-1
0	1113964	93.81	-1
0	1115105	93.91	-1
0	1116315	94.01	-1
0	1117513	94.11	-1
0	1118711	94.21	-1
0	1119909	94.31	-1
0	1121107	94.41	-1
0	1122305	94.51	-1
0	1123503	94.61	-1
0	1124701	94.71	-1
0	1125899	94.81	-1
0	1127097	94.91	-1
0	1128307	95.01	-1
0	1129505	95.11	-1
0	1130646	95.21	-1
0	1131844	95.31	-1
0	1133042	95.41	-1
0	1134183	95.51	-1
0	1135381	95.61	-1
0	1136579	95.71	-1
0	1137777	95.81	-1
0	1138918	95.91	-1
0	1140128	96.01	-1
0	1141269	96.11	-1
0	1142410	96.21	-1
0	1143608	96.31	-1
0	1144806	96.41	-1
0	1146004	96.51	-1
0	1147202	96.61	-1
0	1148400	96.71	-1
0	1149598	96.81	-1
0	1150796	96.91	-1
0	1152006	97.01	-1
0	1153204	97.11	-1
0	1154402	97.21	-1
0	1155600	97.31	-1
0	1156798	97.41	-1
0	1157996	97.51	-1
0	1159194	97.61	-1
0	1160392	97.71	-1
0	1161590	97.81	-1
0	1162788	97.91	-1
0	1163998	98.01	-1
0	1165136	98.11	-1
0	1166334	98.21	-1
0	1167532	98.31	-1
0	1168730	98.41	-1
0	1169928	98.51	-1
0	1171126	98.61	-1
0	1172324	98.71	-1
0	1173522	98.81	-1
0	1174720	98.91	-1
0	1175930	99.01	-1
0	1177068	99.11	-1
0	1178206	99.21	-1
0	1179404	99.31	-1
0	1180602	99.41	-1
0	1181800	99.51	-1
0	1182998	99.61	-1
0	1184196	99.71	-1
0	1185394	99.81	-1
0	1186592	99.91	-1
1	113	1.11	0
1	1311	1.21	0
1	2509	1.31	0
1	3707	1.41	0
1	4905	1.51	0
1	6103	1.61	0
1	7301	1.71	0
1	8499	1.81	0
1	9697	1.91	0
1	10907	2.01	0
1	12045	2.11	0
1	13243	2.21	0
1	14441	2.31	0
1	15579	2.41	0
1	16777	2.51	0
1	17975	2.61	0
1	19173	2.71	0
1	20371	2.81	0
1	21569	2.91	0
1	22779	3.01	0
1	23917	3.11	0
1	25115	3.21	0
1	26313	3.31	0
1	27511	3.41	0
1	28709	3.51	0
1	29907	3.61	0
1	31045	3.71	0
1	32243	3.81	0
1	33441	3.91	0
1	34651	4.01	0
1	35789	4.11	0
1	36927	4.21	0
1	38125	4.31	0
1	39263	4.41	0
1	40461	4.51	0
1	41659	4.61	0
1	42857	4.71	0
1	44055	4.81	0
1	45253	4.91	0
1	46463	5.01	0
1	47604	5.11	0
1	48802	5.21	0
1	50000	5.31	0
1	51198	5.41	0
1	52396	5.51	0
1	53594	5.61	0
1	54735	5.71	0
1	55933	5.81	0
1	57131	5.91	0
1	58281	6.01	0
1	59479	6.11	0
1	60677	6.21	0
1	61875	6.31	0
1	63073	6.41	0
1	64271	6.51	0
1	65469	6.61	0
1	66667	6.71	0
1	67865	6.81	0
1	69063	6.91	0
1	70216	7.01	0
1	71414	7.11	0
1	72612	7.21	0
1	73753	7.31	0
1	74894	7.41	0
1	76092	7.51	0
1	77290	7.61	0
1	78488	7.71	0
1	79686	7.81	0
1	80827	7.91	0
1	82037	8.01	0
1	83235	8.11	0
1	84433	8.21	0
1	85631	8.31	0
1	86829	8.41	0
1	88027	8.51	0
1	89225	8.61	0
1	90423	8.71	0
1	91621	8.81	0
1	92762	8.91	0
1	93972	9.01	0
1	95170	9.11	0
1	96368	9.21	0
1	97509	9.31	0
1	98707	9.41	0
1	99905	9.51	0
1	101103	9.61	0
1	102301	9.71	0
1	103499	9.81	0
1	104697	9.91	0
1	106017	10.01	0
1	107226	10.11	0
1	108435	10.21	0
1	109644	10.31	0
1	110793	10.41	0
1	112002	10.51	0
1	113211	10.61	0
1	114420	10.71	0
1	115629	10.81	0
1	116838	10.91	0
1	118059	11.01	0
1	119268	11.11	0
1	120477	11.21	0
1	121686	11.31	0
1	122835	11.41	0
1	124044	11.51	0
1	125253	11.61	0
1	126462	11.71	0
1	127671	11.81	0
1	128820	11.91	0
1	130041	12.01	0
1	131250	12.11	0
1	132459	12.21	0
1	133668	12.31	0
1	134877	12.41	0
1	136086	12.51	0
1	137295	12.61	0
1	138504	12.71	0
1	139713	12.81	0
1	140922	12.91	0
1	142143	13.01	0
1	143352	13.11	0
1	144561	13.21	0
1	145770	13.31	0
1	146979	13.41	0
1	148188	13.51	0
1	149397	13.61	0
1	150606	13.71	0
1	151815	13.81	0
1	153024	13.91	0
1	154245	14.01	0
1	155454	14.11	0
1	156663	14.21	0
1	157872	14.31	0
1	159081	14.41	0
1	160290	14.51	0
1	161499	14.61	0
1	162708	14.71	0
1	163917	14.81	0
1	165126	14.91	0
1	166347	15.01	0
1	167496	15.11	0
1	168705	15.21	0
1	169914	15.31	0
1	171123	15.41	0
1	172332	15.51	0
1	173481	15.61	0
1	174690	15.71	0
1	175899	15.81	0
1	177108	15.91	0
1	178329	16.01	0
1	179538	16.11	0
1	180747	16.21	0
1	181956	16.31	0
1	183165	16.41	0
1	184374	16.51	0
1	185523	16.61	0
1	186732	16.71	0
1	187941	16.81	0
1	189150	16.91	0
1	190371	17.01	0
1	191580	17.11	0
1	192729	17.21	0
1	193938	17.31	0
1	195087	17.41	0
1	196296	17.51	0
1	197505	17.61	0
1	198714	17.71	0
1	199923	17.81	0
1	201132	17.91	0
1	202353	18.01	0
1	203562	18.11	0
1	204771	18.21	0
1	205980	18.31	0
1	207189	18.41	0
1	208398	18.51	0
1	209607	18.61	0
1	210816	18.71	0
1	212025	18.81	0
1	213234	18.91	0
1	214455	19.01	0
1	215664	19.11	0
1	216873	19.21	0
1	218082	19.31	0
1	219231	19.41	0
1	220440	19.51	0
1	221649	19.61	0
1	222858	19.71	0
1	224007	19.81	0
1	225216	19.91	0
1	226437	20.01	0
1	227586	20.11	0
1	228795	20.21	0
1	230004	20.31	0
1	231213	20.41	0
1	232362	20.51	0
1	233571	20.61	0
1	234720	20.71	0
1	235929	20.81	0
1	237138	20.91	0
1	238359	21.01	0
1	239568	21.11	0
1	240777	21.21	0
1	241926	21.31	0
1	243135	21.41	0
1	244344	21.51	0
1	245553	21.61	0
1	246762	21.71	0
1	247971	21.81	0
1	249180	21.91	0
1	250401	22.01	0
1	251610	22.11	0
1	252819	22.21	0
1	254028	22.31	0
1	255237	22.41	0
1	256386	22.51	0
1	257595	22.61	0
1	258804	22.71	0
1	260013	22.81	0
1	261222	22.91	0
1	262443	23.01	0
1	263652	23.11	0
1	264861	23.21	0
1	266013	23.31	0
1	267222	23.41	0
1	268431	23.51	0
1	269640	23.61	0
1	270849	23.71	0
1	272058	23.81	0
1	273267	23.91	0
1	274488	24.01	0
1	275697	24.11	0
1	276906	24.21	0
1	278115	24.31	0
1	279324	24.41	0
1	280533	24.51	0
1	281742	24.61	0
1	282951	24.71	0
1	284160	24.81	0
1	285369	24.91	0
1	286590	25.01	0
1	287799	25.11	0
1	289008	25.21	0
1	290217	25.31	0
1	291426	25.41	0
1	292635	25.51	0
1	293844	25.61	0
1	295053	25.71	0
1	296262	25.81	0
1	297471	25.91	0
1	298692	26.01	0
1	299901	26.11	0
1	301110	26.21	0
1	302319	26.31	0
1	303528	26.41	0
1	304737	26.51	0
1	305946	26.61	0
1	307098	26.71	0
1	308307	26.81	0
1	309516	26.91	0
1	310737	27.01	0
1	311946	27.11	0
1	313098	27.21	0
1	314307	27.31	0
1	315516	27.41	0
1	316668	27.51	0
1	317877	27.61	0
1	319086	27.71	0
1	320295	27.81	0
1	321504	27.91	0
1	322668	28.01	0
1	323877	28.11	0
1	325086	28.21	0
1	326295	28.31	0
1	327504	28.41	0
1	328713	28.51	0
1	329922	28.61	0
1	331131	28.71	0
1	332340	28.81	0
1	333549	28.91	0
1	334770	29.01	0
1	335979	29.11	0
1	337188	29.21	0
1	338397	29.31	0
1	339606	29.41	0
1	340815	29.51	0
1	342024	29.61	0
1	343233	29.71	0
1	344442	29.81	0
1	345651	29.91	0
1	346815	30.01	0
1	348024	30.11	0
1	349176	30.21	0
1	350385	30.31	0
1	351594	30.41	0
1	352803	30.51	0
1	354012	30.61	0
1	355221	30.71	0
1	356430	30.81	0
1	357639	30.91	0
1	358803	31.01	0
1	360012	31.11	0
1	361164	31.21	0
1	362373	31.31	0
1	363582	31.41	0
1	364791	31.51	0
1	366000	31.61	0
1	367209	31.71	0
1	368418	31.81	0
1	369627	31.91	0
1	370791	32.01	0
1	372000	32.11	0
1	373209	32.21	0
1	374418	32.31	0
1	375627	32.41	0
1	376836	32.51	0
1	378045	32.61	0
1	379254	32.71	0
1	380463	32.81	0
1	381672	32.91	0
1	382893	33.01	0
1	384045	33.11	0
1	385254	33.21	0
1	386463	33.31	0
1	387672	33.41	0
1	388881	33.51	0
1	390090	33.61	0
1	391299	33.71	0
1	392448	33.81	0
1	393657	33.91	0
1	394878	34.01	0
1	396030	34.11	0
1	397239	34.21	0
1	398448	34.31	0
1	399600	34.41	0
1	400809	34.51	0
1	401961	34.61	0
1	403170	34.71	0
1	404322	34.81	0
1	405531	34.91	0
1	406752	35.01	0
1	407961	35.11	0
1	409170	35.21	0
1	410379	35.31	0
1	411588	35.41	0
1	412797	35.51	0
1	414006	35.61	0
1	415215	35.71	0
1	416424	35.81	0
1	417633	35.91	0
1	418854	36.01	0
1	420063	36.11	0
1	421272	36.21	0
1	422481	36.31	0
1	423690	36.41	0
1	424899	36.51	0
1	426108	36.61	0
1	427317	36.71	0
1	428469	36.81	0
1	429678	36.91	0
1	430899	37.01	0
1	432108	37.11	0
1	433317	37.21	0
1	434526	37.31	0
1	435735	37.41	0
1	436944	37.51	0
1	438153	37.61	0
1	439362	37.71	0
1	440514	37.81	0
1	441723	37.91	0
1	442944	38.01	0
1	444153	38.11	0
1	445362	38.21	0
1	446571	38.31	0
1	447780	38.41	0
1	448932	38.51	0
1	450141	38.61	0
1	451293	38.71	0
1	452502	38.81	0
1	453654	38.91	0
1	454875	39.01	0
1	456084	39.11	0
1	457293	39.21	0
1	458502	39.31	0
1	459654	39.41	0
1	460863	39.51	0
1	462072	39.61	0
1	463281	39.71	0
1	464490	39.81	0
1	465699	39.91	0
1	466920	40.01	0
1	468129	40.11	0
1	469281	40.21	0
1	470490	40.31	0
1	471699	40.41	0
1	472848	40.51	0
1	474057	40.61	0
1	475266	40.71	0
1	476475	40.81	0
1	477684	40.91	0
1	478905	41.01	0
1	480114	41.11	0
1	481323	41.21	0
1	482532	41.31	0
1	483684	41.41	0
1	484893	41.51	0
1	486102	41.61	0
1	487254	41.71	0
1	488463	41.81	0
1	489672	41.91	0
1	490893	42.01	0
1	492102	42.11	0
1	493311	42.21	0
1	494520	42.31	0
1	495729	42.41	0
1	496938	42.51	0
1	498147	42.61	0
1	499489	42.71	0
1	500697	42.81	0
1	501905	42.91	0
1	503125	43.01	0
1	504276	43.11	0
1	505484	43.21	0
1	506692	43.31	0
1	507900	43.41	0
1	509108	43.51	0
1	510316	43.61	0
1	511524	43.71	0
1	512675	43.81	0
1	513883	43.91	0
1	515103	44.01	0
1	516311	44.11	0
1	517519	44.21	0
1	518727	44.31	0
1	519935	44.41	0
1	521143	44.51	0
1	522291	44.61	0
1	523499	44.71	0
1	524707	44.81	0
1	525915	44.91	0
1	527135	45.01	0
1	528343	45.11	0
1	529551	45.21	0
1	530759	45.31	0
1	531967	45.41	0
1	533175	45.51	0
1	534383	45.61	0
1	535591	45.71	0
1	536799	45.81	0
1	538007	45.91	0
1	539227	46.01	0
1	540435	46.11	0
1	541643	46.21	0
1	542851	46.31	0
1	544059	46.41	0
1	545267	46.51	0
1	546475	46.61	0
1	547683	46.71	0
1	548891	46.81	0
1	550099	46.91	0
1	551319	47.01	0
1	552527	47.11	0
1	553735	47.21	0
1	554943	47.31	0
1	556151	47.41	0
1	557299	47.51	0
1	558507	47.61	0
1	559715	47.71	0
1	560923	47.81	0
1	562131	47.91	0
1	563351	48.01	0
1	564559	48.11	0
1	565767	48.21	0
1	566975	48.31	0
1	568183	48.41	0
1	569524	48.51	0
1	570731	48.61	0
1	571938	48.71	0
1	573145	48.81	0
1	574352	48.91	0
1	575571	49.01	0
1	576778	49.11	0
1	577985	49.21	0
1	579192	49.31	0
1	580339	49.41	0
1	581546	49.51	0
1	582753	49.61	0
1	583960	49.71	0
1	585167	49.81	0
1	586314	49.91	0
1	587533	50.01	0
1	588740	50.11	0
1	589947	50.21	0
1	591154	50.31	0
1	592361	50.41	0
1	593508	50.51	0
1	594715	50.61	0
1	595922	50.71	0
1	597069	50.81	0
1	598276	50.91	0
1	599495	51.01	0
1	600702	51.11	0
1	601909	51.21	0
1	603116	51.31	0
1	604323	51.41	0
1	605530	51.51	0
1	606737	51.61	0
1	607944	51.71	0
1	609151	51.81	0
1	610358	51.91	0
1	611577	52.01	0
1	612784	52.11	0
1	613991	52.21	0
1	615198	52.31	0
1	616345	52.41	0
1	617552	52.51	0
1	618759	52.61	0
1	619966	52.71	0
1	621173	52.81	0
1	622380	52.91	0
1	623599	53.01	0
1	624806	53.11	0
1	626013	53.21	0
1	627220	53.31	0
1	628427	53.41	0
1	629574	53.51	0
1	630781	53.61	0
1	631988	53.71	0
1	633328	53.81	0
1	634474	53.91	0
1	635692	54.01	0
1	636838	54.11	0
1	638044	54.21	0
1	639190	54.31	0
1	640396	54.41	0
1	641602	54.51	0
1	642808	54.61	0
1	644014	54.71	0
1	645220	54.81	0
1	646426	54.91	0
1	647644	55.01	0
1	648790	55.11	0
1	649996	55.21	0
1	651202	55.31	0
1	652408	55.41	0
1	653554	55.51	0
1	654760	55.61	0
1	655906	55.71	0
1	657112	55.81	0
1	658318	55.91	0
1	659536	56.01	0
1	660742	56.11	0
1	661948	56.21	0
1	663154	56.31	0
1	664360	56.41	0
1	665566	56.51	0
1	666772	56.61	0
1	667918	56.71	0
1	669124	56.81	0
1	670330	56.91	0
1	671548	57.01	0
1	672754	57.11	0
1	673960	57.21	0
1	675166	57.31	0
1	676372	57.41	0
1	677578	57.51	0
1	678784	57.61	0
1	679990	57.71	0
1	681196	57.81	0
1	682402	57.91	0
1	683620	58.01	0
1	684826	58.11	0
1	686032	58.21	0
1	687238	58.31	0
1	688444	58.41	0
1	689650	58.51	0
1	690989	58.61	0
1	692134	58.71	0
1	693339	58.81	0
1	694484	58.91	0
1	695701	59.01	0
1	696906	59.11	0
1	698111	59.21	0
1	699316	59.31	0
1	700521	59.41	0
1	701726	59.51	0
1	702871	59.61	0
1	704076	59.71	0
1	705281	59.81	0
1	706486	59.91	0
1	707643	60.01	0
1	708788	60.11	0
1	709993	60.21	0
1	711198	60.31	0
1	712403	60.41	0
1	713608	60.51	0
1	714813	60.61	0
1	716018	60.71	0
1	717223	60.81	0
1	718428	60.91	0
1	719645	61.01	0
1	720850	61.11	0
1	722055	61.21	0
1	723200	61.31	0
1	724405	61.41	0
1	725610	61.51	0
1	726815	61.61	0
1	728020	61.71	0
1	729225	61.81	0
1	730430	61.91	0
1	731647	62.01	0
1	732852	62.11	0
1	734057	62.21	0
1	735262	62.31	0
1	736467	62.41	0
1	737672	62.51	0
1	738877	62.61	0
1	740082	62.71	0
1	741287	62.81	0
1	742492	62.91	0
1	743709	63.01	0
1	744914	63.11	0
1	746119	63.21	0
1	747457	63.31	0
1	748661	63.41	0
1	749805	63.51	0
1	751009	63.61	0
1	752213	63.71	0
1	753417	63.81	0
1	754621	63.91	0
1	755837	64.01	0
1	757041	64.11	0
1	758245	64.21	0
1	759449	64.31	0
1	760593	64.41	0
1	761797	64.51	0
1	763001	64.61	0
1	764205	64.71	0
1	765349	64.81	0
1	766493	64.91	0
1	767709	65.01	0
1	768913	65.11	0
1	770117	65.21	0
1	771321	65.31	0
1	772465	65.41	0
1	773669	65.51	0
1	774873	65.61	0
1	776077	65.71	0
1	777221	65.81	0
1	778425	65.91	0
1	779581	66.01	0
1	780785	66.11	0
1	781989	66.21	0
1	783193	66.31	0
1	784397	66.41	0
1	785601	66.51	0
1	786805	66.61	0
1	788009	66.71	0
1	789213	66.81	0
1	790417	66.91	0
1	791633	67.01	0
1	792837	67.11	0
1	794041	67.21	0
1	795245	67.31	0
1	796449	67.41	0
1	797653	67.51	0
1	798857	67.61	0
1	800194	67.71	0
1	801397	67.81	0
1	802540	67.91	0
1	803755	68.01	0
1	804958	68.11	0
1	806161	68.21	0
1	807364	68.31	0
1	808567	68.41	0
1	809770	68.51	0
1	810973	68.61	0
1	812176	68.71	0
1	813379	68.81	0
1	814582	68.91	0
1	815797	69.01	0
1	817000	69.11	0
1	818203	69.21	0
1	819346	69.31	0
1	820489	69.41	0
1	821692	69.51	0
1	822895	69.61	0
1	824098	69.71	0
1	825301	69.81	0
1	826444	69.91	0
1	827659	70.01	0
1	828862	70.11	0
1	830065	70.21	0
1	831268	70.31	0
1	832471	70.41	0
1	833674	70.51	0
1	834877	70.61	0
1	836080	70.71	0
1	837283	70.81	0
1	838486	70.91	0
1	839701	71.01	0
1	840844	71.11	0
1	842047	71.21	0
1	843250	71.31	0
1	844453	71.41	0
1	845656	71.51	0
1	846799	71.61	0
1	848002	71.71	0
1	849205	71.81	0
1	850408	71.91	0
1	851696	72.01	0
1	852898	72.11	0
1	854100	72.21	0
1	855302	72.31	0
1	856504	72.41	0
1	857706	72.51	0
1	858908	72.61	0
1	860110	72.71	0
1	861312	72.81	0
1	862514	72.91	0
1	863728	73.01	0
1	864930	73.11	0
1	866072	73.21	0
1	867274	73.31	0
1	868476	73.41	0
1	869678	73.51	0
1	870880	73.61	0
1	872082	73.71	0
1	873284	73.81	0
1	874486	73.91	0
1	875700	74.01	0
1	876902	74.11	0
1	878104	74.21	0
1	879306	74.31	0
1	880508	74.41	0
1	881650	74.51	0
1	882852	74.61	0
1	884054	74.71	0
1	885256	74.81	0
1	886458	74.91	0
1	887672	75.01	0
1	888874	75.11	0
1	890076	75.21	0
1	891278	75.31	0
1	892420	75.41	0
1	893622	75.51	0
1	894764	75.61	0
1	895906	75.71	0
1	897108	75.81	0
1	898310	75.91	0
1	899524	76.01	0
1	900726	76.11	0
1	902001	76.21	0
1	903142	76.31	0
1	904283	76.41	0
1	905484	76.51	0
1	906685	76.61	0
1	907886	76.71	0
1	909087	76.81	0
1	910288	76.91	0
1	911501	77.01	0
1	912702	77.11	0
1	913903	77.21	0
1	915104	77.31	0
1	916305	77.41	0
1	917506	77.51	0
1	918707	77.61	0
1	919908	77.71	0
1	921109	77.81	0
1	922250	77.91	0
1	923403	78.01	0
1	924604	78.11	0
1	925805	78.21	0
1	927006	78.31	0
1	928207	78.41	0
1	929348	78.51	0
1	930549	78.61	0
1	931750	78.71	0
1	932951	78.81	0
1	934152	78.91	0
1	935365	79.01	0
1	936566	79.11	0
1	937767	79.21	0
1	938968	79.31	0
1	940109	79.41	0
1	941310	79.51	0
1	942511	79.61	0
1	943712	79.71	0
1	944913	79.81	0
1	946114	79.91	0
1	947327	80.01	0
1	948528	80.11	0
1	949729	80.21	0
1	951003	80.31	0
1	952203	80.41	0
1	953403	80.51	0
1	954603	80.61	0
1	955803	80.71	0
1	957003	80.81	0
1	958143	80.91	0
1	959355	81.01	0
1	960495	81.11	0
1	961695	81.21	0
1	962895	81.31	0
1	964095	81.41	0
1	965295	81.51	0
1	966495	81.61	0
1	967695	81.71	0
1	968895	81.81	0
1	970095	81.91	0
1	971307	82.01	0
1	972507	82.11	0
1	973707	82.21	0
1	974847	82.31	0
1	976047	82.41	0
1	977247	82.51	0
1	978447	82.61	0
1	979647	82.71	0
1	980787	82.81	0
1	981987	82.91	0
1	983199	83.01	0
1	984399	83.11	0
1	985599	83.21	0
1	986799	83.31	0
1	987999	83.41	0
1	989199	83.51	0
1	990399	83.61	0
1	991599	83.71	0
1	992799	83.81	0
1	993999	83.91	0
1	995211	84.01	0
1	996411	84.11	0
1	997551	84.21	0
1	998884	84.31	0
1	1000083	84.41	0
1	1001282	84.51	0
1	1002481	84.61	0
1	1003620	84.71	0
1	1004819	84.81	0
1	1006018	84.91	0
1	1007229	85.01	0
1	1008368	85.11	0
1	1009567	85.21	0
1	1010766	85.31	0
1	1011965	85.41	0
1	1013164	85.51	0
1	1014363	85.61	0
1	1015562	85.71	0
1	1016761	85.81	0
1	1017960	85.91	0
1	1019171	86.01	0
1	1020370	86.11	0
1	1021569	86.21	0
1	1022768	86.31	0
1	1023967	86.41	0
1	1025166	86.51	0
1	1026365	86.61	0
1	1027564	86.71	0
1	1028763	86.81	0
1	1029962	86.91	0
1	1031173	87.01	0
1	1032372	87.11	0
1	1033571	87.21	0
1	1034770	87.31	0
1	1035909	87.41	0
1	1037108	87.51	0
1	1038307	87.61	0
1	1039506	87.71	0
1	1040705	87.81	0
1	1041904	87.91	0
1	1043115	88.01	0
1	1044254	88.11	0
1	1045453	88.21	0
1	1048248	88.31	0
1	1049446	88.41	0
1	1050644	88.51	0
1	1051842	88.61	0
1	1053040	88.71	0
1	1054238	88.81	0
1	1055436	88.91	0
1	1056646	89.01	0
1	1057844	89.11	0
1	1059042	89.21	0
1	1060240	89.31	0
1	1061438	89.41	0
1	1062636	89.51	0
1	1063834	89.61	0
1	1065032	89.71	0
1	1066230	89.81	0
1	1067428	89.91	0
1	1068638	90.01	0
1	1069836	90.11	0
1	1070974	90.21	0
1	1072172	90.31	0
1	1073310	90.41	0
1	1074508	90.51	0
1	1075706	90.61	0
1	1076904	90.71	0
1	1078102	90.81	0
1	1079300	90.91	0
1	1080510	91.01	0
1	1081708	91.11	0
1	1082906	91.21	0
1	1084104	91.31	0
1	1085302	91.41	0
1	1086500	91.51	0
1	1087698	91.61	0
1	1088896	91.71	0
1	1090094	91.81	0
1	1091292	91.91	0
1	1092502	92.01	0
1	1093700	92.11	0
1	1094898	92.21	0
1	1096096	92.31	0
1	1097294	92.41	0
1	1098435	92.51	0
1	1099633	92.61	0
1	1100831	92.71	0
1	1102029	92.81	0
1	1103227	92.91	0
1	1104437	93.01	0
1	1105578	93.11	0
1	1106776	93.21	0
1	1107974	93.31	0
1	1109172	93.41	0
1	1110370	93.51	0
1	1111568	93.61	0
1	1112766	93.71	0
1	1113964	93.81	0
1	1115105	93.91	0
1	1116315	94.01	0
1	1117513	94.11	0
1	1118711	94.21	0
1	1119909	94.31	0
1	1121107	94.41	0
1	1122305	94.51	0
1	1123503	94.61	0
1	1124701	94.71	0
1	1125899	94.81	0
1	1127097	94.91	0
1	1128307	95.01	0
1	1129505	95.11	0
1	1130646	95.21	0
1	1131844	95.31	0
1	1133042	95.41	0
1	1134183	95.51	0
1	1135381	95.61	0
1	1136579	95.71	0
1	1137777	95.81	0
1	1138918	95.91	0
1	1140128	96.01	0
1	1141269	96.11	0
1	1142410	96.21	0
1	1143608	96.31	0
1	1144806	96.41	0
1	1146004	96.51	0
1	1147202	96.61	0
1	1148400	96.71	0
1	1149598	96.81	0
1	1150796	96.91	0
1	1152006	97.01	0
1	1153204	97.11	0
1	1154402	97.21	0
1	1155600	97.31	0
1	1156798	97.41	0
1	1157996	97.51	0
1	1159194	97.61	0
1	1160392	97.71	0
1	1161590	97.81	0
1	1162788	97.91	0
1	1163998	98.01	0
1	1165136	98.11	0
1	1166334	98.21	0
1	1167532	98.31	0
1	1168730	98.41	0
1	1169928	98.51	0
1	1171126	98.61	0
1	1172324	98.71	0
1	1173522	98.81	0
1	1174720	98.91	0
1	1175930	99.01	0
1	1177068	99.11	0
1	1178206	99.21	0
1	1179404	99.31	0
1	1180602	99.41	0
1	1181800	99.51	0
1	1182998	99.61	0
1	1184196	99.71	0
1	1185394	99.81	0
1	1186592	99.91	0
2	113	1.11	0
2	1311	1.21	0
2	2509	1.31	0
2	3707	1.41	0
2	4905	1.51	0
2	6103	1.61	0
2	7301	1.71	0
2	8499	1.81	0
2	9697	1.91	0
2	10907	2.01	0
2	12045	2.11	0
2	13243	2.21	0
2	14441	2.31	0
2	15579	2.41	0
2	16777	2.51	0
2	17975	2.61	0
2	19173	2.71	0
2	20371	2.81	0
2	21569	2.91	0
2	22779	3.01	0
2	23917	3.11	0
2	25115	3.21	0
2	26313	3.31	0
2	27511	3.41	0
2	28709	3.51	0
2	29907	3.61	0
2	31045	3.71	0
2	32243	3.81	0
2	33441	3.91	0
2	34651	4.01	0
2	35789	4.11	0
2	36927	4.21	0
2	38125	4.31	0
2	39263	4.41	0
2	40461	4.51	0
2	41659	4.61	0
2	42857	4.71	0
2	44055	4.81	0
2	45253	4.91	0
2	46463	5.01	0
2	47604	5.11	0
2	48802	5.21	0
2	50000	5.31	0
2	51198	5.41	0
2	52396	5.51	0
2	53594	5.61	0
2	54735	5.71	0
2	55933	5.81	0
2	57131	5.91	0
2	58281	6.01	0
2	59479	6.11	0
2	60677	6.21	0
2	61875	6.31	0
2	63073	6.41	0
2	64271	6.51	0
2	65469	6.61	0
2	66667	6.71	0
2	67865	6.81	0
2	69063	6.91	0
2	70216	7.01	0
2	71414	7.11	0
2	72612	7.21	0
2	73753	7.31	0
2	74894	7.41	0
2	76092	7.51	0
2	77290	7.61	0
2	78488	7.71	0
2	79686	7.81	0
2	80827	7.91	0
2	82037	8.01	0
2	83235	8.11	0
2	84433	8.21	0
2	85631	8.31	0
2	86829	8.41	0
2	88027	8.51	0
2	89225	8.61	0
2	90423	8.71	0
2	91621	8.81	0
2	92762	8.91	0
2	93972	9.01	0
2	95170	9.11	0
2	96368	9.21	0
2	97509	9.31	0
2	98707	9.41	0
2	99905	9.51	0
2	101103	9.61	0
2	102301	9.71	0
2	103499	9.81	0
2	104697	9.91	0
2	106017	10.01	0
2	107226	10.11	0
2	108435	10.21	0
2	109644	10.31	0
2	110793	10.41	0
2	112002	10.51	0
2	113211	10.61	0
2	114420	10.71	0
2	115629	10.81	0
2	116838	10.91	0
2	118059	11.01	0
2	119268	11.11	0
2	120477	11.21	0
2	121686	11.31	0
2	122835	11.41	0
2	124044	11.51	0
2	125253	11.61	0
2	126462	11.71	0
2	127671	11.81	0
2	128820	11.91	0
2	130041	12.01	0
2	131250	12.11	0
2	132459	12.21	0
2	133668	12.31	0
2	134877	12.41	0
2	136086	12.51	0
2	137295	12.61	0
2	138504	12.71	0
2	139713	12.81	0
2	140922	12.91	0
2	142143	13.01	0
2	143352	13.11	0
2	144561	13.21	0
2	145770	13.31	0
2	146979	13.41	0
2	148188	13.51	0
2	149397	13.61	0
2	150606	13.71	0
2	151815	13.81	0
2	153024	13.91	0
2	154245	14.01	0
2	155454	14.11	0
2	156663	14.21	0
2	157872	14.31	0
2	159081	14.41	0
2	160290	14.51	0
2	161499	14.61	0
2	162708	14.71	0
2	163917	14.81	0
2	165126	14.91	0
2	166347	15.01	0
2	167496	15.11	0
2	168705	15.21	0
2	169914	15.31	0
2	171123	15.41	0
2	172332	15.51	0
2	173481	15.61	0
2	174690	15.71	0
2	175899	15.81	0
2	177108	15.91	0
2	178329	16.01	0
2	179538	16.11	0
2	180747	16.21	0
2	181956	16.31	0
2	183165	16.41	0
2	184374	16.51	0
2	185523	16.61	0
2	186732	16.71	0
2	187941	16.81	0
2	189150	16.91	0
2	190371	17.01	0
2	191580	17.11	0
2	192729	17.21	0
2	193938	17.31	0
2	195087	17.41	0
2	196296	17.51	0
2	197505	17.61	0
2	198714	17.71	0
2	199923	17.81	0
2	201132	17.91	0
2	202353	18.01	0
2	203562	18.11	0
2	204771	18.21	0
2	205980	18.31	0
2	207189	18.41	0
2	208398	18.51	0
2	209607	18.61	0
2	210816	18.71	0
2	212025	18.81	0
2	213234	18.91	0
2	214455	19.01	0
2	215664	19.11	0
2	216873	19.21	0
2	218082	19.31	0
2	219231	19.41	0
2	220440	19.51	0
2	221649	19.61	0
2	222858	19.71	0
2	224007	19.81	0
2	225216	19.91	0
2	226437	20.01	0
2	227586	20.11	0
2	228795	20.21	0
2	230004	20.31	0
2	231213	20.41	0
2	232362	20.51	0
2	233571	20.61	0
2	234720	20.71	0
2	235929	20.81	0
2	237138	20.91	0
2	238359	21.01	0
2	239568	21.11	0
2	240777	21.21	0
2	241926	21.31	0
2	243135	21.41	0
2	244344	21.51	0
2	245553	21.61	0
2	246762	21.71	0
2	247971	21.81	0
2	249180	21.91	0
2	250401	22.01	0
2	251610	22.11	0
2	252819	22.21	0
2	254028	22.31	0
2	255237	22.41	0
2	256386	22.51	0
2	257595	22.61	0
2	258804	22.71	0
2	260013	22.81	0
2	261222	22.91	0
2	262443	23.01	0
2	263652	23.11	0
2	264861	23.21	0
2	266013	23.31	0
2	267222	23.41	0
2	268431	23.51	0
2	269640	23.61	0
2	270849	23.71	0
2	272058	23.81	0
2	273267	23.91	0
2	274488	24.01	0
2	275697	24.11	0
2	276906	24.21	0
2	278115	24.31	0
2	279324	24.41	0
2	280533	24.51	0
2	281742	24.61	0
2	282951	24.71	0
2	284160	24.81	0
2	285369	24.91	0
2	286590	25.01	0
2	287799	25.11	0
2	289008	25.21	0
2	290217	25.31	0
2	291426	25.41	0
2	292635	25.51	0
2	293844	25.61	0
2	295053	25.71	0
2	296262	25.81	0
2	297471	25.91	0
2	298692	26.01	0
2	299901	26.11	0
2	301110	26.21	0
2	302319	26.31	0
2	303528	26.41	0
2	304737	26.51	0
2	305946	26.61	0
2	307098	26.71	0
2	308307	26.81	0
2	309516	26.91	0
2	310737	27.01	0
2	311946	27.11	0
2	313098	27.21	0
2	314307	27.31	0
2	315516	27.41	0
2	316668	27.51	0
2	317877	27.61	0
2	319086	27.71	0
2	320295	27.81	0
2	321504	27.91	0
2	322668	28.01	0
2	323877	28.11	0
2	325086	28.21	0
2	326295	28.31	0
2	327504	28.41	0
2	328713	28.51	0
2	329922	28.61	0
2	331131	28.71	0
2	332340	28.81	0
2	333549	28.91	0
2	334770	29.01	0
2	335979	29.11	0
2	337188	29.21	0
2	338397	29.31	0
2	339606	29.41	0
2	340815	29.51	0
2	342024	29.61	0
2	343233	29.71	0
2	344442	29.81	0
2	345651	29.91	0
2	346815	30.01	0
2	348024	30.11	0
2	349176	30.21	0
2	350385	30.31	0
2	351594	30.41	0
2	352803	30.51	0
2	354012	30.61	0
2	355221	30.71	0
2	356430	30.81	0
2	357639	30.91	0
2	358803	31.01	0
2	360012	31.11	0
2	361164	31.21	0
2	362373	31.31	0
2	363582	31.41	0
2	364791	31.51	0
2	366000	31.61	0
2	367209	31.71	0
2	368418	31.81	0
2	369627	31.91	0
2	370791	32.01	0
2	372000	32.11	0
2	373209	32.21	0
2	374418	32.31	0
2	375627	32.41	0
2	376836	32.51	0
2	378045	32.61	0
2	379254	32.71	0
2	380463	32.81	0
2	381672	32.91	0
2	382893	33.01	0
2	384045	33.11	0
2	385254	33.21	0
2	386463	33.31	0
2	387672	33.41	0
2	388881	33.51	0
2	390090	33.61	0
2	391299	33.71	0
2	392448	33.81	0
2	393657	33.91	0
2	394878	34.01	0
2	396030	34.11	0
2	397239	34.21	0
2	398448	34.31	0
2	399600	34.41	0
2	400809	34.51	0
2	401961	34.61	0
2	403170	34.71	0
2	404322	34.81	0
2	405531	34.91	0
2	406752	35.01	0
2	407961	35.11	0
2	409170	35.21	0
2	410379	35.31	0
2	411588	35.41	0
2	412797	35.51	0
2	414006	35.61	0
2	415215	35.71	0
2	416424	35.81	0
2	417633	35.91	0
2	418854	36.01	0
2	420063	36.11	0
2	421272	36.21	0
2	422481	36.31	0
2	423690	36.41	0
2	424899	36.51	0
2	426108	36.61	0
2	427317	36.71	0
2	428469	36.81	0
2	429678	36.91	0
2	430899	37.01	0
2	432108	37.11	0
2	433317	37.21	0
2	434526	37.31	0
2	435735	37.41	0
2	436944	37.51	0
2	438153	37.61	0
2	439362	37.71	0
2	440514	37.81	0
2	441723	37.91	0
2	442944	38.01	0
2	444153	38.11	0
2	445362	38.21	0
2	446571	38.31	0
2	447780	38.41	0
2	448932	38.51	0
2	450141	38.61	0
2	451293	38.71	0
2	452502	38.81	0
2	453654	38.91	0
2	454875	39.01	0
2	456084	39.11	0
2	457293	39.21	0
2	458502	39.31	0
2	459654	39.41	0
2	460863	39.51	0
2	462072	39.61	0
2	463281	39.71	0
2	464490	39.81	0
2	465699	39.91	0
2	466920	40.01	0
2	468129	40.11	0
2	469281	40.21	0
2	470490	40.31	0
2	471699	40.41	0
2	472848	40.51	0
2	474057	40.61	0
2	475266	40.71	0
2	476475	40.81	0
2	477684	40.91	0
2	478905	41.01	0
2	480114	41.11	0
2	481323	41.21	0
2	482532	41.31	0
2	483684	41.41	0
2	484893	41.51	0
2	486102	41.61	0
2	487254	41.71	0
2	488463	41.81	0
2	489672	41.91	0
2	490893	42.01	0
2	492102	42.11	0
2	493311	42.21	0
2	494520	42.31	0
2	495729	42.41	0
2	496938	42.51	0
2	498147	42.61	0
2	499489	42.71	0
2	500697	42.81	0
2	501905	42.91	0
2	503125	43.01	0
2	504276	43.11	0
2	505484	43.21	0
2	506692	43.31	0
2	507900	43.41	0
2	509108	43.51	0
2	510316	43.61	0
2	511524	43.71	0
2	512675	43.81	0
2	513883	43.91	0
2	515103	44.01	0
2	516311	44.11	0
2	517519	44.21	0
2	518727	44.31	0
2	519935	44.41	0
2	521143	44.51	0
2	522291	44.61	0
2	523499	44.71	0
2	524707	44.81	0
2	525915	44.91	0
2	527135	45.01	0
2	528343	45.11	0
2	529551	45.21	0
2	530759	45.31	0
2	531967	45.41	0
2	533175	45.51	0
2	534383	45.61	0
2	535591	45.71	0
2	536799	45.81	0
2	538007	45.91	0
2	539227	46.01	0
2	540435	46.11	0
2	541643	46.21	0
2	542851	46.31	0
2	544059	46.41	0
2	545267	46.51	0
2	546475	46.61	0
2	547683	46.71	0
2	548891	46.81	0
2	550099	46.91	0
2	551319	47.01	0
2	552527	47.11	0
2	553735	47.21	0
2	554943	47.31	0
2	556151	47.41	0
2	557299	47.51	0
2	558507	47.61	0
2	559715	47.71	0
2	560923	47.81	0
2	562131	47.91	0
2	563351	48.01	0
2	564559	48.11	0
2	565767	48.21	0
2	566975	48.31	0
2	568183	48.41	0
2	569524	48.51	0
2	570731	48.61	0
2	571938	48.71	0
2	573145	48.81	0
2	574352	48.91	0
2	575571	49.01	0
2	576778	49.11	0
2	577985	49.21	0
2	579192	49.31	0
2	580339	49.41	0
2	581546	49.51	0
2	582753	49.61	0
2	583960	49.71	0
2	585167	49.81	0
2	586314	49.91	0
2	587533	50.01	0
2	588740	50.11	0
2	589947	50.21	0
2	591154	50.31	0
2	592361	50.41	0
2	593508	50.51	0
2	594715	50.61	0
2	595922	50.71	0
2	597069	50.81	0
2	598276	50.91	0
2	599495	51.01	0
2	600702	51.11	0
2	601909	51.21	0
2	603116	51.31	0
2	604323	51.41	0
2	605530	51.51	0
2	606737	51.61	0
2	607944	51.71	0
2	609151	51.81	0
2	610358	51.91	0
2	611577	52.01	0
2	612784	52.11	0
2	613991	52.21	0
2	615198	52.31	0
2	616345	52.41	0
2	617552	52.51	0
2	618759	52.61	0
2	619966	52.71	0
2	621173	52.81	0
2	622380	52.91	0
2	623599	53.01	0
2	624806	53.11	0
2	626013	53.21	0
2	627220	53.31	0
2	628427	53.41	0
2	629574	53.51	0
2	630781	53.61	0
2	631988	53.71	0
2	633328	53.81	0
2	634474	53.91	0
2	635692	54.01	0
2	636838	54.11	0
2	638044	54.21	0
2	639190	54.31	0
2	640396	54.41	0
2	641602	54.51	0
2	642808	54.61	0
2	644014	54.71	0
2	645220	54.81	0
2	646426	54.91	0
2	647644	55.01	0
2	648790	55.11	0
2	649996	55.21	0
2	651202	55.31	0
2	652408	55.41	0
2	653554	55.51	0
2	654760	55.61	0
2	655906	55.71	0
2	657112	55.81	0
2	658318	55.91	0
2	659536	56.01	0
2	660742	56.11	0
2	661948	56.21	0
2	663154	56.31	0
2	664360	56.41	0
2	665566	56.51	0
2	666772	56.61	0
2	667918	56.71	0
2	669124	56.81	0
2	670330	56.91	0
2	671548	57.01	0
2	672754	57.11	0
2	673960	57.21	0
2	675166	57.31	0
2	676372	57.41	0
2	677578	57.51	0
2	678784	57.61	0
2	679990	57.71	0
2	681196	57.81	0
2	682402	57.91	0
2	683620	58.01	0
2	684826	58.11	0
2	686032	58.21	0
2	687238	58.31	0
2	688444	58.41	0
2	689650	58.51	0
2	690989	58.61	0
2	692134	58.71	0
2	693339	58.81	0
2	694484	58.91	0
2	695701	59.01	0
2	696906	59.11	0
2	698111	59.21	0
2	699316	59.31	0
2	700521	59.41	0
2	701726	59.51	0
2	702871	59.61	0
2	704076	59.71	0
2	705281	59.81	0
2	706486	59.91	0
2	707643	60.01	0
2	708788	60.11	0
2	709993	60.21	0
2	711198	60.31	0
2	712403	60.41	0
2	713608	60.51	0
2	714813	60.61	0
2	716018	60.71	0
2	717223	60.81	0
2	718428	60.91	0
2	719645	61.01	0
2	720850	61.11	0
2	722055	61.21	0
2	723200	61.31	0
2	724405	61.41	0
2	725610	61.51	0
2	726815	61.61	0
2	728020	61.71	0
2	729225	61.81	0
2	730430	61.91	0
2	731647	62.01	0
2	732852	62.11	0
2	734057	62.21	0
2	735262	62.31	0
2	736467	62.41	0
2	737672	62.51	0
2	738877	62.61	0
2	740082	62.71	0
2	741287	62.81	0
2	742492	62.91	0
2	743709	63.01	0
2	744914	63.11	0
2	746119	63.21	0
2	747457	63.31	0
2	748661	63.41	0
2	749805	63.51	0
2	751009	63.61	0
2	752213	63.71	0
2	753417	63.81	0
2	754621	63.91	0
2	755837	64.01	0
2	757041	64.11	0
2	758245	64.21	0
2	759449	64.31	0
2	760593	64.41	0
2	761797	64.51	0
2	763001	64.61	0
2	764205	64.71	0
2	765349	64.81	0
2	766493	64.91	0
2	767709	65.01	0
2	768913	65.11	0
2	770117	65.21	0
2	771321	65.31	0
2	772465	65.41	0
2	773669	65.51	0
2	774873	65.61	0
2	776077	65.71	0
2	777221	65.81	0
2	778425	65.91	0
2	779581	66.01	0
2	780785	66.11	0
2	781989	66.21	0
2	783193	66.31	0
2	784397	66.41	0
2	785601	66.51	0
2	786805	66.61	0
2	788009	66.71	0
2	789213	66.81	0
2	790417	66.91	0
2	791633	67.01	0
2	792837	67.11	0
2	794041	67.21	0
2	795245	67.31	0
2	796449	67.41	0
2	797653	67.51	0
2	798857	67.61	0
2	800194	67.71	0
2	801397	67.81	0
2	802540	67.91	0
2	803755	68.01	0
2	804958	68.11	0
2	806161	68.21	0
2	807364	68.31	0
2	808567	68.41	0
2	809770	68.51	0
2	810973	68.61	0
2	812176	68.71	0
2	813379	68.81	0
2	814582	68.91	0
2	815797	69.01	0
2	817000	69.11	0
2	818203	69.21	0
2	819346	69.31	0
2	820489	69.41	0
2	821692	69.51	0
2	822895	69.61	0
2	824098	69.71	0
2	825301	69.81	0
2	826444	69.91	0
2	827659	70.01	0
2	828862	70.11	0
2	830065	70.21	0
2	831268	70.31	0
2	832471	70.41	0
2	833674	70.51	0
2	834877	70.61	0
2	836080	70.71	0
2	837283	70.81	0
2	838486	70.91	0
2	839701	71.01	0
2	840844	71.11	0
2	842047	71.21	0
2	843250	71.31	0
2	844453	71.41	0
2	845656	71.51	0
2	846799	71.61	0
2	848002	71.71	0
2	849205	71.81	0
2	850408	71.91	0
2	851696	72.01	0
2	852898	72.11	0
2	854100	72.21	0
2	855302	72.31	0
2	856504	72.41	0
2	857706	72.51	0
2	858908	72.61	0
2	860110	72.71	0
2	861312	72.81	0
2	862514	72.91	0
2	863728	73.01	0
2	864930	73.11	0
2	866072	73.21	0
2	867274	73.31	0
2	868476	73.41	0
2	869678	73.51	0
2	870880	73.61	0
2	872082	73.71	0
2	873284	73.81	0
2	874486	73.91	0
2	875700	74.01	0
2	876902	74.11	0
2	878104	74.21	0
2	879306	74.31	0
2	880508	74.41	0
2	881650	74.51	0
2	882852	74.61	0
2	884054	74.71	0
2	885256	74.81	0
2	886458	74.91	0
2	887672	75.01	0
2	888874	75.11	0
2	890076	75.21	0
2	891278	75.31	0
2	892420	75.41	0
2	893622	75.51	0
2	894764	75.61	0
2	895906	75.71	0
2	897108	75.81	0
2	898310	75.91	0
2	899524	76.01	0
2	900726	76.11	0
2	902001	76.21	0
2	903142	76.31	0
2	904283	76.41	0
2	905484	76.51	0
2	906685	76.61	0
2	907886	76.71	0
2	909087	76.81	0
2	910288	76.91	0
2	911501	77.01	0
2	912702	77.11	0
2	913903	77.21	0
2	915104	77.31	0
2	916305	77.41	0
2	917506	77.51	0
2	918707	77.61	0
2	919908	77.71	0
2	921109	77.81	0
2	922250	77.91	0
2	923403	78.01	0
2	924604	78.11	0
2	925805	78.21	0
2	927006	78.31	0
2	928207	78.41	0
2	929348	78.51	0
2	930549	78.61	0
2	931750	78.71	0
2	932951	78.81	0
2	934152	78.91	0
2	935365	79.01	0
2	936566	79.11	0
2	937767	79.21	0
2	938968	79.31	0
2	940109	79.41	0
2	941310	79.51	0
2	942511	79.61	0
2	943712	79.71	0
2	944913	79.81	0
2	946114	79.91	0
2	947327	80.01	0
2	948528	80.11	0
2	949729	80.21	0
2	951003	80.31	0
2	952203	80.41	0
2	953403	80.51	0
2	954603	80.61	0
2	955803	80.71	0
2	957003	80.81	0
2	958143	80.91	0
2	959355	81.01	0
2	960495	81.11	0
2	961695	81.21	0
2	962895	81.31	0
2	964095	81.41	0
2	965295	81.51	0
2	966495	81.61	0
2	967695	81.71	0
2	968895	81.81	0
2	970095	81.91	0
2	971307	82.01	0
2	972507	82.11	0
2	973707	82.21	0
2	974847	82.31	0
2	976047	82.41	0
2	977247	82.51	0
2	978447	82.61	0
2	979647	82.71	0
2	980787	82.81	0
2	981987	82.91	0
2	983199	83.01	0
2	984399	83.11	0
2	985599	83.21	0
2	986799	83.31	0
2	987999	83.41	0
2	989199	83.51	0
2	990399	83.61	0
2	991599	83.71	0
2	992799	83.81	0
2	993999	83.91	0
2	995211	84.01	0
2	996411	84.11	0
2	997551	84.21	0
2	998884	84.31	0
2	1000083	84.41	0
2	1001282	84.51	0
2	1002481	84.61	0
2	1003620	84.71	0
2	1004819	84.81	0
2	1006018	84.91	0
2	1007229	85.01	0
2	1008368	85.11	0
2	1009567	85.21	0
2	1010766	85.31	0
2	1011965	85.41	0
2	1013164	85.51	0
2	1014363	85.61	0
2	1015562	85.71	0
2	1016761	85.81	0
2	1017960	85.91	0
2	1019171	86.01	0
2	1020370	86.11	0
2	1021569	86.21	0
2	1022768	86.31	0
2	1023967	86.41	0
2	1025166	86.51	0
2	1026365	86.61	0
2	1027564	86.71	0
2	1028763	86.81	0
2	1029962	86.91	0
2	1031173	87.01	0
2	1032372	87.11	0
2	1033571	87.21	0
2	1034770	87.31	0
2	1035909	87.41	0
2	1037108	87.51	0
2	1038307	87.61	0
2	1039506	87.71	0
2	1040705	87.81	0
2	1041904	87.91	0
2	1043115	88.01	0
2	1044254	88.11	0
2	1045453	88.21	0
2	1048248	88.31	0
2	1049446	88.41	0
2	1050644	88.51	0
2	1051842	88.61	0
2	1053040	88.71	0
2	1054238	88.81	0
2	1055436	88.91	0
2	1056646	89.01	0
2	1057844	89.11	0
2	1059042	89.21	0
2	1060240	89.31	0
2	1061438	89.41	0
2	1062636	89.51	0
2	1063834	89.61	0
2	1065032	89.71	0
2	1066230	89.81	0
2	1067428	89.91	0
2	1068638	90.01	0
2	1069836	90.11	0
2	1070974	90.21	0
2	1072172	90.31	0
2	1073310	90.41	0
2	1074508	90.51	0
2	1075706	90.61	0
2	1076904	90.71	0
2	1078102	90.81	0
2	1079300	90.91	0
2	1080510	91.01	0
2	1081708	91.11	0
2	1082906	91.21	0
2	1084104	91.31	0
2	1085302	91.41	0
2	1086500	91.51	0
2	1087698	91.61	0
2	1088896	91.71	0
2	1090094	91.81	0
2	1091292	91.91	0
2	1092502	92.01	0
2	1093700	92.11	0
2	1094898	92.21	0
2	1096096	92.31	0
2	1097294	92.41	0
2	1098435	92.51	0
2	1099633	92.61	0
2	1100831	92.71	0
2	1102029	92.81	0
2	1103227	92.91	0
2	1104437	93.01	0
2	1105578	93.11	0
2	1106776	93.21	0
2	1107974	93.31	0
2	1109172	93.41	0
2	1110370	93.51	0
2	1111568	93.61	0
2	1112766	93.71	0
2	1113964	93.81	0
2	1115105	93.91	0
2	1116315	94.01	0
2	1117513	94.11	0
2	1118711	94.21	0
2	1119909	94.31	0
2	1121107	94.41	0
2	1122305	94.51	0
2	1123503	94.61	0
2	1124701	94.71	0
2	1125899	94.81	0
2	1127097	94.91	0
2	1128307	95.01	0
2	1129505	95.11	0
2	1130646	95.21	0
2	1131844	95.31	0
2	1133042	95.41	0
2	1134183	95.51	0
2	1135381	95.61	0
2	1136579	95.71	0
2	1137777	95.81	0
2	1138918	95.91	0
2	1140128	96.01	0
2	1141269	96.11	0
2	1142410	96.21	0
2	1143608	96.31	0
2	1144806	96.41	0
2	1146004	96.51	0
2	1147202	96.61	0
2	1148400	96.71	0
2	1149598	96.81	0
2	1150796	96.91	0
2	1152006	97.01	0
2	1153204	97.11	0
2	1154402	97.21	0
2	1155600	97.31	0
2	1156798	97.41	0
2	1157996	97.51	0
2	1159194	97.61	0
2	1160392	97.71	0
2	1161590	97.81	0
2	1162788	97.91	0
2	1163998	98.01	0
2	1165136	98.11	0
2	1166334	98.21	0
2	1167532	98.31	0
2	1168730	98.41	0
2	1169928	98.51	0
2	1171126	98.61	0
2	1172324	98.71	0
2	1173522	98.81	0
2	1174720	98.91	0
2	1175930	99.01	0
2	1177068	99.11	0
2	1178206	99.21	0
2	1179404	99.31	0
2	1180602	99.41	0
2	1181800	99.51	0
2	1182998	99.61	0
2	1184196	99.71	0
2	1185394	99.81	0
2	1186592	99.91	0
3	113	1.11	-0.000716383
3	1311	1.21	-0.00136341
3	2509	1.31	-0.00186974
3	3707	1.41	-0.00225157
3	4905	1.51	-0.00252443
3	6103	1.61	-0.00270298
3	7301	1.71	-0.00280098
3	8499	1.81	-0.00283113
3	9697	1.91	-0.00280509
3	10907	2.01	-0.00273342
3	12045	2.11	-0.00262559
3	13243	2.21	-0.00249005
3	14441	2.31	-0.00233419
3	15579	2.41	-0.00216447
3	16777	2.51	-0.00198642
3	17975	2.61	-0.00180472
3	19173	2.71	-0.0016233
3	20371	2.81	-0.00144536
3	21569	2.91	-0.00127346
3	22779	3.01	-0.0011096
3	23917	3.11	-0.000955278
3	25115	3.21	-0.000811546
3	26313	3.31	-0.00067908
3	27511	3.41	-0.000558232
3	28709	3.51	-0.000449082
3	29907	3.61	-0.000351487
3	31045	3.71	-0.00026512
3	32243	3.81	-0.000189514
3	33441	3.91	-0.000124092
3	34651	4.01	-6.81972e-05
3	35789	4.11	-2.11209e-05
3	36927	4.21	1.78769e-05
3	38125	4.31	4.9548e-05
3	39263	4.41	7.46407e-05
3	40461	4.51	9.38867e-05
3	41659	4.61	0.000107991
3	42857	4.71	0.000117625
3	44055	4.81	0.000123418
3	45253	4.91	0.000125957
3	46463	5.01	0.000125781
3	47604	5.11	0.00012338
3	48802	5.21	0.000119198
3	50000	5.31	0.000113629
3	51198	5.41	0.000107022
3	52396	5.51	9.96832e-05
3	53594	5.61	9.18747e-05
3	54735	5.71	8.38211e-05
3	55933	5.81	7.57109e-05
3	57131	5.91	6.76999e-05
3	58281	6.01	5.99137e-05
3	59479	6.11	5.24518e-05
3	60677	6.21	4.53896e-05
3	61875	6.31	3.87821e-05
3	63073	6.41	3.2666e-05
3	64271	6.51	2.70628e-05
3	65469	6.61	2.19809e-05
3	66667	6.71	1.74176e-05
3	67865	6.81	1.33618e-05
3	69063	6.91	9.79494e-06
3	70216	7.01	6.6932e-06
3	71414	7.11	4.02864e-06
3	72612	7.21	1.77051e-06
3	73753	7.31	-1.13691e-07
3	74894	7.41	-1.65736e-06
3	76092	7.51	-2.89397e-06
3	77290	7.61	-3.85652e-06
3	78488	7.71	-4.57698e-06
3	79686	7.81	-5.08591e-06
3	80827	7.91	-5.41219e-06
3	82037	8.01	-5.58279e-06
3	83235	8.11	-5.6226e-06
3	84433	8.21	-5.55442e-06
3	85631	8.31	-5.39886e-06
3	86829	8.41	-5.17441e-06
3	88027	8.51	-4.89748e-06
3	89225	8.61	-4.58246e-06
3	90423	8.71	-4.24184e-06
3	91621	8.81	-3.88634e-06
3	92762	8.91	-3.52499e-06
3	93972	9.01	-3.16534e-06
3	95170	9.11	-2.81353e-06
3	96368	9.21	-2.47446e-06
3	97509	9.31	-2.15192e-06
3	98707	9.41	-1.84873e-06
3	99905	9.51	-1.56685e-06
3	101103	9.61	-1.30751e-06
3	102301	9.71	-1.0713e-06
3	103499	9.81	-8.58321e-07
3	104697	9.91	-6.68206e-07
3	106017	10.01	-5.0026e-07
3	107226	10.11	-3.53514e-07
3	108435	10.21	-2.2679e-07
3	109644	10.31	-1.18765e-07
3	110793	10.41	-2.80163e-08
3	112002	10.51	4.6931e-08
3	113211	10.61	1.07573e-07
3	114420	10.71	1.55391e-07
3	115629	10.81	1.91831e-07
3	116838	10.91	2.18284e-07
3	118059	11.01	2.3607e-07
3	119268	11.11	2.46427e-07
3	120477	11.21	2.50502e-07
3	121686	11.31	2.49353e-07
3	122835	11.41	2.43938e-07
3	124044	11.51	2.3512e-07
3	125253	11.61	2.23669e-07
3	126462	11.71	2.10264e-07
3	127671	11.81	1.95496e-07
3	128820	11.91	1.79874e-07
3	130041	12.01	1.63833e-07
3	131250	12.11	1.47736e-07
3	132459	12.21	1.3188e-07
3	133668	12.31	1.16508e-07
3	134877	12.41	1.01807e-07
3	136086	12.51	8.79222e-08
3	137295	12.61	7.49541e-08
3	138504	12.71	6.29711e-08
3	139713	12.81	5.20114e-08
3	140922	12.91	4.20883e-08
3	142143	13.01	3.3193e-08
3	143352	13.11	2.53003e-08
3	144561	13.21	1.83718e-08
3	145770	13.31	1.23581e-08
3	146979	13.41	7.20348e-09
3	148188	13.51	2.84537e-09
3	149397	13.61	-7.80886e-10
3	150606	13.71	-3.74136e-09
3	151815	13.81	-6.10285e-09
3	153024	13.91	-7.93072e-09
3	154245	14.01	-9.28821e-09
3	155454	14.11	-1.0235e-08
3	156663	14.21	-1.08283e-08
3	157872	14.31	-1.11211e-08
3	159081	14.41	-1.11612e-08
3	160290	14.51	-1.09946e-08
3	161499	14.61	-1.06599e-08
3	162708	14.71	-1.01945e-08
3	163917	14.81	-9.62999e-09
3	165126	14.91	-8.99405e-09
3	166347	15.01	-8.31086e-09
3	167496	15.11	-7.60103e-09
3	168705	15.21	-6.88338e-09
3	169914	15.31	-6.17071e-09
3	171123	15.41	-5.47544e-09
3	172332	15.51	-4.80682e-09
3	173481	15.61	-4.17266e-09
3	174690	15.71	-3.57687e-09
3	175899	15.81	-3.02443e-09
3	177108	15.91	-2.51674e-09
3	178329	16.01	-2.05489e-09
3	179538	16.11	-1.63958e-09
3	180747	16.21	-1.26903e-09
3	181956	16.31	-9.42535e-10
3	183165	16.41	-6.57963e-10
3	184374	16.51	-4.1247e-10
3	185523	16.61	-2.04636e-10
3	186732	16.71	-2.91323e-11
3	187941	16.81	1.14753e-10
3	189150	16.91	2.30926e-10
3	190371	17.01	3.22231e-10
3	191580	17.11	3.91154e-10
3	192729	17.21	4.40892e-10
3	193938	17.31	4.73577e-10
3	195087	17.41	4.92051e-10
3	196296	17.51	4.98446e-10
3	197505	17.61	4.94893e-10
3	198714	17.71	4.82814e-10
3	199923	17.81	4.6434e-10
3	201132	17.91	4.40892e-10
3	202353	18.01	4.13536e-10
3	203562	18.11	3.83693e-10
3	204771	18.21	3.51719e-10
3	205980	18.31	3.19744e-10
3	207189	18.41	2.8777e-10
3	208398	18.51	2.55795e-10
3	209607	18.61	2.25953e-10
3	210816	18.71	1.97531e-10
3	212025	18.81	1.6982e-10
3	213234	18.91	1.44951e-10
3	214455	19.01	1.21503e-10
3	215664	19.11	1.00187e-10
3	216873	19.21	8.10019e-11
3	218082	19.31	6.32383e-11
3	219231	19.41	4.86722e-11
3	220440	19.51	3.44613e-11
3	221649	19.61	2.34479e-11
3	222858	19.71	1.27898e-11
3	224007	19.81	4.9738e-12
3	225216	19.91	-2.13163e-12
3	226437	20.01	-8.17124e-12
3	227586	20.11	-1.1724e-11
3	228795	20.21	-1.52767e-11
3	230004	20.31	-1.88294e-11
3	231213	20.41	-2.02505e-11
3	232362	20.51	-2.02505e-11
3	233571	20.61	-2.02505e-11
3	234720	20.71	-2.02505e-11
3	235929	20.81	-2.02505e-11
3	237138	20.91	-2.02505e-11
3	238359	21.01	-2.02505e-11
3	239568	21.11	-2.02505e-11
3	240777	21.21	-2.02505e-11
3	241926	21.31	-1.88294e-11
3	243135	21.41	-1.7053e-11
3	244344	21.51	-1.52767e-11
3	245553	21.61	-1.38556e-11
3	246762	21.71	-1.24345e-11
3	247971	21.81	-1.13687e-11
3	249180	21.91	-1.03029e-11
3	250401	22.01	-9.23706e-12
3	251610	22.11	-8.52651e-12
3	252819	22.21	-7.4607e-12
3	254028	22.31	-6.75016e-12
3	255237	22.41	-6.03961e-12
3	256386	22.51	-5.68434e-12
3	257595	22.61	-4.9738e-12
3	258804	22.71	-4.61853e-12
3	260013	22.81	-4.26326e-12
3	261222	22.91	-3.90799e-12
3	262443	23.01	-3.55271e-12
3	263652	23.11	-3.19744e-12
3	264861	23.21	-2.84217e-12
3	266013	23.31	-2.4869e-12
3	267222	23.41	-2.13163e-12
3	268431	23.51	-2.13163e-12
3	269640	23.61	-1.77636e-12
3	270849	23.71	-1.77636e-12
3	272058	23.81	-1.42109e-12
3	273267	23.91	-1.42109e-12
3	274488	24.01	-1.06581e-12
3	275697	24.11	-1.06581e-12
3	276906	24.21	-1.06581e-12
3	278115	24.31	-1.06581e-12
3	279324	24.41	-7.10543e-13
3	280533	24.51	-7.10543e-13
3	281742	24.61	-7.10543e-13
3	282951	24.71	-7.10543e-13
3	284160	24.81	-7.10543e-13
3	285369	24.91	-3.55271e-13
3	286590	25.01	-3.55271e-13
3	287799	25.11	-3.55271e-13
3	289008	25.21	-3.55271e-13
3	290217	25.31	-3.55271e-13
3	291426	25.41	-3.55271e-13
3	292635	25.51	-3.55271e-13
3	293844	25.61	-3.55271e-13
3	295053	25.71	-3.55271e-13
3	296262	25.81	-3.55271e-13
3	297471	25.91	0
3	298692	26.01	0
3	299901	26.11	0
3	301110	26.21	0
3	302319	26.31	0
3	303528	26.41	0
3	304737	26.51	0
3	305946	26.61	0
3	307098	26.71	0
3	308307	26.81	0
3	309516	26.91	0
3	310737	27.01	0
3	311946	27.11	0
3	313098	27.21	0
3	314307	27.31	0
3	315516	27.41	0
3	316668	27.51	0
3	317877	27.61	0
3	319086	27.71	0
3	320295	27.81	0
3	321504	27.91	0
3	322668	28.01	0
3	323877	28.11	0
3	325086	28.21	0
3	326295	28.31	0
3	327504	28.41	0
3	328713	28.51	0
3	329922	28.61	0
3	331131	28.71	0
3	332340	28.81	0
3	333549	28.91	0
3	334770	29.01	0
3	335979	29.11	0
3	337188	29.21	0
3	338397	29.31	0
3	339606	29.41	0
3	340815	29.51	0
3	342024	29.61	0
3	343233	29.71	0
3	344442	29.81	0
3	345651	29.91	0
3	346815	30.01	0
3	348024	30.11	0
3	349176	30.21	0
3	350385	30.31	0
3	351594	30.41	0
3	352803	30.51	0
3	354012	30.61	0
3	355221	30.71	0
3	356430	30.81	0
3	357639	30.91	0
3	358803	31.01	0
3	360012	31.11	0
3	361164	31.21	0
3	362373	31.31	0
3	363582	31.41	0
3	364791	31.51	0
3	366000	31.61	0
3	367209	31.71	0
3	368418	31.81	0
3	369627	31.91	0
3	370791	32.01	0
3	372000	32.11	0
3	373209	32.21	0
3	374418	32.31	0
3	375627	32.41	0
3	376836	32.51	0
3	378045	32.61	0
3	379254	32.71	0
3	380463	32.81	0
3	381672	32.91	0
3	382893	33.01	0
3	384045	33.11	0
3	385254	33.21	0
3	386463	33.31	0
3	387672	33.41	0
3	388881	33.51	0
3	390090	33.61	0
3	391299	33.71	0
3	392448	33.81	0
3	393657	33.91	0
3	394878	34.01	0
3	396030	34.11	0
3	397239	34.21	0
3	398448	34.31	0
3	399600	34.41	0
3	400809	34.51	0
3	401961	34.61	0
3	403170	34.71	0
3	404322	34.81	0
3	405531	34.91	0
3	406752	35.01	0
3	407961	35.11	0
3	409170	35.21	0
3	410379	35.31	0
3	411588	35.41	0
3	412797	35.51	0
3	414006	35.61	0
3	415215	35.71	0
3	416424	35.81	0
3	417633	35.91	0
3	418854	36.01	0
3	420063	36.11	0
3	421272	36.21	0
3	422481	36.31	0
3	423690	36.41	0
3	424899	36.51	0
3	426108	36.61	0
3	427317	36.71	0
3	428469	36.81	0
3	429678	36.91	0
3	430899	37.01	0
3	432108	37.11	0
3	433317	37.21	0
3	434526	37.31	0
3	435735	37.41	0
3	436944	37.51	0
3	438153	37.61	0
3	439362	37.71	0
3	440514	37.81	0
3	441723	37.91	0
3	442944	38.01	0
3	444153	38.11	0
3	445362	38.21	0
3	446571	38.31	0
3	447780	38.41	0
3	448932	38.51	0
3	450141	38.61	0
3	451293	38.71	0
3	452502	38.81	0
3	453654	38.91	0
3	454875	39.01	0
3	456084	39.11	0
3	457293	39.21	0
3	458502	39.31	0
3	459654	39.41	0
3	460863	39.51	0
3	462072	39.61	0
3	463281	39.71	0
3	464490	39.81	0
3	465699	39.91	0
3	466920	40.01	0
3	468129	40.11	0
3	469281	40.21	0
3	470490	40.31	0
3	471699	40.41	0
3	472848	40.51	0
3	474057	40.61	0
3	475266	40.71	0
3	476475	40.81	0
3	477684	40.91	0
3	478905	41.01	0
3	480114	41.11	0
3	481323	41.21	0
3	482532	41.31	0
3	483684	41.41	0
3	484893	41.51	0
3	486102	41.61	0
3	487254	41.71	0
3	488463	41.81	0
3	489672	41.91	0
3	490893	42.01	0
3	492102	42.11	0
3	493311	42.21	0
3	494520	42.31	0
3	495729	42.41	0
3	496938	42.51	0
3	498147	42.61	0
3	499489	42.71	0
3	500697	42.81	0
3	501905	42.91	0
3	503125	43.01	0
3	504276	43.11	0
3	505484	43.21	0
3	506692	43.31	0
3	507900	43.41	0
3	509108	43.51	0
3	510316	43.61	0
3	511524	43.71	0
3	512675	43.81	0
3	513883	43.91	0
3	515103	44.01	0
3	516311	44.11	0
3	517519	44.21	0
3	518727	44.31	0
3	519935	44.41	0
3	521143	44.51	0
3	522291	44.61	0
3	523499	44.71	0
3	524707	44.81	0
3	525915	44.91	0
3	527135	45.01	0
3	528343	45.11	0
3	529551	45.21	0
3	530759	45.31	0
3	531967	45.41	0
3	533175	45.51	0
3	534383	45.61	0
3	535591	45.71	0
3	536799	45.81	0
3	538007	45.91	0
3	539227	46.01	0
3	540435	46.11	0
3	541643	46.21	0
3	542851	46.31	0
3	544059	46.41	0
3	545267	46.51	0
3	546475	46.61	0
3	547683	46.71	0
3	548891	46.81	0
3	550099	46.91	0
3	551319	47.01	0
3	552527	47.11	0
3	553735	47.21	0
3	554943	47.31	0
3	556151	47.41	0
3	557299	47.51	0
3	558507	47.61	0
3	559715	47.71	0
3	560923	47.81	0
3	562131	47.91	0
3	563351	48.01	0
3	564559	48.11	0
3	565767	48.21	0
3	566975	48.31	0
3	568183	48.41	0
3	569524	48.51	0
3	570731	48.61	0
3	571938	48.71	0
3	573145	48.81	0
3	574352	48.91	0
3	575571	49.01	0
3	576778	49.11	0
3	577985	49.21	0
3	579192	49.31	0
3	580339	49.41	0
3	581546	49.51	0
3	582753	49.61	0
3	583960	49.71	0
3	585167	49.81	0
3	586314	49.91	0
3	587533	50.01	0
3	588740	50.11	0
3	589947	50.21	0
3	591154	50.31	0
3	592361	50.41	0
3	593508	50.51	0
3	594715	50.61	0
3	595922	50.71	0
3	597069	50.81	0
3	598276	50.91	0
3	599495	51.01	0
3	600702	51.11	0
3	601909	51.21	0
3	603116	51.31	0
3	604323	51.41	0
3	605530	51.51	0
3	606737	51.61	0
3	607944	51.71	0
3	609151	51.81	0
3	610358	51.91	0
3	611577	52.01	0
3	612784	52.11	0
3	613991	52.21	0
3	615198	52.31	0
3	616345	52.41	0
3	617552	52.51	0
3	618759	52.61	0
3	619966	52.71	0
3	621173	52.81	0
3	622380	52.91	0
3	623599	53.01	0
3	624806	53.11	0
3	626013	53.21	0
3	627220	53.31	0
3	628427	53.41	0
3	629574	53.51	0
3	630781	53.61	0
3	631988	53.71	0
3	633328	53.81	0
3	634474	53.91	0
3	635692	54.01	0
3	636838	54.11	0
3	638044	54.21	0
3	639190	54.31	0
3	640396	54.41	0
3	641602	54.51	0
3	642808	54.61	0
3	644014	54.71	0
3	645220	54.81	0
3	646426	54.91	0
3	647644	55.01	0
3	648790	55.11	0
3	649996	55.21	0
3	651202	55.31	0
3	652408	55.41	0
3	653554	55.51	0
3	654760	55.61	0
3	655906	55.71	0
3	657112	55.81	0
3	658318	55.91	0
3	659536	56.01	0
3	660742	56.11	0
3	661948	56.21	0
3	663154	56.31	0
3	664360	56.41	0
3	665566	56.51	0
3	666772	56.61	0
3	667918	56.71	0
3	669124	56.81	0
3	670330	56.91	0
3	671548	57.01	0
3	672754	57.11	0
3	673960	57.21	0
3	675166	57.31	0
3	676372	57.41	0
3	677578	57.51	0
3	678784	57.61	0
3	679990	57.71	0
3	681196	57.81	0
3	682402	57.91	0
3	683620	58.01	0
3	684826	58.11	0
3	686032	58.21	0
3	687238	58.31	0
3	688444	58.41	0
3	689650	58.51	0
3	690989	58.61	0
3	692134	58.71	0
3	693339	58.81	0
3	694484	58.91	0
3	695701	59.01	0
3	696906	59.11	0
3	698111	59.21	0
3	699316	59.31	0
3	700521	59.41	0
3	701726	59.51	0
3	702871	59.61	0
3	704076	59.71	0
3	705281	59.81	0
3	706486	59.91	0
3	707643	60.01	0
3	708788	60.11	0
3	709993	60.21	0
3	711198	60.31	0
3	712403	60.41	0
3	713608	60.51	0
3	714813	60.61	0
3	716018	60.71	0
3	717223	60.81	0
3	718428	60.91	0
3	719645	61.01	0
3	720850	61.11	0
3	722055	61.21	0
3	723200	61.31	0
3	724405	61.41	0
3	725610	61.51	0
3	726815	61.61	0
3	728020	61.71	0
3	729225	61.81	0
3	730430	61.91	0
3	731647	62.01	0
3	732852	62.11	0
3	734057	62.21	0
3	735262	62.31	0
3	736467	62.41	0
3	737672	62.51	0
3	738877	62.61	0
3	740082	62.71	0
3	741287	62.81	0
3	742492	62.91	0
3	743709	63.01	0
3	744914	63.11	0
3	746119	63.21	0
3	747457	63.31	0
3	748661	63.41	0
3	749805	63.51	0
3	751009	63.61	0
3	752213	63.71	0
3	753417	63.81	0
3	754621	63.91	0
3	755837	64.01	0
3	757041	64.11	0
3	758245	64.21	0
3	759449	64.31	0
3	760593	64.41	0
3	761797	64.51	0
3	763001	64.61	0
3	764205	64.71	0
3	765349	64.81	0
3	766493	64.91	0
3	767709	65.01	0
3	768913	65.11	0
3	770117	65.21	0
3	771321	65.31	0
3	772465	65.41	0
3	773669	65.51	0
3	774873	65.61	0
3	776077	65.71	0
3	777221	65.81	0
3	778425	65.91	0
3	779581	66.01	0
3	780785	66.11	0
3	781989	66.21	0
3	783193	66.31	0
3	784397	66.41	0
3	785601	66.51	0
3	786805	66.61	0
3	788009	66.71	0
3	789213	66.81	0
3	790417	66.91	0
3	791633	67.01	0
3	792837	67.11	0
3	794041	67.21	0
3	795245	67.31	0
3	796449	67.41	0
3	797653	67.51	0
3	798857	67.61	0
3	800194	67.71	0
3	801397	67.81	0
3	802540	67.91	0
3	803755	68.01	0
3	804958	68.11	0
3	806161	68.21	0
3	807364	68.31	0
3	808567	68.41	0
3	809770	68.51	0
3	810973	68.61	0
3	812176	68.71	0
3	813379	68.81	0
3	814582	68.91	0
3	815797	69.01	0
3	817000	69.11	0
3	818203	69.21	0
3	819346	69.31	0
3	820489	69.41	0
3	821692	69.51	0
3	822895	69.61	0
3	824098	69.71	0
3	825301	69.81	0
3	826444	69.91	0
3	827659	70.01	0
3	828862	70.11	0
3	830065	70.21	0
3	831268	70.31	0
3	832471	70.41	0
3	833674	70.51	0
3	834877	70.61	0
3	836080	70.71	0
3	837283	70.81	0
3	838486	70.91	0
3	839701	71.01	0
3	840844	71.11	0
3	842047	71.21	0
3	843250	71.31	0
3	844453	71.41	0
3	845656	71.51	0
3	846799	71.61	0
3	848002	71.71	0
3	849205	71.81	0
3	850408	71.91	0
3	851696	72.01	0
3	852898	72.11	0
3	854100	72.21	0
3	855302	72.31	0
3	856504	72.41	0
3	857706	72.51	0
3	858908	72.61	0
3	860110	72.71	0
[...]
165	1080141	91	0.036825346765
165	1092133	92	0.037460958824
165	1104068	93	0.037129684346
165	1115946	94	0.036825003303
165	1127938	95	0.037459358869
165	1139759	96	0.036506203032
165	1151637	97	0.036836763606
165	1163629	98	0.03744544788
165	1175561	99	0.037139953821
165	1187433	100	0.036821043646
166	10538	2	0
166	22410	3	0
166	34282	4	0
166	46094	5	0
166	57972	6	0
166	69904	7	0
166	81668	8	0
166	93603	9	0
166	105539	10	0
166	117679	11	0
166	129661	12	0
166	141763	13	0
166	153865	14	0
166	165967	15	0
166	177949	16	0
166	189991	17	0
166	201973	18	0
166	214075	19	0
166	226057	20	0
166	237979	21	0
166	250021	22	0
166	262063	23	0
166	274108	24	0
166	286210	25	0
166	298312	26	0
166	310357	27	0
166	322345	28	0
166	334390	29	0
166	346492	30	0
166	358480	31	0
166	370468	32	0
166	382513	33	0
166	394498	34	0
166	406372	35	0
166	418474	36	0
166	430519	37	0
166	442564	38	0
166	454495	39	0
166	466540	40	0
166	478525	41	0
166	490513	42	0
166	502746	43	0
166	514724	44	0
166	526756	45	0
166	538848	46	0
166	550940	47	0
166	562972	48	0
166	575193	49	0
166	587155	50	0
166	599117	51	0
166	611199	52	0
166	623221	53	0
166	635315	54	0
166	647267	55	0
166	659159	56	0
166	671171	57	0
166	683243	58	0
166	695325	59	0
166	707327	60	0
166	719269	61	0
166	731271	62	0
166	743333	63	0
166	755462	64	0
166	767334	65	0
166	779266	66	0
166	791258	67	0
166	803381	68	0
166	815423	69	0
166	827285	70	0
166	839327	71	0
166	851249	72	0
166	863355	73	0
166	875327	74	0
166	887299	75	0
166	899151	76	0
166	911129	77	0
166	923091	78	0
166	934993	79	0
166	946955	80	0
166	958984	81	0
166	970936	82	0
166	982828	83	0
166	994840	84	0
166	1006859	85	0
166	1018801	86	0
166	1030803	87	0
166	1042745	88	0
166	1056277	89	0
166	1068269	90	0
166	1080141	91	0
166	1092133	92	0
166	1104068	93	0
166	1115946	94	0
166	1127938	95	0
166	1139759	96	0
166	1151637	97	0
166	1163629	98	0
166	1175561	99	0
166	1187433	100	0
167	10539	2	7
167	22411	3	7
167	34283	4	7
167	46095	5	7
167	57973	6	7
167	69905	7	7
167	81669	8	7
167	93604	9	7
167	105540	10	7
167	117680	11	7
167	129662	12	7
167	141764	13	7
167	153866	14	7
167	165968	15	7
167	177950	16	7
167	189992	17	7
167	201974	18	7
167	214076	19	7
167	226058	20	7
167	237980	21	7
167	250022	22	7
167	262064	23	7
167	274109	24	7
167	286211	25	7
167	298313	26	7
167	310358	27	7
167	322346	28	7
167	334391	29	7
167	346493	30	7
167	358481	31	7
167	370469	32	7
167	382514	33	7
167	394499	34	7
167	406373	35	7
167	418475	36	7
167	430520	37	7
167	442565	38	7
167	454496	39	7
167	466541	40	7
167	478526	41	7
167	490514	42	7
167	502747	43	7
167	514725	44	7
167	526757	45	7
167	538849	46	7
167	550941	47	7
167	562973	48	7
167	575194	49	7
167	587156	50	7
167	599118	51	7
167	611200	52	7
167	623222	53	7
167	635316	54	7
167	647268	55	7
167	659160	56	7
167	671172	57	7
167	683244	58	7
167	695326	59	7
167	707328	60	7
167	719270	61	7
167	731272	62	7
167	743334	63	7
167	755463	64	7
167	767335	65	7
167	779267	66	7
167	791259	67	7
167	803382	68	7
167	815424	69	7
167	827286	70	7
167	839328	71	7
167	851250	72	7
167	863356	73	7
167	875328	74	7
167	887300	75	7
167	899152	76	7
167	911130	77	7
167	923092	78	7
167	934994	79	7
167	946956	80	7
167	958985	81	7
167	970937	82	7
167	982829	83	7
167	994841	84	7
167	1006860	85	7
167	1018802	86	7
167	1030804	87	7
167	1042746	88	7
167	1056278	89	7
167	1068270	90	7
167	1080142	91	7
167	1092134	92	7
167	1104069	93	7
167	1115947	94	7
167	1127939	95	7
167	1139760	96	7
167	1151638	97	7
167	1163630	98	7
167	1175562	99	7
167	1187434	100	7
168	10539	2	0.032570174585
168	22411	3	0.036837394119
168	34283	4	0.03682451426
168	46095	5	0.036506674406
168	57973	6	0.036824394254
168	69905	7	0.037142354248
168	81669	8	0.036201834592
168	93604	9	0.037142354292
168	105540	10	0.037129354306
168	117680	11	0.037186991205
168	129662	12	0.036837236878
168	141764	13	0.037447061909
168	153866	14	0.037446788047
168	165968	15	0.037446459387
168	177950	16	0.036823419617
168	189992	17	0.037141330091
168	201974	18	0.036823186066
168	214076	19	0.037458354782
168	226058	20	0.036822492752
168	237980	21	0.036517315703
168	250022	22	0.037139530992
168	262064	23	0.037139137713
168	274109	24	0.037138599067
168	286211	25	0.037442967376
168	298313	26	0.037455563708
168	310358	27	0.037137413674
168	322346	28	0.036819283273
168	334391	29	0.037149651419
168	346493	30	0.03744085318
168	358481	31	0.036831213733
168	370469	32	0.036817703997
168	382514	33	0.037148463654
168	394499	34	0.036817459141
168	406373	35	0.036207583777
168	418475	36	0.037452086842
168	430520	37	0.037133718159
168	442565	38	0.03714687497
168	454496	39	0.036511500822
168	466541	40	0.037133628211
168	478526	41	0.036828306481
168	490514	42	0.036828334521
168	502747	43	0.037553705346
168	514725	44	0.036827744412
168	526757	45	0.037145474693
168	538849	46	0.03744997425
168	550941	47	0.037449829109
168	562973	48	0.037132046475
168	575194	49	0.037565774319
168	587156	50	0.036826666288
168	599118	51	0.03682706564
168	611200	52	0.03744924823
168	623222	53	0.037144519669
168	635316	54	0.036929724773
168	647268	55	0.036826984261
168	659160	56	0.036522017645
168	671172	57	0.03713122382
168	683244	58	0.037448797633
168	695326	59	0.036942920337
168	707328	60	0.037130789888
168	719270	61	0.036826650424
168	731272	62	0.0371439707
168	743334	63	0.037448562804
168	755463	64	0.03724733861
168	767335	65	0.036521878028
168	779267	66	0.036826479149
168	791259	67	0.03713108202
168	803382	68	0.037246949327
168	815424	69	0.037461664866
168	827286	70	0.036508483722
168	839328	71	0.037448626421
168	851250	72	0.036826353886
168	863356	73	0.037280782615
168	875328	74	0.037143675892
168	887300	75	0.03714366338
168	899152	76	0.036508397086
168	911130	77	0.036624548884
168	923092	78	0.037143910508
168	934994	79	0.036826275038
168	946956	80	0.037130615905
168	958985	81	0.036942143073
168	970937	82	0.037143602651
168	982829	83	0.036826249284
168	994841	84	0.037448497846
168	1006860	85	0.036929400289
168	1018802	86	0.03714386243
168	1030804	87	0.037447926415
168	1042746	88	0.037143575873
168	1056278	89	0.038508140942
168	1068270	90	0.037447619388
168	1080142	91	0.036825486656
168	1092134	92	0.037460948434
168	1104069	93	0.037129704147
168	1115947	94	0.036825013116
168	1127939	95	0.037459348901
168	1139760	96	0.036506101501
168	1151638	97	0.036836668326
168	1163630	98	0.03744543788
168	1175562	99	0.037139862527
168	1187434	100	0.036820827168
169	10539	2	0
169	22411	3	0
169	34283	4	0
169	46095	5	0
169	57973	6	0
169	69905	7	0
169	81669	8	0
169	93604	9	0
169	105540	10	0
169	117680	11	0
169	129662	12	0
169	141764	13	0
169	153866	14	0
169	165968	15	0
169	177950	16	0
169	189992	17	0
169	201974	18	0
169	214076	19	0
169	226058	20	0
169	237980	21	0
169	250022	22	0
169	262064	23	0
169	274109	24	0
169	286211	25	0
169	298313	26	0
169	310358	27	0
169	322346	28	0
169	334391	29	0
169	346493	30	0
169	358481	31	0
169	370469	32	0
169	382514	33	0
169	394499	34	0
169	406373	35	0
169	418475	36	0
169	430520	37	0
169	442565	38	0
169	454496	39	0
169	466541	40	0
169	478526	41	0
169	490514	42	0
169	502747	43	0
169	514725	44	0
169	526757	45	0
169	538849	46	0
169	550941	47	0
169	562973	48	0
169	575194	49	0
169	587156	50	0
169	599118	51	0
169	611200	52	0
169	623222	53	0
169	635316	54	0
169	647268	55	0
169	659160	56	0
169	671172	57	0
169	683244	58	0
169	695326	59	0
169	707328	60	0
169	719270	61	0
169	731272	62	0
169	743334	63	0
169	755463	64	0
169	767335	65	0
169	779267	66	0
169	791259	67	0
169	803382	68	0
169	815424	69	0
169	827286	70	0
169	839328	71	0
169	851250	72	0
169	863356	73	0
169	875328	74	0
169	887300	75	0
169	899152	76	0
169	911130	77	0
169	923092	78	0
169	934994	79	0
169	946956	80	0
169	958985	81	0
169	970937	82	0
169	982829	83	0
169	994841	84	0
169	1006860	85	0
169	1018802	86	0
169	1030804	87	0
169	1042746	88	0
169	1056278	89	0
169	1068270	90	0
169	1080142	91	0
169	1092134	92	0
169	1104069	93	0
169	1115947	94	0
169	1127939	95	0
169	1139760	96	0
169	1151638	97	0
169	1163630	98	0
169	1175562	99	0
169	1187434	100	0
170	10540	2	8
170	22412	3	8
170	34284	4	8
170	46096	5	8
170	57974	6	8
170	69906	7	8
170	81670	8	8
170	93605	9	8
170	105541	10	8
170	117681	11	8
170	129663	12	8
170	141765	13	8
170	153867	14	8
170	165969	15	8
170	177951	16	8
170	189993	17	8
170	201975	18	8
170	214077	19	8
170	226059	20	8
170	237981	21	8
170	250023	22	8
170	262065	23	8
170	274110	24	8
170	286212	25	8
170	298314	26	8
170	310359	27	8
170	322347	28	8
170	334392	29	8
170	346494	30	8
170	358482	31	8
170	370470	32	8
170	382515	33	8
170	394500	34	8
170	406374	35	8
170	418476	36	8
170	430521	37	8
170	442566	38	8
170	454497	39	8
170	466542	40	8
170	478527	41	8
170	490515	42	8
170	502748	43	8
170	514726	44	8
170	526758	45	8
170	538850	46	8
170	550942	47	8
170	562974	48	8
170	575195	49	8
170	587157	50	8
170	599119	51	8
170	611201	52	8
170	623223	53	8
170	635317	54	8
170	647269	55	8
170	659161	56	8
170	671173	57	8
170	683245	58	8
170	695327	59	8
170	707329	60	8
170	719271	61	8
170	731273	62	8
170	743335	63	8
170	755464	64	8
170	767336	65	8
170	779268	66	8
170	791260	67	8
170	803383	68	8
170	815425	69	8
170	827287	70	8
170	839329	71	8
170	851251	72	8
170	863357	73	8
170	875329	74	8
170	887301	75	8
170	899153	76	8
170	911131	77	8
170	923093	78	8
170	934995	79	8
170	946957	80	8
170	958986	81	8
170	970938	82	8
170	982830	83	8
170	994842	84	8
170	1006861	85	8
170	1018803	86	8
170	1030805	87	8
170	1042747	88	8
170	1056279	89	8
170	1068271	90	8
170	1080143	91	8
170	1092135	92	8
170	1104070	93	8
170	1115948	94	8
170	1127940	95	8
170	1139761	96	8
170	1151639	97	8
170	1163631	98	8
170	1175563	99	8
170	1187435	100	8
171	10540	2	0.032570194598
171	22412	3	0.036837474175
171	34284	4	0.036824594316
171	46096	5	0.03650679449
171	57974	6	0.03682447431
171	69906	7	0.037142394276
171	81670	8	0.036201994705
171	93605	9	0.03714239432
171	105541	10	0.037129394334
171	117681	11	0.03718703122
171	129663	12	0.036837316899
171	141765	13	0.037447061933
171	153867	14	0.037446788102
171	165969	15	0.037446459483
171	177951	16	0.036823500681
171	189993	17	0.037141371177
171	201975	18	0.03682326875
171	214077	19	0.037458355114
171	226059	20	0.036822578618
171	237981	21	0.036517446576
171	250023	22	0.037139575864
171	262065	23	0.037139184019
171	274110	24	0.037138646448
171	286212	25	0.037442968098
171	298314	26	0.037455564476
171	310359	27	0.037137466247
171	322347	28	0.036819389789
171	334392	29	0.037149706213
171	346494	30	0.037440854055
171	358482	31	0.036831329782
171	370470	32	0.036817823579
171	382515	33	0.03714852547
171	394500	34	0.036817586958
171	406374	35	0.03620784558
171	418476	36	0.037452087672
171	430521	37	0.037133788042
171	442566	38	0.037146946395
171	454497	39	0.036511717589
171	466542	40	0.037133701959
171	478527	41	0.036828455907
171	490515	42	0.03682848713
171	502748	43	0.037553705964
171	514726	44	0.036827901639
171	526758	45	0.037145554872
171	538850	46	0.037449974767
171	550942	47	0.037449829595
171	562974	48	0.037132129459
171	575195	49	0.037565774743
171	587157	50	0.036826835368
171	599119	51	0.0368272362
171	611201	52	0.037449248571
171	623223	53	0.037144606271
171	635317	54	0.036929899211
171	647269	55	0.036827159242
171	659161	56	0.036522281899
171	671173	57	0.037131312653
171	683245	58	0.037448797843
171	695327	59	0.036943099468
171	707329	60	0.037130879825
171	719271	61	0.036826830414
171	731273	62	0.03714406116
171	743335	63	0.03744856294
171	755464	64	0.037247429648
171	767336	65	0.036522151722
171	779268	66	0.036826662022
171	791260	67	0.037131173578
171	803383	68	0.037247041217
171	815425	69	0.037461664943
171	827287	70	0.036508759948
171	839329	71	0.037448626485
171	851251	72	0.03682653851
171	863357	73	0.037247222749
171	875329	74	0.037143768421
171	887301	75	0.037143756021
171	899153	76	0.03650867518
171	911131	77	0.036658572732
171	923093	78	0.037144003382
171	934995	79	0.036826460793
171	946957	80	0.037130708855
171	958986	81	0.036942329066
171	970938	82	0.037143695678
171	982830	83	0.036826435431
171	994842	84	0.037448497862
171	1006861	85	0.036929586558
171	1018803	86	0.03714395559
171	1030805	87	0.037447926427
171	1042747	88	0.037143669087
171	1056279	89	0.03850823273
171	1068271	90	0.03744762579
171	1080143	91	0.036825726191
171	1092135	92	0.037460962204
171	1104070	93	0.037129890271
171	1115948	94	0.036824636406
171	1127940	95	0.037459364053
171	1139761	96	0.036505433703
171	1151639	97	0.036836210816
171	1163631	98	0.03744545362
171	1175563	99	0.037139638719
171	1187435	100	0.036820382437
172	10540	2	0
172	22412	3	0
172	34284	4	0
172	46096	5	0
172	57974	6	0
172	69906	7	0
172	81670	8	0
172	93605	9	0
172	105541	10	0
172	117681	11	0
172	129663	12	0
172	141765	13	0
172	153867	14	0
172	165969	15	0
172	177951	16	0
172	189993	17	0
172	201975	18	0
172	214077	19	0
172	226059	20	0
172	237981	21	0
172	250023	22	0
172	262065	23	0
172	274110	24	0
172	286212	25	0
172	298314	26	0
172	310359	27	0
172	322347	28	0
172	334392	29	0
172	346494	30	0
172	358482	31	0
172	370470	32	0
172	382515	33	0
172	394500	34	0
172	406374	35	0
172	418476	36	0
172	430521	37	0
172	442566	38	0
172	454497	39	0
172	466542	40	0
172	478527	41	0
172	490515	42	0
172	502748	43	0
172	514726	44	0
172	526758	45	0
172	538850	46	0
172	550942	47	0
172	562974	48	0
172	575195	49	0
172	587157	50	0
172	599119	51	0
172	611201	52	0
172	623223	53	0
172	635317	54	0
172	647269	55	0
172	659161	56	0
172	671173	57	0
172	683245	58	0
172	695327	59	0
172	707329	60	0
172	719271	61	0
172	731273	62	0
172	743335	63	0
172	755464	64	0
172	767336	65	0
172	779268	66	0
172	791260	67	0
172	803383	68	0
172	815425	69	0
172	827287	70	0
172	839329	71	0
172	851251	72	0
172	863357	73	0
172	875329	74	0
172	887301	75	0
172	899153	76	0
172	911131	77	0
172	923093	78	0
172	934995	79	0
172	946957	80	0
172	958986	81	0
172	970938	82	0
172	982830	83	0
172	994842	84	0
172	1006861	85	0
172	1018803	86	0
172	1030805	87	0
172	1042747	88	0
172	1056279	89	0
172	1068271	90	0
172	1080143	91	0
172	1092135	92	0
172	1104070	93	0
172	1115948	94	0
172	1127940	95	0
172	1139761	96	0
172	1151639	97	0
172	1163631	98	0
172	1175563	99	0
172	1187435	100	0
173	10541	2	9
173	22413	3	9
173	34285	4	9
173	46097	5	9
173	57975	6	9
173	69907	7	9
173	81671	8	9
173	93606	9	9
173	105542	10	9
173	117682	11	9
173	129664	12	9
173	141766	13	9
173	153868	14	9
173	165970	15	9
173	177952	16	9
173	189994	17	9
173	201976	18	9
173	214078	19	9
173	226060	20	9
173	237982	21	9
173	250024	22	9
173	262066	23	9
173	274111	24	9
173	286213	25	9
173	298315	26	9
173	310360	27	9
173	322348	28	9
173	334393	29	9
173	346495	30	9
173	358483	31	9
173	370471	32	9
173	382516	33	9
173	394501	34	9
173	406375	35	9
173	418477	36	9
173	430522	37	9
173	442567	38	9
173	454498	39	9
173	466543	40	9
173	478528	41	9
173	490516	42	9
173	502749	43	9
173	514727	44	9
173	526759	45	9
173	538851	46	9
173	550943	47	9
173	562975	48	9
173	575196	49	9
173	587158	50	9
173	599120	51	9
173	611202	52	9
173	623224	53	9
173	635318	54	9
173	647270	55	9
173	659162	56	9
173	671174	57	9
173	683246	58	9
173	695328	59	9
173	707330	60	9
173	719272	61	9
173	731274	62	9
173	743336	63	9
173	755465	64	9
173	767337	65	9
173	779269	66	9
173	791261	67	9
173	803384	68	9
173	815426	69	9
173	827288	70	9
173	839330	71	9
173	851252	72	9
173	863358	73	9
173	875330	74	9
173	887302	75	9
173	899154	76	9
173	911132	77	9
173	923094	78	9
173	934996	79	9
173	946958	80	9
173	958987	81	9
173	970939	82	9
173	982831	83	9
173	994843	84	9
173	1006862	85	9
173	1018804	86	9
173	1030806	87	9
173	1042748	88	9
173	1056280	89	9
173	1068272	90	9
173	1080144	91	9
173	1092136	92	9
173	1104071	93	9
173	1115949	94	9
173	1127941	95	9
173	1139762	96	9
173	1151640	97	9
173	1163632	98	9
173	1175564	99	9
173	1187436	100	9
174	10541	2	0.032569214612
174	22413	3	0.036837554229
174	34285	4	0.036824674371
174	46097	5	0.036506914573
174	57975	6	0.036824554362
174	69907	7	0.037142434302
174	81671	8	0.036202154812
174	93606	9	0.037142434348
174	105542	10	0.037129434362
174	117682	11	0.037187071233
174	129664	12	0.036837396845
174	141766	13	0.037447061937
174	153868	14	0.037446788132
174	165970	15	0.037446459543
174	177952	16	0.036823581221
174	189994	17	0.03714141182
174	201976	18	0.036823350384
174	214078	19	0.03745835535
174	226060	20	0.036822662516
174	237982	21	0.036517573955
174	250024	22	0.037139619259
174	262066	23	0.03713922852
174	274111	24	0.037138691798
174	286213	25	0.037442968682
174	298315	26	0.037455565112
174	310360	27	0.037137515891
174	322348	28	0.036819490268
174	334393	29	0.037149757794
174	346495	30	0.037440854839
174	358483	31	0.036831438714
174	370471	32	0.036817935754
174	382516	33	0.037148583452
174	394501	34	0.036817706911
174	406375	35	0.036208091464
174	418477	36	0.037452088494
174	430522	37	0.037133853926
174	442567	38	0.037147013857
174	454498	39	0.036511922577
174	466543	40	0.037133771851
174	478528	41	0.036828597738
174	490516	42	0.036827929983
174	502749	43	0.037553706638
174	514727	44	0.036827338284
174	526759	45	0.037145272041
174	538851	46	0.037449975353
174	550943	47	0.037449830149
174	562975	48	0.037131844118
174	575196	49	0.037565775238
174	587158	50	0.036826262249
174	599120	51	0.036826662565
174	611202	52	0.037449248981
174	623224	53	0.037144319427
174	635318	54	0.036929325135
174	647270	55	0.036826585204
174	659162	56	0.036521421066
174	671174	57	0.037131026098
174	683246	58	0.03744879811
174	695328	59	0.03694252693
174	707330	60	0.037130593856
174	719272	61	0.036826258459
174	731274	62	0.037143775601
174	743336	63	0.037448563119
174	755465	64	0.037247144656
174	767337	65	0.036521297385
174	779269	66	0.036826092987
174	791261	67	0.037130889225
174	803384	68	0.037246757341
174	815426	69	0.03746166505
174	827288	70	0.036507909256
174	839330	71	0.037448626574
174	851252	72	0.036825972219
174	863358	73	0.037246939775
174	875330	74	0.037143485685
174	887302	75	0.037143473525
174	899154	76	0.03650782813
174	911132	77	0.036623980447
174	923094	78	0.037143721431
174	934996	79	0.036825896942
174	946958	80	0.037130427106
174	958987	81	0.036975604755
174	970939	82	0.037143414136
174	982831	83	0.036825872635
174	994843	84	0.037448497887
174	1006862	85	0.036929024131
174	1018804	86	0.037143674445
174	1030806	87	0.037447926445
174	1042748	88	0.037143388119
174	1056280	89	0.03850794963
174	1068272	90	0.037447627338
174	1080144	91	0.036825151139
174	1092136	92	0.037460967498
174	1104071	93	0.037129544067
174	1115949	94	0.036824641805
174	1127941	95	0.037459368316
174	1139762	96	0.036505437406
174	1151640	97	0.036836214279
174	1163632	98	0.037445456769
174	1175564	99	0.037139641417
174	1187436	100	0.036820384673
175	10541	2	0
175	22413	3	0
175	34285	4	0
175	46097	5	0
175	57975	6	0
175	69907	7	0
175	81671	8	0
175	93606	9	0
175	105542	10	0
175	117682	11	0
175	129664	12	0
175	141766	13	0
175	153868	14	0
175	165970	15	0
175	177952	16	0
175	189994	17	0
175	201976	18	0
175	214078	19	0
175	226060	20	0
175	237982	21	0
175	250024	22	0
175	262066	23	0
175	274111	24	0
175	286213	25	0
175	298315	26	0
175	310360	27	0
175	322348	28	0
175	334393	29	0
175	346495	30	0
175	358483	31	0
175	370471	32	0
175	382516	33	0
175	394501	34	0
175	406375	35	0
175	418477	36	0
175	430522	37	0
175	442567	38	0
175	454498	39	0
175	466543	40	0
175	478528	41	0
175	490516	42	0
175	502749	43	0
175	514727	44	0
175	526759	45	0
175	538851	46	0
175	550943	47	0
175	562975	48	0
175	575196	49	0
175	587158	50	0
175	599120	51	0
175	611202	52	0
175	623224	53	0
175	635318	54	0
175	647270	55	0
175	659162	56	0
175	671174	57	0
175	683246	58	0
175	695328	59	0
175	707330	60	0
175	719272	61	0
175	731274	62	0
175	743336	63	0
175	755465	64	0
175	767337	65	0
175	779269	66	0
175	791261	67	0
175	803384	68	0
175	815426	69	0
175	827288	70	0
175	839330	71	0
175	851252	72	0
175	863358	73	0
175	875330	74	0
175	887302	75	0
175	899154	76	0
175	911132	77	0
175	923094	78	0
175	934996	79	0
175	946958	80	0
175	958987	81	0
175	970939	82	0
175	982831	83	0
175	994843	84	0
175	1006862	85	0
175	1018804	86	0
175	1030806	87	0
175	1042748	88	0
175	1056280	89	0
175	1068272	90	0
175	1080144	91	0
175	1092136	92	0
175	1104071	93	0
175	1115949	94	0
175	1127941	95	0
175	1139762	96	0
175	1151640	97	0
175	1163632	98	0
175	1175564	99	0
175	1187436	100	0

