version 3
run BreakRanksNoGui-2036-20240710-16:53:07-266871
attr configname BreakRanksNoGui
attr datetime 20240710-16:53:07
attr datetimef 20240710-165307
attr experiment BreakRanksNoGui
attr inifile omnetpp.ini
attr iterationvars "$nCars=12, $platoonSize=12, $nLanes=1, $ploegH=0.5, $controller=1, $headway=0.1, $leaderHeadway=1.2, $leaderSpeed=110, $breakRanksSafetyDistance=10, $minSpeed=100, $maxSpeed=120, $beaconInterval=0.1, $priority=4, $packetSize=200, $sController=\"CACC\", $0=2, $1=0"
attr iterationvarsd nCars=12/platoonSize=12/nLanes=1/ploegH=0.5/controller=1/headway=0.1/leaderHeadway=1.2/leaderSpeed=110/breakRanksSafetyDistance=10/minSpeed=100/maxSpeed=120/beaconInterval=0.1/priority=4/packetSize=200/sController=CACC/2/0
attr iterationvarsf nCars=12,platoonSize=12,nLanes=1,ploegH=0.5,controller=1,headway=0.1,leaderHeadway=1.2,leaderSpeed=110,breakRanksSafetyDistance=10,minSpeed=100,maxSpeed=120,beaconInterval=0.1,priority=4,packetSize=200,sController=CACC,2,0-
attr measurement "$nCars=12, $platoonSize=12, $nLanes=1, $ploegH=0.5, $controller=1, $headway=0.1, $leaderHeadway=1.2, $leaderSpeed=110, $breakRanksSafetyDistance=10, $minSpeed=100, $maxSpeed=120, $beaconInterval=0.1, $priority=4, $packetSize=200, $sController=\"CACC\", $0=2, $1=0"
attr network Highway
attr processid 266871
attr repetition 6
attr replication #6
attr resultdir results
attr runnumber 2036
attr seedset 6
itervar beaconInterval 0.1
itervar breakRanksSafetyDistance 10
itervar controller 1
itervar headway 0.1
itervar leaderHeadway 1.2
itervar leaderSpeed 110
itervar maxSpeed 120
itervar minSpeed 100
itervar nCars 12
itervar nLanes 1
itervar packetSize 200
itervar platoonSize 12
itervar ploegH 0.5
itervar priority 4
itervar sController "\"CACC\""
config image-path ../../../veins/images
config repeat 10
config extends BreakRanks
config *.manager.command "\"sumo\""
config *.manager.ignoreGuiCommands true
config output-vector-file "results/BreakRanks_1_0.1_110_10_12 /result_6.vec"
config output-scalar-file "results/BreakRanks_1_0.1_110_10_12 /result_6.sca"
config extends Platooning
config *.node[*].scenario_type "\"BreakRanksScenario\""
config *.manager.command "\"sumo-gui\""
config *.node[*].scenario_type "\"SimpleScenario\""
config cmdenv-express-mode true
config cmdenv-autoflush true
config cmdenv-status-frequency 15s
config num-rngs 6
config network Highway
config debug-on-errors true
config print-undisposed true
config *.playgroundSizeX 65000m
config *.playgroundSizeY 25000m
config *.playgroundSizeZ 50m
config sim-time-limit "100 s"
config *.annotations.draw false
config *.obstacles.debug false
config *.world.useTorus false
config *.world.use2D false
config *.manager.updateInterval 0.01s
config *.manager.host "\"localhost\""
config *.manager.moduleType "\"org.car2x.plexe.PlatoonCar\""
config *.manager.moduleName "\"node\""
config *.manager.moduleDisplayString "\"\""
config *.manager.autoShutdown true
config *.manager.margin 25
config *.connectionManager.sendDirect true
config *.connectionManager.maxInterfDist 2600m
config *.connectionManager.drawMaxIntfDist false
config *.**.nic.mac1609_4.useServiceChannel false
config *.**.nic.mac1609_4.txPower 100mW
config *.**.nic.mac1609_4.bitrate 6Mbps
config *.**.nic.mac1609_4.useAcks true
config *.**.nic.mac1609_4.ackErrorRate 0.0
config *.**.nic.mac1609_4.frameErrorRate 0.0
config *.**.nic.phy80211p.minPowerLevel -94dBm
config *.**.nic.phy80211p.maxTXPower 100mW
config *.**.nic.phy80211p.useNoiseFloor true
config *.**.nic.phy80211p.noiseFloor -95dBm
config *.**.nic.phy80211p.decider "xmldoc(\"config.xml\")"
config *.**.nic.phy80211p.analogueModels "xmldoc(\"config.xml\")"
config *.**.nic.phy80211p.usePropagationDelay true
config *.node[*].mobility.x 0
config *.node[*].mobility.y 0
config *.node[*].mobility.z 1.895
config seed-set 6
config **.seed 6
config *.node[*].prot.rng-0 2
config *.node[*].appl.rng-0 3
config *.node[*].scenario.rng-0 4
config **.traffic.rng-0 5
config *.manager.configFile "\"./sumocfg/freeway.sumo.cfg\""
config *.manager.launchConfig "xmldoc(\"./sumocfg/freeway.launchd.xml\")"
config **.numberOfCars 12
config **.numberOfCarsPerPlatoon 12
config **.numberOfLanes 1
config *.node[*].helper_type "\"PositionHelper\""
config *.node[*].scenario.caccC1 0.5
config *.node[*].scenario.caccXi 1
config *.node[*].scenario.caccOmegaN "0.2 Hz"
config *.node[*].scenario.caccSpacing "2 m"
config *.node[*].scenario.engineTau "0.5 s"
config *.node[*].scenario.ploegH 0.5s
config *.node[*].scenario.ploegKp 0.2
config *.node[*].scenario.ploegKd 0.7
config *.node[*].scenario.useRealisticEngine false
config *.node[*].scenario.useControllerAcceleration true
config *.node[*].scenario.nLanes 1
config **.numericController 1
config **.headway 0.1s
config *.node[*].scenario.accHeadway 0.1s
config *.node[*].scenario.leaderHeadway 1.2s
config *.node[*].scenario.leaderSpeed 110kmph
config *.node[*].appl_type "\"SimplePlatooningApp\""
config *.node[*].appl.*.scalar-recording true
config *.node[*].appl.*.vector-recording true
config *.node[0].appl.breakRanksSafetyDistance 10m
config *.node[*].appl.minSpeed 100kmph
config *.node[*].appl.maxSpeed 120kmph
config *.node[*].protocol_type "\"SimplePlatooningBeaconing\""
config *.node[*].prot.*.scalar-recording true
config *.node[*].prot.*.vector-recording true
config *.node[*].prot.beaconingInterval 0.1s
config *.node[*].prot.priority 4
config *.node[*].prot.packetSize 200
config **.traffic_type "\"PlatoonsTrafficManager\""
config **.traffic.platoonInsertTime "1 s"
config **.traffic.platoonInsertSpeed 110kmph
config **.traffic.nCars 12
config **.traffic.platoonSize 12
config **.traffic.nLanes 1
config **.traffic.platooningVType "\"vtypeauto\""
config **.traffic.controller "\"CACC\""
config **.traffic.platoonInsertDistance 2m
config **.traffic.platoonInsertHeadway 0s
config **.traffic.platoonLeaderHeadway 1.2s
config **.scalar-recording false
config **.vector-recording false

vector 0 Highway.node[0].appl distance ETV
vector 1 Highway.node[0].appl relativeSpeed ETV
vector 2 Highway.node[0].appl nodeId ETV
vector 3 Highway.node[0].appl acceleration ETV
vector 4 Highway.node[0].appl controllerAcceleration ETV
vector 5 Highway.node[0].appl speed ETV
vector 6 Highway.node[0].appl posx ETV
vector 7 Highway.node[0].appl posy ETV
vector 8 Highway.node[1].appl distance ETV
vector 9 Highway.node[1].appl relativeSpeed ETV
vector 10 Highway.node[1].appl nodeId ETV
vector 11 Highway.node[1].appl acceleration ETV
vector 12 Highway.node[1].appl controllerAcceleration ETV
vector 13 Highway.node[1].appl speed ETV
vector 14 Highway.node[1].appl posx ETV
vector 15 Highway.node[1].appl posy ETV
vector 16 Highway.node[2].appl distance ETV
vector 17 Highway.node[2].appl relativeSpeed ETV
vector 18 Highway.node[2].appl nodeId ETV
vector 19 Highway.node[2].appl acceleration ETV
vector 20 Highway.node[2].appl controllerAcceleration ETV
vector 21 Highway.node[2].appl speed ETV
vector 22 Highway.node[2].appl posx ETV
vector 23 Highway.node[2].appl posy ETV
vector 24 Highway.node[3].appl distance ETV
vector 25 Highway.node[3].appl relativeSpeed ETV
vector 26 Highway.node[3].appl nodeId ETV
vector 27 Highway.node[3].appl acceleration ETV
vector 28 Highway.node[3].appl controllerAcceleration ETV
vector 29 Highway.node[3].appl speed ETV
vector 30 Highway.node[3].appl posx ETV
vector 31 Highway.node[3].appl posy ETV
vector 32 Highway.node[4].appl distance ETV
vector 33 Highway.node[4].appl relativeSpeed ETV
vector 34 Highway.node[4].appl nodeId ETV
vector 35 Highway.node[4].appl acceleration ETV
vector 36 Highway.node[4].appl controllerAcceleration ETV
vector 37 Highway.node[4].appl speed ETV
vector 38 Highway.node[4].appl posx ETV
vector 39 Highway.node[4].appl posy ETV
vector 40 Highway.node[5].appl distance ETV
vector 41 Highway.node[5].appl relativeSpeed ETV
vector 42 Highway.node[5].appl nodeId ETV
vector 43 Highway.node[5].appl acceleration ETV
vector 44 Highway.node[5].appl controllerAcceleration ETV
vector 45 Highway.node[5].appl speed ETV
vector 46 Highway.node[5].appl posx ETV
vector 47 Highway.node[5].appl posy ETV
vector 48 Highway.node[6].appl distance ETV
vector 49 Highway.node[6].appl relativeSpeed ETV
vector 50 Highway.node[6].appl nodeId ETV
vector 51 Highway.node[6].appl acceleration ETV
vector 52 Highway.node[6].appl controllerAcceleration ETV
vector 53 Highway.node[6].appl speed ETV
vector 54 Highway.node[6].appl posx ETV
vector 55 Highway.node[6].appl posy ETV
vector 56 Highway.node[7].appl distance ETV
vector 57 Highway.node[7].appl relativeSpeed ETV
vector 58 Highway.node[7].appl nodeId ETV
vector 59 Highway.node[7].appl acceleration ETV
vector 60 Highway.node[7].appl controllerAcceleration ETV
vector 61 Highway.node[7].appl speed ETV
vector 62 Highway.node[7].appl posx ETV
vector 63 Highway.node[7].appl posy ETV
vector 64 Highway.node[8].appl distance ETV
vector 65 Highway.node[8].appl relativeSpeed ETV
vector 66 Highway.node[8].appl nodeId ETV
vector 67 Highway.node[8].appl acceleration ETV
vector 68 Highway.node[8].appl controllerAcceleration ETV
vector 69 Highway.node[8].appl speed ETV
vector 70 Highway.node[8].appl posx ETV
vector 71 Highway.node[8].appl posy ETV
vector 72 Highway.node[9].appl distance ETV
vector 73 Highway.node[9].appl relativeSpeed ETV
vector 74 Highway.node[9].appl nodeId ETV
vector 75 Highway.node[9].appl acceleration ETV
vector 76 Highway.node[9].appl controllerAcceleration ETV
vector 77 Highway.node[9].appl speed ETV
vector 78 Highway.node[9].appl posx ETV
vector 79 Highway.node[9].appl posy ETV
vector 80 Highway.node[10].appl distance ETV
vector 81 Highway.node[10].appl relativeSpeed ETV
vector 82 Highway.node[10].appl nodeId ETV
vector 83 Highway.node[10].appl acceleration ETV
vector 84 Highway.node[10].appl controllerAcceleration ETV
vector 85 Highway.node[10].appl speed ETV
vector 86 Highway.node[10].appl posx ETV
vector 87 Highway.node[10].appl posy ETV
vector 88 Highway.node[11].appl distance ETV
vector 89 Highway.node[11].appl relativeSpeed ETV
vector 90 Highway.node[11].appl nodeId ETV
vector 91 Highway.node[11].appl acceleration ETV
vector 92 Highway.node[11].appl controllerAcceleration ETV
vector 93 Highway.node[11].appl speed ETV
vector 94 Highway.node[11].appl posx ETV
vector 95 Highway.node[11].appl posy ETV
vector 96 Highway.node[1].prot leaderDelay ETV
vector 97 Highway.node[1].prot leaderDelayId ETV
vector 98 Highway.node[1].prot frontDelay ETV
vector 99 Highway.node[1].prot frontDelayId ETV
vector 100 Highway.node[4].prot leaderDelay ETV
vector 101 Highway.node[4].prot leaderDelayId ETV
vector 102 Highway.node[5].prot leaderDelay ETV
vector 103 Highway.node[5].prot leaderDelayId ETV
vector 104 Highway.node[6].prot leaderDelay ETV
vector 105 Highway.node[6].prot leaderDelayId ETV
vector 106 Highway.node[7].prot leaderDelay ETV
vector 107 Highway.node[7].prot leaderDelayId ETV
vector 108 Highway.node[8].prot leaderDelay ETV
vector 109 Highway.node[8].prot leaderDelayId ETV
vector 110 Highway.node[9].prot leaderDelay ETV
vector 111 Highway.node[9].prot leaderDelayId ETV
vector 112 Highway.node[10].prot leaderDelay ETV
vector 113 Highway.node[10].prot leaderDelayId ETV
vector 114 Highway.node[11].prot leaderDelay ETV
vector 115 Highway.node[11].prot leaderDelayId ETV
vector 116 Highway.node[2].prot leaderDelay ETV
vector 117 Highway.node[2].prot leaderDelayId ETV
vector 118 Highway.node[3].prot leaderDelay ETV
vector 119 Highway.node[3].prot leaderDelayId ETV
vector 120 Highway.node[8].prot frontDelay ETV
vector 121 Highway.node[8].prot frontDelayId ETV
vector 122 Highway.node[2].prot frontDelay ETV
vector 123 Highway.node[2].prot frontDelayId ETV
vector 124 Highway.node[11].prot frontDelay ETV
vector 125 Highway.node[11].prot frontDelayId ETV
vector 126 Highway.node[9].prot frontDelay ETV
vector 127 Highway.node[9].prot frontDelayId ETV
vector 128 Highway.node[7].prot frontDelay ETV
vector 129 Highway.node[7].prot frontDelayId ETV
vector 130 Highway.node[3].prot frontDelay ETV
vector 131 Highway.node[3].prot frontDelayId ETV
vector 132 Highway.node[6].prot frontDelay ETV
vector 133 Highway.node[6].prot frontDelayId ETV
vector 134 Highway.node[4].prot frontDelay ETV
vector 135 Highway.node[4].prot frontDelayId ETV
vector 136 Highway.node[10].prot frontDelay ETV
vector 137 Highway.node[10].prot frontDelayId ETV
vector 138 Highway.node[5].prot frontDelay ETV
vector 139 Highway.node[5].prot frontDelayId ETV
vector 140 Highway.node[0].prot nodeId ETV
vector 141 Highway.node[0].prot busyTime ETV
vector 142 Highway.node[0].prot collisions ETV
vector 143 Highway.node[1].prot nodeId ETV
vector 144 Highway.node[1].prot busyTime ETV
vector 145 Highway.node[1].prot collisions ETV
vector 146 Highway.node[2].prot nodeId ETV
vector 147 Highway.node[2].prot busyTime ETV
vector 148 Highway.node[2].prot collisions ETV
vector 149 Highway.node[3].prot nodeId ETV
vector 150 Highway.node[3].prot busyTime ETV
vector 151 Highway.node[3].prot collisions ETV
vector 152 Highway.node[4].prot nodeId ETV
vector 153 Highway.node[4].prot busyTime ETV
vector 154 Highway.node[4].prot collisions ETV
vector 155 Highway.node[5].prot nodeId ETV
vector 156 Highway.node[5].prot busyTime ETV
vector 157 Highway.node[5].prot collisions ETV
vector 158 Highway.node[6].prot nodeId ETV
vector 159 Highway.node[6].prot busyTime ETV
vector 160 Highway.node[6].prot collisions ETV
vector 161 Highway.node[7].prot nodeId ETV
vector 162 Highway.node[7].prot busyTime ETV
vector 163 Highway.node[7].prot collisions ETV
vector 164 Highway.node[8].prot nodeId ETV
vector 165 Highway.node[8].prot busyTime ETV
vector 166 Highway.node[8].prot collisions ETV
vector 167 Highway.node[9].prot nodeId ETV
vector 168 Highway.node[9].prot busyTime ETV
vector 169 Highway.node[9].prot collisions ETV
vector 170 Highway.node[10].prot nodeId ETV
vector 171 Highway.node[10].prot busyTime ETV
vector 172 Highway.node[10].prot collisions ETV
vector 173 Highway.node[11].prot nodeId ETV
vector 174 Highway.node[11].prot busyTime ETV
vector 175 Highway.node[11].prot collisions ETV
0	113	1.11	-1
0	1311	1.21	-1
0	2509	1.31	-1
0	3707	1.41	-1
0	4905	1.51	-1
0	6103	1.61	-1
0	7301	1.71	-1
0	8499	1.81	-1
0	9697	1.91	-1
0	10907	2.01	-1
0	12105	2.11	-1
0	13303	2.21	-1
0	14501	2.31	-1
0	15699	2.41	-1
0	16897	2.51	-1
0	18095	2.61	-1
0	19293	2.71	-1
0	20491	2.81	-1
0	21689	2.91	-1
0	22899	3.01	-1
0	24097	3.11	-1
0	25295	3.21	-1
0	26493	3.31	-1
0	27691	3.41	-1
0	28889	3.51	-1
0	30087	3.61	-1
0	31285	3.71	-1
0	32483	3.81	-1
0	33681	3.91	-1
0	34891	4.01	-1
0	36089	4.11	-1
0	37287	4.21	-1
0	38485	4.31	-1
0	39683	4.41	-1
0	40881	4.51	-1
0	42079	4.61	-1
0	43277	4.71	-1
0	44475	4.81	-1
0	45673	4.91	-1
0	46883	5.01	-1
0	48081	5.11	-1
0	49279	5.21	-1
0	50477	5.31	-1
0	51675	5.41	-1
0	52873	5.51	-1
0	54071	5.61	-1
0	55269	5.71	-1
0	56467	5.81	-1
0	57665	5.91	-1
0	58875	6.01	-1
0	60073	6.11	-1
0	61271	6.21	-1
0	62469	6.31	-1
0	63667	6.41	-1
0	64865	6.51	-1
0	66063	6.61	-1
0	67261	6.71	-1
0	68459	6.81	-1
0	69657	6.91	-1
0	70867	7.01	-1
0	72065	7.11	-1
0	73263	7.21	-1
0	74461	7.31	-1
0	75659	7.41	-1
0	76857	7.51	-1
0	78055	7.61	-1
0	79253	7.71	-1
0	80451	7.81	-1
0	81649	7.91	-1
0	82859	8.01	-1
0	84057	8.11	-1
0	85255	8.21	-1
0	86453	8.31	-1
0	87651	8.41	-1
0	88849	8.51	-1
0	90047	8.61	-1
0	91245	8.71	-1
0	92443	8.81	-1
0	93641	8.91	-1
0	94851	9.01	-1
0	96049	9.11	-1
0	97247	9.21	-1
0	98445	9.31	-1
0	99643	9.41	-1
0	100841	9.51	-1
0	102039	9.61	-1
0	103237	9.71	-1
0	104435	9.81	-1
0	105633	9.91	-1
0	106953	10.01	-1
0	108162	10.11	-1
0	109371	10.21	-1
0	110580	10.31	-1
0	111789	10.41	-1
0	112998	10.51	-1
0	114207	10.61	-1
0	115416	10.71	-1
0	116625	10.81	-1
0	117834	10.91	-1
0	119055	11.01	-1
0	120264	11.11	-1
0	121473	11.21	-1
0	122682	11.31	-1
0	123891	11.41	-1
0	125100	11.51	-1
0	126309	11.61	-1
0	127518	11.71	-1
0	128727	11.81	-1
0	129936	11.91	-1
0	131157	12.01	-1
0	132366	12.11	-1
0	133575	12.21	-1
0	134784	12.31	-1
0	135993	12.41	-1
0	137202	12.51	-1
0	138411	12.61	-1
0	139620	12.71	-1
0	140829	12.81	-1
0	142038	12.91	-1
0	143259	13.01	-1
0	144468	13.11	-1
0	145677	13.21	-1
0	146886	13.31	-1
0	148095	13.41	-1
0	149304	13.51	-1
0	150513	13.61	-1
0	151722	13.71	-1
0	152931	13.81	-1
0	154140	13.91	-1
0	155361	14.01	-1
0	156570	14.11	-1
0	157779	14.21	-1
0	158988	14.31	-1
0	160197	14.41	-1
0	161406	14.51	-1
0	162615	14.61	-1
0	163824	14.71	-1
0	165033	14.81	-1
0	166242	14.91	-1
0	167463	15.01	-1
0	168672	15.11	-1
0	169881	15.21	-1
0	171090	15.31	-1
0	172299	15.41	-1
0	173508	15.51	-1
0	174717	15.61	-1
0	175926	15.71	-1
0	177135	15.81	-1
0	178344	15.91	-1
0	179565	16.01	-1
0	180774	16.11	-1
0	181983	16.21	-1
0	183192	16.31	-1
0	184401	16.41	-1
0	185610	16.51	-1
0	186819	16.61	-1
0	188028	16.71	-1
0	189237	16.81	-1
0	190446	16.91	-1
0	191667	17.01	-1
0	192876	17.11	-1
0	194085	17.21	-1
0	195294	17.31	-1
0	196503	17.41	-1
0	197712	17.51	-1
0	198921	17.61	-1
0	200130	17.71	-1
0	201339	17.81	-1
0	202548	17.91	-1
0	203769	18.01	-1
0	204978	18.11	-1
0	206187	18.21	-1
0	207396	18.31	-1
0	208605	18.41	-1
0	209814	18.51	-1
0	211023	18.61	-1
0	212232	18.71	-1
0	213441	18.81	-1
0	214650	18.91	-1
0	215871	19.01	-1
0	217080	19.11	-1
0	218289	19.21	-1
0	219498	19.31	-1
0	220707	19.41	-1
0	221916	19.51	-1
0	223125	19.61	-1
0	224334	19.71	-1
0	225543	19.81	-1
0	226752	19.91	-1
0	227973	20.01	-1
0	229182	20.11	-1
0	230391	20.21	-1
0	231600	20.31	-1
0	232809	20.41	-1
0	234018	20.51	-1
0	235227	20.61	-1
0	236436	20.71	-1
0	237645	20.81	-1
0	238854	20.91	-1
0	240075	21.01	-1
0	241284	21.11	-1
0	242493	21.21	-1
0	243702	21.31	-1
0	244911	21.41	-1
0	246120	21.51	-1
0	247329	21.61	-1
0	248538	21.71	-1
0	249747	21.81	-1
0	250956	21.91	-1
0	252177	22.01	-1
0	253386	22.11	-1
0	254595	22.21	-1
0	255804	22.31	-1
0	257013	22.41	-1
0	258222	22.51	-1
0	259431	22.61	-1
0	260640	22.71	-1
0	261849	22.81	-1
0	263058	22.91	-1
0	264279	23.01	-1
0	265488	23.11	-1
0	266697	23.21	-1
0	267906	23.31	-1
0	269115	23.41	-1
0	270324	23.51	-1
0	271533	23.61	-1
0	272742	23.71	-1
0	273951	23.81	-1
0	275160	23.91	-1
0	276381	24.01	-1
0	277590	24.11	-1
0	278799	24.21	-1
0	280008	24.31	-1
0	281217	24.41	-1
0	282426	24.51	-1
0	283635	24.61	-1
0	284844	24.71	-1
0	286053	24.81	-1
0	287262	24.91	-1
0	288483	25.01	-1
0	289692	25.11	-1
0	290901	25.21	-1
0	292110	25.31	-1
0	293319	25.41	-1
0	294528	25.51	-1
0	295737	25.61	-1
0	296946	25.71	-1
0	298155	25.81	-1
0	299364	25.91	-1
0	300585	26.01	-1
0	301794	26.11	-1
0	303003	26.21	-1
0	304212	26.31	-1
0	305421	26.41	-1
0	306630	26.51	-1
0	307839	26.61	-1
0	309048	26.71	-1
0	310257	26.81	-1
0	311466	26.91	-1
0	312687	27.01	-1
0	313896	27.11	-1
0	315105	27.21	-1
0	316314	27.31	-1
0	317523	27.41	-1
0	318732	27.51	-1
0	319941	27.61	-1
0	321150	27.71	-1
0	322359	27.81	-1
0	323568	27.91	-1
0	324789	28.01	-1
0	325998	28.11	-1
0	327207	28.21	-1
0	328416	28.31	-1
0	329625	28.41	-1
0	330834	28.51	-1
0	332043	28.61	-1
0	333252	28.71	-1
0	334461	28.81	-1
0	335670	28.91	-1
0	336891	29.01	-1
0	338100	29.11	-1
0	339309	29.21	-1
0	340518	29.31	-1
0	341727	29.41	-1
0	342936	29.51	-1
0	344145	29.61	-1
0	345354	29.71	-1
0	346563	29.81	-1
0	347772	29.91	-1
0	348993	30.01	-1
0	350202	30.11	-1
0	351411	30.21	-1
0	352620	30.31	-1
0	353829	30.41	-1
0	355038	30.51	-1
0	356247	30.61	-1
0	357456	30.71	-1
0	358665	30.81	-1
0	359874	30.91	-1
0	361095	31.01	-1
0	362304	31.11	-1
0	363513	31.21	-1
0	364722	31.31	-1
0	365931	31.41	-1
0	367140	31.51	-1
0	368349	31.61	-1
0	369558	31.71	-1
0	370767	31.81	-1
0	371976	31.91	-1
0	373197	32.01	-1
0	374406	32.11	-1
0	375615	32.21	-1
0	376824	32.31	-1
0	378033	32.41	-1
0	379242	32.51	-1
0	380451	32.61	-1
0	381660	32.71	-1
0	382869	32.81	-1
0	384078	32.91	-1
0	385299	33.01	-1
0	386508	33.11	-1
0	387717	33.21	-1
0	388926	33.31	-1
0	390135	33.41	-1
0	391344	33.51	-1
0	392553	33.61	-1
0	393762	33.71	-1
0	394971	33.81	-1
0	396180	33.91	-1
0	397401	34.01	-1
0	398610	34.11	-1
0	399819	34.21	-1
0	401028	34.31	-1
0	402237	34.41	-1
0	403446	34.51	-1
0	404655	34.61	-1
0	405864	34.71	-1
0	407073	34.81	-1
0	408282	34.91	-1
0	409503	35.01	-1
0	410712	35.11	-1
0	411921	35.21	-1
0	413130	35.31	-1
0	414339	35.41	-1
0	415548	35.51	-1
0	416757	35.61	-1
0	417966	35.71	-1
0	419175	35.81	-1
0	420384	35.91	-1
0	421605	36.01	-1
0	422814	36.11	-1
0	424023	36.21	-1
0	425232	36.31	-1
0	426441	36.41	-1
0	427650	36.51	-1
0	428859	36.61	-1
0	430068	36.71	-1
0	431277	36.81	-1
0	432486	36.91	-1
0	433707	37.01	-1
0	434916	37.11	-1
0	436125	37.21	-1
0	437334	37.31	-1
0	438543	37.41	-1
0	439752	37.51	-1
0	440961	37.61	-1
0	442170	37.71	-1
0	443379	37.81	-1
0	444588	37.91	-1
0	445809	38.01	-1
0	447018	38.11	-1
0	448227	38.21	-1
0	449436	38.31	-1
0	450645	38.41	-1
0	451854	38.51	-1
0	453063	38.61	-1
0	454272	38.71	-1
0	455481	38.81	-1
0	456690	38.91	-1
0	457911	39.01	-1
0	459120	39.11	-1
0	460329	39.21	-1
0	461538	39.31	-1
0	462747	39.41	-1
0	463956	39.51	-1
0	465165	39.61	-1
0	466374	39.71	-1
0	467583	39.81	-1
0	468792	39.91	-1
0	470013	40.01	-1
0	471222	40.11	-1
0	472431	40.21	-1
0	473640	40.31	-1
0	474849	40.41	-1
0	476058	40.51	-1
0	477267	40.61	-1
0	478476	40.71	-1
0	479685	40.81	-1
0	480894	40.91	-1
0	482115	41.01	-1
0	483324	41.11	-1
0	484533	41.21	-1
0	485742	41.31	-1
0	486951	41.41	-1
0	488160	41.51	-1
0	489369	41.61	-1
0	490578	41.71	-1
0	491787	41.81	-1
0	492996	41.91	-1
0	494217	42.01	-1
0	495426	42.11	-1
0	496635	42.21	-1
0	497844	42.31	-1
0	499053	42.41	-1
0	500262	42.51	-1
0	501471	42.61	-1
0	502813	42.71	-1
0	504021	42.81	-1
0	505229	42.91	-1
0	506449	43.01	-1
0	507657	43.11	-1
0	508865	43.21	-1
0	510073	43.31	-1
0	511281	43.41	-1
0	512489	43.51	-1
0	513697	43.61	-1
0	514905	43.71	-1
0	516113	43.81	-1
0	517321	43.91	-1
0	518541	44.01	-1
0	519749	44.11	-1
0	520957	44.21	-1
0	522165	44.31	-1
0	523373	44.41	-1
0	524581	44.51	-1
0	525789	44.61	-1
0	526997	44.71	-1
0	528205	44.81	-1
0	529413	44.91	-1
0	530633	45.01	-1
0	531841	45.11	-1
0	533049	45.21	-1
0	534257	45.31	-1
0	535465	45.41	-1
0	536673	45.51	-1
0	537881	45.61	-1
0	539089	45.71	-1
0	540297	45.81	-1
0	541505	45.91	-1
0	542725	46.01	-1
0	543933	46.11	-1
0	545141	46.21	-1
0	546349	46.31	-1
0	547557	46.41	-1
0	548765	46.51	-1
0	549973	46.61	-1
0	551181	46.71	-1
0	552389	46.81	-1
0	553597	46.91	-1
0	554817	47.01	-1
0	556025	47.11	-1
0	557233	47.21	-1
0	558441	47.31	-1
0	559649	47.41	-1
0	560857	47.51	-1
0	562065	47.61	-1
0	563273	47.71	-1
0	564481	47.81	-1
0	565689	47.91	-1
0	566909	48.01	-1
0	568117	48.11	-1
0	569325	48.21	-1
0	570533	48.31	-1
0	571741	48.41	-1
0	573082	48.51	-1
0	574289	48.61	-1
0	575496	48.71	-1
0	576703	48.81	-1
0	577910	48.91	-1
0	579129	49.01	-1
0	580336	49.11	-1
0	581543	49.21	-1
0	582750	49.31	-1
0	583957	49.41	-1
0	585164	49.51	-1
0	586371	49.61	-1
0	587578	49.71	-1
0	588785	49.81	-1
0	589992	49.91	-1
0	591211	50.01	-1
0	592418	50.11	-1
0	593625	50.21	-1
0	594832	50.31	-1
0	596039	50.41	-1
0	597246	50.51	-1
0	598453	50.61	-1
0	599660	50.71	-1
0	600867	50.81	-1
0	602074	50.91	-1
0	603293	51.01	-1
0	604500	51.11	-1
0	605707	51.21	-1
0	606914	51.31	-1
0	608121	51.41	-1
0	609328	51.51	-1
0	610535	51.61	-1
0	611742	51.71	-1
0	612949	51.81	-1
0	614156	51.91	-1
0	615375	52.01	-1
0	616582	52.11	-1
0	617789	52.21	-1
0	618996	52.31	-1
0	620203	52.41	-1
0	621410	52.51	-1
0	622617	52.61	-1
0	623824	52.71	-1
0	625031	52.81	-1
0	626238	52.91	-1
0	627457	53.01	-1
0	628664	53.11	-1
0	629871	53.21	-1
0	631078	53.31	-1
0	632285	53.41	-1
0	633492	53.51	-1
0	634699	53.61	-1
0	635906	53.71	-1
0	637246	53.81	-1
0	638452	53.91	-1
0	639670	54.01	-1
0	640876	54.11	-1
0	642082	54.21	-1
0	643288	54.31	-1
0	644494	54.41	-1
0	645700	54.51	-1
0	646906	54.61	-1
0	648112	54.71	-1
0	649318	54.81	-1
0	650524	54.91	-1
0	651742	55.01	-1
0	652948	55.11	-1
0	654154	55.21	-1
0	655360	55.31	-1
0	656566	55.41	-1
0	657772	55.51	-1
0	658978	55.61	-1
0	660184	55.71	-1
0	661390	55.81	-1
0	662596	55.91	-1
0	663814	56.01	-1
0	665020	56.11	-1
0	666226	56.21	-1
0	667432	56.31	-1
0	668638	56.41	-1
0	669844	56.51	-1
0	671050	56.61	-1
0	672256	56.71	-1
0	673462	56.81	-1
0	674668	56.91	-1
0	675886	57.01	-1
0	677092	57.11	-1
0	678298	57.21	-1
0	679504	57.31	-1
0	680710	57.41	-1
0	681916	57.51	-1
0	683122	57.61	-1
0	684328	57.71	-1
0	685534	57.81	-1
0	686740	57.91	-1
0	687958	58.01	-1
0	689164	58.11	-1
0	690370	58.21	-1
0	691576	58.31	-1
0	692782	58.41	-1
0	693988	58.51	-1
0	695194	58.61	-1
0	696554	58.71	-1
0	697759	58.81	-1
0	698964	58.91	-1
0	700181	59.01	-1
0	701386	59.11	-1
0	702591	59.21	-1
0	703796	59.31	-1
0	705001	59.41	-1
0	706206	59.51	-1
0	707411	59.61	-1
0	708616	59.71	-1
0	709821	59.81	-1
0	711026	59.91	-1
0	712243	60.01	-1
0	713448	60.11	-1
0	714653	60.21	-1
0	715858	60.31	-1
0	717063	60.41	-1
0	718268	60.51	-1
0	719473	60.61	-1
0	720678	60.71	-1
0	721883	60.81	-1
0	723088	60.91	-1
0	724305	61.01	-1
0	725510	61.11	-1
0	726715	61.21	-1
0	727920	61.31	-1
0	729125	61.41	-1
0	730330	61.51	-1
0	731535	61.61	-1
0	732740	61.71	-1
0	733945	61.81	-1
0	735150	61.91	-1
0	736367	62.01	-1
0	737572	62.11	-1
0	738777	62.21	-1
0	739982	62.31	-1
0	741187	62.41	-1
0	742392	62.51	-1
0	743597	62.61	-1
0	744802	62.71	-1
0	746007	62.81	-1
0	747212	62.91	-1
0	748429	63.01	-1
0	749634	63.11	-1
0	750839	63.21	-1
0	752177	63.31	-1
0	753381	63.41	-1
0	754585	63.51	-1
0	755789	63.61	-1
0	756993	63.71	-1
0	758197	63.81	-1
0	759401	63.91	-1
0	760617	64.01	-1
0	761821	64.11	-1
0	763025	64.21	-1
0	764229	64.31	-1
0	765433	64.41	-1
0	766637	64.51	-1
0	767841	64.61	-1
0	769045	64.71	-1
0	770249	64.81	-1
0	771453	64.91	-1
0	772669	65.01	-1
0	773873	65.11	-1
0	775077	65.21	-1
0	776281	65.31	-1
0	777485	65.41	-1
0	778689	65.51	-1
0	779893	65.61	-1
0	781097	65.71	-1
0	782301	65.81	-1
0	783505	65.91	-1
0	784721	66.01	-1
0	785925	66.11	-1
0	787129	66.21	-1
0	788333	66.31	-1
0	789537	66.41	-1
0	790741	66.51	-1
0	791945	66.61	-1
0	793149	66.71	-1
0	794353	66.81	-1
0	795557	66.91	-1
0	796773	67.01	-1
0	797977	67.11	-1
0	799181	67.21	-1
0	800385	67.31	-1
0	801589	67.41	-1
0	802793	67.51	-1
0	803997	67.61	-1
0	805334	67.71	-1
0	806537	67.81	-1
0	807740	67.91	-1
0	808955	68.01	-1
0	810158	68.11	-1
0	811361	68.21	-1
0	812564	68.31	-1
0	813767	68.41	-1
0	814970	68.51	-1
0	816173	68.61	-1
0	817376	68.71	-1
0	818579	68.81	-1
0	819782	68.91	-1
0	820997	69.01	-1
0	822200	69.11	-1
0	823403	69.21	-1
0	824606	69.31	-1
0	825809	69.41	-1
0	827012	69.51	-1
0	828215	69.61	-1
0	829418	69.71	-1
0	830621	69.81	-1
0	831824	69.91	-1
0	833039	70.01	-1
0	834242	70.11	-1
0	835445	70.21	-1
0	836648	70.31	-1
0	837851	70.41	-1
0	839054	70.51	-1
0	840257	70.61	-1
0	841460	70.71	-1
0	842663	70.81	-1
0	843866	70.91	-1
0	845081	71.01	-1
0	846284	71.11	-1
0	847487	71.21	-1
0	848690	71.31	-1
0	849893	71.41	-1
0	851096	71.51	-1
0	852299	71.61	-1
0	853502	71.71	-1
0	854705	71.81	-1
0	855908	71.91	-1
0	857256	72.01	-1
0	858458	72.11	-1
0	859660	72.21	-1
0	860862	72.31	-1
0	862064	72.41	-1
0	863266	72.51	-1
0	864468	72.61	-1
0	865670	72.71	-1
0	866872	72.81	-1
0	868074	72.91	-1
0	869288	73.01	-1
0	870490	73.11	-1
0	871692	73.21	-1
0	872894	73.31	-1
0	874096	73.41	-1
0	875298	73.51	-1
0	876500	73.61	-1
0	877702	73.71	-1
0	878904	73.81	-1
0	880106	73.91	-1
0	881320	74.01	-1
0	882522	74.11	-1
0	883724	74.21	-1
0	884926	74.31	-1
0	886128	74.41	-1
0	887330	74.51	-1
0	888532	74.61	-1
0	889734	74.71	-1
0	890936	74.81	-1
0	892138	74.91	-1
0	893352	75.01	-1
0	894554	75.11	-1
0	895756	75.21	-1
0	896958	75.31	-1
0	898160	75.41	-1
0	899362	75.51	-1
0	900564	75.61	-1
0	901766	75.71	-1
0	902968	75.81	-1
0	904170	75.91	-1
0	905384	76.01	-1
0	906586	76.11	-1
0	907921	76.21	-1
0	909122	76.31	-1
0	910323	76.41	-1
0	911524	76.51	-1
0	912725	76.61	-1
0	913926	76.71	-1
0	915127	76.81	-1
0	916328	76.91	-1
0	917541	77.01	-1
0	918742	77.11	-1
0	919943	77.21	-1
0	921144	77.31	-1
0	922345	77.41	-1
0	923546	77.51	-1
0	924747	77.61	-1
0	925948	77.71	-1
0	927149	77.81	-1
0	928350	77.91	-1
0	929563	78.01	-1
0	930764	78.11	-1
0	931965	78.21	-1
0	933166	78.31	-1
0	934367	78.41	-1
0	935568	78.51	-1
0	936769	78.61	-1
0	937970	78.71	-1
0	939171	78.81	-1
0	940372	78.91	-1
0	941585	79.01	-1
0	942786	79.11	-1
0	943987	79.21	-1
0	945188	79.31	-1
0	946389	79.41	-1
0	947590	79.51	-1
0	948791	79.61	-1
0	949992	79.71	-1
0	951193	79.81	-1
0	952394	79.91	-1
0	953607	80.01	-1
0	954808	80.11	-1
0	956009	80.21	-1
0	957343	80.31	-1
0	958543	80.41	-1
0	959743	80.51	-1
0	960943	80.61	-1
0	962143	80.71	-1
0	963343	80.81	-1
0	964543	80.91	-1
0	965755	81.01	-1
0	966955	81.11	-1
0	968155	81.21	-1
0	969355	81.31	-1
0	970555	81.41	-1
0	971755	81.51	-1
0	972955	81.61	-1
0	974155	81.71	-1
0	975355	81.81	-1
0	976555	81.91	-1
0	977767	82.01	-1
0	978967	82.11	-1
0	980167	82.21	-1
0	981367	82.31	-1
0	982567	82.41	-1
0	983767	82.51	-1
0	984967	82.61	-1
0	986167	82.71	-1
0	987367	82.81	-1
0	988567	82.91	-1
0	989779	83.01	-1
0	990979	83.11	-1
0	992179	83.21	-1
0	993379	83.31	-1
0	994579	83.41	-1
0	995779	83.51	-1
0	996979	83.61	-1
0	998179	83.71	-1
0	999379	83.81	-1
0	1000579	83.91	-1
0	1001791	84.01	-1
0	1002991	84.11	-1
0	1004191	84.21	-1
0	1005391	84.31	-1
0	1006724	84.41	-1
0	1007923	84.51	-1
0	1009122	84.61	-1
0	1010321	84.71	-1
0	1011520	84.81	-1
0	1012719	84.91	-1
0	1013930	85.01	-1
0	1015129	85.11	-1
0	1016328	85.21	-1
0	1017527	85.31	-1
0	1018726	85.41	-1
0	1019925	85.51	-1
0	1021124	85.61	-1
0	1022323	85.71	-1
0	1023522	85.81	-1
0	1024721	85.91	-1
0	1025932	86.01	-1
0	1027131	86.11	-1
0	1028330	86.21	-1
0	1029529	86.31	-1
0	1030728	86.41	-1
0	1031927	86.51	-1
0	1033126	86.61	-1
0	1034325	86.71	-1
0	1035524	86.81	-1
0	1036723	86.91	-1
0	1037934	87.01	-1
0	1039133	87.11	-1
0	1040332	87.21	-1
0	1041531	87.31	-1
0	1042730	87.41	-1
0	1043929	87.51	-1
0	1045128	87.61	-1
0	1046327	87.71	-1
0	1047526	87.81	-1
0	1048725	87.91	-1
0	1049936	88.01	-1
0	1051135	88.11	-1
0	1052334	88.21	-1
0	1055054	88.31	-1
0	1056252	88.41	-1
0	1057450	88.51	-1
0	1058648	88.61	-1
0	1059846	88.71	-1
0	1061044	88.81	-1
0	1062242	88.91	-1
0	1063452	89.01	-1
0	1064650	89.11	-1
0	1065848	89.21	-1
0	1067046	89.31	-1
0	1068244	89.41	-1
0	1069442	89.51	-1
0	1070640	89.61	-1
0	1071838	89.71	-1
0	1073036	89.81	-1
0	1074234	89.91	-1
0	1075444	90.01	-1
0	1076642	90.11	-1
0	1077840	90.21	-1
0	1079038	90.31	-1
0	1080236	90.41	-1
0	1081434	90.51	-1
0	1082632	90.61	-1
0	1083830	90.71	-1
0	1085028	90.81	-1
0	1086226	90.91	-1
0	1087436	91.01	-1
0	1088634	91.11	-1
0	1089832	91.21	-1
0	1091030	91.31	-1
0	1092228	91.41	-1
0	1093426	91.51	-1
0	1094624	91.61	-1
0	1095822	91.71	-1
0	1097020	91.81	-1
0	1098218	91.91	-1
0	1099428	92.01	-1
0	1100626	92.11	-1
0	1101824	92.21	-1
0	1103022	92.31	-1
0	1104220	92.41	-1
0	1105418	92.51	-1
0	1106616	92.61	-1
0	1107814	92.71	-1
0	1109012	92.81	-1
0	1110210	92.91	-1
0	1111420	93.01	-1
0	1112618	93.11	-1
0	1113816	93.21	-1
0	1115014	93.31	-1
0	1116212	93.41	-1
0	1117410	93.51	-1
0	1118608	93.61	-1
0	1119806	93.71	-1
0	1121004	93.81	-1
0	1122202	93.91	-1
0	1123412	94.01	-1
0	1124610	94.11	-1
0	1125808	94.21	-1
0	1127006	94.31	-1
0	1128204	94.41	-1
0	1129402	94.51	-1
0	1130600	94.61	-1
0	1131798	94.71	-1
0	1132996	94.81	-1
0	1134194	94.91	-1
0	1135404	95.01	-1
0	1136602	95.11	-1
0	1137800	95.21	-1
0	1138998	95.31	-1
0	1140196	95.41	-1
0	1141394	95.51	-1
0	1142592	95.61	-1
0	1143790	95.71	-1
0	1144988	95.81	-1
0	1146186	95.91	-1
0	1147396	96.01	-1
0	1148594	96.11	-1
0	1149792	96.21	-1
0	1150990	96.31	-1
0	1152188	96.41	-1
0	1153386	96.51	-1
0	1154584	96.61	-1
0	1155782	96.71	-1
0	1156980	96.81	-1
0	1158178	96.91	-1
0	1159388	97.01	-1
0	1160586	97.11	-1
0	1161784	97.21	-1
0	1162982	97.31	-1
0	1164180	97.41	-1
0	1165378	97.51	-1
0	1166576	97.61	-1
0	1167774	97.71	-1
0	1168972	97.81	-1
0	1170170	97.91	-1
0	1171380	98.01	-1
0	1172578	98.11	-1
0	1173776	98.21	-1
0	1174974	98.31	-1
0	1176172	98.41	-1
0	1177370	98.51	-1
0	1178568	98.61	-1
0	1179766	98.71	-1
0	1180964	98.81	-1
0	1182162	98.91	-1
0	1183372	99.01	-1
0	1184570	99.11	-1
0	1185768	99.21	-1
0	1186966	99.31	-1
0	1188164	99.41	-1
0	1189362	99.51	-1
0	1190560	99.61	-1
0	1191758	99.71	-1
0	1192956	99.81	-1
0	1194154	99.91	-1
1	113	1.11	0
1	1311	1.21	0
1	2509	1.31	0
1	3707	1.41	0
1	4905	1.51	0
1	6103	1.61	0
1	7301	1.71	0
1	8499	1.81	0
1	9697	1.91	0
1	10907	2.01	0
1	12105	2.11	0
1	13303	2.21	0
1	14501	2.31	0
1	15699	2.41	0
1	16897	2.51	0
1	18095	2.61	0
1	19293	2.71	0
1	20491	2.81	0
1	21689	2.91	0
1	22899	3.01	0
1	24097	3.11	0
1	25295	3.21	0
1	26493	3.31	0
1	27691	3.41	0
1	28889	3.51	0
1	30087	3.61	0
1	31285	3.71	0
1	32483	3.81	0
1	33681	3.91	0
1	34891	4.01	0
1	36089	4.11	0
1	37287	4.21	0
1	38485	4.31	0
1	39683	4.41	0
1	40881	4.51	0
1	42079	4.61	0
1	43277	4.71	0
1	44475	4.81	0
1	45673	4.91	0
1	46883	5.01	0
1	48081	5.11	0
1	49279	5.21	0
1	50477	5.31	0
1	51675	5.41	0
1	52873	5.51	0
1	54071	5.61	0
1	55269	5.71	0
1	56467	5.81	0
1	57665	5.91	0
1	58875	6.01	0
1	60073	6.11	0
1	61271	6.21	0
1	62469	6.31	0
1	63667	6.41	0
1	64865	6.51	0
1	66063	6.61	0
1	67261	6.71	0
1	68459	6.81	0
1	69657	6.91	0
1	70867	7.01	0
1	72065	7.11	0
1	73263	7.21	0
1	74461	7.31	0
1	75659	7.41	0
1	76857	7.51	0
1	78055	7.61	0
1	79253	7.71	0
1	80451	7.81	0
1	81649	7.91	0
1	82859	8.01	0
1	84057	8.11	0
1	85255	8.21	0
1	86453	8.31	0
1	87651	8.41	0
1	88849	8.51	0
1	90047	8.61	0
1	91245	8.71	0
1	92443	8.81	0
1	93641	8.91	0
1	94851	9.01	0
1	96049	9.11	0
1	97247	9.21	0
1	98445	9.31	0
1	99643	9.41	0
1	100841	9.51	0
1	102039	9.61	0
1	103237	9.71	0
1	104435	9.81	0
1	105633	9.91	0
1	106953	10.01	0
1	108162	10.11	0
1	109371	10.21	0
1	110580	10.31	0
1	111789	10.41	0
1	112998	10.51	0
1	114207	10.61	0
1	115416	10.71	0
1	116625	10.81	0
1	117834	10.91	0
1	119055	11.01	0
1	120264	11.11	0
1	121473	11.21	0
1	122682	11.31	0
1	123891	11.41	0
1	125100	11.51	0
1	126309	11.61	0
1	127518	11.71	0
1	128727	11.81	0
1	129936	11.91	0
1	131157	12.01	0
1	132366	12.11	0
1	133575	12.21	0
1	134784	12.31	0
1	135993	12.41	0
1	137202	12.51	0
1	138411	12.61	0
1	139620	12.71	0
1	140829	12.81	0
1	142038	12.91	0
1	143259	13.01	0
1	144468	13.11	0
1	145677	13.21	0
1	146886	13.31	0
1	148095	13.41	0
1	149304	13.51	0
1	150513	13.61	0
1	151722	13.71	0
1	152931	13.81	0
1	154140	13.91	0
1	155361	14.01	0
1	156570	14.11	0
1	157779	14.21	0
1	158988	14.31	0
1	160197	14.41	0
1	161406	14.51	0
1	162615	14.61	0
1	163824	14.71	0
1	165033	14.81	0
1	166242	14.91	0
1	167463	15.01	0
1	168672	15.11	0
1	169881	15.21	0
1	171090	15.31	0
1	172299	15.41	0
1	173508	15.51	0
1	174717	15.61	0
1	175926	15.71	0
1	177135	15.81	0
1	178344	15.91	0
1	179565	16.01	0
1	180774	16.11	0
1	181983	16.21	0
1	183192	16.31	0
1	184401	16.41	0
1	185610	16.51	0
1	186819	16.61	0
1	188028	16.71	0
1	189237	16.81	0
1	190446	16.91	0
1	191667	17.01	0
1	192876	17.11	0
1	194085	17.21	0
1	195294	17.31	0
1	196503	17.41	0
1	197712	17.51	0
1	198921	17.61	0
1	200130	17.71	0
1	201339	17.81	0
1	202548	17.91	0
1	203769	18.01	0
1	204978	18.11	0
1	206187	18.21	0
1	207396	18.31	0
1	208605	18.41	0
1	209814	18.51	0
1	211023	18.61	0
1	212232	18.71	0
1	213441	18.81	0
1	214650	18.91	0
1	215871	19.01	0
1	217080	19.11	0
1	218289	19.21	0
1	219498	19.31	0
1	220707	19.41	0
1	221916	19.51	0
1	223125	19.61	0
1	224334	19.71	0
1	225543	19.81	0
1	226752	19.91	0
1	227973	20.01	0
1	229182	20.11	0
1	230391	20.21	0
1	231600	20.31	0
1	232809	20.41	0
1	234018	20.51	0
1	235227	20.61	0
1	236436	20.71	0
1	237645	20.81	0
1	238854	20.91	0
1	240075	21.01	0
1	241284	21.11	0
1	242493	21.21	0
1	243702	21.31	0
1	244911	21.41	0
1	246120	21.51	0
1	247329	21.61	0
1	248538	21.71	0
1	249747	21.81	0
1	250956	21.91	0
1	252177	22.01	0
1	253386	22.11	0
1	254595	22.21	0
1	255804	22.31	0
1	257013	22.41	0
1	258222	22.51	0
1	259431	22.61	0
1	260640	22.71	0
1	261849	22.81	0
1	263058	22.91	0
1	264279	23.01	0
1	265488	23.11	0
1	266697	23.21	0
1	267906	23.31	0
1	269115	23.41	0
1	270324	23.51	0
1	271533	23.61	0
1	272742	23.71	0
1	273951	23.81	0
1	275160	23.91	0
1	276381	24.01	0
1	277590	24.11	0
1	278799	24.21	0
1	280008	24.31	0
1	281217	24.41	0
1	282426	24.51	0
1	283635	24.61	0
1	284844	24.71	0
1	286053	24.81	0
1	287262	24.91	0
1	288483	25.01	0
1	289692	25.11	0
1	290901	25.21	0
1	292110	25.31	0
1	293319	25.41	0
1	294528	25.51	0
1	295737	25.61	0
1	296946	25.71	0
1	298155	25.81	0
1	299364	25.91	0
1	300585	26.01	0
1	301794	26.11	0
1	303003	26.21	0
1	304212	26.31	0
1	305421	26.41	0
1	306630	26.51	0
1	307839	26.61	0
1	309048	26.71	0
1	310257	26.81	0
1	311466	26.91	0
1	312687	27.01	0
1	313896	27.11	0
1	315105	27.21	0
1	316314	27.31	0
1	317523	27.41	0
1	318732	27.51	0
1	319941	27.61	0
1	321150	27.71	0
1	322359	27.81	0
1	323568	27.91	0
1	324789	28.01	0
1	325998	28.11	0
1	327207	28.21	0
1	328416	28.31	0
1	329625	28.41	0
1	330834	28.51	0
1	332043	28.61	0
1	333252	28.71	0
1	334461	28.81	0
1	335670	28.91	0
1	336891	29.01	0
1	338100	29.11	0
1	339309	29.21	0
1	340518	29.31	0
1	341727	29.41	0
1	342936	29.51	0
1	344145	29.61	0
1	345354	29.71	0
1	346563	29.81	0
1	347772	29.91	0
1	348993	30.01	0
1	350202	30.11	0
1	351411	30.21	0
1	352620	30.31	0
1	353829	30.41	0
1	355038	30.51	0
1	356247	30.61	0
1	357456	30.71	0
1	358665	30.81	0
1	359874	30.91	0
1	361095	31.01	0
1	362304	31.11	0
1	363513	31.21	0
1	364722	31.31	0
1	365931	31.41	0
1	367140	31.51	0
1	368349	31.61	0
1	369558	31.71	0
1	370767	31.81	0
1	371976	31.91	0
1	373197	32.01	0
1	374406	32.11	0
1	375615	32.21	0
1	376824	32.31	0
1	378033	32.41	0
1	379242	32.51	0
1	380451	32.61	0
1	381660	32.71	0
1	382869	32.81	0
1	384078	32.91	0
1	385299	33.01	0
1	386508	33.11	0
1	387717	33.21	0
1	388926	33.31	0
1	390135	33.41	0
1	391344	33.51	0
1	392553	33.61	0
1	393762	33.71	0
1	394971	33.81	0
1	396180	33.91	0
1	397401	34.01	0
1	398610	34.11	0
1	399819	34.21	0
1	401028	34.31	0
1	402237	34.41	0
1	403446	34.51	0
1	404655	34.61	0
1	405864	34.71	0
1	407073	34.81	0
1	408282	34.91	0
1	409503	35.01	0
1	410712	35.11	0
1	411921	35.21	0
1	413130	35.31	0
1	414339	35.41	0
1	415548	35.51	0
1	416757	35.61	0
1	417966	35.71	0
1	419175	35.81	0
1	420384	35.91	0
1	421605	36.01	0
1	422814	36.11	0
1	424023	36.21	0
1	425232	36.31	0
1	426441	36.41	0
1	427650	36.51	0
1	428859	36.61	0
1	430068	36.71	0
1	431277	36.81	0
1	432486	36.91	0
1	433707	37.01	0
1	434916	37.11	0
1	436125	37.21	0
1	437334	37.31	0
1	438543	37.41	0
1	439752	37.51	0
1	440961	37.61	0
1	442170	37.71	0
1	443379	37.81	0
1	444588	37.91	0
1	445809	38.01	0
1	447018	38.11	0
1	448227	38.21	0
1	449436	38.31	0
1	450645	38.41	0
1	451854	38.51	0
1	453063	38.61	0
1	454272	38.71	0
1	455481	38.81	0
1	456690	38.91	0
1	457911	39.01	0
1	459120	39.11	0
1	460329	39.21	0
1	461538	39.31	0
1	462747	39.41	0
1	463956	39.51	0
1	465165	39.61	0
1	466374	39.71	0
1	467583	39.81	0
1	468792	39.91	0
1	470013	40.01	0
1	471222	40.11	0
1	472431	40.21	0
1	473640	40.31	0
1	474849	40.41	0
1	476058	40.51	0
1	477267	40.61	0
1	478476	40.71	0
1	479685	40.81	0
1	480894	40.91	0
1	482115	41.01	0
1	483324	41.11	0
1	484533	41.21	0
1	485742	41.31	0
1	486951	41.41	0
1	488160	41.51	0
1	489369	41.61	0
1	490578	41.71	0
1	491787	41.81	0
1	492996	41.91	0
1	494217	42.01	0
1	495426	42.11	0
1	496635	42.21	0
1	497844	42.31	0
1	499053	42.41	0
1	500262	42.51	0
1	501471	42.61	0
1	502813	42.71	0
1	504021	42.81	0
1	505229	42.91	0
1	506449	43.01	0
1	507657	43.11	0
1	508865	43.21	0
1	510073	43.31	0
1	511281	43.41	0
1	512489	43.51	0
1	513697	43.61	0
1	514905	43.71	0
1	516113	43.81	0
1	517321	43.91	0
1	518541	44.01	0
1	519749	44.11	0
1	520957	44.21	0
1	522165	44.31	0
1	523373	44.41	0
1	524581	44.51	0
1	525789	44.61	0
1	526997	44.71	0
1	528205	44.81	0
1	529413	44.91	0
1	530633	45.01	0
1	531841	45.11	0
1	533049	45.21	0
1	534257	45.31	0
1	535465	45.41	0
1	536673	45.51	0
1	537881	45.61	0
1	539089	45.71	0
1	540297	45.81	0
1	541505	45.91	0
1	542725	46.01	0
1	543933	46.11	0
1	545141	46.21	0
1	546349	46.31	0
1	547557	46.41	0
1	548765	46.51	0
1	549973	46.61	0
1	551181	46.71	0
1	552389	46.81	0
1	553597	46.91	0
1	554817	47.01	0
1	556025	47.11	0
1	557233	47.21	0
1	558441	47.31	0
1	559649	47.41	0
1	560857	47.51	0
1	562065	47.61	0
1	563273	47.71	0
1	564481	47.81	0
1	565689	47.91	0
1	566909	48.01	0
1	568117	48.11	0
1	569325	48.21	0
1	570533	48.31	0
1	571741	48.41	0
1	573082	48.51	0
1	574289	48.61	0
1	575496	48.71	0
1	576703	48.81	0
1	577910	48.91	0
1	579129	49.01	0
1	580336	49.11	0
1	581543	49.21	0
1	582750	49.31	0
1	583957	49.41	0
1	585164	49.51	0
1	586371	49.61	0
1	587578	49.71	0
1	588785	49.81	0
1	589992	49.91	0
1	591211	50.01	0
1	592418	50.11	0
1	593625	50.21	0
1	594832	50.31	0
1	596039	50.41	0
1	597246	50.51	0
1	598453	50.61	0
1	599660	50.71	0
1	600867	50.81	0
1	602074	50.91	0
1	603293	51.01	0
1	604500	51.11	0
1	605707	51.21	0
1	606914	51.31	0
1	608121	51.41	0
1	609328	51.51	0
1	610535	51.61	0
1	611742	51.71	0
1	612949	51.81	0
1	614156	51.91	0
1	615375	52.01	0
1	616582	52.11	0
1	617789	52.21	0
1	618996	52.31	0
1	620203	52.41	0
1	621410	52.51	0
1	622617	52.61	0
1	623824	52.71	0
1	625031	52.81	0
1	626238	52.91	0
1	627457	53.01	0
1	628664	53.11	0
1	629871	53.21	0
1	631078	53.31	0
1	632285	53.41	0
1	633492	53.51	0
1	634699	53.61	0
1	635906	53.71	0
1	637246	53.81	0
1	638452	53.91	0
1	639670	54.01	0
1	640876	54.11	0
1	642082	54.21	0
1	643288	54.31	0
1	644494	54.41	0
1	645700	54.51	0
1	646906	54.61	0
1	648112	54.71	0
1	649318	54.81	0
1	650524	54.91	0
1	651742	55.01	0
1	652948	55.11	0
1	654154	55.21	0
1	655360	55.31	0
1	656566	55.41	0
1	657772	55.51	0
1	658978	55.61	0
1	660184	55.71	0
1	661390	55.81	0
1	662596	55.91	0
1	663814	56.01	0
1	665020	56.11	0
1	666226	56.21	0
1	667432	56.31	0
1	668638	56.41	0
1	669844	56.51	0
1	671050	56.61	0
1	672256	56.71	0
1	673462	56.81	0
1	674668	56.91	0
1	675886	57.01	0
1	677092	57.11	0
1	678298	57.21	0
1	679504	57.31	0
1	680710	57.41	0
1	681916	57.51	0
1	683122	57.61	0
1	684328	57.71	0
1	685534	57.81	0
1	686740	57.91	0
1	687958	58.01	0
1	689164	58.11	0
1	690370	58.21	0
1	691576	58.31	0
1	692782	58.41	0
1	693988	58.51	0
1	695194	58.61	0
1	696554	58.71	0
1	697759	58.81	0
1	698964	58.91	0
1	700181	59.01	0
1	701386	59.11	0
1	702591	59.21	0
1	703796	59.31	0
1	705001	59.41	0
1	706206	59.51	0
1	707411	59.61	0
1	708616	59.71	0
1	709821	59.81	0
1	711026	59.91	0
1	712243	60.01	0
1	713448	60.11	0
1	714653	60.21	0
1	715858	60.31	0
1	717063	60.41	0
1	718268	60.51	0
1	719473	60.61	0
1	720678	60.71	0
1	721883	60.81	0
1	723088	60.91	0
1	724305	61.01	0
1	725510	61.11	0
1	726715	61.21	0
1	727920	61.31	0
1	729125	61.41	0
1	730330	61.51	0
1	731535	61.61	0
1	732740	61.71	0
1	733945	61.81	0
1	735150	61.91	0
1	736367	62.01	0
1	737572	62.11	0
1	738777	62.21	0
1	739982	62.31	0
1	741187	62.41	0
1	742392	62.51	0
1	743597	62.61	0
1	744802	62.71	0
1	746007	62.81	0
1	747212	62.91	0
1	748429	63.01	0
1	749634	63.11	0
1	750839	63.21	0
1	752177	63.31	0
1	753381	63.41	0
1	754585	63.51	0
1	755789	63.61	0
1	756993	63.71	0
1	758197	63.81	0
1	759401	63.91	0
1	760617	64.01	0
1	761821	64.11	0
1	763025	64.21	0
1	764229	64.31	0
1	765433	64.41	0
1	766637	64.51	0
1	767841	64.61	0
1	769045	64.71	0
1	770249	64.81	0
1	771453	64.91	0
1	772669	65.01	0
1	773873	65.11	0
1	775077	65.21	0
1	776281	65.31	0
1	777485	65.41	0
1	778689	65.51	0
1	779893	65.61	0
1	781097	65.71	0
1	782301	65.81	0
1	783505	65.91	0
1	784721	66.01	0
1	785925	66.11	0
1	787129	66.21	0
1	788333	66.31	0
1	789537	66.41	0
1	790741	66.51	0
1	791945	66.61	0
1	793149	66.71	0
1	794353	66.81	0
1	795557	66.91	0
1	796773	67.01	0
1	797977	67.11	0
1	799181	67.21	0
1	800385	67.31	0
1	801589	67.41	0
1	802793	67.51	0
1	803997	67.61	0
1	805334	67.71	0
1	806537	67.81	0
1	807740	67.91	0
1	808955	68.01	0
1	810158	68.11	0
1	811361	68.21	0
1	812564	68.31	0
1	813767	68.41	0
1	814970	68.51	0
1	816173	68.61	0
1	817376	68.71	0
1	818579	68.81	0
1	819782	68.91	0
1	820997	69.01	0
1	822200	69.11	0
1	823403	69.21	0
1	824606	69.31	0
1	825809	69.41	0
1	827012	69.51	0
1	828215	69.61	0
1	829418	69.71	0
1	830621	69.81	0
1	831824	69.91	0
1	833039	70.01	0
1	834242	70.11	0
1	835445	70.21	0
1	836648	70.31	0
1	837851	70.41	0
1	839054	70.51	0
1	840257	70.61	0
1	841460	70.71	0
1	842663	70.81	0
1	843866	70.91	0
1	845081	71.01	0
1	846284	71.11	0
1	847487	71.21	0
1	848690	71.31	0
1	849893	71.41	0
1	851096	71.51	0
1	852299	71.61	0
1	853502	71.71	0
1	854705	71.81	0
1	855908	71.91	0
1	857256	72.01	0
1	858458	72.11	0
1	859660	72.21	0
1	860862	72.31	0
1	862064	72.41	0
1	863266	72.51	0
1	864468	72.61	0
1	865670	72.71	0
1	866872	72.81	0
1	868074	72.91	0
1	869288	73.01	0
1	870490	73.11	0
1	871692	73.21	0
1	872894	73.31	0
1	874096	73.41	0
1	875298	73.51	0
1	876500	73.61	0
1	877702	73.71	0
1	878904	73.81	0
1	880106	73.91	0
1	881320	74.01	0
1	882522	74.11	0
1	883724	74.21	0
1	884926	74.31	0
1	886128	74.41	0
1	887330	74.51	0
1	888532	74.61	0
1	889734	74.71	0
1	890936	74.81	0
1	892138	74.91	0
1	893352	75.01	0
1	894554	75.11	0
1	895756	75.21	0
1	896958	75.31	0
1	898160	75.41	0
1	899362	75.51	0
1	900564	75.61	0
1	901766	75.71	0
1	902968	75.81	0
1	904170	75.91	0
1	905384	76.01	0
1	906586	76.11	0
1	907921	76.21	0
1	909122	76.31	0
1	910323	76.41	0
1	911524	76.51	0
1	912725	76.61	0
1	913926	76.71	0
1	915127	76.81	0
1	916328	76.91	0
1	917541	77.01	0
1	918742	77.11	0
1	919943	77.21	0
1	921144	77.31	0
1	922345	77.41	0
1	923546	77.51	0
1	924747	77.61	0
1	925948	77.71	0
1	927149	77.81	0
1	928350	77.91	0
1	929563	78.01	0
1	930764	78.11	0
1	931965	78.21	0
1	933166	78.31	0
1	934367	78.41	0
1	935568	78.51	0
1	936769	78.61	0
1	937970	78.71	0
1	939171	78.81	0
1	940372	78.91	0
1	941585	79.01	0
1	942786	79.11	0
1	943987	79.21	0
1	945188	79.31	0
1	946389	79.41	0
1	947590	79.51	0
1	948791	79.61	0
1	949992	79.71	0
1	951193	79.81	0
1	952394	79.91	0
1	953607	80.01	0
1	954808	80.11	0
1	956009	80.21	0
1	957343	80.31	0
1	958543	80.41	0
1	959743	80.51	0
1	960943	80.61	0
1	962143	80.71	0
1	963343	80.81	0
1	964543	80.91	0
1	965755	81.01	0
1	966955	81.11	0
1	968155	81.21	0
1	969355	81.31	0
1	970555	81.41	0
1	971755	81.51	0
1	972955	81.61	0
1	974155	81.71	0
1	975355	81.81	0
1	976555	81.91	0
1	977767	82.01	0
1	978967	82.11	0
1	980167	82.21	0
1	981367	82.31	0
1	982567	82.41	0
1	983767	82.51	0
1	984967	82.61	0
1	986167	82.71	0
1	987367	82.81	0
1	988567	82.91	0
1	989779	83.01	0
1	990979	83.11	0
1	992179	83.21	0
1	993379	83.31	0
1	994579	83.41	0
1	995779	83.51	0
1	996979	83.61	0
1	998179	83.71	0
1	999379	83.81	0
1	1000579	83.91	0
1	1001791	84.01	0
1	1002991	84.11	0
1	1004191	84.21	0
1	1005391	84.31	0
1	1006724	84.41	0
1	1007923	84.51	0
1	1009122	84.61	0
1	1010321	84.71	0
1	1011520	84.81	0
1	1012719	84.91	0
1	1013930	85.01	0
1	1015129	85.11	0
1	1016328	85.21	0
1	1017527	85.31	0
1	1018726	85.41	0
1	1019925	85.51	0
1	1021124	85.61	0
1	1022323	85.71	0
1	1023522	85.81	0
1	1024721	85.91	0
1	1025932	86.01	0
1	1027131	86.11	0
1	1028330	86.21	0
1	1029529	86.31	0
1	1030728	86.41	0
1	1031927	86.51	0
1	1033126	86.61	0
1	1034325	86.71	0
1	1035524	86.81	0
1	1036723	86.91	0
1	1037934	87.01	0
1	1039133	87.11	0
1	1040332	87.21	0
1	1041531	87.31	0
1	1042730	87.41	0
1	1043929	87.51	0
1	1045128	87.61	0
1	1046327	87.71	0
1	1047526	87.81	0
1	1048725	87.91	0
1	1049936	88.01	0
1	1051135	88.11	0
1	1052334	88.21	0
1	1055054	88.31	0
1	1056252	88.41	0
1	1057450	88.51	0
1	1058648	88.61	0
1	1059846	88.71	0
1	1061044	88.81	0
1	1062242	88.91	0
1	1063452	89.01	0
1	1064650	89.11	0
1	1065848	89.21	0
1	1067046	89.31	0
1	1068244	89.41	0
1	1069442	89.51	0
1	1070640	89.61	0
1	1071838	89.71	0
1	1073036	89.81	0
1	1074234	89.91	0
1	1075444	90.01	0
1	1076642	90.11	0
1	1077840	90.21	0
1	1079038	90.31	0
1	1080236	90.41	0
1	1081434	90.51	0
1	1082632	90.61	0
1	1083830	90.71	0
1	1085028	90.81	0
1	1086226	90.91	0
1	1087436	91.01	0
1	1088634	91.11	0
1	1089832	91.21	0
1	1091030	91.31	0
1	1092228	91.41	0
1	1093426	91.51	0
1	1094624	91.61	0
1	1095822	91.71	0
1	1097020	91.81	0
1	1098218	91.91	0
1	1099428	92.01	0
1	1100626	92.11	0
1	1101824	92.21	0
1	1103022	92.31	0
1	1104220	92.41	0
1	1105418	92.51	0
1	1106616	92.61	0
1	1107814	92.71	0
1	1109012	92.81	0
1	1110210	92.91	0
1	1111420	93.01	0
1	1112618	93.11	0
1	1113816	93.21	0
1	1115014	93.31	0
1	1116212	93.41	0
1	1117410	93.51	0
1	1118608	93.61	0
1	1119806	93.71	0
1	1121004	93.81	0
1	1122202	93.91	0
1	1123412	94.01	0
1	1124610	94.11	0
1	1125808	94.21	0
1	1127006	94.31	0
1	1128204	94.41	0
1	1129402	94.51	0
1	1130600	94.61	0
1	1131798	94.71	0
1	1132996	94.81	0
1	1134194	94.91	0
1	1135404	95.01	0
1	1136602	95.11	0
1	1137800	95.21	0
1	1138998	95.31	0
1	1140196	95.41	0
1	1141394	95.51	0
1	1142592	95.61	0
1	1143790	95.71	0
1	1144988	95.81	0
1	1146186	95.91	0
1	1147396	96.01	0
1	1148594	96.11	0
1	1149792	96.21	0
1	1150990	96.31	0
1	1152188	96.41	0
1	1153386	96.51	0
1	1154584	96.61	0
1	1155782	96.71	0
1	1156980	96.81	0
1	1158178	96.91	0
1	1159388	97.01	0
1	1160586	97.11	0
1	1161784	97.21	0
1	1162982	97.31	0
1	1164180	97.41	0
1	1165378	97.51	0
1	1166576	97.61	0
1	1167774	97.71	0
1	1168972	97.81	0
1	1170170	97.91	0
1	1171380	98.01	0
1	1172578	98.11	0
1	1173776	98.21	0
1	1174974	98.31	0
1	1176172	98.41	0
1	1177370	98.51	0
1	1178568	98.61	0
1	1179766	98.71	0
1	1180964	98.81	0
1	1182162	98.91	0
1	1183372	99.01	0
1	1184570	99.11	0
1	1185768	99.21	0
1	1186966	99.31	0
1	1188164	99.41	0
1	1189362	99.51	0
1	1190560	99.61	0
1	1191758	99.71	0
1	1192956	99.81	0
1	1194154	99.91	0
2	113	1.11	0
2	1311	1.21	0
2	2509	1.31	0
2	3707	1.41	0
2	4905	1.51	0
2	6103	1.61	0
2	7301	1.71	0
2	8499	1.81	0
2	9697	1.91	0
2	10907	2.01	0
2	12105	2.11	0
2	13303	2.21	0
2	14501	2.31	0
2	15699	2.41	0
2	16897	2.51	0
2	18095	2.61	0
2	19293	2.71	0
2	20491	2.81	0
2	21689	2.91	0
2	22899	3.01	0
2	24097	3.11	0
2	25295	3.21	0
2	26493	3.31	0
2	27691	3.41	0
2	28889	3.51	0
2	30087	3.61	0
2	31285	3.71	0
2	32483	3.81	0
2	33681	3.91	0
2	34891	4.01	0
2	36089	4.11	0
2	37287	4.21	0
2	38485	4.31	0
2	39683	4.41	0
2	40881	4.51	0
2	42079	4.61	0
2	43277	4.71	0
2	44475	4.81	0
2	45673	4.91	0
2	46883	5.01	0
2	48081	5.11	0
2	49279	5.21	0
2	50477	5.31	0
2	51675	5.41	0
2	52873	5.51	0
2	54071	5.61	0
2	55269	5.71	0
2	56467	5.81	0
2	57665	5.91	0
2	58875	6.01	0
2	60073	6.11	0
2	61271	6.21	0
2	62469	6.31	0
2	63667	6.41	0
2	64865	6.51	0
2	66063	6.61	0
2	67261	6.71	0
2	68459	6.81	0
2	69657	6.91	0
2	70867	7.01	0
2	72065	7.11	0
2	73263	7.21	0
2	74461	7.31	0
2	75659	7.41	0
2	76857	7.51	0
2	78055	7.61	0
2	79253	7.71	0
2	80451	7.81	0
2	81649	7.91	0
2	82859	8.01	0
2	84057	8.11	0
2	85255	8.21	0
2	86453	8.31	0
2	87651	8.41	0
2	88849	8.51	0
2	90047	8.61	0
2	91245	8.71	0
2	92443	8.81	0
2	93641	8.91	0
2	94851	9.01	0
2	96049	9.11	0
2	97247	9.21	0
2	98445	9.31	0
2	99643	9.41	0
2	100841	9.51	0
2	102039	9.61	0
2	103237	9.71	0
2	104435	9.81	0
2	105633	9.91	0
2	106953	10.01	0
2	108162	10.11	0
2	109371	10.21	0
2	110580	10.31	0
2	111789	10.41	0
2	112998	10.51	0
2	114207	10.61	0
2	115416	10.71	0
2	116625	10.81	0
2	117834	10.91	0
2	119055	11.01	0
2	120264	11.11	0
2	121473	11.21	0
2	122682	11.31	0
2	123891	11.41	0
2	125100	11.51	0
2	126309	11.61	0
2	127518	11.71	0
2	128727	11.81	0
2	129936	11.91	0
2	131157	12.01	0
2	132366	12.11	0
2	133575	12.21	0
2	134784	12.31	0
2	135993	12.41	0
2	137202	12.51	0
2	138411	12.61	0
2	139620	12.71	0
2	140829	12.81	0
2	142038	12.91	0
2	143259	13.01	0
2	144468	13.11	0
2	145677	13.21	0
2	146886	13.31	0
2	148095	13.41	0
2	149304	13.51	0
2	150513	13.61	0
2	151722	13.71	0
2	152931	13.81	0
2	154140	13.91	0
2	155361	14.01	0
2	156570	14.11	0
2	157779	14.21	0
2	158988	14.31	0
2	160197	14.41	0
2	161406	14.51	0
2	162615	14.61	0
2	163824	14.71	0
2	165033	14.81	0
2	166242	14.91	0
2	167463	15.01	0
2	168672	15.11	0
2	169881	15.21	0
2	171090	15.31	0
2	172299	15.41	0
2	173508	15.51	0
2	174717	15.61	0
2	175926	15.71	0
2	177135	15.81	0
2	178344	15.91	0
2	179565	16.01	0
2	180774	16.11	0
2	181983	16.21	0
2	183192	16.31	0
2	184401	16.41	0
2	185610	16.51	0
2	186819	16.61	0
2	188028	16.71	0
2	189237	16.81	0
2	190446	16.91	0
2	191667	17.01	0
2	192876	17.11	0
2	194085	17.21	0
2	195294	17.31	0
2	196503	17.41	0
2	197712	17.51	0
2	198921	17.61	0
2	200130	17.71	0
2	201339	17.81	0
2	202548	17.91	0
2	203769	18.01	0
2	204978	18.11	0
2	206187	18.21	0
2	207396	18.31	0
2	208605	18.41	0
2	209814	18.51	0
2	211023	18.61	0
2	212232	18.71	0
2	213441	18.81	0
2	214650	18.91	0
2	215871	19.01	0
2	217080	19.11	0
2	218289	19.21	0
2	219498	19.31	0
2	220707	19.41	0
2	221916	19.51	0
2	223125	19.61	0
2	224334	19.71	0
2	225543	19.81	0
2	226752	19.91	0
2	227973	20.01	0
2	229182	20.11	0
2	230391	20.21	0
2	231600	20.31	0
2	232809	20.41	0
2	234018	20.51	0
2	235227	20.61	0
2	236436	20.71	0
2	237645	20.81	0
2	238854	20.91	0
2	240075	21.01	0
2	241284	21.11	0
2	242493	21.21	0
2	243702	21.31	0
2	244911	21.41	0
2	246120	21.51	0
2	247329	21.61	0
2	248538	21.71	0
2	249747	21.81	0
2	250956	21.91	0
2	252177	22.01	0
2	253386	22.11	0
2	254595	22.21	0
2	255804	22.31	0
2	257013	22.41	0
2	258222	22.51	0
2	259431	22.61	0
2	260640	22.71	0
2	261849	22.81	0
2	263058	22.91	0
2	264279	23.01	0
2	265488	23.11	0
2	266697	23.21	0
2	267906	23.31	0
2	269115	23.41	0
2	270324	23.51	0
2	271533	23.61	0
2	272742	23.71	0
2	273951	23.81	0
2	275160	23.91	0
2	276381	24.01	0
2	277590	24.11	0
2	278799	24.21	0
2	280008	24.31	0
2	281217	24.41	0
2	282426	24.51	0
2	283635	24.61	0
2	284844	24.71	0
2	286053	24.81	0
2	287262	24.91	0
2	288483	25.01	0
2	289692	25.11	0
2	290901	25.21	0
2	292110	25.31	0
2	293319	25.41	0
2	294528	25.51	0
2	295737	25.61	0
2	296946	25.71	0
2	298155	25.81	0
2	299364	25.91	0
2	300585	26.01	0
2	301794	26.11	0
2	303003	26.21	0
2	304212	26.31	0
2	305421	26.41	0
2	306630	26.51	0
2	307839	26.61	0
2	309048	26.71	0
2	310257	26.81	0
2	311466	26.91	0
2	312687	27.01	0
2	313896	27.11	0
2	315105	27.21	0
2	316314	27.31	0
2	317523	27.41	0
2	318732	27.51	0
2	319941	27.61	0
2	321150	27.71	0
2	322359	27.81	0
2	323568	27.91	0
2	324789	28.01	0
2	325998	28.11	0
2	327207	28.21	0
2	328416	28.31	0
2	329625	28.41	0
2	330834	28.51	0
2	332043	28.61	0
2	333252	28.71	0
2	334461	28.81	0
2	335670	28.91	0
2	336891	29.01	0
2	338100	29.11	0
2	339309	29.21	0
2	340518	29.31	0
2	341727	29.41	0
2	342936	29.51	0
2	344145	29.61	0
2	345354	29.71	0
2	346563	29.81	0
2	347772	29.91	0
2	348993	30.01	0
2	350202	30.11	0
2	351411	30.21	0
2	352620	30.31	0
2	353829	30.41	0
2	355038	30.51	0
2	356247	30.61	0
2	357456	30.71	0
2	358665	30.81	0
2	359874	30.91	0
2	361095	31.01	0
2	362304	31.11	0
2	363513	31.21	0
2	364722	31.31	0
2	365931	31.41	0
2	367140	31.51	0
2	368349	31.61	0
2	369558	31.71	0
2	370767	31.81	0
2	371976	31.91	0
2	373197	32.01	0
2	374406	32.11	0
2	375615	32.21	0
2	376824	32.31	0
2	378033	32.41	0
2	379242	32.51	0
2	380451	32.61	0
2	381660	32.71	0
2	382869	32.81	0
2	384078	32.91	0
2	385299	33.01	0
2	386508	33.11	0
2	387717	33.21	0
2	388926	33.31	0
2	390135	33.41	0
2	391344	33.51	0
2	392553	33.61	0
2	393762	33.71	0
2	394971	33.81	0
2	396180	33.91	0
2	397401	34.01	0
2	398610	34.11	0
2	399819	34.21	0
2	401028	34.31	0
2	402237	34.41	0
2	403446	34.51	0
2	404655	34.61	0
2	405864	34.71	0
2	407073	34.81	0
2	408282	34.91	0
2	409503	35.01	0
2	410712	35.11	0
2	411921	35.21	0
2	413130	35.31	0
2	414339	35.41	0
2	415548	35.51	0
2	416757	35.61	0
2	417966	35.71	0
2	419175	35.81	0
2	420384	35.91	0
2	421605	36.01	0
2	422814	36.11	0
2	424023	36.21	0
2	425232	36.31	0
2	426441	36.41	0
2	427650	36.51	0
2	428859	36.61	0
2	430068	36.71	0
2	431277	36.81	0
2	432486	36.91	0
2	433707	37.01	0
2	434916	37.11	0
2	436125	37.21	0
2	437334	37.31	0
2	438543	37.41	0
2	439752	37.51	0
2	440961	37.61	0
2	442170	37.71	0
2	443379	37.81	0
2	444588	37.91	0
2	445809	38.01	0
2	447018	38.11	0
2	448227	38.21	0
2	449436	38.31	0
2	450645	38.41	0
2	451854	38.51	0
2	453063	38.61	0
2	454272	38.71	0
2	455481	38.81	0
2	456690	38.91	0
2	457911	39.01	0
2	459120	39.11	0
2	460329	39.21	0
2	461538	39.31	0
2	462747	39.41	0
2	463956	39.51	0
2	465165	39.61	0
2	466374	39.71	0
2	467583	39.81	0
2	468792	39.91	0
2	470013	40.01	0
2	471222	40.11	0
2	472431	40.21	0
2	473640	40.31	0
2	474849	40.41	0
2	476058	40.51	0
2	477267	40.61	0
2	478476	40.71	0
2	479685	40.81	0
2	480894	40.91	0
2	482115	41.01	0
2	483324	41.11	0
2	484533	41.21	0
2	485742	41.31	0
2	486951	41.41	0
2	488160	41.51	0
2	489369	41.61	0
2	490578	41.71	0
2	491787	41.81	0
2	492996	41.91	0
2	494217	42.01	0
2	495426	42.11	0
2	496635	42.21	0
2	497844	42.31	0
2	499053	42.41	0
2	500262	42.51	0
2	501471	42.61	0
2	502813	42.71	0
2	504021	42.81	0
2	505229	42.91	0
2	506449	43.01	0
2	507657	43.11	0
2	508865	43.21	0
2	510073	43.31	0
2	511281	43.41	0
2	512489	43.51	0
2	513697	43.61	0
2	514905	43.71	0
2	516113	43.81	0
2	517321	43.91	0
2	518541	44.01	0
2	519749	44.11	0
2	520957	44.21	0
2	522165	44.31	0
2	523373	44.41	0
2	524581	44.51	0
2	525789	44.61	0
2	526997	44.71	0
2	528205	44.81	0
2	529413	44.91	0
2	530633	45.01	0
2	531841	45.11	0
2	533049	45.21	0
2	534257	45.31	0
2	535465	45.41	0
2	536673	45.51	0
2	537881	45.61	0
2	539089	45.71	0
2	540297	45.81	0
2	541505	45.91	0
2	542725	46.01	0
2	543933	46.11	0
2	545141	46.21	0
2	546349	46.31	0
2	547557	46.41	0
2	548765	46.51	0
2	549973	46.61	0
2	551181	46.71	0
2	552389	46.81	0
2	553597	46.91	0
2	554817	47.01	0
2	556025	47.11	0
2	557233	47.21	0
2	558441	47.31	0
2	559649	47.41	0
2	560857	47.51	0
2	562065	47.61	0
2	563273	47.71	0
2	564481	47.81	0
2	565689	47.91	0
2	566909	48.01	0
2	568117	48.11	0
2	569325	48.21	0
2	570533	48.31	0
2	571741	48.41	0
2	573082	48.51	0
2	574289	48.61	0
2	575496	48.71	0
2	576703	48.81	0
2	577910	48.91	0
2	579129	49.01	0
2	580336	49.11	0
2	581543	49.21	0
2	582750	49.31	0
2	583957	49.41	0
2	585164	49.51	0
2	586371	49.61	0
2	587578	49.71	0
2	588785	49.81	0
2	589992	49.91	0
2	591211	50.01	0
2	592418	50.11	0
2	593625	50.21	0
2	594832	50.31	0
2	596039	50.41	0
2	597246	50.51	0
2	598453	50.61	0
2	599660	50.71	0
2	600867	50.81	0
2	602074	50.91	0
2	603293	51.01	0
2	604500	51.11	0
2	605707	51.21	0
2	606914	51.31	0
2	608121	51.41	0
2	609328	51.51	0
2	610535	51.61	0
2	611742	51.71	0
2	612949	51.81	0
2	614156	51.91	0
2	615375	52.01	0
2	616582	52.11	0
2	617789	52.21	0
2	618996	52.31	0
2	620203	52.41	0
2	621410	52.51	0
2	622617	52.61	0
2	623824	52.71	0
2	625031	52.81	0
2	626238	52.91	0
2	627457	53.01	0
2	628664	53.11	0
2	629871	53.21	0
2	631078	53.31	0
2	632285	53.41	0
2	633492	53.51	0
2	634699	53.61	0
2	635906	53.71	0
2	637246	53.81	0
2	638452	53.91	0
2	639670	54.01	0
2	640876	54.11	0
2	642082	54.21	0
2	643288	54.31	0
2	644494	54.41	0
2	645700	54.51	0
2	646906	54.61	0
2	648112	54.71	0
2	649318	54.81	0
2	650524	54.91	0
2	651742	55.01	0
2	652948	55.11	0
2	654154	55.21	0
2	655360	55.31	0
2	656566	55.41	0
2	657772	55.51	0
2	658978	55.61	0
2	660184	55.71	0
2	661390	55.81	0
2	662596	55.91	0
2	663814	56.01	0
2	665020	56.11	0
2	666226	56.21	0
2	667432	56.31	0
2	668638	56.41	0
2	669844	56.51	0
2	671050	56.61	0
2	672256	56.71	0
2	673462	56.81	0
2	674668	56.91	0
2	675886	57.01	0
2	677092	57.11	0
2	678298	57.21	0
2	679504	57.31	0
2	680710	57.41	0
2	681916	57.51	0
2	683122	57.61	0
2	684328	57.71	0
2	685534	57.81	0
2	686740	57.91	0
2	687958	58.01	0
2	689164	58.11	0
2	690370	58.21	0
2	691576	58.31	0
2	692782	58.41	0
2	693988	58.51	0
2	695194	58.61	0
2	696554	58.71	0
2	697759	58.81	0
2	698964	58.91	0
2	700181	59.01	0
2	701386	59.11	0
2	702591	59.21	0
2	703796	59.31	0
2	705001	59.41	0
2	706206	59.51	0
2	707411	59.61	0
2	708616	59.71	0
2	709821	59.81	0
2	711026	59.91	0
2	712243	60.01	0
2	713448	60.11	0
2	714653	60.21	0
2	715858	60.31	0
2	717063	60.41	0
2	718268	60.51	0
2	719473	60.61	0
2	720678	60.71	0
2	721883	60.81	0
2	723088	60.91	0
2	724305	61.01	0
2	725510	61.11	0
2	726715	61.21	0
2	727920	61.31	0
2	729125	61.41	0
2	730330	61.51	0
2	731535	61.61	0
2	732740	61.71	0
2	733945	61.81	0
2	735150	61.91	0
2	736367	62.01	0
2	737572	62.11	0
2	738777	62.21	0
2	739982	62.31	0
2	741187	62.41	0
2	742392	62.51	0
2	743597	62.61	0
2	744802	62.71	0
2	746007	62.81	0
2	747212	62.91	0
2	748429	63.01	0
2	749634	63.11	0
2	750839	63.21	0
2	752177	63.31	0
2	753381	63.41	0
2	754585	63.51	0
2	755789	63.61	0
2	756993	63.71	0
2	758197	63.81	0
2	759401	63.91	0
2	760617	64.01	0
2	761821	64.11	0
2	763025	64.21	0
2	764229	64.31	0
2	765433	64.41	0
2	766637	64.51	0
2	767841	64.61	0
2	769045	64.71	0
2	770249	64.81	0
2	771453	64.91	0
2	772669	65.01	0
2	773873	65.11	0
2	775077	65.21	0
2	776281	65.31	0
2	777485	65.41	0
2	778689	65.51	0
2	779893	65.61	0
2	781097	65.71	0
2	782301	65.81	0
2	783505	65.91	0
2	784721	66.01	0
2	785925	66.11	0
2	787129	66.21	0
2	788333	66.31	0
2	789537	66.41	0
2	790741	66.51	0
2	791945	66.61	0
2	793149	66.71	0
2	794353	66.81	0
2	795557	66.91	0
2	796773	67.01	0
2	797977	67.11	0
2	799181	67.21	0
2	800385	67.31	0
2	801589	67.41	0
2	802793	67.51	0
2	803997	67.61	0
2	805334	67.71	0
2	806537	67.81	0
2	807740	67.91	0
2	808955	68.01	0
2	810158	68.11	0
2	811361	68.21	0
2	812564	68.31	0
2	813767	68.41	0
2	814970	68.51	0
2	816173	68.61	0
2	817376	68.71	0
2	818579	68.81	0
2	819782	68.91	0
2	820997	69.01	0
2	822200	69.11	0
2	823403	69.21	0
2	824606	69.31	0
2	825809	69.41	0
2	827012	69.51	0
2	828215	69.61	0
2	829418	69.71	0
2	830621	69.81	0
2	831824	69.91	0
2	833039	70.01	0
2	834242	70.11	0
2	835445	70.21	0
2	836648	70.31	0
2	837851	70.41	0
2	839054	70.51	0
2	840257	70.61	0
2	841460	70.71	0
2	842663	70.81	0
2	843866	70.91	0
2	845081	71.01	0
2	846284	71.11	0
2	847487	71.21	0
2	848690	71.31	0
2	849893	71.41	0
2	851096	71.51	0
2	852299	71.61	0
2	853502	71.71	0
2	854705	71.81	0
2	855908	71.91	0
2	857256	72.01	0
2	858458	72.11	0
2	859660	72.21	0
2	860862	72.31	0
2	862064	72.41	0
2	863266	72.51	0
2	864468	72.61	0
2	865670	72.71	0
2	866872	72.81	0
2	868074	72.91	0
2	869288	73.01	0
2	870490	73.11	0
2	871692	73.21	0
2	872894	73.31	0
2	874096	73.41	0
2	875298	73.51	0
2	876500	73.61	0
2	877702	73.71	0
2	878904	73.81	0
2	880106	73.91	0
2	881320	74.01	0
2	882522	74.11	0
2	883724	74.21	0
2	884926	74.31	0
2	886128	74.41	0
2	887330	74.51	0
2	888532	74.61	0
2	889734	74.71	0
2	890936	74.81	0
2	892138	74.91	0
2	893352	75.01	0
2	894554	75.11	0
2	895756	75.21	0
2	896958	75.31	0
2	898160	75.41	0
2	899362	75.51	0
2	900564	75.61	0
2	901766	75.71	0
2	902968	75.81	0
2	904170	75.91	0
2	905384	76.01	0
2	906586	76.11	0
2	907921	76.21	0
2	909122	76.31	0
2	910323	76.41	0
2	911524	76.51	0
2	912725	76.61	0
2	913926	76.71	0
2	915127	76.81	0
2	916328	76.91	0
2	917541	77.01	0
2	918742	77.11	0
2	919943	77.21	0
2	921144	77.31	0
2	922345	77.41	0
2	923546	77.51	0
2	924747	77.61	0
2	925948	77.71	0
2	927149	77.81	0
2	928350	77.91	0
2	929563	78.01	0
2	930764	78.11	0
2	931965	78.21	0
2	933166	78.31	0
2	934367	78.41	0
2	935568	78.51	0
2	936769	78.61	0
2	937970	78.71	0
2	939171	78.81	0
2	940372	78.91	0
2	941585	79.01	0
2	942786	79.11	0
2	943987	79.21	0
2	945188	79.31	0
2	946389	79.41	0
2	947590	79.51	0
2	948791	79.61	0
2	949992	79.71	0
2	951193	79.81	0
2	952394	79.91	0
2	953607	80.01	0
2	954808	80.11	0
2	956009	80.21	0
2	957343	80.31	0
2	958543	80.41	0
2	959743	80.51	0
2	960943	80.61	0
2	962143	80.71	0
2	963343	80.81	0
2	964543	80.91	0
2	965755	81.01	0
2	966955	81.11	0
2	968155	81.21	0
2	969355	81.31	0
2	970555	81.41	0
2	971755	81.51	0
2	972955	81.61	0
2	974155	81.71	0
2	975355	81.81	0
2	976555	81.91	0
2	977767	82.01	0
2	978967	82.11	0
2	980167	82.21	0
2	981367	82.31	0
2	982567	82.41	0
2	983767	82.51	0
2	984967	82.61	0
2	986167	82.71	0
2	987367	82.81	0
2	988567	82.91	0
2	989779	83.01	0
2	990979	83.11	0
2	992179	83.21	0
2	993379	83.31	0
2	994579	83.41	0
2	995779	83.51	0
2	996979	83.61	0
2	998179	83.71	0
2	999379	83.81	0
2	1000579	83.91	0
2	1001791	84.01	0
2	1002991	84.11	0
2	1004191	84.21	0
2	1005391	84.31	0
2	1006724	84.41	0
2	1007923	84.51	0
2	1009122	84.61	0
2	1010321	84.71	0
2	1011520	84.81	0
2	1012719	84.91	0
2	1013930	85.01	0
2	1015129	85.11	0
2	1016328	85.21	0
2	1017527	85.31	0
2	1018726	85.41	0
2	1019925	85.51	0
2	1021124	85.61	0
2	1022323	85.71	0
2	1023522	85.81	0
2	1024721	85.91	0
2	1025932	86.01	0
2	1027131	86.11	0
2	1028330	86.21	0
2	1029529	86.31	0
2	1030728	86.41	0
2	1031927	86.51	0
2	1033126	86.61	0
2	1034325	86.71	0
2	1035524	86.81	0
2	1036723	86.91	0
2	1037934	87.01	0
2	1039133	87.11	0
2	1040332	87.21	0
2	1041531	87.31	0
2	1042730	87.41	0
2	1043929	87.51	0
2	1045128	87.61	0
2	1046327	87.71	0
2	1047526	87.81	0
2	1048725	87.91	0
2	1049936	88.01	0
2	1051135	88.11	0
2	1052334	88.21	0
2	1055054	88.31	0
2	1056252	88.41	0
2	1057450	88.51	0
2	1058648	88.61	0
2	1059846	88.71	0
2	1061044	88.81	0
2	1062242	88.91	0
2	1063452	89.01	0
2	1064650	89.11	0
2	1065848	89.21	0
2	1067046	89.31	0
2	1068244	89.41	0
2	1069442	89.51	0
2	1070640	89.61	0
2	1071838	89.71	0
2	1073036	89.81	0
2	1074234	89.91	0
2	1075444	90.01	0
2	1076642	90.11	0
2	1077840	90.21	0
2	1079038	90.31	0
2	1080236	90.41	0
2	1081434	90.51	0
2	1082632	90.61	0
2	1083830	90.71	0
2	1085028	90.81	0
2	1086226	90.91	0
2	1087436	91.01	0
2	1088634	91.11	0
2	1089832	91.21	0
2	1091030	91.31	0
2	1092228	91.41	0
2	1093426	91.51	0
2	1094624	91.61	0
2	1095822	91.71	0
2	1097020	91.81	0
2	1098218	91.91	0
2	1099428	92.01	0
2	1100626	92.11	0
2	1101824	92.21	0
2	1103022	92.31	0
2	1104220	92.41	0
2	1105418	92.51	0
2	1106616	92.61	0
2	1107814	92.71	0
2	1109012	92.81	0
2	1110210	92.91	0
2	1111420	93.01	0
2	1112618	93.11	0
2	1113816	93.21	0
2	1115014	93.31	0
2	1116212	93.41	0
2	1117410	93.51	0
2	1118608	93.61	0
2	1119806	93.71	0
2	1121004	93.81	0
2	1122202	93.91	0
2	1123412	94.01	0
2	1124610	94.11	0
2	1125808	94.21	0
2	1127006	94.31	0
2	1128204	94.41	0
2	1129402	94.51	0
2	1130600	94.61	0
2	1131798	94.71	0
2	1132996	94.81	0
2	1134194	94.91	0
2	1135404	95.01	0
2	1136602	95.11	0
2	1137800	95.21	0
2	1138998	95.31	0
2	1140196	95.41	0
2	1141394	95.51	0
2	1142592	95.61	0
2	1143790	95.71	0
2	1144988	95.81	0
2	1146186	95.91	0
2	1147396	96.01	0
2	1148594	96.11	0
2	1149792	96.21	0
2	1150990	96.31	0
2	1152188	96.41	0
2	1153386	96.51	0
2	1154584	96.61	0
2	1155782	96.71	0
2	1156980	96.81	0
2	1158178	96.91	0
2	1159388	97.01	0
2	1160586	97.11	0
2	1161784	97.21	0
2	1162982	97.31	0
2	1164180	97.41	0
2	1165378	97.51	0
2	1166576	97.61	0
2	1167774	97.71	0
2	1168972	97.81	0
2	1170170	97.91	0
2	1171380	98.01	0
2	1172578	98.11	0
2	1173776	98.21	0
2	1174974	98.31	0
2	1176172	98.41	0
2	1177370	98.51	0
2	1178568	98.61	0
2	1179766	98.71	0
2	1180964	98.81	0
2	1182162	98.91	0
2	1183372	99.01	0
2	1184570	99.11	0
2	1185768	99.21	0
2	1186966	99.31	0
2	1188164	99.41	0
2	1189362	99.51	0
2	1190560	99.61	0
2	1191758	99.71	0
2	1192956	99.81	0
2	1194154	99.91	0
3	113	1.11	-0.000716383
3	1311	1.21	-0.00136341
3	2509	1.31	-0.00186974
3	3707	1.41	-0.00225157
3	4905	1.51	-0.00252443
3	6103	1.61	-0.00270298
3	7301	1.71	-0.00280098
3	8499	1.81	-0.00283113
3	9697	1.91	-0.00280509
3	10907	2.01	-0.00273342
3	12105	2.11	-0.00262559
3	13303	2.21	-0.00249005
3	14501	2.31	-0.00233419
3	15699	2.41	-0.00216447
3	16897	2.51	-0.00198642
3	18095	2.61	-0.00180472
3	19293	2.71	-0.0016233
3	20491	2.81	-0.00144536
3	21689	2.91	-0.00127346
3	22899	3.01	-0.0011096
3	24097	3.11	-0.000955278
3	25295	3.21	-0.000811546
3	26493	3.31	-0.00067908
3	27691	3.41	-0.000558232
3	28889	3.51	-0.000449082
3	30087	3.61	-0.000351487
3	31285	3.71	-0.00026512
3	32483	3.81	-0.000189514
3	33681	3.91	-0.000124092
3	34891	4.01	-6.81972e-05
3	36089	4.11	-2.11209e-05
3	37287	4.21	1.78769e-05
3	38485	4.31	4.9548e-05
3	39683	4.41	7.46407e-05
3	40881	4.51	9.38867e-05
3	42079	4.61	0.000107991
3	43277	4.71	0.000117625
3	44475	4.81	0.000123418
3	45673	4.91	0.000125957
3	46883	5.01	0.000125781
3	48081	5.11	0.00012338
3	49279	5.21	0.000119198
3	50477	5.31	0.000113629
3	51675	5.41	0.000107022
3	52873	5.51	9.96832e-05
3	54071	5.61	9.18747e-05
3	55269	5.71	8.38211e-05
3	56467	5.81	7.57109e-05
3	57665	5.91	6.76999e-05
3	58875	6.01	5.99137e-05
3	60073	6.11	5.24518e-05
3	61271	6.21	4.53896e-05
3	62469	6.31	3.87821e-05
3	63667	6.41	3.2666e-05
3	64865	6.51	2.70628e-05
3	66063	6.61	2.19809e-05
3	67261	6.71	1.74176e-05
3	68459	6.81	1.33618e-05
3	69657	6.91	9.79494e-06
3	70867	7.01	6.6932e-06
3	72065	7.11	4.02864e-06
3	73263	7.21	1.77051e-06
3	74461	7.31	-1.13691e-07
3	75659	7.41	-1.65736e-06
3	76857	7.51	-2.89397e-06
3	78055	7.61	-3.85652e-06
3	79253	7.71	-4.57698e-06
3	80451	7.81	-5.08591e-06
3	81649	7.91	-5.41219e-06
3	82859	8.01	-5.58279e-06
3	84057	8.11	-5.6226e-06
3	85255	8.21	-5.55442e-06
3	86453	8.31	-5.39886e-06
3	87651	8.41	-5.17441e-06
3	88849	8.51	-4.89748e-06
3	90047	8.61	-4.58246e-06
3	91245	8.71	-4.24184e-06
3	92443	8.81	-3.88634e-06
3	93641	8.91	-3.52499e-06
3	94851	9.01	-3.16534e-06
3	96049	9.11	-2.81353e-06
3	97247	9.21	-2.47446e-06
3	98445	9.31	-2.15192e-06
3	99643	9.41	-1.84873e-06
3	100841	9.51	-1.56685e-06
3	102039	9.61	-1.30751e-06
3	103237	9.71	-1.0713e-06
3	104435	9.81	-8.58321e-07
3	105633	9.91	-6.68206e-07
3	106953	10.01	-5.0026e-07
3	108162	10.11	-3.53514e-07
3	109371	10.21	-2.2679e-07
3	110580	10.31	-1.18765e-07
3	111789	10.41	-2.80163e-08
3	112998	10.51	4.6931e-08
3	114207	10.61	1.07573e-07
3	115416	10.71	1.55391e-07
3	116625	10.81	1.91831e-07
3	117834	10.91	2.18284e-07
3	119055	11.01	2.3607e-07
3	120264	11.11	2.46427e-07
3	121473	11.21	2.50502e-07
3	122682	11.31	2.49353e-07
3	123891	11.41	2.43938e-07
3	125100	11.51	2.3512e-07
3	126309	11.61	2.23669e-07
3	127518	11.71	2.10264e-07
3	128727	11.81	1.95496e-07
3	129936	11.91	1.79874e-07
3	131157	12.01	1.63833e-07
3	132366	12.11	1.47736e-07
3	133575	12.21	1.3188e-07
3	134784	12.31	1.16508e-07
3	135993	12.41	1.01807e-07
3	137202	12.51	8.79222e-08
3	138411	12.61	7.49541e-08
3	139620	12.71	6.29711e-08
3	140829	12.81	5.20114e-08
3	142038	12.91	4.20883e-08
3	143259	13.01	3.3193e-08
3	144468	13.11	2.53003e-08
3	145677	13.21	1.83718e-08
3	146886	13.31	1.23581e-08
3	148095	13.41	7.20348e-09
3	149304	13.51	2.84537e-09
3	150513	13.61	-7.80886e-10
3	151722	13.71	-3.74136e-09
3	152931	13.81	-6.10285e-09
3	154140	13.91	-7.93072e-09
3	155361	14.01	-9.28821e-09
3	156570	14.11	-1.0235e-08
3	157779	14.21	-1.08283e-08
3	158988	14.31	-1.11211e-08
3	160197	14.41	-1.11612e-08
3	161406	14.51	-1.09946e-08
3	162615	14.61	-1.06599e-08
3	163824	14.71	-1.01945e-08
3	165033	14.81	-9.62999e-09
3	166242	14.91	-8.99405e-09
3	167463	15.01	-8.31086e-09
3	168672	15.11	-7.60103e-09
3	169881	15.21	-6.88338e-09
3	171090	15.31	-6.17071e-09
3	172299	15.41	-5.47544e-09
3	173508	15.51	-4.80682e-09
3	174717	15.61	-4.17266e-09
3	175926	15.71	-3.57687e-09
3	177135	15.81	-3.02443e-09
3	178344	15.91	-2.51674e-09
3	179565	16.01	-2.05489e-09
3	180774	16.11	-1.63958e-09
3	181983	16.21	-1.26903e-09
3	183192	16.31	-9.42535e-10
3	184401	16.41	-6.57963e-10
3	185610	16.51	-4.1247e-10
3	186819	16.61	-2.04636e-10
3	188028	16.71	-2.91323e-11
3	189237	16.81	1.14753e-10
3	190446	16.91	2.30926e-10
3	191667	17.01	3.22231e-10
3	192876	17.11	3.91154e-10
3	194085	17.21	4.40892e-10
3	195294	17.31	4.73577e-10
3	196503	17.41	4.92051e-10
3	197712	17.51	4.98446e-10
3	198921	17.61	4.94893e-10
3	200130	17.71	4.82814e-10
3	201339	17.81	4.6434e-10
3	202548	17.91	4.40892e-10
3	203769	18.01	4.13536e-10
3	204978	18.11	3.83693e-10
3	206187	18.21	3.51719e-10
3	207396	18.31	3.19744e-10
3	208605	18.41	2.8777e-10
3	209814	18.51	2.55795e-10
3	211023	18.61	2.25953e-10
3	212232	18.71	1.97531e-10
3	213441	18.81	1.6982e-10
3	214650	18.91	1.44951e-10
3	215871	19.01	1.21503e-10
3	217080	19.11	1.00187e-10
3	218289	19.21	8.10019e-11
3	219498	19.31	6.32383e-11
3	220707	19.41	4.86722e-11
3	221916	19.51	3.44613e-11
3	223125	19.61	2.34479e-11
3	224334	19.71	1.27898e-11
3	225543	19.81	4.9738e-12
3	226752	19.91	-2.13163e-12
3	227973	20.01	-8.17124e-12
3	229182	20.11	-1.1724e-11
3	230391	20.21	-1.52767e-11
3	231600	20.31	-1.88294e-11
3	232809	20.41	-2.02505e-11
3	234018	20.51	-2.02505e-11
3	235227	20.61	-2.02505e-11
3	236436	20.71	-2.02505e-11
3	237645	20.81	-2.02505e-11
3	238854	20.91	-2.02505e-11
3	240075	21.01	-2.02505e-11
3	241284	21.11	-2.02505e-11
3	242493	21.21	-2.02505e-11
3	243702	21.31	-1.88294e-11
3	244911	21.41	-1.7053e-11
3	246120	21.51	-1.52767e-11
3	247329	21.61	-1.38556e-11
3	248538	21.71	-1.24345e-11
3	249747	21.81	-1.13687e-11
3	250956	21.91	-1.03029e-11
3	252177	22.01	-9.23706e-12
3	253386	22.11	-8.52651e-12
3	254595	22.21	-7.4607e-12
3	255804	22.31	-6.75016e-12
3	257013	22.41	-6.03961e-12
3	258222	22.51	-5.68434e-12
3	259431	22.61	-4.9738e-12
3	260640	22.71	-4.61853e-12
3	261849	22.81	-4.26326e-12
3	263058	22.91	-3.90799e-12
3	264279	23.01	-3.55271e-12
3	265488	23.11	-3.19744e-12
3	266697	23.21	-2.84217e-12
3	267906	23.31	-2.4869e-12
3	269115	23.41	-2.13163e-12
3	270324	23.51	-2.13163e-12
3	271533	23.61	-1.77636e-12
3	272742	23.71	-1.77636e-12
3	273951	23.81	-1.42109e-12
3	275160	23.91	-1.42109e-12
3	276381	24.01	-1.06581e-12
3	277590	24.11	-1.06581e-12
3	278799	24.21	-1.06581e-12
3	280008	24.31	-1.06581e-12
3	281217	24.41	-7.10543e-13
3	282426	24.51	-7.10543e-13
3	283635	24.61	-7.10543e-13
3	284844	24.71	-7.10543e-13
3	286053	24.81	-7.10543e-13
3	287262	24.91	-3.55271e-13
3	288483	25.01	-3.55271e-13
3	289692	25.11	-3.55271e-13
3	290901	25.21	-3.55271e-13
3	292110	25.31	-3.55271e-13
3	293319	25.41	-3.55271e-13
3	294528	25.51	-3.55271e-13
3	295737	25.61	-3.55271e-13
3	296946	25.71	-3.55271e-13
3	298155	25.81	-3.55271e-13
3	299364	25.91	0
3	300585	26.01	0
3	301794	26.11	0
3	303003	26.21	0
3	304212	26.31	0
3	305421	26.41	0
3	306630	26.51	0
3	307839	26.61	0
3	309048	26.71	0
3	310257	26.81	0
3	311466	26.91	0
3	312687	27.01	0
3	313896	27.11	0
3	315105	27.21	0
3	316314	27.31	0
3	317523	27.41	0
3	318732	27.51	0
3	319941	27.61	0
3	321150	27.71	0
3	322359	27.81	0
3	323568	27.91	0
3	324789	28.01	0
3	325998	28.11	0
3	327207	28.21	0
3	328416	28.31	0
3	329625	28.41	0
3	330834	28.51	0
3	332043	28.61	0
3	333252	28.71	0
3	334461	28.81	0
3	335670	28.91	0
3	336891	29.01	0
3	338100	29.11	0
3	339309	29.21	0
3	340518	29.31	0
3	341727	29.41	0
3	342936	29.51	0
3	344145	29.61	0
3	345354	29.71	0
3	346563	29.81	0
3	347772	29.91	0
3	348993	30.01	0
3	350202	30.11	0
3	351411	30.21	0
3	352620	30.31	0
3	353829	30.41	0
3	355038	30.51	0
3	356247	30.61	0
3	357456	30.71	0
3	358665	30.81	0
3	359874	30.91	0
3	361095	31.01	0
3	362304	31.11	0
3	363513	31.21	0
3	364722	31.31	0
3	365931	31.41	0
3	367140	31.51	0
3	368349	31.61	0
3	369558	31.71	0
3	370767	31.81	0
3	371976	31.91	0
3	373197	32.01	0
3	374406	32.11	0
3	375615	32.21	0
3	376824	32.31	0
3	378033	32.41	0
3	379242	32.51	0
3	380451	32.61	0
3	381660	32.71	0
3	382869	32.81	0
3	384078	32.91	0
3	385299	33.01	0
3	386508	33.11	0
3	387717	33.21	0
3	388926	33.31	0
3	390135	33.41	0
3	391344	33.51	0
3	392553	33.61	0
3	393762	33.71	0
3	394971	33.81	0
3	396180	33.91	0
3	397401	34.01	0
3	398610	34.11	0
3	399819	34.21	0
3	401028	34.31	0
3	402237	34.41	0
3	403446	34.51	0
3	404655	34.61	0
3	405864	34.71	0
3	407073	34.81	0
3	408282	34.91	0
3	409503	35.01	0
3	410712	35.11	0
3	411921	35.21	0
3	413130	35.31	0
3	414339	35.41	0
3	415548	35.51	0
3	416757	35.61	0
3	417966	35.71	0
3	419175	35.81	0
3	420384	35.91	0
3	421605	36.01	0
3	422814	36.11	0
3	424023	36.21	0
3	425232	36.31	0
3	426441	36.41	0
3	427650	36.51	0
3	428859	36.61	0
3	430068	36.71	0
3	431277	36.81	0
3	432486	36.91	0
3	433707	37.01	0
3	434916	37.11	0
3	436125	37.21	0
3	437334	37.31	0
3	438543	37.41	0
3	439752	37.51	0
3	440961	37.61	0
3	442170	37.71	0
3	443379	37.81	0
3	444588	37.91	0
3	445809	38.01	0
3	447018	38.11	0
3	448227	38.21	0
3	449436	38.31	0
3	450645	38.41	0
3	451854	38.51	0
3	453063	38.61	0
3	454272	38.71	0
3	455481	38.81	0
3	456690	38.91	0
3	457911	39.01	0
3	459120	39.11	0
3	460329	39.21	0
3	461538	39.31	0
3	462747	39.41	0
3	463956	39.51	0
3	465165	39.61	0
3	466374	39.71	0
3	467583	39.81	0
3	468792	39.91	0
3	470013	40.01	0
3	471222	40.11	0
3	472431	40.21	0
3	473640	40.31	0
3	474849	40.41	0
3	476058	40.51	0
3	477267	40.61	0
3	478476	40.71	0
3	479685	40.81	0
3	480894	40.91	0
3	482115	41.01	0
3	483324	41.11	0
3	484533	41.21	0
3	485742	41.31	0
3	486951	41.41	0
3	488160	41.51	0
3	489369	41.61	0
3	490578	41.71	0
3	491787	41.81	0
3	492996	41.91	0
3	494217	42.01	0
3	495426	42.11	0
3	496635	42.21	0
3	497844	42.31	0
3	499053	42.41	0
3	500262	42.51	0
3	501471	42.61	0
3	502813	42.71	0
3	504021	42.81	0
3	505229	42.91	0
3	506449	43.01	0
3	507657	43.11	0
3	508865	43.21	0
3	510073	43.31	0
3	511281	43.41	0
3	512489	43.51	0
3	513697	43.61	0
3	514905	43.71	0
3	516113	43.81	0
3	517321	43.91	0
3	518541	44.01	0
3	519749	44.11	0
3	520957	44.21	0
3	522165	44.31	0
3	523373	44.41	0
3	524581	44.51	0
3	525789	44.61	0
3	526997	44.71	0
3	528205	44.81	0
3	529413	44.91	0
3	530633	45.01	0
3	531841	45.11	0
3	533049	45.21	0
3	534257	45.31	0
3	535465	45.41	0
3	536673	45.51	0
3	537881	45.61	0
3	539089	45.71	0
3	540297	45.81	0
3	541505	45.91	0
3	542725	46.01	0
3	543933	46.11	0
3	545141	46.21	0
3	546349	46.31	0
3	547557	46.41	0
3	548765	46.51	0
3	549973	46.61	0
3	551181	46.71	0
3	552389	46.81	0
3	553597	46.91	0
3	554817	47.01	0
3	556025	47.11	0
3	557233	47.21	0
3	558441	47.31	0
3	559649	47.41	0
3	560857	47.51	0
3	562065	47.61	0
3	563273	47.71	0
3	564481	47.81	0
3	565689	47.91	0
3	566909	48.01	0
3	568117	48.11	0
3	569325	48.21	0
3	570533	48.31	0
3	571741	48.41	0
3	573082	48.51	0
3	574289	48.61	0
3	575496	48.71	0
3	576703	48.81	0
3	577910	48.91	0
3	579129	49.01	0
3	580336	49.11	0
3	581543	49.21	0
3	582750	49.31	0
3	583957	49.41	0
3	585164	49.51	0
3	586371	49.61	0
3	587578	49.71	0
3	588785	49.81	0
3	589992	49.91	0
3	591211	50.01	0
3	592418	50.11	0
3	593625	50.21	0
3	594832	50.31	0
3	596039	50.41	0
3	597246	50.51	0
3	598453	50.61	0
3	599660	50.71	0
3	600867	50.81	0
3	602074	50.91	0
3	603293	51.01	0
3	604500	51.11	0
3	605707	51.21	0
3	606914	51.31	0
3	608121	51.41	0
3	609328	51.51	0
3	610535	51.61	0
3	611742	51.71	0
3	612949	51.81	0
3	614156	51.91	0
3	615375	52.01	0
3	616582	52.11	0
3	617789	52.21	0
3	618996	52.31	0
3	620203	52.41	0
3	621410	52.51	0
3	622617	52.61	0
3	623824	52.71	0
3	625031	52.81	0
3	626238	52.91	0
3	627457	53.01	0
3	628664	53.11	0
3	629871	53.21	0
3	631078	53.31	0
3	632285	53.41	0
3	633492	53.51	0
3	634699	53.61	0
3	635906	53.71	0
3	637246	53.81	0
3	638452	53.91	0
3	639670	54.01	0
3	640876	54.11	0
3	642082	54.21	0
3	643288	54.31	0
3	644494	54.41	0
3	645700	54.51	0
3	646906	54.61	0
3	648112	54.71	0
3	649318	54.81	0
3	650524	54.91	0
3	651742	55.01	0
3	652948	55.11	0
3	654154	55.21	0
3	655360	55.31	0
3	656566	55.41	0
3	657772	55.51	0
3	658978	55.61	0
3	660184	55.71	0
3	661390	55.81	0
3	662596	55.91	0
3	663814	56.01	0
3	665020	56.11	0
3	666226	56.21	0
3	667432	56.31	0
3	668638	56.41	0
3	669844	56.51	0
3	671050	56.61	0
3	672256	56.71	0
3	673462	56.81	0
3	674668	56.91	0
3	675886	57.01	0
3	677092	57.11	0
3	678298	57.21	0
3	679504	57.31	0
3	680710	57.41	0
3	681916	57.51	0
3	683122	57.61	0
3	684328	57.71	0
3	685534	57.81	0
3	686740	57.91	0
3	687958	58.01	0
3	689164	58.11	0
3	690370	58.21	0
3	691576	58.31	0
3	692782	58.41	0
3	693988	58.51	0
3	695194	58.61	0
3	696554	58.71	0
3	697759	58.81	0
3	698964	58.91	0
3	700181	59.01	0
3	701386	59.11	0
3	702591	59.21	0
3	703796	59.31	0
3	705001	59.41	0
3	706206	59.51	0
3	707411	59.61	0
3	708616	59.71	0
3	709821	59.81	0
3	711026	59.91	0
3	712243	60.01	0
3	713448	60.11	0
3	714653	60.21	0
3	715858	60.31	0
3	717063	60.41	0
3	718268	60.51	0
3	719473	60.61	0
3	720678	60.71	0
3	721883	60.81	0
3	723088	60.91	0
3	724305	61.01	0
3	725510	61.11	0
3	726715	61.21	0
3	727920	61.31	0
3	729125	61.41	0
3	730330	61.51	0
3	731535	61.61	0
3	732740	61.71	0
3	733945	61.81	0
3	735150	61.91	0
3	736367	62.01	0
3	737572	62.11	0
3	738777	62.21	0
3	739982	62.31	0
3	741187	62.41	0
3	742392	62.51	0
3	743597	62.61	0
3	744802	62.71	0
3	746007	62.81	0
3	747212	62.91	0
3	748429	63.01	0
3	749634	63.11	0
3	750839	63.21	0
3	752177	63.31	0
3	753381	63.41	0
3	754585	63.51	0
3	755789	63.61	0
3	756993	63.71	0
3	758197	63.81	0
3	759401	63.91	0
3	760617	64.01	0
3	761821	64.11	0
3	763025	64.21	0
3	764229	64.31	0
3	765433	64.41	0
3	766637	64.51	0
3	767841	64.61	0
3	769045	64.71	0
3	770249	64.81	0
3	771453	64.91	0
3	772669	65.01	0
3	773873	65.11	0
3	775077	65.21	0
3	776281	65.31	0
3	777485	65.41	0
3	778689	65.51	0
3	779893	65.61	0
3	781097	65.71	0
3	782301	65.81	0
3	783505	65.91	0
3	784721	66.01	0
3	785925	66.11	0
3	787129	66.21	0
3	788333	66.31	0
3	789537	66.41	0
3	790741	66.51	0
3	791945	66.61	0
3	793149	66.71	0
3	794353	66.81	0
3	795557	66.91	0
3	796773	67.01	0
3	797977	67.11	0
3	799181	67.21	0
3	800385	67.31	0
3	801589	67.41	0
3	802793	67.51	0
3	803997	67.61	0
3	805334	67.71	0
3	806537	67.81	0
3	807740	67.91	0
3	808955	68.01	0
3	810158	68.11	0
3	811361	68.21	0
3	812564	68.31	0
3	813767	68.41	0
3	814970	68.51	0
3	816173	68.61	0
3	817376	68.71	0
3	818579	68.81	0
3	819782	68.91	0
3	820997	69.01	0
3	822200	69.11	0
3	823403	69.21	0
3	824606	69.31	0
3	825809	69.41	0
3	827012	69.51	0
3	828215	69.61	0
3	829418	69.71	0
3	830621	69.81	0
3	831824	69.91	0
3	833039	70.01	0
3	834242	70.11	0
3	835445	70.21	0
3	836648	70.31	0
3	837851	70.41	0
3	839054	70.51	0
3	840257	70.61	0
3	841460	70.71	0
3	842663	70.81	0
3	843866	70.91	0
3	845081	71.01	0
3	846284	71.11	0
3	847487	71.21	0
3	848690	71.31	0
3	849893	71.41	0
3	851096	71.51	0
3	852299	71.61	0
3	853502	71.71	0
3	854705	71.81	0
3	855908	71.91	0
3	857256	72.01	0
3	858458	72.11	0
3	859660	72.21	0
3	860862	72.31	0
3	862064	72.41	0
3	863266	72.51	0
3	864468	72.61	0
[...]
165	1098964	92	0.037458676215
165	1110956	93	0.037445799809
165	1122948	94	0.037445866906
165	1134940	95	0.037458877887
165	1146932	96	0.037445835667
165	1158924	97	0.037445765062
165	1170916	98	0.037458677903
165	1182908	99	0.037445492658
165	1194900	100	0.037445402676
166	10443	2	0
166	22435	3	0
166	34427	4	0
166	46419	5	0
166	58411	6	0
166	70403	7	0
166	82395	8	0
166	94387	9	0
166	106380	10	0
166	118580	11	0
166	130682	12	0
166	142784	13	0
166	154886	14	0
166	166988	15	0
166	179090	16	0
166	191192	17	0
166	203294	18	0
166	215396	19	0
166	227498	20	0
166	239600	21	0
166	251702	22	0
166	263804	23	0
166	275906	24	0
166	288008	25	0
166	300110	26	0
166	312212	27	0
166	324314	28	0
166	336416	29	0
166	348518	30	0
166	360620	31	0
166	372722	32	0
166	384824	33	0
166	396926	34	0
166	409028	35	0
166	421130	36	0
166	433232	37	0
166	445334	38	0
166	457436	39	0
166	469538	40	0
166	481640	41	0
166	493742	42	0
166	505975	43	0
166	518067	44	0
166	530159	45	0
166	542251	46	0
166	554343	47	0
166	566435	48	0
166	578656	49	0
166	590738	50	0
166	602820	51	0
166	614902	52	0
166	626984	53	0
166	639198	54	0
166	651270	55	0
166	663342	56	0
166	675414	57	0
166	687486	58	0
166	699710	59	0
166	711772	60	0
166	723834	61	0
166	735896	62	0
166	747958	63	0
166	760147	64	0
166	772199	65	0
166	784251	66	0
166	796303	67	0
166	808486	68	0
166	820528	69	0
166	832570	70	0
166	844612	71	0
166	856654	72	0
166	868820	73	0
166	880852	74	0
166	892884	75	0
166	904916	76	0
166	917074	77	0
166	929096	78	0
166	941118	79	0
166	953140	80	0
166	965289	81	0
166	977301	82	0
166	989313	83	0
166	1001325	84	0
166	1013465	85	0
166	1025467	86	0
166	1037469	87	0
166	1049471	88	0
166	1062988	89	0
166	1074980	90	0
166	1086972	91	0
166	1098964	92	0
166	1110956	93	0
166	1122948	94	0
166	1134940	95	0
166	1146932	96	0
166	1158924	97	0
166	1170916	98	0
166	1182908	99	0
166	1194900	100	0
167	10444	2	7
167	22436	3	7
167	34428	4	7
167	46420	5	7
167	58412	6	7
167	70404	7	7
167	82396	8	7
167	94388	9	7
167	106381	10	7
167	118581	11	7
167	130683	12	7
167	142785	13	7
167	154887	14	7
167	166989	15	7
167	179091	16	7
167	191193	17	7
167	203295	18	7
167	215397	19	7
167	227499	20	7
167	239601	21	7
167	251703	22	7
167	263805	23	7
167	275907	24	7
167	288009	25	7
167	300111	26	7
167	312213	27	7
167	324315	28	7
167	336417	29	7
167	348519	30	7
167	360621	31	7
167	372723	32	7
167	384825	33	7
167	396927	34	7
167	409029	35	7
167	421131	36	7
167	433233	37	7
167	445335	38	7
167	457437	39	7
167	469539	40	7
167	481641	41	7
167	493743	42	7
167	505976	43	7
167	518068	44	7
167	530160	45	7
167	542252	46	7
167	554344	47	7
167	566436	48	7
167	578657	49	7
167	590739	50	7
167	602821	51	7
167	614903	52	7
167	626985	53	7
167	639199	54	7
167	651271	55	7
167	663343	56	7
167	675415	57	7
167	687487	58	7
167	699711	59	7
167	711773	60	7
167	723835	61	7
167	735897	62	7
167	747959	63	7
167	760148	64	7
167	772200	65	7
167	784252	66	7
167	796304	67	7
167	808487	68	7
167	820529	69	7
167	832571	70	7
167	844613	71	7
167	856655	72	7
167	868821	73	7
167	880853	74	7
167	892885	75	7
167	904917	76	7
167	917075	77	7
167	929097	78	7
167	941119	79	7
167	953141	80	7
167	965290	81	7
167	977302	82	7
167	989314	83	7
167	1001326	84	7
167	1013466	85	7
167	1025468	86	7
167	1037470	87	7
167	1049472	88	7
167	1062989	89	7
167	1074981	90	7
167	1086973	91	7
167	1098965	92	7
167	1110957	93	7
167	1122949	94	7
167	1134941	95	7
167	1146933	96	7
167	1158925	97	7
167	1170917	98	7
167	1182909	99	7
167	1194901	100	7
168	10444	2	0.032380374038
168	22436	3	0.037458993141
168	34428	4	0.037445993188
168	46420	5	0.037445993235
168	58412	6	0.037445993258
168	70404	7	0.037458993288
168	82396	8	0.037445993323
168	94388	9	0.037445993328
168	106381	10	0.037458993337
168	118581	11	0.037490950663
168	130683	12	0.037458957133
168	142785	13	0.037445866634
168	154887	14	0.037445718415
168	166989	15	0.037458517858
168	179091	16	0.037445271055
168	191193	17	0.037444983915
168	203295	18	0.037457662112
168	215397	19	0.037444310913
168	227499	20	0.037456935333
168	239601	21	0.037443540029
168	251703	22	0.03745612935
168	263805	23	0.037442707373
168	275907	24	0.037455277809
168	288009	25	0.037441844088
168	300111	26	0.037454409321
168	312213	27	0.037453976328
168	324315	28	0.037440547589
168	336417	29	0.037453125337
168	348519	30	0.037452711479
168	360621	31	0.037452307667
168	372723	32	0.037451915295
168	384825	33	0.03745153551
168	396927	34	0.037438169222
168	409029	35	0.037450817151
168	421131	36	0.037450479797
168	433233	37	0.03745015753
168	445335	38	0.037449850509
168	457437	39	0.037449558801
168	469539	40	0.037449282326
168	481641	41	0.037462020901
168	493743	42	0.03744877428
168	505976	43	0.037552449359
168	518068	44	0.037448323957
168	530160	45	0.037461119412
168	542252	46	0.037447927954
168	554344	47	0.037447749068
168	566436	48	0.037447582193
168	578657	49	0.037564240927
168	590739	50	0.037447282272
168	602821	51	0.037447148088
168	614903	52	0.037460023672
168	626985	53	0.037446908457
168	639199	54	0.037563522814
168	651271	55	0.037446703509
168	663343	56	0.037446612726
168	675415	57	0.037459529065
168	687487	58	0.037446452055
168	699711	59	0.037299008872
168	711773	60	0.037446316213
168	723835	61	0.037446256533
168	735897	62	0.03745920182
168	747959	63	0.037446151713
168	760148	64	0.037562640192
168	772200	65	0.037446063942
168	784252	66	0.037446025649
168	796304	67	0.037458990686
168	808487	68	0.037562586497
168	820529	69	0.037445929752
168	832571	70	0.037445903295
168	844613	71	0.037458879208
168	856655	72	0.037445857314
168	868821	73	0.037595837422
168	880853	74	0.037445819348
168	892885	75	0.037458802961
168	904917	76	0.037445788074
168	917075	77	0.037562028992
168	929097	78	0.037445762379
168	941119	79	0.037458751318
168	953141	80	0.037445741311
168	965290	81	0.037561893339
168	977302	82	0.037445724092
168	989314	83	0.037458716696
168	1001326	84	0.037445710028
168	1013466	85	0.037561958516
168	1025468	86	0.037445698573
168	1037470	87	0.037458693682
168	1049472	88	0.037445689269
168	1062989	89	0.038666812536
168	1074981	90	0.037445588055
168	1086973	91	0.037445581309
168	1098965	92	0.037458686636
168	1110957	93	0.037445813013
168	1122949	94	0.037445880812
168	1134941	95	0.037458891373
168	1146933	96	0.037445848608
168	1158925	97	0.037445777648
168	1170917	98	0.037458690223
168	1182909	99	0.037445504619
168	1194901	100	0.037445414022
169	10444	2	0
169	22436	3	0
169	34428	4	0
169	46420	5	0
169	58412	6	0
169	70404	7	0
169	82396	8	0
169	94388	9	0
169	106381	10	0
169	118581	11	0
169	130683	12	0
169	142785	13	0
169	154887	14	0
169	166989	15	0
169	179091	16	0
169	191193	17	0
169	203295	18	0
169	215397	19	0
169	227499	20	0
169	239601	21	0
169	251703	22	0
169	263805	23	0
169	275907	24	0
169	288009	25	0
169	300111	26	0
169	312213	27	0
169	324315	28	0
169	336417	29	0
169	348519	30	0
169	360621	31	0
169	372723	32	0
169	384825	33	0
169	396927	34	0
169	409029	35	0
169	421131	36	0
169	433233	37	0
169	445335	38	0
169	457437	39	0
169	469539	40	0
169	481641	41	0
169	493743	42	0
169	505976	43	0
169	518068	44	0
169	530160	45	0
169	542252	46	0
169	554344	47	0
169	566436	48	0
169	578657	49	0
169	590739	50	0
169	602821	51	0
169	614903	52	0
169	626985	53	0
169	639199	54	0
169	651271	55	0
169	663343	56	0
169	675415	57	0
169	687487	58	0
169	699711	59	0
169	711773	60	0
169	723835	61	0
169	735897	62	0
169	747959	63	0
169	760148	64	0
169	772200	65	0
169	784252	66	0
169	796304	67	0
169	808487	68	0
169	820529	69	0
169	832571	70	0
169	844613	71	0
169	856655	72	0
169	868821	73	0
169	880853	74	0
169	892885	75	0
169	904917	76	0
169	917075	77	0
169	929097	78	0
169	941119	79	0
169	953141	80	0
169	965290	81	0
169	977302	82	0
169	989314	83	0
169	1001326	84	0
169	1013466	85	0
169	1025468	86	0
169	1037470	87	0
169	1049472	88	0
169	1062989	89	0
169	1074981	90	0
169	1086973	91	0
169	1098965	92	0
169	1110957	93	0
169	1122949	94	0
169	1134941	95	0
169	1146933	96	0
169	1158925	97	0
169	1170917	98	0
169	1182909	99	0
169	1194901	100	0
170	10445	2	8
170	22437	3	8
170	34429	4	8
170	46421	5	8
170	58413	6	8
170	70405	7	8
170	82397	8	8
170	94389	9	8
170	106382	10	8
170	118582	11	8
170	130684	12	8
170	142786	13	8
170	154888	14	8
170	166990	15	8
170	179092	16	8
170	191194	17	8
170	203296	18	8
170	215398	19	8
170	227500	20	8
170	239602	21	8
170	251704	22	8
170	263806	23	8
170	275908	24	8
170	288010	25	8
170	300112	26	8
170	312214	27	8
170	324316	28	8
170	336418	29	8
170	348520	30	8
170	360622	31	8
170	372724	32	8
170	384826	33	8
170	396928	34	8
170	409030	35	8
170	421132	36	8
170	433234	37	8
170	445336	38	8
170	457438	39	8
170	469540	40	8
170	481642	41	8
170	493744	42	8
170	505977	43	8
170	518069	44	8
170	530161	45	8
170	542253	46	8
170	554345	47	8
170	566437	48	8
170	578658	49	8
170	590740	50	8
170	602822	51	8
170	614904	52	8
170	626986	53	8
170	639200	54	8
170	651272	55	8
170	663344	56	8
170	675416	57	8
170	687488	58	8
170	699712	59	8
170	711774	60	8
170	723836	61	8
170	735898	62	8
170	747960	63	8
170	760149	64	8
170	772201	65	8
170	784253	66	8
170	796305	67	8
170	808488	68	8
170	820530	69	8
170	832572	70	8
170	844614	71	8
170	856656	72	8
170	868822	73	8
170	880854	74	8
170	892886	75	8
170	904918	76	8
170	917076	77	8
170	929098	78	8
170	941120	79	8
170	953142	80	8
170	965291	81	8
170	977303	82	8
170	989315	83	8
170	1001327	84	8
170	1013467	85	8
170	1025469	86	8
170	1037471	87	8
170	1049473	88	8
170	1062990	89	8
170	1074982	90	8
170	1086974	91	8
170	1098966	92	8
170	1110958	93	8
170	1122950	94	8
170	1134942	95	8
170	1146934	96	8
170	1158926	97	8
170	1170918	98	8
170	1182910	99	8
170	1194902	100	8
171	10445	2	0.032381354025
171	22437	3	0.037458993141
171	34429	4	0.037445993187
171	46421	5	0.037445993235
171	58413	6	0.037445993258
171	70405	7	0.037458993288
171	82397	8	0.037445993324
171	94389	9	0.037445993327
171	106382	10	0.037458993337
171	118582	11	0.037490950667
171	130684	12	0.03745895713
171	142786	13	0.03744586661
171	154888	14	0.037445718363
171	166990	15	0.037458517768
171	179092	16	0.037445270916
171	191194	17	0.03744498372
171	203296	18	0.037457661852
171	215398	19	0.037444310585
171	227500	20	0.037456934932
171	239602	21	0.037443539558
171	251704	22	0.037456128808
171	263806	23	0.037442706765
171	275908	24	0.037455277141
171	288010	25	0.037441843365
171	300112	26	0.03745440855
171	312214	27	0.03745397552
171	324316	28	0.037440546749
171	336418	29	0.037453124473
171	348520	30	0.037452710602
171	360622	31	0.037452306781
171	372724	32	0.037451914409
171	384826	33	0.03745153463
171	396928	34	0.037438168354
171	409030	35	0.037450816298
171	421132	36	0.037450478966
171	433234	37	0.037450156724
171	445336	38	0.037449849729
171	457438	39	0.03744955805
171	469540	40	0.037449281608
171	481642	41	0.037462020215
171	493744	42	0.037448773628
171	505977	43	0.037552448739
171	518069	44	0.037448323373
171	530161	45	0.037461118861
171	542253	46	0.037447927436
171	554345	47	0.037447748581
171	566437	48	0.037447581739
171	578658	49	0.037564240502
171	590740	50	0.037447281877
171	602822	51	0.037447147721
171	614904	52	0.037460023331
171	626986	53	0.037446908141
171	639200	54	0.037563522522
171	651272	55	0.037446703239
171	663344	56	0.037446612478
171	675416	57	0.037459528837
171	687488	58	0.037446451844
171	699712	59	0.037299008679
171	711774	60	0.037446316036
171	723836	61	0.037446256371
171	735898	62	0.037459201671
171	747960	63	0.037446151578
171	760149	64	0.037562640069
171	772201	65	0.037446063829
171	784253	66	0.037446025546
171	796305	67	0.037458990594
171	808488	68	0.037562586411
171	820530	69	0.037445929675
171	832572	70	0.037445903225
171	844614	71	0.037458879145
171	856656	72	0.037445857257
171	868822	73	0.037562185095
171	880854	74	0.037445819301
171	892886	75	0.037458802919
171	904918	76	0.037445788035
171	917076	77	0.037595774556
171	929098	78	0.037445762348
171	941120	79	0.037458751289
171	953142	80	0.037445741285
171	965291	81	0.037561893317
171	977303	82	0.037445724072
171	989315	83	0.037458716677
171	1001327	84	0.037445710011
171	1013467	85	0.037561958501
171	1025469	86	0.037445698559
171	1037471	87	0.037458693671
171	1049473	88	0.037445689258
171	1062990	89	0.038666815028
171	1074982	90	0.037445586082
171	1086974	91	0.037445578818
171	1098966	92	0.037458682383
171	1110958	93	0.037445807179
171	1122950	94	0.037445874249
171	1134942	95	0.037458884639
171	1146934	96	0.037445841843
171	1158926	97	0.037445770857
171	1170918	98	0.037458683453
171	1182910	99	0.03744549693
171	1194902	100	0.037445410904
172	10445	2	0
172	22437	3	0
172	34429	4	0
172	46421	5	0
172	58413	6	0
172	70405	7	0
172	82397	8	0
172	94389	9	0
172	106382	10	0
172	118582	11	0
172	130684	12	0
172	142786	13	0
172	154888	14	0
172	166990	15	0
172	179092	16	0
172	191194	17	0
172	203296	18	0
172	215398	19	0
172	227500	20	0
172	239602	21	0
172	251704	22	0
172	263806	23	0
172	275908	24	0
172	288010	25	0
172	300112	26	0
172	312214	27	0
172	324316	28	0
172	336418	29	0
172	348520	30	0
172	360622	31	0
172	372724	32	0
172	384826	33	0
172	396928	34	0
172	409030	35	0
172	421132	36	0
172	433234	37	0
172	445336	38	0
172	457438	39	0
172	469540	40	0
172	481642	41	0
172	493744	42	0
172	505977	43	0
172	518069	44	0
172	530161	45	0
172	542253	46	0
172	554345	47	0
172	566437	48	0
172	578658	49	0
172	590740	50	0
172	602822	51	0
172	614904	52	0
172	626986	53	0
172	639200	54	0
172	651272	55	0
172	663344	56	0
172	675416	57	0
172	687488	58	0
172	699712	59	0
172	711774	60	0
172	723836	61	0
172	735898	62	0
172	747960	63	0
172	760149	64	0
172	772201	65	0
172	784253	66	0
172	796305	67	0
172	808488	68	0
172	820530	69	0
172	832572	70	0
172	844614	71	0
172	856656	72	0
172	868822	73	0
172	880854	74	0
172	892886	75	0
172	904918	76	0
172	917076	77	0
172	929098	78	0
172	941120	79	0
172	953142	80	0
172	965291	81	0
172	977303	82	0
172	989315	83	0
172	1001327	84	0
172	1013467	85	0
172	1025469	86	0
172	1037471	87	0
172	1049473	88	0
172	1062990	89	0
172	1074982	90	0
172	1086974	91	0
172	1098966	92	0
172	1110958	93	0
172	1122950	94	0
172	1134942	95	0
172	1146934	96	0
172	1158926	97	0
172	1170918	98	0
172	1182910	99	0
172	1194902	100	0
173	10446	2	9
173	22438	3	9
173	34430	4	9
173	46422	5	9
173	58414	6	9
173	70406	7	9
173	82398	8	9
173	94390	9	9
173	106383	10	9
173	118583	11	9
173	130685	12	9
173	142787	13	9
173	154889	14	9
173	166991	15	9
173	179093	16	9
173	191195	17	9
173	203297	18	9
173	215399	19	9
173	227501	20	9
173	239603	21	9
173	251705	22	9
173	263807	23	9
173	275909	24	9
173	288011	25	9
173	300113	26	9
173	312215	27	9
173	324317	28	9
173	336419	29	9
173	348521	30	9
173	360623	31	9
173	372725	32	9
173	384827	33	9
173	396929	34	9
173	409031	35	9
173	421133	36	9
173	433235	37	9
173	445337	38	9
173	457439	39	9
173	469541	40	9
173	481643	41	9
173	493745	42	9
173	505978	43	9
173	518070	44	9
173	530162	45	9
173	542254	46	9
173	554346	47	9
173	566438	48	9
173	578659	49	9
173	590741	50	9
173	602823	51	9
173	614905	52	9
173	626987	53	9
173	639201	54	9
173	651273	55	9
173	663345	56	9
173	675417	57	9
173	687489	58	9
173	699713	59	9
173	711775	60	9
173	723837	61	9
173	735899	62	9
173	747961	63	9
173	760150	64	9
173	772202	65	9
173	784254	66	9
173	796306	67	9
173	808489	68	9
173	820531	69	9
173	832573	70	9
173	844615	71	9
173	856657	72	9
173	868823	73	9
173	880855	74	9
173	892887	75	9
173	904919	76	9
173	917077	77	9
173	929099	78	9
173	941121	79	9
173	953143	80	9
173	965292	81	9
173	977304	82	9
173	989316	83	9
173	1001328	84	9
173	1013468	85	9
173	1025470	86	9
173	1037472	87	9
173	1049474	88	9
173	1062991	89	9
173	1074983	90	9
173	1086975	91	9
173	1098967	92	9
173	1110959	93	9
173	1122951	94	9
173	1134943	95	9
173	1146935	96	9
173	1158927	97	9
173	1170919	98	9
173	1182911	99	9
173	1194903	100	9
174	10446	2	0.032381334011
174	22438	3	0.037458993141
174	34430	4	0.037445993187
174	46422	5	0.037445993235
174	58414	6	0.037445993258
174	70406	7	0.037458993288
174	82398	8	0.037445993324
174	94390	9	0.037445993327
174	106383	10	0.037458993338
174	118583	11	0.037490950669
174	130685	12	0.037458957131
174	142787	13	0.037445866598
174	154889	14	0.037445718329
174	166991	15	0.03745851771
174	179093	16	0.037445270825
174	191195	17	0.037444983589
174	203297	18	0.037457661677
174	215399	19	0.037444310356
174	227501	20	0.037456934647
174	239603	21	0.037443539213
174	251705	22	0.037456128403
174	263807	23	0.037442706298
174	275909	24	0.037455276614
174	288011	25	0.037441842783
174	300113	26	0.037454407917
174	312215	27	0.037453974839
174	324317	28	0.037440546028
174	336419	29	0.037453123717
174	348521	30	0.037452709817
174	360623	31	0.037452305975
174	372725	32	0.037451913589
174	384827	33	0.0374515338
174	396929	34	0.03743816752
174	409031	35	0.037450815468
174	421133	36	0.037450478143
174	433235	37	0.037450155912
174	445337	38	0.037449848934
174	457439	39	0.037449557275
174	469541	40	0.037449280853
174	481643	41	0.037462019487
174	493745	42	0.037448772925
174	505978	43	0.037552448065
174	518070	44	0.037448322727
174	530162	45	0.037461118245
174	542254	46	0.037447926851
174	554346	47	0.037447748026
174	566438	48	0.037447581214
174	578659	49	0.037564240007
174	590741	50	0.03744728141
174	602823	51	0.037447147283
174	614905	52	0.037460022921
174	626987	53	0.037446907757
174	639201	54	0.037563522165
174	651273	55	0.037446702905
174	663345	56	0.037446612167
174	675417	57	0.037459528549
174	687489	58	0.037446451577
174	699713	59	0.037299008432
174	711775	60	0.037446315807
174	723837	61	0.037446256161
174	735899	62	0.037459201476
174	747961	63	0.037446151399
174	760150	64	0.037562639905
174	772202	65	0.037446063678
174	784254	66	0.037446025407
174	796306	67	0.037458990466
174	808489	68	0.037562586295
174	820531	69	0.037445929569
174	832573	70	0.037445903127
174	844615	71	0.037458879056
174	856657	72	0.037445857176
174	868823	73	0.037562185022
174	880855	74	0.037445819234
174	892887	75	0.037458802857
174	904919	76	0.03744578798
174	917077	77	0.037562028907
174	929099	78	0.037445762302
174	941121	79	0.037458751248
174	953143	80	0.037445741248
174	965292	81	0.037595732206
174	977304	82	0.037445724041
174	989316	83	0.037458716649
174	1001328	84	0.037445709986
174	1013468	85	0.037561958479
174	1025470	86	0.037445698538
174	1037472	87	0.037458693652
174	1049474	88	0.037445689242
174	1062991	89	0.038666814918
174	1074983	90	0.037445584225
174	1086975	91	0.037445575104
174	1098967	92	0.037458679475
174	1110959	93	0.037445803773
174	1122951	94	0.037445869071
174	1134943	95	0.037458878328
174	1146935	96	0.037445835553
174	1158927	97	0.037445765128
174	1170919	98	0.037458678228
174	1182911	99	0.037445493072
174	1194903	100	0.037445403057
175	10446	2	0
175	22438	3	0
175	34430	4	0
175	46422	5	0
175	58414	6	0
175	70406	7	0
175	82398	8	0
175	94390	9	0
175	106383	10	0
175	118583	11	0
175	130685	12	0
175	142787	13	0
175	154889	14	0
175	166991	15	0
175	179093	16	0
175	191195	17	0
175	203297	18	0
175	215399	19	0
175	227501	20	0
175	239603	21	0
175	251705	22	0
175	263807	23	0
175	275909	24	0
175	288011	25	0
175	300113	26	0
175	312215	27	0
175	324317	28	0
175	336419	29	0
175	348521	30	0
175	360623	31	0
175	372725	32	0
175	384827	33	0
175	396929	34	0
175	409031	35	0
175	421133	36	0
175	433235	37	0
175	445337	38	0
175	457439	39	0
175	469541	40	0
175	481643	41	0
175	493745	42	0
175	505978	43	0
175	518070	44	0
175	530162	45	0
175	542254	46	0
175	554346	47	0
175	566438	48	0
175	578659	49	0
175	590741	50	0
175	602823	51	0
175	614905	52	0
175	626987	53	0
175	639201	54	0
175	651273	55	0
175	663345	56	0
175	675417	57	0
175	687489	58	0
175	699713	59	0
175	711775	60	0
175	723837	61	0
175	735899	62	0
175	747961	63	0
175	760150	64	0
175	772202	65	0
175	784254	66	0
175	796306	67	0
175	808489	68	0
175	820531	69	0
175	832573	70	0
175	844615	71	0
175	856657	72	0
175	868823	73	0
175	880855	74	0
175	892887	75	0
175	904919	76	0
175	917077	77	0
175	929099	78	0
175	941121	79	0
175	953143	80	0
175	965292	81	0
175	977304	82	0
175	989316	83	0
175	1001328	84	0
175	1013468	85	0
175	1025470	86	0
175	1037472	87	0
175	1049474	88	0
175	1062991	89	0
175	1074983	90	0
175	1086975	91	0
175	1098967	92	0
175	1110959	93	0
175	1122951	94	0
175	1134943	95	0
175	1146935	96	0
175	1158927	97	0
175	1170919	98	0
175	1182911	99	0
175	1194903	100	0

