version 3
run BreakRanksNoGui-833-20240711-14:25:29-290838
attr configname BreakRanksNoGui
attr datetime 20240711-14:25:29
attr datetimef 20240711-142529
attr experiment BreakRanksNoGui
attr inifile omnetpp.ini
attr iterationvars "$nCars=9, $platoonSize=9, $nLanes=1, $ploegH=0.5, $controller=1, $headway=0.1, $leaderHeadway=1.2, $leaderSpeed=130, $breakRanksSafetyDistance=10, $minSpeed=120, $maxSpeed=140, $beaconInterval=0.1, $priority=4, $packetSize=200, $sController=\"CACC\", $0=2, $1=0"
attr iterationvarsd nCars=9/platoonSize=9/nLanes=1/ploegH=0.5/controller=1/headway=0.1/leaderHeadway=1.2/leaderSpeed=130/breakRanksSafetyDistance=10/minSpeed=120/maxSpeed=140/beaconInterval=0.1/priority=4/packetSize=200/sController=CACC/2/0
attr iterationvarsf nCars=9,platoonSize=9,nLanes=1,ploegH=0.5,controller=1,headway=0.1,leaderHeadway=1.2,leaderSpeed=130,breakRanksSafetyDistance=10,minSpeed=120,maxSpeed=140,beaconInterval=0.1,priority=4,packetSize=200,sController=CACC,2,0-
attr measurement "$nCars=9, $platoonSize=9, $nLanes=1, $ploegH=0.5, $controller=1, $headway=0.1, $leaderHeadway=1.2, $leaderSpeed=130, $breakRanksSafetyDistance=10, $minSpeed=120, $maxSpeed=140, $beaconInterval=0.1, $priority=4, $packetSize=200, $sController=\"CACC\", $0=2, $1=0"
attr network Highway
attr processid 290838
attr repetition 3
attr replication #3
attr resultdir results
attr runnumber 833
attr seedset 3
itervar beaconInterval 0.1
itervar breakRanksSafetyDistance 10
itervar controller 1
itervar headway 0.1
itervar leaderHeadway 1.2
itervar leaderSpeed 130
itervar maxSpeed 140
itervar minSpeed 120
itervar nCars 9
itervar nLanes 1
itervar packetSize 200
itervar platoonSize 9
itervar ploegH 0.5
itervar priority 4
itervar sController "\"CACC\""
config image-path ../../../veins/images
config repeat 10
config extends BreakRanks
config *.manager.command "\"sumo\""
config *.manager.ignoreGuiCommands true
config output-vector-file "results/BreakRanks_1_0.1_130_10_9 /result_3.vec"
config output-scalar-file "results/BreakRanks_1_0.1_130_10_9 /result_3.sca"
config extends Platooning
config *.node[*].scenario_type "\"BreakRanksScenario\""
config *.manager.command "\"sumo-gui\""
config *.node[*].scenario_type "\"SimpleScenario\""
config cmdenv-express-mode true
config cmdenv-autoflush true
config cmdenv-status-frequency 15s
config num-rngs 6
config network Highway
config debug-on-errors true
config print-undisposed true
config *.playgroundSizeX 65000m
config *.playgroundSizeY 25000m
config *.playgroundSizeZ 50m
config sim-time-limit "100 s"
config *.annotations.draw false
config *.obstacles.debug false
config *.world.useTorus false
config *.world.use2D false
config *.manager.updateInterval 0.01s
config *.manager.host "\"localhost\""
config *.manager.moduleType "\"org.car2x.plexe.PlatoonCar\""
config *.manager.moduleName "\"node\""
config *.manager.moduleDisplayString "\"\""
config *.manager.autoShutdown true
config *.manager.margin 25
config *.connectionManager.sendDirect true
config *.connectionManager.maxInterfDist 2600m
config *.connectionManager.drawMaxIntfDist false
config *.**.nic.mac1609_4.useServiceChannel false
config *.**.nic.mac1609_4.txPower 100mW
config *.**.nic.mac1609_4.bitrate 6Mbps
config *.**.nic.mac1609_4.useAcks true
config *.**.nic.mac1609_4.ackErrorRate 0.0
config *.**.nic.mac1609_4.frameErrorRate 0.0
config *.**.nic.phy80211p.minPowerLevel -94dBm
config *.**.nic.phy80211p.maxTXPower 100mW
config *.**.nic.phy80211p.useNoiseFloor true
config *.**.nic.phy80211p.noiseFloor -95dBm
config *.**.nic.phy80211p.decider "xmldoc(\"config.xml\")"
config *.**.nic.phy80211p.analogueModels "xmldoc(\"config.xml\")"
config *.**.nic.phy80211p.usePropagationDelay true
config *.node[*].mobility.x 0
config *.node[*].mobility.y 0
config *.node[*].mobility.z 1.895
config seed-set 3
config **.seed 3
config *.node[*].prot.rng-0 2
config *.node[*].appl.rng-0 3
config *.node[*].scenario.rng-0 4
config **.traffic.rng-0 5
config *.manager.configFile "\"./sumocfg/freeway.sumo.cfg\""
config *.manager.launchConfig "xmldoc(\"./sumocfg/freeway.launchd.xml\")"
config **.numberOfCars 9
config **.numberOfCarsPerPlatoon 9
config **.numberOfLanes 1
config *.node[*].helper_type "\"PositionHelper\""
config *.node[*].scenario.caccC1 0.5
config *.node[*].scenario.caccXi 1
config *.node[*].scenario.caccOmegaN "0.2 Hz"
config *.node[*].scenario.caccSpacing "2 m"
config *.node[*].scenario.engineTau "0.5 s"
config *.node[*].scenario.ploegH 0.5s
config *.node[*].scenario.ploegKp 0.2
config *.node[*].scenario.ploegKd 0.7
config *.node[*].scenario.useRealisticEngine false
config *.node[*].scenario.useControllerAcceleration true
config *.node[*].scenario.nLanes 1
config **.numericController 1
config **.headway 0.1s
config *.node[*].scenario.accHeadway 0.1s
config *.node[*].scenario.leaderHeadway 1.2s
config *.node[*].scenario.leaderSpeed 130kmph
config *.node[*].appl_type "\"SimplePlatooningApp\""
config *.node[*].appl.*.scalar-recording true
config *.node[*].appl.*.vector-recording true
config *.node[0].appl.breakRanksSafetyDistance 10m
config *.node[*].appl.minSpeed 120kmph
config *.node[*].appl.maxSpeed 140kmph
config *.node[*].protocol_type "\"SimplePlatooningBeaconing\""
config *.node[*].prot.*.scalar-recording true
config *.node[*].prot.*.vector-recording true
config *.node[*].prot.beaconingInterval 0.1s
config *.node[*].prot.priority 4
config *.node[*].prot.packetSize 200
config **.traffic_type "\"PlatoonsTrafficManager\""
config **.traffic.platoonInsertTime "1 s"
config **.traffic.platoonInsertSpeed 130kmph
config **.traffic.nCars 9
config **.traffic.platoonSize 9
config **.traffic.nLanes 1
config **.traffic.platooningVType "\"vtypeauto\""
config **.traffic.controller "\"CACC\""
config **.traffic.platoonInsertDistance 2m
config **.traffic.platoonInsertHeadway 0s
config **.traffic.platoonLeaderHeadway 1.2s
config **.scalar-recording false
config **.vector-recording false

vector 0 Highway.node[0].appl distance ETV
vector 1 Highway.node[0].appl relativeSpeed ETV
vector 2 Highway.node[0].appl nodeId ETV
vector 3 Highway.node[0].appl acceleration ETV
vector 4 Highway.node[0].appl controllerAcceleration ETV
vector 5 Highway.node[0].appl speed ETV
vector 6 Highway.node[0].appl posx ETV
vector 7 Highway.node[0].appl posy ETV
vector 8 Highway.node[1].appl distance ETV
vector 9 Highway.node[1].appl relativeSpeed ETV
vector 10 Highway.node[1].appl nodeId ETV
vector 11 Highway.node[1].appl acceleration ETV
vector 12 Highway.node[1].appl controllerAcceleration ETV
vector 13 Highway.node[1].appl speed ETV
vector 14 Highway.node[1].appl posx ETV
vector 15 Highway.node[1].appl posy ETV
vector 16 Highway.node[2].appl distance ETV
vector 17 Highway.node[2].appl relativeSpeed ETV
vector 18 Highway.node[2].appl nodeId ETV
vector 19 Highway.node[2].appl acceleration ETV
vector 20 Highway.node[2].appl controllerAcceleration ETV
vector 21 Highway.node[2].appl speed ETV
vector 22 Highway.node[2].appl posx ETV
vector 23 Highway.node[2].appl posy ETV
vector 24 Highway.node[3].appl distance ETV
vector 25 Highway.node[3].appl relativeSpeed ETV
vector 26 Highway.node[3].appl nodeId ETV
vector 27 Highway.node[3].appl acceleration ETV
vector 28 Highway.node[3].appl controllerAcceleration ETV
vector 29 Highway.node[3].appl speed ETV
vector 30 Highway.node[3].appl posx ETV
vector 31 Highway.node[3].appl posy ETV
vector 32 Highway.node[4].appl distance ETV
vector 33 Highway.node[4].appl relativeSpeed ETV
vector 34 Highway.node[4].appl nodeId ETV
vector 35 Highway.node[4].appl acceleration ETV
vector 36 Highway.node[4].appl controllerAcceleration ETV
vector 37 Highway.node[4].appl speed ETV
vector 38 Highway.node[4].appl posx ETV
vector 39 Highway.node[4].appl posy ETV
vector 40 Highway.node[5].appl distance ETV
vector 41 Highway.node[5].appl relativeSpeed ETV
vector 42 Highway.node[5].appl nodeId ETV
vector 43 Highway.node[5].appl acceleration ETV
vector 44 Highway.node[5].appl controllerAcceleration ETV
vector 45 Highway.node[5].appl speed ETV
vector 46 Highway.node[5].appl posx ETV
vector 47 Highway.node[5].appl posy ETV
vector 48 Highway.node[6].appl distance ETV
vector 49 Highway.node[6].appl relativeSpeed ETV
vector 50 Highway.node[6].appl nodeId ETV
vector 51 Highway.node[6].appl acceleration ETV
vector 52 Highway.node[6].appl controllerAcceleration ETV
vector 53 Highway.node[6].appl speed ETV
vector 54 Highway.node[6].appl posx ETV
vector 55 Highway.node[6].appl posy ETV
vector 56 Highway.node[7].appl distance ETV
vector 57 Highway.node[7].appl relativeSpeed ETV
vector 58 Highway.node[7].appl nodeId ETV
vector 59 Highway.node[7].appl acceleration ETV
vector 60 Highway.node[7].appl controllerAcceleration ETV
vector 61 Highway.node[7].appl speed ETV
vector 62 Highway.node[7].appl posx ETV
vector 63 Highway.node[7].appl posy ETV
vector 64 Highway.node[8].appl distance ETV
vector 65 Highway.node[8].appl relativeSpeed ETV
vector 66 Highway.node[8].appl nodeId ETV
vector 67 Highway.node[8].appl acceleration ETV
vector 68 Highway.node[8].appl controllerAcceleration ETV
vector 69 Highway.node[8].appl speed ETV
vector 70 Highway.node[8].appl posx ETV
vector 71 Highway.node[8].appl posy ETV
vector 72 Highway.node[1].prot leaderDelay ETV
vector 73 Highway.node[1].prot leaderDelayId ETV
vector 74 Highway.node[1].prot frontDelay ETV
vector 75 Highway.node[1].prot frontDelayId ETV
vector 76 Highway.node[2].prot leaderDelay ETV
vector 77 Highway.node[2].prot leaderDelayId ETV
vector 78 Highway.node[3].prot leaderDelay ETV
vector 79 Highway.node[3].prot leaderDelayId ETV
vector 80 Highway.node[4].prot leaderDelay ETV
vector 81 Highway.node[4].prot leaderDelayId ETV
vector 82 Highway.node[5].prot leaderDelay ETV
vector 83 Highway.node[5].prot leaderDelayId ETV
vector 84 Highway.node[6].prot leaderDelay ETV
vector 85 Highway.node[6].prot leaderDelayId ETV
vector 86 Highway.node[7].prot leaderDelay ETV
vector 87 Highway.node[7].prot leaderDelayId ETV
vector 88 Highway.node[8].prot leaderDelay ETV
vector 89 Highway.node[8].prot leaderDelayId ETV
vector 90 Highway.node[8].prot frontDelay ETV
vector 91 Highway.node[8].prot frontDelayId ETV
vector 92 Highway.node[7].prot frontDelay ETV
vector 93 Highway.node[7].prot frontDelayId ETV
vector 94 Highway.node[2].prot frontDelay ETV
vector 95 Highway.node[2].prot frontDelayId ETV
vector 96 Highway.node[5].prot frontDelay ETV
vector 97 Highway.node[5].prot frontDelayId ETV
vector 98 Highway.node[3].prot frontDelay ETV
vector 99 Highway.node[3].prot frontDelayId ETV
vector 100 Highway.node[6].prot frontDelay ETV
vector 101 Highway.node[6].prot frontDelayId ETV
vector 102 Highway.node[4].prot frontDelay ETV
vector 103 Highway.node[4].prot frontDelayId ETV
vector 104 Highway.node[0].prot nodeId ETV
vector 105 Highway.node[0].prot busyTime ETV
vector 106 Highway.node[0].prot collisions ETV
vector 107 Highway.node[1].prot nodeId ETV
vector 108 Highway.node[1].prot busyTime ETV
vector 109 Highway.node[1].prot collisions ETV
vector 110 Highway.node[2].prot nodeId ETV
vector 111 Highway.node[2].prot busyTime ETV
vector 112 Highway.node[2].prot collisions ETV
vector 113 Highway.node[3].prot nodeId ETV
vector 114 Highway.node[3].prot busyTime ETV
vector 115 Highway.node[3].prot collisions ETV
vector 116 Highway.node[4].prot nodeId ETV
vector 117 Highway.node[4].prot busyTime ETV
vector 118 Highway.node[4].prot collisions ETV
vector 119 Highway.node[5].prot nodeId ETV
vector 120 Highway.node[5].prot busyTime ETV
vector 121 Highway.node[5].prot collisions ETV
vector 122 Highway.node[6].prot nodeId ETV
vector 123 Highway.node[6].prot busyTime ETV
vector 124 Highway.node[6].prot collisions ETV
vector 125 Highway.node[7].prot nodeId ETV
vector 126 Highway.node[7].prot busyTime ETV
vector 127 Highway.node[7].prot collisions ETV
vector 128 Highway.node[8].prot nodeId ETV
vector 129 Highway.node[8].prot busyTime ETV
vector 130 Highway.node[8].prot collisions ETV
0	113	1.11	-1
0	798	1.21	-1
0	1483	1.31	-1
0	2168	1.41	-1
0	2853	1.51	-1
0	3538	1.61	-1
0	4223	1.71	-1
0	4908	1.81	-1
0	5593	1.91	-1
0	6287	2.01	-1
0	6972	2.11	-1
0	7657	2.21	-1
0	8342	2.31	-1
0	9027	2.41	-1
0	9712	2.51	-1
0	10397	2.61	-1
0	11082	2.71	-1
0	11767	2.81	-1
0	12452	2.91	-1
0	13146	3.01	-1
0	13831	3.11	-1
0	14516	3.21	-1
0	15201	3.31	-1
0	15886	3.41	-1
0	16571	3.51	-1
0	17256	3.61	-1
0	17941	3.71	-1
0	18626	3.81	-1
0	19311	3.91	-1
0	20005	4.01	-1
0	20690	4.11	-1
0	21375	4.21	-1
0	22060	4.31	-1
0	22745	4.41	-1
0	23430	4.51	-1
0	24115	4.61	-1
0	24800	4.71	-1
0	25485	4.81	-1
0	26170	4.91	-1
0	26864	5.01	-1
0	27549	5.11	-1
0	28234	5.21	-1
0	28919	5.31	-1
0	29604	5.41	-1
0	30289	5.51	-1
0	30974	5.61	-1
0	31659	5.71	-1
0	32344	5.81	-1
0	33029	5.91	-1
0	33723	6.01	-1
0	34408	6.11	-1
0	35093	6.21	-1
0	35778	6.31	-1
0	36463	6.41	-1
0	37148	6.51	-1
0	37833	6.61	-1
0	38518	6.71	-1
0	39203	6.81	-1
0	39888	6.91	-1
0	40582	7.01	-1
0	41267	7.11	-1
0	41952	7.21	-1
0	42637	7.31	-1
0	43322	7.41	-1
0	44007	7.51	-1
0	44692	7.61	-1
0	45377	7.71	-1
0	46062	7.81	-1
0	46747	7.91	-1
0	47441	8.01	-1
0	48126	8.11	-1
0	48811	8.21	-1
0	49496	8.31	-1
0	50181	8.41	-1
0	50866	8.51	-1
0	51551	8.61	-1
0	52236	8.71	-1
0	52921	8.81	-1
0	53606	8.91	-1
0	54300	9.01	-1
0	54985	9.11	-1
0	55670	9.21	-1
0	56355	9.31	-1
0	57040	9.41	-1
0	57725	9.51	-1
0	58410	9.61	-1
0	59095	9.71	-1
0	59780	9.81	-1
0	60465	9.91	-1
0	61242	10.01	-1
0	61935	10.11	-1
0	62628	10.21	-1
0	63321	10.31	-1
0	64014	10.41	-1
0	64707	10.51	-1
0	65400	10.61	-1
0	66093	10.71	-1
0	66786	10.81	-1
0	67479	10.91	-1
0	68181	11.01	-1
0	68874	11.11	-1
0	69567	11.21	-1
0	70260	11.31	-1
0	70953	11.41	-1
0	71646	11.51	-1
0	72339	11.61	-1
0	73032	11.71	-1
0	73725	11.81	-1
0	74418	11.91	-1
0	75120	12.01	-1
0	75813	12.11	-1
0	76506	12.21	-1
0	77199	12.31	-1
0	77892	12.41	-1
0	78585	12.51	-1
0	79278	12.61	-1
0	79971	12.71	-1
0	80664	12.81	-1
0	81357	12.91	-1
0	82059	13.01	-1
0	82752	13.11	-1
0	83445	13.21	-1
0	84138	13.31	-1
0	84831	13.41	-1
0	85524	13.51	-1
0	86217	13.61	-1
0	86910	13.71	-1
0	87603	13.81	-1
0	88296	13.91	-1
0	88998	14.01	-1
0	89691	14.11	-1
0	90384	14.21	-1
0	91077	14.31	-1
0	91770	14.41	-1
0	92463	14.51	-1
0	93156	14.61	-1
0	93849	14.71	-1
0	94542	14.81	-1
0	95235	14.91	-1
0	95937	15.01	-1
0	96630	15.11	-1
0	97323	15.21	-1
0	98016	15.31	-1
0	98709	15.41	-1
0	99402	15.51	-1
0	100095	15.61	-1
0	100788	15.71	-1
0	101481	15.81	-1
0	102174	15.91	-1
0	102876	16.01	-1
0	103569	16.11	-1
0	104262	16.21	-1
0	104955	16.31	-1
0	105648	16.41	-1
0	106341	16.51	-1
0	107034	16.61	-1
0	107727	16.71	-1
0	108420	16.81	-1
0	109113	16.91	-1
0	109815	17.01	-1
0	110508	17.11	-1
0	111201	17.21	-1
0	111894	17.31	-1
0	112587	17.41	-1
0	113280	17.51	-1
0	113973	17.61	-1
0	114666	17.71	-1
0	115359	17.81	-1
0	116052	17.91	-1
0	116754	18.01	-1
0	117447	18.11	-1
0	118140	18.21	-1
0	118833	18.31	-1
0	119526	18.41	-1
0	120219	18.51	-1
0	120912	18.61	-1
0	121605	18.71	-1
0	122298	18.81	-1
0	122991	18.91	-1
0	123693	19.01	-1
0	124386	19.11	-1
0	125079	19.21	-1
0	125772	19.31	-1
0	126465	19.41	-1
0	127158	19.51	-1
0	127851	19.61	-1
0	128544	19.71	-1
0	129237	19.81	-1
0	129930	19.91	-1
0	130632	20.01	-1
0	131325	20.11	-1
0	132018	20.21	-1
0	132711	20.31	-1
0	133404	20.41	-1
0	134097	20.51	-1
0	134790	20.61	-1
0	135483	20.71	-1
0	136176	20.81	-1
0	136869	20.91	-1
0	137571	21.01	-1
0	138264	21.11	-1
0	138957	21.21	-1
0	139650	21.31	-1
0	140343	21.41	-1
0	141036	21.51	-1
0	141729	21.61	-1
0	142422	21.71	-1
0	143115	21.81	-1
0	143808	21.91	-1
0	144510	22.01	-1
0	145203	22.11	-1
0	145896	22.21	-1
0	146589	22.31	-1
0	147282	22.41	-1
0	147975	22.51	-1
0	148668	22.61	-1
0	149361	22.71	-1
0	150054	22.81	-1
0	150747	22.91	-1
0	151449	23.01	-1
0	152142	23.11	-1
0	152835	23.21	-1
0	153528	23.31	-1
0	154221	23.41	-1
0	154914	23.51	-1
0	155607	23.61	-1
0	156300	23.71	-1
0	156993	23.81	-1
0	157686	23.91	-1
0	158388	24.01	-1
0	159081	24.11	-1
0	159774	24.21	-1
0	160467	24.31	-1
0	161160	24.41	-1
0	161853	24.51	-1
0	162546	24.61	-1
0	163239	24.71	-1
0	163932	24.81	-1
0	164625	24.91	-1
0	165327	25.01	-1
0	166020	25.11	-1
0	166713	25.21	-1
0	167406	25.31	-1
0	168099	25.41	-1
0	168792	25.51	-1
0	169485	25.61	-1
0	170178	25.71	-1
0	170871	25.81	-1
0	171564	25.91	-1
0	172266	26.01	-1
0	172959	26.11	-1
0	173652	26.21	-1
0	174345	26.31	-1
0	175038	26.41	-1
0	175731	26.51	-1
0	176424	26.61	-1
0	177117	26.71	-1
0	177810	26.81	-1
0	178503	26.91	-1
0	179205	27.01	-1
0	179898	27.11	-1
0	180591	27.21	-1
0	181284	27.31	-1
0	181977	27.41	-1
0	182670	27.51	-1
0	183363	27.61	-1
0	184056	27.71	-1
0	184749	27.81	-1
0	185442	27.91	-1
0	186144	28.01	-1
0	186837	28.11	-1
0	187530	28.21	-1
0	188223	28.31	-1
0	188916	28.41	-1
0	189609	28.51	-1
0	190302	28.61	-1
0	190995	28.71	-1
0	191688	28.81	-1
0	192381	28.91	-1
0	193083	29.01	-1
0	193776	29.11	-1
0	194469	29.21	-1
0	195162	29.31	-1
0	195855	29.41	-1
0	196548	29.51	-1
0	197241	29.61	-1
0	197934	29.71	-1
0	198627	29.81	-1
0	199320	29.91	-1
0	200022	30.01	-1
0	200715	30.11	-1
0	201408	30.21	-1
0	202101	30.31	-1
0	202794	30.41	-1
0	203487	30.51	-1
0	204180	30.61	-1
0	204873	30.71	-1
0	205566	30.81	-1
0	206259	30.91	-1
0	206961	31.01	-1
0	207654	31.11	-1
0	208347	31.21	-1
0	209040	31.31	-1
0	209733	31.41	-1
0	210426	31.51	-1
0	211119	31.61	-1
0	211812	31.71	-1
0	212505	31.81	-1
0	213198	31.91	-1
0	213900	32.01	-1
0	214593	32.11	-1
0	215286	32.21	-1
0	215979	32.31	-1
0	216672	32.41	-1
0	217365	32.51	-1
0	218058	32.61	-1
0	218751	32.71	-1
0	219444	32.81	-1
0	220137	32.91	-1
0	220839	33.01	-1
0	221532	33.11	-1
0	222225	33.21	-1
0	222918	33.31	-1
0	223611	33.41	-1
0	224304	33.51	-1
0	224997	33.61	-1
0	225690	33.71	-1
0	226383	33.81	-1
0	227076	33.91	-1
0	227778	34.01	-1
0	228471	34.11	-1
0	229164	34.21	-1
0	229857	34.31	-1
0	230550	34.41	-1
0	231243	34.51	-1
0	231936	34.61	-1
0	232629	34.71	-1
0	233322	34.81	-1
0	234015	34.91	-1
0	234717	35.01	-1
0	235410	35.11	-1
0	236103	35.21	-1
0	236796	35.31	-1
0	237489	35.41	-1
0	238182	35.51	-1
0	238875	35.61	-1
0	239568	35.71	-1
0	240261	35.81	-1
0	240954	35.91	-1
0	241656	36.01	-1
0	242349	36.11	-1
0	243042	36.21	-1
0	243735	36.31	-1
0	244428	36.41	-1
0	245121	36.51	-1
0	245814	36.61	-1
0	246507	36.71	-1
0	247200	36.81	-1
0	247893	36.91	-1
0	248595	37.01	-1
0	249288	37.11	-1
0	249981	37.21	-1
0	250674	37.31	-1
0	251367	37.41	-1
0	252060	37.51	-1
0	252753	37.61	-1
0	253446	37.71	-1
0	254139	37.81	-1
0	254832	37.91	-1
0	255534	38.01	-1
0	256227	38.11	-1
0	256920	38.21	-1
0	257613	38.31	-1
0	258306	38.41	-1
0	258999	38.51	-1
0	259692	38.61	-1
0	260385	38.71	-1
0	261078	38.81	-1
0	261771	38.91	-1
0	262473	39.01	-1
0	263166	39.11	-1
0	263859	39.21	-1
0	264552	39.31	-1
0	265245	39.41	-1
0	265938	39.51	-1
0	266631	39.61	-1
0	267324	39.71	-1
0	268017	39.81	-1
0	268710	39.91	-1
0	269412	40.01	-1
0	270105	40.11	-1
0	270798	40.21	-1
0	271491	40.31	-1
0	272184	40.41	-1
0	272877	40.51	-1
0	273570	40.61	-1
0	274263	40.71	-1
0	274956	40.81	-1
0	275649	40.91	-1
0	276351	41.01	-1
0	277044	41.11	-1
0	277737	41.21	-1
0	278430	41.31	-1
0	279123	41.41	-1
0	279816	41.51	-1
0	280509	41.61	-1
0	281202	41.71	-1
0	281895	41.81	-1
0	282588	41.91	-1
0	283290	42.01	-1
0	283983	42.11	-1
0	284676	42.21	-1
0	285369	42.31	-1
0	286062	42.41	-1
0	286755	42.51	-1
0	287448	42.61	-1
0	288244	42.71	-1
0	288936	42.81	-1
0	289628	42.91	-1
0	290329	43.01	-1
0	291021	43.11	-1
0	291713	43.21	-1
0	292405	43.31	-1
0	293097	43.41	-1
0	293789	43.51	-1
0	294481	43.61	-1
0	295173	43.71	-1
0	295865	43.81	-1
0	296557	43.91	-1
0	297258	44.01	-1
0	297950	44.11	-1
0	298642	44.21	-1
0	299334	44.31	-1
0	300026	44.41	-1
0	300718	44.51	-1
0	301410	44.61	-1
0	302102	44.71	-1
0	302794	44.81	-1
0	303486	44.91	-1
0	304187	45.01	-1
0	304879	45.11	-1
0	305571	45.21	-1
0	306263	45.31	-1
0	306955	45.41	-1
0	307647	45.51	-1
0	308339	45.61	-1
0	309031	45.71	-1
0	309723	45.81	-1
0	310415	45.91	-1
0	311116	46.01	-1
0	311808	46.11	-1
0	312500	46.21	-1
0	313192	46.31	-1
0	313884	46.41	-1
0	314576	46.51	-1
0	315268	46.61	-1
0	315960	46.71	-1
0	316652	46.81	-1
0	317344	46.91	-1
0	318045	47.01	-1
0	318737	47.11	-1
0	319429	47.21	-1
0	320121	47.31	-1
0	320813	47.41	-1
0	321505	47.51	-1
0	322197	47.61	-1
0	322889	47.71	-1
0	323581	47.81	-1
0	324273	47.91	-1
0	324974	48.01	-1
0	325666	48.11	-1
0	326358	48.21	-1
0	327050	48.31	-1
0	327742	48.41	-1
0	328537	48.51	-1
0	329228	48.61	-1
0	329919	48.71	-1
0	330610	48.81	-1
0	331301	48.91	-1
0	332001	49.01	-1
0	332692	49.11	-1
0	333383	49.21	-1
0	334074	49.31	-1
0	334765	49.41	-1
0	335456	49.51	-1
0	336147	49.61	-1
0	336838	49.71	-1
0	337529	49.81	-1
0	338220	49.91	-1
0	338920	50.01	-1
0	339611	50.11	-1
0	340302	50.21	-1
0	340993	50.31	-1
0	341684	50.41	-1
0	342375	50.51	-1
0	343066	50.61	-1
0	343757	50.71	-1
0	344448	50.81	-1
0	345139	50.91	-1
0	345839	51.01	-1
0	346530	51.11	-1
0	347221	51.21	-1
0	347912	51.31	-1
0	348603	51.41	-1
0	349294	51.51	-1
0	349985	51.61	-1
0	350676	51.71	-1
0	351367	51.81	-1
0	352058	51.91	-1
0	352758	52.01	-1
0	353449	52.11	-1
0	354140	52.21	-1
0	354831	52.31	-1
0	355522	52.41	-1
0	356213	52.51	-1
0	356904	52.61	-1
0	357595	52.71	-1
0	358286	52.81	-1
0	358977	52.91	-1
0	359677	53.01	-1
0	360368	53.11	-1
0	361059	53.21	-1
0	361750	53.31	-1
0	362441	53.41	-1
0	363132	53.51	-1
0	363823	53.61	-1
0	364514	53.71	-1
0	365308	53.81	-1
0	365998	53.91	-1
0	366697	54.01	-1
0	367387	54.11	-1
0	368077	54.21	-1
0	368767	54.31	-1
0	369457	54.41	-1
0	370147	54.51	-1
0	370837	54.61	-1
0	371527	54.71	-1
0	372217	54.81	-1
0	372907	54.91	-1
0	373606	55.01	-1
0	374296	55.11	-1
0	374986	55.21	-1
0	375676	55.31	-1
0	376366	55.41	-1
0	377056	55.51	-1
0	377746	55.61	-1
0	378436	55.71	-1
0	379126	55.81	-1
0	379816	55.91	-1
0	380515	56.01	-1
0	381205	56.11	-1
0	381895	56.21	-1
0	382585	56.31	-1
0	383275	56.41	-1
0	383965	56.51	-1
0	384655	56.61	-1
0	385345	56.71	-1
0	386035	56.81	-1
0	386725	56.91	-1
0	387424	57.01	-1
0	388114	57.11	-1
0	388804	57.21	-1
0	389494	57.31	-1
0	390184	57.41	-1
0	390874	57.51	-1
0	391564	57.61	-1
0	392254	57.71	-1
0	392944	57.81	-1
0	393634	57.91	-1
0	394333	58.01	-1
0	395023	58.11	-1
0	395713	58.21	-1
0	396403	58.31	-1
0	397093	58.41	-1
0	397783	58.51	-1
0	398473	58.61	-1
0	399266	58.71	-1
0	399955	58.81	-1
0	400644	58.91	-1
0	401342	59.01	-1
0	402031	59.11	-1
0	402720	59.21	-1
0	403409	59.31	-1
0	404098	59.41	-1
0	404787	59.51	-1
0	405476	59.61	-1
0	406165	59.71	-1
0	406854	59.81	-1
0	407543	59.91	-1
0	408241	60.01	-1
0	408930	60.11	-1
0	409619	60.21	-1
0	410308	60.31	-1
0	410997	60.41	-1
0	411686	60.51	-1
0	412375	60.61	-1
0	413064	60.71	-1
0	413753	60.81	-1
0	414442	60.91	-1
0	415140	61.01	-1
0	415829	61.11	-1
0	416518	61.21	-1
0	417207	61.31	-1
0	417896	61.41	-1
0	418585	61.51	-1
0	419274	61.61	-1
0	419963	61.71	-1
0	420652	61.81	-1
0	421341	61.91	-1
0	422039	62.01	-1
0	422728	62.11	-1
0	423417	62.21	-1
0	424106	62.31	-1
0	424795	62.41	-1
0	425484	62.51	-1
0	426173	62.61	-1
0	426862	62.71	-1
0	427551	62.81	-1
0	428240	62.91	-1
0	428938	63.01	-1
0	429627	63.11	-1
0	430316	63.21	-1
0	431108	63.31	-1
0	431796	63.41	-1
0	432484	63.51	-1
0	433172	63.61	-1
0	433860	63.71	-1
0	434548	63.81	-1
0	435236	63.91	-1
0	435933	64.01	-1
0	436621	64.11	-1
0	437309	64.21	-1
0	437997	64.31	-1
0	438685	64.41	-1
0	439373	64.51	-1
0	440061	64.61	-1
0	440749	64.71	-1
0	441437	64.81	-1
0	442125	64.91	-1
0	442822	65.01	-1
0	443510	65.11	-1
0	444198	65.21	-1
0	444886	65.31	-1
0	445574	65.41	-1
0	446262	65.51	-1
0	446950	65.61	-1
0	447638	65.71	-1
0	448326	65.81	-1
0	449014	65.91	-1
0	449711	66.01	-1
0	450399	66.11	-1
0	451087	66.21	-1
0	451775	66.31	-1
0	452463	66.41	-1
0	453151	66.51	-1
0	453839	66.61	-1
0	454527	66.71	-1
0	455215	66.81	-1
0	455903	66.91	-1
0	456600	67.01	-1
0	457288	67.11	-1
0	457976	67.21	-1
0	458664	67.31	-1
0	459352	67.41	-1
0	460040	67.51	-1
0	460728	67.61	-1
0	461519	67.71	-1
0	462206	67.81	-1
0	462893	67.91	-1
0	463589	68.01	-1
0	464276	68.11	-1
0	464963	68.21	-1
0	465650	68.31	-1
0	466337	68.41	-1
0	467024	68.51	-1
0	467711	68.61	-1
0	468398	68.71	-1
0	469085	68.81	-1
0	469772	68.91	-1
0	470468	69.01	-1
0	471155	69.11	-1
0	471842	69.21	-1
0	472529	69.31	-1
0	473216	69.41	-1
0	473903	69.51	-1
0	474590	69.61	-1
0	475277	69.71	-1
0	475964	69.81	-1
0	476651	69.91	-1
0	477347	70.01	-1
0	478034	70.11	-1
0	478721	70.21	-1
0	479408	70.31	-1
0	480095	70.41	-1
0	480782	70.51	-1
0	481469	70.61	-1
0	482156	70.71	-1
0	482843	70.81	-1
0	483530	70.91	-1
0	484226	71.01	-1
0	484913	71.11	-1
0	485600	71.21	-1
0	486287	71.31	-1
0	486974	71.41	-1
0	487661	71.51	-1
0	488348	71.61	-1
0	489035	71.71	-1
0	489722	71.81	-1
0	490409	71.91	-1
0	491105	72.01	-1
0	491895	72.11	-1
0	492581	72.21	-1
0	493267	72.31	-1
0	493953	72.41	-1
0	494639	72.51	-1
0	495325	72.61	-1
0	496011	72.71	-1
0	496697	72.81	-1
0	497383	72.91	-1
0	498078	73.01	-1
0	498764	73.11	-1
0	499450	73.21	-1
0	500136	73.31	-1
0	500822	73.41	-1
0	501508	73.51	-1
0	502194	73.61	-1
0	502880	73.71	-1
0	503566	73.81	-1
0	504252	73.91	-1
0	504947	74.01	-1
0	505633	74.11	-1
0	506319	74.21	-1
0	507005	74.31	-1
0	507691	74.41	-1
0	508377	74.51	-1
0	509063	74.61	-1
0	509749	74.71	-1
0	510435	74.81	-1
0	511121	74.91	-1
0	511816	75.01	-1
0	512502	75.11	-1
0	513188	75.21	-1
0	513874	75.31	-1
0	514560	75.41	-1
0	515246	75.51	-1
0	515932	75.61	-1
0	516618	75.71	-1
0	517304	75.81	-1
0	517990	75.91	-1
0	518685	76.01	-1
0	519371	76.11	-1
0	520984	76.21	-1
0	521669	76.31	-1
0	522354	76.41	-1
0	523039	76.51	-1
0	523724	76.61	-1
0	524409	76.71	-1
0	525094	76.81	-1
0	525779	76.91	-1
0	526473	77.01	-1
0	527158	77.11	-1
0	527843	77.21	-1
0	528528	77.31	-1
0	529213	77.41	-1
0	529898	77.51	-1
0	530583	77.61	-1
0	531268	77.71	-1
0	531953	77.81	-1
0	532638	77.91	-1
0	533332	78.01	-1
0	534017	78.11	-1
0	534702	78.21	-1
0	535387	78.31	-1
0	536072	78.41	-1
0	536757	78.51	-1
0	537442	78.61	-1
0	538127	78.71	-1
0	538812	78.81	-1
0	539497	78.91	-1
0	540191	79.01	-1
0	540876	79.11	-1
0	541561	79.21	-1
0	542246	79.31	-1
0	542931	79.41	-1
0	543616	79.51	-1
0	544301	79.61	-1
0	544986	79.71	-1
0	545671	79.81	-1
0	546356	79.91	-1
0	547050	80.01	-1
0	547735	80.11	-1
0	548420	80.21	-1
0	549105	80.31	-1
0	549790	80.41	-1
0	550475	80.51	-1
0	551160	80.61	-1
0	551845	80.71	-1
0	552530	80.81	-1
0	553215	80.91	-1
0	553909	81.01	-1
0	554594	81.11	-1
0	555279	81.21	-1
0	555964	81.31	-1
0	556649	81.41	-1
0	557334	81.51	-1
0	558019	81.61	-1
0	558704	81.71	-1
0	559389	81.81	-1
0	560074	81.91	-1
0	560768	82.01	-1
0	561453	82.11	-1
0	562138	82.21	-1
0	562823	82.31	-1
0	563508	82.41	-1
0	564193	82.51	-1
0	564878	82.61	-1
0	565563	82.71	-1
0	566248	82.81	-1
0	566933	82.91	-1
0	567627	83.01	-1
0	568312	83.11	-1
0	568997	83.21	-1
0	569682	83.31	-1
0	570367	83.41	-1
0	571052	83.51	-1
0	571737	83.61	-1
0	572422	83.71	-1
0	573107	83.81	-1
0	573792	83.91	-1
0	574486	84.01	-1
0	575171	84.11	-1
0	575856	84.21	-1
0	576541	84.31	-1
0	577226	84.41	-1
0	577911	84.51	-1
0	578596	84.61	-1
0	579281	84.71	-1
0	579966	84.81	-1
0	580651	84.91	-1
0	581345	85.01	-1
0	582030	85.11	-1
0	582715	85.21	-1
0	583400	85.31	-1
0	584085	85.41	-1
0	584770	85.51	-1
0	585455	85.61	-1
0	586140	85.71	-1
0	586825	85.81	-1
0	587510	85.91	-1
0	588204	86.01	-1
0	588889	86.11	-1
0	589574	86.21	-1
0	590259	86.31	-1
0	590944	86.41	-1
0	591629	86.51	-1
0	592314	86.61	-1
0	592999	86.71	-1
0	593684	86.81	-1
0	594369	86.91	-1
0	595063	87.01	-1
0	595748	87.11	-1
0	596433	87.21	-1
0	597118	87.31	-1
0	597803	87.41	-1
0	598488	87.51	-1
0	599173	87.61	-1
0	599858	87.71	-1
0	600543	87.81	-1
0	601228	87.91	-1
0	601922	88.01	-1
0	602607	88.11	-1
0	603292	88.21	-1
0	603977	88.31	-1
0	604662	88.41	-1
0	605347	88.51	-1
0	606032	88.61	-1
0	606717	88.71	-1
0	607402	88.81	-1
0	608087	88.91	-1
0	608781	89.01	-1
0	609466	89.11	-1
0	610151	89.21	-1
0	610836	89.31	-1
0	611521	89.41	-1
0	612206	89.51	-1
0	612891	89.61	-1
0	613576	89.71	-1
0	614261	89.81	-1
0	614946	89.91	-1
0	615640	90.01	-1
0	616325	90.11	-1
0	617010	90.21	-1
0	617695	90.31	-1
0	618380	90.41	-1
0	619065	90.51	-1
0	619750	90.61	-1
0	620435	90.71	-1
0	621120	90.81	-1
0	621805	90.91	-1
0	622499	91.01	-1
0	623184	91.11	-1
0	623869	91.21	-1
0	624554	91.31	-1
0	625239	91.41	-1
0	625924	91.51	-1
0	626609	91.61	-1
0	627294	91.71	-1
0	627979	91.81	-1
0	628664	91.91	-1
0	629358	92.01	-1
0	630043	92.11	-1
0	630728	92.21	-1
0	631413	92.31	-1
0	632098	92.41	-1
0	632783	92.51	-1
0	633468	92.61	-1
0	634153	92.71	-1
0	634838	92.81	-1
0	635523	92.91	-1
0	636217	93.01	-1
0	636902	93.11	-1
0	637587	93.21	-1
0	638272	93.31	-1
0	638957	93.41	-1
0	639642	93.51	-1
0	640327	93.61	-1
0	641012	93.71	-1
0	641697	93.81	-1
0	642382	93.91	-1
0	643076	94.01	-1
0	643761	94.11	-1
0	644446	94.21	-1
0	645131	94.31	-1
0	645816	94.41	-1
0	646501	94.51	-1
0	647186	94.61	-1
0	647871	94.71	-1
0	648556	94.81	-1
0	649241	94.91	-1
0	649935	95.01	-1
0	650620	95.11	-1
0	651305	95.21	-1
0	651990	95.31	-1
0	652675	95.41	-1
0	653360	95.51	-1
0	654045	95.61	-1
0	654730	95.71	-1
0	655415	95.81	-1
0	656100	95.91	-1
0	656794	96.01	-1
0	657479	96.11	-1
0	658164	96.21	-1
0	658849	96.31	-1
0	659534	96.41	-1
0	660219	96.51	-1
0	660904	96.61	-1
0	661589	96.71	-1
0	662274	96.81	-1
0	662959	96.91	-1
0	663653	97.01	-1
0	664338	97.11	-1
0	665023	97.21	-1
0	665708	97.31	-1
0	666393	97.41	-1
0	667078	97.51	-1
0	667763	97.61	-1
0	668448	97.71	-1
0	669133	97.81	-1
0	669818	97.91	-1
0	670512	98.01	-1
0	671197	98.11	-1
0	671882	98.21	-1
0	672567	98.31	-1
0	673252	98.41	-1
0	673937	98.51	-1
0	674622	98.61	-1
0	675307	98.71	-1
0	675992	98.81	-1
0	676677	98.91	-1
0	677371	99.01	-1
0	678056	99.11	-1
0	678741	99.21	-1
0	679426	99.31	-1
0	680111	99.41	-1
0	680796	99.51	-1
0	681481	99.61	-1
0	682166	99.71	-1
0	682851	99.81	-1
0	683536	99.91	-1
1	113	1.11	0
1	798	1.21	0
1	1483	1.31	0
1	2168	1.41	0
1	2853	1.51	0
1	3538	1.61	0
1	4223	1.71	0
1	4908	1.81	0
1	5593	1.91	0
1	6287	2.01	0
1	6972	2.11	0
1	7657	2.21	0
1	8342	2.31	0
1	9027	2.41	0
1	9712	2.51	0
1	10397	2.61	0
1	11082	2.71	0
1	11767	2.81	0
1	12452	2.91	0
1	13146	3.01	0
1	13831	3.11	0
1	14516	3.21	0
1	15201	3.31	0
1	15886	3.41	0
1	16571	3.51	0
1	17256	3.61	0
1	17941	3.71	0
1	18626	3.81	0
1	19311	3.91	0
1	20005	4.01	0
1	20690	4.11	0
1	21375	4.21	0
1	22060	4.31	0
1	22745	4.41	0
1	23430	4.51	0
1	24115	4.61	0
1	24800	4.71	0
1	25485	4.81	0
1	26170	4.91	0
1	26864	5.01	0
1	27549	5.11	0
1	28234	5.21	0
1	28919	5.31	0
1	29604	5.41	0
1	30289	5.51	0
1	30974	5.61	0
1	31659	5.71	0
1	32344	5.81	0
1	33029	5.91	0
1	33723	6.01	0
1	34408	6.11	0
1	35093	6.21	0
1	35778	6.31	0
1	36463	6.41	0
1	37148	6.51	0
1	37833	6.61	0
1	38518	6.71	0
1	39203	6.81	0
1	39888	6.91	0
1	40582	7.01	0
1	41267	7.11	0
1	41952	7.21	0
1	42637	7.31	0
1	43322	7.41	0
1	44007	7.51	0
1	44692	7.61	0
1	45377	7.71	0
1	46062	7.81	0
1	46747	7.91	0
1	47441	8.01	0
1	48126	8.11	0
1	48811	8.21	0
1	49496	8.31	0
1	50181	8.41	0
1	50866	8.51	0
1	51551	8.61	0
1	52236	8.71	0
1	52921	8.81	0
1	53606	8.91	0
1	54300	9.01	0
1	54985	9.11	0
1	55670	9.21	0
1	56355	9.31	0
1	57040	9.41	0
1	57725	9.51	0
1	58410	9.61	0
1	59095	9.71	0
1	59780	9.81	0
1	60465	9.91	0
1	61242	10.01	0
1	61935	10.11	0
1	62628	10.21	0
1	63321	10.31	0
1	64014	10.41	0
1	64707	10.51	0
1	65400	10.61	0
1	66093	10.71	0
1	66786	10.81	0
1	67479	10.91	0
1	68181	11.01	0
1	68874	11.11	0
1	69567	11.21	0
1	70260	11.31	0
1	70953	11.41	0
1	71646	11.51	0
1	72339	11.61	0
1	73032	11.71	0
1	73725	11.81	0
1	74418	11.91	0
1	75120	12.01	0
1	75813	12.11	0
1	76506	12.21	0
1	77199	12.31	0
1	77892	12.41	0
1	78585	12.51	0
1	79278	12.61	0
1	79971	12.71	0
1	80664	12.81	0
1	81357	12.91	0
1	82059	13.01	0
1	82752	13.11	0
1	83445	13.21	0
1	84138	13.31	0
1	84831	13.41	0
1	85524	13.51	0
1	86217	13.61	0
1	86910	13.71	0
1	87603	13.81	0
1	88296	13.91	0
1	88998	14.01	0
1	89691	14.11	0
1	90384	14.21	0
1	91077	14.31	0
1	91770	14.41	0
1	92463	14.51	0
1	93156	14.61	0
1	93849	14.71	0
1	94542	14.81	0
1	95235	14.91	0
1	95937	15.01	0
1	96630	15.11	0
1	97323	15.21	0
1	98016	15.31	0
1	98709	15.41	0
1	99402	15.51	0
1	100095	15.61	0
1	100788	15.71	0
1	101481	15.81	0
1	102174	15.91	0
1	102876	16.01	0
1	103569	16.11	0
1	104262	16.21	0
1	104955	16.31	0
1	105648	16.41	0
1	106341	16.51	0
1	107034	16.61	0
1	107727	16.71	0
1	108420	16.81	0
1	109113	16.91	0
1	109815	17.01	0
1	110508	17.11	0
1	111201	17.21	0
1	111894	17.31	0
1	112587	17.41	0
1	113280	17.51	0
1	113973	17.61	0
1	114666	17.71	0
1	115359	17.81	0
1	116052	17.91	0
1	116754	18.01	0
1	117447	18.11	0
1	118140	18.21	0
1	118833	18.31	0
1	119526	18.41	0
1	120219	18.51	0
1	120912	18.61	0
1	121605	18.71	0
1	122298	18.81	0
1	122991	18.91	0
1	123693	19.01	0
1	124386	19.11	0
1	125079	19.21	0
1	125772	19.31	0
1	126465	19.41	0
1	127158	19.51	0
1	127851	19.61	0
1	128544	19.71	0
1	129237	19.81	0
1	129930	19.91	0
1	130632	20.01	0
1	131325	20.11	0
1	132018	20.21	0
1	132711	20.31	0
1	133404	20.41	0
1	134097	20.51	0
1	134790	20.61	0
1	135483	20.71	0
1	136176	20.81	0
1	136869	20.91	0
1	137571	21.01	0
1	138264	21.11	0
1	138957	21.21	0
1	139650	21.31	0
1	140343	21.41	0
1	141036	21.51	0
1	141729	21.61	0
1	142422	21.71	0
1	143115	21.81	0
1	143808	21.91	0
1	144510	22.01	0
1	145203	22.11	0
1	145896	22.21	0
1	146589	22.31	0
1	147282	22.41	0
1	147975	22.51	0
1	148668	22.61	0
1	149361	22.71	0
1	150054	22.81	0
1	150747	22.91	0
1	151449	23.01	0
1	152142	23.11	0
1	152835	23.21	0
1	153528	23.31	0
1	154221	23.41	0
1	154914	23.51	0
1	155607	23.61	0
1	156300	23.71	0
1	156993	23.81	0
1	157686	23.91	0
1	158388	24.01	0
1	159081	24.11	0
1	159774	24.21	0
1	160467	24.31	0
1	161160	24.41	0
1	161853	24.51	0
1	162546	24.61	0
1	163239	24.71	0
1	163932	24.81	0
1	164625	24.91	0
1	165327	25.01	0
1	166020	25.11	0
1	166713	25.21	0
1	167406	25.31	0
1	168099	25.41	0
1	168792	25.51	0
1	169485	25.61	0
1	170178	25.71	0
1	170871	25.81	0
1	171564	25.91	0
1	172266	26.01	0
1	172959	26.11	0
1	173652	26.21	0
1	174345	26.31	0
1	175038	26.41	0
1	175731	26.51	0
1	176424	26.61	0
1	177117	26.71	0
1	177810	26.81	0
1	178503	26.91	0
1	179205	27.01	0
1	179898	27.11	0
1	180591	27.21	0
1	181284	27.31	0
1	181977	27.41	0
1	182670	27.51	0
1	183363	27.61	0
1	184056	27.71	0
1	184749	27.81	0
1	185442	27.91	0
1	186144	28.01	0
1	186837	28.11	0
1	187530	28.21	0
1	188223	28.31	0
1	188916	28.41	0
1	189609	28.51	0
1	190302	28.61	0
1	190995	28.71	0
1	191688	28.81	0
1	192381	28.91	0
1	193083	29.01	0
1	193776	29.11	0
1	194469	29.21	0
1	195162	29.31	0
1	195855	29.41	0
1	196548	29.51	0
1	197241	29.61	0
1	197934	29.71	0
1	198627	29.81	0
1	199320	29.91	0
1	200022	30.01	0
1	200715	30.11	0
1	201408	30.21	0
1	202101	30.31	0
1	202794	30.41	0
1	203487	30.51	0
1	204180	30.61	0
1	204873	30.71	0
1	205566	30.81	0
1	206259	30.91	0
1	206961	31.01	0
1	207654	31.11	0
1	208347	31.21	0
1	209040	31.31	0
1	209733	31.41	0
1	210426	31.51	0
1	211119	31.61	0
1	211812	31.71	0
1	212505	31.81	0
1	213198	31.91	0
1	213900	32.01	0
1	214593	32.11	0
1	215286	32.21	0
1	215979	32.31	0
1	216672	32.41	0
1	217365	32.51	0
1	218058	32.61	0
1	218751	32.71	0
1	219444	32.81	0
1	220137	32.91	0
1	220839	33.01	0
1	221532	33.11	0
1	222225	33.21	0
1	222918	33.31	0
1	223611	33.41	0
1	224304	33.51	0
1	224997	33.61	0
1	225690	33.71	0
1	226383	33.81	0
1	227076	33.91	0
1	227778	34.01	0
1	228471	34.11	0
1	229164	34.21	0
1	229857	34.31	0
1	230550	34.41	0
1	231243	34.51	0
1	231936	34.61	0
1	232629	34.71	0
1	233322	34.81	0
1	234015	34.91	0
1	234717	35.01	0
1	235410	35.11	0
1	236103	35.21	0
1	236796	35.31	0
1	237489	35.41	0
1	238182	35.51	0
1	238875	35.61	0
1	239568	35.71	0
1	240261	35.81	0
1	240954	35.91	0
1	241656	36.01	0
1	242349	36.11	0
1	243042	36.21	0
1	243735	36.31	0
1	244428	36.41	0
1	245121	36.51	0
1	245814	36.61	0
1	246507	36.71	0
1	247200	36.81	0
1	247893	36.91	0
1	248595	37.01	0
1	249288	37.11	0
1	249981	37.21	0
1	250674	37.31	0
1	251367	37.41	0
1	252060	37.51	0
1	252753	37.61	0
1	253446	37.71	0
1	254139	37.81	0
1	254832	37.91	0
1	255534	38.01	0
1	256227	38.11	0
1	256920	38.21	0
1	257613	38.31	0
1	258306	38.41	0
1	258999	38.51	0
1	259692	38.61	0
1	260385	38.71	0
1	261078	38.81	0
1	261771	38.91	0
1	262473	39.01	0
1	263166	39.11	0
1	263859	39.21	0
1	264552	39.31	0
1	265245	39.41	0
1	265938	39.51	0
1	266631	39.61	0
1	267324	39.71	0
1	268017	39.81	0
1	268710	39.91	0
1	269412	40.01	0
1	270105	40.11	0
1	270798	40.21	0
1	271491	40.31	0
1	272184	40.41	0
1	272877	40.51	0
1	273570	40.61	0
1	274263	40.71	0
1	274956	40.81	0
1	275649	40.91	0
1	276351	41.01	0
1	277044	41.11	0
1	277737	41.21	0
1	278430	41.31	0
1	279123	41.41	0
1	279816	41.51	0
1	280509	41.61	0
1	281202	41.71	0
1	281895	41.81	0
1	282588	41.91	0
1	283290	42.01	0
1	283983	42.11	0
1	284676	42.21	0
1	285369	42.31	0
1	286062	42.41	0
1	286755	42.51	0
1	287448	42.61	0
1	288244	42.71	0
1	288936	42.81	0
1	289628	42.91	0
1	290329	43.01	0
1	291021	43.11	0
1	291713	43.21	0
1	292405	43.31	0
1	293097	43.41	0
1	293789	43.51	0
1	294481	43.61	0
1	295173	43.71	0
1	295865	43.81	0
1	296557	43.91	0
1	297258	44.01	0
1	297950	44.11	0
1	298642	44.21	0
1	299334	44.31	0
1	300026	44.41	0
1	300718	44.51	0
1	301410	44.61	0
1	302102	44.71	0
1	302794	44.81	0
1	303486	44.91	0
1	304187	45.01	0
1	304879	45.11	0
1	305571	45.21	0
1	306263	45.31	0
1	306955	45.41	0
1	307647	45.51	0
1	308339	45.61	0
1	309031	45.71	0
1	309723	45.81	0
1	310415	45.91	0
1	311116	46.01	0
1	311808	46.11	0
1	312500	46.21	0
1	313192	46.31	0
1	313884	46.41	0
1	314576	46.51	0
1	315268	46.61	0
1	315960	46.71	0
1	316652	46.81	0
1	317344	46.91	0
1	318045	47.01	0
1	318737	47.11	0
1	319429	47.21	0
1	320121	47.31	0
1	320813	47.41	0
1	321505	47.51	0
1	322197	47.61	0
1	322889	47.71	0
1	323581	47.81	0
1	324273	47.91	0
1	324974	48.01	0
1	325666	48.11	0
1	326358	48.21	0
1	327050	48.31	0
1	327742	48.41	0
1	328537	48.51	0
1	329228	48.61	0
1	329919	48.71	0
1	330610	48.81	0
1	331301	48.91	0
1	332001	49.01	0
1	332692	49.11	0
1	333383	49.21	0
1	334074	49.31	0
1	334765	49.41	0
1	335456	49.51	0
1	336147	49.61	0
1	336838	49.71	0
1	337529	49.81	0
1	338220	49.91	0
1	338920	50.01	0
1	339611	50.11	0
1	340302	50.21	0
1	340993	50.31	0
1	341684	50.41	0
1	342375	50.51	0
1	343066	50.61	0
1	343757	50.71	0
1	344448	50.81	0
1	345139	50.91	0
1	345839	51.01	0
1	346530	51.11	0
1	347221	51.21	0
1	347912	51.31	0
1	348603	51.41	0
1	349294	51.51	0
1	349985	51.61	0
1	350676	51.71	0
1	351367	51.81	0
1	352058	51.91	0
1	352758	52.01	0
1	353449	52.11	0
1	354140	52.21	0
1	354831	52.31	0
1	355522	52.41	0
1	356213	52.51	0
1	356904	52.61	0
1	357595	52.71	0
1	358286	52.81	0
1	358977	52.91	0
1	359677	53.01	0
1	360368	53.11	0
1	361059	53.21	0
1	361750	53.31	0
1	362441	53.41	0
1	363132	53.51	0
1	363823	53.61	0
1	364514	53.71	0
1	365308	53.81	0
1	365998	53.91	0
1	366697	54.01	0
1	367387	54.11	0
1	368077	54.21	0
1	368767	54.31	0
1	369457	54.41	0
1	370147	54.51	0
1	370837	54.61	0
1	371527	54.71	0
1	372217	54.81	0
1	372907	54.91	0
1	373606	55.01	0
1	374296	55.11	0
1	374986	55.21	0
1	375676	55.31	0
1	376366	55.41	0
1	377056	55.51	0
1	377746	55.61	0
1	378436	55.71	0
1	379126	55.81	0
1	379816	55.91	0
1	380515	56.01	0
1	381205	56.11	0
1	381895	56.21	0
1	382585	56.31	0
1	383275	56.41	0
1	383965	56.51	0
1	384655	56.61	0
1	385345	56.71	0
1	386035	56.81	0
1	386725	56.91	0
1	387424	57.01	0
1	388114	57.11	0
1	388804	57.21	0
1	389494	57.31	0
1	390184	57.41	0
1	390874	57.51	0
1	391564	57.61	0
1	392254	57.71	0
1	392944	57.81	0
1	393634	57.91	0
1	394333	58.01	0
1	395023	58.11	0
1	395713	58.21	0
1	396403	58.31	0
1	397093	58.41	0
1	397783	58.51	0
1	398473	58.61	0
1	399266	58.71	0
1	399955	58.81	0
1	400644	58.91	0
1	401342	59.01	0
1	402031	59.11	0
1	402720	59.21	0
1	403409	59.31	0
1	404098	59.41	0
1	404787	59.51	0
1	405476	59.61	0
1	406165	59.71	0
1	406854	59.81	0
1	407543	59.91	0
1	408241	60.01	0
1	408930	60.11	0
1	409619	60.21	0
1	410308	60.31	0
1	410997	60.41	0
1	411686	60.51	0
1	412375	60.61	0
1	413064	60.71	0
1	413753	60.81	0
1	414442	60.91	0
1	415140	61.01	0
1	415829	61.11	0
1	416518	61.21	0
1	417207	61.31	0
1	417896	61.41	0
1	418585	61.51	0
1	419274	61.61	0
1	419963	61.71	0
1	420652	61.81	0
1	421341	61.91	0
1	422039	62.01	0
1	422728	62.11	0
1	423417	62.21	0
1	424106	62.31	0
1	424795	62.41	0
1	425484	62.51	0
1	426173	62.61	0
1	426862	62.71	0
1	427551	62.81	0
1	428240	62.91	0
1	428938	63.01	0
1	429627	63.11	0
1	430316	63.21	0
1	431108	63.31	0
1	431796	63.41	0
1	432484	63.51	0
1	433172	63.61	0
1	433860	63.71	0
1	434548	63.81	0
1	435236	63.91	0
1	435933	64.01	0
1	436621	64.11	0
1	437309	64.21	0
1	437997	64.31	0
1	438685	64.41	0
1	439373	64.51	0
1	440061	64.61	0
1	440749	64.71	0
1	441437	64.81	0
1	442125	64.91	0
1	442822	65.01	0
1	443510	65.11	0
1	444198	65.21	0
1	444886	65.31	0
1	445574	65.41	0
1	446262	65.51	0
1	446950	65.61	0
1	447638	65.71	0
1	448326	65.81	0
1	449014	65.91	0
1	449711	66.01	0
1	450399	66.11	0
1	451087	66.21	0
1	451775	66.31	0
1	452463	66.41	0
1	453151	66.51	0
1	453839	66.61	0
1	454527	66.71	0
1	455215	66.81	0
1	455903	66.91	0
1	456600	67.01	0
1	457288	67.11	0
1	457976	67.21	0
1	458664	67.31	0
1	459352	67.41	0
1	460040	67.51	0
1	460728	67.61	0
1	461519	67.71	0
1	462206	67.81	0
1	462893	67.91	0
1	463589	68.01	0
1	464276	68.11	0
1	464963	68.21	0
1	465650	68.31	0
1	466337	68.41	0
1	467024	68.51	0
1	467711	68.61	0
1	468398	68.71	0
1	469085	68.81	0
1	469772	68.91	0
1	470468	69.01	0
1	471155	69.11	0
1	471842	69.21	0
1	472529	69.31	0
1	473216	69.41	0
1	473903	69.51	0
1	474590	69.61	0
1	475277	69.71	0
1	475964	69.81	0
1	476651	69.91	0
1	477347	70.01	0
1	478034	70.11	0
1	478721	70.21	0
1	479408	70.31	0
1	480095	70.41	0
1	480782	70.51	0
1	481469	70.61	0
1	482156	70.71	0
1	482843	70.81	0
1	483530	70.91	0
1	484226	71.01	0
1	484913	71.11	0
1	485600	71.21	0
1	486287	71.31	0
1	486974	71.41	0
1	487661	71.51	0
1	488348	71.61	0
1	489035	71.71	0
1	489722	71.81	0
1	490409	71.91	0
1	491105	72.01	0
1	491895	72.11	0
1	492581	72.21	0
1	493267	72.31	0
1	493953	72.41	0
1	494639	72.51	0
1	495325	72.61	0
1	496011	72.71	0
1	496697	72.81	0
1	497383	72.91	0
1	498078	73.01	0
1	498764	73.11	0
1	499450	73.21	0
1	500136	73.31	0
1	500822	73.41	0
1	501508	73.51	0
1	502194	73.61	0
1	502880	73.71	0
1	503566	73.81	0
1	504252	73.91	0
1	504947	74.01	0
1	505633	74.11	0
1	506319	74.21	0
1	507005	74.31	0
1	507691	74.41	0
1	508377	74.51	0
1	509063	74.61	0
1	509749	74.71	0
1	510435	74.81	0
1	511121	74.91	0
1	511816	75.01	0
1	512502	75.11	0
1	513188	75.21	0
1	513874	75.31	0
1	514560	75.41	0
1	515246	75.51	0
1	515932	75.61	0
1	516618	75.71	0
1	517304	75.81	0
1	517990	75.91	0
1	518685	76.01	0
1	519371	76.11	0
1	520984	76.21	0
1	521669	76.31	0
1	522354	76.41	0
1	523039	76.51	0
1	523724	76.61	0
1	524409	76.71	0
1	525094	76.81	0
1	525779	76.91	0
1	526473	77.01	0
1	527158	77.11	0
1	527843	77.21	0
1	528528	77.31	0
1	529213	77.41	0
1	529898	77.51	0
1	530583	77.61	0
1	531268	77.71	0
1	531953	77.81	0
1	532638	77.91	0
1	533332	78.01	0
1	534017	78.11	0
1	534702	78.21	0
1	535387	78.31	0
1	536072	78.41	0
1	536757	78.51	0
1	537442	78.61	0
1	538127	78.71	0
1	538812	78.81	0
1	539497	78.91	0
1	540191	79.01	0
1	540876	79.11	0
1	541561	79.21	0
1	542246	79.31	0
1	542931	79.41	0
1	543616	79.51	0
1	544301	79.61	0
1	544986	79.71	0
1	545671	79.81	0
1	546356	79.91	0
1	547050	80.01	0
1	547735	80.11	0
1	548420	80.21	0
1	549105	80.31	0
1	549790	80.41	0
1	550475	80.51	0
1	551160	80.61	0
1	551845	80.71	0
1	552530	80.81	0
1	553215	80.91	0
1	553909	81.01	0
1	554594	81.11	0
1	555279	81.21	0
1	555964	81.31	0
1	556649	81.41	0
1	557334	81.51	0
1	558019	81.61	0
1	558704	81.71	0
1	559389	81.81	0
1	560074	81.91	0
1	560768	82.01	0
1	561453	82.11	0
1	562138	82.21	0
1	562823	82.31	0
1	563508	82.41	0
1	564193	82.51	0
1	564878	82.61	0
1	565563	82.71	0
1	566248	82.81	0
1	566933	82.91	0
1	567627	83.01	0
1	568312	83.11	0
1	568997	83.21	0
1	569682	83.31	0
1	570367	83.41	0
1	571052	83.51	0
1	571737	83.61	0
1	572422	83.71	0
1	573107	83.81	0
1	573792	83.91	0
1	574486	84.01	0
1	575171	84.11	0
1	575856	84.21	0
1	576541	84.31	0
1	577226	84.41	0
1	577911	84.51	0
1	578596	84.61	0
1	579281	84.71	0
1	579966	84.81	0
1	580651	84.91	0
1	581345	85.01	0
1	582030	85.11	0
1	582715	85.21	0
1	583400	85.31	0
1	584085	85.41	0
1	584770	85.51	0
1	585455	85.61	0
1	586140	85.71	0
1	586825	85.81	0
1	587510	85.91	0
1	588204	86.01	0
1	588889	86.11	0
1	589574	86.21	0
1	590259	86.31	0
1	590944	86.41	0
1	591629	86.51	0
1	592314	86.61	0
1	592999	86.71	0
1	593684	86.81	0
1	594369	86.91	0
1	595063	87.01	0
1	595748	87.11	0
1	596433	87.21	0
1	597118	87.31	0
1	597803	87.41	0
1	598488	87.51	0
1	599173	87.61	0
1	599858	87.71	0
1	600543	87.81	0
1	601228	87.91	0
1	601922	88.01	0
1	602607	88.11	0
1	603292	88.21	0
1	603977	88.31	0
1	604662	88.41	0
1	605347	88.51	0
1	606032	88.61	0
1	606717	88.71	0
1	607402	88.81	0
1	608087	88.91	0
1	608781	89.01	0
1	609466	89.11	0
1	610151	89.21	0
1	610836	89.31	0
1	611521	89.41	0
1	612206	89.51	0
1	612891	89.61	0
1	613576	89.71	0
1	614261	89.81	0
1	614946	89.91	0
1	615640	90.01	0
1	616325	90.11	0
1	617010	90.21	0
1	617695	90.31	0
1	618380	90.41	0
1	619065	90.51	0
1	619750	90.61	0
1	620435	90.71	0
1	621120	90.81	0
1	621805	90.91	0
1	622499	91.01	0
1	623184	91.11	0
1	623869	91.21	0
1	624554	91.31	0
1	625239	91.41	0
1	625924	91.51	0
1	626609	91.61	0
1	627294	91.71	0
1	627979	91.81	0
1	628664	91.91	0
1	629358	92.01	0
1	630043	92.11	0
1	630728	92.21	0
1	631413	92.31	0
1	632098	92.41	0
1	632783	92.51	0
1	633468	92.61	0
1	634153	92.71	0
1	634838	92.81	0
1	635523	92.91	0
1	636217	93.01	0
1	636902	93.11	0
1	637587	93.21	0
1	638272	93.31	0
1	638957	93.41	0
1	639642	93.51	0
1	640327	93.61	0
1	641012	93.71	0
1	641697	93.81	0
1	642382	93.91	0
1	643076	94.01	0
1	643761	94.11	0
1	644446	94.21	0
1	645131	94.31	0
1	645816	94.41	0
1	646501	94.51	0
1	647186	94.61	0
1	647871	94.71	0
1	648556	94.81	0
1	649241	94.91	0
1	649935	95.01	0
1	650620	95.11	0
1	651305	95.21	0
1	651990	95.31	0
1	652675	95.41	0
1	653360	95.51	0
1	654045	95.61	0
1	654730	95.71	0
1	655415	95.81	0
1	656100	95.91	0
1	656794	96.01	0
1	657479	96.11	0
1	658164	96.21	0
1	658849	96.31	0
1	659534	96.41	0
1	660219	96.51	0
1	660904	96.61	0
1	661589	96.71	0
1	662274	96.81	0
1	662959	96.91	0
1	663653	97.01	0
1	664338	97.11	0
1	665023	97.21	0
1	665708	97.31	0
1	666393	97.41	0
1	667078	97.51	0
1	667763	97.61	0
1	668448	97.71	0
1	669133	97.81	0
1	669818	97.91	0
1	670512	98.01	0
1	671197	98.11	0
1	671882	98.21	0
1	672567	98.31	0
1	673252	98.41	0
1	673937	98.51	0
1	674622	98.61	0
1	675307	98.71	0
1	675992	98.81	0
1	676677	98.91	0
1	677371	99.01	0
1	678056	99.11	0
1	678741	99.21	0
1	679426	99.31	0
1	680111	99.41	0
1	680796	99.51	0
1	681481	99.61	0
1	682166	99.71	0
1	682851	99.81	0
1	683536	99.91	0
2	113	1.11	0
2	798	1.21	0
2	1483	1.31	0
2	2168	1.41	0
2	2853	1.51	0
2	3538	1.61	0
2	4223	1.71	0
2	4908	1.81	0
2	5593	1.91	0
2	6287	2.01	0
2	6972	2.11	0
2	7657	2.21	0
2	8342	2.31	0
2	9027	2.41	0
2	9712	2.51	0
2	10397	2.61	0
2	11082	2.71	0
2	11767	2.81	0
2	12452	2.91	0
2	13146	3.01	0
2	13831	3.11	0
2	14516	3.21	0
2	15201	3.31	0
2	15886	3.41	0
2	16571	3.51	0
2	17256	3.61	0
2	17941	3.71	0
2	18626	3.81	0
2	19311	3.91	0
2	20005	4.01	0
2	20690	4.11	0
2	21375	4.21	0
2	22060	4.31	0
2	22745	4.41	0
2	23430	4.51	0
2	24115	4.61	0
2	24800	4.71	0
2	25485	4.81	0
2	26170	4.91	0
2	26864	5.01	0
2	27549	5.11	0
2	28234	5.21	0
2	28919	5.31	0
2	29604	5.41	0
2	30289	5.51	0
2	30974	5.61	0
2	31659	5.71	0
2	32344	5.81	0
2	33029	5.91	0
2	33723	6.01	0
2	34408	6.11	0
2	35093	6.21	0
2	35778	6.31	0
2	36463	6.41	0
2	37148	6.51	0
2	37833	6.61	0
2	38518	6.71	0
2	39203	6.81	0
2	39888	6.91	0
2	40582	7.01	0
2	41267	7.11	0
2	41952	7.21	0
2	42637	7.31	0
2	43322	7.41	0
2	44007	7.51	0
2	44692	7.61	0
2	45377	7.71	0
2	46062	7.81	0
2	46747	7.91	0
2	47441	8.01	0
2	48126	8.11	0
2	48811	8.21	0
2	49496	8.31	0
2	50181	8.41	0
2	50866	8.51	0
2	51551	8.61	0
2	52236	8.71	0
2	52921	8.81	0
2	53606	8.91	0
2	54300	9.01	0
2	54985	9.11	0
2	55670	9.21	0
2	56355	9.31	0
2	57040	9.41	0
2	57725	9.51	0
2	58410	9.61	0
2	59095	9.71	0
2	59780	9.81	0
2	60465	9.91	0
2	61242	10.01	0
2	61935	10.11	0
2	62628	10.21	0
2	63321	10.31	0
2	64014	10.41	0
2	64707	10.51	0
2	65400	10.61	0
2	66093	10.71	0
2	66786	10.81	0
2	67479	10.91	0
2	68181	11.01	0
2	68874	11.11	0
2	69567	11.21	0
2	70260	11.31	0
2	70953	11.41	0
2	71646	11.51	0
2	72339	11.61	0
2	73032	11.71	0
2	73725	11.81	0
2	74418	11.91	0
2	75120	12.01	0
2	75813	12.11	0
2	76506	12.21	0
2	77199	12.31	0
2	77892	12.41	0
2	78585	12.51	0
2	79278	12.61	0
2	79971	12.71	0
2	80664	12.81	0
2	81357	12.91	0
2	82059	13.01	0
2	82752	13.11	0
2	83445	13.21	0
2	84138	13.31	0
2	84831	13.41	0
2	85524	13.51	0
2	86217	13.61	0
2	86910	13.71	0
2	87603	13.81	0
2	88296	13.91	0
2	88998	14.01	0
2	89691	14.11	0
2	90384	14.21	0
2	91077	14.31	0
2	91770	14.41	0
2	92463	14.51	0
2	93156	14.61	0
2	93849	14.71	0
2	94542	14.81	0
2	95235	14.91	0
2	95937	15.01	0
2	96630	15.11	0
2	97323	15.21	0
2	98016	15.31	0
2	98709	15.41	0
2	99402	15.51	0
2	100095	15.61	0
2	100788	15.71	0
2	101481	15.81	0
2	102174	15.91	0
2	102876	16.01	0
2	103569	16.11	0
2	104262	16.21	0
2	104955	16.31	0
2	105648	16.41	0
2	106341	16.51	0
2	107034	16.61	0
2	107727	16.71	0
2	108420	16.81	0
2	109113	16.91	0
2	109815	17.01	0
2	110508	17.11	0
2	111201	17.21	0
2	111894	17.31	0
2	112587	17.41	0
2	113280	17.51	0
2	113973	17.61	0
2	114666	17.71	0
2	115359	17.81	0
2	116052	17.91	0
2	116754	18.01	0
2	117447	18.11	0
2	118140	18.21	0
2	118833	18.31	0
2	119526	18.41	0
2	120219	18.51	0
2	120912	18.61	0
2	121605	18.71	0
2	122298	18.81	0
2	122991	18.91	0
2	123693	19.01	0
2	124386	19.11	0
2	125079	19.21	0
2	125772	19.31	0
2	126465	19.41	0
2	127158	19.51	0
2	127851	19.61	0
2	128544	19.71	0
2	129237	19.81	0
2	129930	19.91	0
2	130632	20.01	0
2	131325	20.11	0
2	132018	20.21	0
2	132711	20.31	0
2	133404	20.41	0
2	134097	20.51	0
2	134790	20.61	0
2	135483	20.71	0
2	136176	20.81	0
2	136869	20.91	0
2	137571	21.01	0
2	138264	21.11	0
2	138957	21.21	0
2	139650	21.31	0
2	140343	21.41	0
2	141036	21.51	0
2	141729	21.61	0
2	142422	21.71	0
2	143115	21.81	0
2	143808	21.91	0
2	144510	22.01	0
2	145203	22.11	0
2	145896	22.21	0
2	146589	22.31	0
2	147282	22.41	0
2	147975	22.51	0
2	148668	22.61	0
2	149361	22.71	0
2	150054	22.81	0
2	150747	22.91	0
2	151449	23.01	0
2	152142	23.11	0
2	152835	23.21	0
2	153528	23.31	0
2	154221	23.41	0
2	154914	23.51	0
2	155607	23.61	0
2	156300	23.71	0
2	156993	23.81	0
2	157686	23.91	0
2	158388	24.01	0
2	159081	24.11	0
2	159774	24.21	0
2	160467	24.31	0
2	161160	24.41	0
2	161853	24.51	0
2	162546	24.61	0
2	163239	24.71	0
2	163932	24.81	0
2	164625	24.91	0
2	165327	25.01	0
2	166020	25.11	0
2	166713	25.21	0
2	167406	25.31	0
2	168099	25.41	0
2	168792	25.51	0
2	169485	25.61	0
2	170178	25.71	0
2	170871	25.81	0
2	171564	25.91	0
2	172266	26.01	0
2	172959	26.11	0
2	173652	26.21	0
2	174345	26.31	0
2	175038	26.41	0
2	175731	26.51	0
2	176424	26.61	0
2	177117	26.71	0
2	177810	26.81	0
2	178503	26.91	0
2	179205	27.01	0
2	179898	27.11	0
2	180591	27.21	0
2	181284	27.31	0
2	181977	27.41	0
2	182670	27.51	0
2	183363	27.61	0
2	184056	27.71	0
2	184749	27.81	0
2	185442	27.91	0
2	186144	28.01	0
2	186837	28.11	0
2	187530	28.21	0
2	188223	28.31	0
2	188916	28.41	0
2	189609	28.51	0
2	190302	28.61	0
2	190995	28.71	0
2	191688	28.81	0
2	192381	28.91	0
2	193083	29.01	0
2	193776	29.11	0
2	194469	29.21	0
2	195162	29.31	0
2	195855	29.41	0
2	196548	29.51	0
2	197241	29.61	0
2	197934	29.71	0
2	198627	29.81	0
2	199320	29.91	0
2	200022	30.01	0
2	200715	30.11	0
2	201408	30.21	0
2	202101	30.31	0
2	202794	30.41	0
2	203487	30.51	0
2	204180	30.61	0
2	204873	30.71	0
2	205566	30.81	0
2	206259	30.91	0
2	206961	31.01	0
2	207654	31.11	0
2	208347	31.21	0
2	209040	31.31	0
2	209733	31.41	0
2	210426	31.51	0
2	211119	31.61	0
2	211812	31.71	0
2	212505	31.81	0
2	213198	31.91	0
2	213900	32.01	0
2	214593	32.11	0
2	215286	32.21	0
2	215979	32.31	0
2	216672	32.41	0
2	217365	32.51	0
2	218058	32.61	0
2	218751	32.71	0
2	219444	32.81	0
2	220137	32.91	0
2	220839	33.01	0
2	221532	33.11	0
2	222225	33.21	0
2	222918	33.31	0
2	223611	33.41	0
2	224304	33.51	0
2	224997	33.61	0
2	225690	33.71	0
2	226383	33.81	0
2	227076	33.91	0
2	227778	34.01	0
2	228471	34.11	0
2	229164	34.21	0
2	229857	34.31	0
2	230550	34.41	0
2	231243	34.51	0
2	231936	34.61	0
2	232629	34.71	0
2	233322	34.81	0
2	234015	34.91	0
2	234717	35.01	0
2	235410	35.11	0
2	236103	35.21	0
2	236796	35.31	0
2	237489	35.41	0
2	238182	35.51	0
2	238875	35.61	0
2	239568	35.71	0
2	240261	35.81	0
2	240954	35.91	0
2	241656	36.01	0
2	242349	36.11	0
2	243042	36.21	0
2	243735	36.31	0
2	244428	36.41	0
2	245121	36.51	0
2	245814	36.61	0
2	246507	36.71	0
2	247200	36.81	0
2	247893	36.91	0
2	248595	37.01	0
2	249288	37.11	0
2	249981	37.21	0
2	250674	37.31	0
2	251367	37.41	0
2	252060	37.51	0
2	252753	37.61	0
2	253446	37.71	0
2	254139	37.81	0
2	254832	37.91	0
2	255534	38.01	0
2	256227	38.11	0
2	256920	38.21	0
2	257613	38.31	0
2	258306	38.41	0
2	258999	38.51	0
2	259692	38.61	0
2	260385	38.71	0
2	261078	38.81	0
2	261771	38.91	0
2	262473	39.01	0
2	263166	39.11	0
2	263859	39.21	0
2	264552	39.31	0
2	265245	39.41	0
2	265938	39.51	0
2	266631	39.61	0
2	267324	39.71	0
2	268017	39.81	0
2	268710	39.91	0
2	269412	40.01	0
2	270105	40.11	0
2	270798	40.21	0
2	271491	40.31	0
2	272184	40.41	0
2	272877	40.51	0
2	273570	40.61	0
2	274263	40.71	0
2	274956	40.81	0
2	275649	40.91	0
2	276351	41.01	0
2	277044	41.11	0
2	277737	41.21	0
2	278430	41.31	0
2	279123	41.41	0
2	279816	41.51	0
2	280509	41.61	0
2	281202	41.71	0
2	281895	41.81	0
2	282588	41.91	0
2	283290	42.01	0
2	283983	42.11	0
2	284676	42.21	0
2	285369	42.31	0
2	286062	42.41	0
2	286755	42.51	0
2	287448	42.61	0
2	288244	42.71	0
2	288936	42.81	0
2	289628	42.91	0
2	290329	43.01	0
2	291021	43.11	0
2	291713	43.21	0
2	292405	43.31	0
2	293097	43.41	0
2	293789	43.51	0
2	294481	43.61	0
2	295173	43.71	0
2	295865	43.81	0
2	296557	43.91	0
2	297258	44.01	0
2	297950	44.11	0
2	298642	44.21	0
2	299334	44.31	0
2	300026	44.41	0
2	300718	44.51	0
2	301410	44.61	0
2	302102	44.71	0
2	302794	44.81	0
2	303486	44.91	0
2	304187	45.01	0
2	304879	45.11	0
2	305571	45.21	0
2	306263	45.31	0
2	306955	45.41	0
2	307647	45.51	0
2	308339	45.61	0
2	309031	45.71	0
2	309723	45.81	0
2	310415	45.91	0
2	311116	46.01	0
2	311808	46.11	0
2	312500	46.21	0
2	313192	46.31	0
2	313884	46.41	0
2	314576	46.51	0
2	315268	46.61	0
2	315960	46.71	0
2	316652	46.81	0
2	317344	46.91	0
2	318045	47.01	0
2	318737	47.11	0
2	319429	47.21	0
2	320121	47.31	0
2	320813	47.41	0
2	321505	47.51	0
2	322197	47.61	0
2	322889	47.71	0
2	323581	47.81	0
2	324273	47.91	0
2	324974	48.01	0
2	325666	48.11	0
2	326358	48.21	0
2	327050	48.31	0
2	327742	48.41	0
2	328537	48.51	0
2	329228	48.61	0
2	329919	48.71	0
2	330610	48.81	0
2	331301	48.91	0
2	332001	49.01	0
2	332692	49.11	0
2	333383	49.21	0
2	334074	49.31	0
2	334765	49.41	0
2	335456	49.51	0
2	336147	49.61	0
2	336838	49.71	0
2	337529	49.81	0
2	338220	49.91	0
2	338920	50.01	0
2	339611	50.11	0
2	340302	50.21	0
2	340993	50.31	0
2	341684	50.41	0
2	342375	50.51	0
2	343066	50.61	0
2	343757	50.71	0
2	344448	50.81	0
2	345139	50.91	0
2	345839	51.01	0
2	346530	51.11	0
2	347221	51.21	0
2	347912	51.31	0
2	348603	51.41	0
2	349294	51.51	0
2	349985	51.61	0
2	350676	51.71	0
2	351367	51.81	0
2	352058	51.91	0
2	352758	52.01	0
2	353449	52.11	0
2	354140	52.21	0
2	354831	52.31	0
2	355522	52.41	0
2	356213	52.51	0
2	356904	52.61	0
2	357595	52.71	0
2	358286	52.81	0
2	358977	52.91	0
2	359677	53.01	0
2	360368	53.11	0
2	361059	53.21	0
2	361750	53.31	0
2	362441	53.41	0
2	363132	53.51	0
2	363823	53.61	0
2	364514	53.71	0
2	365308	53.81	0
2	365998	53.91	0
2	366697	54.01	0
2	367387	54.11	0
2	368077	54.21	0
2	368767	54.31	0
2	369457	54.41	0
2	370147	54.51	0
2	370837	54.61	0
2	371527	54.71	0
2	372217	54.81	0
2	372907	54.91	0
2	373606	55.01	0
2	374296	55.11	0
2	374986	55.21	0
2	375676	55.31	0
2	376366	55.41	0
2	377056	55.51	0
2	377746	55.61	0
2	378436	55.71	0
2	379126	55.81	0
2	379816	55.91	0
2	380515	56.01	0
2	381205	56.11	0
2	381895	56.21	0
2	382585	56.31	0
2	383275	56.41	0
2	383965	56.51	0
2	384655	56.61	0
2	385345	56.71	0
2	386035	56.81	0
2	386725	56.91	0
2	387424	57.01	0
2	388114	57.11	0
2	388804	57.21	0
2	389494	57.31	0
2	390184	57.41	0
2	390874	57.51	0
2	391564	57.61	0
2	392254	57.71	0
2	392944	57.81	0
2	393634	57.91	0
2	394333	58.01	0
2	395023	58.11	0
2	395713	58.21	0
2	396403	58.31	0
2	397093	58.41	0
2	397783	58.51	0
2	398473	58.61	0
2	399266	58.71	0
2	399955	58.81	0
2	400644	58.91	0
2	401342	59.01	0
2	402031	59.11	0
2	402720	59.21	0
2	403409	59.31	0
2	404098	59.41	0
2	404787	59.51	0
2	405476	59.61	0
2	406165	59.71	0
2	406854	59.81	0
2	407543	59.91	0
2	408241	60.01	0
2	408930	60.11	0
2	409619	60.21	0
2	410308	60.31	0
2	410997	60.41	0
2	411686	60.51	0
2	412375	60.61	0
2	413064	60.71	0
2	413753	60.81	0
2	414442	60.91	0
2	415140	61.01	0
2	415829	61.11	0
2	416518	61.21	0
2	417207	61.31	0
2	417896	61.41	0
2	418585	61.51	0
2	419274	61.61	0
2	419963	61.71	0
2	420652	61.81	0
2	421341	61.91	0
2	422039	62.01	0
2	422728	62.11	0
2	423417	62.21	0
2	424106	62.31	0
2	424795	62.41	0
2	425484	62.51	0
2	426173	62.61	0
2	426862	62.71	0
2	427551	62.81	0
2	428240	62.91	0
2	428938	63.01	0
2	429627	63.11	0
2	430316	63.21	0
2	431108	63.31	0
2	431796	63.41	0
2	432484	63.51	0
2	433172	63.61	0
2	433860	63.71	0
2	434548	63.81	0
2	435236	63.91	0
2	435933	64.01	0
2	436621	64.11	0
2	437309	64.21	0
2	437997	64.31	0
2	438685	64.41	0
2	439373	64.51	0
2	440061	64.61	0
2	440749	64.71	0
2	441437	64.81	0
2	442125	64.91	0
2	442822	65.01	0
2	443510	65.11	0
2	444198	65.21	0
2	444886	65.31	0
2	445574	65.41	0
2	446262	65.51	0
2	446950	65.61	0
2	447638	65.71	0
2	448326	65.81	0
2	449014	65.91	0
2	449711	66.01	0
2	450399	66.11	0
2	451087	66.21	0
2	451775	66.31	0
2	452463	66.41	0
2	453151	66.51	0
2	453839	66.61	0
2	454527	66.71	0
2	455215	66.81	0
2	455903	66.91	0
2	456600	67.01	0
2	457288	67.11	0
2	457976	67.21	0
2	458664	67.31	0
2	459352	67.41	0
2	460040	67.51	0
2	460728	67.61	0
2	461519	67.71	0
2	462206	67.81	0
2	462893	67.91	0
2	463589	68.01	0
2	464276	68.11	0
2	464963	68.21	0
2	465650	68.31	0
2	466337	68.41	0
2	467024	68.51	0
2	467711	68.61	0
2	468398	68.71	0
2	469085	68.81	0
2	469772	68.91	0
2	470468	69.01	0
2	471155	69.11	0
2	471842	69.21	0
2	472529	69.31	0
2	473216	69.41	0
2	473903	69.51	0
2	474590	69.61	0
2	475277	69.71	0
2	475964	69.81	0
2	476651	69.91	0
2	477347	70.01	0
2	478034	70.11	0
2	478721	70.21	0
2	479408	70.31	0
2	480095	70.41	0
2	480782	70.51	0
2	481469	70.61	0
2	482156	70.71	0
2	482843	70.81	0
2	483530	70.91	0
2	484226	71.01	0
2	484913	71.11	0
2	485600	71.21	0
2	486287	71.31	0
2	486974	71.41	0
2	487661	71.51	0
2	488348	71.61	0
2	489035	71.71	0
2	489722	71.81	0
2	490409	71.91	0
2	491105	72.01	0
2	491895	72.11	0
2	492581	72.21	0
2	493267	72.31	0
2	493953	72.41	0
2	494639	72.51	0
2	495325	72.61	0
2	496011	72.71	0
2	496697	72.81	0
2	497383	72.91	0
2	498078	73.01	0
2	498764	73.11	0
2	499450	73.21	0
2	500136	73.31	0
2	500822	73.41	0
2	501508	73.51	0
2	502194	73.61	0
2	502880	73.71	0
2	503566	73.81	0
2	504252	73.91	0
2	504947	74.01	0
2	505633	74.11	0
2	506319	74.21	0
2	507005	74.31	0
2	507691	74.41	0
2	508377	74.51	0
2	509063	74.61	0
2	509749	74.71	0
2	510435	74.81	0
2	511121	74.91	0
2	511816	75.01	0
2	512502	75.11	0
2	513188	75.21	0
2	513874	75.31	0
2	514560	75.41	0
2	515246	75.51	0
2	515932	75.61	0
2	516618	75.71	0
2	517304	75.81	0
2	517990	75.91	0
2	518685	76.01	0
2	519371	76.11	0
2	520984	76.21	0
2	521669	76.31	0
2	522354	76.41	0
2	523039	76.51	0
2	523724	76.61	0
2	524409	76.71	0
2	525094	76.81	0
2	525779	76.91	0
2	526473	77.01	0
2	527158	77.11	0
2	527843	77.21	0
2	528528	77.31	0
2	529213	77.41	0
2	529898	77.51	0
2	530583	77.61	0
2	531268	77.71	0
2	531953	77.81	0
2	532638	77.91	0
2	533332	78.01	0
2	534017	78.11	0
2	534702	78.21	0
2	535387	78.31	0
2	536072	78.41	0
2	536757	78.51	0
2	537442	78.61	0
2	538127	78.71	0
2	538812	78.81	0
2	539497	78.91	0
2	540191	79.01	0
2	540876	79.11	0
2	541561	79.21	0
2	542246	79.31	0
2	542931	79.41	0
2	543616	79.51	0
2	544301	79.61	0
2	544986	79.71	0
2	545671	79.81	0
2	546356	79.91	0
2	547050	80.01	0
2	547735	80.11	0
2	548420	80.21	0
2	549105	80.31	0
2	549790	80.41	0
2	550475	80.51	0
2	551160	80.61	0
2	551845	80.71	0
2	552530	80.81	0
2	553215	80.91	0
2	553909	81.01	0
2	554594	81.11	0
2	555279	81.21	0
2	555964	81.31	0
2	556649	81.41	0
2	557334	81.51	0
2	558019	81.61	0
2	558704	81.71	0
2	559389	81.81	0
2	560074	81.91	0
2	560768	82.01	0
2	561453	82.11	0
2	562138	82.21	0
2	562823	82.31	0
2	563508	82.41	0
2	564193	82.51	0
2	564878	82.61	0
2	565563	82.71	0
2	566248	82.81	0
2	566933	82.91	0
2	567627	83.01	0
2	568312	83.11	0
2	568997	83.21	0
2	569682	83.31	0
2	570367	83.41	0
2	571052	83.51	0
2	571737	83.61	0
2	572422	83.71	0
2	573107	83.81	0
2	573792	83.91	0
2	574486	84.01	0
2	575171	84.11	0
2	575856	84.21	0
2	576541	84.31	0
2	577226	84.41	0
2	577911	84.51	0
2	578596	84.61	0
2	579281	84.71	0
2	579966	84.81	0
2	580651	84.91	0
2	581345	85.01	0
2	582030	85.11	0
2	582715	85.21	0
2	583400	85.31	0
2	584085	85.41	0
2	584770	85.51	0
2	585455	85.61	0
2	586140	85.71	0
2	586825	85.81	0
2	587510	85.91	0
2	588204	86.01	0
2	588889	86.11	0
2	589574	86.21	0
2	590259	86.31	0
2	590944	86.41	0
2	591629	86.51	0
2	592314	86.61	0
2	592999	86.71	0
2	593684	86.81	0
2	594369	86.91	0
2	595063	87.01	0
2	595748	87.11	0
2	596433	87.21	0
2	597118	87.31	0
2	597803	87.41	0
2	598488	87.51	0
2	599173	87.61	0
2	599858	87.71	0
2	600543	87.81	0
2	601228	87.91	0
2	601922	88.01	0
2	602607	88.11	0
2	603292	88.21	0
2	603977	88.31	0
2	604662	88.41	0
2	605347	88.51	0
2	606032	88.61	0
2	606717	88.71	0
2	607402	88.81	0
2	608087	88.91	0
2	608781	89.01	0
2	609466	89.11	0
2	610151	89.21	0
2	610836	89.31	0
2	611521	89.41	0
2	612206	89.51	0
2	612891	89.61	0
2	613576	89.71	0
2	614261	89.81	0
2	614946	89.91	0
2	615640	90.01	0
2	616325	90.11	0
2	617010	90.21	0
2	617695	90.31	0
2	618380	90.41	0
2	619065	90.51	0
2	619750	90.61	0
2	620435	90.71	0
2	621120	90.81	0
2	621805	90.91	0
2	622499	91.01	0
2	623184	91.11	0
2	623869	91.21	0
2	624554	91.31	0
2	625239	91.41	0
2	625924	91.51	0
2	626609	91.61	0
2	627294	91.71	0
2	627979	91.81	0
2	628664	91.91	0
2	629358	92.01	0
2	630043	92.11	0
2	630728	92.21	0
2	631413	92.31	0
2	632098	92.41	0
2	632783	92.51	0
2	633468	92.61	0
2	634153	92.71	0
2	634838	92.81	0
2	635523	92.91	0
2	636217	93.01	0
2	636902	93.11	0
2	637587	93.21	0
2	638272	93.31	0
2	638957	93.41	0
2	639642	93.51	0
2	640327	93.61	0
2	641012	93.71	0
2	641697	93.81	0
2	642382	93.91	0
2	643076	94.01	0
2	643761	94.11	0
2	644446	94.21	0
2	645131	94.31	0
2	645816	94.41	0
2	646501	94.51	0
2	647186	94.61	0
2	647871	94.71	0
2	648556	94.81	0
2	649241	94.91	0
2	649935	95.01	0
2	650620	95.11	0
2	651305	95.21	0
2	651990	95.31	0
2	652675	95.41	0
2	653360	95.51	0
2	654045	95.61	0
2	654730	95.71	0
2	655415	95.81	0
2	656100	95.91	0
2	656794	96.01	0
2	657479	96.11	0
2	658164	96.21	0
2	658849	96.31	0
2	659534	96.41	0
2	660219	96.51	0
2	660904	96.61	0
2	661589	96.71	0
2	662274	96.81	0
2	662959	96.91	0
2	663653	97.01	0
2	664338	97.11	0
2	665023	97.21	0
2	665708	97.31	0
2	666393	97.41	0
2	667078	97.51	0
2	667763	97.61	0
2	668448	97.71	0
2	669133	97.81	0
2	669818	97.91	0
2	670512	98.01	0
2	671197	98.11	0
2	671882	98.21	0
2	672567	98.31	0
2	673252	98.41	0
2	673937	98.51	0
2	674622	98.61	0
2	675307	98.71	0
2	675992	98.81	0
2	676677	98.91	0
2	677371	99.01	0
2	678056	99.11	0
2	678741	99.21	0
2	679426	99.31	0
2	680111	99.41	0
2	680796	99.51	0
2	681481	99.61	0
2	682166	99.71	0
2	682851	99.81	0
2	683536	99.91	0
3	113	1.11	0.000179096
3	798	1.21	0.000340852
3	1483	1.31	0.000467435
3	2168	1.41	0.000562893
3	2853	1.51	0.000631106
3	3538	1.61	0.000675745
3	4223	1.71	0.000700245
3	4908	1.81	0.000707784
3	5593	1.91	0.000701273
3	6287	2.01	0.000683354
3	6972	2.11	0.000656398
3	7657	2.21	0.000622512
3	8342	2.31	0.000583548
3	9027	2.41	0.000541117
3	9712	2.51	0.000496604
3	10397	2.61	0.000451181
3	11082	2.71	0.000405825
3	11767	2.81	0.00036134
3	12452	2.91	0.000318365
3	13146	3.01	0.0002774
3	13831	3.11	0.00023882
3	14516	3.21	0.000202887
3	15201	3.31	0.00016977
3	15886	3.41	0.000139558
3	16571	3.51	0.000112271
3	17256	3.61	8.78717e-05
3	17941	3.71	6.628e-05
3	18626	3.81	4.73785e-05
3	19311	3.91	3.1023e-05
3	20005	4.01	1.70493e-05
3	20690	4.11	5.28023e-06
3	21375	4.21	-4.46922e-06
3	22060	4.31	-1.2387e-05
3	22745	4.41	-1.86602e-05
3	23430	4.51	-2.34717e-05
3	24115	4.61	-2.69978e-05
3	24800	4.71	-2.94062e-05
3	25485	4.81	-3.08545e-05
3	26170	4.91	-3.14892e-05
3	26864	5.01	-3.14451e-05
3	27549	5.11	-3.0845e-05
3	28234	5.21	-2.97994e-05
3	28919	5.31	-2.84072e-05
3	29604	5.41	-2.67556e-05
3	30289	5.51	-2.49208e-05
3	30974	5.61	-2.29687e-05
3	31659	5.71	-2.09553e-05
3	32344	5.81	-1.89277e-05
3	33029	5.91	-1.6925e-05
3	33723	6.01	-1.49784e-05
3	34408	6.11	-1.31129e-05
3	35093	6.21	-1.13474e-05
3	35778	6.31	-9.69553e-06
3	36463	6.41	-8.16651e-06
3	37148	6.51	-6.76571e-06
3	37833	6.61	-5.49522e-06
3	38518	6.71	-4.35441e-06
3	39203	6.81	-3.34045e-06
3	39888	6.91	-2.44874e-06
3	40582	7.01	-1.6733e-06
3	41267	7.11	-1.00716e-06
3	41952	7.21	-4.42628e-07
3	42637	7.31	2.84224e-08
3	43322	7.41	4.14339e-07
3	44007	7.51	7.23492e-07
3	44692	7.61	9.6413e-07
3	45377	7.71	1.14424e-06
3	46062	7.81	1.27148e-06
3	46747	7.91	1.35305e-06
3	47441	8.01	1.3957e-06
3	48126	8.11	1.40565e-06
3	48811	8.21	1.3886e-06
3	49496	8.31	1.34971e-06
3	50181	8.41	1.2936e-06
3	50866	8.51	1.22437e-06
3	51551	8.61	1.14561e-06
3	52236	8.71	1.06046e-06
3	52921	8.81	9.71582e-07
3	53606	8.91	8.81246e-07
3	54300	9.01	7.91334e-07
3	54985	9.11	7.03381e-07
3	55670	9.21	6.18613e-07
3	56355	9.31	5.37979e-07
3	57040	9.41	4.62183e-07
3	57725	9.51	3.91714e-07
3	58410	9.61	3.26878e-07
3	59095	9.71	2.67827e-07
3	59780	9.81	2.14581e-07
3	60465	9.91	1.67052e-07
3	61242	10.01	1.25066e-07
3	61935	10.11	8.83794e-08
3	62628	10.21	5.66978e-08
3	63321	10.31	2.96922e-08
3	64014	10.41	7.00453e-09
3	64707	10.51	-1.17325e-08
3	65400	10.61	-2.68933e-08
3	66093	10.71	-3.88482e-08
3	66786	10.81	-4.79581e-08
3	67479	10.91	-5.45704e-08
3	68181	11.01	-5.90177e-08
3	68874	11.11	-6.16069e-08
3	69567	11.21	-6.26265e-08
3	70260	11.31	-6.23395e-08
3	70953	11.41	-6.09859e-08
3	71646	11.51	-5.87811e-08
3	72339	11.61	-5.59183e-08
3	73032	11.71	-5.25674e-08
3	73725	11.81	-4.88761e-08
3	74418	11.91	-4.4971e-08
3	75120	12.01	-4.09599e-08
3	75813	12.11	-3.69354e-08
3	76506	12.21	-3.29713e-08
3	77199	12.31	-2.9128e-08
3	77892	12.41	-2.54531e-08
3	78585	12.51	-2.19821e-08
3	79278	12.61	-1.87399e-08
3	79971	12.71	-1.57428e-08
3	80664	12.81	-1.30029e-08
3	81357	12.91	-1.05217e-08
3	82059	13.01	-8.29772e-09
3	82752	13.11	-6.32454e-09
3	83445	13.21	-4.59224e-09
3	84138	13.31	-3.08802e-09
3	84831	13.41	-1.79838e-09
3	85524	13.51	-7.08411e-10
3	86217	13.61	1.98241e-10
3	86910	13.71	9.37916e-10
3	87603	13.81	1.52767e-09
3	88296	13.91	1.98384e-09
3	88998	14.01	2.32276e-09
3	89691	14.11	2.55937e-09
3	90384	14.21	2.70788e-09
3	91077	14.31	2.78249e-09
3	91770	14.41	2.79243e-09
3	92463	14.51	2.7498e-09
3	93156	14.61	2.66525e-09
3	93849	14.71	2.54872e-09
3	94542	14.81	2.40803e-09
3	95235	14.91	2.24887e-09
3	95937	15.01	2.07763e-09
3	96630	15.11	1.89999e-09
3	97323	15.21	1.72236e-09
3	98016	15.31	1.54472e-09
3	98709	15.41	1.37064e-09
3	99402	15.51	1.20295e-09
3	100095	15.61	1.04379e-09
3	100788	15.71	8.94573e-10
3	101481	15.81	7.56017e-10
3	102174	15.91	6.29541e-10
3	102876	16.01	5.13012e-10
3	103569	16.11	4.09273e-10
3	104262	16.21	3.16902e-10
3	104955	16.31	2.3519e-10
3	105648	16.41	1.63425e-10
3	106341	16.51	1.02318e-10
3	107034	16.61	4.9738e-11
3	107727	16.71	5.68434e-12
3	108420	16.81	-3.05533e-11
3	109113	16.91	-5.8975e-11
3	109815	17.01	-8.10019e-11
3	110508	17.11	-9.80549e-11
3	111201	17.21	-1.11555e-10
3	111894	17.31	-1.18661e-10
3	112587	17.41	-1.23634e-10
3	113280	17.51	-1.23634e-10
3	113973	17.61	-1.23634e-10
3	114666	17.71	-1.21503e-10
3	115359	17.81	-1.14397e-10
3	116052	17.91	-1.07292e-10
3	116754	18.01	-1.00187e-10
3	117447	18.11	-9.30811e-11
3	118140	18.21	-8.59757e-11
3	118833	18.31	-7.88702e-11
3	119526	18.41	-7.17648e-11
3	120219	18.51	-6.46594e-11
3	120912	18.61	-5.7554e-11
3	121605	18.71	-5.04485e-11
3	122298	18.81	-4.33431e-11
3	122991	18.91	-3.62377e-11
3	123693	19.01	-2.91323e-11
3	124386	19.11	-2.20268e-11
3	125079	19.21	-1.7053e-11
3	125772	19.31	-1.49214e-11
3	126465	19.41	-1.35003e-11
3	127158	19.51	-1.27898e-11
3	127851	19.61	-1.13687e-11
3	128544	19.71	-9.9476e-12
3	129237	19.81	-9.23706e-12
3	129930	19.91	-8.52651e-12
3	130632	20.01	-7.81597e-12
3	131325	20.11	-7.10543e-12
3	132018	20.21	-6.39488e-12
3	132711	20.31	-5.68434e-12
3	133404	20.41	-4.9738e-12
3	134097	20.51	-4.26326e-12
3	134790	20.61	-4.26326e-12
3	135483	20.71	-3.55271e-12
3	136176	20.81	-3.55271e-12
3	136869	20.91	-2.84217e-12
3	137571	21.01	-2.84217e-12
3	138264	21.11	-2.84217e-12
3	138957	21.21	-2.13163e-12
3	139650	21.31	-2.13163e-12
3	140343	21.41	-2.13163e-12
3	141036	21.51	-1.42109e-12
3	141729	21.61	-1.42109e-12
3	142422	21.71	-1.42109e-12
3	143115	21.81	-1.42109e-12
3	143808	21.91	-1.42109e-12
3	144510	22.01	-7.10543e-13
3	145203	22.11	-7.10543e-13
3	145896	22.21	-7.10543e-13
3	146589	22.31	-7.10543e-13
3	147282	22.41	-7.10543e-13
3	147975	22.51	-7.10543e-13
3	148668	22.61	-7.10543e-13
3	149361	22.71	-7.10543e-13
3	150054	22.81	-7.10543e-13
3	150747	22.91	-7.10543e-13
3	151449	23.01	0
3	152142	23.11	0
3	152835	23.21	0
3	153528	23.31	0
3	154221	23.41	0
3	154914	23.51	0
3	155607	23.61	0
3	156300	23.71	0
3	156993	23.81	0
3	157686	23.91	0
3	158388	24.01	0
3	159081	24.11	0
3	159774	24.21	0
3	160467	24.31	0
3	161160	24.41	0
3	161853	24.51	0
3	162546	24.61	0
3	163239	24.71	0
3	163932	24.81	0
3	164625	24.91	0
3	165327	25.01	0
3	166020	25.11	0
3	166713	25.21	0
3	167406	25.31	0
3	168099	25.41	0
3	168792	25.51	0
3	169485	25.61	0
3	170178	25.71	0
3	170871	25.81	0
3	171564	25.91	0
3	172266	26.01	0
3	172959	26.11	0
3	173652	26.21	0
3	174345	26.31	0
3	175038	26.41	0
3	175731	26.51	0
3	176424	26.61	0
3	177117	26.71	0
3	177810	26.81	0
3	178503	26.91	0
3	179205	27.01	0
3	179898	27.11	0
3	180591	27.21	0
3	181284	27.31	0
3	181977	27.41	0
3	182670	27.51	0
3	183363	27.61	0
3	184056	27.71	0
3	184749	27.81	0
3	185442	27.91	0
3	186144	28.01	0
3	186837	28.11	0
3	187530	28.21	0
3	188223	28.31	0
3	188916	28.41	0
3	189609	28.51	0
3	190302	28.61	0
3	190995	28.71	0
3	191688	28.81	0
3	192381	28.91	0
3	193083	29.01	0
3	193776	29.11	0
3	194469	29.21	0
3	195162	29.31	0
3	195855	29.41	0
3	196548	29.51	0
3	197241	29.61	0
3	197934	29.71	0
3	198627	29.81	0
3	199320	29.91	0
3	200022	30.01	0
3	200715	30.11	0
3	201408	30.21	0
3	202101	30.31	0
3	202794	30.41	0
3	203487	30.51	0
3	204180	30.61	0
3	204873	30.71	0
3	205566	30.81	0
3	206259	30.91	0
3	206961	31.01	0
3	207654	31.11	0
3	208347	31.21	0
3	209040	31.31	0
3	209733	31.41	0
3	210426	31.51	0
3	211119	31.61	0
3	211812	31.71	0
3	212505	31.81	0
3	213198	31.91	0
3	213900	32.01	0
3	214593	32.11	0
3	215286	32.21	0
3	215979	32.31	0
3	216672	32.41	0
3	217365	32.51	0
3	218058	32.61	0
3	218751	32.71	0
3	219444	32.81	0
3	220137	32.91	0
3	220839	33.01	0
3	221532	33.11	0
3	222225	33.21	0
3	222918	33.31	0
3	223611	33.41	0
3	224304	33.51	0
3	224997	33.61	0
3	225690	33.71	0
3	226383	33.81	0
3	227076	33.91	0
3	227778	34.01	0
3	228471	34.11	0
3	229164	34.21	0
3	229857	34.31	0
3	230550	34.41	0
3	231243	34.51	0
3	231936	34.61	0
3	232629	34.71	0
3	233322	34.81	0
3	234015	34.91	0
3	234717	35.01	0
3	235410	35.11	0
3	236103	35.21	0
3	236796	35.31	0
3	237489	35.41	0
3	238182	35.51	0
3	238875	35.61	0
3	239568	35.71	0
3	240261	35.81	0
3	240954	35.91	0
3	241656	36.01	0
3	242349	36.11	0
3	243042	36.21	0
3	243735	36.31	0
3	244428	36.41	0
3	245121	36.51	0
3	245814	36.61	0
3	246507	36.71	0
3	247200	36.81	0
3	247893	36.91	0
3	248595	37.01	0
3	249288	37.11	0
3	249981	37.21	0
3	250674	37.31	0
3	251367	37.41	0
3	252060	37.51	0
3	252753	37.61	0
3	253446	37.71	0
3	254139	37.81	0
3	254832	37.91	0
3	255534	38.01	0
3	256227	38.11	0
3	256920	38.21	0
3	257613	38.31	0
3	258306	38.41	0
3	258999	38.51	0
3	259692	38.61	0
3	260385	38.71	0
3	261078	38.81	0
3	261771	38.91	0
3	262473	39.01	0
3	263166	39.11	0
3	263859	39.21	0
3	264552	39.31	0
3	265245	39.41	0
3	265938	39.51	0
3	266631	39.61	0
3	267324	39.71	0
3	268017	39.81	0
3	268710	39.91	0
3	269412	40.01	0
3	270105	40.11	0
3	270798	40.21	0
3	271491	40.31	0
3	272184	40.41	0
3	272877	40.51	0
3	273570	40.61	0
3	274263	40.71	0
3	274956	40.81	0
3	275649	40.91	0
3	276351	41.01	0
3	277044	41.11	0
3	277737	41.21	0
3	278430	41.31	0
3	279123	41.41	0
3	279816	41.51	0
3	280509	41.61	0
3	281202	41.71	0
3	281895	41.81	0
3	282588	41.91	0
3	283290	42.01	0
3	283983	42.11	0
3	284676	42.21	0
3	285369	42.31	0
3	286062	42.41	0
3	286755	42.51	0
3	287448	42.61	0
3	288244	42.71	0
3	288936	42.81	0
3	289628	42.91	0
3	290329	43.01	0
3	291021	43.11	0
3	291713	43.21	0
3	292405	43.31	0
3	293097	43.41	0
3	293789	43.51	0
3	294481	43.61	0
3	295173	43.71	0
3	295865	43.81	0
3	296557	43.91	0
3	297258	44.01	0
3	297950	44.11	0
3	298642	44.21	0
3	299334	44.31	0
3	300026	44.41	0
3	300718	44.51	0
3	301410	44.61	0
3	302102	44.71	0
3	302794	44.81	0
3	303486	44.91	0
3	304187	45.01	0
3	304879	45.11	0
3	305571	45.21	0
3	306263	45.31	0
3	306955	45.41	0
3	307647	45.51	0
3	308339	45.61	0
3	309031	45.71	0
3	309723	45.81	0
3	310415	45.91	0
3	311116	46.01	0
3	311808	46.11	0
3	312500	46.21	0
3	313192	46.31	0
3	313884	46.41	0
3	314576	46.51	0
3	315268	46.61	0
3	315960	46.71	0
3	316652	46.81	0
3	317344	46.91	0
3	318045	47.01	0
3	318737	47.11	0
3	319429	47.21	0
3	320121	47.31	0
3	320813	47.41	0
3	321505	47.51	0
3	322197	47.61	0
3	322889	47.71	0
3	323581	47.81	0
3	324273	47.91	0
3	324974	48.01	0
3	325666	48.11	0
3	326358	48.21	0
3	327050	48.31	0
3	327742	48.41	0
3	328537	48.51	0
3	329228	48.61	0
3	329919	48.71	0
3	330610	48.81	0
3	331301	48.91	0
3	332001	49.01	0
3	332692	49.11	0
3	333383	49.21	0
3	334074	49.31	0
3	334765	49.41	0
3	335456	49.51	0
3	336147	49.61	0
3	336838	49.71	0
3	337529	49.81	0
3	338220	49.91	0
3	338920	50.01	0
3	339611	50.11	0
3	340302	50.21	0
3	340993	50.31	0
3	341684	50.41	0
3	342375	50.51	0
3	343066	50.61	0
3	343757	50.71	0
3	344448	50.81	0
3	345139	50.91	0
3	345839	51.01	0
3	346530	51.11	0
3	347221	51.21	0
3	347912	51.31	0
3	348603	51.41	0
3	349294	51.51	0
3	349985	51.61	0
3	350676	51.71	0
3	351367	51.81	0
3	352058	51.91	0
3	352758	52.01	0
3	353449	52.11	0
3	354140	52.21	0
3	354831	52.31	0
3	355522	52.41	0
3	356213	52.51	0
3	356904	52.61	0
3	357595	52.71	0
3	358286	52.81	0
3	358977	52.91	0
3	359677	53.01	0
3	360368	53.11	0
3	361059	53.21	0
3	361750	53.31	0
3	362441	53.41	0
3	363132	53.51	0
3	363823	53.61	0
3	364514	53.71	0
3	365308	53.81	0
3	365998	53.91	0
3	366697	54.01	0
3	367387	54.11	0
3	368077	54.21	0
3	368767	54.31	0
3	369457	54.41	0
3	370147	54.51	0
3	370837	54.61	0
3	371527	54.71	0
3	372217	54.81	0
3	372907	54.91	0
3	373606	55.01	0
3	374296	55.11	0
3	374986	55.21	0
3	375676	55.31	0
3	376366	55.41	0
3	377056	55.51	0
3	377746	55.61	0
3	378436	55.71	0
3	379126	55.81	0
3	379816	55.91	0
3	380515	56.01	0
3	381205	56.11	0
3	381895	56.21	0
3	382585	56.31	0
3	383275	56.41	0
3	383965	56.51	0
3	384655	56.61	0
3	385345	56.71	0
3	386035	56.81	0
3	386725	56.91	0
3	387424	57.01	0
3	388114	57.11	0
3	388804	57.21	0
3	389494	57.31	0
3	390184	57.41	0
3	390874	57.51	0
3	391564	57.61	0
3	392254	57.71	0
3	392944	57.81	0
3	393634	57.91	0
3	394333	58.01	0
3	395023	58.11	0
3	395713	58.21	0
3	396403	58.31	0
3	397093	58.41	0
3	397783	58.51	0
3	398473	58.61	0
3	399266	58.71	0
3	399955	58.81	0
3	400644	58.91	0
3	401342	59.01	0
3	402031	59.11	0
3	402720	59.21	0
3	403409	59.31	0
3	404098	59.41	0
3	404787	59.51	0
3	405476	59.61	0
3	406165	59.71	0
3	406854	59.81	0
3	407543	59.91	0
3	408241	60.01	0
3	408930	60.11	0
3	409619	60.21	0
3	410308	60.31	0
3	410997	60.41	0
3	411686	60.51	0
3	412375	60.61	0
3	413064	60.71	0
3	413753	60.81	0
3	414442	60.91	0
3	415140	61.01	0
3	415829	61.11	0
3	416518	61.21	0
3	417207	61.31	0
3	417896	61.41	0
3	418585	61.51	0
3	419274	61.61	0
3	419963	61.71	0
3	420652	61.81	0
3	421341	61.91	0
3	422039	62.01	0
3	422728	62.11	0
3	423417	62.21	0
3	424106	62.31	0
3	424795	62.41	0
3	425484	62.51	0
3	426173	62.61	0
3	426862	62.71	0
3	427551	62.81	0
3	428240	62.91	0
3	428938	63.01	0
3	429627	63.11	0
3	430316	63.21	0
3	431108	63.31	0
3	431796	63.41	0
3	432484	63.51	0
3	433172	63.61	0
3	433860	63.71	0
3	434548	63.81	0
3	435236	63.91	0
3	435933	64.01	0
3	436621	64.11	0
3	437309	64.21	0
3	437997	64.31	0
3	438685	64.41	0
3	439373	64.51	0
3	440061	64.61	0
3	440749	64.71	0
3	441437	64.81	0
3	442125	64.91	0
3	442822	65.01	0
3	443510	65.11	0
3	444198	65.21	0
3	444886	65.31	0
3	445574	65.41	0
3	446262	65.51	0
3	446950	65.61	0
3	447638	65.71	0
3	448326	65.81	0
3	449014	65.91	0
3	449711	66.01	0
3	450399	66.11	0
3	451087	66.21	0
3	451775	66.31	0
3	452463	66.41	0
3	453151	66.51	0
3	453839	66.61	0
3	454527	66.71	0
3	455215	66.81	0
3	455903	66.91	0
3	456600	67.01	0
3	457288	67.11	0
3	457976	67.21	0
3	458664	67.31	0
3	459352	67.41	0
3	460040	67.51	0
3	460728	67.61	0
3	461519	67.71	0
3	462206	67.81	0
3	462893	67.91	0
3	463589	68.01	0
3	464276	68.11	0
3	464963	68.21	0
3	465650	68.31	0
3	466337	68.41	0
3	467024	68.51	0
3	467711	68.61	0
3	468398	68.71	0
3	469085	68.81	0
3	469772	68.91	0
3	470468	69.01	0
3	471155	69.11	0
3	471842	69.21	0
3	472529	69.31	0
3	473216	69.41	0
3	473903	69.51	0
3	474590	69.61	0
3	475277	69.71	0
3	475964	69.81	0
3	476651	69.91	0
3	477347	70.01	0
3	478034	70.11	0
3	478721	70.21	0
3	479408	70.31	0
3	480095	70.41	0
3	480782	70.51	0
3	481469	70.61	0
3	482156	70.71	0
3	482843	70.81	0
3	483530	70.91	0
3	484226	71.01	0
3	484913	71.11	0
3	485600	71.21	0
3	486287	71.31	0
3	486974	71.41	0
3	487661	71.51	0
3	488348	71.61	0
3	489035	71.71	0
3	489722	71.81	0
3	490409	71.91	0
3	491105	72.01	0
3	491895	72.11	0
3	492581	72.21	0
3	493267	72.31	0
3	493953	72.41	0
3	494639	72.51	0
3	495325	72.61	0
3	496011	72.71	0
3	496697	72.81	0
3	497383	72.91	0
3	498078	73.01	0
3	498764	73.11	0
3	499450	73.21	0
3	500136	73.31	0
3	500822	73.41	0
3	501508	73.51	0
3	502194	73.61	0
3	502880	73.71	0
3	503566	73.81	0
3	504252	73.91	0
3	504947	74.01	0
3	505633	74.11	0
3	506319	74.21	0
3	507005	74.31	0
3	507691	74.41	0
3	508377	74.51	0
3	509063	74.61	0
3	509749	74.71	0
3	510435	74.81	0
3	511121	74.91	0
3	511816	75.01	0
3	512502	75.11	0
3	513188	75.21	0
3	513874	75.31	0
3	514560	75.41	0
3	515246	75.51	0
3	515932	75.61	0
3	516618	75.71	0
3	517304	75.81	0
3	517990	75.91	0
3	518685	76.01	0
3	519371	76.11	0
3	520984	76.21	0
3	521669	76.31	0
3	522354	76.41	0
3	523039	76.51	0
3	523724	76.61	0
3	524409	76.71	0
3	525094	76.81	0
3	525779	76.91	0
3	526473	77.01	0
3	527158	77.11	0
3	527843	77.21	0
3	528528	77.31	0
3	529213	77.41	0
3	529898	77.51	0
3	530583	77.61	0
3	531268	77.71	0
3	531953	77.81	0
3	532638	77.91	0
3	533332	78.01	0
3	534017	78.11	0
3	534702	78.21	0
3	535387	78.31	0
3	536072	78.41	0
3	536757	78.51	0
3	537442	78.61	0
3	538127	78.71	0
3	538812	78.81	0
3	539497	78.91	0
3	540191	79.01	0
3	540876	79.11	0
3	541561	79.21	0
3	542246	79.31	0
3	542931	79.41	0
3	543616	79.51	0
3	544301	79.61	0
3	544986	79.71	0
3	545671	79.81	0
3	546356	79.91	0
3	547050	80.01	0
3	547735	80.11	0
3	548420	80.21	0
3	549105	80.31	0
3	549790	80.41	0
3	550475	80.51	0
3	551160	80.61	0
3	551845	80.71	0
3	552530	80.81	0
3	553215	80.91	0
3	553909	81.01	0
3	554594	81.11	0
3	555279	81.21	0
3	555964	81.31	0
3	556649	81.41	0
3	557334	81.51	0
3	558019	81.61	0
3	558704	81.71	0
3	559389	81.81	0
3	560074	81.91	0
3	560768	82.01	0
3	561453	82.11	0
3	562138	82.21	0
3	562823	82.31	0
3	563508	82.41	0
3	564193	82.51	0
3	564878	82.61	0
3	565563	82.71	0
3	566248	82.81	0
3	566933	82.91	0
3	567627	83.01	0
3	568312	83.11	0
3	568997	83.21	0
3	569682	83.31	0
3	570367	83.41	0
3	571052	83.51	0
3	571737	83.61	0
3	572422	83.71	0
3	573107	83.81	0
3	573792	83.91	0
3	574486	84.01	0
3	575171	84.11	0
3	575856	84.21	0
3	576541	84.31	0
3	577226	84.41	0
3	577911	84.51	0
3	578596	84.61	0
3	579281	84.71	0
3	579966	84.81	0
3	580651	84.91	0
3	581345	85.01	0
3	582030	85.11	0
3	582715	85.21	0
3	583400	85.31	0
3	584085	85.41	0
3	584770	85.51	0
3	585455	85.61	0
3	586140	85.71	0
3	586825	85.81	0
3	587510	85.91	0
3	588204	86.01	0
3	588889	86.11	0
3	589574	86.21	0
3	590259	86.31	0
3	590944	86.41	0
3	591629	86.51	0
3	592314	86.61	0
3	592999	86.71	0
3	593684	86.81	0
3	594369	86.91	0
3	595063	87.01	0
3	595748	87.11	0
3	596433	87.21	0
3	597118	87.31	0
3	597803	87.41	0
3	598488	87.51	0
3	599173	87.61	0
3	599858	87.71	0
3	600543	87.81	0
3	601228	87.91	0
3	601922	88.01	0
3	602607	88.11	0
3	603292	88.21	0
3	603977	88.31	0
3	604662	88.41	0
3	605347	88.51	0
3	606032	88.61	0
3	606717	88.71	0
3	607402	88.81	0
3	608087	88.91	0
3	608781	89.01	0
3	609466	89.11	0
3	610151	89.21	0
3	610836	89.31	0
3	611521	89.41	0
3	612206	89.51	0
3	612891	89.61	0
3	613576	89.71	0
3	614261	89.81	0
3	614946	89.91	0
3	615640	90.01	0
3	616325	90.11	0
3	617010	90.21	0
3	617695	90.31	0
3	618380	90.41	0
3	619065	90.51	0
3	619750	90.61	0
3	620435	90.71	0
3	621120	90.81	0
3	621805	90.91	0
3	622499	91.01	0
3	623184	91.11	0
3	623869	91.21	0
3	624554	91.31	0
3	625239	91.41	0
[...]
120	560563	82	0.028092127568
120	567422	83	0.028091558153
120	574281	84	0.02809106501
120	581140	85	0.028090645829
120	587999	86	0.028090258095
120	594858	87	0.02808988473
120	601717	88	0.028089496456
120	608576	89	0.02808910812
120	615435	90	0.028088722166
120	622294	91	0.028088339457
120	629153	92	0.028087960051
120	636012	93	0.028087583799
120	642871	94	0.028100210512
120	649730	95	0.028086839994
120	656589	96	0.028086471489
120	663448	97	0.028086102182
120	670307	98	0.028098729711
120	677166	99	0.028085353651
120	684025	100	0.028084974392
121	6082	2	0
121	12941	3	0
121	19800	4	0
121	26659	5	0
121	33518	6	0
121	40377	7	0
121	47236	8	0
121	54095	9	0
121	60955	10	0
121	67968	11	0
121	74907	12	0
121	81846	13	0
121	88785	14	0
121	95724	15	0
121	102663	16	0
121	109602	17	0
121	116541	18	0
121	123480	19	0
121	130419	20	0
121	137358	21	0
121	144297	22	0
121	151236	23	0
121	158175	24	0
121	165114	25	0
121	172053	26	0
121	178992	27	0
121	185931	28	0
121	192870	29	0
121	199809	30	0
121	206748	31	0
121	213687	32	0
121	220626	33	0
121	227565	34	0
121	234504	35	0
121	241443	36	0
121	248382	37	0
121	255321	38	0
121	262260	39	0
121	269199	40	0
121	276138	41	0
121	283077	42	0
121	290117	43	0
121	297046	44	0
121	303975	45	0
121	310904	46	0
121	317833	47	0
121	324762	48	0
121	331790	49	0
121	338709	50	0
121	345628	51	0
121	352547	52	0
121	359466	53	0
121	366487	54	0
121	373396	55	0
121	380305	56	0
121	387214	57	0
121	394123	58	0
121	401133	59	0
121	408032	60	0
121	414931	61	0
121	421830	62	0
121	428729	63	0
121	435725	64	0
121	442614	65	0
121	449503	66	0
121	456392	67	0
121	463382	68	0
121	470261	69	0
121	477140	70	0
121	484019	71	0
121	490898	72	0
121	497872	73	0
121	504741	74	0
121	511610	75	0
121	518479	76	0
121	526268	77	0
121	533127	78	0
121	539986	79	0
121	546845	80	0
121	553704	81	0
121	560563	82	0
121	567422	83	0
121	574281	84	0
121	581140	85	0
121	587999	86	0
121	594858	87	0
121	601717	88	0
121	608576	89	0
121	615435	90	0
121	622294	91	0
121	629153	92	0
121	636012	93	0
121	642871	94	0
121	649730	95	0
121	656589	96	0
121	663448	97	0
121	670307	98	0
121	677166	99	0
121	684025	100	0
122	6083	2	6
122	12942	3	6
122	19801	4	6
122	26660	5	6
122	33519	6	6
122	40378	7	6
122	47237	8	6
122	54096	9	6
122	60956	10	6
122	67969	11	6
122	74908	12	6
122	81847	13	6
122	88786	14	6
122	95725	15	6
122	102664	16	6
122	109603	17	6
122	116542	18	6
122	123481	19	6
122	130420	20	6
122	137359	21	6
122	144298	22	6
122	151237	23	6
122	158176	24	6
122	165115	25	6
122	172054	26	6
122	178993	27	6
122	185932	28	6
122	192871	29	6
122	199810	30	6
122	206749	31	6
122	213688	32	6
122	220627	33	6
122	227566	34	6
122	234505	35	6
122	241444	36	6
122	248383	37	6
122	255322	38	6
122	262261	39	6
122	269200	40	6
122	276139	41	6
122	283078	42	6
122	290118	43	6
122	297047	44	6
122	303976	45	6
122	310905	46	6
122	317834	47	6
122	324763	48	6
122	331791	49	6
122	338710	50	6
122	345629	51	6
122	352548	52	6
122	359467	53	6
122	366488	54	6
122	373397	55	6
122	380306	56	6
122	387215	57	6
122	394124	58	6
122	401134	59	6
122	408033	60	6
122	414932	61	6
122	421831	62	6
122	428730	63	6
122	435726	64	6
122	442615	65	6
122	449504	66	6
122	456393	67	6
122	463383	68	6
122	470262	69	6
122	477141	70	6
122	484020	71	6
122	490899	72	6
122	497873	73	6
122	504742	74	6
122	511611	75	6
122	518480	76	6
122	526269	77	6
122	533128	78	6
122	539987	79	6
122	546846	80	6
122	553705	81	6
122	560564	82	6
122	567423	83	6
122	574282	84	6
122	581141	85	6
122	588000	86	6
122	594859	87	6
122	601718	88	6
122	608577	89	6
122	615436	90	6
122	622295	91	6
122	629154	92	6
122	636013	93	6
122	642872	94	6
122	649731	95	6
122	656590	96	6
122	663449	97	6
122	670308	98	6
122	677167	99	6
122	684026	100	6
123	6083	2	0.024459635584
123	12942	3	0.028090794984
123	19801	4	0.02809079497
123	26660	5	0.028090794969
123	33519	6	0.02809079495
123	40378	7	0.02809079494
123	47237	8	0.02809079494
123	54096	9	0.02809079494
123	60956	10	0.02809079494
123	67969	11	0.028135711908
123	74908	12	0.028090754089
123	81847	13	0.028090650775
123	88786	14	0.028090481303
123	95725	15	0.028090253268
123	102664	16	0.028089975818
123	109603	17	0.028089658236
123	116542	18	0.028089309394
123	123481	19	0.028088937534
123	130420	20	0.028088550123
123	137359	21	0.028088153761
123	144298	22	0.028087754185
123	151237	23	0.028100356292
123	158176	24	0.028086964139
123	165115	25	0.028086581071
123	172054	26	0.028086209735
123	178993	27	0.028098852194
123	185932	28	0.028085509957
123	192871	29	0.028085184091
123	199810	30	0.028097875265
123	206749	31	0.028084583835
123	213688	32	0.028097309843
123	220627	33	0.02808405317
123	227566	34	0.02809681344
123	234505	35	0.028083590207
123	241444	36	0.0280963829
123	248383	37	0.028083190805
123	255322	38	0.028096013245
123	262261	39	0.028082849452
123	269200	40	0.028095698653
123	276139	41	0.028082560077
123	283078	42	0.028095432934
123	290118	43	0.02819913184
123	297047	44	0.02809520997
123	303976	45	0.028082112691
123	310905	46	0.028095023958
123	317834	47	0.028094943134
123	324763	48	0.028081869584
123	331791	49	0.028211616867
123	338710	50	0.028081742052
123	345629	51	0.028094687009
123	352548	52	0.028081637136
123	359467	53	0.028094591989
123	366488	54	0.028198272046
123	373397	55	0.02809451425
123	380306	56	0.028094480925
123	387215	57	0.028081450864
123	394124	58	0.028094423766
123	401134	59	0.028198026966
123	408033	60	0.028094377361
123	414932	61	0.028094357583
123	421831	62	0.028081339802
123	428730	63	0.028094323824
123	435726	64	0.02819784381
123	442615	65	0.028094296595
123	449504	66	0.028094285043
123	456393	67	0.028081274692
123	463383	68	0.028244265414
123	470262	69	0.028081257104
123	477141	70	0.028094249668
123	484020	71	0.028094243015
123	490899	72	0.028081237065
123	497873	73	0.028210579456
123	504742	74	0.028081226994
123	511611	75	0.028094222745
123	518480	76	0.028094218964
123	526269	77	0.029123500005
123	533128	78	0.028094015388
123	539987	79	0.02809368822
123	546846	80	0.028080250449
123	553705	81	0.028092740363
123	560564	82	0.028092144567
123	567423	83	0.028091574471
123	574282	84	0.02809107968
123	581141	85	0.028090659074
123	588000	86	0.028090270285
123	594859	87	0.028089896088
123	601718	88	0.02808950708
123	608577	89	0.02808911807
123	615436	90	0.028088731496
123	622295	91	0.028088348221
123	629154	92	0.028087968301
123	636013	93	0.028087591585
123	642872	94	0.028100217878
123	649731	95	0.028086846982
123	656590	96	0.028086478211
123	663449	97	0.028086108824
123	670308	98	0.028098736356
123	677167	99	0.028085360307
123	684026	100	0.028084981054
124	6083	2	0
124	12942	3	0
124	19801	4	0
124	26660	5	0
124	33519	6	0
124	40378	7	0
124	47237	8	0
124	54096	9	0
124	60956	10	0
124	67969	11	0
124	74908	12	0
124	81847	13	0
124	88786	14	0
124	95725	15	0
124	102664	16	0
124	109603	17	0
124	116542	18	0
124	123481	19	0
124	130420	20	0
124	137359	21	0
124	144298	22	0
124	151237	23	0
124	158176	24	0
124	165115	25	0
124	172054	26	0
124	178993	27	0
124	185932	28	0
124	192871	29	0
124	199810	30	0
124	206749	31	0
124	213688	32	0
124	220627	33	0
124	227566	34	0
124	234505	35	0
124	241444	36	0
124	248383	37	0
124	255322	38	0
124	262261	39	0
124	269200	40	0
124	276139	41	0
124	283078	42	0
124	290118	43	0
124	297047	44	0
124	303976	45	0
124	310905	46	0
124	317834	47	0
124	324763	48	0
124	331791	49	0
124	338710	50	0
124	345629	51	0
124	352548	52	0
124	359467	53	0
124	366488	54	0
124	373397	55	0
124	380306	56	0
124	387215	57	0
124	394124	58	0
124	401134	59	0
124	408033	60	0
124	414932	61	0
124	421831	62	0
124	428730	63	0
124	435726	64	0
124	442615	65	0
124	449504	66	0
124	456393	67	0
124	463383	68	0
124	470262	69	0
124	477141	70	0
124	484020	71	0
124	490899	72	0
124	497873	73	0
124	504742	74	0
124	511611	75	0
124	518480	76	0
124	526269	77	0
124	533128	78	0
124	539987	79	0
124	546846	80	0
124	553705	81	0
124	560564	82	0
124	567423	83	0
124	574282	84	0
124	581141	85	0
124	588000	86	0
124	594859	87	0
124	601718	88	0
124	608577	89	0
124	615436	90	0
124	622295	91	0
124	629154	92	0
124	636013	93	0
124	642872	94	0
124	649731	95	0
124	656590	96	0
124	663449	97	0
124	670308	98	0
124	677167	99	0
124	684026	100	0
125	6084	2	7
125	12943	3	7
125	19802	4	7
125	26661	5	7
125	33520	6	7
125	40379	7	7
125	47238	8	7
125	54097	9	7
125	60957	10	7
125	67970	11	7
125	74909	12	7
125	81848	13	7
125	88787	14	7
125	95726	15	7
125	102665	16	7
125	109604	17	7
125	116543	18	7
125	123482	19	7
125	130421	20	7
125	137360	21	7
125	144299	22	7
125	151238	23	7
125	158177	24	7
125	165116	25	7
125	172055	26	7
125	178994	27	7
125	185933	28	7
125	192872	29	7
125	199811	30	7
125	206750	31	7
125	213689	32	7
125	220628	33	7
125	227567	34	7
125	234506	35	7
125	241445	36	7
125	248384	37	7
125	255323	38	7
125	262262	39	7
125	269201	40	7
125	276140	41	7
125	283079	42	7
125	290119	43	7
125	297048	44	7
125	303977	45	7
125	310906	46	7
125	317835	47	7
125	324764	48	7
125	331792	49	7
125	338711	50	7
125	345630	51	7
125	352549	52	7
125	359468	53	7
125	366489	54	7
125	373398	55	7
125	380307	56	7
125	387216	57	7
125	394125	58	7
125	401135	59	7
125	408034	60	7
125	414933	61	7
125	421832	62	7
125	428731	63	7
125	435727	64	7
125	442616	65	7
125	449505	66	7
125	456394	67	7
125	463384	68	7
125	470263	69	7
125	477142	70	7
125	484021	71	7
125	490900	72	7
125	497874	73	7
125	504743	74	7
125	511612	75	7
125	518481	76	7
125	526270	77	7
125	533129	78	7
125	539988	79	7
125	546847	80	7
125	553706	81	7
125	560565	82	7
125	567424	83	7
125	574283	84	7
125	581142	85	7
125	588001	86	7
125	594860	87	7
125	601719	88	7
125	608578	89	7
125	615437	90	7
125	622296	91	7
125	629155	92	7
125	636014	93	7
125	642873	94	7
125	649732	95	7
125	656591	96	7
125	663450	97	7
125	670309	98	7
125	677168	99	7
125	684027	100	7
126	6084	2	0.02445961557
126	12943	3	0.028090794984
126	19802	4	0.02809079497
126	26661	5	0.028090794969
126	33520	6	0.02809079495
126	40379	7	0.02809079494
126	47238	8	0.02809079494
126	54097	9	0.02809079494
126	60957	10	0.02809079494
126	67970	11	0.028135711914
126	74909	12	0.028090754084
126	81848	13	0.028090650732
126	88787	14	0.028090481208
126	95726	15	0.028090253111
126	102665	16	0.02808997559
126	109604	17	0.028089657929
126	116543	18	0.028089309005
126	123482	19	0.028088937061
126	130421	20	0.028088549568
126	137360	21	0.028088153128
126	144299	22	0.028087753481
126	151238	23	0.028100355524
126	158177	24	0.028086963316
126	165116	25	0.028086580204
126	172055	26	0.028086208834
126	178994	27	0.028098851269
126	185933	28	0.028085509017
126	192872	29	0.028085183145
126	199811	30	0.028097874321
126	206750	31	0.028084582902
126	213689	32	0.028097308927
126	220628	33	0.028084052275
126	227567	34	0.028096812572
126	234506	35	0.028083589369
126	241445	36	0.028096382095
126	248384	37	0.028083190036
126	255323	38	0.028096012512
126	262262	39	0.028082848757
126	269201	40	0.028095697997
126	276140	41	0.028082559458
126	283079	42	0.028095432353
126	290119	43	0.028199131297
126	297048	44	0.028095209462
126	303977	45	0.028082112218
126	310906	46	0.028095023518
126	317835	47	0.028094942727
126	324764	48	0.028081869206
126	331792	49	0.028211616519
126	338711	50	0.028081741731
126	345630	51	0.028094686714
126	352549	52	0.028081636864
126	359468	53	0.02809459174
126	366489	54	0.028198271818
126	373398	55	0.028094514041
126	380307	56	0.028094480734
126	387216	57	0.02808145069
126	394125	58	0.028094423607
126	401135	59	0.028198026822
126	408034	60	0.02809437723
126	414933	61	0.028094357464
126	421832	62	0.028081339694
126	428731	63	0.028094323726
126	435727	64	0.028197843721
126	442616	65	0.028094296515
126	449505	66	0.02809428497
126	456394	67	0.028081274626
126	463384	68	0.028210706393
126	470263	69	0.028081257051
126	477142	70	0.028094249619
126	484021	71	0.028094242972
126	490900	72	0.028081237026
126	497874	73	0.028244231713
126	504743	74	0.028081226963
126	511612	75	0.028094222717
126	518481	76	0.028094218938
126	526270	77	0.029123499783
126	533129	78	0.028094019294
126	539988	79	0.028093697649
126	546847	80	0.028080260605
126	553706	81	0.028092749002
126	560565	82	0.028092151508
126	567424	83	0.028091580878
126	574283	84	0.028091086096
126	581142	85	0.028090665553
126	588001	86	0.028090276774
126	594860	87	0.028089902551
126	601719	88	0.028089513511
126	608578	89	0.028089124463
126	615437	90	0.028088737844
126	622296	91	0.028088354512
126	629155	92	0.028087974521
126	636014	93	0.028087597712
126	642873	94	0.028100223882
126	649732	95	0.028086852818
126	656591	96	0.028086483812
126	663450	97	0.028086114085
126	670309	98	0.028098741108
126	677168	99	0.028085364276
126	684027	100	0.028084983792
127	6084	2	0
127	12943	3	0
127	19802	4	0
127	26661	5	0
127	33520	6	0
127	40379	7	0
127	47238	8	0
127	54097	9	0
127	60957	10	0
127	67970	11	0
127	74909	12	0
127	81848	13	0
127	88787	14	0
127	95726	15	0
127	102665	16	0
127	109604	17	0
127	116543	18	0
127	123482	19	0
127	130421	20	0
127	137360	21	0
127	144299	22	0
127	151238	23	0
127	158177	24	0
127	165116	25	0
127	172055	26	0
127	178994	27	0
127	185933	28	0
127	192872	29	0
127	199811	30	0
127	206750	31	0
127	213689	32	0
127	220628	33	0
127	227567	34	0
127	234506	35	0
127	241445	36	0
127	248384	37	0
127	255323	38	0
127	262262	39	0
127	269201	40	0
127	276140	41	0
127	283079	42	0
127	290119	43	0
127	297048	44	0
127	303977	45	0
127	310906	46	0
127	317835	47	0
127	324764	48	0
127	331792	49	0
127	338711	50	0
127	345630	51	0
127	352549	52	0
127	359468	53	0
127	366489	54	0
127	373398	55	0
127	380307	56	0
127	387216	57	0
127	394125	58	0
127	401135	59	0
127	408034	60	0
127	414933	61	0
127	421832	62	0
127	428731	63	0
127	435727	64	0
127	442616	65	0
127	449505	66	0
127	456394	67	0
127	463384	68	0
127	470263	69	0
127	477142	70	0
127	484021	71	0
127	490900	72	0
127	497874	73	0
127	504743	74	0
127	511612	75	0
127	518481	76	0
127	526270	77	0
127	533129	78	0
127	539988	79	0
127	546847	80	0
127	553706	81	0
127	560565	82	0
127	567424	83	0
127	574283	84	0
127	581142	85	0
127	588001	86	0
127	594860	87	0
127	601719	88	0
127	608578	89	0
127	615437	90	0
127	622296	91	0
127	629155	92	0
127	636014	93	0
127	642873	94	0
127	649732	95	0
127	656591	96	0
127	663450	97	0
127	670309	98	0
127	677168	99	0
127	684027	100	0
128	6085	2	8
128	12944	3	8
128	19803	4	8
128	26662	5	8
128	33521	6	8
128	40380	7	8
128	47239	8	8
128	54098	9	8
128	60958	10	8
128	67971	11	8
128	74910	12	8
128	81849	13	8
128	88788	14	8
128	95727	15	8
128	102666	16	8
128	109605	17	8
128	116544	18	8
128	123483	19	8
128	130422	20	8
128	137361	21	8
128	144300	22	8
128	151239	23	8
128	158178	24	8
128	165117	25	8
128	172056	26	8
128	178995	27	8
128	185934	28	8
128	192873	29	8
128	199812	30	8
128	206751	31	8
128	213690	32	8
128	220629	33	8
128	227568	34	8
128	234507	35	8
128	241446	36	8
128	248385	37	8
128	255324	38	8
128	262263	39	8
128	269202	40	8
128	276141	41	8
128	283080	42	8
128	290120	43	8
128	297049	44	8
128	303978	45	8
128	310907	46	8
128	317836	47	8
128	324765	48	8
128	331793	49	8
128	338712	50	8
128	345631	51	8
128	352550	52	8
128	359469	53	8
128	366490	54	8
128	373399	55	8
128	380308	56	8
128	387217	57	8
128	394126	58	8
128	401136	59	8
128	408035	60	8
128	414934	61	8
128	421833	62	8
128	428732	63	8
128	435728	64	8
128	442617	65	8
128	449506	66	8
128	456395	67	8
128	463385	68	8
128	470264	69	8
128	477143	70	8
128	484022	71	8
128	490901	72	8
128	497875	73	8
128	504744	74	8
128	511613	75	8
128	518482	76	8
128	526271	77	8
128	533130	78	8
128	539989	79	8
128	546848	80	8
128	553707	81	8
128	560566	82	8
128	567425	83	8
128	574284	84	8
128	581143	85	8
128	588002	86	8
128	594861	87	8
128	601720	88	8
128	608579	89	8
128	615438	90	8
128	622297	91	8
128	629156	92	8
128	636015	93	8
128	642874	94	8
128	649733	95	8
128	656592	96	8
128	663451	97	8
128	670310	98	8
128	677169	99	8
128	684028	100	8
129	6085	2	0.024459595556
129	12944	3	0.028090794985
129	19803	4	0.028090794969
129	26662	5	0.028090794969
129	33521	6	0.02809079495
129	40380	7	0.02809079494
129	47239	8	0.02809079494
129	54098	9	0.02809079494
129	60958	10	0.02809079494
129	67971	11	0.02813571191
129	74910	12	0.028090754072
129	81849	13	0.028090650704
129	88788	14	0.028090481154
129	95727	15	0.028090253019
129	102666	16	0.028089975451
129	109605	17	0.028089657732
129	116544	18	0.028089308745
129	123483	19	0.028088936731
129	130422	20	0.028088549168
129	137361	21	0.028088152656
129	144300	22	0.028087752939
129	151239	23	0.028100354917
129	158178	24	0.028086962649
129	165117	25	0.028086579482
129	172056	26	0.028086208066
129	178995	27	0.028098850461
129	185934	28	0.02808550818
129	192873	29	0.028085182284
129	199812	30	0.028097873446
129	206751	31	0.028084582018
129	213690	32	0.028097308043
129	220629	33	0.028084051397
129	227568	34	0.028096811706
129	234507	35	0.028083588518
129	241446	36	0.028096381266
129	248385	37	0.02808318923
129	255324	38	0.028096011733
129	262263	39	0.028082848008
129	269202	40	0.028095697279
129	276141	41	0.028082558774
129	283080	42	0.0280954317
129	290120	43	0.028199130679
129	297049	44	0.028095208878
129	303978	45	0.028082111667
129	310907	46	0.028095023
129	317836	47	0.028094942241
129	324765	48	0.028081868752
129	331793	49	0.028211616094
129	338712	50	0.028081741336
129	345631	51	0.028094686346
129	352550	52	0.028081636523
129	359469	53	0.028094591424
129	366490	54	0.028198271526
129	373399	55	0.028094513771
129	380308	56	0.028094480486
129	387217	57	0.028081450461
129	394126	58	0.028094423397
129	401136	59	0.028198026629
129	408035	60	0.028094377052
129	414934	61	0.028094357302
129	421833	62	0.028081339546
129	428732	63	0.02809432359
129	435728	64	0.028197843597
129	442617	65	0.028094296403
129	449506	66	0.028094284867
129	456395	67	0.028081274533
129	463385	68	0.028210706308
129	470264	69	0.028081256974
129	477143	70	0.028094249549
129	484022	71	0.028094242909
129	490901	72	0.028081236967
129	497875	73	0.028210579369
129	504744	74	0.028081226916
129	511613	75	0.028094222674
129	518482	76	0.0280942189
129	526271	77	0.029157245942
129	533130	78	0.028094017355
129	539989	79	0.028093689894
129	546848	80	0.028080246457
129	553707	81	0.028092728068
129	560566	82	0.028092129759
129	567425	83	0.028091562966
129	574284	84	0.028091072976
129	581143	85	0.028090655392
129	588002	86	0.028090267836
129	594861	87	0.028089892938
129	601720	88	0.028089503778
129	608579	89	0.028089114727
129	615438	90	0.028088728158
129	622297	91	0.028088344891
129	629156	92	0.028087964973
129	636015	93	0.028087588258
129	642874	94	0.028100214551
129	649733	95	0.028086843655
129	656592	96	0.028086474884
129	663451	97	0.028086105498
129	670310	98	0.02809873303
129	677169	99	0.028085356982
129	684028	100	0.028084977729
130	6085	2	0
130	12944	3	0
130	19803	4	0
130	26662	5	0
130	33521	6	0
130	40380	7	0
130	47239	8	0
130	54098	9	0
130	60958	10	0
130	67971	11	0
130	74910	12	0
130	81849	13	0
130	88788	14	0
130	95727	15	0
130	102666	16	0
130	109605	17	0
130	116544	18	0
130	123483	19	0
130	130422	20	0
130	137361	21	0
130	144300	22	0
130	151239	23	0
130	158178	24	0
130	165117	25	0
130	172056	26	0
130	178995	27	0
130	185934	28	0
130	192873	29	0
130	199812	30	0
130	206751	31	0
130	213690	32	0
130	220629	33	0
130	227568	34	0
130	234507	35	0
130	241446	36	0
130	248385	37	0
130	255324	38	0
130	262263	39	0
130	269202	40	0
130	276141	41	0
130	283080	42	0
130	290120	43	0
130	297049	44	0
130	303978	45	0
130	310907	46	0
130	317836	47	0
130	324765	48	0
130	331793	49	0
130	338712	50	0
130	345631	51	0
130	352550	52	0
130	359469	53	0
130	366490	54	0
130	373399	55	0
130	380308	56	0
130	387217	57	0
130	394126	58	0
130	401136	59	0
130	408035	60	0
130	414934	61	0
130	421833	62	0
130	428732	63	0
130	435728	64	0
130	442617	65	0
130	449506	66	0
130	456395	67	0
130	463385	68	0
130	470264	69	0
130	477143	70	0
130	484022	71	0
130	490901	72	0
130	497875	73	0
130	504744	74	0
130	511613	75	0
130	518482	76	0
130	526271	77	0
130	533130	78	0
130	539989	79	0
130	546848	80	0
130	553707	81	0
130	560566	82	0
130	567425	83	0
130	574284	84	0
130	581143	85	0
130	588002	86	0
130	594861	87	0
130	601720	88	0
130	608579	89	0
130	615438	90	0
130	622297	91	0
130	629156	92	0
130	636015	93	0
130	642874	94	0
130	649733	95	0
130	656592	96	0
130	663451	97	0
130	670310	98	0
130	677169	99	0
130	684028	100	0

