version 3
run BreakRanksNoGui-591-20240711-12:42:15-287147
attr configname BreakRanksNoGui
attr datetime 20240711-12:42:15
attr datetimef 20240711-124215
attr experiment BreakRanksNoGui
attr inifile omnetpp.ini
attr iterationvars "$nCars=9, $platoonSize=8, $nLanes=1, $ploegH=0.5, $controller=1, $headway=0.1, $leaderHeadway=1.2, $leaderSpeed=110, $breakRanksSafetyDistance=10, $minSpeed=100, $maxSpeed=120, $beaconInterval=0.1, $priority=4, $packetSize=200, $sController=\"CACC\", $0=2, $1=0"
attr iterationvarsd nCars=9/platoonSize=8/nLanes=1/ploegH=0.5/controller=1/headway=0.1/leaderHeadway=1.2/leaderSpeed=110/breakRanksSafetyDistance=10/minSpeed=100/maxSpeed=120/beaconInterval=0.1/priority=4/packetSize=200/sController=CACC/2/0
attr iterationvarsf nCars=9,platoonSize=8,nLanes=1,ploegH=0.5,controller=1,headway=0.1,leaderHeadway=1.2,leaderSpeed=110,breakRanksSafetyDistance=10,minSpeed=100,maxSpeed=120,beaconInterval=0.1,priority=4,packetSize=200,sController=CACC,2,0-
attr measurement "$nCars=9, $platoonSize=8, $nLanes=1, $ploegH=0.5, $controller=1, $headway=0.1, $leaderHeadway=1.2, $leaderSpeed=110, $breakRanksSafetyDistance=10, $minSpeed=100, $maxSpeed=120, $beaconInterval=0.1, $priority=4, $packetSize=200, $sController=\"CACC\", $0=2, $1=0"
attr network Highway
attr processid 287147
attr repetition 1
attr replication #1
attr resultdir results
attr runnumber 591
attr seedset 1
itervar beaconInterval 0.1
itervar breakRanksSafetyDistance 10
itervar controller 1
itervar headway 0.1
itervar leaderHeadway 1.2
itervar leaderSpeed 110
itervar maxSpeed 120
itervar minSpeed 100
itervar nCars 9
itervar nLanes 1
itervar packetSize 200
itervar platoonSize 8
itervar ploegH 0.5
itervar priority 4
itervar sController "\"CACC\""
config image-path ../../../veins/images
config repeat 10
config extends BreakRanks
config *.manager.command "\"sumo\""
config *.manager.ignoreGuiCommands true
config output-vector-file "results/BreakRanks_1_0.1_110_10_8 /result_1.vec"
config output-scalar-file "results/BreakRanks_1_0.1_110_10_8 /result_1.sca"
config extends Platooning
config *.node[*].scenario_type "\"BreakRanksScenario\""
config *.manager.command "\"sumo-gui\""
config *.node[*].scenario_type "\"SimpleScenario\""
config cmdenv-express-mode true
config cmdenv-autoflush true
config cmdenv-status-frequency 15s
config num-rngs 6
config network Highway
config debug-on-errors true
config print-undisposed true
config *.playgroundSizeX 65000m
config *.playgroundSizeY 25000m
config *.playgroundSizeZ 50m
config sim-time-limit "100 s"
config *.annotations.draw false
config *.obstacles.debug false
config *.world.useTorus false
config *.world.use2D false
config *.manager.updateInterval 0.01s
config *.manager.host "\"localhost\""
config *.manager.moduleType "\"org.car2x.plexe.PlatoonCar\""
config *.manager.moduleName "\"node\""
config *.manager.moduleDisplayString "\"\""
config *.manager.autoShutdown true
config *.manager.margin 25
config *.connectionManager.sendDirect true
config *.connectionManager.maxInterfDist 2600m
config *.connectionManager.drawMaxIntfDist false
config *.**.nic.mac1609_4.useServiceChannel false
config *.**.nic.mac1609_4.txPower 100mW
config *.**.nic.mac1609_4.bitrate 6Mbps
config *.**.nic.mac1609_4.useAcks true
config *.**.nic.mac1609_4.ackErrorRate 0.0
config *.**.nic.mac1609_4.frameErrorRate 0.0
config *.**.nic.phy80211p.minPowerLevel -94dBm
config *.**.nic.phy80211p.maxTXPower 100mW
config *.**.nic.phy80211p.useNoiseFloor true
config *.**.nic.phy80211p.noiseFloor -95dBm
config *.**.nic.phy80211p.decider "xmldoc(\"config.xml\")"
config *.**.nic.phy80211p.analogueModels "xmldoc(\"config.xml\")"
config *.**.nic.phy80211p.usePropagationDelay true
config *.node[*].mobility.x 0
config *.node[*].mobility.y 0
config *.node[*].mobility.z 1.895
config seed-set 1
config **.seed 1
config *.node[*].prot.rng-0 2
config *.node[*].appl.rng-0 3
config *.node[*].scenario.rng-0 4
config **.traffic.rng-0 5
config *.manager.configFile "\"./sumocfg/freeway.sumo.cfg\""
config *.manager.launchConfig "xmldoc(\"./sumocfg/freeway.launchd.xml\")"
config **.numberOfCars 9
config **.numberOfCarsPerPlatoon 8
config **.numberOfLanes 1
config *.node[*].helper_type "\"PositionHelper\""
config *.node[*].scenario.caccC1 0.5
config *.node[*].scenario.caccXi 1
config *.node[*].scenario.caccOmegaN "0.2 Hz"
config *.node[*].scenario.caccSpacing "2 m"
config *.node[*].scenario.engineTau "0.5 s"
config *.node[*].scenario.ploegH 0.5s
config *.node[*].scenario.ploegKp 0.2
config *.node[*].scenario.ploegKd 0.7
config *.node[*].scenario.useRealisticEngine false
config *.node[*].scenario.useControllerAcceleration true
config *.node[*].scenario.nLanes 1
config **.numericController 1
config **.headway 0.1s
config *.node[*].scenario.accHeadway 0.1s
config *.node[*].scenario.leaderHeadway 1.2s
config *.node[*].scenario.leaderSpeed 110kmph
config *.node[*].appl_type "\"SimplePlatooningApp\""
config *.node[*].appl.*.scalar-recording true
config *.node[*].appl.*.vector-recording true
config *.node[0].appl.breakRanksSafetyDistance 10m
config *.node[*].appl.minSpeed 100kmph
config *.node[*].appl.maxSpeed 120kmph
config *.node[*].protocol_type "\"SimplePlatooningBeaconing\""
config *.node[*].prot.*.scalar-recording true
config *.node[*].prot.*.vector-recording true
config *.node[*].prot.beaconingInterval 0.1s
config *.node[*].prot.priority 4
config *.node[*].prot.packetSize 200
config **.traffic_type "\"PlatoonsTrafficManager\""
config **.traffic.platoonInsertTime "1 s"
config **.traffic.platoonInsertSpeed 110kmph
config **.traffic.nCars 9
config **.traffic.platoonSize 8
config **.traffic.nLanes 1
config **.traffic.platooningVType "\"vtypeauto\""
config **.traffic.controller "\"CACC\""
config **.traffic.platoonInsertDistance 2m
config **.traffic.platoonInsertHeadway 0s
config **.traffic.platoonLeaderHeadway 1.2s
config **.scalar-recording false
config **.vector-recording false

vector 0 Highway.node[0].appl distance ETV
vector 1 Highway.node[0].appl relativeSpeed ETV
vector 2 Highway.node[0].appl nodeId ETV
vector 3 Highway.node[0].appl acceleration ETV
vector 4 Highway.node[0].appl controllerAcceleration ETV
vector 5 Highway.node[0].appl speed ETV
vector 6 Highway.node[0].appl posx ETV
vector 7 Highway.node[0].appl posy ETV
vector 8 Highway.node[1].appl distance ETV
vector 9 Highway.node[1].appl relativeSpeed ETV
vector 10 Highway.node[1].appl nodeId ETV
vector 11 Highway.node[1].appl acceleration ETV
vector 12 Highway.node[1].appl controllerAcceleration ETV
vector 13 Highway.node[1].appl speed ETV
vector 14 Highway.node[1].appl posx ETV
vector 15 Highway.node[1].appl posy ETV
vector 16 Highway.node[2].appl distance ETV
vector 17 Highway.node[2].appl relativeSpeed ETV
vector 18 Highway.node[2].appl nodeId ETV
vector 19 Highway.node[2].appl acceleration ETV
vector 20 Highway.node[2].appl controllerAcceleration ETV
vector 21 Highway.node[2].appl speed ETV
vector 22 Highway.node[2].appl posx ETV
vector 23 Highway.node[2].appl posy ETV
vector 24 Highway.node[3].appl distance ETV
vector 25 Highway.node[3].appl relativeSpeed ETV
vector 26 Highway.node[3].appl nodeId ETV
vector 27 Highway.node[3].appl acceleration ETV
vector 28 Highway.node[3].appl controllerAcceleration ETV
vector 29 Highway.node[3].appl speed ETV
vector 30 Highway.node[3].appl posx ETV
vector 31 Highway.node[3].appl posy ETV
vector 32 Highway.node[4].appl distance ETV
vector 33 Highway.node[4].appl relativeSpeed ETV
vector 34 Highway.node[4].appl nodeId ETV
vector 35 Highway.node[4].appl acceleration ETV
vector 36 Highway.node[4].appl controllerAcceleration ETV
vector 37 Highway.node[4].appl speed ETV
vector 38 Highway.node[4].appl posx ETV
vector 39 Highway.node[4].appl posy ETV
vector 40 Highway.node[5].appl distance ETV
vector 41 Highway.node[5].appl relativeSpeed ETV
vector 42 Highway.node[5].appl nodeId ETV
vector 43 Highway.node[5].appl acceleration ETV
vector 44 Highway.node[5].appl controllerAcceleration ETV
vector 45 Highway.node[5].appl speed ETV
vector 46 Highway.node[5].appl posx ETV
vector 47 Highway.node[5].appl posy ETV
vector 48 Highway.node[6].appl distance ETV
vector 49 Highway.node[6].appl relativeSpeed ETV
vector 50 Highway.node[6].appl nodeId ETV
vector 51 Highway.node[6].appl acceleration ETV
vector 52 Highway.node[6].appl controllerAcceleration ETV
vector 53 Highway.node[6].appl speed ETV
vector 54 Highway.node[6].appl posx ETV
vector 55 Highway.node[6].appl posy ETV
vector 56 Highway.node[7].appl distance ETV
vector 57 Highway.node[7].appl relativeSpeed ETV
vector 58 Highway.node[7].appl nodeId ETV
vector 59 Highway.node[7].appl acceleration ETV
vector 60 Highway.node[7].appl controllerAcceleration ETV
vector 61 Highway.node[7].appl speed ETV
vector 62 Highway.node[7].appl posx ETV
vector 63 Highway.node[7].appl posy ETV
vector 64 Highway.node[8].appl distance ETV
vector 65 Highway.node[8].appl relativeSpeed ETV
vector 66 Highway.node[8].appl nodeId ETV
vector 67 Highway.node[8].appl acceleration ETV
vector 68 Highway.node[8].appl controllerAcceleration ETV
vector 69 Highway.node[8].appl speed ETV
vector 70 Highway.node[8].appl posx ETV
vector 71 Highway.node[8].appl posy ETV
vector 72 Highway.node[2].prot frontDelay ETV
vector 73 Highway.node[2].prot frontDelayId ETV
vector 74 Highway.node[4].prot frontDelay ETV
vector 75 Highway.node[4].prot frontDelayId ETV
vector 76 Highway.node[6].prot frontDelay ETV
vector 77 Highway.node[6].prot frontDelayId ETV
vector 78 Highway.node[7].prot frontDelay ETV
vector 79 Highway.node[7].prot frontDelayId ETV
vector 80 Highway.node[5].prot frontDelay ETV
vector 81 Highway.node[5].prot frontDelayId ETV
vector 82 Highway.node[1].prot leaderDelay ETV
vector 83 Highway.node[1].prot leaderDelayId ETV
vector 84 Highway.node[1].prot frontDelay ETV
vector 85 Highway.node[1].prot frontDelayId ETV
vector 86 Highway.node[2].prot leaderDelay ETV
vector 87 Highway.node[2].prot leaderDelayId ETV
vector 88 Highway.node[3].prot leaderDelay ETV
vector 89 Highway.node[3].prot leaderDelayId ETV
vector 90 Highway.node[4].prot leaderDelay ETV
vector 91 Highway.node[4].prot leaderDelayId ETV
vector 92 Highway.node[5].prot leaderDelay ETV
vector 93 Highway.node[5].prot leaderDelayId ETV
vector 94 Highway.node[6].prot leaderDelay ETV
vector 95 Highway.node[6].prot leaderDelayId ETV
vector 96 Highway.node[7].prot leaderDelay ETV
vector 97 Highway.node[7].prot leaderDelayId ETV
vector 98 Highway.node[3].prot frontDelay ETV
vector 99 Highway.node[3].prot frontDelayId ETV
vector 100 Highway.node[0].prot nodeId ETV
vector 101 Highway.node[0].prot busyTime ETV
vector 102 Highway.node[0].prot collisions ETV
vector 103 Highway.node[1].prot nodeId ETV
vector 104 Highway.node[1].prot busyTime ETV
vector 105 Highway.node[1].prot collisions ETV
vector 106 Highway.node[2].prot nodeId ETV
vector 107 Highway.node[2].prot busyTime ETV
vector 108 Highway.node[2].prot collisions ETV
vector 109 Highway.node[3].prot nodeId ETV
vector 110 Highway.node[3].prot busyTime ETV
vector 111 Highway.node[3].prot collisions ETV
vector 112 Highway.node[4].prot nodeId ETV
vector 113 Highway.node[4].prot busyTime ETV
vector 114 Highway.node[4].prot collisions ETV
vector 115 Highway.node[5].prot nodeId ETV
vector 116 Highway.node[5].prot busyTime ETV
vector 117 Highway.node[5].prot collisions ETV
vector 118 Highway.node[6].prot nodeId ETV
vector 119 Highway.node[6].prot busyTime ETV
vector 120 Highway.node[6].prot collisions ETV
vector 121 Highway.node[7].prot nodeId ETV
vector 122 Highway.node[7].prot busyTime ETV
vector 123 Highway.node[7].prot collisions ETV
vector 124 Highway.node[8].prot nodeId ETV
vector 125 Highway.node[8].prot busyTime ETV
vector 126 Highway.node[8].prot collisions ETV
0	113	1.11	9311.83
0	670	1.21	9311.83
0	1227	1.31	9311.83
0	1784	1.41	9311.83
0	2341	1.51	9311.83
0	2898	1.61	9311.83
0	3455	1.71	9311.83
0	4012	1.81	9311.83
0	4569	1.91	9311.83
0	5135	2.01	9311.83
0	5692	2.11	-1
0	6249	2.21	-1
0	6806	2.31	-1
0	7363	2.41	-1
0	7920	2.51	-1
0	8477	2.61	-1
0	9034	2.71	-1
0	9591	2.81	-1
0	10148	2.91	-1
0	10714	3.01	-1
0	11271	3.11	-1
0	11828	3.21	-1
0	12385	3.31	-1
0	12942	3.41	-1
0	13499	3.51	-1
0	14056	3.61	-1
0	14613	3.71	-1
0	15170	3.81	-1
0	15727	3.91	-1
0	16293	4.01	-1
0	16850	4.11	-1
0	17407	4.21	-1
0	17964	4.31	-1
0	18521	4.41	-1
0	19078	4.51	-1
0	19635	4.61	-1
0	20192	4.71	-1
0	20749	4.81	-1
0	21306	4.91	-1
0	21872	5.01	-1
0	22429	5.11	-1
0	22986	5.21	-1
0	23543	5.31	-1
0	24100	5.41	-1
0	24657	5.51	-1
0	25214	5.61	-1
0	25771	5.71	-1
0	26328	5.81	-1
0	26885	5.91	-1
0	27451	6.01	-1
0	28008	6.11	-1
0	28565	6.21	-1
0	29122	6.31	-1
0	29679	6.41	-1
0	30236	6.51	-1
0	30793	6.61	-1
0	31350	6.71	-1
0	31907	6.81	-1
0	32464	6.91	-1
0	33030	7.01	-1
0	33587	7.11	-1
0	34144	7.21	-1
0	34701	7.31	-1
0	35258	7.41	-1
0	35815	7.51	-1
0	36372	7.61	-1
0	36929	7.71	-1
0	37486	7.81	-1
0	38043	7.91	-1
0	38609	8.01	-1
0	39166	8.11	-1
0	39723	8.21	-1
0	40280	8.31	-1
0	40837	8.41	-1
0	41394	8.51	-1
0	41951	8.61	-1
0	42508	8.71	-1
0	43065	8.81	-1
0	43622	8.91	-1
0	44188	9.01	-1
0	44745	9.11	-1
0	45302	9.21	-1
0	45859	9.31	-1
0	46416	9.41	-1
0	46973	9.51	-1
0	47530	9.61	-1
0	48087	9.71	-1
0	48644	9.81	-1
0	49201	9.91	-1
0	49852	10.01	-1
0	50416	10.11	-1
0	50980	10.21	-1
0	51544	10.31	-1
0	52108	10.41	-1
0	52672	10.51	-1
0	53236	10.61	-1
0	53800	10.71	-1
0	54364	10.81	-1
0	54928	10.91	-1
0	55501	11.01	-1
0	56065	11.11	-1
0	56629	11.21	-1
0	57193	11.31	-1
0	57757	11.41	-1
0	58321	11.51	-1
0	58885	11.61	-1
0	59449	11.71	-1
0	60013	11.81	-1
0	60577	11.91	-1
0	61150	12.01	-1
0	61714	12.11	-1
0	62278	12.21	-1
0	62842	12.31	-1
0	63406	12.41	-1
0	63970	12.51	-1
0	64534	12.61	-1
0	65098	12.71	-1
0	65662	12.81	-1
0	66226	12.91	-1
0	66799	13.01	-1
0	67363	13.11	-1
0	67927	13.21	-1
0	68491	13.31	-1
0	69055	13.41	-1
0	69619	13.51	-1
0	70183	13.61	-1
0	70747	13.71	-1
0	71311	13.81	-1
0	71875	13.91	-1
0	72448	14.01	-1
0	73012	14.11	-1
0	73576	14.21	-1
0	74140	14.31	-1
0	74704	14.41	-1
0	75268	14.51	-1
0	75832	14.61	-1
0	76396	14.71	-1
0	76960	14.81	-1
0	77524	14.91	-1
0	78097	15.01	-1
0	78661	15.11	-1
0	79225	15.21	-1
0	79789	15.31	-1
0	80353	15.41	-1
0	80917	15.51	-1
0	81481	15.61	-1
0	82045	15.71	-1
0	82609	15.81	-1
0	83173	15.91	-1
0	83746	16.01	-1
0	84310	16.11	-1
0	84874	16.21	-1
0	85438	16.31	-1
0	86002	16.41	-1
0	86566	16.51	-1
0	87130	16.61	-1
0	87694	16.71	-1
0	88258	16.81	-1
0	88822	16.91	-1
0	89395	17.01	-1
0	89959	17.11	-1
0	90523	17.21	-1
0	91087	17.31	-1
0	91651	17.41	-1
0	92215	17.51	-1
0	92779	17.61	-1
0	93343	17.71	-1
0	93907	17.81	-1
0	94471	17.91	-1
0	95044	18.01	-1
0	95608	18.11	-1
0	96172	18.21	-1
0	96736	18.31	-1
0	97300	18.41	-1
0	97864	18.51	-1
0	98428	18.61	-1
0	98992	18.71	-1
0	99556	18.81	-1
0	100120	18.91	-1
0	100693	19.01	-1
0	101257	19.11	-1
0	101821	19.21	-1
0	102385	19.31	-1
0	102949	19.41	-1
0	103513	19.51	-1
0	104077	19.61	-1
0	104641	19.71	-1
0	105205	19.81	-1
0	105769	19.91	-1
0	106342	20.01	-1
0	106906	20.11	-1
0	107470	20.21	-1
0	108034	20.31	-1
0	108598	20.41	-1
0	109162	20.51	-1
0	109726	20.61	-1
0	110290	20.71	-1
0	110854	20.81	-1
0	111418	20.91	-1
0	111991	21.01	-1
0	112555	21.11	-1
0	113119	21.21	-1
0	113683	21.31	-1
0	114247	21.41	-1
0	114811	21.51	-1
0	115375	21.61	-1
0	115939	21.71	-1
0	116503	21.81	-1
0	117067	21.91	-1
0	117640	22.01	-1
0	118204	22.11	-1
0	118768	22.21	-1
0	119332	22.31	-1
0	119896	22.41	-1
0	120460	22.51	-1
0	121024	22.61	-1
0	121588	22.71	-1
0	122152	22.81	-1
0	122716	22.91	-1
0	123289	23.01	-1
0	123853	23.11	-1
0	124417	23.21	-1
0	124981	23.31	-1
0	125545	23.41	-1
0	126109	23.51	-1
0	126673	23.61	-1
0	127237	23.71	-1
0	127801	23.81	-1
0	128365	23.91	-1
0	128938	24.01	-1
0	129502	24.11	-1
0	130066	24.21	-1
0	130630	24.31	-1
0	131194	24.41	-1
0	131758	24.51	-1
0	132322	24.61	-1
0	132886	24.71	-1
0	133450	24.81	-1
0	134014	24.91	-1
0	134587	25.01	-1
0	135151	25.11	-1
0	135715	25.21	-1
0	136279	25.31	-1
0	136843	25.41	-1
0	137407	25.51	-1
0	137971	25.61	-1
0	138535	25.71	-1
0	139099	25.81	-1
0	139663	25.91	-1
0	140236	26.01	-1
0	140800	26.11	-1
0	141364	26.21	-1
0	141928	26.31	-1
0	142492	26.41	-1
0	143056	26.51	-1
0	143620	26.61	-1
0	144184	26.71	-1
0	144748	26.81	-1
0	145312	26.91	-1
0	145885	27.01	-1
0	146449	27.11	-1
0	147013	27.21	-1
0	147577	27.31	-1
0	148141	27.41	-1
0	148705	27.51	-1
0	149269	27.61	-1
0	149833	27.71	-1
0	150397	27.81	-1
0	150961	27.91	-1
0	151534	28.01	-1
0	152098	28.11	-1
0	152662	28.21	-1
0	153226	28.31	-1
0	153790	28.41	-1
0	154354	28.51	-1
0	154918	28.61	-1
0	155482	28.71	-1
0	156046	28.81	-1
0	156610	28.91	-1
0	157183	29.01	-1
0	157747	29.11	-1
0	158311	29.21	-1
0	158875	29.31	-1
0	159439	29.41	-1
0	160003	29.51	-1
0	160567	29.61	-1
0	161131	29.71	-1
0	161695	29.81	-1
0	162259	29.91	-1
0	162832	30.01	-1
0	163396	30.11	-1
0	163960	30.21	-1
0	164524	30.31	-1
0	165088	30.41	-1
0	165652	30.51	-1
0	166216	30.61	-1
0	166780	30.71	-1
0	167344	30.81	-1
0	167908	30.91	-1
0	168481	31.01	-1
0	169045	31.11	-1
0	169609	31.21	-1
0	170173	31.31	-1
0	170737	31.41	-1
0	171301	31.51	-1
0	171865	31.61	-1
0	172429	31.71	-1
0	172993	31.81	-1
0	173557	31.91	-1
0	174130	32.01	-1
0	174694	32.11	-1
0	175258	32.21	-1
0	175822	32.31	-1
0	176386	32.41	-1
0	176950	32.51	-1
0	177514	32.61	-1
0	178078	32.71	-1
0	178642	32.81	-1
0	179206	32.91	-1
0	179779	33.01	-1
0	180343	33.11	-1
0	180907	33.21	-1
0	181471	33.31	-1
0	182035	33.41	-1
0	182599	33.51	-1
0	183163	33.61	-1
0	183727	33.71	-1
0	184291	33.81	-1
0	184855	33.91	-1
0	185428	34.01	-1
0	185992	34.11	-1
0	186556	34.21	-1
0	187120	34.31	-1
0	187684	34.41	-1
0	188248	34.51	-1
0	188812	34.61	-1
0	189376	34.71	-1
0	189940	34.81	-1
0	190504	34.91	-1
0	191077	35.01	-1
0	191641	35.11	-1
0	192205	35.21	-1
0	192769	35.31	-1
0	193333	35.41	-1
0	193897	35.51	-1
0	194461	35.61	-1
0	195025	35.71	-1
0	195589	35.81	-1
0	196153	35.91	-1
0	196726	36.01	-1
0	197290	36.11	-1
0	197854	36.21	-1
0	198418	36.31	-1
0	198982	36.41	-1
0	199546	36.51	-1
0	200110	36.61	-1
0	200674	36.71	-1
0	201238	36.81	-1
0	201802	36.91	-1
0	202375	37.01	-1
0	202939	37.11	-1
0	203503	37.21	-1
0	204067	37.31	-1
0	204631	37.41	-1
0	205195	37.51	-1
0	205759	37.61	-1
0	206323	37.71	-1
0	206887	37.81	-1
0	207451	37.91	-1
0	208024	38.01	-1
0	208588	38.11	-1
0	209152	38.21	-1
0	209716	38.31	-1
0	210280	38.41	-1
0	210844	38.51	-1
0	211408	38.61	-1
0	211972	38.71	-1
0	212536	38.81	-1
0	213100	38.91	-1
0	213673	39.01	-1
0	214237	39.11	-1
0	214801	39.21	-1
0	215365	39.31	-1
0	215929	39.41	-1
0	216493	39.51	-1
0	217057	39.61	-1
0	217621	39.71	-1
0	218185	39.81	-1
0	218749	39.91	-1
0	219322	40.01	-1
0	219886	40.11	-1
0	220450	40.21	-1
0	221014	40.31	-1
0	221578	40.41	-1
0	222142	40.51	-1
0	222706	40.61	-1
0	223270	40.71	-1
0	223834	40.81	-1
0	224398	40.91	-1
0	224971	41.01	-1
0	225535	41.11	-1
0	226099	41.21	-1
0	226663	41.31	-1
0	227227	41.41	-1
0	227791	41.51	-1
0	228355	41.61	-1
0	228919	41.71	-1
0	229483	41.81	-1
0	230047	41.91	-1
0	230620	42.01	-1
0	231184	42.11	-1
0	231748	42.21	-1
0	232312	42.31	-1
0	232876	42.41	-1
0	233440	42.51	-1
0	234004	42.61	-1
0	234661	42.71	-1
0	235224	42.81	-1
0	235787	42.91	-1
0	236359	43.01	-1
0	236922	43.11	-1
0	237485	43.21	-1
0	238048	43.31	-1
0	238611	43.41	-1
0	239174	43.51	-1
0	239737	43.61	-1
0	240300	43.71	-1
0	240863	43.81	-1
0	241426	43.91	-1
0	241998	44.01	-1
0	242561	44.11	-1
0	243124	44.21	-1
0	243687	44.31	-1
0	244250	44.41	-1
0	244813	44.51	-1
0	245376	44.61	-1
0	245939	44.71	-1
0	246502	44.81	-1
0	247065	44.91	-1
0	247637	45.01	-1
0	248200	45.11	-1
0	248763	45.21	-1
0	249326	45.31	-1
0	249889	45.41	-1
0	250452	45.51	-1
0	251015	45.61	-1
0	251578	45.71	-1
0	252141	45.81	-1
0	252704	45.91	-1
0	253276	46.01	-1
0	253839	46.11	-1
0	254402	46.21	-1
0	254965	46.31	-1
0	255528	46.41	-1
0	256091	46.51	-1
0	256654	46.61	-1
0	257217	46.71	-1
0	257780	46.81	-1
0	258343	46.91	-1
0	258915	47.01	-1
0	259478	47.11	-1
0	260041	47.21	-1
0	260604	47.31	-1
0	261167	47.41	-1
0	261730	47.51	-1
0	262293	47.61	-1
0	262856	47.71	-1
0	263419	47.81	-1
0	263982	47.91	-1
0	264554	48.01	-1
0	265117	48.11	-1
0	265680	48.21	-1
0	266243	48.31	-1
0	266806	48.41	-1
0	267462	48.51	-1
0	268024	48.61	-1
0	268586	48.71	-1
0	269148	48.81	-1
0	269710	48.91	-1
0	270281	49.01	-1
0	270843	49.11	-1
0	271405	49.21	-1
0	271967	49.31	-1
0	272529	49.41	-1
0	273091	49.51	-1
0	273653	49.61	-1
0	274215	49.71	-1
0	274777	49.81	-1
0	275339	49.91	-1
0	275910	50.01	-1
0	276472	50.11	-1
0	277034	50.21	-1
0	277596	50.31	-1
0	278158	50.41	-1
0	278720	50.51	-1
0	279282	50.61	-1
0	279844	50.71	-1
0	280406	50.81	-1
0	280968	50.91	-1
0	281539	51.01	-1
0	282101	51.11	-1
0	282663	51.21	-1
0	283225	51.31	-1
0	283787	51.41	-1
0	284349	51.51	-1
0	284911	51.61	-1
0	285473	51.71	-1
0	286035	51.81	-1
0	286597	51.91	-1
0	287168	52.01	-1
0	287730	52.11	-1
0	288292	52.21	-1
0	288854	52.31	-1
0	289416	52.41	-1
0	289978	52.51	-1
0	290540	52.61	-1
0	291102	52.71	-1
0	291664	52.81	-1
0	292226	52.91	-1
0	292797	53.01	-1
0	293359	53.11	-1
0	293921	53.21	-1
0	294483	53.31	-1
0	295045	53.41	-1
0	295607	53.51	-1
0	296169	53.61	-1
0	296731	53.71	-1
0	297386	53.81	-1
0	297947	53.91	-1
0	298517	54.01	-1
0	299078	54.11	-1
0	299639	54.21	-1
0	300200	54.31	-1
0	300761	54.41	-1
0	301322	54.51	-1
0	301883	54.61	-1
0	302444	54.71	-1
0	303005	54.81	-1
0	303566	54.91	-1
0	304136	55.01	-1
0	304697	55.11	-1
0	305258	55.21	-1
0	305819	55.31	-1
0	306380	55.41	-1
0	306941	55.51	-1
0	307502	55.61	-1
0	308063	55.71	-1
0	308624	55.81	-1
0	309185	55.91	-1
0	309755	56.01	-1
0	310316	56.11	-1
0	310877	56.21	-1
0	311438	56.31	-1
0	311999	56.41	-1
0	312560	56.51	-1
0	313121	56.61	-1
0	313682	56.71	-1
0	314243	56.81	-1
0	314804	56.91	-1
0	315374	57.01	-1
0	315935	57.11	-1
0	316496	57.21	-1
0	317057	57.31	-1
0	317618	57.41	-1
0	318179	57.51	-1
0	318740	57.61	-1
0	319301	57.71	-1
0	319862	57.81	-1
0	320423	57.91	-1
0	320993	58.01	-1
0	321554	58.11	-1
0	322115	58.21	-1
0	322676	58.31	-1
0	323237	58.41	-1
0	323798	58.51	-1
0	324452	58.61	-1
0	325012	58.71	-1
0	325572	58.81	-1
0	326132	58.91	-1
0	326701	59.01	-1
0	327261	59.11	-1
0	327821	59.21	-1
0	328381	59.31	-1
0	328941	59.41	-1
0	329501	59.51	-1
0	330061	59.61	-1
0	330621	59.71	-1
0	331181	59.81	-1
0	331741	59.91	-1
0	332310	60.01	-1
0	332870	60.11	-1
0	333430	60.21	-1
0	333990	60.31	-1
0	334550	60.41	-1
0	335110	60.51	-1
0	335670	60.61	-1
0	336230	60.71	-1
0	336790	60.81	-1
0	337350	60.91	-1
0	337919	61.01	-1
0	338479	61.11	-1
0	339039	61.21	-1
0	339599	61.31	-1
0	340159	61.41	-1
0	340719	61.51	-1
0	341279	61.61	-1
0	341839	61.71	-1
0	342399	61.81	-1
0	342959	61.91	-1
0	343528	62.01	-1
0	344088	62.11	-1
0	344648	62.21	-1
0	345208	62.31	-1
0	345768	62.41	-1
0	346328	62.51	-1
0	346888	62.61	-1
0	347448	62.71	-1
0	348008	62.81	-1
0	348568	62.91	-1
0	349137	63.01	-1
0	349697	63.11	-1
0	350257	63.21	-1
0	350910	63.31	-1
0	351469	63.41	-1
0	352028	63.51	-1
0	352587	63.61	-1
0	353146	63.71	-1
0	353705	63.81	-1
0	354264	63.91	-1
0	354832	64.01	-1
0	355391	64.11	-1
0	355950	64.21	-1
0	356509	64.31	-1
0	357068	64.41	-1
0	357627	64.51	-1
0	358186	64.61	-1
0	358745	64.71	-1
0	359304	64.81	-1
0	359863	64.91	-1
0	360431	65.01	-1
0	360990	65.11	-1
0	361549	65.21	-1
0	362108	65.31	-1
0	362667	65.41	-1
0	363226	65.51	-1
0	363785	65.61	-1
0	364344	65.71	-1
0	364903	65.81	-1
0	365462	65.91	-1
0	366030	66.01	-1
0	366589	66.11	-1
0	367148	66.21	-1
0	367707	66.31	-1
0	368266	66.41	-1
0	368825	66.51	-1
0	369384	66.61	-1
0	369943	66.71	-1
0	370502	66.81	-1
0	371061	66.91	-1
0	371629	67.01	-1
0	372188	67.11	-1
0	372747	67.21	-1
0	373306	67.31	-1
0	373865	67.41	-1
0	374424	67.51	-1
0	374983	67.61	-1
0	375635	67.71	-1
0	376193	67.81	-1
0	376751	67.91	-1
0	377318	68.01	-1
0	377876	68.11	-1
0	378434	68.21	-1
0	378992	68.31	-1
0	379550	68.41	-1
0	380108	68.51	-1
0	380666	68.61	-1
0	381224	68.71	-1
0	381782	68.81	-1
0	382340	68.91	-1
0	382907	69.01	-1
0	383465	69.11	-1
0	384023	69.21	-1
0	384581	69.31	-1
0	385139	69.41	-1
0	385697	69.51	-1
0	386255	69.61	-1
0	386813	69.71	-1
0	387371	69.81	-1
0	387929	69.91	-1
0	388496	70.01	-1
0	389054	70.11	-1
0	389612	70.21	-1
0	390170	70.31	-1
0	390728	70.41	-1
0	391286	70.51	-1
0	391844	70.61	-1
0	392402	70.71	-1
0	392960	70.81	-1
0	393518	70.91	-1
0	394085	71.01	-1
0	394643	71.11	-1
0	395201	71.21	-1
0	395759	71.31	-1
0	396317	71.41	-1
0	396875	71.51	-1
0	397433	71.61	-1
0	397991	71.71	-1
0	398549	71.81	-1
0	399107	71.91	-1
0	400418	72.01	-1
0	400975	72.11	-1
0	401532	72.21	-1
0	402089	72.31	-1
0	402646	72.41	-1
0	403203	72.51	-1
0	403760	72.61	-1
0	404317	72.71	-1
0	404874	72.81	-1
0	405431	72.91	-1
0	405997	73.01	-1
0	406554	73.11	-1
0	407111	73.21	-1
0	407668	73.31	-1
0	408225	73.41	-1
0	408782	73.51	-1
0	409339	73.61	-1
0	409896	73.71	-1
0	410453	73.81	-1
0	411010	73.91	-1
0	411576	74.01	-1
0	412133	74.11	-1
0	412690	74.21	-1
0	413247	74.31	-1
0	413804	74.41	-1
0	414361	74.51	-1
0	414918	74.61	-1
0	415475	74.71	-1
0	416032	74.81	-1
0	416589	74.91	-1
0	417155	75.01	-1
0	417712	75.11	-1
0	418269	75.21	-1
0	418826	75.31	-1
0	419383	75.41	-1
0	419940	75.51	-1
0	420497	75.61	-1
0	421054	75.71	-1
0	421611	75.81	-1
0	422168	75.91	-1
0	422734	76.01	-1
0	423291	76.11	-1
0	423848	76.21	-1
0	424405	76.31	-1
0	424962	76.41	-1
0	425519	76.51	-1
0	426076	76.61	-1
0	426633	76.71	-1
0	427190	76.81	-1
0	427747	76.91	-1
0	428313	77.01	-1
0	428870	77.11	-1
0	429427	77.21	-1
0	429984	77.31	-1
0	430541	77.41	-1
0	431098	77.51	-1
0	431655	77.61	-1
0	432212	77.71	-1
0	432769	77.81	-1
0	433326	77.91	-1
0	433892	78.01	-1
0	434449	78.11	-1
0	435006	78.21	-1
0	435563	78.31	-1
0	436120	78.41	-1
0	436677	78.51	-1
0	437234	78.61	-1
0	437791	78.71	-1
0	438348	78.81	-1
0	438905	78.91	-1
0	439471	79.01	-1
0	440028	79.11	-1
0	440585	79.21	-1
0	441142	79.31	-1
0	441699	79.41	-1
0	442256	79.51	-1
0	442813	79.61	-1
0	443370	79.71	-1
0	443927	79.81	-1
0	444484	79.91	-1
0	445050	80.01	-1
0	445607	80.11	-1
0	446164	80.21	-1
0	446721	80.31	-1
0	447278	80.41	-1
0	447835	80.51	-1
0	448392	80.61	-1
0	448949	80.71	-1
0	449506	80.81	-1
0	450063	80.91	-1
0	450629	81.01	-1
0	451186	81.11	-1
0	451743	81.21	-1
0	452300	81.31	-1
0	452857	81.41	-1
0	453414	81.51	-1
0	453971	81.61	-1
0	454528	81.71	-1
0	455085	81.81	-1
0	455642	81.91	-1
0	456208	82.01	-1
0	456765	82.11	-1
0	457322	82.21	-1
0	457879	82.31	-1
0	458436	82.41	-1
0	458993	82.51	-1
0	459550	82.61	-1
0	460107	82.71	-1
0	460664	82.81	-1
0	461221	82.91	-1
0	461787	83.01	-1
0	462344	83.11	-1
0	462901	83.21	-1
0	463458	83.31	-1
0	464015	83.41	-1
0	464572	83.51	-1
0	465129	83.61	-1
0	465686	83.71	-1
0	466243	83.81	-1
0	466800	83.91	-1
0	467366	84.01	-1
0	467923	84.11	-1
0	468480	84.21	-1
0	469037	84.31	-1
0	469594	84.41	-1
0	470151	84.51	-1
0	470708	84.61	-1
0	471265	84.71	-1
0	471822	84.81	-1
0	472379	84.91	-1
0	472945	85.01	-1
0	473502	85.11	-1
0	474059	85.21	-1
0	474616	85.31	-1
0	475173	85.41	-1
0	475730	85.51	-1
0	476287	85.61	-1
0	476844	85.71	-1
0	477401	85.81	-1
0	477958	85.91	-1
0	478524	86.01	-1
0	479081	86.11	-1
0	479638	86.21	-1
0	480195	86.31	-1
0	480752	86.41	-1
0	481309	86.51	-1
0	481866	86.61	-1
0	482423	86.71	-1
0	482980	86.81	-1
0	483537	86.91	-1
0	484103	87.01	-1
0	484660	87.11	-1
0	485217	87.21	-1
0	485774	87.31	-1
0	486331	87.41	-1
0	486888	87.51	-1
0	487445	87.61	-1
0	488002	87.71	-1
0	488559	87.81	-1
0	489116	87.91	-1
0	489682	88.01	-1
0	490239	88.11	-1
0	490796	88.21	-1
0	491353	88.31	-1
0	491910	88.41	-1
0	492467	88.51	-1
0	493024	88.61	-1
0	493581	88.71	-1
0	494138	88.81	-1
0	494695	88.91	-1
0	495261	89.01	-1
0	495818	89.11	-1
0	496375	89.21	-1
0	496932	89.31	-1
0	497489	89.41	-1
0	498046	89.51	-1
0	498603	89.61	-1
0	499160	89.71	-1
0	499717	89.81	-1
0	500274	89.91	-1
0	500840	90.01	-1
0	501397	90.11	-1
0	501954	90.21	-1
0	502511	90.31	-1
0	503068	90.41	-1
0	503625	90.51	-1
0	504182	90.61	-1
0	504739	90.71	-1
0	505296	90.81	-1
0	505853	90.91	-1
0	506419	91.01	-1
0	506976	91.11	-1
0	507533	91.21	-1
0	508090	91.31	-1
0	508647	91.41	-1
0	509204	91.51	-1
0	509761	91.61	-1
0	510318	91.71	-1
0	510875	91.81	-1
0	511432	91.91	-1
0	511998	92.01	-1
0	512555	92.11	-1
0	513112	92.21	-1
0	513669	92.31	-1
0	514226	92.41	-1
0	514783	92.51	-1
0	515340	92.61	-1
0	515897	92.71	-1
0	516454	92.81	-1
0	517011	92.91	-1
0	517577	93.01	-1
0	518134	93.11	-1
0	518691	93.21	-1
0	519248	93.31	-1
0	519805	93.41	-1
0	520362	93.51	-1
0	520919	93.61	-1
0	521476	93.71	-1
0	522033	93.81	-1
0	522590	93.91	-1
0	523156	94.01	-1
0	523713	94.11	-1
0	524270	94.21	-1
0	524827	94.31	-1
0	525384	94.41	-1
0	525941	94.51	-1
0	526498	94.61	-1
0	527055	94.71	-1
0	527612	94.81	-1
0	528169	94.91	-1
0	528735	95.01	-1
0	529292	95.11	-1
0	529849	95.21	-1
0	530406	95.31	-1
0	530963	95.41	-1
0	531520	95.51	-1
0	532077	95.61	-1
0	532634	95.71	-1
0	533191	95.81	-1
0	533748	95.91	-1
0	534314	96.01	-1
0	534871	96.11	-1
0	535428	96.21	-1
0	535985	96.31	-1
0	536542	96.41	-1
0	537099	96.51	-1
0	537656	96.61	-1
0	538213	96.71	-1
0	538770	96.81	-1
0	539327	96.91	-1
0	539893	97.01	-1
0	540450	97.11	-1
0	541007	97.21	-1
0	541564	97.31	-1
0	542121	97.41	-1
0	542678	97.51	-1
0	543235	97.61	-1
0	543792	97.71	-1
0	544349	97.81	-1
0	544906	97.91	-1
0	545472	98.01	-1
0	546029	98.11	-1
0	546586	98.21	-1
0	547143	98.31	-1
0	547700	98.41	-1
0	548257	98.51	-1
0	548814	98.61	-1
0	549371	98.71	-1
0	549928	98.81	-1
0	550485	98.91	-1
0	551051	99.01	-1
0	551608	99.11	-1
0	552165	99.21	-1
0	552722	99.31	-1
0	553279	99.41	-1
0	553836	99.51	-1
0	554393	99.61	-1
0	554950	99.71	-1
0	555507	99.81	-1
0	556064	99.91	-1
1	113	1.11	0
1	670	1.21	0
1	1227	1.31	0
1	1784	1.41	0
1	2341	1.51	0
1	2898	1.61	0
1	3455	1.71	0
1	4012	1.81	0
1	4569	1.91	0
1	5135	2.01	0
1	5692	2.11	0
1	6249	2.21	0
1	6806	2.31	0
1	7363	2.41	0
1	7920	2.51	0
1	8477	2.61	0
1	9034	2.71	0
1	9591	2.81	0
1	10148	2.91	0
1	10714	3.01	0
1	11271	3.11	0
1	11828	3.21	0
1	12385	3.31	0
1	12942	3.41	0
1	13499	3.51	0
1	14056	3.61	0
1	14613	3.71	0
1	15170	3.81	0
1	15727	3.91	0
1	16293	4.01	0
1	16850	4.11	0
1	17407	4.21	0
1	17964	4.31	0
1	18521	4.41	0
1	19078	4.51	0
1	19635	4.61	0
1	20192	4.71	0
1	20749	4.81	0
1	21306	4.91	0
1	21872	5.01	0
1	22429	5.11	0
1	22986	5.21	0
1	23543	5.31	0
1	24100	5.41	0
1	24657	5.51	0
1	25214	5.61	0
1	25771	5.71	0
1	26328	5.81	0
1	26885	5.91	0
1	27451	6.01	0
1	28008	6.11	0
1	28565	6.21	0
1	29122	6.31	0
1	29679	6.41	0
1	30236	6.51	0
1	30793	6.61	0
1	31350	6.71	0
1	31907	6.81	0
1	32464	6.91	0
1	33030	7.01	0
1	33587	7.11	0
1	34144	7.21	0
1	34701	7.31	0
1	35258	7.41	0
1	35815	7.51	0
1	36372	7.61	0
1	36929	7.71	0
1	37486	7.81	0
1	38043	7.91	0
1	38609	8.01	0
1	39166	8.11	0
1	39723	8.21	0
1	40280	8.31	0
1	40837	8.41	0
1	41394	8.51	0
1	41951	8.61	0
1	42508	8.71	0
1	43065	8.81	0
1	43622	8.91	0
1	44188	9.01	0
1	44745	9.11	0
1	45302	9.21	0
1	45859	9.31	0
1	46416	9.41	0
1	46973	9.51	0
1	47530	9.61	0
1	48087	9.71	0
1	48644	9.81	0
1	49201	9.91	0
1	49852	10.01	0
1	50416	10.11	0
1	50980	10.21	0
1	51544	10.31	0
1	52108	10.41	0
1	52672	10.51	0
1	53236	10.61	0
1	53800	10.71	0
1	54364	10.81	0
1	54928	10.91	0
1	55501	11.01	0
1	56065	11.11	0
1	56629	11.21	0
1	57193	11.31	0
1	57757	11.41	0
1	58321	11.51	0
1	58885	11.61	0
1	59449	11.71	0
1	60013	11.81	0
1	60577	11.91	0
1	61150	12.01	0
1	61714	12.11	0
1	62278	12.21	0
1	62842	12.31	0
1	63406	12.41	0
1	63970	12.51	0
1	64534	12.61	0
1	65098	12.71	0
1	65662	12.81	0
1	66226	12.91	0
1	66799	13.01	0
1	67363	13.11	0
1	67927	13.21	0
1	68491	13.31	0
1	69055	13.41	0
1	69619	13.51	0
1	70183	13.61	0
1	70747	13.71	0
1	71311	13.81	0
1	71875	13.91	0
1	72448	14.01	0
1	73012	14.11	0
1	73576	14.21	0
1	74140	14.31	0
1	74704	14.41	0
1	75268	14.51	0
1	75832	14.61	0
1	76396	14.71	0
1	76960	14.81	0
1	77524	14.91	0
1	78097	15.01	0
1	78661	15.11	0
1	79225	15.21	0
1	79789	15.31	0
1	80353	15.41	0
1	80917	15.51	0
1	81481	15.61	0
1	82045	15.71	0
1	82609	15.81	0
1	83173	15.91	0
1	83746	16.01	0
1	84310	16.11	0
1	84874	16.21	0
1	85438	16.31	0
1	86002	16.41	0
1	86566	16.51	0
1	87130	16.61	0
1	87694	16.71	0
1	88258	16.81	0
1	88822	16.91	0
1	89395	17.01	0
1	89959	17.11	0
1	90523	17.21	0
1	91087	17.31	0
1	91651	17.41	0
1	92215	17.51	0
1	92779	17.61	0
1	93343	17.71	0
1	93907	17.81	0
1	94471	17.91	0
1	95044	18.01	0
1	95608	18.11	0
1	96172	18.21	0
1	96736	18.31	0
1	97300	18.41	0
1	97864	18.51	0
1	98428	18.61	0
1	98992	18.71	0
1	99556	18.81	0
1	100120	18.91	0
1	100693	19.01	0
1	101257	19.11	0
1	101821	19.21	0
1	102385	19.31	0
1	102949	19.41	0
1	103513	19.51	0
1	104077	19.61	0
1	104641	19.71	0
1	105205	19.81	0
1	105769	19.91	0
1	106342	20.01	0
1	106906	20.11	0
1	107470	20.21	0
1	108034	20.31	0
1	108598	20.41	0
1	109162	20.51	0
1	109726	20.61	0
1	110290	20.71	0
1	110854	20.81	0
1	111418	20.91	0
1	111991	21.01	0
1	112555	21.11	0
1	113119	21.21	0
1	113683	21.31	0
1	114247	21.41	0
1	114811	21.51	0
1	115375	21.61	0
1	115939	21.71	0
1	116503	21.81	0
1	117067	21.91	0
1	117640	22.01	0
1	118204	22.11	0
1	118768	22.21	0
1	119332	22.31	0
1	119896	22.41	0
1	120460	22.51	0
1	121024	22.61	0
1	121588	22.71	0
1	122152	22.81	0
1	122716	22.91	0
1	123289	23.01	0
1	123853	23.11	0
1	124417	23.21	0
1	124981	23.31	0
1	125545	23.41	0
1	126109	23.51	0
1	126673	23.61	0
1	127237	23.71	0
1	127801	23.81	0
1	128365	23.91	0
1	128938	24.01	0
1	129502	24.11	0
1	130066	24.21	0
1	130630	24.31	0
1	131194	24.41	0
1	131758	24.51	0
1	132322	24.61	0
1	132886	24.71	0
1	133450	24.81	0
1	134014	24.91	0
1	134587	25.01	0
1	135151	25.11	0
1	135715	25.21	0
1	136279	25.31	0
1	136843	25.41	0
1	137407	25.51	0
1	137971	25.61	0
1	138535	25.71	0
1	139099	25.81	0
1	139663	25.91	0
1	140236	26.01	0
1	140800	26.11	0
1	141364	26.21	0
1	141928	26.31	0
1	142492	26.41	0
1	143056	26.51	0
1	143620	26.61	0
1	144184	26.71	0
1	144748	26.81	0
1	145312	26.91	0
1	145885	27.01	0
1	146449	27.11	0
1	147013	27.21	0
1	147577	27.31	0
1	148141	27.41	0
1	148705	27.51	0
1	149269	27.61	0
1	149833	27.71	0
1	150397	27.81	0
1	150961	27.91	0
1	151534	28.01	0
1	152098	28.11	0
1	152662	28.21	0
1	153226	28.31	0
1	153790	28.41	0
1	154354	28.51	0
1	154918	28.61	0
1	155482	28.71	0
1	156046	28.81	0
1	156610	28.91	0
1	157183	29.01	0
1	157747	29.11	0
1	158311	29.21	0
1	158875	29.31	0
1	159439	29.41	0
1	160003	29.51	0
1	160567	29.61	0
1	161131	29.71	0
1	161695	29.81	0
1	162259	29.91	0
1	162832	30.01	0
1	163396	30.11	0
1	163960	30.21	0
1	164524	30.31	0
1	165088	30.41	0
1	165652	30.51	0
1	166216	30.61	0
1	166780	30.71	0
1	167344	30.81	0
1	167908	30.91	0
1	168481	31.01	0
1	169045	31.11	0
1	169609	31.21	0
1	170173	31.31	0
1	170737	31.41	0
1	171301	31.51	0
1	171865	31.61	0
1	172429	31.71	0
1	172993	31.81	0
1	173557	31.91	0
1	174130	32.01	0
1	174694	32.11	0
1	175258	32.21	0
1	175822	32.31	0
1	176386	32.41	0
1	176950	32.51	0
1	177514	32.61	0
1	178078	32.71	0
1	178642	32.81	0
1	179206	32.91	0
1	179779	33.01	0
1	180343	33.11	0
1	180907	33.21	0
1	181471	33.31	0
1	182035	33.41	0
1	182599	33.51	0
1	183163	33.61	0
1	183727	33.71	0
1	184291	33.81	0
1	184855	33.91	0
1	185428	34.01	0
1	185992	34.11	0
1	186556	34.21	0
1	187120	34.31	0
1	187684	34.41	0
1	188248	34.51	0
1	188812	34.61	0
1	189376	34.71	0
1	189940	34.81	0
1	190504	34.91	0
1	191077	35.01	0
1	191641	35.11	0
1	192205	35.21	0
1	192769	35.31	0
1	193333	35.41	0
1	193897	35.51	0
1	194461	35.61	0
1	195025	35.71	0
1	195589	35.81	0
1	196153	35.91	0
1	196726	36.01	0
1	197290	36.11	0
1	197854	36.21	0
1	198418	36.31	0
1	198982	36.41	0
1	199546	36.51	0
1	200110	36.61	0
1	200674	36.71	0
1	201238	36.81	0
1	201802	36.91	0
1	202375	37.01	0
1	202939	37.11	0
1	203503	37.21	0
1	204067	37.31	0
1	204631	37.41	0
1	205195	37.51	0
1	205759	37.61	0
1	206323	37.71	0
1	206887	37.81	0
1	207451	37.91	0
1	208024	38.01	0
1	208588	38.11	0
1	209152	38.21	0
1	209716	38.31	0
1	210280	38.41	0
1	210844	38.51	0
1	211408	38.61	0
1	211972	38.71	0
1	212536	38.81	0
1	213100	38.91	0
1	213673	39.01	0
1	214237	39.11	0
1	214801	39.21	0
1	215365	39.31	0
1	215929	39.41	0
1	216493	39.51	0
1	217057	39.61	0
1	217621	39.71	0
1	218185	39.81	0
1	218749	39.91	0
1	219322	40.01	0
1	219886	40.11	0
1	220450	40.21	0
1	221014	40.31	0
1	221578	40.41	0
1	222142	40.51	0
1	222706	40.61	0
1	223270	40.71	0
1	223834	40.81	0
1	224398	40.91	0
1	224971	41.01	0
1	225535	41.11	0
1	226099	41.21	0
1	226663	41.31	0
1	227227	41.41	0
1	227791	41.51	0
1	228355	41.61	0
1	228919	41.71	0
1	229483	41.81	0
1	230047	41.91	0
1	230620	42.01	0
1	231184	42.11	0
1	231748	42.21	0
1	232312	42.31	0
1	232876	42.41	0
1	233440	42.51	0
1	234004	42.61	0
1	234661	42.71	0
1	235224	42.81	0
1	235787	42.91	0
1	236359	43.01	0
1	236922	43.11	0
1	237485	43.21	0
1	238048	43.31	0
1	238611	43.41	0
1	239174	43.51	0
1	239737	43.61	0
1	240300	43.71	0
1	240863	43.81	0
1	241426	43.91	0
1	241998	44.01	0
1	242561	44.11	0
1	243124	44.21	0
1	243687	44.31	0
1	244250	44.41	0
1	244813	44.51	0
1	245376	44.61	0
1	245939	44.71	0
1	246502	44.81	0
1	247065	44.91	0
1	247637	45.01	0
1	248200	45.11	0
1	248763	45.21	0
1	249326	45.31	0
1	249889	45.41	0
1	250452	45.51	0
1	251015	45.61	0
1	251578	45.71	0
1	252141	45.81	0
1	252704	45.91	0
1	253276	46.01	0
1	253839	46.11	0
1	254402	46.21	0
1	254965	46.31	0
1	255528	46.41	0
1	256091	46.51	0
1	256654	46.61	0
1	257217	46.71	0
1	257780	46.81	0
1	258343	46.91	0
1	258915	47.01	0
1	259478	47.11	0
1	260041	47.21	0
1	260604	47.31	0
1	261167	47.41	0
1	261730	47.51	0
1	262293	47.61	0
1	262856	47.71	0
1	263419	47.81	0
1	263982	47.91	0
1	264554	48.01	0
1	265117	48.11	0
1	265680	48.21	0
1	266243	48.31	0
1	266806	48.41	0
1	267462	48.51	0
1	268024	48.61	0
1	268586	48.71	0
1	269148	48.81	0
1	269710	48.91	0
1	270281	49.01	0
1	270843	49.11	0
1	271405	49.21	0
1	271967	49.31	0
1	272529	49.41	0
1	273091	49.51	0
1	273653	49.61	0
1	274215	49.71	0
1	274777	49.81	0
1	275339	49.91	0
1	275910	50.01	0
1	276472	50.11	0
1	277034	50.21	0
1	277596	50.31	0
1	278158	50.41	0
1	278720	50.51	0
1	279282	50.61	0
1	279844	50.71	0
1	280406	50.81	0
1	280968	50.91	0
1	281539	51.01	0
1	282101	51.11	0
1	282663	51.21	0
1	283225	51.31	0
1	283787	51.41	0
1	284349	51.51	0
1	284911	51.61	0
1	285473	51.71	0
1	286035	51.81	0
1	286597	51.91	0
1	287168	52.01	0
1	287730	52.11	0
1	288292	52.21	0
1	288854	52.31	0
1	289416	52.41	0
1	289978	52.51	0
1	290540	52.61	0
1	291102	52.71	0
1	291664	52.81	0
1	292226	52.91	0
1	292797	53.01	0
1	293359	53.11	0
1	293921	53.21	0
1	294483	53.31	0
1	295045	53.41	0
1	295607	53.51	0
1	296169	53.61	0
1	296731	53.71	0
1	297386	53.81	0
1	297947	53.91	0
1	298517	54.01	0
1	299078	54.11	0
1	299639	54.21	0
1	300200	54.31	0
1	300761	54.41	0
1	301322	54.51	0
1	301883	54.61	0
1	302444	54.71	0
1	303005	54.81	0
1	303566	54.91	0
1	304136	55.01	0
1	304697	55.11	0
1	305258	55.21	0
1	305819	55.31	0
1	306380	55.41	0
1	306941	55.51	0
1	307502	55.61	0
1	308063	55.71	0
1	308624	55.81	0
1	309185	55.91	0
1	309755	56.01	0
1	310316	56.11	0
1	310877	56.21	0
1	311438	56.31	0
1	311999	56.41	0
1	312560	56.51	0
1	313121	56.61	0
1	313682	56.71	0
1	314243	56.81	0
1	314804	56.91	0
1	315374	57.01	0
1	315935	57.11	0
1	316496	57.21	0
1	317057	57.31	0
1	317618	57.41	0
1	318179	57.51	0
1	318740	57.61	0
1	319301	57.71	0
1	319862	57.81	0
1	320423	57.91	0
1	320993	58.01	0
1	321554	58.11	0
1	322115	58.21	0
1	322676	58.31	0
1	323237	58.41	0
1	323798	58.51	0
1	324452	58.61	0
1	325012	58.71	0
1	325572	58.81	0
1	326132	58.91	0
1	326701	59.01	0
1	327261	59.11	0
1	327821	59.21	0
1	328381	59.31	0
1	328941	59.41	0
1	329501	59.51	0
1	330061	59.61	0
1	330621	59.71	0
1	331181	59.81	0
1	331741	59.91	0
1	332310	60.01	0
1	332870	60.11	0
1	333430	60.21	0
1	333990	60.31	0
1	334550	60.41	0
1	335110	60.51	0
1	335670	60.61	0
1	336230	60.71	0
1	336790	60.81	0
1	337350	60.91	0
1	337919	61.01	0
1	338479	61.11	0
1	339039	61.21	0
1	339599	61.31	0
1	340159	61.41	0
1	340719	61.51	0
1	341279	61.61	0
1	341839	61.71	0
1	342399	61.81	0
1	342959	61.91	0
1	343528	62.01	0
1	344088	62.11	0
1	344648	62.21	0
1	345208	62.31	0
1	345768	62.41	0
1	346328	62.51	0
1	346888	62.61	0
1	347448	62.71	0
1	348008	62.81	0
1	348568	62.91	0
1	349137	63.01	0
1	349697	63.11	0
1	350257	63.21	0
1	350910	63.31	0
1	351469	63.41	0
1	352028	63.51	0
1	352587	63.61	0
1	353146	63.71	0
1	353705	63.81	0
1	354264	63.91	0
1	354832	64.01	0
1	355391	64.11	0
1	355950	64.21	0
1	356509	64.31	0
1	357068	64.41	0
1	357627	64.51	0
1	358186	64.61	0
1	358745	64.71	0
1	359304	64.81	0
1	359863	64.91	0
1	360431	65.01	0
1	360990	65.11	0
1	361549	65.21	0
1	362108	65.31	0
1	362667	65.41	0
1	363226	65.51	0
1	363785	65.61	0
1	364344	65.71	0
1	364903	65.81	0
1	365462	65.91	0
1	366030	66.01	0
1	366589	66.11	0
1	367148	66.21	0
1	367707	66.31	0
1	368266	66.41	0
1	368825	66.51	0
1	369384	66.61	0
1	369943	66.71	0
1	370502	66.81	0
1	371061	66.91	0
1	371629	67.01	0
1	372188	67.11	0
1	372747	67.21	0
1	373306	67.31	0
1	373865	67.41	0
1	374424	67.51	0
1	374983	67.61	0
1	375635	67.71	0
1	376193	67.81	0
1	376751	67.91	0
1	377318	68.01	0
1	377876	68.11	0
1	378434	68.21	0
1	378992	68.31	0
1	379550	68.41	0
1	380108	68.51	0
1	380666	68.61	0
1	381224	68.71	0
1	381782	68.81	0
1	382340	68.91	0
1	382907	69.01	0
1	383465	69.11	0
1	384023	69.21	0
1	384581	69.31	0
1	385139	69.41	0
1	385697	69.51	0
1	386255	69.61	0
1	386813	69.71	0
1	387371	69.81	0
1	387929	69.91	0
1	388496	70.01	0
1	389054	70.11	0
1	389612	70.21	0
1	390170	70.31	0
1	390728	70.41	0
1	391286	70.51	0
1	391844	70.61	0
1	392402	70.71	0
1	392960	70.81	0
1	393518	70.91	0
1	394085	71.01	0
1	394643	71.11	0
1	395201	71.21	0
1	395759	71.31	0
1	396317	71.41	0
1	396875	71.51	0
1	397433	71.61	0
1	397991	71.71	0
1	398549	71.81	0
1	399107	71.91	0
1	400418	72.01	0
1	400975	72.11	0
1	401532	72.21	0
1	402089	72.31	0
1	402646	72.41	0
1	403203	72.51	0
1	403760	72.61	0
1	404317	72.71	0
1	404874	72.81	0
1	405431	72.91	0
1	405997	73.01	0
1	406554	73.11	0
1	407111	73.21	0
1	407668	73.31	0
1	408225	73.41	0
1	408782	73.51	0
1	409339	73.61	0
1	409896	73.71	0
1	410453	73.81	0
1	411010	73.91	0
1	411576	74.01	0
1	412133	74.11	0
1	412690	74.21	0
1	413247	74.31	0
1	413804	74.41	0
1	414361	74.51	0
1	414918	74.61	0
1	415475	74.71	0
1	416032	74.81	0
1	416589	74.91	0
1	417155	75.01	0
1	417712	75.11	0
1	418269	75.21	0
1	418826	75.31	0
1	419383	75.41	0
1	419940	75.51	0
1	420497	75.61	0
1	421054	75.71	0
1	421611	75.81	0
1	422168	75.91	0
1	422734	76.01	0
1	423291	76.11	0
1	423848	76.21	0
1	424405	76.31	0
1	424962	76.41	0
1	425519	76.51	0
1	426076	76.61	0
1	426633	76.71	0
1	427190	76.81	0
1	427747	76.91	0
1	428313	77.01	0
1	428870	77.11	0
1	429427	77.21	0
1	429984	77.31	0
1	430541	77.41	0
1	431098	77.51	0
1	431655	77.61	0
1	432212	77.71	0
1	432769	77.81	0
1	433326	77.91	0
1	433892	78.01	0
1	434449	78.11	0
1	435006	78.21	0
1	435563	78.31	0
1	436120	78.41	0
1	436677	78.51	0
1	437234	78.61	0
1	437791	78.71	0
1	438348	78.81	0
1	438905	78.91	0
1	439471	79.01	0
1	440028	79.11	0
1	440585	79.21	0
1	441142	79.31	0
1	441699	79.41	0
1	442256	79.51	0
1	442813	79.61	0
1	443370	79.71	0
1	443927	79.81	0
1	444484	79.91	0
1	445050	80.01	0
1	445607	80.11	0
1	446164	80.21	0
1	446721	80.31	0
1	447278	80.41	0
1	447835	80.51	0
1	448392	80.61	0
1	448949	80.71	0
1	449506	80.81	0
1	450063	80.91	0
1	450629	81.01	0
1	451186	81.11	0
1	451743	81.21	0
1	452300	81.31	0
1	452857	81.41	0
1	453414	81.51	0
1	453971	81.61	0
1	454528	81.71	0
1	455085	81.81	0
1	455642	81.91	0
1	456208	82.01	0
1	456765	82.11	0
1	457322	82.21	0
1	457879	82.31	0
1	458436	82.41	0
1	458993	82.51	0
1	459550	82.61	0
1	460107	82.71	0
1	460664	82.81	0
1	461221	82.91	0
1	461787	83.01	0
1	462344	83.11	0
1	462901	83.21	0
1	463458	83.31	0
1	464015	83.41	0
1	464572	83.51	0
1	465129	83.61	0
1	465686	83.71	0
1	466243	83.81	0
1	466800	83.91	0
1	467366	84.01	0
1	467923	84.11	0
1	468480	84.21	0
1	469037	84.31	0
1	469594	84.41	0
1	470151	84.51	0
1	470708	84.61	0
1	471265	84.71	0
1	471822	84.81	0
1	472379	84.91	0
1	472945	85.01	0
1	473502	85.11	0
1	474059	85.21	0
1	474616	85.31	0
1	475173	85.41	0
1	475730	85.51	0
1	476287	85.61	0
1	476844	85.71	0
1	477401	85.81	0
1	477958	85.91	0
1	478524	86.01	0
1	479081	86.11	0
1	479638	86.21	0
1	480195	86.31	0
1	480752	86.41	0
1	481309	86.51	0
1	481866	86.61	0
1	482423	86.71	0
1	482980	86.81	0
1	483537	86.91	0
1	484103	87.01	0
1	484660	87.11	0
1	485217	87.21	0
1	485774	87.31	0
1	486331	87.41	0
1	486888	87.51	0
1	487445	87.61	0
1	488002	87.71	0
1	488559	87.81	0
1	489116	87.91	0
1	489682	88.01	0
1	490239	88.11	0
1	490796	88.21	0
1	491353	88.31	0
1	491910	88.41	0
1	492467	88.51	0
1	493024	88.61	0
1	493581	88.71	0
1	494138	88.81	0
1	494695	88.91	0
1	495261	89.01	0
1	495818	89.11	0
1	496375	89.21	0
1	496932	89.31	0
1	497489	89.41	0
1	498046	89.51	0
1	498603	89.61	0
1	499160	89.71	0
1	499717	89.81	0
1	500274	89.91	0
1	500840	90.01	0
1	501397	90.11	0
1	501954	90.21	0
1	502511	90.31	0
1	503068	90.41	0
1	503625	90.51	0
1	504182	90.61	0
1	504739	90.71	0
1	505296	90.81	0
1	505853	90.91	0
1	506419	91.01	0
1	506976	91.11	0
1	507533	91.21	0
1	508090	91.31	0
1	508647	91.41	0
1	509204	91.51	0
1	509761	91.61	0
1	510318	91.71	0
1	510875	91.81	0
1	511432	91.91	0
1	511998	92.01	0
1	512555	92.11	0
1	513112	92.21	0
1	513669	92.31	0
1	514226	92.41	0
1	514783	92.51	0
1	515340	92.61	0
1	515897	92.71	0
1	516454	92.81	0
1	517011	92.91	0
1	517577	93.01	0
1	518134	93.11	0
1	518691	93.21	0
1	519248	93.31	0
1	519805	93.41	0
1	520362	93.51	0
1	520919	93.61	0
1	521476	93.71	0
1	522033	93.81	0
1	522590	93.91	0
1	523156	94.01	0
1	523713	94.11	0
1	524270	94.21	0
1	524827	94.31	0
1	525384	94.41	0
1	525941	94.51	0
1	526498	94.61	0
1	527055	94.71	0
1	527612	94.81	0
1	528169	94.91	0
1	528735	95.01	0
1	529292	95.11	0
1	529849	95.21	0
1	530406	95.31	0
1	530963	95.41	0
1	531520	95.51	0
1	532077	95.61	0
1	532634	95.71	0
1	533191	95.81	0
1	533748	95.91	0
1	534314	96.01	0
1	534871	96.11	0
1	535428	96.21	0
1	535985	96.31	0
1	536542	96.41	0
1	537099	96.51	0
1	537656	96.61	0
1	538213	96.71	0
1	538770	96.81	0
1	539327	96.91	0
1	539893	97.01	0
1	540450	97.11	0
1	541007	97.21	0
1	541564	97.31	0
1	542121	97.41	0
1	542678	97.51	0
1	543235	97.61	0
1	543792	97.71	0
1	544349	97.81	0
1	544906	97.91	0
1	545472	98.01	0
1	546029	98.11	0
1	546586	98.21	0
1	547143	98.31	0
1	547700	98.41	0
1	548257	98.51	0
1	548814	98.61	0
1	549371	98.71	0
1	549928	98.81	0
1	550485	98.91	0
1	551051	99.01	0
1	551608	99.11	0
1	552165	99.21	0
1	552722	99.31	0
1	553279	99.41	0
1	553836	99.51	0
1	554393	99.61	0
1	554950	99.71	0
1	555507	99.81	0
1	556064	99.91	0
2	113	1.11	0
2	670	1.21	0
2	1227	1.31	0
2	1784	1.41	0
2	2341	1.51	0
2	2898	1.61	0
2	3455	1.71	0
2	4012	1.81	0
2	4569	1.91	0
2	5135	2.01	0
2	5692	2.11	0
2	6249	2.21	0
2	6806	2.31	0
2	7363	2.41	0
2	7920	2.51	0
2	8477	2.61	0
2	9034	2.71	0
2	9591	2.81	0
2	10148	2.91	0
2	10714	3.01	0
2	11271	3.11	0
2	11828	3.21	0
2	12385	3.31	0
2	12942	3.41	0
2	13499	3.51	0
2	14056	3.61	0
2	14613	3.71	0
2	15170	3.81	0
2	15727	3.91	0
2	16293	4.01	0
2	16850	4.11	0
2	17407	4.21	0
2	17964	4.31	0
2	18521	4.41	0
2	19078	4.51	0
2	19635	4.61	0
2	20192	4.71	0
2	20749	4.81	0
2	21306	4.91	0
2	21872	5.01	0
2	22429	5.11	0
2	22986	5.21	0
2	23543	5.31	0
2	24100	5.41	0
2	24657	5.51	0
2	25214	5.61	0
2	25771	5.71	0
2	26328	5.81	0
2	26885	5.91	0
2	27451	6.01	0
2	28008	6.11	0
2	28565	6.21	0
2	29122	6.31	0
2	29679	6.41	0
2	30236	6.51	0
2	30793	6.61	0
2	31350	6.71	0
2	31907	6.81	0
2	32464	6.91	0
2	33030	7.01	0
2	33587	7.11	0
2	34144	7.21	0
2	34701	7.31	0
2	35258	7.41	0
2	35815	7.51	0
2	36372	7.61	0
2	36929	7.71	0
2	37486	7.81	0
2	38043	7.91	0
2	38609	8.01	0
2	39166	8.11	0
2	39723	8.21	0
2	40280	8.31	0
2	40837	8.41	0
2	41394	8.51	0
2	41951	8.61	0
2	42508	8.71	0
2	43065	8.81	0
2	43622	8.91	0
2	44188	9.01	0
2	44745	9.11	0
2	45302	9.21	0
2	45859	9.31	0
2	46416	9.41	0
2	46973	9.51	0
2	47530	9.61	0
2	48087	9.71	0
2	48644	9.81	0
2	49201	9.91	0
2	49852	10.01	0
2	50416	10.11	0
2	50980	10.21	0
2	51544	10.31	0
2	52108	10.41	0
2	52672	10.51	0
2	53236	10.61	0
2	53800	10.71	0
2	54364	10.81	0
2	54928	10.91	0
2	55501	11.01	0
2	56065	11.11	0
2	56629	11.21	0
2	57193	11.31	0
2	57757	11.41	0
2	58321	11.51	0
2	58885	11.61	0
2	59449	11.71	0
2	60013	11.81	0
2	60577	11.91	0
2	61150	12.01	0
2	61714	12.11	0
2	62278	12.21	0
2	62842	12.31	0
2	63406	12.41	0
2	63970	12.51	0
2	64534	12.61	0
2	65098	12.71	0
2	65662	12.81	0
2	66226	12.91	0
2	66799	13.01	0
2	67363	13.11	0
2	67927	13.21	0
2	68491	13.31	0
2	69055	13.41	0
2	69619	13.51	0
2	70183	13.61	0
2	70747	13.71	0
2	71311	13.81	0
2	71875	13.91	0
2	72448	14.01	0
2	73012	14.11	0
2	73576	14.21	0
2	74140	14.31	0
2	74704	14.41	0
2	75268	14.51	0
2	75832	14.61	0
2	76396	14.71	0
2	76960	14.81	0
2	77524	14.91	0
2	78097	15.01	0
2	78661	15.11	0
2	79225	15.21	0
2	79789	15.31	0
2	80353	15.41	0
2	80917	15.51	0
2	81481	15.61	0
2	82045	15.71	0
2	82609	15.81	0
2	83173	15.91	0
2	83746	16.01	0
2	84310	16.11	0
2	84874	16.21	0
2	85438	16.31	0
2	86002	16.41	0
2	86566	16.51	0
2	87130	16.61	0
2	87694	16.71	0
2	88258	16.81	0
2	88822	16.91	0
2	89395	17.01	0
2	89959	17.11	0
2	90523	17.21	0
2	91087	17.31	0
2	91651	17.41	0
2	92215	17.51	0
2	92779	17.61	0
2	93343	17.71	0
2	93907	17.81	0
2	94471	17.91	0
2	95044	18.01	0
2	95608	18.11	0
2	96172	18.21	0
2	96736	18.31	0
2	97300	18.41	0
2	97864	18.51	0
2	98428	18.61	0
2	98992	18.71	0
2	99556	18.81	0
2	100120	18.91	0
2	100693	19.01	0
2	101257	19.11	0
2	101821	19.21	0
2	102385	19.31	0
2	102949	19.41	0
2	103513	19.51	0
2	104077	19.61	0
2	104641	19.71	0
2	105205	19.81	0
2	105769	19.91	0
2	106342	20.01	0
2	106906	20.11	0
2	107470	20.21	0
2	108034	20.31	0
2	108598	20.41	0
2	109162	20.51	0
2	109726	20.61	0
2	110290	20.71	0
2	110854	20.81	0
2	111418	20.91	0
2	111991	21.01	0
2	112555	21.11	0
2	113119	21.21	0
2	113683	21.31	0
2	114247	21.41	0
2	114811	21.51	0
2	115375	21.61	0
2	115939	21.71	0
2	116503	21.81	0
2	117067	21.91	0
2	117640	22.01	0
2	118204	22.11	0
2	118768	22.21	0
2	119332	22.31	0
2	119896	22.41	0
2	120460	22.51	0
2	121024	22.61	0
2	121588	22.71	0
2	122152	22.81	0
2	122716	22.91	0
2	123289	23.01	0
2	123853	23.11	0
2	124417	23.21	0
2	124981	23.31	0
2	125545	23.41	0
2	126109	23.51	0
2	126673	23.61	0
2	127237	23.71	0
2	127801	23.81	0
2	128365	23.91	0
2	128938	24.01	0
2	129502	24.11	0
2	130066	24.21	0
2	130630	24.31	0
2	131194	24.41	0
2	131758	24.51	0
2	132322	24.61	0
2	132886	24.71	0
2	133450	24.81	0
2	134014	24.91	0
2	134587	25.01	0
2	135151	25.11	0
2	135715	25.21	0
2	136279	25.31	0
2	136843	25.41	0
2	137407	25.51	0
2	137971	25.61	0
2	138535	25.71	0
2	139099	25.81	0
2	139663	25.91	0
2	140236	26.01	0
2	140800	26.11	0
2	141364	26.21	0
2	141928	26.31	0
2	142492	26.41	0
2	143056	26.51	0
2	143620	26.61	0
2	144184	26.71	0
2	144748	26.81	0
2	145312	26.91	0
2	145885	27.01	0
2	146449	27.11	0
2	147013	27.21	0
2	147577	27.31	0
2	148141	27.41	0
2	148705	27.51	0
2	149269	27.61	0
2	149833	27.71	0
2	150397	27.81	0
2	150961	27.91	0
2	151534	28.01	0
2	152098	28.11	0
2	152662	28.21	0
2	153226	28.31	0
2	153790	28.41	0
2	154354	28.51	0
2	154918	28.61	0
2	155482	28.71	0
2	156046	28.81	0
2	156610	28.91	0
2	157183	29.01	0
2	157747	29.11	0
2	158311	29.21	0
2	158875	29.31	0
2	159439	29.41	0
2	160003	29.51	0
2	160567	29.61	0
2	161131	29.71	0
2	161695	29.81	0
2	162259	29.91	0
2	162832	30.01	0
2	163396	30.11	0
2	163960	30.21	0
2	164524	30.31	0
2	165088	30.41	0
2	165652	30.51	0
2	166216	30.61	0
2	166780	30.71	0
2	167344	30.81	0
2	167908	30.91	0
2	168481	31.01	0
2	169045	31.11	0
2	169609	31.21	0
2	170173	31.31	0
2	170737	31.41	0
2	171301	31.51	0
2	171865	31.61	0
2	172429	31.71	0
2	172993	31.81	0
2	173557	31.91	0
2	174130	32.01	0
2	174694	32.11	0
2	175258	32.21	0
2	175822	32.31	0
2	176386	32.41	0
2	176950	32.51	0
2	177514	32.61	0
2	178078	32.71	0
2	178642	32.81	0
2	179206	32.91	0
2	179779	33.01	0
2	180343	33.11	0
2	180907	33.21	0
2	181471	33.31	0
2	182035	33.41	0
2	182599	33.51	0
2	183163	33.61	0
2	183727	33.71	0
2	184291	33.81	0
2	184855	33.91	0
2	185428	34.01	0
2	185992	34.11	0
2	186556	34.21	0
2	187120	34.31	0
2	187684	34.41	0
2	188248	34.51	0
2	188812	34.61	0
2	189376	34.71	0
2	189940	34.81	0
2	190504	34.91	0
2	191077	35.01	0
2	191641	35.11	0
2	192205	35.21	0
2	192769	35.31	0
2	193333	35.41	0
2	193897	35.51	0
2	194461	35.61	0
2	195025	35.71	0
2	195589	35.81	0
2	196153	35.91	0
2	196726	36.01	0
2	197290	36.11	0
2	197854	36.21	0
2	198418	36.31	0
2	198982	36.41	0
2	199546	36.51	0
2	200110	36.61	0
2	200674	36.71	0
2	201238	36.81	0
2	201802	36.91	0
2	202375	37.01	0
2	202939	37.11	0
2	203503	37.21	0
2	204067	37.31	0
2	204631	37.41	0
2	205195	37.51	0
2	205759	37.61	0
2	206323	37.71	0
2	206887	37.81	0
2	207451	37.91	0
2	208024	38.01	0
2	208588	38.11	0
2	209152	38.21	0
2	209716	38.31	0
2	210280	38.41	0
2	210844	38.51	0
2	211408	38.61	0
2	211972	38.71	0
2	212536	38.81	0
2	213100	38.91	0
2	213673	39.01	0
2	214237	39.11	0
2	214801	39.21	0
2	215365	39.31	0
2	215929	39.41	0
2	216493	39.51	0
2	217057	39.61	0
2	217621	39.71	0
2	218185	39.81	0
2	218749	39.91	0
2	219322	40.01	0
2	219886	40.11	0
2	220450	40.21	0
2	221014	40.31	0
2	221578	40.41	0
2	222142	40.51	0
2	222706	40.61	0
2	223270	40.71	0
2	223834	40.81	0
2	224398	40.91	0
2	224971	41.01	0
2	225535	41.11	0
2	226099	41.21	0
2	226663	41.31	0
2	227227	41.41	0
2	227791	41.51	0
2	228355	41.61	0
2	228919	41.71	0
2	229483	41.81	0
2	230047	41.91	0
2	230620	42.01	0
2	231184	42.11	0
2	231748	42.21	0
2	232312	42.31	0
2	232876	42.41	0
2	233440	42.51	0
2	234004	42.61	0
2	234661	42.71	0
2	235224	42.81	0
2	235787	42.91	0
2	236359	43.01	0
2	236922	43.11	0
2	237485	43.21	0
2	238048	43.31	0
2	238611	43.41	0
2	239174	43.51	0
2	239737	43.61	0
2	240300	43.71	0
2	240863	43.81	0
2	241426	43.91	0
2	241998	44.01	0
2	242561	44.11	0
2	243124	44.21	0
2	243687	44.31	0
2	244250	44.41	0
2	244813	44.51	0
2	245376	44.61	0
2	245939	44.71	0
2	246502	44.81	0
2	247065	44.91	0
2	247637	45.01	0
2	248200	45.11	0
2	248763	45.21	0
2	249326	45.31	0
2	249889	45.41	0
2	250452	45.51	0
2	251015	45.61	0
2	251578	45.71	0
2	252141	45.81	0
2	252704	45.91	0
2	253276	46.01	0
2	253839	46.11	0
2	254402	46.21	0
2	254965	46.31	0
2	255528	46.41	0
2	256091	46.51	0
2	256654	46.61	0
2	257217	46.71	0
2	257780	46.81	0
2	258343	46.91	0
2	258915	47.01	0
2	259478	47.11	0
2	260041	47.21	0
2	260604	47.31	0
2	261167	47.41	0
2	261730	47.51	0
2	262293	47.61	0
2	262856	47.71	0
2	263419	47.81	0
2	263982	47.91	0
2	264554	48.01	0
2	265117	48.11	0
2	265680	48.21	0
2	266243	48.31	0
2	266806	48.41	0
2	267462	48.51	0
2	268024	48.61	0
2	268586	48.71	0
2	269148	48.81	0
2	269710	48.91	0
2	270281	49.01	0
2	270843	49.11	0
2	271405	49.21	0
2	271967	49.31	0
2	272529	49.41	0
2	273091	49.51	0
2	273653	49.61	0
2	274215	49.71	0
2	274777	49.81	0
2	275339	49.91	0
2	275910	50.01	0
2	276472	50.11	0
2	277034	50.21	0
2	277596	50.31	0
2	278158	50.41	0
2	278720	50.51	0
2	279282	50.61	0
2	279844	50.71	0
2	280406	50.81	0
2	280968	50.91	0
2	281539	51.01	0
2	282101	51.11	0
2	282663	51.21	0
2	283225	51.31	0
2	283787	51.41	0
2	284349	51.51	0
2	284911	51.61	0
2	285473	51.71	0
2	286035	51.81	0
2	286597	51.91	0
2	287168	52.01	0
2	287730	52.11	0
2	288292	52.21	0
2	288854	52.31	0
2	289416	52.41	0
2	289978	52.51	0
2	290540	52.61	0
2	291102	52.71	0
2	291664	52.81	0
2	292226	52.91	0
2	292797	53.01	0
2	293359	53.11	0
2	293921	53.21	0
2	294483	53.31	0
2	295045	53.41	0
2	295607	53.51	0
2	296169	53.61	0
2	296731	53.71	0
2	297386	53.81	0
2	297947	53.91	0
2	298517	54.01	0
2	299078	54.11	0
2	299639	54.21	0
2	300200	54.31	0
2	300761	54.41	0
2	301322	54.51	0
2	301883	54.61	0
2	302444	54.71	0
2	303005	54.81	0
2	303566	54.91	0
2	304136	55.01	0
2	304697	55.11	0
2	305258	55.21	0
2	305819	55.31	0
2	306380	55.41	0
2	306941	55.51	0
2	307502	55.61	0
2	308063	55.71	0
2	308624	55.81	0
2	309185	55.91	0
2	309755	56.01	0
2	310316	56.11	0
2	310877	56.21	0
2	311438	56.31	0
2	311999	56.41	0
2	312560	56.51	0
2	313121	56.61	0
2	313682	56.71	0
2	314243	56.81	0
2	314804	56.91	0
2	315374	57.01	0
2	315935	57.11	0
2	316496	57.21	0
2	317057	57.31	0
2	317618	57.41	0
2	318179	57.51	0
2	318740	57.61	0
2	319301	57.71	0
2	319862	57.81	0
2	320423	57.91	0
2	320993	58.01	0
2	321554	58.11	0
2	322115	58.21	0
2	322676	58.31	0
2	323237	58.41	0
2	323798	58.51	0
2	324452	58.61	0
2	325012	58.71	0
2	325572	58.81	0
2	326132	58.91	0
2	326701	59.01	0
2	327261	59.11	0
2	327821	59.21	0
2	328381	59.31	0
2	328941	59.41	0
2	329501	59.51	0
2	330061	59.61	0
2	330621	59.71	0
2	331181	59.81	0
2	331741	59.91	0
2	332310	60.01	0
2	332870	60.11	0
2	333430	60.21	0
2	333990	60.31	0
2	334550	60.41	0
2	335110	60.51	0
2	335670	60.61	0
2	336230	60.71	0
2	336790	60.81	0
2	337350	60.91	0
2	337919	61.01	0
2	338479	61.11	0
2	339039	61.21	0
2	339599	61.31	0
2	340159	61.41	0
2	340719	61.51	0
2	341279	61.61	0
2	341839	61.71	0
2	342399	61.81	0
2	342959	61.91	0
2	343528	62.01	0
2	344088	62.11	0
2	344648	62.21	0
2	345208	62.31	0
2	345768	62.41	0
2	346328	62.51	0
2	346888	62.61	0
2	347448	62.71	0
2	348008	62.81	0
2	348568	62.91	0
2	349137	63.01	0
2	349697	63.11	0
2	350257	63.21	0
2	350910	63.31	0
2	351469	63.41	0
2	352028	63.51	0
2	352587	63.61	0
2	353146	63.71	0
2	353705	63.81	0
2	354264	63.91	0
2	354832	64.01	0
2	355391	64.11	0
2	355950	64.21	0
2	356509	64.31	0
2	357068	64.41	0
2	357627	64.51	0
2	358186	64.61	0
2	358745	64.71	0
2	359304	64.81	0
2	359863	64.91	0
2	360431	65.01	0
2	360990	65.11	0
2	361549	65.21	0
2	362108	65.31	0
2	362667	65.41	0
2	363226	65.51	0
2	363785	65.61	0
2	364344	65.71	0
2	364903	65.81	0
2	365462	65.91	0
2	366030	66.01	0
2	366589	66.11	0
2	367148	66.21	0
2	367707	66.31	0
2	368266	66.41	0
2	368825	66.51	0
2	369384	66.61	0
2	369943	66.71	0
2	370502	66.81	0
2	371061	66.91	0
2	371629	67.01	0
2	372188	67.11	0
2	372747	67.21	0
2	373306	67.31	0
2	373865	67.41	0
2	374424	67.51	0
2	374983	67.61	0
2	375635	67.71	0
2	376193	67.81	0
2	376751	67.91	0
2	377318	68.01	0
2	377876	68.11	0
2	378434	68.21	0
2	378992	68.31	0
2	379550	68.41	0
2	380108	68.51	0
2	380666	68.61	0
2	381224	68.71	0
2	381782	68.81	0
2	382340	68.91	0
2	382907	69.01	0
2	383465	69.11	0
2	384023	69.21	0
2	384581	69.31	0
2	385139	69.41	0
2	385697	69.51	0
2	386255	69.61	0
2	386813	69.71	0
2	387371	69.81	0
2	387929	69.91	0
2	388496	70.01	0
2	389054	70.11	0
2	389612	70.21	0
2	390170	70.31	0
2	390728	70.41	0
2	391286	70.51	0
2	391844	70.61	0
2	392402	70.71	0
2	392960	70.81	0
2	393518	70.91	0
2	394085	71.01	0
2	394643	71.11	0
2	395201	71.21	0
2	395759	71.31	0
2	396317	71.41	0
2	396875	71.51	0
2	397433	71.61	0
2	397991	71.71	0
2	398549	71.81	0
2	399107	71.91	0
2	400418	72.01	0
2	400975	72.11	0
2	401532	72.21	0
2	402089	72.31	0
2	402646	72.41	0
2	403203	72.51	0
2	403760	72.61	0
2	404317	72.71	0
2	404874	72.81	0
2	405431	72.91	0
2	405997	73.01	0
2	406554	73.11	0
2	407111	73.21	0
2	407668	73.31	0
2	408225	73.41	0
2	408782	73.51	0
2	409339	73.61	0
2	409896	73.71	0
2	410453	73.81	0
2	411010	73.91	0
2	411576	74.01	0
2	412133	74.11	0
2	412690	74.21	0
2	413247	74.31	0
2	413804	74.41	0
2	414361	74.51	0
2	414918	74.61	0
2	415475	74.71	0
2	416032	74.81	0
2	416589	74.91	0
2	417155	75.01	0
2	417712	75.11	0
2	418269	75.21	0
2	418826	75.31	0
2	419383	75.41	0
2	419940	75.51	0
2	420497	75.61	0
2	421054	75.71	0
2	421611	75.81	0
2	422168	75.91	0
2	422734	76.01	0
2	423291	76.11	0
2	423848	76.21	0
2	424405	76.31	0
2	424962	76.41	0
2	425519	76.51	0
2	426076	76.61	0
2	426633	76.71	0
2	427190	76.81	0
2	427747	76.91	0
2	428313	77.01	0
2	428870	77.11	0
2	429427	77.21	0
2	429984	77.31	0
2	430541	77.41	0
2	431098	77.51	0
2	431655	77.61	0
2	432212	77.71	0
2	432769	77.81	0
2	433326	77.91	0
2	433892	78.01	0
2	434449	78.11	0
2	435006	78.21	0
2	435563	78.31	0
2	436120	78.41	0
2	436677	78.51	0
2	437234	78.61	0
2	437791	78.71	0
2	438348	78.81	0
2	438905	78.91	0
2	439471	79.01	0
2	440028	79.11	0
2	440585	79.21	0
2	441142	79.31	0
2	441699	79.41	0
2	442256	79.51	0
2	442813	79.61	0
2	443370	79.71	0
2	443927	79.81	0
2	444484	79.91	0
2	445050	80.01	0
2	445607	80.11	0
2	446164	80.21	0
2	446721	80.31	0
2	447278	80.41	0
2	447835	80.51	0
2	448392	80.61	0
2	448949	80.71	0
2	449506	80.81	0
2	450063	80.91	0
2	450629	81.01	0
2	451186	81.11	0
2	451743	81.21	0
2	452300	81.31	0
2	452857	81.41	0
2	453414	81.51	0
2	453971	81.61	0
2	454528	81.71	0
2	455085	81.81	0
2	455642	81.91	0
2	456208	82.01	0
2	456765	82.11	0
2	457322	82.21	0
2	457879	82.31	0
2	458436	82.41	0
2	458993	82.51	0
2	459550	82.61	0
2	460107	82.71	0
2	460664	82.81	0
2	461221	82.91	0
2	461787	83.01	0
2	462344	83.11	0
2	462901	83.21	0
2	463458	83.31	0
2	464015	83.41	0
2	464572	83.51	0
2	465129	83.61	0
2	465686	83.71	0
2	466243	83.81	0
2	466800	83.91	0
2	467366	84.01	0
2	467923	84.11	0
2	468480	84.21	0
2	469037	84.31	0
2	469594	84.41	0
2	470151	84.51	0
2	470708	84.61	0
2	471265	84.71	0
2	471822	84.81	0
2	472379	84.91	0
2	472945	85.01	0
2	473502	85.11	0
2	474059	85.21	0
2	474616	85.31	0
2	475173	85.41	0
2	475730	85.51	0
2	476287	85.61	0
2	476844	85.71	0
2	477401	85.81	0
2	477958	85.91	0
2	478524	86.01	0
2	479081	86.11	0
2	479638	86.21	0
2	480195	86.31	0
2	480752	86.41	0
2	481309	86.51	0
2	481866	86.61	0
2	482423	86.71	0
2	482980	86.81	0
2	483537	86.91	0
2	484103	87.01	0
2	484660	87.11	0
2	485217	87.21	0
2	485774	87.31	0
2	486331	87.41	0
2	486888	87.51	0
2	487445	87.61	0
2	488002	87.71	0
2	488559	87.81	0
2	489116	87.91	0
2	489682	88.01	0
2	490239	88.11	0
2	490796	88.21	0
2	491353	88.31	0
2	491910	88.41	0
2	492467	88.51	0
2	493024	88.61	0
2	493581	88.71	0
2	494138	88.81	0
2	494695	88.91	0
2	495261	89.01	0
2	495818	89.11	0
2	496375	89.21	0
2	496932	89.31	0
2	497489	89.41	0
2	498046	89.51	0
2	498603	89.61	0
2	499160	89.71	0
2	499717	89.81	0
2	500274	89.91	0
2	500840	90.01	0
2	501397	90.11	0
2	501954	90.21	0
2	502511	90.31	0
2	503068	90.41	0
2	503625	90.51	0
2	504182	90.61	0
2	504739	90.71	0
2	505296	90.81	0
2	505853	90.91	0
2	506419	91.01	0
2	506976	91.11	0
2	507533	91.21	0
2	508090	91.31	0
2	508647	91.41	0
2	509204	91.51	0
2	509761	91.61	0
2	510318	91.71	0
2	510875	91.81	0
2	511432	91.91	0
2	511998	92.01	0
2	512555	92.11	0
2	513112	92.21	0
2	513669	92.31	0
2	514226	92.41	0
2	514783	92.51	0
2	515340	92.61	0
2	515897	92.71	0
2	516454	92.81	0
2	517011	92.91	0
2	517577	93.01	0
2	518134	93.11	0
2	518691	93.21	0
2	519248	93.31	0
2	519805	93.41	0
2	520362	93.51	0
2	520919	93.61	0
2	521476	93.71	0
2	522033	93.81	0
2	522590	93.91	0
2	523156	94.01	0
2	523713	94.11	0
2	524270	94.21	0
2	524827	94.31	0
2	525384	94.41	0
2	525941	94.51	0
2	526498	94.61	0
2	527055	94.71	0
2	527612	94.81	0
2	528169	94.91	0
2	528735	95.01	0
2	529292	95.11	0
2	529849	95.21	0
2	530406	95.31	0
2	530963	95.41	0
2	531520	95.51	0
2	532077	95.61	0
2	532634	95.71	0
2	533191	95.81	0
2	533748	95.91	0
2	534314	96.01	0
2	534871	96.11	0
2	535428	96.21	0
2	535985	96.31	0
2	536542	96.41	0
2	537099	96.51	0
2	537656	96.61	0
2	538213	96.71	0
2	538770	96.81	0
2	539327	96.91	0
2	539893	97.01	0
2	540450	97.11	0
2	541007	97.21	0
2	541564	97.31	0
2	542121	97.41	0
2	542678	97.51	0
2	543235	97.61	0
2	543792	97.71	0
2	544349	97.81	0
2	544906	97.91	0
2	545472	98.01	0
2	546029	98.11	0
2	546586	98.21	0
2	547143	98.31	0
2	547700	98.41	0
2	548257	98.51	0
2	548814	98.61	0
2	549371	98.71	0
2	549928	98.81	0
2	550485	98.91	0
2	551051	99.01	0
2	551608	99.11	0
2	552165	99.21	0
2	552722	99.31	0
2	553279	99.41	0
2	553836	99.51	0
2	554393	99.61	0
2	554950	99.71	0
2	555507	99.81	0
2	556064	99.91	0
3	113	1.11	-0.000716383
3	670	1.21	-0.00136341
3	1227	1.31	-0.00186974
3	1784	1.41	-0.00225157
3	2341	1.51	-0.00252443
3	2898	1.61	-0.00270298
3	3455	1.71	-0.00280098
3	4012	1.81	-0.00283113
3	4569	1.91	-0.00280509
3	5135	2.01	-0.00273342
3	5692	2.11	-0.00262559
3	6249	2.21	-0.00249005
3	6806	2.31	-0.00233419
3	7363	2.41	-0.00216447
3	7920	2.51	-0.00198642
3	8477	2.61	-0.00180472
3	9034	2.71	-0.0016233
3	9591	2.81	-0.00144536
3	10148	2.91	-0.00127346
3	10714	3.01	-0.0011096
3	11271	3.11	-0.000955278
3	11828	3.21	-0.000811546
3	12385	3.31	-0.00067908
3	12942	3.41	-0.000558232
3	13499	3.51	-0.000449082
3	14056	3.61	-0.000351487
3	14613	3.71	-0.00026512
3	15170	3.81	-0.000189514
3	15727	3.91	-0.000124092
3	16293	4.01	-6.81972e-05
3	16850	4.11	-2.11209e-05
3	17407	4.21	1.78769e-05
3	17964	4.31	4.9548e-05
3	18521	4.41	7.46407e-05
3	19078	4.51	9.38867e-05
3	19635	4.61	0.000107991
3	20192	4.71	0.000117625
3	20749	4.81	0.000123418
3	21306	4.91	0.000125957
3	21872	5.01	0.000125781
3	22429	5.11	0.00012338
3	22986	5.21	0.000119198
3	23543	5.31	0.000113629
3	24100	5.41	0.000107022
3	24657	5.51	9.96832e-05
3	25214	5.61	9.18747e-05
3	25771	5.71	8.38211e-05
3	26328	5.81	7.57109e-05
3	26885	5.91	6.76999e-05
3	27451	6.01	5.99137e-05
3	28008	6.11	5.24518e-05
3	28565	6.21	4.53896e-05
3	29122	6.31	3.87821e-05
3	29679	6.41	3.2666e-05
3	30236	6.51	2.70628e-05
3	30793	6.61	2.19809e-05
3	31350	6.71	1.74176e-05
3	31907	6.81	1.33618e-05
3	32464	6.91	9.79494e-06
3	33030	7.01	6.6932e-06
3	33587	7.11	4.02864e-06
3	34144	7.21	1.77051e-06
3	34701	7.31	-1.13691e-07
3	35258	7.41	-1.65736e-06
3	35815	7.51	-2.89397e-06
3	36372	7.61	-3.85652e-06
3	36929	7.71	-4.57698e-06
3	37486	7.81	-5.08591e-06
3	38043	7.91	-5.41219e-06
3	38609	8.01	-5.58279e-06
3	39166	8.11	-5.6226e-06
3	39723	8.21	-5.55442e-06
3	40280	8.31	-5.39886e-06
3	40837	8.41	-5.17441e-06
3	41394	8.51	-4.89748e-06
3	41951	8.61	-4.58246e-06
3	42508	8.71	-4.24184e-06
3	43065	8.81	-3.88634e-06
3	43622	8.91	-3.52499e-06
3	44188	9.01	-3.16534e-06
3	44745	9.11	-2.81353e-06
3	45302	9.21	-2.47446e-06
3	45859	9.31	-2.15192e-06
3	46416	9.41	-1.84873e-06
3	46973	9.51	-1.56685e-06
3	47530	9.61	-1.30751e-06
3	48087	9.71	-1.0713e-06
3	48644	9.81	-8.58321e-07
3	49201	9.91	-6.68206e-07
3	49852	10.01	-5.0026e-07
3	50416	10.11	-3.53514e-07
3	50980	10.21	-2.2679e-07
3	51544	10.31	-1.18765e-07
3	52108	10.41	-2.80163e-08
3	52672	10.51	4.6931e-08
3	53236	10.61	1.07573e-07
3	53800	10.71	1.55391e-07
3	54364	10.81	1.91831e-07
3	54928	10.91	2.18284e-07
3	55501	11.01	2.3607e-07
3	56065	11.11	2.46427e-07
3	56629	11.21	2.50502e-07
3	57193	11.31	2.49353e-07
3	57757	11.41	2.43938e-07
3	58321	11.51	2.3512e-07
3	58885	11.61	2.23669e-07
3	59449	11.71	2.10264e-07
3	60013	11.81	1.95496e-07
3	60577	11.91	1.79874e-07
3	61150	12.01	1.63833e-07
3	61714	12.11	1.47736e-07
3	62278	12.21	1.3188e-07
3	62842	12.31	1.16508e-07
3	63406	12.41	1.01807e-07
3	63970	12.51	8.79222e-08
3	64534	12.61	7.49541e-08
3	65098	12.71	6.29711e-08
3	65662	12.81	5.20114e-08
3	66226	12.91	4.20883e-08
3	66799	13.01	3.3193e-08
3	67363	13.11	2.53003e-08
3	67927	13.21	1.83718e-08
3	68491	13.31	1.23581e-08
3	69055	13.41	7.20348e-09
3	69619	13.51	2.84537e-09
3	70183	13.61	-7.80886e-10
3	70747	13.71	-3.74136e-09
3	71311	13.81	-6.10285e-09
3	71875	13.91	-7.93072e-09
3	72448	14.01	-9.28821e-09
3	73012	14.11	-1.0235e-08
3	73576	14.21	-1.08283e-08
3	74140	14.31	-1.11211e-08
3	74704	14.41	-1.11612e-08
3	75268	14.51	-1.09946e-08
3	75832	14.61	-1.06599e-08
3	76396	14.71	-1.01945e-08
3	76960	14.81	-9.62999e-09
3	77524	14.91	-8.99405e-09
3	78097	15.01	-8.31086e-09
3	78661	15.11	-7.60103e-09
3	79225	15.21	-6.88338e-09
3	79789	15.31	-6.17071e-09
3	80353	15.41	-5.47544e-09
3	80917	15.51	-4.80682e-09
3	81481	15.61	-4.17266e-09
3	82045	15.71	-3.57687e-09
3	82609	15.81	-3.02443e-09
3	83173	15.91	-2.51674e-09
3	83746	16.01	-2.05489e-09
3	84310	16.11	-1.63958e-09
3	84874	16.21	-1.26903e-09
3	85438	16.31	-9.42535e-10
3	86002	16.41	-6.57963e-10
3	86566	16.51	-4.1247e-10
3	87130	16.61	-2.04636e-10
3	87694	16.71	-2.91323e-11
3	88258	16.81	1.14753e-10
3	88822	16.91	2.30926e-10
3	89395	17.01	3.22231e-10
3	89959	17.11	3.91154e-10
3	90523	17.21	4.40892e-10
3	91087	17.31	4.73577e-10
3	91651	17.41	4.92051e-10
3	92215	17.51	4.98446e-10
3	92779	17.61	4.94893e-10
3	93343	17.71	4.82814e-10
3	93907	17.81	4.6434e-10
3	94471	17.91	4.40892e-10
3	95044	18.01	4.13536e-10
3	95608	18.11	3.83693e-10
3	96172	18.21	3.51719e-10
3	96736	18.31	3.19744e-10
3	97300	18.41	2.8777e-10
3	97864	18.51	2.55795e-10
3	98428	18.61	2.25953e-10
3	98992	18.71	1.97531e-10
3	99556	18.81	1.6982e-10
3	100120	18.91	1.44951e-10
3	100693	19.01	1.21503e-10
3	101257	19.11	1.00187e-10
3	101821	19.21	8.10019e-11
3	102385	19.31	6.32383e-11
3	102949	19.41	4.86722e-11
3	103513	19.51	3.44613e-11
3	104077	19.61	2.34479e-11
3	104641	19.71	1.27898e-11
3	105205	19.81	4.9738e-12
3	105769	19.91	-2.13163e-12
3	106342	20.01	-8.17124e-12
3	106906	20.11	-1.1724e-11
3	107470	20.21	-1.52767e-11
3	108034	20.31	-1.88294e-11
3	108598	20.41	-2.02505e-11
3	109162	20.51	-2.02505e-11
3	109726	20.61	-2.02505e-11
3	110290	20.71	-2.02505e-11
3	110854	20.81	-2.02505e-11
3	111418	20.91	-2.02505e-11
3	111991	21.01	-2.02505e-11
3	112555	21.11	-2.02505e-11
3	113119	21.21	-2.02505e-11
3	113683	21.31	-1.88294e-11
3	114247	21.41	-1.7053e-11
3	114811	21.51	-1.52767e-11
3	115375	21.61	-1.38556e-11
3	115939	21.71	-1.24345e-11
3	116503	21.81	-1.13687e-11
3	117067	21.91	-1.03029e-11
3	117640	22.01	-9.23706e-12
3	118204	22.11	-8.52651e-12
3	118768	22.21	-7.4607e-12
3	119332	22.31	-6.75016e-12
3	119896	22.41	-6.03961e-12
3	120460	22.51	-5.68434e-12
3	121024	22.61	-4.9738e-12
3	121588	22.71	-4.61853e-12
3	122152	22.81	-4.26326e-12
3	122716	22.91	-3.90799e-12
3	123289	23.01	-3.55271e-12
3	123853	23.11	-3.19744e-12
3	124417	23.21	-2.84217e-12
3	124981	23.31	-2.4869e-12
3	125545	23.41	-2.13163e-12
3	126109	23.51	-2.13163e-12
3	126673	23.61	-1.77636e-12
3	127237	23.71	-1.77636e-12
3	127801	23.81	-1.42109e-12
3	128365	23.91	-1.42109e-12
3	128938	24.01	-1.06581e-12
3	129502	24.11	-1.06581e-12
3	130066	24.21	-1.06581e-12
3	130630	24.31	-1.06581e-12
3	131194	24.41	-7.10543e-13
3	131758	24.51	-7.10543e-13
3	132322	24.61	-7.10543e-13
3	132886	24.71	-7.10543e-13
3	133450	24.81	-7.10543e-13
3	134014	24.91	-3.55271e-13
3	134587	25.01	-3.55271e-13
3	135151	25.11	-3.55271e-13
3	135715	25.21	-3.55271e-13
3	136279	25.31	-3.55271e-13
3	136843	25.41	-3.55271e-13
3	137407	25.51	-3.55271e-13
3	137971	25.61	-3.55271e-13
3	138535	25.71	-3.55271e-13
3	139099	25.81	-3.55271e-13
3	139663	25.91	0
3	140236	26.01	0
3	140800	26.11	0
3	141364	26.21	0
3	141928	26.31	0
3	142492	26.41	0
3	143056	26.51	0
3	143620	26.61	0
3	144184	26.71	0
3	144748	26.81	0
3	145312	26.91	0
3	145885	27.01	0
3	146449	27.11	0
3	147013	27.21	0
3	147577	27.31	0
3	148141	27.41	0
3	148705	27.51	0
3	149269	27.61	0
3	149833	27.71	0
3	150397	27.81	0
3	150961	27.91	0
3	151534	28.01	0
3	152098	28.11	0
3	152662	28.21	0
3	153226	28.31	0
3	153790	28.41	0
3	154354	28.51	0
3	154918	28.61	0
3	155482	28.71	0
3	156046	28.81	0
3	156610	28.91	0
3	157183	29.01	0
3	157747	29.11	0
3	158311	29.21	0
3	158875	29.31	0
3	159439	29.41	0
3	160003	29.51	0
3	160567	29.61	0
3	161131	29.71	0
3	161695	29.81	0
3	162259	29.91	0
3	162832	30.01	0
3	163396	30.11	0
3	163960	30.21	0
3	164524	30.31	0
3	165088	30.41	0
3	165652	30.51	0
3	166216	30.61	0
3	166780	30.71	0
3	167344	30.81	0
3	167908	30.91	0
3	168481	31.01	0
3	169045	31.11	0
3	169609	31.21	0
3	170173	31.31	0
3	170737	31.41	0
3	171301	31.51	0
3	171865	31.61	0
3	172429	31.71	0
3	172993	31.81	0
3	173557	31.91	0
3	174130	32.01	0
3	174694	32.11	0
3	175258	32.21	0
3	175822	32.31	0
3	176386	32.41	0
3	176950	32.51	0
3	177514	32.61	0
3	178078	32.71	0
3	178642	32.81	0
3	179206	32.91	0
3	179779	33.01	0
3	180343	33.11	0
3	180907	33.21	0
3	181471	33.31	0
3	182035	33.41	0
3	182599	33.51	0
3	183163	33.61	0
3	183727	33.71	0
3	184291	33.81	0
3	184855	33.91	0
3	185428	34.01	0
3	185992	34.11	0
3	186556	34.21	0
3	187120	34.31	0
3	187684	34.41	0
3	188248	34.51	0
3	188812	34.61	0
3	189376	34.71	0
3	189940	34.81	0
3	190504	34.91	0
3	191077	35.01	0
3	191641	35.11	0
3	192205	35.21	0
3	192769	35.31	0
3	193333	35.41	0
3	193897	35.51	0
3	194461	35.61	0
3	195025	35.71	0
3	195589	35.81	0
3	196153	35.91	0
3	196726	36.01	0
3	197290	36.11	0
3	197854	36.21	0
3	198418	36.31	0
3	198982	36.41	0
3	199546	36.51	0
3	200110	36.61	0
3	200674	36.71	0
3	201238	36.81	0
3	201802	36.91	0
3	202375	37.01	0
3	202939	37.11	0
3	203503	37.21	0
3	204067	37.31	0
3	204631	37.41	0
3	205195	37.51	0
3	205759	37.61	0
3	206323	37.71	0
3	206887	37.81	0
3	207451	37.91	0
3	208024	38.01	0
3	208588	38.11	0
3	209152	38.21	0
3	209716	38.31	0
3	210280	38.41	0
3	210844	38.51	0
3	211408	38.61	0
3	211972	38.71	0
3	212536	38.81	0
3	213100	38.91	0
3	213673	39.01	0
3	214237	39.11	0
3	214801	39.21	0
3	215365	39.31	0
3	215929	39.41	0
3	216493	39.51	0
3	217057	39.61	0
3	217621	39.71	0
3	218185	39.81	0
3	218749	39.91	0
3	219322	40.01	0
3	219886	40.11	0
3	220450	40.21	0
3	221014	40.31	0
3	221578	40.41	0
3	222142	40.51	0
3	222706	40.61	0
3	223270	40.71	0
3	223834	40.81	0
3	224398	40.91	0
3	224971	41.01	0
3	225535	41.11	0
3	226099	41.21	0
3	226663	41.31	0
3	227227	41.41	0
3	227791	41.51	0
3	228355	41.61	0
3	228919	41.71	0
3	229483	41.81	0
3	230047	41.91	0
3	230620	42.01	0
3	231184	42.11	0
3	231748	42.21	0
3	232312	42.31	0
3	232876	42.41	0
3	233440	42.51	0
3	234004	42.61	0
3	234661	42.71	0
3	235224	42.81	0
3	235787	42.91	0
3	236359	43.01	0
3	236922	43.11	0
3	237485	43.21	0
3	238048	43.31	0
3	238611	43.41	0
3	239174	43.51	0
3	239737	43.61	0
3	240300	43.71	0
3	240863	43.81	0
3	241426	43.91	0
3	241998	44.01	0
3	242561	44.11	0
3	243124	44.21	0
3	243687	44.31	0
3	244250	44.41	0
3	244813	44.51	0
3	245376	44.61	0
3	245939	44.71	0
3	246502	44.81	0
3	247065	44.91	0
3	247637	45.01	0
3	248200	45.11	0
3	248763	45.21	0
3	249326	45.31	0
3	249889	45.41	0
3	250452	45.51	0
3	251015	45.61	0
3	251578	45.71	0
3	252141	45.81	0
3	252704	45.91	0
3	253276	46.01	0
3	253839	46.11	0
3	254402	46.21	0
3	254965	46.31	0
3	255528	46.41	0
3	256091	46.51	0
3	256654	46.61	0
3	257217	46.71	0
3	257780	46.81	0
3	258343	46.91	0
3	258915	47.01	0
3	259478	47.11	0
3	260041	47.21	0
3	260604	47.31	0
3	261167	47.41	0
3	261730	47.51	0
3	262293	47.61	0
3	262856	47.71	0
3	263419	47.81	0
3	263982	47.91	0
3	264554	48.01	0
3	265117	48.11	0
3	265680	48.21	0
3	266243	48.31	0
3	266806	48.41	0
3	267462	48.51	0
3	268024	48.61	0
3	268586	48.71	0
3	269148	48.81	0
3	269710	48.91	0
3	270281	49.01	0
3	270843	49.11	0
3	271405	49.21	0
3	271967	49.31	0
3	272529	49.41	0
3	273091	49.51	0
3	273653	49.61	0
3	274215	49.71	0
3	274777	49.81	0
3	275339	49.91	0
3	275910	50.01	0
3	276472	50.11	0
3	277034	50.21	0
3	277596	50.31	0
3	278158	50.41	0
3	278720	50.51	0
3	279282	50.61	0
3	279844	50.71	0
3	280406	50.81	0
3	280968	50.91	0
3	281539	51.01	0
3	282101	51.11	0
3	282663	51.21	0
3	283225	51.31	0
3	283787	51.41	0
3	284349	51.51	0
3	284911	51.61	0
3	285473	51.71	0
3	286035	51.81	0
3	286597	51.91	0
3	287168	52.01	0
3	287730	52.11	0
3	288292	52.21	0
3	288854	52.31	0
3	289416	52.41	0
3	289978	52.51	0
3	290540	52.61	0
3	291102	52.71	0
3	291664	52.81	0
3	292226	52.91	0
3	292797	53.01	0
3	293359	53.11	0
3	293921	53.21	0
3	294483	53.31	0
3	295045	53.41	0
3	295607	53.51	0
3	296169	53.61	0
3	296731	53.71	0
3	297386	53.81	0
3	297947	53.91	0
3	298517	54.01	0
3	299078	54.11	0
3	299639	54.21	0
3	300200	54.31	0
3	300761	54.41	0
3	301322	54.51	0
3	301883	54.61	0
3	302444	54.71	0
3	303005	54.81	0
3	303566	54.91	0
3	304136	55.01	0
3	304697	55.11	0
3	305258	55.21	0
3	305819	55.31	0
3	306380	55.41	0
3	306941	55.51	0
3	307502	55.61	0
3	308063	55.71	0
3	308624	55.81	0
3	309185	55.91	0
3	309755	56.01	0
3	310316	56.11	0
3	310877	56.21	0
3	311438	56.31	0
3	311999	56.41	0
3	312560	56.51	0
3	313121	56.61	0
3	313682	56.71	0
3	314243	56.81	0
3	314804	56.91	0
3	315374	57.01	0
3	315935	57.11	0
3	316496	57.21	0
3	317057	57.31	0
3	317618	57.41	0
3	318179	57.51	0
3	318740	57.61	0
3	319301	57.71	0
3	319862	57.81	0
3	320423	57.91	0
3	320993	58.01	0
3	321554	58.11	0
3	322115	58.21	0
3	322676	58.31	0
3	323237	58.41	0
3	323798	58.51	0
3	324452	58.61	0
3	325012	58.71	0
3	325572	58.81	0
3	326132	58.91	0
3	326701	59.01	0
3	327261	59.11	0
3	327821	59.21	0
3	328381	59.31	0
3	328941	59.41	0
3	329501	59.51	0
3	330061	59.61	0
3	330621	59.71	0
3	331181	59.81	0
3	331741	59.91	0
3	332310	60.01	0
3	332870	60.11	0
3	333430	60.21	0
3	333990	60.31	0
3	334550	60.41	0
3	335110	60.51	0
3	335670	60.61	0
3	336230	60.71	0
3	336790	60.81	0
3	337350	60.91	0
3	337919	61.01	0
3	338479	61.11	0
3	339039	61.21	0
3	339599	61.31	0
3	340159	61.41	0
3	340719	61.51	0
3	341279	61.61	0
3	341839	61.71	0
3	342399	61.81	0
3	342959	61.91	0
3	343528	62.01	0
3	344088	62.11	0
3	344648	62.21	0
3	345208	62.31	0
3	345768	62.41	0
3	346328	62.51	0
3	346888	62.61	0
3	347448	62.71	0
3	348008	62.81	0
3	348568	62.91	0
3	349137	63.01	0
3	349697	63.11	0
3	350257	63.21	0
3	350910	63.31	0
3	351469	63.41	0
3	352028	63.51	0
3	352587	63.61	0
3	353146	63.71	0
3	353705	63.81	0
3	354264	63.91	0
3	354832	64.01	0
3	355391	64.11	0
3	355950	64.21	0
3	356509	64.31	0
3	357068	64.41	0
3	357627	64.51	0
3	358186	64.61	0
3	358745	64.71	0
3	359304	64.81	0
3	359863	64.91	0
3	360431	65.01	0
3	360990	65.11	0
3	361549	65.21	0
3	362108	65.31	0
3	362667	65.41	0
3	363226	65.51	0
3	363785	65.61	0
3	364344	65.71	0
3	364903	65.81	0
3	365462	65.91	0
3	366030	66.01	0
3	366589	66.11	0
3	367148	66.21	0
3	367707	66.31	0
3	368266	66.41	0
3	368825	66.51	0
3	369384	66.61	0
3	369943	66.71	0
3	370502	66.81	0
3	371061	66.91	0
3	371629	67.01	0
3	372188	67.11	0
3	372747	67.21	0
3	373306	67.31	0
3	373865	67.41	0
3	374424	67.51	0
3	374983	67.61	0
3	375635	67.71	0
3	376193	67.81	0
3	376751	67.91	0
3	377318	68.01	0
3	377876	68.11	0
3	378434	68.21	0
3	378992	68.31	0
3	379550	68.41	0
3	380108	68.51	0
3	380666	68.61	0
3	381224	68.71	0
3	381782	68.81	0
3	382340	68.91	0
3	382907	69.01	0
3	383465	69.11	0
3	384023	69.21	0
3	384581	69.31	0
3	385139	69.41	0
3	385697	69.51	0
3	386255	69.61	0
3	386813	69.71	0
3	387371	69.81	0
3	387929	69.91	0
3	388496	70.01	0
3	389054	70.11	0
3	389612	70.21	0
3	390170	70.31	0
3	390728	70.41	0
3	391286	70.51	0
3	391844	70.61	0
3	392402	70.71	0
3	392960	70.81	0
3	393518	70.91	0
3	394085	71.01	0
3	394643	71.11	0
3	395201	71.21	0
3	395759	71.31	0
3	396317	71.41	0
3	396875	71.51	0
3	397433	71.61	0
3	397991	71.71	0
3	398549	71.81	0
3	399107	71.91	0
3	400418	72.01	0
3	400975	72.11	0
3	401532	72.21	0
3	402089	72.31	0
3	402646	72.41	0
3	403203	72.51	0
3	403760	72.61	0
3	404317	72.71	0
3	404874	72.81	0
3	405431	72.91	0
3	405997	73.01	0
3	406554	73.11	0
3	407111	73.21	0
3	407668	73.31	0
3	408225	73.41	0
3	408782	73.51	0
3	409339	73.61	0
3	409896	73.71	0
3	410453	73.81	0
3	411010	73.91	0
3	411576	74.01	0
3	412133	74.11	0
3	412690	74.21	0
3	413247	74.31	0
3	413804	74.41	0
3	414361	74.51	0
3	414918	74.61	0
3	415475	74.71	0
3	416032	74.81	0
3	416589	74.91	0
3	417155	75.01	0
3	417712	75.11	0
3	418269	75.21	0
3	418826	75.31	0
3	419383	75.41	0
3	419940	75.51	0
3	420497	75.61	0
3	421054	75.71	0
3	421611	75.81	0
3	422168	75.91	0
3	422734	76.01	0
3	423291	76.11	0
3	423848	76.21	0
3	424405	76.31	0
3	424962	76.41	0
3	425519	76.51	0
3	426076	76.61	0
3	426633	76.71	0
3	427190	76.81	0
3	427747	76.91	0
3	428313	77.01	0
3	428870	77.11	0
3	429427	77.21	0
3	429984	77.31	0
3	430541	77.41	0
3	431098	77.51	0
3	431655	77.61	0
3	432212	77.71	0
3	432769	77.81	0
3	433326	77.91	0
3	433892	78.01	0
3	434449	78.11	0
3	435006	78.21	0
3	435563	78.31	0
3	436120	78.41	0
3	436677	78.51	0
3	437234	78.61	0
3	437791	78.71	0
3	438348	78.81	0
3	438905	78.91	0
3	439471	79.01	0
3	440028	79.11	0
3	440585	79.21	0
3	441142	79.31	0
3	441699	79.41	0
3	442256	79.51	0
3	442813	79.61	0
3	443370	79.71	0
3	443927	79.81	0
3	444484	79.91	0
3	445050	80.01	0
3	445607	80.11	0
3	446164	80.21	0
3	446721	80.31	0
3	447278	80.41	0
3	447835	80.51	0
3	448392	80.61	0
3	448949	80.71	0
3	449506	80.81	0
3	450063	80.91	0
3	450629	81.01	0
3	451186	81.11	0
3	451743	81.21	0
3	452300	81.31	0
3	452857	81.41	0
3	453414	81.51	0
3	453971	81.61	0
3	454528	81.71	0
3	455085	81.81	0
3	455642	81.91	0
3	456208	82.01	0
3	456765	82.11	0
3	457322	82.21	0
3	457879	82.31	0
3	458436	82.41	0
3	458993	82.51	0
3	459550	82.61	0
3	460107	82.71	0
3	460664	82.81	0
3	461221	82.91	0
3	461787	83.01	0
3	462344	83.11	0
3	462901	83.21	0
3	463458	83.31	0
3	464015	83.41	0
3	464572	83.51	0
3	465129	83.61	0
3	465686	83.71	0
3	466243	83.81	0
3	466800	83.91	0
3	467366	84.01	0
3	467923	84.11	0
3	468480	84.21	0
3	469037	84.31	0
3	469594	84.41	0
3	470151	84.51	0
3	470708	84.61	0
3	471265	84.71	0
3	471822	84.81	0
3	472379	84.91	0
3	472945	85.01	0
3	473502	85.11	0
3	474059	85.21	0
3	474616	85.31	0
3	475173	85.41	0
3	475730	85.51	0
3	476287	85.61	0
3	476844	85.71	0
3	477401	85.81	0
3	477958	85.91	0
3	478524	86.01	0
3	479081	86.11	0
3	479638	86.21	0
3	480195	86.31	0
3	480752	86.41	0
3	481309	86.51	0
3	481866	86.61	0
3	482423	86.71	0
3	482980	86.81	0
3	483537	86.91	0
3	484103	87.01	0
3	484660	87.11	0
3	485217	87.21	0
3	485774	87.31	0
3	486331	87.41	0
3	486888	87.51	0
3	487445	87.61	0
3	488002	87.71	0
3	488559	87.81	0
3	489116	87.91	0
3	489682	88.01	0
3	490239	88.11	0
3	490796	88.21	0
3	491353	88.31	0
3	491910	88.41	0
3	492467	88.51	0
3	493024	88.61	0
3	493581	88.71	0
3	494138	88.81	0
3	494695	88.91	0
3	495261	89.01	0
3	495818	89.11	0
3	496375	89.21	0
3	496932	89.31	0
3	497489	89.41	0
3	498046	89.51	0
3	498603	89.61	0
3	499160	89.71	0
3	499717	89.81	0
3	500274	89.91	0
3	500840	90.01	0
3	501397	90.11	0
3	501954	90.21	0
3	502511	90.31	0
3	503068	90.41	0
3	503625	90.51	0
3	504182	90.61	0
3	504739	90.71	0
3	505296	90.81	0
3	505853	90.91	0
3	506419	91.01	0
3	506976	91.11	0
3	507533	91.21	0
3	508090	91.31	0
3	508647	91.41	0
[...]
115	417084	75	5
115	422663	76	5
115	428242	77	5
115	433821	78	5
115	439400	79	5
115	444979	80	5
115	450558	81	5
115	456137	82	5
115	461716	83	5
115	467295	84	5
115	472874	85	5
115	478453	86	5
115	484032	87	5
115	489611	88	5
115	495190	89	5
115	500769	90	5
115	506348	91	5
115	511927	92	5
115	517506	93	5
115	523085	94	5
115	528664	95	5
115	534243	96	5
115	539822	97	5
115	545401	98	5
115	550980	99	5
115	556559	100	5
116	5064	2	0.022161
116	10643	3	0.02497
116	16222	4	0.02497
116	21801	5	0.02497
116	27380	6	0.02497
116	32959	7	0.02497
116	38538	8	0.02497
116	44117	9	0.02497
116	49698	10	0.02497
116	55423	11	0.025018
116	61072	12	0.02497
116	66721	13	0.02497
116	72370	14	0.02497
116	78019	15	0.02497
116	83668	16	0.02497
116	89317	17	0.02497
116	94966	18	0.02497
116	100615	19	0.02497
116	106264	20	0.02497
116	111913	21	0.02497
116	117562	22	0.02497
116	123211	23	0.02497
116	128860	24	0.02497
116	134509	25	0.02497
116	140158	26	0.02497
116	145807	27	0.02497
116	151456	28	0.02497
116	157105	29	0.02497
116	162754	30	0.02497
116	168403	31	0.02497
116	174052	32	0.02497
116	179701	33	0.02497
116	185350	34	0.02497
116	190999	35	0.02497
116	196648	36	0.02497
116	202297	37	0.02497
116	207946	38	0.02497
116	213595	39	0.02497
116	219244	40	0.02497
116	224893	41	0.02497
116	230542	42	0.02497
116	236282	43	0.025082
116	241921	44	0.02497
116	247560	45	0.02497
116	253199	46	0.02497
116	258838	47	0.02497
116	264477	48	0.02497
116	270205	49	0.025082
116	275834	50	0.02497
116	281463	51	0.02497
116	287092	52	0.02497
116	292721	53	0.02497
116	298442	54	0.025082
116	304061	55	0.02497
116	309680	56	0.02497
116	315299	57	0.02497
116	320918	58	0.02497
116	326627	59	0.025082
116	332236	60	0.02497
116	337845	61	0.02497
116	343454	62	0.02497
116	349063	63	0.02497
116	354759	64	0.025115465668
116	360358	65	0.02497
116	365957	66	0.02497
116	371556	67	0.02497
116	377246	68	0.025082
116	382835	69	0.02497
116	388424	70	0.02497
116	394013	71	0.02497
116	399602	72	0.02497
116	405926	73	0.025898
116	411505	74	0.02497
116	417084	75	0.02497
116	422663	76	0.02497
116	428242	77	0.02497
116	433821	78	0.02497
116	439400	79	0.02497
116	444979	80	0.02497
116	450558	81	0.02497
116	456137	82	0.02497
116	461716	83	0.02497
116	467295	84	0.02497
116	472874	85	0.02497
116	478453	86	0.02497
116	484032	87	0.02497
116	489611	88	0.02497
116	495190	89	0.02497
116	500769	90	0.02497
116	506348	91	0.02497
116	511927	92	0.02497
116	517506	93	0.02497
116	523085	94	0.02497
116	528664	95	0.02497
116	534243	96	0.02497
116	539822	97	0.02497
116	545401	98	0.02497
116	550980	99	0.02497
116	556559	100	0.02497
117	5064	2	0
117	10643	3	0
117	16222	4	0
117	21801	5	0
117	27380	6	0
117	32959	7	0
117	38538	8	0
117	44117	9	0
117	49698	10	0
117	55423	11	0
117	61072	12	0
117	66721	13	0
117	72370	14	0
117	78019	15	0
117	83668	16	0
117	89317	17	0
117	94966	18	0
117	100615	19	0
117	106264	20	0
117	111913	21	0
117	117562	22	0
117	123211	23	0
117	128860	24	0
117	134509	25	0
117	140158	26	0
117	145807	27	0
117	151456	28	0
117	157105	29	0
117	162754	30	0
117	168403	31	0
117	174052	32	0
117	179701	33	0
117	185350	34	0
117	190999	35	0
117	196648	36	0
117	202297	37	0
117	207946	38	0
117	213595	39	0
117	219244	40	0
117	224893	41	0
117	230542	42	0
117	236282	43	0
117	241921	44	0
117	247560	45	0
117	253199	46	0
117	258838	47	0
117	264477	48	0
117	270205	49	0
117	275834	50	0
117	281463	51	0
117	287092	52	0
117	292721	53	0
117	298442	54	0
117	304061	55	0
117	309680	56	0
117	315299	57	0
117	320918	58	0
117	326627	59	0
117	332236	60	0
117	337845	61	0
117	343454	62	0
117	349063	63	0
117	354759	64	0
117	360358	65	0
117	365957	66	0
117	371556	67	0
117	377246	68	0
117	382835	69	0
117	388424	70	0
117	394013	71	0
117	399602	72	0
117	405926	73	0
117	411505	74	0
117	417084	75	0
117	422663	76	0
117	428242	77	0
117	433821	78	0
117	439400	79	0
117	444979	80	0
117	450558	81	0
117	456137	82	0
117	461716	83	0
117	467295	84	0
117	472874	85	0
117	478453	86	0
117	484032	87	0
117	489611	88	0
117	495190	89	0
117	500769	90	0
117	506348	91	0
117	511927	92	0
117	517506	93	0
117	523085	94	0
117	528664	95	0
117	534243	96	0
117	539822	97	0
117	545401	98	0
117	550980	99	0
117	556559	100	0
118	5065	2	6
118	10644	3	6
118	16223	4	6
118	21802	5	6
118	27381	6	6
118	32960	7	6
118	38539	8	6
118	44118	9	6
118	49699	10	6
118	55424	11	6
118	61073	12	6
118	66722	13	6
118	72371	14	6
118	78020	15	6
118	83669	16	6
118	89318	17	6
118	94967	18	6
118	100616	19	6
118	106265	20	6
118	111914	21	6
118	117563	22	6
118	123212	23	6
118	128861	24	6
118	134510	25	6
118	140159	26	6
118	145808	27	6
118	151457	28	6
118	157106	29	6
118	162755	30	6
118	168404	31	6
118	174053	32	6
118	179702	33	6
118	185351	34	6
118	191000	35	6
118	196649	36	6
118	202298	37	6
118	207947	38	6
118	213596	39	6
118	219245	40	6
118	224894	41	6
118	230543	42	6
118	236283	43	6
118	241922	44	6
118	247561	45	6
118	253200	46	6
118	258839	47	6
118	264478	48	6
118	270206	49	6
118	275835	50	6
118	281464	51	6
118	287093	52	6
118	292722	53	6
118	298443	54	6
118	304062	55	6
118	309681	56	6
118	315300	57	6
118	320919	58	6
118	326628	59	6
118	332237	60	6
118	337846	61	6
118	343455	62	6
118	349064	63	6
118	354760	64	6
118	360359	65	6
118	365958	66	6
118	371557	67	6
118	377247	68	6
118	382836	69	6
118	388425	70	6
118	394014	71	6
118	399603	72	6
118	405927	73	6
118	411506	74	6
118	417085	75	6
118	422664	76	6
118	428243	77	6
118	433822	78	6
118	439401	79	6
118	444980	80	6
118	450559	81	6
118	456138	82	6
118	461717	83	6
118	467296	84	6
118	472875	85	6
118	478454	86	6
118	484033	87	6
118	489612	88	6
118	495191	89	6
118	500770	90	6
118	506349	91	6
118	511928	92	6
118	517507	93	6
118	523086	94	6
118	528665	95	6
118	534244	96	6
118	539823	97	6
118	545402	98	6
118	550981	99	6
118	556560	100	6
119	5065	2	0.022161
119	10644	3	0.02497
119	16223	4	0.02497
119	21802	5	0.02497
119	27381	6	0.02497
119	32960	7	0.02497
119	38539	8	0.02497
119	44118	9	0.02497
119	49699	10	0.02497
119	55424	11	0.025018
119	61073	12	0.02497
119	66722	13	0.02497
119	72371	14	0.02497
119	78020	15	0.02497
119	83669	16	0.02497
119	89318	17	0.02497
119	94967	18	0.02497
119	100616	19	0.02497
119	106265	20	0.02497
119	111914	21	0.02497
119	117563	22	0.02497
119	123212	23	0.02497
119	128861	24	0.02497
119	134510	25	0.02497
119	140159	26	0.02497
119	145808	27	0.02497
119	151457	28	0.02497
119	157106	29	0.02497
119	162755	30	0.02497
119	168404	31	0.02497
119	174053	32	0.02497
119	179702	33	0.02497
119	185351	34	0.02497
119	191000	35	0.02497
119	196649	36	0.02497
119	202298	37	0.02497
119	207947	38	0.02497
119	213596	39	0.02497
119	219245	40	0.02497
119	224894	41	0.02497
119	230543	42	0.02497
119	236283	43	0.025082
119	241922	44	0.02497
119	247561	45	0.02497
119	253200	46	0.02497
119	258839	47	0.02497
119	264478	48	0.02497
119	270206	49	0.025082
119	275835	50	0.02497
119	281464	51	0.02497
119	287093	52	0.02497
119	292722	53	0.02497
119	298443	54	0.025082
119	304062	55	0.02497
119	309681	56	0.02497
119	315300	57	0.02497
119	320919	58	0.02497
119	326628	59	0.025082
119	332237	60	0.02497
119	337846	61	0.02497
119	343455	62	0.02497
119	349064	63	0.02497
119	354760	64	0.025082
119	360359	65	0.02497
119	365958	66	0.02497
119	371557	67	0.02497
119	377247	68	0.025115558966
119	382836	69	0.02497
119	388425	70	0.02497
119	394014	71	0.02497
119	399603	72	0.02497
119	405927	73	0.025898
119	411506	74	0.02497
119	417085	75	0.02497
119	422664	76	0.02497
119	428243	77	0.02497
119	433822	78	0.02497
119	439401	79	0.02497
119	444980	80	0.02497
119	450559	81	0.02497
119	456138	82	0.02497
119	461717	83	0.02497
119	467296	84	0.02497
119	472875	85	0.02497
119	478454	86	0.02497
119	484033	87	0.02497
119	489612	88	0.02497
119	495191	89	0.02497
119	500770	90	0.02497
119	506349	91	0.02497
119	511928	92	0.02497
119	517507	93	0.02497
119	523086	94	0.02497
119	528665	95	0.02497
119	534244	96	0.02497
119	539823	97	0.02497
119	545402	98	0.02497
119	550981	99	0.02497
119	556560	100	0.02497
120	5065	2	0
120	10644	3	0
120	16223	4	0
120	21802	5	0
120	27381	6	0
120	32960	7	0
120	38539	8	0
120	44118	9	0
120	49699	10	0
120	55424	11	0
120	61073	12	0
120	66722	13	0
120	72371	14	0
120	78020	15	0
120	83669	16	0
120	89318	17	0
120	94967	18	0
120	100616	19	0
120	106265	20	0
120	111914	21	0
120	117563	22	0
120	123212	23	0
120	128861	24	0
120	134510	25	0
120	140159	26	0
120	145808	27	0
120	151457	28	0
120	157106	29	0
120	162755	30	0
120	168404	31	0
120	174053	32	0
120	179702	33	0
120	185351	34	0
120	191000	35	0
120	196649	36	0
120	202298	37	0
120	207947	38	0
120	213596	39	0
120	219245	40	0
120	224894	41	0
120	230543	42	0
120	236283	43	0
120	241922	44	0
120	247561	45	0
120	253200	46	0
120	258839	47	0
120	264478	48	0
120	270206	49	0
120	275835	50	0
120	281464	51	0
120	287093	52	0
120	292722	53	0
120	298443	54	0
120	304062	55	0
120	309681	56	0
120	315300	57	0
120	320919	58	0
120	326628	59	0
120	332237	60	0
120	337846	61	0
120	343455	62	0
120	349064	63	0
120	354760	64	0
120	360359	65	0
120	365958	66	0
120	371557	67	0
120	377247	68	0
120	382836	69	0
120	388425	70	0
120	394014	71	0
120	399603	72	0
120	405927	73	0
120	411506	74	0
120	417085	75	0
120	422664	76	0
120	428243	77	0
120	433822	78	0
120	439401	79	0
120	444980	80	0
120	450559	81	0
120	456138	82	0
120	461717	83	0
120	467296	84	0
120	472875	85	0
120	478454	86	0
120	484033	87	0
120	489612	88	0
120	495191	89	0
120	500770	90	0
120	506349	91	0
120	511928	92	0
120	517507	93	0
120	523086	94	0
120	528665	95	0
120	534244	96	0
120	539823	97	0
120	545402	98	0
120	550981	99	0
120	556560	100	0
121	5066	2	7
121	10645	3	7
121	16224	4	7
121	21803	5	7
121	27382	6	7
121	32961	7	7
121	38540	8	7
121	44119	9	7
121	49700	10	7
121	55425	11	7
121	61074	12	7
121	66723	13	7
121	72372	14	7
121	78021	15	7
121	83670	16	7
121	89319	17	7
121	94968	18	7
121	100617	19	7
121	106266	20	7
121	111915	21	7
121	117564	22	7
121	123213	23	7
121	128862	24	7
121	134511	25	7
121	140160	26	7
121	145809	27	7
121	151458	28	7
121	157107	29	7
121	162756	30	7
121	168405	31	7
121	174054	32	7
121	179703	33	7
121	185352	34	7
121	191001	35	7
121	196650	36	7
121	202299	37	7
121	207948	38	7
121	213597	39	7
121	219246	40	7
121	224895	41	7
121	230544	42	7
121	236284	43	7
121	241923	44	7
121	247562	45	7
121	253201	46	7
121	258840	47	7
121	264479	48	7
121	270207	49	7
121	275836	50	7
121	281465	51	7
121	287094	52	7
121	292723	53	7
121	298444	54	7
121	304063	55	7
121	309682	56	7
121	315301	57	7
121	320920	58	7
121	326629	59	7
121	332238	60	7
121	337847	61	7
121	343456	62	7
121	349065	63	7
121	354761	64	7
121	360360	65	7
121	365959	66	7
121	371558	67	7
121	377248	68	7
121	382837	69	7
121	388426	70	7
121	394015	71	7
121	399604	72	7
121	405928	73	7
121	411507	74	7
121	417086	75	7
121	422665	76	7
121	428244	77	7
121	433823	78	7
121	439402	79	7
121	444981	80	7
121	450560	81	7
121	456139	82	7
121	461718	83	7
121	467297	84	7
121	472876	85	7
121	478455	86	7
121	484034	87	7
121	489613	88	7
121	495192	89	7
121	500771	90	7
121	506350	91	7
121	511929	92	7
121	517508	93	7
121	523087	94	7
121	528666	95	7
121	534245	96	7
121	539824	97	7
121	545403	98	7
121	550982	99	7
121	556561	100	7
122	5066	2	0.022161
122	10645	3	0.02497
122	16224	4	0.02497
122	21803	5	0.02497
122	27382	6	0.02497
122	32961	7	0.02497
122	38540	8	0.02497
122	44119	9	0.02497
122	49700	10	0.02497
122	55425	11	0.025018
122	61074	12	0.02497
122	66723	13	0.02497
122	72372	14	0.02497
122	78021	15	0.02497
122	83670	16	0.02497
122	89319	17	0.02497
122	94968	18	0.02497
122	100617	19	0.02497
122	106266	20	0.02497
122	111915	21	0.02497
122	117564	22	0.02497
122	123213	23	0.02497
122	128862	24	0.02497
122	134511	25	0.02497
122	140160	26	0.02497
122	145809	27	0.02497
122	151458	28	0.02497
122	157107	29	0.02497
122	162756	30	0.02497
122	168405	31	0.02497
122	174054	32	0.02497
122	179703	33	0.02497
122	185352	34	0.02497
122	191001	35	0.02497
122	196650	36	0.02497
122	202299	37	0.02497
122	207948	38	0.02497
122	213597	39	0.02497
122	219246	40	0.02497
122	224895	41	0.02497
122	230544	42	0.02497
122	236284	43	0.025082
122	241923	44	0.02497
122	247562	45	0.02497
122	253201	46	0.02497
122	258840	47	0.02497
122	264479	48	0.02497
122	270207	49	0.025082
122	275836	50	0.02497
122	281465	51	0.02497
122	287094	52	0.02497
122	292723	53	0.02497
122	298444	54	0.025082
122	304063	55	0.02497
122	309682	56	0.02497
122	315301	57	0.02497
122	320920	58	0.02497
122	326629	59	0.025082
122	332238	60	0.02497
122	337847	61	0.02497
122	343456	62	0.02497
122	349065	63	0.02497
122	354761	64	0.025082
122	360360	65	0.02497
122	365959	66	0.02497
122	371558	67	0.02497
122	377248	68	0.025082
122	382837	69	0.02497
122	388426	70	0.02497
122	394015	71	0.02497
122	399604	72	0.02497
122	405928	73	0.02593165228
122	411507	74	0.02497
122	417086	75	0.02497
122	422665	76	0.02497
122	428244	77	0.02497
122	433823	78	0.02497
122	439402	79	0.02497
122	444981	80	0.02497
122	450560	81	0.02497
122	456139	82	0.02497
122	461718	83	0.02497
122	467297	84	0.02497
122	472876	85	0.02497
122	478455	86	0.02497
122	484034	87	0.02497
122	489613	88	0.02497
122	495192	89	0.02497
122	500771	90	0.02497
122	506350	91	0.02497
122	511929	92	0.02497
122	517508	93	0.02497
122	523087	94	0.02497
122	528666	95	0.02497
122	534245	96	0.02497
122	539824	97	0.02497
122	545403	98	0.02497
122	550982	99	0.02497
122	556561	100	0.02497
123	5066	2	0
123	10645	3	0
123	16224	4	0
123	21803	5	0
123	27382	6	0
123	32961	7	0
123	38540	8	0
123	44119	9	0
123	49700	10	0
123	55425	11	0
123	61074	12	0
123	66723	13	0
123	72372	14	0
123	78021	15	0
123	83670	16	0
123	89319	17	0
123	94968	18	0
123	100617	19	0
123	106266	20	0
123	111915	21	0
123	117564	22	0
123	123213	23	0
123	128862	24	0
123	134511	25	0
123	140160	26	0
123	145809	27	0
123	151458	28	0
123	157107	29	0
123	162756	30	0
123	168405	31	0
123	174054	32	0
123	179703	33	0
123	185352	34	0
123	191001	35	0
123	196650	36	0
123	202299	37	0
123	207948	38	0
123	213597	39	0
123	219246	40	0
123	224895	41	0
123	230544	42	0
123	236284	43	0
123	241923	44	0
123	247562	45	0
123	253201	46	0
123	258840	47	0
123	264479	48	0
123	270207	49	0
123	275836	50	0
123	281465	51	0
123	287094	52	0
123	292723	53	0
123	298444	54	0
123	304063	55	0
123	309682	56	0
123	315301	57	0
123	320920	58	0
123	326629	59	0
123	332238	60	0
123	337847	61	0
123	343456	62	0
123	349065	63	0
123	354761	64	0
123	360360	65	0
123	365959	66	0
123	371558	67	0
123	377248	68	0
123	382837	69	0
123	388426	70	0
123	394015	71	0
123	399604	72	0
123	405928	73	0
123	411507	74	0
123	417086	75	0
123	422665	76	0
123	428244	77	0
123	433823	78	0
123	439402	79	0
123	444981	80	0
123	450560	81	0
123	456139	82	0
123	461718	83	0
123	467297	84	0
123	472876	85	0
123	478455	86	0
123	484034	87	0
123	489613	88	0
123	495192	89	0
123	500771	90	0
123	506350	91	0
123	511929	92	0
123	517508	93	0
123	523087	94	0
123	528666	95	0
123	534245	96	0
123	539824	97	0
123	545403	98	0
123	550982	99	0
123	556561	100	0
124	5067	2	8
124	10646	3	8
124	16225	4	8
124	21804	5	8
124	27383	6	8
124	32962	7	8
124	38541	8	8
124	44120	9	8
124	49701	10	8
124	55426	11	8
124	61075	12	8
124	66724	13	8
124	72373	14	8
124	78022	15	8
124	83671	16	8
124	89320	17	8
124	94969	18	8
124	100618	19	8
124	106267	20	8
124	111916	21	8
124	117565	22	8
124	123214	23	8
124	128863	24	8
124	134512	25	8
124	140161	26	8
124	145810	27	8
124	151459	28	8
124	157108	29	8
124	162757	30	8
124	168406	31	8
124	174055	32	8
124	179704	33	8
124	185353	34	8
124	191002	35	8
124	196651	36	8
124	202300	37	8
124	207949	38	8
124	213598	39	8
124	219247	40	8
124	224896	41	8
124	230545	42	8
124	236285	43	8
124	241924	44	8
124	247563	45	8
124	253202	46	8
124	258841	47	8
124	264480	48	8
124	270208	49	8
124	275837	50	8
124	281466	51	8
124	287095	52	8
124	292724	53	8
124	298445	54	8
124	304064	55	8
124	309683	56	8
124	315302	57	8
124	320921	58	8
124	326630	59	8
124	332239	60	8
124	337848	61	8
124	343457	62	8
124	349066	63	8
124	354762	64	8
124	360361	65	8
124	365960	66	8
124	371559	67	8
124	377249	68	8
124	382838	69	8
124	388427	70	8
124	394016	71	8
124	399605	72	8
124	405929	73	8
124	411508	74	8
124	417087	75	8
124	422666	76	8
124	428245	77	8
124	433824	78	8
124	439403	79	8
124	444982	80	8
124	450561	81	8
124	456140	82	8
124	461719	83	8
124	467298	84	8
124	472877	85	8
124	478456	86	8
124	484035	87	8
124	489614	88	8
124	495193	89	8
124	500772	90	8
124	506351	91	8
124	511930	92	8
124	517509	93	8
124	523088	94	8
124	528667	95	8
124	534246	96	8
124	539825	97	8
124	545404	98	8
124	550983	99	8
124	556562	100	8
125	5067	2	0.002817
125	10646	3	0.00313
125	16225	4	0.00313
125	21804	5	0.00313
125	27383	6	0.00313
125	32962	7	0.00313
125	38541	8	0.00313
125	44120	9	0.00313
125	49701	10	0.00313
125	55426	11	0.003179
125	61075	12	0.00313
125	66724	13	0.00313
125	72373	14	0.00313
125	78022	15	0.00313
125	83671	16	0.00313
125	89320	17	0.00313
125	94969	18	0.00313
125	100618	19	0.00313
125	106267	20	0.00313
125	111916	21	0.00313
125	117565	22	0.00313
125	123214	23	0.00313
125	128863	24	0.00313
125	134512	25	0.00313
125	140161	26	0.00313
125	145810	27	0.00313
125	151459	28	0.00313
125	157108	29	0.00313
125	162757	30	0.00313
125	168406	31	0.00313
125	174055	32	0.00313
125	179704	33	0.00313
125	185353	34	0.00313
125	191002	35	0.00313
125	196651	36	0.00313
125	202300	37	0.00313
125	207949	38	0.00313
125	213598	39	0.00313
125	219247	40	0.00313
125	224896	41	0.00313
125	230545	42	0.00313
125	236285	43	0.00313
125	241924	44	0.00313
125	247563	45	0.00313
125	253202	46	0.00313
125	258841	47	0.00313
125	264480	48	0.00313
125	270208	49	0.00313
125	275837	50	0.00313
125	281466	51	0.00313
125	287095	52	0.00313
125	292724	53	0.00313
125	298445	54	0.00313
125	304064	55	0.00313
125	309683	56	0.00313
125	315302	57	0.00313
125	320921	58	0.00313
125	326630	59	0.00313
125	332239	60	0.00313
125	337848	61	0.00313
125	343457	62	0.00313
125	349066	63	0.00313
125	354762	64	0.00313
125	360361	65	0.00313
125	365960	66	0.00313
125	371559	67	0.00313
125	377249	68	0.00313
125	382838	69	0.00313
125	388427	70	0.00313
125	394016	71	0.00313
125	399605	72	0.00313
125	405929	73	0.00313
125	411508	74	0.00313
125	417087	75	0.00313
125	422666	76	0.00313
125	428245	77	0.00313
125	433824	78	0.00313
125	439403	79	0.00313
125	444982	80	0.00313
125	450561	81	0.00313
125	456140	82	0.00313
125	461719	83	0.00313
125	467298	84	0.00313
125	472877	85	0.00313
125	478456	86	0.00313
125	484035	87	0.00313
125	489614	88	0.00313
125	495193	89	0.00313
125	500772	90	0.00313
125	506351	91	0.00313
125	511930	92	0.00313
125	517509	93	0.00313
125	523088	94	0.00313
125	528667	95	0.00313
125	534246	96	0.00313
125	539825	97	0.00313
125	545404	98	0.00313
125	550983	99	0.00313
125	556562	100	0.00313
126	5067	2	0
126	10646	3	0
126	16225	4	0
126	21804	5	0
126	27383	6	0
126	32962	7	0
126	38541	8	0
126	44120	9	0
126	49701	10	0
126	55426	11	0
126	61075	12	0
126	66724	13	0
126	72373	14	0
126	78022	15	0
126	83671	16	0
126	89320	17	0
126	94969	18	0
126	100618	19	0
126	106267	20	0
126	111916	21	0
126	117565	22	0
126	123214	23	0
126	128863	24	0
126	134512	25	0
126	140161	26	0
126	145810	27	0
126	151459	28	0
126	157108	29	0
126	162757	30	0
126	168406	31	0
126	174055	32	0
126	179704	33	0
126	185353	34	0
126	191002	35	0
126	196651	36	0
126	202300	37	0
126	207949	38	0
126	213598	39	0
126	219247	40	0
126	224896	41	0
126	230545	42	0
126	236285	43	0
126	241924	44	0
126	247563	45	0
126	253202	46	0
126	258841	47	0
126	264480	48	0
126	270208	49	0
126	275837	50	0
126	281466	51	0
126	287095	52	0
126	292724	53	0
126	298445	54	0
126	304064	55	0
126	309683	56	0
126	315302	57	0
126	320921	58	0
126	326630	59	0
126	332239	60	0
126	337848	61	0
126	343457	62	0
126	349066	63	0
126	354762	64	0
126	360361	65	0
126	365960	66	0
126	371559	67	0
126	377249	68	0
126	382838	69	0
126	388427	70	0
126	394016	71	0
126	399605	72	0
126	405929	73	0
126	411508	74	0
126	417087	75	0
126	422666	76	0
126	428245	77	0
126	433824	78	0
126	439403	79	0
126	444982	80	0
126	450561	81	0
126	456140	82	0
126	461719	83	0
126	467298	84	0
126	472877	85	0
126	478456	86	0
126	484035	87	0
126	489614	88	0
126	495193	89	0
126	500772	90	0
126	506351	91	0
126	511930	92	0
126	517509	93	0
126	523088	94	0
126	528667	95	0
126	534246	96	0
126	539825	97	0
126	545404	98	0
126	550983	99	0
126	556562	100	0

