version 3
run BreakRanksNoGui-598-20240711-12:43:28-287191
attr configname BreakRanksNoGui
attr datetime 20240711-12:43:28
attr datetimef 20240711-124328
attr experiment BreakRanksNoGui
attr inifile omnetpp.ini
attr iterationvars "$nCars=9, $platoonSize=8, $nLanes=1, $ploegH=0.5, $controller=1, $headway=0.1, $leaderHeadway=1.2, $leaderSpeed=110, $breakRanksSafetyDistance=10, $minSpeed=100, $maxSpeed=120, $beaconInterval=0.1, $priority=4, $packetSize=200, $sController=\"CACC\", $0=2, $1=0"
attr iterationvarsd nCars=9/platoonSize=8/nLanes=1/ploegH=0.5/controller=1/headway=0.1/leaderHeadway=1.2/leaderSpeed=110/breakRanksSafetyDistance=10/minSpeed=100/maxSpeed=120/beaconInterval=0.1/priority=4/packetSize=200/sController=CACC/2/0
attr iterationvarsf nCars=9,platoonSize=8,nLanes=1,ploegH=0.5,controller=1,headway=0.1,leaderHeadway=1.2,leaderSpeed=110,breakRanksSafetyDistance=10,minSpeed=100,maxSpeed=120,beaconInterval=0.1,priority=4,packetSize=200,sController=CACC,2,0-
attr measurement "$nCars=9, $platoonSize=8, $nLanes=1, $ploegH=0.5, $controller=1, $headway=0.1, $leaderHeadway=1.2, $leaderSpeed=110, $breakRanksSafetyDistance=10, $minSpeed=100, $maxSpeed=120, $beaconInterval=0.1, $priority=4, $packetSize=200, $sController=\"CACC\", $0=2, $1=0"
attr network Highway
attr processid 287191
attr repetition 8
attr replication #8
attr resultdir results
attr runnumber 598
attr seedset 8
itervar beaconInterval 0.1
itervar breakRanksSafetyDistance 10
itervar controller 1
itervar headway 0.1
itervar leaderHeadway 1.2
itervar leaderSpeed 110
itervar maxSpeed 120
itervar minSpeed 100
itervar nCars 9
itervar nLanes 1
itervar packetSize 200
itervar platoonSize 8
itervar ploegH 0.5
itervar priority 4
itervar sController "\"CACC\""
config image-path ../../../veins/images
config repeat 10
config extends BreakRanks
config *.manager.command "\"sumo\""
config *.manager.ignoreGuiCommands true
config output-vector-file "results/BreakRanks_1_0.1_110_10_8 /result_8.vec"
config output-scalar-file "results/BreakRanks_1_0.1_110_10_8 /result_8.sca"
config extends Platooning
config *.node[*].scenario_type "\"BreakRanksScenario\""
config *.manager.command "\"sumo-gui\""
config *.node[*].scenario_type "\"SimpleScenario\""
config cmdenv-express-mode true
config cmdenv-autoflush true
config cmdenv-status-frequency 15s
config num-rngs 6
config network Highway
config debug-on-errors true
config print-undisposed true
config *.playgroundSizeX 65000m
config *.playgroundSizeY 25000m
config *.playgroundSizeZ 50m
config sim-time-limit "100 s"
config *.annotations.draw false
config *.obstacles.debug false
config *.world.useTorus false
config *.world.use2D false
config *.manager.updateInterval 0.01s
config *.manager.host "\"localhost\""
config *.manager.moduleType "\"org.car2x.plexe.PlatoonCar\""
config *.manager.moduleName "\"node\""
config *.manager.moduleDisplayString "\"\""
config *.manager.autoShutdown true
config *.manager.margin 25
config *.connectionManager.sendDirect true
config *.connectionManager.maxInterfDist 2600m
config *.connectionManager.drawMaxIntfDist false
config *.**.nic.mac1609_4.useServiceChannel false
config *.**.nic.mac1609_4.txPower 100mW
config *.**.nic.mac1609_4.bitrate 6Mbps
config *.**.nic.mac1609_4.useAcks true
config *.**.nic.mac1609_4.ackErrorRate 0.0
config *.**.nic.mac1609_4.frameErrorRate 0.0
config *.**.nic.phy80211p.minPowerLevel -94dBm
config *.**.nic.phy80211p.maxTXPower 100mW
config *.**.nic.phy80211p.useNoiseFloor true
config *.**.nic.phy80211p.noiseFloor -95dBm
config *.**.nic.phy80211p.decider "xmldoc(\"config.xml\")"
config *.**.nic.phy80211p.analogueModels "xmldoc(\"config.xml\")"
config *.**.nic.phy80211p.usePropagationDelay true
config *.node[*].mobility.x 0
config *.node[*].mobility.y 0
config *.node[*].mobility.z 1.895
config seed-set 8
config **.seed 8
config *.node[*].prot.rng-0 2
config *.node[*].appl.rng-0 3
config *.node[*].scenario.rng-0 4
config **.traffic.rng-0 5
config *.manager.configFile "\"./sumocfg/freeway.sumo.cfg\""
config *.manager.launchConfig "xmldoc(\"./sumocfg/freeway.launchd.xml\")"
config **.numberOfCars 9
config **.numberOfCarsPerPlatoon 8
config **.numberOfLanes 1
config *.node[*].helper_type "\"PositionHelper\""
config *.node[*].scenario.caccC1 0.5
config *.node[*].scenario.caccXi 1
config *.node[*].scenario.caccOmegaN "0.2 Hz"
config *.node[*].scenario.caccSpacing "2 m"
config *.node[*].scenario.engineTau "0.5 s"
config *.node[*].scenario.ploegH 0.5s
config *.node[*].scenario.ploegKp 0.2
config *.node[*].scenario.ploegKd 0.7
config *.node[*].scenario.useRealisticEngine false
config *.node[*].scenario.useControllerAcceleration true
config *.node[*].scenario.nLanes 1
config **.numericController 1
config **.headway 0.1s
config *.node[*].scenario.accHeadway 0.1s
config *.node[*].scenario.leaderHeadway 1.2s
config *.node[*].scenario.leaderSpeed 110kmph
config *.node[*].appl_type "\"SimplePlatooningApp\""
config *.node[*].appl.*.scalar-recording true
config *.node[*].appl.*.vector-recording true
config *.node[0].appl.breakRanksSafetyDistance 10m
config *.node[*].appl.minSpeed 100kmph
config *.node[*].appl.maxSpeed 120kmph
config *.node[*].protocol_type "\"SimplePlatooningBeaconing\""
config *.node[*].prot.*.scalar-recording true
config *.node[*].prot.*.vector-recording true
config *.node[*].prot.beaconingInterval 0.1s
config *.node[*].prot.priority 4
config *.node[*].prot.packetSize 200
config **.traffic_type "\"PlatoonsTrafficManager\""
config **.traffic.platoonInsertTime "1 s"
config **.traffic.platoonInsertSpeed 110kmph
config **.traffic.nCars 9
config **.traffic.platoonSize 8
config **.traffic.nLanes 1
config **.traffic.platooningVType "\"vtypeauto\""
config **.traffic.controller "\"CACC\""
config **.traffic.platoonInsertDistance 2m
config **.traffic.platoonInsertHeadway 0s
config **.traffic.platoonLeaderHeadway 1.2s
config **.scalar-recording false
config **.vector-recording false

vector 0 Highway.node[0].appl distance ETV
vector 1 Highway.node[0].appl relativeSpeed ETV
vector 2 Highway.node[0].appl nodeId ETV
vector 3 Highway.node[0].appl acceleration ETV
vector 4 Highway.node[0].appl controllerAcceleration ETV
vector 5 Highway.node[0].appl speed ETV
vector 6 Highway.node[0].appl posx ETV
vector 7 Highway.node[0].appl posy ETV
vector 8 Highway.node[1].appl distance ETV
vector 9 Highway.node[1].appl relativeSpeed ETV
vector 10 Highway.node[1].appl nodeId ETV
vector 11 Highway.node[1].appl acceleration ETV
vector 12 Highway.node[1].appl controllerAcceleration ETV
vector 13 Highway.node[1].appl speed ETV
vector 14 Highway.node[1].appl posx ETV
vector 15 Highway.node[1].appl posy ETV
vector 16 Highway.node[2].appl distance ETV
vector 17 Highway.node[2].appl relativeSpeed ETV
vector 18 Highway.node[2].appl nodeId ETV
vector 19 Highway.node[2].appl acceleration ETV
vector 20 Highway.node[2].appl controllerAcceleration ETV
vector 21 Highway.node[2].appl speed ETV
vector 22 Highway.node[2].appl posx ETV
vector 23 Highway.node[2].appl posy ETV
vector 24 Highway.node[3].appl distance ETV
vector 25 Highway.node[3].appl relativeSpeed ETV
vector 26 Highway.node[3].appl nodeId ETV
vector 27 Highway.node[3].appl acceleration ETV
vector 28 Highway.node[3].appl controllerAcceleration ETV
vector 29 Highway.node[3].appl speed ETV
vector 30 Highway.node[3].appl posx ETV
vector 31 Highway.node[3].appl posy ETV
vector 32 Highway.node[4].appl distance ETV
vector 33 Highway.node[4].appl relativeSpeed ETV
vector 34 Highway.node[4].appl nodeId ETV
vector 35 Highway.node[4].appl acceleration ETV
vector 36 Highway.node[4].appl controllerAcceleration ETV
vector 37 Highway.node[4].appl speed ETV
vector 38 Highway.node[4].appl posx ETV
vector 39 Highway.node[4].appl posy ETV
vector 40 Highway.node[5].appl distance ETV
vector 41 Highway.node[5].appl relativeSpeed ETV
vector 42 Highway.node[5].appl nodeId ETV
vector 43 Highway.node[5].appl acceleration ETV
vector 44 Highway.node[5].appl controllerAcceleration ETV
vector 45 Highway.node[5].appl speed ETV
vector 46 Highway.node[5].appl posx ETV
vector 47 Highway.node[5].appl posy ETV
vector 48 Highway.node[6].appl distance ETV
vector 49 Highway.node[6].appl relativeSpeed ETV
vector 50 Highway.node[6].appl nodeId ETV
vector 51 Highway.node[6].appl acceleration ETV
vector 52 Highway.node[6].appl controllerAcceleration ETV
vector 53 Highway.node[6].appl speed ETV
vector 54 Highway.node[6].appl posx ETV
vector 55 Highway.node[6].appl posy ETV
vector 56 Highway.node[7].appl distance ETV
vector 57 Highway.node[7].appl relativeSpeed ETV
vector 58 Highway.node[7].appl nodeId ETV
vector 59 Highway.node[7].appl acceleration ETV
vector 60 Highway.node[7].appl controllerAcceleration ETV
vector 61 Highway.node[7].appl speed ETV
vector 62 Highway.node[7].appl posx ETV
vector 63 Highway.node[7].appl posy ETV
vector 64 Highway.node[8].appl distance ETV
vector 65 Highway.node[8].appl relativeSpeed ETV
vector 66 Highway.node[8].appl nodeId ETV
vector 67 Highway.node[8].appl acceleration ETV
vector 68 Highway.node[8].appl controllerAcceleration ETV
vector 69 Highway.node[8].appl speed ETV
vector 70 Highway.node[8].appl posx ETV
vector 71 Highway.node[8].appl posy ETV
vector 72 Highway.node[4].prot frontDelay ETV
vector 73 Highway.node[4].prot frontDelayId ETV
vector 74 Highway.node[2].prot frontDelay ETV
vector 75 Highway.node[2].prot frontDelayId ETV
vector 76 Highway.node[3].prot frontDelay ETV
vector 77 Highway.node[3].prot frontDelayId ETV
vector 78 Highway.node[5].prot frontDelay ETV
vector 79 Highway.node[5].prot frontDelayId ETV
vector 80 Highway.node[7].prot frontDelay ETV
vector 81 Highway.node[7].prot frontDelayId ETV
vector 82 Highway.node[1].prot leaderDelay ETV
vector 83 Highway.node[1].prot leaderDelayId ETV
vector 84 Highway.node[1].prot frontDelay ETV
vector 85 Highway.node[1].prot frontDelayId ETV
vector 86 Highway.node[2].prot leaderDelay ETV
vector 87 Highway.node[2].prot leaderDelayId ETV
vector 88 Highway.node[3].prot leaderDelay ETV
vector 89 Highway.node[3].prot leaderDelayId ETV
vector 90 Highway.node[4].prot leaderDelay ETV
vector 91 Highway.node[4].prot leaderDelayId ETV
vector 92 Highway.node[5].prot leaderDelay ETV
vector 93 Highway.node[5].prot leaderDelayId ETV
vector 94 Highway.node[6].prot leaderDelay ETV
vector 95 Highway.node[6].prot leaderDelayId ETV
vector 96 Highway.node[7].prot leaderDelay ETV
vector 97 Highway.node[7].prot leaderDelayId ETV
vector 98 Highway.node[6].prot frontDelay ETV
vector 99 Highway.node[6].prot frontDelayId ETV
vector 100 Highway.node[0].prot nodeId ETV
vector 101 Highway.node[0].prot busyTime ETV
vector 102 Highway.node[0].prot collisions ETV
vector 103 Highway.node[1].prot nodeId ETV
vector 104 Highway.node[1].prot busyTime ETV
vector 105 Highway.node[1].prot collisions ETV
vector 106 Highway.node[2].prot nodeId ETV
vector 107 Highway.node[2].prot busyTime ETV
vector 108 Highway.node[2].prot collisions ETV
vector 109 Highway.node[3].prot nodeId ETV
vector 110 Highway.node[3].prot busyTime ETV
vector 111 Highway.node[3].prot collisions ETV
vector 112 Highway.node[4].prot nodeId ETV
vector 113 Highway.node[4].prot busyTime ETV
vector 114 Highway.node[4].prot collisions ETV
vector 115 Highway.node[5].prot nodeId ETV
vector 116 Highway.node[5].prot busyTime ETV
vector 117 Highway.node[5].prot collisions ETV
vector 118 Highway.node[6].prot nodeId ETV
vector 119 Highway.node[6].prot busyTime ETV
vector 120 Highway.node[6].prot collisions ETV
vector 121 Highway.node[7].prot nodeId ETV
vector 122 Highway.node[7].prot busyTime ETV
vector 123 Highway.node[7].prot collisions ETV
vector 124 Highway.node[8].prot nodeId ETV
vector 125 Highway.node[8].prot busyTime ETV
vector 126 Highway.node[8].prot collisions ETV
0	113	1.11	9311.84
0	670	1.21	9311.84
0	1227	1.31	9311.84
0	1784	1.41	9311.84
0	2341	1.51	9311.84
0	2898	1.61	9311.84
0	3455	1.71	-1
0	4012	1.81	-1
0	4569	1.91	-1
0	5135	2.01	-1
0	5692	2.11	-1
0	6249	2.21	-1
0	6806	2.31	-1
0	7363	2.41	-1
0	7920	2.51	-1
0	8477	2.61	-1
0	9034	2.71	-1
0	9591	2.81	-1
0	10148	2.91	-1
0	10714	3.01	-1
0	11271	3.11	-1
0	11828	3.21	-1
0	12385	3.31	-1
0	12942	3.41	-1
0	13499	3.51	-1
0	14056	3.61	-1
0	14613	3.71	-1
0	15170	3.81	-1
0	15727	3.91	-1
0	16293	4.01	-1
0	16850	4.11	-1
0	17407	4.21	-1
0	17964	4.31	-1
0	18521	4.41	-1
0	19078	4.51	-1
0	19635	4.61	-1
0	20192	4.71	-1
0	20749	4.81	-1
0	21306	4.91	-1
0	21872	5.01	-1
0	22429	5.11	-1
0	22986	5.21	-1
0	23543	5.31	-1
0	24100	5.41	-1
0	24657	5.51	-1
0	25214	5.61	-1
0	25771	5.71	-1
0	26328	5.81	-1
0	26885	5.91	-1
0	27451	6.01	-1
0	28008	6.11	-1
0	28565	6.21	-1
0	29122	6.31	-1
0	29679	6.41	-1
0	30236	6.51	-1
0	30793	6.61	-1
0	31350	6.71	-1
0	31907	6.81	-1
0	32464	6.91	-1
0	33030	7.01	-1
0	33587	7.11	-1
0	34144	7.21	-1
0	34701	7.31	-1
0	35258	7.41	-1
0	35815	7.51	-1
0	36372	7.61	-1
0	36929	7.71	-1
0	37486	7.81	-1
0	38043	7.91	-1
0	38609	8.01	-1
0	39166	8.11	-1
0	39723	8.21	-1
0	40280	8.31	-1
0	40837	8.41	-1
0	41394	8.51	-1
0	41951	8.61	-1
0	42508	8.71	-1
0	43065	8.81	-1
0	43622	8.91	-1
0	44188	9.01	-1
0	44745	9.11	-1
0	45302	9.21	-1
0	45859	9.31	-1
0	46416	9.41	-1
0	46973	9.51	-1
0	47530	9.61	-1
0	48087	9.71	-1
0	48644	9.81	-1
0	49201	9.91	-1
0	49852	10.01	-1
0	50416	10.11	-1
0	50980	10.21	-1
0	51544	10.31	-1
0	52108	10.41	-1
0	52672	10.51	-1
0	53236	10.61	-1
0	53800	10.71	-1
0	54364	10.81	-1
0	54928	10.91	-1
0	55501	11.01	-1
0	56065	11.11	-1
0	56629	11.21	-1
0	57193	11.31	-1
0	57757	11.41	-1
0	58321	11.51	-1
0	58885	11.61	-1
0	59449	11.71	-1
0	60013	11.81	-1
0	60577	11.91	-1
0	61150	12.01	-1
0	61714	12.11	-1
0	62278	12.21	-1
0	62842	12.31	-1
0	63406	12.41	-1
0	63970	12.51	-1
0	64534	12.61	-1
0	65098	12.71	-1
0	65662	12.81	-1
0	66226	12.91	-1
0	66799	13.01	-1
0	67363	13.11	-1
0	67927	13.21	-1
0	68491	13.31	-1
0	69055	13.41	-1
0	69619	13.51	-1
0	70183	13.61	-1
0	70747	13.71	-1
0	71311	13.81	-1
0	71875	13.91	-1
0	72448	14.01	-1
0	73012	14.11	-1
0	73576	14.21	-1
0	74140	14.31	-1
0	74704	14.41	-1
0	75268	14.51	-1
0	75832	14.61	-1
0	76396	14.71	-1
0	76960	14.81	-1
0	77524	14.91	-1
0	78097	15.01	-1
0	78661	15.11	-1
0	79225	15.21	-1
0	79789	15.31	-1
0	80353	15.41	-1
0	80917	15.51	-1
0	81481	15.61	-1
0	82045	15.71	-1
0	82609	15.81	-1
0	83173	15.91	-1
0	83746	16.01	-1
0	84310	16.11	-1
0	84874	16.21	-1
0	85438	16.31	-1
0	86002	16.41	-1
0	86566	16.51	-1
0	87130	16.61	-1
0	87694	16.71	-1
0	88258	16.81	-1
0	88822	16.91	-1
0	89395	17.01	-1
0	89959	17.11	-1
0	90523	17.21	-1
0	91087	17.31	-1
0	91651	17.41	-1
0	92215	17.51	-1
0	92779	17.61	-1
0	93343	17.71	-1
0	93907	17.81	-1
0	94471	17.91	-1
0	95044	18.01	-1
0	95608	18.11	-1
0	96172	18.21	-1
0	96736	18.31	-1
0	97300	18.41	-1
0	97864	18.51	-1
0	98428	18.61	-1
0	98992	18.71	-1
0	99556	18.81	-1
0	100120	18.91	-1
0	100693	19.01	-1
0	101257	19.11	-1
0	101821	19.21	-1
0	102385	19.31	-1
0	102949	19.41	-1
0	103513	19.51	-1
0	104077	19.61	-1
0	104641	19.71	-1
0	105205	19.81	-1
0	105769	19.91	-1
0	106342	20.01	-1
0	106906	20.11	-1
0	107470	20.21	-1
0	108034	20.31	-1
0	108598	20.41	-1
0	109162	20.51	-1
0	109726	20.61	-1
0	110290	20.71	-1
0	110854	20.81	-1
0	111418	20.91	-1
0	111991	21.01	-1
0	112555	21.11	-1
0	113119	21.21	-1
0	113683	21.31	-1
0	114247	21.41	-1
0	114811	21.51	-1
0	115375	21.61	-1
0	115939	21.71	-1
0	116503	21.81	-1
0	117067	21.91	-1
0	117640	22.01	-1
0	118204	22.11	-1
0	118768	22.21	-1
0	119332	22.31	-1
0	119896	22.41	-1
0	120460	22.51	-1
0	121024	22.61	-1
0	121588	22.71	-1
0	122152	22.81	-1
0	122716	22.91	-1
0	123289	23.01	-1
0	123853	23.11	-1
0	124417	23.21	-1
0	124981	23.31	-1
0	125545	23.41	-1
0	126109	23.51	-1
0	126673	23.61	-1
0	127237	23.71	-1
0	127801	23.81	-1
0	128365	23.91	-1
0	128938	24.01	-1
0	129502	24.11	-1
0	130066	24.21	-1
0	130630	24.31	-1
0	131194	24.41	-1
0	131758	24.51	-1
0	132322	24.61	-1
0	132886	24.71	-1
0	133450	24.81	-1
0	134014	24.91	-1
0	134587	25.01	-1
0	135151	25.11	-1
0	135715	25.21	-1
0	136279	25.31	-1
0	136843	25.41	-1
0	137407	25.51	-1
0	137971	25.61	-1
0	138535	25.71	-1
0	139099	25.81	-1
0	139663	25.91	-1
0	140236	26.01	-1
0	140800	26.11	-1
0	141364	26.21	-1
0	141928	26.31	-1
0	142492	26.41	-1
0	143056	26.51	-1
0	143620	26.61	-1
0	144184	26.71	-1
0	144748	26.81	-1
0	145312	26.91	-1
0	145885	27.01	-1
0	146449	27.11	-1
0	147013	27.21	-1
0	147577	27.31	-1
0	148141	27.41	-1
0	148705	27.51	-1
0	149269	27.61	-1
0	149833	27.71	-1
0	150397	27.81	-1
0	150961	27.91	-1
0	151534	28.01	-1
0	152098	28.11	-1
0	152662	28.21	-1
0	153226	28.31	-1
0	153790	28.41	-1
0	154354	28.51	-1
0	154918	28.61	-1
0	155482	28.71	-1
0	156046	28.81	-1
0	156610	28.91	-1
0	157183	29.01	-1
0	157747	29.11	-1
0	158311	29.21	-1
0	158875	29.31	-1
0	159439	29.41	-1
0	160003	29.51	-1
0	160567	29.61	-1
0	161131	29.71	-1
0	161695	29.81	-1
0	162259	29.91	-1
0	162832	30.01	-1
0	163396	30.11	-1
0	163960	30.21	-1
0	164524	30.31	-1
0	165088	30.41	-1
0	165652	30.51	-1
0	166216	30.61	-1
0	166780	30.71	-1
0	167344	30.81	-1
0	167908	30.91	-1
0	168481	31.01	-1
0	169045	31.11	-1
0	169609	31.21	-1
0	170173	31.31	-1
0	170737	31.41	-1
0	171301	31.51	-1
0	171865	31.61	-1
0	172429	31.71	-1
0	172993	31.81	-1
0	173557	31.91	-1
0	174130	32.01	-1
0	174694	32.11	-1
0	175258	32.21	-1
0	175822	32.31	-1
0	176386	32.41	-1
0	176950	32.51	-1
0	177514	32.61	-1
0	178078	32.71	-1
0	178642	32.81	-1
0	179206	32.91	-1
0	179779	33.01	-1
0	180343	33.11	-1
0	180907	33.21	-1
0	181471	33.31	-1
0	182035	33.41	-1
0	182599	33.51	-1
0	183163	33.61	-1
0	183727	33.71	-1
0	184291	33.81	-1
0	184855	33.91	-1
0	185428	34.01	-1
0	185992	34.11	-1
0	186556	34.21	-1
0	187120	34.31	-1
0	187684	34.41	-1
0	188248	34.51	-1
0	188812	34.61	-1
0	189376	34.71	-1
0	189940	34.81	-1
0	190504	34.91	-1
0	191077	35.01	-1
0	191641	35.11	-1
0	192205	35.21	-1
0	192769	35.31	-1
0	193333	35.41	-1
0	193897	35.51	-1
0	194461	35.61	-1
0	195025	35.71	-1
0	195589	35.81	-1
0	196153	35.91	-1
0	196726	36.01	-1
0	197290	36.11	-1
0	197854	36.21	-1
0	198418	36.31	-1
0	198982	36.41	-1
0	199546	36.51	-1
0	200110	36.61	-1
0	200674	36.71	-1
0	201238	36.81	-1
0	201802	36.91	-1
0	202375	37.01	-1
0	202939	37.11	-1
0	203503	37.21	-1
0	204067	37.31	-1
0	204631	37.41	-1
0	205195	37.51	-1
0	205759	37.61	-1
0	206323	37.71	-1
0	206887	37.81	-1
0	207451	37.91	-1
0	208024	38.01	-1
0	208588	38.11	-1
0	209152	38.21	-1
0	209716	38.31	-1
0	210280	38.41	-1
0	210844	38.51	-1
0	211408	38.61	-1
0	211972	38.71	-1
0	212536	38.81	-1
0	213100	38.91	-1
0	213673	39.01	-1
0	214237	39.11	-1
0	214801	39.21	-1
0	215365	39.31	-1
0	215929	39.41	-1
0	216493	39.51	-1
0	217057	39.61	-1
0	217621	39.71	-1
0	218185	39.81	-1
0	218749	39.91	-1
0	219322	40.01	-1
0	219886	40.11	-1
0	220450	40.21	-1
0	221014	40.31	-1
0	221578	40.41	-1
0	222142	40.51	-1
0	222706	40.61	-1
0	223270	40.71	-1
0	223834	40.81	-1
0	224398	40.91	-1
0	224971	41.01	-1
0	225535	41.11	-1
0	226099	41.21	-1
0	226663	41.31	-1
0	227227	41.41	-1
0	227791	41.51	-1
0	228355	41.61	-1
0	228919	41.71	-1
0	229483	41.81	-1
0	230047	41.91	-1
0	230620	42.01	-1
0	231184	42.11	-1
0	231748	42.21	-1
0	232312	42.31	-1
0	232876	42.41	-1
0	233440	42.51	-1
0	234004	42.61	-1
0	234661	42.71	-1
0	235224	42.81	-1
0	235787	42.91	-1
0	236359	43.01	-1
0	236922	43.11	-1
0	237485	43.21	-1
0	238048	43.31	-1
0	238611	43.41	-1
0	239174	43.51	-1
0	239737	43.61	-1
0	240300	43.71	-1
0	240863	43.81	-1
0	241426	43.91	-1
0	241998	44.01	-1
0	242561	44.11	-1
0	243124	44.21	-1
0	243687	44.31	-1
0	244250	44.41	-1
0	244813	44.51	-1
0	245376	44.61	-1
0	245939	44.71	-1
0	246502	44.81	-1
0	247065	44.91	-1
0	247637	45.01	-1
0	248200	45.11	-1
0	248763	45.21	-1
0	249326	45.31	-1
0	249889	45.41	-1
0	250452	45.51	-1
0	251015	45.61	-1
0	251578	45.71	-1
0	252141	45.81	-1
0	252704	45.91	-1
0	253276	46.01	-1
0	253839	46.11	-1
0	254402	46.21	-1
0	254965	46.31	-1
0	255528	46.41	-1
0	256091	46.51	-1
0	256654	46.61	-1
0	257217	46.71	-1
0	257780	46.81	-1
0	258343	46.91	-1
0	258915	47.01	-1
0	259478	47.11	-1
0	260041	47.21	-1
0	260604	47.31	-1
0	261167	47.41	-1
0	261730	47.51	-1
0	262293	47.61	-1
0	262856	47.71	-1
0	263419	47.81	-1
0	263982	47.91	-1
0	264554	48.01	-1
0	265117	48.11	-1
0	265680	48.21	-1
0	266243	48.31	-1
0	266806	48.41	-1
0	267462	48.51	-1
0	268024	48.61	-1
0	268586	48.71	-1
0	269148	48.81	-1
0	269710	48.91	-1
0	270281	49.01	-1
0	270843	49.11	-1
0	271405	49.21	-1
0	271967	49.31	-1
0	272529	49.41	-1
0	273091	49.51	-1
0	273653	49.61	-1
0	274215	49.71	-1
0	274777	49.81	-1
0	275339	49.91	-1
0	275910	50.01	-1
0	276472	50.11	-1
0	277034	50.21	-1
0	277596	50.31	-1
0	278158	50.41	-1
0	278720	50.51	-1
0	279282	50.61	-1
0	279844	50.71	-1
0	280406	50.81	-1
0	280968	50.91	-1
0	281539	51.01	-1
0	282101	51.11	-1
0	282663	51.21	-1
0	283225	51.31	-1
0	283787	51.41	-1
0	284349	51.51	-1
0	284911	51.61	-1
0	285473	51.71	-1
0	286035	51.81	-1
0	286597	51.91	-1
0	287168	52.01	-1
0	287730	52.11	-1
0	288292	52.21	-1
0	288854	52.31	-1
0	289416	52.41	-1
0	289978	52.51	-1
0	290540	52.61	-1
0	291102	52.71	-1
0	291664	52.81	-1
0	292226	52.91	-1
0	292797	53.01	-1
0	293359	53.11	-1
0	293921	53.21	-1
0	294483	53.31	-1
0	295045	53.41	-1
0	295607	53.51	-1
0	296169	53.61	-1
0	296824	53.71	-1
0	297385	53.81	-1
0	297946	53.91	-1
0	298516	54.01	-1
0	299077	54.11	-1
0	299638	54.21	-1
0	300199	54.31	-1
0	300760	54.41	-1
0	301321	54.51	-1
0	301882	54.61	-1
0	302443	54.71	-1
0	303004	54.81	-1
0	303565	54.91	-1
0	304135	55.01	-1
0	304696	55.11	-1
0	305257	55.21	-1
0	305818	55.31	-1
0	306379	55.41	-1
0	306940	55.51	-1
0	307501	55.61	-1
0	308062	55.71	-1
0	308623	55.81	-1
0	309184	55.91	-1
0	309754	56.01	-1
0	310315	56.11	-1
0	310876	56.21	-1
0	311437	56.31	-1
0	311998	56.41	-1
0	312559	56.51	-1
0	313120	56.61	-1
0	313681	56.71	-1
0	314242	56.81	-1
0	314803	56.91	-1
0	315373	57.01	-1
0	315934	57.11	-1
0	316495	57.21	-1
0	317056	57.31	-1
0	317617	57.41	-1
0	318178	57.51	-1
0	318739	57.61	-1
0	319300	57.71	-1
0	319861	57.81	-1
0	320422	57.91	-1
0	320992	58.01	-1
0	321553	58.11	-1
0	322114	58.21	-1
0	322675	58.31	-1
0	323236	58.41	-1
0	323797	58.51	-1
0	324451	58.61	-1
0	325011	58.71	-1
0	325571	58.81	-1
0	326131	58.91	-1
0	326700	59.01	-1
0	327260	59.11	-1
0	327820	59.21	-1
0	328380	59.31	-1
0	328940	59.41	-1
0	329500	59.51	-1
0	330060	59.61	-1
0	330620	59.71	-1
0	331180	59.81	-1
0	331740	59.91	-1
0	332309	60.01	-1
0	332869	60.11	-1
0	333429	60.21	-1
0	333989	60.31	-1
0	334549	60.41	-1
0	335109	60.51	-1
0	335669	60.61	-1
0	336229	60.71	-1
0	336789	60.81	-1
0	337349	60.91	-1
0	337918	61.01	-1
0	338478	61.11	-1
0	339038	61.21	-1
0	339598	61.31	-1
0	340158	61.41	-1
0	340718	61.51	-1
0	341278	61.61	-1
0	341838	61.71	-1
0	342398	61.81	-1
0	342958	61.91	-1
0	343527	62.01	-1
0	344087	62.11	-1
0	344647	62.21	-1
0	345207	62.31	-1
0	345767	62.41	-1
0	346327	62.51	-1
0	346887	62.61	-1
0	347447	62.71	-1
0	348007	62.81	-1
0	348567	62.91	-1
0	349136	63.01	-1
0	349696	63.11	-1
0	350349	63.21	-1
0	350908	63.31	-1
0	351467	63.41	-1
0	352026	63.51	-1
0	352585	63.61	-1
0	353144	63.71	-1
0	353703	63.81	-1
0	354262	63.91	-1
0	354830	64.01	-1
0	355389	64.11	-1
0	355948	64.21	-1
0	356507	64.31	-1
0	357066	64.41	-1
0	357625	64.51	-1
0	358184	64.61	-1
0	358743	64.71	-1
0	359302	64.81	-1
0	359861	64.91	-1
0	360429	65.01	-1
0	360988	65.11	-1
0	361547	65.21	-1
0	362106	65.31	-1
0	362665	65.41	-1
0	363224	65.51	-1
0	363783	65.61	-1
0	364342	65.71	-1
0	364901	65.81	-1
0	365460	65.91	-1
0	366028	66.01	-1
0	366587	66.11	-1
0	367146	66.21	-1
0	367705	66.31	-1
0	368264	66.41	-1
0	368823	66.51	-1
0	369382	66.61	-1
0	369941	66.71	-1
0	370500	66.81	-1
0	371059	66.91	-1
0	371627	67.01	-1
0	372186	67.11	-1
0	372745	67.21	-1
0	373304	67.31	-1
0	373863	67.41	-1
0	374422	67.51	-1
0	374981	67.61	-1
0	375633	67.71	-1
0	376191	67.81	-1
0	376749	67.91	-1
0	377316	68.01	-1
0	377874	68.11	-1
0	378432	68.21	-1
0	378990	68.31	-1
0	379548	68.41	-1
0	380106	68.51	-1
0	380664	68.61	-1
0	381222	68.71	-1
0	381780	68.81	-1
0	382338	68.91	-1
0	382905	69.01	-1
0	383463	69.11	-1
0	384021	69.21	-1
0	384579	69.31	-1
0	385137	69.41	-1
0	385695	69.51	-1
0	386253	69.61	-1
0	386811	69.71	-1
0	387369	69.81	-1
0	387927	69.91	-1
0	388494	70.01	-1
0	389052	70.11	-1
0	389610	70.21	-1
0	390168	70.31	-1
0	390726	70.41	-1
0	391284	70.51	-1
0	391842	70.61	-1
0	392400	70.71	-1
0	392958	70.81	-1
0	393516	70.91	-1
0	394083	71.01	-1
0	394641	71.11	-1
0	395199	71.21	-1
0	395757	71.31	-1
0	396315	71.41	-1
0	396873	71.51	-1
0	397431	71.61	-1
0	397989	71.71	-1
0	398547	71.81	-1
0	399105	71.91	-1
0	400416	72.01	-1
0	400973	72.11	-1
0	401530	72.21	-1
0	402087	72.31	-1
0	402644	72.41	-1
0	403201	72.51	-1
0	403758	72.61	-1
0	404315	72.71	-1
0	404872	72.81	-1
0	405429	72.91	-1
0	405995	73.01	-1
0	406552	73.11	-1
0	407109	73.21	-1
0	407666	73.31	-1
0	408223	73.41	-1
0	408780	73.51	-1
0	409337	73.61	-1
0	409894	73.71	-1
0	410451	73.81	-1
0	411008	73.91	-1
0	411574	74.01	-1
0	412131	74.11	-1
0	412688	74.21	-1
0	413245	74.31	-1
0	413802	74.41	-1
0	414359	74.51	-1
0	414916	74.61	-1
0	415473	74.71	-1
0	416030	74.81	-1
0	416587	74.91	-1
0	417153	75.01	-1
0	417710	75.11	-1
0	418267	75.21	-1
0	418824	75.31	-1
0	419381	75.41	-1
0	419938	75.51	-1
0	420495	75.61	-1
0	421052	75.71	-1
0	421609	75.81	-1
0	422166	75.91	-1
0	422732	76.01	-1
0	423289	76.11	-1
0	423846	76.21	-1
0	424403	76.31	-1
0	424960	76.41	-1
0	425517	76.51	-1
0	426074	76.61	-1
0	426631	76.71	-1
0	427188	76.81	-1
0	427745	76.91	-1
0	428311	77.01	-1
0	428868	77.11	-1
0	429425	77.21	-1
0	429982	77.31	-1
0	430539	77.41	-1
0	431096	77.51	-1
0	431653	77.61	-1
0	432210	77.71	-1
0	432767	77.81	-1
0	433324	77.91	-1
0	433890	78.01	-1
0	434447	78.11	-1
0	435004	78.21	-1
0	435561	78.31	-1
0	436118	78.41	-1
0	436675	78.51	-1
0	437232	78.61	-1
0	437789	78.71	-1
0	438346	78.81	-1
0	438903	78.91	-1
0	439469	79.01	-1
0	440026	79.11	-1
0	440583	79.21	-1
0	441140	79.31	-1
0	441697	79.41	-1
0	442254	79.51	-1
0	442811	79.61	-1
0	443368	79.71	-1
0	443925	79.81	-1
0	444482	79.91	-1
0	445048	80.01	-1
0	445605	80.11	-1
0	446162	80.21	-1
0	446719	80.31	-1
0	447276	80.41	-1
0	447833	80.51	-1
0	448390	80.61	-1
0	448947	80.71	-1
0	449504	80.81	-1
0	450061	80.91	-1
0	450627	81.01	-1
0	451184	81.11	-1
0	451741	81.21	-1
0	452298	81.31	-1
0	452855	81.41	-1
0	453412	81.51	-1
0	453969	81.61	-1
0	454526	81.71	-1
0	455083	81.81	-1
0	455640	81.91	-1
0	456206	82.01	-1
0	456763	82.11	-1
0	457320	82.21	-1
0	457877	82.31	-1
0	458434	82.41	-1
0	458991	82.51	-1
0	459548	82.61	-1
0	460105	82.71	-1
0	460662	82.81	-1
0	461219	82.91	-1
0	461785	83.01	-1
0	462342	83.11	-1
0	462899	83.21	-1
0	463456	83.31	-1
0	464013	83.41	-1
0	464570	83.51	-1
0	465127	83.61	-1
0	465684	83.71	-1
0	466241	83.81	-1
0	466798	83.91	-1
0	467364	84.01	-1
0	467921	84.11	-1
0	468478	84.21	-1
0	469035	84.31	-1
0	469592	84.41	-1
0	470149	84.51	-1
0	470706	84.61	-1
0	471263	84.71	-1
0	471820	84.81	-1
0	472377	84.91	-1
0	472943	85.01	-1
0	473500	85.11	-1
0	474057	85.21	-1
0	474614	85.31	-1
0	475171	85.41	-1
0	475728	85.51	-1
0	476285	85.61	-1
0	476842	85.71	-1
0	477399	85.81	-1
0	477956	85.91	-1
0	478522	86.01	-1
0	479079	86.11	-1
0	479636	86.21	-1
0	480193	86.31	-1
0	480750	86.41	-1
0	481307	86.51	-1
0	481864	86.61	-1
0	482421	86.71	-1
0	482978	86.81	-1
0	483535	86.91	-1
0	484101	87.01	-1
0	484658	87.11	-1
0	485215	87.21	-1
0	485772	87.31	-1
0	486329	87.41	-1
0	486886	87.51	-1
0	487443	87.61	-1
0	488000	87.71	-1
0	488557	87.81	-1
0	489114	87.91	-1
0	489680	88.01	-1
0	490237	88.11	-1
0	490794	88.21	-1
0	491351	88.31	-1
0	491908	88.41	-1
0	492465	88.51	-1
0	493022	88.61	-1
0	493579	88.71	-1
0	494136	88.81	-1
0	494693	88.91	-1
0	495259	89.01	-1
0	495816	89.11	-1
0	496373	89.21	-1
0	496930	89.31	-1
0	497487	89.41	-1
0	498044	89.51	-1
0	498601	89.61	-1
0	499158	89.71	22.1449
0	499715	89.81	22.3894
0	500272	89.91	22.6338
0	500838	90.01	22.8783
0	501395	90.11	23.1227
0	501952	90.21	23.3671
0	502509	90.31	23.6116
0	503066	90.41	23.856
0	503623	90.51	24.1005
0	504180	90.61	24.3449
0	504737	90.71	24.5893
0	505294	90.81	24.8338
0	505851	90.91	25.0782
0	506417	91.01	25.3227
0	506974	91.11	25.5671
0	507531	91.21	25.8115
0	508088	91.31	26.056
0	508645	91.41	26.3004
0	509202	91.51	26.5449
0	509759	91.61	26.7893
0	510316	91.71	27.0337
0	510873	91.81	27.2782
0	511430	91.91	27.5226
0	511996	92.01	27.7671
0	512553	92.11	28.0115
0	513110	92.21	28.2559
0	513667	92.31	28.5004
0	514224	92.41	28.7448
0	514781	92.51	28.9893
0	515338	92.61	29.2337
0	515895	92.71	29.4781
0	516452	92.81	29.7226
0	517009	92.91	29.967
0	517575	93.01	30.2115
0	518132	93.11	30.4559
0	518689	93.21	30.7003
0	519246	93.31	30.9448
0	519803	93.41	31.1892
0	520360	93.51	31.4337
0	520917	93.61	31.6781
0	521474	93.71	31.9225
0	522031	93.81	32.167
0	522588	93.91	32.4114
0	523154	94.01	32.6559
0	523711	94.11	32.9003
0	524268	94.21	33.1447
0	524825	94.31	33.3892
0	525382	94.41	33.6336
0	525939	94.51	33.8781
0	526496	94.61	34.1225
0	527053	94.71	34.3669
0	527610	94.81	34.6114
0	528167	94.91	34.8558
0	528733	95.01	35.1003
0	529290	95.11	35.3447
0	529847	95.21	35.5891
0	530404	95.31	35.8336
0	530961	95.41	36.078
0	531518	95.51	36.3225
0	532075	95.61	36.5669
0	532632	95.71	36.8113
0	533189	95.81	37.0558
0	533746	95.91	37.3002
0	534312	96.01	37.5447
0	534869	96.11	37.7891
0	535426	96.21	38.0335
0	535983	96.31	38.278
0	536540	96.41	38.5224
0	537097	96.51	38.7669
0	537654	96.61	39.0113
0	538211	96.71	39.2557
0	538768	96.81	39.5002
0	539325	96.91	39.7446
0	539891	97.01	39.9891
0	540448	97.11	40.2335
0	541005	97.21	40.4779
0	541562	97.31	40.7224
0	542119	97.41	40.9668
0	542676	97.51	41.2113
0	543233	97.61	41.4557
0	543790	97.71	41.7001
0	544347	97.81	41.9446
0	544904	97.91	42.189
0	545470	98.01	42.4335
0	546027	98.11	42.6779
0	546584	98.21	42.9223
0	547141	98.31	43.1668
0	547698	98.41	43.4112
0	548255	98.51	43.6557
0	548812	98.61	43.9001
0	549369	98.71	44.1445
0	549926	98.81	44.389
0	550483	98.91	44.6334
0	551049	99.01	44.8779
0	551606	99.11	45.1223
0	552163	99.21	45.3667
0	552720	99.31	45.6112
0	553277	99.41	45.8556
0	553834	99.51	46.1001
0	554391	99.61	46.3445
0	554948	99.71	46.5889
0	555505	99.81	46.8334
0	556062	99.91	47.0778
1	113	1.11	0
1	670	1.21	0
1	1227	1.31	0
1	1784	1.41	0
1	2341	1.51	0
1	2898	1.61	0
1	3455	1.71	0
1	4012	1.81	0
1	4569	1.91	0
1	5135	2.01	0
1	5692	2.11	0
1	6249	2.21	0
1	6806	2.31	0
1	7363	2.41	0
1	7920	2.51	0
1	8477	2.61	0
1	9034	2.71	0
1	9591	2.81	0
1	10148	2.91	0
1	10714	3.01	0
1	11271	3.11	0
1	11828	3.21	0
1	12385	3.31	0
1	12942	3.41	0
1	13499	3.51	0
1	14056	3.61	0
1	14613	3.71	0
1	15170	3.81	0
1	15727	3.91	0
1	16293	4.01	0
1	16850	4.11	0
1	17407	4.21	0
1	17964	4.31	0
1	18521	4.41	0
1	19078	4.51	0
1	19635	4.61	0
1	20192	4.71	0
1	20749	4.81	0
1	21306	4.91	0
1	21872	5.01	0
1	22429	5.11	0
1	22986	5.21	0
1	23543	5.31	0
1	24100	5.41	0
1	24657	5.51	0
1	25214	5.61	0
1	25771	5.71	0
1	26328	5.81	0
1	26885	5.91	0
1	27451	6.01	0
1	28008	6.11	0
1	28565	6.21	0
1	29122	6.31	0
1	29679	6.41	0
1	30236	6.51	0
1	30793	6.61	0
1	31350	6.71	0
1	31907	6.81	0
1	32464	6.91	0
1	33030	7.01	0
1	33587	7.11	0
1	34144	7.21	0
1	34701	7.31	0
1	35258	7.41	0
1	35815	7.51	0
1	36372	7.61	0
1	36929	7.71	0
1	37486	7.81	0
1	38043	7.91	0
1	38609	8.01	0
1	39166	8.11	0
1	39723	8.21	0
1	40280	8.31	0
1	40837	8.41	0
1	41394	8.51	0
1	41951	8.61	0
1	42508	8.71	0
1	43065	8.81	0
1	43622	8.91	0
1	44188	9.01	0
1	44745	9.11	0
1	45302	9.21	0
1	45859	9.31	0
1	46416	9.41	0
1	46973	9.51	0
1	47530	9.61	0
1	48087	9.71	0
1	48644	9.81	0
1	49201	9.91	0
1	49852	10.01	0
1	50416	10.11	0
1	50980	10.21	0
1	51544	10.31	0
1	52108	10.41	0
1	52672	10.51	0
1	53236	10.61	0
1	53800	10.71	0
1	54364	10.81	0
1	54928	10.91	0
1	55501	11.01	0
1	56065	11.11	0
1	56629	11.21	0
1	57193	11.31	0
1	57757	11.41	0
1	58321	11.51	0
1	58885	11.61	0
1	59449	11.71	0
1	60013	11.81	0
1	60577	11.91	0
1	61150	12.01	0
1	61714	12.11	0
1	62278	12.21	0
1	62842	12.31	0
1	63406	12.41	0
1	63970	12.51	0
1	64534	12.61	0
1	65098	12.71	0
1	65662	12.81	0
1	66226	12.91	0
1	66799	13.01	0
1	67363	13.11	0
1	67927	13.21	0
1	68491	13.31	0
1	69055	13.41	0
1	69619	13.51	0
1	70183	13.61	0
1	70747	13.71	0
1	71311	13.81	0
1	71875	13.91	0
1	72448	14.01	0
1	73012	14.11	0
1	73576	14.21	0
1	74140	14.31	0
1	74704	14.41	0
1	75268	14.51	0
1	75832	14.61	0
1	76396	14.71	0
1	76960	14.81	0
1	77524	14.91	0
1	78097	15.01	0
1	78661	15.11	0
1	79225	15.21	0
1	79789	15.31	0
1	80353	15.41	0
1	80917	15.51	0
1	81481	15.61	0
1	82045	15.71	0
1	82609	15.81	0
1	83173	15.91	0
1	83746	16.01	0
1	84310	16.11	0
1	84874	16.21	0
1	85438	16.31	0
1	86002	16.41	0
1	86566	16.51	0
1	87130	16.61	0
1	87694	16.71	0
1	88258	16.81	0
1	88822	16.91	0
1	89395	17.01	0
1	89959	17.11	0
1	90523	17.21	0
1	91087	17.31	0
1	91651	17.41	0
1	92215	17.51	0
1	92779	17.61	0
1	93343	17.71	0
1	93907	17.81	0
1	94471	17.91	0
1	95044	18.01	0
1	95608	18.11	0
1	96172	18.21	0
1	96736	18.31	0
1	97300	18.41	0
1	97864	18.51	0
1	98428	18.61	0
1	98992	18.71	0
1	99556	18.81	0
1	100120	18.91	0
1	100693	19.01	0
1	101257	19.11	0
1	101821	19.21	0
1	102385	19.31	0
1	102949	19.41	0
1	103513	19.51	0
1	104077	19.61	0
1	104641	19.71	0
1	105205	19.81	0
1	105769	19.91	0
1	106342	20.01	0
1	106906	20.11	0
1	107470	20.21	0
1	108034	20.31	0
1	108598	20.41	0
1	109162	20.51	0
1	109726	20.61	0
1	110290	20.71	0
1	110854	20.81	0
1	111418	20.91	0
1	111991	21.01	0
1	112555	21.11	0
1	113119	21.21	0
1	113683	21.31	0
1	114247	21.41	0
1	114811	21.51	0
1	115375	21.61	0
1	115939	21.71	0
1	116503	21.81	0
1	117067	21.91	0
1	117640	22.01	0
1	118204	22.11	0
1	118768	22.21	0
1	119332	22.31	0
1	119896	22.41	0
1	120460	22.51	0
1	121024	22.61	0
1	121588	22.71	0
1	122152	22.81	0
1	122716	22.91	0
1	123289	23.01	0
1	123853	23.11	0
1	124417	23.21	0
1	124981	23.31	0
1	125545	23.41	0
1	126109	23.51	0
1	126673	23.61	0
1	127237	23.71	0
1	127801	23.81	0
1	128365	23.91	0
1	128938	24.01	0
1	129502	24.11	0
1	130066	24.21	0
1	130630	24.31	0
1	131194	24.41	0
1	131758	24.51	0
1	132322	24.61	0
1	132886	24.71	0
1	133450	24.81	0
1	134014	24.91	0
1	134587	25.01	0
1	135151	25.11	0
1	135715	25.21	0
1	136279	25.31	0
1	136843	25.41	0
1	137407	25.51	0
1	137971	25.61	0
1	138535	25.71	0
1	139099	25.81	0
1	139663	25.91	0
1	140236	26.01	0
1	140800	26.11	0
1	141364	26.21	0
1	141928	26.31	0
1	142492	26.41	0
1	143056	26.51	0
1	143620	26.61	0
1	144184	26.71	0
1	144748	26.81	0
1	145312	26.91	0
1	145885	27.01	0
1	146449	27.11	0
1	147013	27.21	0
1	147577	27.31	0
1	148141	27.41	0
1	148705	27.51	0
1	149269	27.61	0
1	149833	27.71	0
1	150397	27.81	0
1	150961	27.91	0
1	151534	28.01	0
1	152098	28.11	0
1	152662	28.21	0
1	153226	28.31	0
1	153790	28.41	0
1	154354	28.51	0
1	154918	28.61	0
1	155482	28.71	0
1	156046	28.81	0
1	156610	28.91	0
1	157183	29.01	0
1	157747	29.11	0
1	158311	29.21	0
1	158875	29.31	0
1	159439	29.41	0
1	160003	29.51	0
1	160567	29.61	0
1	161131	29.71	0
1	161695	29.81	0
1	162259	29.91	0
1	162832	30.01	0
1	163396	30.11	0
1	163960	30.21	0
1	164524	30.31	0
1	165088	30.41	0
1	165652	30.51	0
1	166216	30.61	0
1	166780	30.71	0
1	167344	30.81	0
1	167908	30.91	0
1	168481	31.01	0
1	169045	31.11	0
1	169609	31.21	0
1	170173	31.31	0
1	170737	31.41	0
1	171301	31.51	0
1	171865	31.61	0
1	172429	31.71	0
1	172993	31.81	0
1	173557	31.91	0
1	174130	32.01	0
1	174694	32.11	0
1	175258	32.21	0
1	175822	32.31	0
1	176386	32.41	0
1	176950	32.51	0
1	177514	32.61	0
1	178078	32.71	0
1	178642	32.81	0
1	179206	32.91	0
1	179779	33.01	0
1	180343	33.11	0
1	180907	33.21	0
1	181471	33.31	0
1	182035	33.41	0
1	182599	33.51	0
1	183163	33.61	0
1	183727	33.71	0
1	184291	33.81	0
1	184855	33.91	0
1	185428	34.01	0
1	185992	34.11	0
1	186556	34.21	0
1	187120	34.31	0
1	187684	34.41	0
1	188248	34.51	0
1	188812	34.61	0
1	189376	34.71	0
1	189940	34.81	0
1	190504	34.91	0
1	191077	35.01	0
1	191641	35.11	0
1	192205	35.21	0
1	192769	35.31	0
1	193333	35.41	0
1	193897	35.51	0
1	194461	35.61	0
1	195025	35.71	0
1	195589	35.81	0
1	196153	35.91	0
1	196726	36.01	0
1	197290	36.11	0
1	197854	36.21	0
1	198418	36.31	0
1	198982	36.41	0
1	199546	36.51	0
1	200110	36.61	0
1	200674	36.71	0
1	201238	36.81	0
1	201802	36.91	0
1	202375	37.01	0
1	202939	37.11	0
1	203503	37.21	0
1	204067	37.31	0
1	204631	37.41	0
1	205195	37.51	0
1	205759	37.61	0
1	206323	37.71	0
1	206887	37.81	0
1	207451	37.91	0
1	208024	38.01	0
1	208588	38.11	0
1	209152	38.21	0
1	209716	38.31	0
1	210280	38.41	0
1	210844	38.51	0
1	211408	38.61	0
1	211972	38.71	0
1	212536	38.81	0
1	213100	38.91	0
1	213673	39.01	0
1	214237	39.11	0
1	214801	39.21	0
1	215365	39.31	0
1	215929	39.41	0
1	216493	39.51	0
1	217057	39.61	0
1	217621	39.71	0
1	218185	39.81	0
1	218749	39.91	0
1	219322	40.01	0
1	219886	40.11	0
1	220450	40.21	0
1	221014	40.31	0
1	221578	40.41	0
1	222142	40.51	0
1	222706	40.61	0
1	223270	40.71	0
1	223834	40.81	0
1	224398	40.91	0
1	224971	41.01	0
1	225535	41.11	0
1	226099	41.21	0
1	226663	41.31	0
1	227227	41.41	0
1	227791	41.51	0
1	228355	41.61	0
1	228919	41.71	0
1	229483	41.81	0
1	230047	41.91	0
1	230620	42.01	0
1	231184	42.11	0
1	231748	42.21	0
1	232312	42.31	0
1	232876	42.41	0
1	233440	42.51	0
1	234004	42.61	0
1	234661	42.71	0
1	235224	42.81	0
1	235787	42.91	0
1	236359	43.01	0
1	236922	43.11	0
1	237485	43.21	0
1	238048	43.31	0
1	238611	43.41	0
1	239174	43.51	0
1	239737	43.61	0
1	240300	43.71	0
1	240863	43.81	0
1	241426	43.91	0
1	241998	44.01	0
1	242561	44.11	0
1	243124	44.21	0
1	243687	44.31	0
1	244250	44.41	0
1	244813	44.51	0
1	245376	44.61	0
1	245939	44.71	0
1	246502	44.81	0
1	247065	44.91	0
1	247637	45.01	0
1	248200	45.11	0
1	248763	45.21	0
1	249326	45.31	0
1	249889	45.41	0
1	250452	45.51	0
1	251015	45.61	0
1	251578	45.71	0
1	252141	45.81	0
1	252704	45.91	0
1	253276	46.01	0
1	253839	46.11	0
1	254402	46.21	0
1	254965	46.31	0
1	255528	46.41	0
1	256091	46.51	0
1	256654	46.61	0
1	257217	46.71	0
1	257780	46.81	0
1	258343	46.91	0
1	258915	47.01	0
1	259478	47.11	0
1	260041	47.21	0
1	260604	47.31	0
1	261167	47.41	0
1	261730	47.51	0
1	262293	47.61	0
1	262856	47.71	0
1	263419	47.81	0
1	263982	47.91	0
1	264554	48.01	0
1	265117	48.11	0
1	265680	48.21	0
1	266243	48.31	0
1	266806	48.41	0
1	267462	48.51	0
1	268024	48.61	0
1	268586	48.71	0
1	269148	48.81	0
1	269710	48.91	0
1	270281	49.01	0
1	270843	49.11	0
1	271405	49.21	0
1	271967	49.31	0
1	272529	49.41	0
1	273091	49.51	0
1	273653	49.61	0
1	274215	49.71	0
1	274777	49.81	0
1	275339	49.91	0
1	275910	50.01	0
1	276472	50.11	0
1	277034	50.21	0
1	277596	50.31	0
1	278158	50.41	0
1	278720	50.51	0
1	279282	50.61	0
1	279844	50.71	0
1	280406	50.81	0
1	280968	50.91	0
1	281539	51.01	0
1	282101	51.11	0
1	282663	51.21	0
1	283225	51.31	0
1	283787	51.41	0
1	284349	51.51	0
1	284911	51.61	0
1	285473	51.71	0
1	286035	51.81	0
1	286597	51.91	0
1	287168	52.01	0
1	287730	52.11	0
1	288292	52.21	0
1	288854	52.31	0
1	289416	52.41	0
1	289978	52.51	0
1	290540	52.61	0
1	291102	52.71	0
1	291664	52.81	0
1	292226	52.91	0
1	292797	53.01	0
1	293359	53.11	0
1	293921	53.21	0
1	294483	53.31	0
1	295045	53.41	0
1	295607	53.51	0
1	296169	53.61	0
1	296824	53.71	0
1	297385	53.81	0
1	297946	53.91	0
1	298516	54.01	0
1	299077	54.11	0
1	299638	54.21	0
1	300199	54.31	0
1	300760	54.41	0
1	301321	54.51	0
1	301882	54.61	0
1	302443	54.71	0
1	303004	54.81	0
1	303565	54.91	0
1	304135	55.01	0
1	304696	55.11	0
1	305257	55.21	0
1	305818	55.31	0
1	306379	55.41	0
1	306940	55.51	0
1	307501	55.61	0
1	308062	55.71	0
1	308623	55.81	0
1	309184	55.91	0
1	309754	56.01	0
1	310315	56.11	0
1	310876	56.21	0
1	311437	56.31	0
1	311998	56.41	0
1	312559	56.51	0
1	313120	56.61	0
1	313681	56.71	0
1	314242	56.81	0
1	314803	56.91	0
1	315373	57.01	0
1	315934	57.11	0
1	316495	57.21	0
1	317056	57.31	0
1	317617	57.41	0
1	318178	57.51	0
1	318739	57.61	0
1	319300	57.71	0
1	319861	57.81	0
1	320422	57.91	0
1	320992	58.01	0
1	321553	58.11	0
1	322114	58.21	0
1	322675	58.31	0
1	323236	58.41	0
1	323797	58.51	0
1	324451	58.61	0
1	325011	58.71	0
1	325571	58.81	0
1	326131	58.91	0
1	326700	59.01	0
1	327260	59.11	0
1	327820	59.21	0
1	328380	59.31	0
1	328940	59.41	0
1	329500	59.51	0
1	330060	59.61	0
1	330620	59.71	0
1	331180	59.81	0
1	331740	59.91	0
1	332309	60.01	0
1	332869	60.11	0
1	333429	60.21	0
1	333989	60.31	0
1	334549	60.41	0
1	335109	60.51	0
1	335669	60.61	0
1	336229	60.71	0
1	336789	60.81	0
1	337349	60.91	0
1	337918	61.01	0
1	338478	61.11	0
1	339038	61.21	0
1	339598	61.31	0
1	340158	61.41	0
1	340718	61.51	0
1	341278	61.61	0
1	341838	61.71	0
1	342398	61.81	0
1	342958	61.91	0
1	343527	62.01	0
1	344087	62.11	0
1	344647	62.21	0
1	345207	62.31	0
1	345767	62.41	0
1	346327	62.51	0
1	346887	62.61	0
1	347447	62.71	0
1	348007	62.81	0
1	348567	62.91	0
1	349136	63.01	0
1	349696	63.11	0
1	350349	63.21	0
1	350908	63.31	0
1	351467	63.41	0
1	352026	63.51	0
1	352585	63.61	0
1	353144	63.71	0
1	353703	63.81	0
1	354262	63.91	0
1	354830	64.01	0
1	355389	64.11	0
1	355948	64.21	0
1	356507	64.31	0
1	357066	64.41	0
1	357625	64.51	0
1	358184	64.61	0
1	358743	64.71	0
1	359302	64.81	0
1	359861	64.91	0
1	360429	65.01	0
1	360988	65.11	0
1	361547	65.21	0
1	362106	65.31	0
1	362665	65.41	0
1	363224	65.51	0
1	363783	65.61	0
1	364342	65.71	0
1	364901	65.81	0
1	365460	65.91	0
1	366028	66.01	0
1	366587	66.11	0
1	367146	66.21	0
1	367705	66.31	0
1	368264	66.41	0
1	368823	66.51	0
1	369382	66.61	0
1	369941	66.71	0
1	370500	66.81	0
1	371059	66.91	0
1	371627	67.01	0
1	372186	67.11	0
1	372745	67.21	0
1	373304	67.31	0
1	373863	67.41	0
1	374422	67.51	0
1	374981	67.61	0
1	375633	67.71	0
1	376191	67.81	0
1	376749	67.91	0
1	377316	68.01	0
1	377874	68.11	0
1	378432	68.21	0
1	378990	68.31	0
1	379548	68.41	0
1	380106	68.51	0
1	380664	68.61	0
1	381222	68.71	0
1	381780	68.81	0
1	382338	68.91	0
1	382905	69.01	0
1	383463	69.11	0
1	384021	69.21	0
1	384579	69.31	0
1	385137	69.41	0
1	385695	69.51	0
1	386253	69.61	0
1	386811	69.71	0
1	387369	69.81	0
1	387927	69.91	0
1	388494	70.01	0
1	389052	70.11	0
1	389610	70.21	0
1	390168	70.31	0
1	390726	70.41	0
1	391284	70.51	0
1	391842	70.61	0
1	392400	70.71	0
1	392958	70.81	0
1	393516	70.91	0
1	394083	71.01	0
1	394641	71.11	0
1	395199	71.21	0
1	395757	71.31	0
1	396315	71.41	0
1	396873	71.51	0
1	397431	71.61	0
1	397989	71.71	0
1	398547	71.81	0
1	399105	71.91	0
1	400416	72.01	0
1	400973	72.11	0
1	401530	72.21	0
1	402087	72.31	0
1	402644	72.41	0
1	403201	72.51	0
1	403758	72.61	0
1	404315	72.71	0
1	404872	72.81	0
1	405429	72.91	0
1	405995	73.01	0
1	406552	73.11	0
1	407109	73.21	0
1	407666	73.31	0
1	408223	73.41	0
1	408780	73.51	0
1	409337	73.61	0
1	409894	73.71	0
1	410451	73.81	0
1	411008	73.91	0
1	411574	74.01	0
1	412131	74.11	0
1	412688	74.21	0
1	413245	74.31	0
1	413802	74.41	0
1	414359	74.51	0
1	414916	74.61	0
1	415473	74.71	0
1	416030	74.81	0
1	416587	74.91	0
1	417153	75.01	0
1	417710	75.11	0
1	418267	75.21	0
1	418824	75.31	0
1	419381	75.41	0
1	419938	75.51	0
1	420495	75.61	0
1	421052	75.71	0
1	421609	75.81	0
1	422166	75.91	0
1	422732	76.01	0
1	423289	76.11	0
1	423846	76.21	0
1	424403	76.31	0
1	424960	76.41	0
1	425517	76.51	0
1	426074	76.61	0
1	426631	76.71	0
1	427188	76.81	0
1	427745	76.91	0
1	428311	77.01	0
1	428868	77.11	0
1	429425	77.21	0
1	429982	77.31	0
1	430539	77.41	0
1	431096	77.51	0
1	431653	77.61	0
1	432210	77.71	0
1	432767	77.81	0
1	433324	77.91	0
1	433890	78.01	0
1	434447	78.11	0
1	435004	78.21	0
1	435561	78.31	0
1	436118	78.41	0
1	436675	78.51	0
1	437232	78.61	0
1	437789	78.71	0
1	438346	78.81	0
1	438903	78.91	0
1	439469	79.01	0
1	440026	79.11	0
1	440583	79.21	0
1	441140	79.31	0
1	441697	79.41	0
1	442254	79.51	0
1	442811	79.61	0
1	443368	79.71	0
1	443925	79.81	0
1	444482	79.91	0
1	445048	80.01	0
1	445605	80.11	0
1	446162	80.21	0
1	446719	80.31	0
1	447276	80.41	0
1	447833	80.51	0
1	448390	80.61	0
1	448947	80.71	0
1	449504	80.81	0
1	450061	80.91	0
1	450627	81.01	0
1	451184	81.11	0
1	451741	81.21	0
1	452298	81.31	0
1	452855	81.41	0
1	453412	81.51	0
1	453969	81.61	0
1	454526	81.71	0
1	455083	81.81	0
1	455640	81.91	0
1	456206	82.01	0
1	456763	82.11	0
1	457320	82.21	0
1	457877	82.31	0
1	458434	82.41	0
1	458991	82.51	0
1	459548	82.61	0
1	460105	82.71	0
1	460662	82.81	0
1	461219	82.91	0
1	461785	83.01	0
1	462342	83.11	0
1	462899	83.21	0
1	463456	83.31	0
1	464013	83.41	0
1	464570	83.51	0
1	465127	83.61	0
1	465684	83.71	0
1	466241	83.81	0
1	466798	83.91	0
1	467364	84.01	0
1	467921	84.11	0
1	468478	84.21	0
1	469035	84.31	0
1	469592	84.41	0
1	470149	84.51	0
1	470706	84.61	0
1	471263	84.71	0
1	471820	84.81	0
1	472377	84.91	0
1	472943	85.01	0
1	473500	85.11	0
1	474057	85.21	0
1	474614	85.31	0
1	475171	85.41	0
1	475728	85.51	0
1	476285	85.61	0
1	476842	85.71	0
1	477399	85.81	0
1	477956	85.91	0
1	478522	86.01	0
1	479079	86.11	0
1	479636	86.21	0
1	480193	86.31	0
1	480750	86.41	0
1	481307	86.51	0
1	481864	86.61	0
1	482421	86.71	0
1	482978	86.81	0
1	483535	86.91	0
1	484101	87.01	0
1	484658	87.11	0
1	485215	87.21	0
1	485772	87.31	0
1	486329	87.41	0
1	486886	87.51	0
1	487443	87.61	0
1	488000	87.71	0
1	488557	87.81	0
1	489114	87.91	0
1	489680	88.01	0
1	490237	88.11	0
1	490794	88.21	0
1	491351	88.31	0
1	491908	88.41	0
1	492465	88.51	0
1	493022	88.61	0
1	493579	88.71	0
1	494136	88.81	0
1	494693	88.91	0
1	495259	89.01	0
1	495816	89.11	0
1	496373	89.21	0
1	496930	89.31	0
1	497487	89.41	0
1	498044	89.51	0
1	498601	89.61	0
1	499158	89.71	2.4444
1	499715	89.81	2.4444
1	500272	89.91	2.4444
1	500838	90.01	2.4444
1	501395	90.11	2.4444
1	501952	90.21	2.4444
1	502509	90.31	2.4444
1	503066	90.41	2.4444
1	503623	90.51	2.4444
1	504180	90.61	2.4444
1	504737	90.71	2.4444
1	505294	90.81	2.4444
1	505851	90.91	2.4444
1	506417	91.01	2.4444
1	506974	91.11	2.4444
1	507531	91.21	2.4444
1	508088	91.31	2.4444
1	508645	91.41	2.4444
1	509202	91.51	2.4444
1	509759	91.61	2.4444
1	510316	91.71	2.4444
1	510873	91.81	2.4444
1	511430	91.91	2.4444
1	511996	92.01	2.4444
1	512553	92.11	2.4444
1	513110	92.21	2.4444
1	513667	92.31	2.4444
1	514224	92.41	2.4444
1	514781	92.51	2.4444
1	515338	92.61	2.4444
1	515895	92.71	2.4444
1	516452	92.81	2.4444
1	517009	92.91	2.4444
1	517575	93.01	2.4444
1	518132	93.11	2.4444
1	518689	93.21	2.4444
1	519246	93.31	2.4444
1	519803	93.41	2.4444
1	520360	93.51	2.4444
1	520917	93.61	2.4444
1	521474	93.71	2.4444
1	522031	93.81	2.4444
1	522588	93.91	2.4444
1	523154	94.01	2.4444
1	523711	94.11	2.4444
1	524268	94.21	2.4444
1	524825	94.31	2.4444
1	525382	94.41	2.4444
1	525939	94.51	2.4444
1	526496	94.61	2.4444
1	527053	94.71	2.4444
1	527610	94.81	2.4444
1	528167	94.91	2.4444
1	528733	95.01	2.4444
1	529290	95.11	2.4444
1	529847	95.21	2.4444
1	530404	95.31	2.4444
1	530961	95.41	2.4444
1	531518	95.51	2.4444
1	532075	95.61	2.4444
1	532632	95.71	2.4444
1	533189	95.81	2.4444
1	533746	95.91	2.4444
1	534312	96.01	2.4444
1	534869	96.11	2.4444
1	535426	96.21	2.4444
1	535983	96.31	2.4444
1	536540	96.41	2.4444
1	537097	96.51	2.4444
1	537654	96.61	2.4444
1	538211	96.71	2.4444
1	538768	96.81	2.4444
1	539325	96.91	2.4444
1	539891	97.01	2.4444
1	540448	97.11	2.4444
1	541005	97.21	2.4444
1	541562	97.31	2.4444
1	542119	97.41	2.4444
1	542676	97.51	2.4444
1	543233	97.61	2.4444
1	543790	97.71	2.4444
1	544347	97.81	2.4444
1	544904	97.91	2.4444
1	545470	98.01	2.4444
1	546027	98.11	2.4444
1	546584	98.21	2.4444
1	547141	98.31	2.4444
1	547698	98.41	2.4444
1	548255	98.51	2.4444
1	548812	98.61	2.4444
1	549369	98.71	2.4444
1	549926	98.81	2.4444
1	550483	98.91	2.4444
1	551049	99.01	2.4444
1	551606	99.11	2.4444
1	552163	99.21	2.4444
1	552720	99.31	2.4444
1	553277	99.41	2.4444
1	553834	99.51	2.4444
1	554391	99.61	2.4444
1	554948	99.71	2.4444
1	555505	99.81	2.4444
1	556062	99.91	2.4444
2	113	1.11	0
2	670	1.21	0
2	1227	1.31	0
2	1784	1.41	0
2	2341	1.51	0
2	2898	1.61	0
2	3455	1.71	0
2	4012	1.81	0
2	4569	1.91	0
2	5135	2.01	0
2	5692	2.11	0
2	6249	2.21	0
2	6806	2.31	0
2	7363	2.41	0
2	7920	2.51	0
2	8477	2.61	0
2	9034	2.71	0
2	9591	2.81	0
2	10148	2.91	0
2	10714	3.01	0
2	11271	3.11	0
2	11828	3.21	0
2	12385	3.31	0
2	12942	3.41	0
2	13499	3.51	0
2	14056	3.61	0
2	14613	3.71	0
2	15170	3.81	0
2	15727	3.91	0
2	16293	4.01	0
2	16850	4.11	0
2	17407	4.21	0
2	17964	4.31	0
2	18521	4.41	0
2	19078	4.51	0
2	19635	4.61	0
2	20192	4.71	0
2	20749	4.81	0
2	21306	4.91	0
2	21872	5.01	0
2	22429	5.11	0
2	22986	5.21	0
2	23543	5.31	0
2	24100	5.41	0
2	24657	5.51	0
2	25214	5.61	0
2	25771	5.71	0
2	26328	5.81	0
2	26885	5.91	0
2	27451	6.01	0
2	28008	6.11	0
2	28565	6.21	0
2	29122	6.31	0
2	29679	6.41	0
2	30236	6.51	0
2	30793	6.61	0
2	31350	6.71	0
2	31907	6.81	0
2	32464	6.91	0
2	33030	7.01	0
2	33587	7.11	0
2	34144	7.21	0
2	34701	7.31	0
2	35258	7.41	0
2	35815	7.51	0
2	36372	7.61	0
2	36929	7.71	0
2	37486	7.81	0
2	38043	7.91	0
2	38609	8.01	0
2	39166	8.11	0
2	39723	8.21	0
2	40280	8.31	0
2	40837	8.41	0
2	41394	8.51	0
2	41951	8.61	0
2	42508	8.71	0
2	43065	8.81	0
2	43622	8.91	0
2	44188	9.01	0
2	44745	9.11	0
2	45302	9.21	0
2	45859	9.31	0
2	46416	9.41	0
2	46973	9.51	0
2	47530	9.61	0
2	48087	9.71	0
2	48644	9.81	0
2	49201	9.91	0
2	49852	10.01	0
2	50416	10.11	0
2	50980	10.21	0
2	51544	10.31	0
2	52108	10.41	0
2	52672	10.51	0
2	53236	10.61	0
2	53800	10.71	0
2	54364	10.81	0
2	54928	10.91	0
2	55501	11.01	0
2	56065	11.11	0
2	56629	11.21	0
2	57193	11.31	0
2	57757	11.41	0
2	58321	11.51	0
2	58885	11.61	0
2	59449	11.71	0
2	60013	11.81	0
2	60577	11.91	0
2	61150	12.01	0
2	61714	12.11	0
2	62278	12.21	0
2	62842	12.31	0
2	63406	12.41	0
2	63970	12.51	0
2	64534	12.61	0
2	65098	12.71	0
2	65662	12.81	0
2	66226	12.91	0
2	66799	13.01	0
2	67363	13.11	0
2	67927	13.21	0
2	68491	13.31	0
2	69055	13.41	0
2	69619	13.51	0
2	70183	13.61	0
2	70747	13.71	0
2	71311	13.81	0
2	71875	13.91	0
2	72448	14.01	0
2	73012	14.11	0
2	73576	14.21	0
2	74140	14.31	0
2	74704	14.41	0
2	75268	14.51	0
2	75832	14.61	0
2	76396	14.71	0
2	76960	14.81	0
2	77524	14.91	0
2	78097	15.01	0
2	78661	15.11	0
2	79225	15.21	0
2	79789	15.31	0
2	80353	15.41	0
2	80917	15.51	0
2	81481	15.61	0
2	82045	15.71	0
2	82609	15.81	0
2	83173	15.91	0
2	83746	16.01	0
2	84310	16.11	0
2	84874	16.21	0
2	85438	16.31	0
2	86002	16.41	0
2	86566	16.51	0
2	87130	16.61	0
2	87694	16.71	0
2	88258	16.81	0
2	88822	16.91	0
2	89395	17.01	0
2	89959	17.11	0
2	90523	17.21	0
2	91087	17.31	0
2	91651	17.41	0
2	92215	17.51	0
2	92779	17.61	0
2	93343	17.71	0
2	93907	17.81	0
2	94471	17.91	0
2	95044	18.01	0
2	95608	18.11	0
2	96172	18.21	0
2	96736	18.31	0
2	97300	18.41	0
2	97864	18.51	0
2	98428	18.61	0
2	98992	18.71	0
2	99556	18.81	0
2	100120	18.91	0
2	100693	19.01	0
2	101257	19.11	0
2	101821	19.21	0
2	102385	19.31	0
2	102949	19.41	0
2	103513	19.51	0
2	104077	19.61	0
2	104641	19.71	0
2	105205	19.81	0
2	105769	19.91	0
2	106342	20.01	0
2	106906	20.11	0
2	107470	20.21	0
2	108034	20.31	0
2	108598	20.41	0
2	109162	20.51	0
2	109726	20.61	0
2	110290	20.71	0
2	110854	20.81	0
2	111418	20.91	0
2	111991	21.01	0
2	112555	21.11	0
2	113119	21.21	0
2	113683	21.31	0
2	114247	21.41	0
2	114811	21.51	0
2	115375	21.61	0
2	115939	21.71	0
2	116503	21.81	0
2	117067	21.91	0
2	117640	22.01	0
2	118204	22.11	0
2	118768	22.21	0
2	119332	22.31	0
2	119896	22.41	0
2	120460	22.51	0
2	121024	22.61	0
2	121588	22.71	0
2	122152	22.81	0
2	122716	22.91	0
2	123289	23.01	0
2	123853	23.11	0
2	124417	23.21	0
2	124981	23.31	0
2	125545	23.41	0
2	126109	23.51	0
2	126673	23.61	0
2	127237	23.71	0
2	127801	23.81	0
2	128365	23.91	0
2	128938	24.01	0
2	129502	24.11	0
2	130066	24.21	0
2	130630	24.31	0
2	131194	24.41	0
2	131758	24.51	0
2	132322	24.61	0
2	132886	24.71	0
2	133450	24.81	0
2	134014	24.91	0
2	134587	25.01	0
2	135151	25.11	0
2	135715	25.21	0
2	136279	25.31	0
2	136843	25.41	0
2	137407	25.51	0
2	137971	25.61	0
2	138535	25.71	0
2	139099	25.81	0
2	139663	25.91	0
2	140236	26.01	0
2	140800	26.11	0
2	141364	26.21	0
2	141928	26.31	0
2	142492	26.41	0
2	143056	26.51	0
2	143620	26.61	0
2	144184	26.71	0
2	144748	26.81	0
2	145312	26.91	0
2	145885	27.01	0
2	146449	27.11	0
2	147013	27.21	0
2	147577	27.31	0
2	148141	27.41	0
2	148705	27.51	0
2	149269	27.61	0
2	149833	27.71	0
2	150397	27.81	0
2	150961	27.91	0
2	151534	28.01	0
2	152098	28.11	0
2	152662	28.21	0
2	153226	28.31	0
2	153790	28.41	0
2	154354	28.51	0
2	154918	28.61	0
2	155482	28.71	0
2	156046	28.81	0
2	156610	28.91	0
2	157183	29.01	0
2	157747	29.11	0
2	158311	29.21	0
2	158875	29.31	0
2	159439	29.41	0
2	160003	29.51	0
2	160567	29.61	0
2	161131	29.71	0
2	161695	29.81	0
2	162259	29.91	0
2	162832	30.01	0
2	163396	30.11	0
2	163960	30.21	0
2	164524	30.31	0
2	165088	30.41	0
2	165652	30.51	0
2	166216	30.61	0
2	166780	30.71	0
2	167344	30.81	0
2	167908	30.91	0
2	168481	31.01	0
2	169045	31.11	0
2	169609	31.21	0
2	170173	31.31	0
2	170737	31.41	0
2	171301	31.51	0
2	171865	31.61	0
2	172429	31.71	0
2	172993	31.81	0
2	173557	31.91	0
2	174130	32.01	0
2	174694	32.11	0
2	175258	32.21	0
2	175822	32.31	0
2	176386	32.41	0
2	176950	32.51	0
2	177514	32.61	0
2	178078	32.71	0
2	178642	32.81	0
2	179206	32.91	0
2	179779	33.01	0
2	180343	33.11	0
2	180907	33.21	0
2	181471	33.31	0
2	182035	33.41	0
2	182599	33.51	0
2	183163	33.61	0
2	183727	33.71	0
2	184291	33.81	0
2	184855	33.91	0
2	185428	34.01	0
2	185992	34.11	0
2	186556	34.21	0
2	187120	34.31	0
2	187684	34.41	0
2	188248	34.51	0
2	188812	34.61	0
2	189376	34.71	0
2	189940	34.81	0
2	190504	34.91	0
2	191077	35.01	0
2	191641	35.11	0
2	192205	35.21	0
2	192769	35.31	0
2	193333	35.41	0
2	193897	35.51	0
2	194461	35.61	0
2	195025	35.71	0
2	195589	35.81	0
2	196153	35.91	0
2	196726	36.01	0
2	197290	36.11	0
2	197854	36.21	0
2	198418	36.31	0
2	198982	36.41	0
2	199546	36.51	0
2	200110	36.61	0
2	200674	36.71	0
2	201238	36.81	0
2	201802	36.91	0
2	202375	37.01	0
2	202939	37.11	0
2	203503	37.21	0
2	204067	37.31	0
2	204631	37.41	0
2	205195	37.51	0
2	205759	37.61	0
2	206323	37.71	0
2	206887	37.81	0
2	207451	37.91	0
2	208024	38.01	0
2	208588	38.11	0
2	209152	38.21	0
2	209716	38.31	0
2	210280	38.41	0
2	210844	38.51	0
2	211408	38.61	0
2	211972	38.71	0
2	212536	38.81	0
2	213100	38.91	0
2	213673	39.01	0
2	214237	39.11	0
2	214801	39.21	0
2	215365	39.31	0
2	215929	39.41	0
2	216493	39.51	0
2	217057	39.61	0
2	217621	39.71	0
2	218185	39.81	0
2	218749	39.91	0
2	219322	40.01	0
2	219886	40.11	0
2	220450	40.21	0
2	221014	40.31	0
2	221578	40.41	0
2	222142	40.51	0
2	222706	40.61	0
2	223270	40.71	0
2	223834	40.81	0
2	224398	40.91	0
2	224971	41.01	0
2	225535	41.11	0
2	226099	41.21	0
2	226663	41.31	0
2	227227	41.41	0
2	227791	41.51	0
2	228355	41.61	0
2	228919	41.71	0
2	229483	41.81	0
2	230047	41.91	0
2	230620	42.01	0
2	231184	42.11	0
2	231748	42.21	0
2	232312	42.31	0
2	232876	42.41	0
2	233440	42.51	0
2	234004	42.61	0
2	234661	42.71	0
2	235224	42.81	0
2	235787	42.91	0
2	236359	43.01	0
2	236922	43.11	0
2	237485	43.21	0
2	238048	43.31	0
2	238611	43.41	0
2	239174	43.51	0
2	239737	43.61	0
2	240300	43.71	0
2	240863	43.81	0
2	241426	43.91	0
2	241998	44.01	0
2	242561	44.11	0
2	243124	44.21	0
2	243687	44.31	0
2	244250	44.41	0
2	244813	44.51	0
2	245376	44.61	0
2	245939	44.71	0
2	246502	44.81	0
2	247065	44.91	0
2	247637	45.01	0
2	248200	45.11	0
2	248763	45.21	0
2	249326	45.31	0
2	249889	45.41	0
2	250452	45.51	0
2	251015	45.61	0
2	251578	45.71	0
2	252141	45.81	0
2	252704	45.91	0
2	253276	46.01	0
2	253839	46.11	0
2	254402	46.21	0
2	254965	46.31	0
2	255528	46.41	0
2	256091	46.51	0
2	256654	46.61	0
2	257217	46.71	0
2	257780	46.81	0
2	258343	46.91	0
2	258915	47.01	0
2	259478	47.11	0
2	260041	47.21	0
2	260604	47.31	0
2	261167	47.41	0
2	261730	47.51	0
2	262293	47.61	0
2	262856	47.71	0
2	263419	47.81	0
2	263982	47.91	0
2	264554	48.01	0
2	265117	48.11	0
2	265680	48.21	0
2	266243	48.31	0
2	266806	48.41	0
2	267462	48.51	0
2	268024	48.61	0
2	268586	48.71	0
2	269148	48.81	0
2	269710	48.91	0
2	270281	49.01	0
2	270843	49.11	0
2	271405	49.21	0
2	271967	49.31	0
2	272529	49.41	0
2	273091	49.51	0
2	273653	49.61	0
2	274215	49.71	0
2	274777	49.81	0
2	275339	49.91	0
2	275910	50.01	0
2	276472	50.11	0
2	277034	50.21	0
2	277596	50.31	0
2	278158	50.41	0
2	278720	50.51	0
2	279282	50.61	0
2	279844	50.71	0
2	280406	50.81	0
2	280968	50.91	0
2	281539	51.01	0
2	282101	51.11	0
2	282663	51.21	0
2	283225	51.31	0
2	283787	51.41	0
2	284349	51.51	0
2	284911	51.61	0
2	285473	51.71	0
2	286035	51.81	0
2	286597	51.91	0
2	287168	52.01	0
2	287730	52.11	0
2	288292	52.21	0
2	288854	52.31	0
2	289416	52.41	0
2	289978	52.51	0
2	290540	52.61	0
2	291102	52.71	0
2	291664	52.81	0
2	292226	52.91	0
2	292797	53.01	0
2	293359	53.11	0
2	293921	53.21	0
2	294483	53.31	0
2	295045	53.41	0
2	295607	53.51	0
2	296169	53.61	0
2	296824	53.71	0
2	297385	53.81	0
2	297946	53.91	0
2	298516	54.01	0
2	299077	54.11	0
2	299638	54.21	0
2	300199	54.31	0
2	300760	54.41	0
2	301321	54.51	0
2	301882	54.61	0
2	302443	54.71	0
2	303004	54.81	0
2	303565	54.91	0
2	304135	55.01	0
2	304696	55.11	0
2	305257	55.21	0
2	305818	55.31	0
2	306379	55.41	0
2	306940	55.51	0
2	307501	55.61	0
2	308062	55.71	0
2	308623	55.81	0
2	309184	55.91	0
2	309754	56.01	0
2	310315	56.11	0
2	310876	56.21	0
2	311437	56.31	0
2	311998	56.41	0
2	312559	56.51	0
2	313120	56.61	0
2	313681	56.71	0
2	314242	56.81	0
2	314803	56.91	0
2	315373	57.01	0
2	315934	57.11	0
2	316495	57.21	0
2	317056	57.31	0
2	317617	57.41	0
2	318178	57.51	0
2	318739	57.61	0
2	319300	57.71	0
2	319861	57.81	0
2	320422	57.91	0
2	320992	58.01	0
2	321553	58.11	0
2	322114	58.21	0
2	322675	58.31	0
2	323236	58.41	0
2	323797	58.51	0
2	324451	58.61	0
2	325011	58.71	0
2	325571	58.81	0
2	326131	58.91	0
2	326700	59.01	0
2	327260	59.11	0
2	327820	59.21	0
2	328380	59.31	0
2	328940	59.41	0
2	329500	59.51	0
2	330060	59.61	0
2	330620	59.71	0
2	331180	59.81	0
2	331740	59.91	0
2	332309	60.01	0
2	332869	60.11	0
2	333429	60.21	0
2	333989	60.31	0
2	334549	60.41	0
2	335109	60.51	0
2	335669	60.61	0
2	336229	60.71	0
2	336789	60.81	0
2	337349	60.91	0
2	337918	61.01	0
2	338478	61.11	0
2	339038	61.21	0
2	339598	61.31	0
2	340158	61.41	0
2	340718	61.51	0
2	341278	61.61	0
2	341838	61.71	0
2	342398	61.81	0
2	342958	61.91	0
2	343527	62.01	0
2	344087	62.11	0
2	344647	62.21	0
2	345207	62.31	0
2	345767	62.41	0
2	346327	62.51	0
2	346887	62.61	0
2	347447	62.71	0
2	348007	62.81	0
2	348567	62.91	0
2	349136	63.01	0
2	349696	63.11	0
2	350349	63.21	0
2	350908	63.31	0
2	351467	63.41	0
2	352026	63.51	0
2	352585	63.61	0
2	353144	63.71	0
2	353703	63.81	0
2	354262	63.91	0
2	354830	64.01	0
2	355389	64.11	0
2	355948	64.21	0
2	356507	64.31	0
2	357066	64.41	0
2	357625	64.51	0
2	358184	64.61	0
2	358743	64.71	0
2	359302	64.81	0
2	359861	64.91	0
2	360429	65.01	0
2	360988	65.11	0
2	361547	65.21	0
2	362106	65.31	0
2	362665	65.41	0
2	363224	65.51	0
2	363783	65.61	0
2	364342	65.71	0
2	364901	65.81	0
2	365460	65.91	0
2	366028	66.01	0
2	366587	66.11	0
2	367146	66.21	0
2	367705	66.31	0
2	368264	66.41	0
2	368823	66.51	0
2	369382	66.61	0
2	369941	66.71	0
2	370500	66.81	0
2	371059	66.91	0
2	371627	67.01	0
2	372186	67.11	0
2	372745	67.21	0
2	373304	67.31	0
2	373863	67.41	0
2	374422	67.51	0
2	374981	67.61	0
2	375633	67.71	0
2	376191	67.81	0
2	376749	67.91	0
2	377316	68.01	0
2	377874	68.11	0
2	378432	68.21	0
2	378990	68.31	0
2	379548	68.41	0
2	380106	68.51	0
2	380664	68.61	0
2	381222	68.71	0
2	381780	68.81	0
2	382338	68.91	0
2	382905	69.01	0
2	383463	69.11	0
2	384021	69.21	0
2	384579	69.31	0
2	385137	69.41	0
2	385695	69.51	0
2	386253	69.61	0
2	386811	69.71	0
2	387369	69.81	0
2	387927	69.91	0
2	388494	70.01	0
2	389052	70.11	0
2	389610	70.21	0
2	390168	70.31	0
2	390726	70.41	0
2	391284	70.51	0
2	391842	70.61	0
2	392400	70.71	0
2	392958	70.81	0
2	393516	70.91	0
2	394083	71.01	0
2	394641	71.11	0
2	395199	71.21	0
2	395757	71.31	0
2	396315	71.41	0
2	396873	71.51	0
2	397431	71.61	0
2	397989	71.71	0
2	398547	71.81	0
2	399105	71.91	0
2	400416	72.01	0
2	400973	72.11	0
2	401530	72.21	0
2	402087	72.31	0
2	402644	72.41	0
2	403201	72.51	0
2	403758	72.61	0
2	404315	72.71	0
2	404872	72.81	0
2	405429	72.91	0
2	405995	73.01	0
2	406552	73.11	0
2	407109	73.21	0
2	407666	73.31	0
2	408223	73.41	0
2	408780	73.51	0
2	409337	73.61	0
2	409894	73.71	0
2	410451	73.81	0
2	411008	73.91	0
2	411574	74.01	0
2	412131	74.11	0
2	412688	74.21	0
2	413245	74.31	0
2	413802	74.41	0
2	414359	74.51	0
2	414916	74.61	0
2	415473	74.71	0
2	416030	74.81	0
2	416587	74.91	0
2	417153	75.01	0
2	417710	75.11	0
2	418267	75.21	0
2	418824	75.31	0
2	419381	75.41	0
2	419938	75.51	0
2	420495	75.61	0
2	421052	75.71	0
2	421609	75.81	0
2	422166	75.91	0
2	422732	76.01	0
2	423289	76.11	0
2	423846	76.21	0
2	424403	76.31	0
2	424960	76.41	0
2	425517	76.51	0
2	426074	76.61	0
2	426631	76.71	0
2	427188	76.81	0
2	427745	76.91	0
2	428311	77.01	0
2	428868	77.11	0
2	429425	77.21	0
2	429982	77.31	0
2	430539	77.41	0
2	431096	77.51	0
2	431653	77.61	0
2	432210	77.71	0
2	432767	77.81	0
2	433324	77.91	0
2	433890	78.01	0
2	434447	78.11	0
2	435004	78.21	0
2	435561	78.31	0
2	436118	78.41	0
2	436675	78.51	0
2	437232	78.61	0
2	437789	78.71	0
2	438346	78.81	0
2	438903	78.91	0
2	439469	79.01	0
2	440026	79.11	0
2	440583	79.21	0
2	441140	79.31	0
2	441697	79.41	0
2	442254	79.51	0
2	442811	79.61	0
2	443368	79.71	0
2	443925	79.81	0
2	444482	79.91	0
2	445048	80.01	0
2	445605	80.11	0
2	446162	80.21	0
2	446719	80.31	0
2	447276	80.41	0
2	447833	80.51	0
2	448390	80.61	0
2	448947	80.71	0
2	449504	80.81	0
2	450061	80.91	0
2	450627	81.01	0
2	451184	81.11	0
2	451741	81.21	0
2	452298	81.31	0
2	452855	81.41	0
2	453412	81.51	0
2	453969	81.61	0
2	454526	81.71	0
2	455083	81.81	0
2	455640	81.91	0
2	456206	82.01	0
2	456763	82.11	0
2	457320	82.21	0
2	457877	82.31	0
2	458434	82.41	0
2	458991	82.51	0
2	459548	82.61	0
2	460105	82.71	0
2	460662	82.81	0
2	461219	82.91	0
2	461785	83.01	0
2	462342	83.11	0
2	462899	83.21	0
2	463456	83.31	0
2	464013	83.41	0
2	464570	83.51	0
2	465127	83.61	0
2	465684	83.71	0
2	466241	83.81	0
2	466798	83.91	0
2	467364	84.01	0
2	467921	84.11	0
2	468478	84.21	0
2	469035	84.31	0
2	469592	84.41	0
2	470149	84.51	0
2	470706	84.61	0
2	471263	84.71	0
2	471820	84.81	0
2	472377	84.91	0
2	472943	85.01	0
2	473500	85.11	0
2	474057	85.21	0
2	474614	85.31	0
2	475171	85.41	0
2	475728	85.51	0
2	476285	85.61	0
2	476842	85.71	0
2	477399	85.81	0
2	477956	85.91	0
2	478522	86.01	0
2	479079	86.11	0
2	479636	86.21	0
2	480193	86.31	0
2	480750	86.41	0
2	481307	86.51	0
2	481864	86.61	0
2	482421	86.71	0
2	482978	86.81	0
2	483535	86.91	0
2	484101	87.01	0
2	484658	87.11	0
2	485215	87.21	0
2	485772	87.31	0
2	486329	87.41	0
2	486886	87.51	0
2	487443	87.61	0
2	488000	87.71	0
2	488557	87.81	0
2	489114	87.91	0
2	489680	88.01	0
2	490237	88.11	0
2	490794	88.21	0
2	491351	88.31	0
2	491908	88.41	0
2	492465	88.51	0
2	493022	88.61	0
2	493579	88.71	0
2	494136	88.81	0
2	494693	88.91	0
2	495259	89.01	0
2	495816	89.11	0
2	496373	89.21	0
2	496930	89.31	0
2	497487	89.41	0
2	498044	89.51	0
2	498601	89.61	0
2	499158	89.71	0
2	499715	89.81	0
2	500272	89.91	0
2	500838	90.01	0
2	501395	90.11	0
2	501952	90.21	0
2	502509	90.31	0
2	503066	90.41	0
2	503623	90.51	0
2	504180	90.61	0
2	504737	90.71	0
2	505294	90.81	0
2	505851	90.91	0
2	506417	91.01	0
2	506974	91.11	0
2	507531	91.21	0
2	508088	91.31	0
2	508645	91.41	0
2	509202	91.51	0
2	509759	91.61	0
2	510316	91.71	0
2	510873	91.81	0
2	511430	91.91	0
2	511996	92.01	0
2	512553	92.11	0
2	513110	92.21	0
2	513667	92.31	0
2	514224	92.41	0
2	514781	92.51	0
2	515338	92.61	0
2	515895	92.71	0
2	516452	92.81	0
2	517009	92.91	0
2	517575	93.01	0
2	518132	93.11	0
2	518689	93.21	0
2	519246	93.31	0
2	519803	93.41	0
2	520360	93.51	0
2	520917	93.61	0
2	521474	93.71	0
2	522031	93.81	0
2	522588	93.91	0
2	523154	94.01	0
2	523711	94.11	0
2	524268	94.21	0
2	524825	94.31	0
2	525382	94.41	0
2	525939	94.51	0
2	526496	94.61	0
2	527053	94.71	0
2	527610	94.81	0
2	528167	94.91	0
2	528733	95.01	0
2	529290	95.11	0
2	529847	95.21	0
2	530404	95.31	0
2	530961	95.41	0
2	531518	95.51	0
2	532075	95.61	0
2	532632	95.71	0
2	533189	95.81	0
2	533746	95.91	0
2	534312	96.01	0
2	534869	96.11	0
2	535426	96.21	0
2	535983	96.31	0
2	536540	96.41	0
2	537097	96.51	0
2	537654	96.61	0
2	538211	96.71	0
2	538768	96.81	0
2	539325	96.91	0
2	539891	97.01	0
2	540448	97.11	0
2	541005	97.21	0
2	541562	97.31	0
2	542119	97.41	0
2	542676	97.51	0
2	543233	97.61	0
2	543790	97.71	0
2	544347	97.81	0
2	544904	97.91	0
2	545470	98.01	0
2	546027	98.11	0
2	546584	98.21	0
2	547141	98.31	0
2	547698	98.41	0
2	548255	98.51	0
2	548812	98.61	0
2	549369	98.71	0
2	549926	98.81	0
2	550483	98.91	0
2	551049	99.01	0
2	551606	99.11	0
2	552163	99.21	0
2	552720	99.31	0
2	553277	99.41	0
2	553834	99.51	0
2	554391	99.61	0
2	554948	99.71	0
2	555505	99.81	0
2	556062	99.91	0
3	113	1.11	-0.000716383
3	670	1.21	-0.00136341
3	1227	1.31	-0.00186974
3	1784	1.41	-0.00225157
3	2341	1.51	-0.00252443
3	2898	1.61	-0.00270298
3	3455	1.71	-0.00280098
3	4012	1.81	-0.00283113
3	4569	1.91	-0.00280509
3	5135	2.01	-0.00273342
3	5692	2.11	-0.00262559
3	6249	2.21	-0.00249005
3	6806	2.31	-0.00233419
3	7363	2.41	-0.00216447
3	7920	2.51	-0.00198642
3	8477	2.61	-0.00180472
3	9034	2.71	-0.0016233
3	9591	2.81	-0.00144536
3	10148	2.91	-0.00127346
3	10714	3.01	-0.0011096
3	11271	3.11	-0.000955278
3	11828	3.21	-0.000811546
3	12385	3.31	-0.00067908
3	12942	3.41	-0.000558232
3	13499	3.51	-0.000449082
3	14056	3.61	-0.000351487
3	14613	3.71	-0.00026512
3	15170	3.81	-0.000189514
3	15727	3.91	-0.000124092
3	16293	4.01	-6.81972e-05
3	16850	4.11	-2.11209e-05
3	17407	4.21	1.78769e-05
3	17964	4.31	4.9548e-05
3	18521	4.41	7.46407e-05
3	19078	4.51	9.38867e-05
3	19635	4.61	0.000107991
3	20192	4.71	0.000117625
3	20749	4.81	0.000123418
3	21306	4.91	0.000125957
3	21872	5.01	0.000125781
3	22429	5.11	0.00012338
3	22986	5.21	0.000119198
3	23543	5.31	0.000113629
3	24100	5.41	0.000107022
3	24657	5.51	9.96832e-05
3	25214	5.61	9.18747e-05
3	25771	5.71	8.38211e-05
3	26328	5.81	7.57109e-05
3	26885	5.91	6.76999e-05
3	27451	6.01	5.99137e-05
3	28008	6.11	5.24518e-05
3	28565	6.21	4.53896e-05
3	29122	6.31	3.87821e-05
3	29679	6.41	3.2666e-05
3	30236	6.51	2.70628e-05
3	30793	6.61	2.19809e-05
3	31350	6.71	1.74176e-05
3	31907	6.81	1.33618e-05
3	32464	6.91	9.79494e-06
3	33030	7.01	6.6932e-06
3	33587	7.11	4.02864e-06
3	34144	7.21	1.77051e-06
3	34701	7.31	-1.13691e-07
3	35258	7.41	-1.65736e-06
3	35815	7.51	-2.89397e-06
3	36372	7.61	-3.85652e-06
3	36929	7.71	-4.57698e-06
3	37486	7.81	-5.08591e-06
3	38043	7.91	-5.41219e-06
3	38609	8.01	-5.58279e-06
3	39166	8.11	-5.6226e-06
3	39723	8.21	-5.55442e-06
3	40280	8.31	-5.39886e-06
3	40837	8.41	-5.17441e-06
3	41394	8.51	-4.89748e-06
3	41951	8.61	-4.58246e-06
3	42508	8.71	-4.24184e-06
3	43065	8.81	-3.88634e-06
3	43622	8.91	-3.52499e-06
3	44188	9.01	-3.16534e-06
3	44745	9.11	-2.81353e-06
3	45302	9.21	-2.47446e-06
3	45859	9.31	-2.15192e-06
3	46416	9.41	-1.84873e-06
3	46973	9.51	-1.56685e-06
3	47530	9.61	-1.30751e-06
3	48087	9.71	-1.0713e-06
3	48644	9.81	-8.58321e-07
3	49201	9.91	-6.68206e-07
3	49852	10.01	-5.0026e-07
3	50416	10.11	-3.53514e-07
3	50980	10.21	-2.2679e-07
3	51544	10.31	-1.18765e-07
3	52108	10.41	-2.80163e-08
3	52672	10.51	4.6931e-08
3	53236	10.61	1.07573e-07
3	53800	10.71	1.55391e-07
3	54364	10.81	1.91831e-07
3	54928	10.91	2.18284e-07
3	55501	11.01	2.3607e-07
3	56065	11.11	2.46427e-07
3	56629	11.21	2.50502e-07
3	57193	11.31	2.49353e-07
3	57757	11.41	2.43938e-07
3	58321	11.51	2.3512e-07
3	58885	11.61	2.23669e-07
3	59449	11.71	2.10264e-07
3	60013	11.81	1.95496e-07
3	60577	11.91	1.79874e-07
3	61150	12.01	1.63833e-07
3	61714	12.11	1.47736e-07
3	62278	12.21	1.3188e-07
3	62842	12.31	1.16508e-07
3	63406	12.41	1.01807e-07
3	63970	12.51	8.79222e-08
3	64534	12.61	7.49541e-08
3	65098	12.71	6.29711e-08
3	65662	12.81	5.20114e-08
3	66226	12.91	4.20883e-08
3	66799	13.01	3.3193e-08
3	67363	13.11	2.53003e-08
3	67927	13.21	1.83718e-08
3	68491	13.31	1.23581e-08
3	69055	13.41	7.20348e-09
3	69619	13.51	2.84537e-09
3	70183	13.61	-7.80886e-10
3	70747	13.71	-3.74136e-09
3	71311	13.81	-6.10285e-09
3	71875	13.91	-7.93072e-09
3	72448	14.01	-9.28821e-09
3	73012	14.11	-1.0235e-08
3	73576	14.21	-1.08283e-08
3	74140	14.31	-1.11211e-08
3	74704	14.41	-1.11612e-08
3	75268	14.51	-1.09946e-08
3	75832	14.61	-1.06599e-08
3	76396	14.71	-1.01945e-08
3	76960	14.81	-9.62999e-09
3	77524	14.91	-8.99405e-09
3	78097	15.01	-8.31086e-09
3	78661	15.11	-7.60103e-09
3	79225	15.21	-6.88338e-09
3	79789	15.31	-6.17071e-09
3	80353	15.41	-5.47544e-09
3	80917	15.51	-4.80682e-09
3	81481	15.61	-4.17266e-09
3	82045	15.71	-3.57687e-09
3	82609	15.81	-3.02443e-09
3	83173	15.91	-2.51674e-09
3	83746	16.01	-2.05489e-09
3	84310	16.11	-1.63958e-09
3	84874	16.21	-1.26903e-09
3	85438	16.31	-9.42535e-10
3	86002	16.41	-6.57963e-10
3	86566	16.51	-4.1247e-10
3	87130	16.61	-2.04636e-10
3	87694	16.71	-2.91323e-11
3	88258	16.81	1.14753e-10
3	88822	16.91	2.30926e-10
3	89395	17.01	3.22231e-10
3	89959	17.11	3.91154e-10
3	90523	17.21	4.40892e-10
3	91087	17.31	4.73577e-10
3	91651	17.41	4.92051e-10
3	92215	17.51	4.98446e-10
3	92779	17.61	4.94893e-10
3	93343	17.71	4.82814e-10
3	93907	17.81	4.6434e-10
3	94471	17.91	4.40892e-10
3	95044	18.01	4.13536e-10
3	95608	18.11	3.83693e-10
3	96172	18.21	3.51719e-10
3	96736	18.31	3.19744e-10
3	97300	18.41	2.8777e-10
3	97864	18.51	2.55795e-10
3	98428	18.61	2.25953e-10
3	98992	18.71	1.97531e-10
3	99556	18.81	1.6982e-10
3	100120	18.91	1.44951e-10
3	100693	19.01	1.21503e-10
3	101257	19.11	1.00187e-10
3	101821	19.21	8.10019e-11
3	102385	19.31	6.32383e-11
3	102949	19.41	4.86722e-11
3	103513	19.51	3.44613e-11
3	104077	19.61	2.34479e-11
3	104641	19.71	1.27898e-11
3	105205	19.81	4.9738e-12
3	105769	19.91	-2.13163e-12
3	106342	20.01	-8.17124e-12
3	106906	20.11	-1.1724e-11
3	107470	20.21	-1.52767e-11
3	108034	20.31	-1.88294e-11
3	108598	20.41	-2.02505e-11
3	109162	20.51	-2.02505e-11
3	109726	20.61	-2.02505e-11
3	110290	20.71	-2.02505e-11
3	110854	20.81	-2.02505e-11
3	111418	20.91	-2.02505e-11
3	111991	21.01	-2.02505e-11
3	112555	21.11	-2.02505e-11
3	113119	21.21	-2.02505e-11
3	113683	21.31	-1.88294e-11
3	114247	21.41	-1.7053e-11
3	114811	21.51	-1.52767e-11
3	115375	21.61	-1.38556e-11
3	115939	21.71	-1.24345e-11
3	116503	21.81	-1.13687e-11
3	117067	21.91	-1.03029e-11
3	117640	22.01	-9.23706e-12
3	118204	22.11	-8.52651e-12
3	118768	22.21	-7.4607e-12
3	119332	22.31	-6.75016e-12
3	119896	22.41	-6.03961e-12
3	120460	22.51	-5.68434e-12
3	121024	22.61	-4.9738e-12
3	121588	22.71	-4.61853e-12
3	122152	22.81	-4.26326e-12
3	122716	22.91	-3.90799e-12
3	123289	23.01	-3.55271e-12
3	123853	23.11	-3.19744e-12
3	124417	23.21	-2.84217e-12
3	124981	23.31	-2.4869e-12
3	125545	23.41	-2.13163e-12
3	126109	23.51	-2.13163e-12
3	126673	23.61	-1.77636e-12
3	127237	23.71	-1.77636e-12
3	127801	23.81	-1.42109e-12
3	128365	23.91	-1.42109e-12
3	128938	24.01	-1.06581e-12
3	129502	24.11	-1.06581e-12
3	130066	24.21	-1.06581e-12
3	130630	24.31	-1.06581e-12
3	131194	24.41	-7.10543e-13
3	131758	24.51	-7.10543e-13
3	132322	24.61	-7.10543e-13
3	132886	24.71	-7.10543e-13
3	133450	24.81	-7.10543e-13
3	134014	24.91	-3.55271e-13
3	134587	25.01	-3.55271e-13
3	135151	25.11	-3.55271e-13
3	135715	25.21	-3.55271e-13
3	136279	25.31	-3.55271e-13
3	136843	25.41	-3.55271e-13
3	137407	25.51	-3.55271e-13
3	137971	25.61	-3.55271e-13
3	138535	25.71	-3.55271e-13
3	139099	25.81	-3.55271e-13
3	139663	25.91	0
3	140236	26.01	0
3	140800	26.11	0
3	141364	26.21	0
3	141928	26.31	0
3	142492	26.41	0
3	143056	26.51	0
3	143620	26.61	0
3	144184	26.71	0
3	144748	26.81	0
3	145312	26.91	0
3	145885	27.01	0
3	146449	27.11	0
3	147013	27.21	0
3	147577	27.31	0
3	148141	27.41	0
3	148705	27.51	0
3	149269	27.61	0
3	149833	27.71	0
3	150397	27.81	0
3	150961	27.91	0
3	151534	28.01	0
3	152098	28.11	0
3	152662	28.21	0
3	153226	28.31	0
3	153790	28.41	0
3	154354	28.51	0
3	154918	28.61	0
3	155482	28.71	0
3	156046	28.81	0
3	156610	28.91	0
3	157183	29.01	0
3	157747	29.11	0
3	158311	29.21	0
3	158875	29.31	0
3	159439	29.41	0
3	160003	29.51	0
3	160567	29.61	0
3	161131	29.71	0
3	161695	29.81	0
3	162259	29.91	0
3	162832	30.01	0
3	163396	30.11	0
3	163960	30.21	0
3	164524	30.31	0
3	165088	30.41	0
3	165652	30.51	0
3	166216	30.61	0
3	166780	30.71	0
3	167344	30.81	0
3	167908	30.91	0
3	168481	31.01	0
3	169045	31.11	0
3	169609	31.21	0
3	170173	31.31	0
3	170737	31.41	0
3	171301	31.51	0
3	171865	31.61	0
3	172429	31.71	0
3	172993	31.81	0
3	173557	31.91	0
3	174130	32.01	0
3	174694	32.11	0
3	175258	32.21	0
3	175822	32.31	0
3	176386	32.41	0
3	176950	32.51	0
3	177514	32.61	0
3	178078	32.71	0
3	178642	32.81	0
3	179206	32.91	0
3	179779	33.01	0
3	180343	33.11	0
3	180907	33.21	0
3	181471	33.31	0
3	182035	33.41	0
3	182599	33.51	0
3	183163	33.61	0
3	183727	33.71	0
3	184291	33.81	0
3	184855	33.91	0
3	185428	34.01	0
3	185992	34.11	0
3	186556	34.21	0
3	187120	34.31	0
3	187684	34.41	0
3	188248	34.51	0
3	188812	34.61	0
3	189376	34.71	0
3	189940	34.81	0
3	190504	34.91	0
3	191077	35.01	0
3	191641	35.11	0
3	192205	35.21	0
3	192769	35.31	0
3	193333	35.41	0
3	193897	35.51	0
3	194461	35.61	0
3	195025	35.71	0
3	195589	35.81	0
3	196153	35.91	0
3	196726	36.01	0
3	197290	36.11	0
3	197854	36.21	0
3	198418	36.31	0
3	198982	36.41	0
3	199546	36.51	0
3	200110	36.61	0
3	200674	36.71	0
3	201238	36.81	0
3	201802	36.91	0
3	202375	37.01	0
3	202939	37.11	0
3	203503	37.21	0
3	204067	37.31	0
3	204631	37.41	0
3	205195	37.51	0
3	205759	37.61	0
3	206323	37.71	0
3	206887	37.81	0
3	207451	37.91	0
3	208024	38.01	0
3	208588	38.11	0
3	209152	38.21	0
3	209716	38.31	0
3	210280	38.41	0
3	210844	38.51	0
3	211408	38.61	0
3	211972	38.71	0
3	212536	38.81	0
3	213100	38.91	0
3	213673	39.01	0
3	214237	39.11	0
3	214801	39.21	0
3	215365	39.31	0
3	215929	39.41	0
3	216493	39.51	0
3	217057	39.61	0
3	217621	39.71	0
3	218185	39.81	0
3	218749	39.91	0
3	219322	40.01	0
3	219886	40.11	0
3	220450	40.21	0
3	221014	40.31	0
3	221578	40.41	0
3	222142	40.51	0
3	222706	40.61	0
3	223270	40.71	0
3	223834	40.81	0
3	224398	40.91	0
3	224971	41.01	0
3	225535	41.11	0
3	226099	41.21	0
3	226663	41.31	0
3	227227	41.41	0
3	227791	41.51	0
3	228355	41.61	0
3	228919	41.71	0
3	229483	41.81	0
3	230047	41.91	0
3	230620	42.01	0
3	231184	42.11	0
3	231748	42.21	0
3	232312	42.31	0
3	232876	42.41	0
3	233440	42.51	0
3	234004	42.61	0
3	234661	42.71	0
3	235224	42.81	0
3	235787	42.91	0
3	236359	43.01	0
3	236922	43.11	0
3	237485	43.21	0
3	238048	43.31	0
3	238611	43.41	0
3	239174	43.51	0
3	239737	43.61	0
3	240300	43.71	0
3	240863	43.81	0
3	241426	43.91	0
3	241998	44.01	0
3	242561	44.11	0
3	243124	44.21	0
3	243687	44.31	0
3	244250	44.41	0
3	244813	44.51	0
3	245376	44.61	0
3	245939	44.71	0
3	246502	44.81	0
3	247065	44.91	0
3	247637	45.01	0
3	248200	45.11	0
3	248763	45.21	0
3	249326	45.31	0
3	249889	45.41	0
3	250452	45.51	0
3	251015	45.61	0
3	251578	45.71	0
3	252141	45.81	0
3	252704	45.91	0
3	253276	46.01	0
3	253839	46.11	0
3	254402	46.21	0
3	254965	46.31	0
3	255528	46.41	0
3	256091	46.51	0
3	256654	46.61	0
3	257217	46.71	0
3	257780	46.81	0
3	258343	46.91	0
3	258915	47.01	0
3	259478	47.11	0
3	260041	47.21	0
3	260604	47.31	0
3	261167	47.41	0
3	261730	47.51	0
3	262293	47.61	0
3	262856	47.71	0
3	263419	47.81	0
3	263982	47.91	0
3	264554	48.01	0
3	265117	48.11	0
3	265680	48.21	0
3	266243	48.31	0
3	266806	48.41	0
3	267462	48.51	0
3	268024	48.61	0
3	268586	48.71	0
3	269148	48.81	0
3	269710	48.91	0
3	270281	49.01	0
3	270843	49.11	0
3	271405	49.21	0
3	271967	49.31	0
3	272529	49.41	0
3	273091	49.51	0
3	273653	49.61	0
3	274215	49.71	0
3	274777	49.81	0
3	275339	49.91	0
3	275910	50.01	0
3	276472	50.11	0
3	277034	50.21	0
3	277596	50.31	0
3	278158	50.41	0
3	278720	50.51	0
3	279282	50.61	0
3	279844	50.71	0
3	280406	50.81	0
3	280968	50.91	0
3	281539	51.01	0
3	282101	51.11	0
3	282663	51.21	0
3	283225	51.31	0
3	283787	51.41	0
3	284349	51.51	0
3	284911	51.61	0
3	285473	51.71	0
3	286035	51.81	0
3	286597	51.91	0
3	287168	52.01	0
3	287730	52.11	0
3	288292	52.21	0
3	288854	52.31	0
3	289416	52.41	0
3	289978	52.51	0
3	290540	52.61	0
3	291102	52.71	0
3	291664	52.81	0
3	292226	52.91	0
3	292797	53.01	0
3	293359	53.11	0
3	293921	53.21	0
3	294483	53.31	0
3	295045	53.41	0
3	295607	53.51	0
3	296169	53.61	0
3	296824	53.71	0
3	297385	53.81	0
3	297946	53.91	0
3	298516	54.01	0
3	299077	54.11	0
3	299638	54.21	0
3	300199	54.31	0
3	300760	54.41	0
3	301321	54.51	0
3	301882	54.61	0
3	302443	54.71	0
3	303004	54.81	0
3	303565	54.91	0
3	304135	55.01	0
3	304696	55.11	0
3	305257	55.21	0
3	305818	55.31	0
3	306379	55.41	0
3	306940	55.51	0
3	307501	55.61	0
3	308062	55.71	0
3	308623	55.81	0
3	309184	55.91	0
3	309754	56.01	0
3	310315	56.11	0
3	310876	56.21	0
3	311437	56.31	0
3	311998	56.41	0
3	312559	56.51	0
3	313120	56.61	0
3	313681	56.71	0
3	314242	56.81	0
3	314803	56.91	0
3	315373	57.01	0
3	315934	57.11	0
3	316495	57.21	0
3	317056	57.31	0
3	317617	57.41	0
3	318178	57.51	0
3	318739	57.61	0
3	319300	57.71	0
3	319861	57.81	0
3	320422	57.91	0
3	320992	58.01	0
3	321553	58.11	0
3	322114	58.21	0
3	322675	58.31	0
3	323236	58.41	0
3	323797	58.51	0
3	324451	58.61	0
3	325011	58.71	0
3	325571	58.81	0
3	326131	58.91	0
3	326700	59.01	0
3	327260	59.11	0
3	327820	59.21	0
3	328380	59.31	0
3	328940	59.41	0
3	329500	59.51	0
3	330060	59.61	0
3	330620	59.71	0
3	331180	59.81	0
3	331740	59.91	0
3	332309	60.01	0
3	332869	60.11	0
3	333429	60.21	0
3	333989	60.31	0
3	334549	60.41	0
3	335109	60.51	0
3	335669	60.61	0
3	336229	60.71	0
3	336789	60.81	0
3	337349	60.91	0
3	337918	61.01	0
3	338478	61.11	0
3	339038	61.21	0
3	339598	61.31	0
3	340158	61.41	0
3	340718	61.51	0
3	341278	61.61	0
3	341838	61.71	0
3	342398	61.81	0
3	342958	61.91	0
3	343527	62.01	0
3	344087	62.11	0
3	344647	62.21	0
3	345207	62.31	0
3	345767	62.41	0
3	346327	62.51	0
3	346887	62.61	0
3	347447	62.71	0
3	348007	62.81	0
3	348567	62.91	0
3	349136	63.01	0
3	349696	63.11	0
3	350349	63.21	0
3	350908	63.31	0
3	351467	63.41	0
3	352026	63.51	0
3	352585	63.61	0
3	353144	63.71	0
3	353703	63.81	0
3	354262	63.91	0
3	354830	64.01	0
3	355389	64.11	0
3	355948	64.21	0
3	356507	64.31	0
3	357066	64.41	0
3	357625	64.51	0
3	358184	64.61	0
3	358743	64.71	0
3	359302	64.81	0
3	359861	64.91	0
3	360429	65.01	0
3	360988	65.11	0
3	361547	65.21	0
3	362106	65.31	0
3	362665	65.41	0
3	363224	65.51	0
3	363783	65.61	0
3	364342	65.71	0
3	364901	65.81	0
3	365460	65.91	0
3	366028	66.01	0
3	366587	66.11	0
3	367146	66.21	0
3	367705	66.31	0
3	368264	66.41	0
3	368823	66.51	0
3	369382	66.61	0
3	369941	66.71	0
3	370500	66.81	0
3	371059	66.91	0
3	371627	67.01	0
3	372186	67.11	0
3	372745	67.21	0
3	373304	67.31	0
3	373863	67.41	0
3	374422	67.51	0
3	374981	67.61	0
3	375633	67.71	0
3	376191	67.81	0
3	376749	67.91	0
3	377316	68.01	0
3	377874	68.11	0
3	378432	68.21	0
3	378990	68.31	0
3	379548	68.41	0
3	380106	68.51	0
3	380664	68.61	0
3	381222	68.71	0
3	381780	68.81	0
3	382338	68.91	0
3	382905	69.01	0
3	383463	69.11	0
3	384021	69.21	0
3	384579	69.31	0
3	385137	69.41	0
3	385695	69.51	0
3	386253	69.61	0
3	386811	69.71	0
3	387369	69.81	0
3	387927	69.91	0
3	388494	70.01	0
3	389052	70.11	0
3	389610	70.21	0
3	390168	70.31	0
3	390726	70.41	0
3	391284	70.51	0
3	391842	70.61	0
3	392400	70.71	0
3	392958	70.81	0
3	393516	70.91	0
3	394083	71.01	0
3	394641	71.11	0
3	395199	71.21	0
3	395757	71.31	0
3	396315	71.41	0
3	396873	71.51	0
3	397431	71.61	0
3	397989	71.71	0
3	398547	71.81	0
3	399105	71.91	0
3	400416	72.01	0
3	400973	72.11	0
3	401530	72.21	0
3	402087	72.31	0
3	402644	72.41	0
3	403201	72.51	0
3	403758	72.61	0
3	404315	72.71	0
3	404872	72.81	0
3	405429	72.91	0
3	405995	73.01	0
3	406552	73.11	0
3	407109	73.21	0
3	407666	73.31	0
3	408223	73.41	0
3	408780	73.51	0
3	409337	73.61	0
3	409894	73.71	0
3	410451	73.81	0
3	411008	73.91	0
3	411574	74.01	0
3	412131	74.11	0
3	412688	74.21	0
3	413245	74.31	0
3	413802	74.41	0
3	414359	74.51	0
3	414916	74.61	0
3	415473	74.71	0
3	416030	74.81	0
3	416587	74.91	0
3	417153	75.01	0
3	417710	75.11	0
3	418267	75.21	0
3	418824	75.31	0
3	419381	75.41	0
3	419938	75.51	0
3	420495	75.61	0
3	421052	75.71	0
3	421609	75.81	0
3	422166	75.91	0
3	422732	76.01	0
3	423289	76.11	0
3	423846	76.21	0
3	424403	76.31	0
3	424960	76.41	0
3	425517	76.51	0
3	426074	76.61	0
3	426631	76.71	0
3	427188	76.81	0
3	427745	76.91	0
3	428311	77.01	0
3	428868	77.11	0
3	429425	77.21	0
3	429982	77.31	0
3	430539	77.41	0
3	431096	77.51	0
3	431653	77.61	0
3	432210	77.71	0
3	432767	77.81	0
3	433324	77.91	0
3	433890	78.01	0
3	434447	78.11	0
3	435004	78.21	0
3	435561	78.31	0
3	436118	78.41	0
3	436675	78.51	0
3	437232	78.61	0
3	437789	78.71	0
3	438346	78.81	0
3	438903	78.91	0
3	439469	79.01	0
3	440026	79.11	0
3	440583	79.21	0
3	441140	79.31	0
3	441697	79.41	0
3	442254	79.51	0
3	442811	79.61	0
3	443368	79.71	0
3	443925	79.81	0
3	444482	79.91	0
3	445048	80.01	0
3	445605	80.11	0
3	446162	80.21	0
3	446719	80.31	0
3	447276	80.41	0
3	447833	80.51	0
3	448390	80.61	0
3	448947	80.71	0
3	449504	80.81	0
3	450061	80.91	0
3	450627	81.01	0
3	451184	81.11	0
3	451741	81.21	0
3	452298	81.31	0
3	452855	81.41	0
3	453412	81.51	0
3	453969	81.61	0
3	454526	81.71	0
3	455083	81.81	0
3	455640	81.91	0
3	456206	82.01	0
3	456763	82.11	0
3	457320	82.21	0
3	457877	82.31	0
3	458434	82.41	0
3	458991	82.51	0
3	459548	82.61	0
3	460105	82.71	0
3	460662	82.81	0
3	461219	82.91	0
3	461785	83.01	0
3	462342	83.11	0
3	462899	83.21	0
3	463456	83.31	0
3	464013	83.41	0
3	464570	83.51	0
3	465127	83.61	0
3	465684	83.71	0
3	466241	83.81	0
3	466798	83.91	0
3	467364	84.01	0
3	467921	84.11	0
3	468478	84.21	0
3	469035	84.31	0
3	469592	84.41	0
3	470149	84.51	0
3	470706	84.61	0
3	471263	84.71	0
3	471820	84.81	0
3	472377	84.91	0
3	472943	85.01	0
3	473500	85.11	0
3	474057	85.21	0
3	474614	85.31	0
3	475171	85.41	0
3	475728	85.51	0
[...]
115	417148	75	5
115	422727	76	5
115	428306	77	5
115	433885	78	5
115	439464	79	5
115	445043	80	5
115	450622	81	5
115	456201	82	5
115	461780	83	5
115	467359	84	5
115	472938	85	5
115	478517	86	5
115	484096	87	5
115	489675	88	5
115	495254	89	5
115	500833	90	5
115	506412	91	5
115	511991	92	5
115	517570	93	5
115	523149	94	5
115	528728	95	5
115	534307	96	5
115	539886	97	5
115	545465	98	5
115	551044	99	5
115	556623	100	5
116	5130	2	0.022473
116	10709	3	0.02497
116	16288	4	0.02497
116	21867	5	0.02497
116	27446	6	0.02497
116	33025	7	0.02497
116	38604	8	0.02497
116	44183	9	0.02497
116	49764	10	0.02497
116	55489	11	0.025018
116	61138	12	0.02497
116	66787	13	0.02497
116	72436	14	0.02497
116	78085	15	0.02497
116	83734	16	0.02497
116	89383	17	0.02497
116	95032	18	0.02497
116	100681	19	0.02497
116	106330	20	0.02497
116	111979	21	0.02497
116	117628	22	0.02497
116	123277	23	0.02497
116	128926	24	0.02497
116	134575	25	0.02497
116	140224	26	0.02497
116	145873	27	0.02497
116	151522	28	0.02497
116	157171	29	0.02497
116	162820	30	0.02497
116	168469	31	0.02497
116	174118	32	0.02497
116	179767	33	0.02497
116	185416	34	0.02497
116	191065	35	0.02497
116	196714	36	0.02497
116	202363	37	0.02497
116	208012	38	0.02497
116	213661	39	0.02497
116	219310	40	0.02497
116	224959	41	0.02497
116	230608	42	0.02497
116	236348	43	0.025082
116	241987	44	0.02497
116	247626	45	0.02497
116	253265	46	0.02497
116	258904	47	0.02497
116	264543	48	0.02497
116	270271	49	0.025082
116	275900	50	0.02497
116	281529	51	0.02497
116	287158	52	0.02497
116	292787	53	0.02497
116	298507	54	0.025082
116	304126	55	0.02497
116	309745	56	0.02497
116	315364	57	0.02497
116	320983	58	0.02497
116	326692	59	0.025082
116	332301	60	0.02497
116	337910	61	0.02497
116	343519	62	0.02497
116	349128	63	0.02497
116	354823	64	0.025115465654
116	360422	65	0.02497
116	366021	66	0.02497
116	371620	67	0.02497
116	377310	68	0.025082
116	382899	69	0.02497
116	388488	70	0.02497
116	394077	71	0.02497
116	399666	72	0.02497
116	405990	73	0.025898
116	411569	74	0.02497
116	417148	75	0.02497
116	422727	76	0.02497
116	428306	77	0.02497
116	433885	78	0.02497
116	439464	79	0.02497
116	445043	80	0.02497
116	450622	81	0.02497
116	456201	82	0.02497
116	461780	83	0.02497
116	467359	84	0.02497
116	472938	85	0.02497
116	478517	86	0.02497
116	484096	87	0.02497
116	489675	88	0.02497
116	495254	89	0.02497
116	500833	90	0.02497
116	506412	91	0.02497
116	511991	92	0.02497
116	517570	93	0.02497
116	523149	94	0.02497
116	528728	95	0.02497
116	534307	96	0.02497
116	539886	97	0.02497
116	545465	98	0.02497
116	551044	99	0.02497
116	556623	100	0.02497
117	5130	2	0
117	10709	3	0
117	16288	4	0
117	21867	5	0
117	27446	6	0
117	33025	7	0
117	38604	8	0
117	44183	9	0
117	49764	10	0
117	55489	11	0
117	61138	12	0
117	66787	13	0
117	72436	14	0
117	78085	15	0
117	83734	16	0
117	89383	17	0
117	95032	18	0
117	100681	19	0
117	106330	20	0
117	111979	21	0
117	117628	22	0
117	123277	23	0
117	128926	24	0
117	134575	25	0
117	140224	26	0
117	145873	27	0
117	151522	28	0
117	157171	29	0
117	162820	30	0
117	168469	31	0
117	174118	32	0
117	179767	33	0
117	185416	34	0
117	191065	35	0
117	196714	36	0
117	202363	37	0
117	208012	38	0
117	213661	39	0
117	219310	40	0
117	224959	41	0
117	230608	42	0
117	236348	43	0
117	241987	44	0
117	247626	45	0
117	253265	46	0
117	258904	47	0
117	264543	48	0
117	270271	49	0
117	275900	50	0
117	281529	51	0
117	287158	52	0
117	292787	53	0
117	298507	54	0
117	304126	55	0
117	309745	56	0
117	315364	57	0
117	320983	58	0
117	326692	59	0
117	332301	60	0
117	337910	61	0
117	343519	62	0
117	349128	63	0
117	354823	64	0
117	360422	65	0
117	366021	66	0
117	371620	67	0
117	377310	68	0
117	382899	69	0
117	388488	70	0
117	394077	71	0
117	399666	72	0
117	405990	73	0
117	411569	74	0
117	417148	75	0
117	422727	76	0
117	428306	77	0
117	433885	78	0
117	439464	79	0
117	445043	80	0
117	450622	81	0
117	456201	82	0
117	461780	83	0
117	467359	84	0
117	472938	85	0
117	478517	86	0
117	484096	87	0
117	489675	88	0
117	495254	89	0
117	500833	90	0
117	506412	91	0
117	511991	92	0
117	517570	93	0
117	523149	94	0
117	528728	95	0
117	534307	96	0
117	539886	97	0
117	545465	98	0
117	551044	99	0
117	556623	100	0
118	5131	2	6
118	10710	3	6
118	16289	4	6
118	21868	5	6
118	27447	6	6
118	33026	7	6
118	38605	8	6
118	44184	9	6
118	49765	10	6
118	55490	11	6
118	61139	12	6
118	66788	13	6
118	72437	14	6
118	78086	15	6
118	83735	16	6
118	89384	17	6
118	95033	18	6
118	100682	19	6
118	106331	20	6
118	111980	21	6
118	117629	22	6
118	123278	23	6
118	128927	24	6
118	134576	25	6
118	140225	26	6
118	145874	27	6
118	151523	28	6
118	157172	29	6
118	162821	30	6
118	168470	31	6
118	174119	32	6
118	179768	33	6
118	185417	34	6
118	191066	35	6
118	196715	36	6
118	202364	37	6
118	208013	38	6
118	213662	39	6
118	219311	40	6
118	224960	41	6
118	230609	42	6
118	236349	43	6
118	241988	44	6
118	247627	45	6
118	253266	46	6
118	258905	47	6
118	264544	48	6
118	270272	49	6
118	275901	50	6
118	281530	51	6
118	287159	52	6
118	292788	53	6
118	298508	54	6
118	304127	55	6
118	309746	56	6
118	315365	57	6
118	320984	58	6
118	326693	59	6
118	332302	60	6
118	337911	61	6
118	343520	62	6
118	349129	63	6
118	354824	64	6
118	360423	65	6
118	366022	66	6
118	371621	67	6
118	377311	68	6
118	382900	69	6
118	388489	70	6
118	394078	71	6
118	399667	72	6
118	405991	73	6
118	411570	74	6
118	417149	75	6
118	422728	76	6
118	428307	77	6
118	433886	78	6
118	439465	79	6
118	445044	80	6
118	450623	81	6
118	456202	82	6
118	461781	83	6
118	467360	84	6
118	472939	85	6
118	478518	86	6
118	484097	87	6
118	489676	88	6
118	495255	89	6
118	500834	90	6
118	506413	91	6
118	511992	92	6
118	517571	93	6
118	523150	94	6
118	528729	95	6
118	534308	96	6
118	539887	97	6
118	545466	98	6
118	551045	99	6
118	556624	100	6
119	5131	2	0.022473
119	10710	3	0.02497
119	16289	4	0.02497
119	21868	5	0.02497
119	27447	6	0.02497
119	33026	7	0.02497
119	38605	8	0.02497
119	44184	9	0.02497
119	49765	10	0.02497
119	55490	11	0.025018
119	61139	12	0.02497
119	66788	13	0.02497
119	72437	14	0.02497
119	78086	15	0.02497
119	83735	16	0.02497
119	89384	17	0.02497
119	95033	18	0.02497
119	100682	19	0.02497
119	106331	20	0.02497
119	111980	21	0.02497
119	117629	22	0.02497
119	123278	23	0.02497
119	128927	24	0.02497
119	134576	25	0.02497
119	140225	26	0.02497
119	145874	27	0.02497
119	151523	28	0.02497
119	157172	29	0.02497
119	162821	30	0.02497
119	168470	31	0.02497
119	174119	32	0.02497
119	179768	33	0.02497
119	185417	34	0.02497
119	191066	35	0.02497
119	196715	36	0.02497
119	202364	37	0.02497
119	208013	38	0.02497
119	213662	39	0.02497
119	219311	40	0.02497
119	224960	41	0.02497
119	230609	42	0.02497
119	236349	43	0.025082
119	241988	44	0.02497
119	247627	45	0.02497
119	253266	46	0.02497
119	258905	47	0.02497
119	264544	48	0.02497
119	270272	49	0.025082
119	275901	50	0.02497
119	281530	51	0.02497
119	287159	52	0.02497
119	292788	53	0.02497
119	298508	54	0.025082
119	304127	55	0.02497
119	309746	56	0.02497
119	315365	57	0.02497
119	320984	58	0.02497
119	326693	59	0.025082
119	332302	60	0.02497
119	337911	61	0.02497
119	343520	62	0.02497
119	349129	63	0.02497
119	354824	64	0.025082
119	360423	65	0.02497
119	366022	66	0.02497
119	371621	67	0.02497
119	377311	68	0.025115558968
119	382900	69	0.02497
119	388489	70	0.02497
119	394078	71	0.02497
119	399667	72	0.02497
119	405991	73	0.025898
119	411570	74	0.02497
119	417149	75	0.02497
119	422728	76	0.02497
119	428307	77	0.02497
119	433886	78	0.02497
119	439465	79	0.02497
119	445044	80	0.02497
119	450623	81	0.02497
119	456202	82	0.02497
119	461781	83	0.02497
119	467360	84	0.02497
119	472939	85	0.02497
119	478518	86	0.02497
119	484097	87	0.02497
119	489676	88	0.02497
119	495255	89	0.02497
119	500834	90	0.02497
119	506413	91	0.02497
119	511992	92	0.02497
119	517571	93	0.02497
119	523150	94	0.02497
119	528729	95	0.02497
119	534308	96	0.02497
119	539887	97	0.02497
119	545466	98	0.02497
119	551045	99	0.02497
119	556624	100	0.02497
120	5131	2	0
120	10710	3	0
120	16289	4	0
120	21868	5	0
120	27447	6	0
120	33026	7	0
120	38605	8	0
120	44184	9	0
120	49765	10	0
120	55490	11	0
120	61139	12	0
120	66788	13	0
120	72437	14	0
120	78086	15	0
120	83735	16	0
120	89384	17	0
120	95033	18	0
120	100682	19	0
120	106331	20	0
120	111980	21	0
120	117629	22	0
120	123278	23	0
120	128927	24	0
120	134576	25	0
120	140225	26	0
120	145874	27	0
120	151523	28	0
120	157172	29	0
120	162821	30	0
120	168470	31	0
120	174119	32	0
120	179768	33	0
120	185417	34	0
120	191066	35	0
120	196715	36	0
120	202364	37	0
120	208013	38	0
120	213662	39	0
120	219311	40	0
120	224960	41	0
120	230609	42	0
120	236349	43	0
120	241988	44	0
120	247627	45	0
120	253266	46	0
120	258905	47	0
120	264544	48	0
120	270272	49	0
120	275901	50	0
120	281530	51	0
120	287159	52	0
120	292788	53	0
120	298508	54	0
120	304127	55	0
120	309746	56	0
120	315365	57	0
120	320984	58	0
120	326693	59	0
120	332302	60	0
120	337911	61	0
120	343520	62	0
120	349129	63	0
120	354824	64	0
120	360423	65	0
120	366022	66	0
120	371621	67	0
120	377311	68	0
120	382900	69	0
120	388489	70	0
120	394078	71	0
120	399667	72	0
120	405991	73	0
120	411570	74	0
120	417149	75	0
120	422728	76	0
120	428307	77	0
120	433886	78	0
120	439465	79	0
120	445044	80	0
120	450623	81	0
120	456202	82	0
120	461781	83	0
120	467360	84	0
120	472939	85	0
120	478518	86	0
120	484097	87	0
120	489676	88	0
120	495255	89	0
120	500834	90	0
120	506413	91	0
120	511992	92	0
120	517571	93	0
120	523150	94	0
120	528729	95	0
120	534308	96	0
120	539887	97	0
120	545466	98	0
120	551045	99	0
120	556624	100	0
121	5132	2	7
121	10711	3	7
121	16290	4	7
121	21869	5	7
121	27448	6	7
121	33027	7	7
121	38606	8	7
121	44185	9	7
121	49766	10	7
121	55491	11	7
121	61140	12	7
121	66789	13	7
121	72438	14	7
121	78087	15	7
121	83736	16	7
121	89385	17	7
121	95034	18	7
121	100683	19	7
121	106332	20	7
121	111981	21	7
121	117630	22	7
121	123279	23	7
121	128928	24	7
121	134577	25	7
121	140226	26	7
121	145875	27	7
121	151524	28	7
121	157173	29	7
121	162822	30	7
121	168471	31	7
121	174120	32	7
121	179769	33	7
121	185418	34	7
121	191067	35	7
121	196716	36	7
121	202365	37	7
121	208014	38	7
121	213663	39	7
121	219312	40	7
121	224961	41	7
121	230610	42	7
121	236350	43	7
121	241989	44	7
121	247628	45	7
121	253267	46	7
121	258906	47	7
121	264545	48	7
121	270273	49	7
121	275902	50	7
121	281531	51	7
121	287160	52	7
121	292789	53	7
121	298509	54	7
121	304128	55	7
121	309747	56	7
121	315366	57	7
121	320985	58	7
121	326694	59	7
121	332303	60	7
121	337912	61	7
121	343521	62	7
121	349130	63	7
121	354825	64	7
121	360424	65	7
121	366023	66	7
121	371622	67	7
121	377312	68	7
121	382901	69	7
121	388490	70	7
121	394079	71	7
121	399668	72	7
121	405992	73	7
121	411571	74	7
121	417150	75	7
121	422729	76	7
121	428308	77	7
121	433887	78	7
121	439466	79	7
121	445045	80	7
121	450624	81	7
121	456203	82	7
121	461782	83	7
121	467361	84	7
121	472940	85	7
121	478519	86	7
121	484098	87	7
121	489677	88	7
121	495256	89	7
121	500835	90	7
121	506414	91	7
121	511993	92	7
121	517572	93	7
121	523151	94	7
121	528730	95	7
121	534309	96	7
121	539888	97	7
121	545467	98	7
121	551046	99	7
121	556625	100	7
122	5132	2	0.022473
122	10711	3	0.02497
122	16290	4	0.02497
122	21869	5	0.02497
122	27448	6	0.02497
122	33027	7	0.02497
122	38606	8	0.02497
122	44185	9	0.02497
122	49766	10	0.02497
122	55491	11	0.025018
122	61140	12	0.02497
122	66789	13	0.02497
122	72438	14	0.02497
122	78087	15	0.02497
122	83736	16	0.02497
122	89385	17	0.02497
122	95034	18	0.02497
122	100683	19	0.02497
122	106332	20	0.02497
122	111981	21	0.02497
122	117630	22	0.02497
122	123279	23	0.02497
122	128928	24	0.02497
122	134577	25	0.02497
122	140226	26	0.02497
122	145875	27	0.02497
122	151524	28	0.02497
122	157173	29	0.02497
122	162822	30	0.02497
122	168471	31	0.02497
122	174120	32	0.02497
122	179769	33	0.02497
122	185418	34	0.02497
122	191067	35	0.02497
122	196716	36	0.02497
122	202365	37	0.02497
122	208014	38	0.02497
122	213663	39	0.02497
122	219312	40	0.02497
122	224961	41	0.02497
122	230610	42	0.02497
122	236350	43	0.025082
122	241989	44	0.02497
122	247628	45	0.02497
122	253267	46	0.02497
122	258906	47	0.02497
122	264545	48	0.02497
122	270273	49	0.025082
122	275902	50	0.02497
122	281531	51	0.02497
122	287160	52	0.02497
122	292789	53	0.02497
122	298509	54	0.025082
122	304128	55	0.02497
122	309747	56	0.02497
122	315366	57	0.02497
122	320985	58	0.02497
122	326694	59	0.025082
122	332303	60	0.02497
122	337912	61	0.02497
122	343521	62	0.02497
122	349130	63	0.02497
122	354825	64	0.025082
122	360424	65	0.02497
122	366023	66	0.02497
122	371622	67	0.02497
122	377312	68	0.025082
122	382901	69	0.02497
122	388490	70	0.02497
122	394079	71	0.02497
122	399668	72	0.02497
122	405992	73	0.02593165228
122	411571	74	0.02497
122	417150	75	0.02497
122	422729	76	0.02497
122	428308	77	0.02497
122	433887	78	0.02497
122	439466	79	0.02497
122	445045	80	0.02497
122	450624	81	0.02497
122	456203	82	0.02497
122	461782	83	0.02497
122	467361	84	0.02497
122	472940	85	0.02497
122	478519	86	0.02497
122	484098	87	0.02497
122	489677	88	0.02497
122	495256	89	0.02497
122	500835	90	0.02497
122	506414	91	0.02497
122	511993	92	0.02497
122	517572	93	0.02497
122	523151	94	0.02497
122	528730	95	0.02497
122	534309	96	0.02497
122	539888	97	0.02497
122	545467	98	0.02497
122	551046	99	0.02497
122	556625	100	0.02497
123	5132	2	0
123	10711	3	0
123	16290	4	0
123	21869	5	0
123	27448	6	0
123	33027	7	0
123	38606	8	0
123	44185	9	0
123	49766	10	0
123	55491	11	0
123	61140	12	0
123	66789	13	0
123	72438	14	0
123	78087	15	0
123	83736	16	0
123	89385	17	0
123	95034	18	0
123	100683	19	0
123	106332	20	0
123	111981	21	0
123	117630	22	0
123	123279	23	0
123	128928	24	0
123	134577	25	0
123	140226	26	0
123	145875	27	0
123	151524	28	0
123	157173	29	0
123	162822	30	0
123	168471	31	0
123	174120	32	0
123	179769	33	0
123	185418	34	0
123	191067	35	0
123	196716	36	0
123	202365	37	0
123	208014	38	0
123	213663	39	0
123	219312	40	0
123	224961	41	0
123	230610	42	0
123	236350	43	0
123	241989	44	0
123	247628	45	0
123	253267	46	0
123	258906	47	0
123	264545	48	0
123	270273	49	0
123	275902	50	0
123	281531	51	0
123	287160	52	0
123	292789	53	0
123	298509	54	0
123	304128	55	0
123	309747	56	0
123	315366	57	0
123	320985	58	0
123	326694	59	0
123	332303	60	0
123	337912	61	0
123	343521	62	0
123	349130	63	0
123	354825	64	0
123	360424	65	0
123	366023	66	0
123	371622	67	0
123	377312	68	0
123	382901	69	0
123	388490	70	0
123	394079	71	0
123	399668	72	0
123	405992	73	0
123	411571	74	0
123	417150	75	0
123	422729	76	0
123	428308	77	0
123	433887	78	0
123	439466	79	0
123	445045	80	0
123	450624	81	0
123	456203	82	0
123	461782	83	0
123	467361	84	0
123	472940	85	0
123	478519	86	0
123	484098	87	0
123	489677	88	0
123	495256	89	0
123	500835	90	0
123	506414	91	0
123	511993	92	0
123	517572	93	0
123	523151	94	0
123	528730	95	0
123	534309	96	0
123	539888	97	0
123	545467	98	0
123	551046	99	0
123	556625	100	0
124	5133	2	8
124	10712	3	8
124	16291	4	8
124	21870	5	8
124	27449	6	8
124	33028	7	8
124	38607	8	8
124	44186	9	8
124	49767	10	8
124	55492	11	8
124	61141	12	8
124	66790	13	8
124	72439	14	8
124	78088	15	8
124	83737	16	8
124	89386	17	8
124	95035	18	8
124	100684	19	8
124	106333	20	8
124	111982	21	8
124	117631	22	8
124	123280	23	8
124	128929	24	8
124	134578	25	8
124	140227	26	8
124	145876	27	8
124	151525	28	8
124	157174	29	8
124	162823	30	8
124	168472	31	8
124	174121	32	8
124	179770	33	8
124	185419	34	8
124	191068	35	8
124	196717	36	8
124	202366	37	8
124	208015	38	8
124	213664	39	8
124	219313	40	8
124	224962	41	8
124	230611	42	8
124	236351	43	8
124	241990	44	8
124	247629	45	8
124	253268	46	8
124	258907	47	8
124	264546	48	8
124	270274	49	8
124	275903	50	8
124	281532	51	8
124	287161	52	8
124	292790	53	8
124	298510	54	8
124	304129	55	8
124	309748	56	8
124	315367	57	8
124	320986	58	8
124	326695	59	8
124	332304	60	8
124	337913	61	8
124	343522	62	8
124	349131	63	8
124	354826	64	8
124	360425	65	8
124	366024	66	8
124	371623	67	8
124	377313	68	8
124	382902	69	8
124	388491	70	8
124	394080	71	8
124	399669	72	8
124	405993	73	8
124	411572	74	8
124	417151	75	8
124	422730	76	8
124	428309	77	8
124	433888	78	8
124	439467	79	8
124	445046	80	8
124	450625	81	8
124	456204	82	8
124	461783	83	8
124	467362	84	8
124	472941	85	8
124	478520	86	8
124	484099	87	8
124	489678	88	8
124	495257	89	8
124	500836	90	8
124	506415	91	8
124	511994	92	8
124	517573	93	8
124	523152	94	8
124	528731	95	8
124	534310	96	8
124	539889	97	8
124	545468	98	8
124	551047	99	8
124	556626	100	8
125	5133	2	0.002817
125	10712	3	0.00313
125	16291	4	0.00313
125	21870	5	0.00313
125	27449	6	0.00313
125	33028	7	0.00313
125	38607	8	0.00313
125	44186	9	0.00313
125	49767	10	0.00313
125	55492	11	0.003179
125	61141	12	0.00313
125	66790	13	0.00313
125	72439	14	0.00313
125	78088	15	0.00313
125	83737	16	0.00313
125	89386	17	0.00313
125	95035	18	0.00313
125	100684	19	0.00313
125	106333	20	0.00313
125	111982	21	0.00313
125	117631	22	0.00313
125	123280	23	0.00313
125	128929	24	0.00313
125	134578	25	0.00313
125	140227	26	0.00313
125	145876	27	0.00313
125	151525	28	0.00313
125	157174	29	0.00313
125	162823	30	0.00313
125	168472	31	0.00313
125	174121	32	0.00313
125	179770	33	0.00313
125	185419	34	0.00313
125	191068	35	0.00313
125	196717	36	0.00313
125	202366	37	0.00313
125	208015	38	0.00313
125	213664	39	0.00313
125	219313	40	0.00313
125	224962	41	0.00313
125	230611	42	0.00313
125	236351	43	0.00313
125	241990	44	0.00313
125	247629	45	0.00313
125	253268	46	0.00313
125	258907	47	0.00313
125	264546	48	0.00313
125	270274	49	0.00313
125	275903	50	0.00313
125	281532	51	0.00313
125	287161	52	0.00313
125	292790	53	0.00313
125	298510	54	0.00313
125	304129	55	0.00313
125	309748	56	0.00313
125	315367	57	0.00313
125	320986	58	0.00313
125	326695	59	0.00313
125	332304	60	0.00313
125	337913	61	0.00313
125	343522	62	0.00313
125	349131	63	0.00313
125	354826	64	0.00313
125	360425	65	0.00313
125	366024	66	0.00313
125	371623	67	0.00313
125	377313	68	0.00313
125	382902	69	0.00313
125	388491	70	0.00313
125	394080	71	0.00313
125	399669	72	0.00313
125	405993	73	0.00313
125	411572	74	0.00313
125	417151	75	0.00313
125	422730	76	0.00313
125	428309	77	0.00313
125	433888	78	0.00313
125	439467	79	0.00313
125	445046	80	0.00313
125	450625	81	0.00313
125	456204	82	0.00313
125	461783	83	0.00313
125	467362	84	0.00313
125	472941	85	0.00313
125	478520	86	0.00313
125	484099	87	0.00313
125	489678	88	0.00313
125	495257	89	0.00313
125	500836	90	0.00313
125	506415	91	0.00313
125	511994	92	0.00313
125	517573	93	0.00313
125	523152	94	0.00313
125	528731	95	0.00313
125	534310	96	0.00313
125	539889	97	0.00313
125	545468	98	0.00313
125	551047	99	0.00313
125	556626	100	0.00313
126	5133	2	0
126	10712	3	0
126	16291	4	0
126	21870	5	0
126	27449	6	0
126	33028	7	0
126	38607	8	0
126	44186	9	0
126	49767	10	0
126	55492	11	0
126	61141	12	0
126	66790	13	0
126	72439	14	0
126	78088	15	0
126	83737	16	0
126	89386	17	0
126	95035	18	0
126	100684	19	0
126	106333	20	0
126	111982	21	0
126	117631	22	0
126	123280	23	0
126	128929	24	0
126	134578	25	0
126	140227	26	0
126	145876	27	0
126	151525	28	0
126	157174	29	0
126	162823	30	0
126	168472	31	0
126	174121	32	0
126	179770	33	0
126	185419	34	0
126	191068	35	0
126	196717	36	0
126	202366	37	0
126	208015	38	0
126	213664	39	0
126	219313	40	0
126	224962	41	0
126	230611	42	0
126	236351	43	0
126	241990	44	0
126	247629	45	0
126	253268	46	0
126	258907	47	0
126	264546	48	0
126	270274	49	0
126	275903	50	0
126	281532	51	0
126	287161	52	0
126	292790	53	0
126	298510	54	0
126	304129	55	0
126	309748	56	0
126	315367	57	0
126	320986	58	0
126	326695	59	0
126	332304	60	0
126	337913	61	0
126	343522	62	0
126	349131	63	0
126	354826	64	0
126	360425	65	0
126	366024	66	0
126	371623	67	0
126	377313	68	0
126	382902	69	0
126	388491	70	0
126	394080	71	0
126	399669	72	0
126	405993	73	0
126	411572	74	0
126	417151	75	0
126	422730	76	0
126	428309	77	0
126	433888	78	0
126	439467	79	0
126	445046	80	0
126	450625	81	0
126	456204	82	0
126	461783	83	0
126	467362	84	0
126	472941	85	0
126	478520	86	0
126	484099	87	0
126	489678	88	0
126	495257	89	0
126	500836	90	0
126	506415	91	0
126	511994	92	0
126	517573	93	0
126	523152	94	0
126	528731	95	0
126	534310	96	0
126	539889	97	0
126	545468	98	0
126	551047	99	0
126	556626	100	0

