version 3
run BreakRanksNoGui-416-20240711-15:42:51-295632
attr configname BreakRanksNoGui
attr datetime 20240711-15:42:51
attr datetimef 20240711-154251
attr experiment BreakRanksNoGui
attr inifile omnetpp.ini
attr iterationvars "$nCars=9, $platoonSize=9, $nLanes=1, $ploegH=0.5, $controller=1, $headway=0.1, $leaderHeadway=1.2, $leaderSpeed=130, $breakRanksSafetyDistance=20, $minSpeed=120, $maxSpeed=140, $beaconInterval=0.1, $priority=4, $packetSize=200, $sController=\"CACC\", $0=2, $1=0"
attr iterationvarsd nCars=9/platoonSize=9/nLanes=1/ploegH=0.5/controller=1/headway=0.1/leaderHeadway=1.2/leaderSpeed=130/breakRanksSafetyDistance=20/minSpeed=120/maxSpeed=140/beaconInterval=0.1/priority=4/packetSize=200/sController=CACC/2/0
attr iterationvarsf nCars=9,platoonSize=9,nLanes=1,ploegH=0.5,controller=1,headway=0.1,leaderHeadway=1.2,leaderSpeed=130,breakRanksSafetyDistance=20,minSpeed=120,maxSpeed=140,beaconInterval=0.1,priority=4,packetSize=200,sController=CACC,2,0-
attr measurement "$nCars=9, $platoonSize=9, $nLanes=1, $ploegH=0.5, $controller=1, $headway=0.1, $leaderHeadway=1.2, $leaderSpeed=130, $breakRanksSafetyDistance=20, $minSpeed=120, $maxSpeed=140, $beaconInterval=0.1, $priority=4, $packetSize=200, $sController=\"CACC\", $0=2, $1=0"
attr network Highway
attr processid 295632
attr repetition 6
attr replication #6
attr resultdir results
attr runnumber 416
attr seedset 6
itervar beaconInterval 0.1
itervar breakRanksSafetyDistance 20
itervar controller 1
itervar headway 0.1
itervar leaderHeadway 1.2
itervar leaderSpeed 130
itervar maxSpeed 140
itervar minSpeed 120
itervar nCars 9
itervar nLanes 1
itervar packetSize 200
itervar platoonSize 9
itervar ploegH 0.5
itervar priority 4
itervar sController "\"CACC\""
config image-path ../../../veins/images
config repeat 10
config extends BreakRanks
config *.manager.command "\"sumo\""
config *.manager.ignoreGuiCommands true
config output-vector-file "results/BreakRanks_1_0.1_130_20_9 /result_6.vec"
config output-scalar-file "results/BreakRanks_1_0.1_130_20_9 /result_6.sca"
config extends Platooning
config *.node[*].scenario_type "\"BreakRanksScenario\""
config *.manager.command "\"sumo-gui\""
config *.node[*].scenario_type "\"SimpleScenario\""
config cmdenv-express-mode true
config cmdenv-autoflush true
config cmdenv-status-frequency 15s
config num-rngs 6
config network Highway
config debug-on-errors true
config print-undisposed true
config *.playgroundSizeX 65000m
config *.playgroundSizeY 25000m
config *.playgroundSizeZ 50m
config sim-time-limit "100 s"
config *.annotations.draw false
config *.obstacles.debug false
config *.world.useTorus false
config *.world.use2D false
config *.manager.updateInterval 0.01s
config *.manager.host "\"localhost\""
config *.manager.moduleType "\"org.car2x.plexe.PlatoonCar\""
config *.manager.moduleName "\"node\""
config *.manager.moduleDisplayString "\"\""
config *.manager.autoShutdown true
config *.manager.margin 25
config *.connectionManager.sendDirect true
config *.connectionManager.maxInterfDist 2600m
config *.connectionManager.drawMaxIntfDist false
config *.**.nic.mac1609_4.useServiceChannel false
config *.**.nic.mac1609_4.txPower 100mW
config *.**.nic.mac1609_4.bitrate 6Mbps
config *.**.nic.mac1609_4.useAcks true
config *.**.nic.mac1609_4.ackErrorRate 0.0
config *.**.nic.mac1609_4.frameErrorRate 0.0
config *.**.nic.phy80211p.minPowerLevel -94dBm
config *.**.nic.phy80211p.maxTXPower 100mW
config *.**.nic.phy80211p.useNoiseFloor true
config *.**.nic.phy80211p.noiseFloor -95dBm
config *.**.nic.phy80211p.decider "xmldoc(\"config.xml\")"
config *.**.nic.phy80211p.analogueModels "xmldoc(\"config.xml\")"
config *.**.nic.phy80211p.usePropagationDelay true
config *.node[*].mobility.x 0
config *.node[*].mobility.y 0
config *.node[*].mobility.z 1.895
config seed-set 6
config **.seed 6
config *.node[*].prot.rng-0 2
config *.node[*].appl.rng-0 3
config *.node[*].scenario.rng-0 4
config **.traffic.rng-0 5
config *.manager.configFile "\"./sumocfg/freeway.sumo.cfg\""
config *.manager.launchConfig "xmldoc(\"./sumocfg/freeway.launchd.xml\")"
config **.numberOfCars 9
config **.numberOfCarsPerPlatoon 9
config **.numberOfLanes 1
config *.node[*].helper_type "\"PositionHelper\""
config *.node[*].scenario.caccC1 0.5
config *.node[*].scenario.caccXi 1
config *.node[*].scenario.caccOmegaN "0.2 Hz"
config *.node[*].scenario.caccSpacing "2 m"
config *.node[*].scenario.engineTau "0.5 s"
config *.node[*].scenario.ploegH 0.5s
config *.node[*].scenario.ploegKp 0.2
config *.node[*].scenario.ploegKd 0.7
config *.node[*].scenario.useRealisticEngine false
config *.node[*].scenario.useControllerAcceleration true
config *.node[*].scenario.nLanes 1
config **.numericController 1
config **.headway 0.1s
config *.node[*].scenario.accHeadway 0.1s
config *.node[*].scenario.leaderHeadway 1.2s
config *.node[*].scenario.leaderSpeed 130kmph
config *.node[*].appl_type "\"SimplePlatooningApp\""
config *.node[*].appl.*.scalar-recording true
config *.node[*].appl.*.vector-recording true
config *.node[0].appl.breakRanksSafetyDistance 20m
config *.node[*].appl.minSpeed 120kmph
config *.node[*].appl.maxSpeed 140kmph
config *.node[*].protocol_type "\"SimplePlatooningBeaconing\""
config *.node[*].prot.*.scalar-recording true
config *.node[*].prot.*.vector-recording true
config *.node[*].prot.beaconingInterval 0.1s
config *.node[*].prot.priority 4
config *.node[*].prot.packetSize 200
config **.traffic_type "\"PlatoonsTrafficManager\""
config **.traffic.platoonInsertTime "1 s"
config **.traffic.platoonInsertSpeed 130kmph
config **.traffic.nCars 9
config **.traffic.platoonSize 9
config **.traffic.nLanes 1
config **.traffic.platooningVType "\"vtypeauto\""
config **.traffic.controller "\"CACC\""
config **.traffic.platoonInsertDistance 2m
config **.traffic.platoonInsertHeadway 0s
config **.traffic.platoonLeaderHeadway 1.2s
config **.scalar-recording false
config **.vector-recording false

vector 0 Highway.node[0].appl distance ETV
vector 1 Highway.node[0].appl relativeSpeed ETV
vector 2 Highway.node[0].appl nodeId ETV
vector 3 Highway.node[0].appl acceleration ETV
vector 4 Highway.node[0].appl controllerAcceleration ETV
vector 5 Highway.node[0].appl speed ETV
vector 6 Highway.node[0].appl posx ETV
vector 7 Highway.node[0].appl posy ETV
vector 8 Highway.node[1].appl distance ETV
vector 9 Highway.node[1].appl relativeSpeed ETV
vector 10 Highway.node[1].appl nodeId ETV
vector 11 Highway.node[1].appl acceleration ETV
vector 12 Highway.node[1].appl controllerAcceleration ETV
vector 13 Highway.node[1].appl speed ETV
vector 14 Highway.node[1].appl posx ETV
vector 15 Highway.node[1].appl posy ETV
vector 16 Highway.node[2].appl distance ETV
vector 17 Highway.node[2].appl relativeSpeed ETV
vector 18 Highway.node[2].appl nodeId ETV
vector 19 Highway.node[2].appl acceleration ETV
vector 20 Highway.node[2].appl controllerAcceleration ETV
vector 21 Highway.node[2].appl speed ETV
vector 22 Highway.node[2].appl posx ETV
vector 23 Highway.node[2].appl posy ETV
vector 24 Highway.node[3].appl distance ETV
vector 25 Highway.node[3].appl relativeSpeed ETV
vector 26 Highway.node[3].appl nodeId ETV
vector 27 Highway.node[3].appl acceleration ETV
vector 28 Highway.node[3].appl controllerAcceleration ETV
vector 29 Highway.node[3].appl speed ETV
vector 30 Highway.node[3].appl posx ETV
vector 31 Highway.node[3].appl posy ETV
vector 32 Highway.node[4].appl distance ETV
vector 33 Highway.node[4].appl relativeSpeed ETV
vector 34 Highway.node[4].appl nodeId ETV
vector 35 Highway.node[4].appl acceleration ETV
vector 36 Highway.node[4].appl controllerAcceleration ETV
vector 37 Highway.node[4].appl speed ETV
vector 38 Highway.node[4].appl posx ETV
vector 39 Highway.node[4].appl posy ETV
vector 40 Highway.node[5].appl distance ETV
vector 41 Highway.node[5].appl relativeSpeed ETV
vector 42 Highway.node[5].appl nodeId ETV
vector 43 Highway.node[5].appl acceleration ETV
vector 44 Highway.node[5].appl controllerAcceleration ETV
vector 45 Highway.node[5].appl speed ETV
vector 46 Highway.node[5].appl posx ETV
vector 47 Highway.node[5].appl posy ETV
vector 48 Highway.node[6].appl distance ETV
vector 49 Highway.node[6].appl relativeSpeed ETV
vector 50 Highway.node[6].appl nodeId ETV
vector 51 Highway.node[6].appl acceleration ETV
vector 52 Highway.node[6].appl controllerAcceleration ETV
vector 53 Highway.node[6].appl speed ETV
vector 54 Highway.node[6].appl posx ETV
vector 55 Highway.node[6].appl posy ETV
vector 56 Highway.node[7].appl distance ETV
vector 57 Highway.node[7].appl relativeSpeed ETV
vector 58 Highway.node[7].appl nodeId ETV
vector 59 Highway.node[7].appl acceleration ETV
vector 60 Highway.node[7].appl controllerAcceleration ETV
vector 61 Highway.node[7].appl speed ETV
vector 62 Highway.node[7].appl posx ETV
vector 63 Highway.node[7].appl posy ETV
vector 64 Highway.node[8].appl distance ETV
vector 65 Highway.node[8].appl relativeSpeed ETV
vector 66 Highway.node[8].appl nodeId ETV
vector 67 Highway.node[8].appl acceleration ETV
vector 68 Highway.node[8].appl controllerAcceleration ETV
vector 69 Highway.node[8].appl speed ETV
vector 70 Highway.node[8].appl posx ETV
vector 71 Highway.node[8].appl posy ETV
vector 72 Highway.node[1].prot leaderDelay ETV
vector 73 Highway.node[1].prot leaderDelayId ETV
vector 74 Highway.node[1].prot frontDelay ETV
vector 75 Highway.node[1].prot frontDelayId ETV
vector 76 Highway.node[2].prot leaderDelay ETV
vector 77 Highway.node[2].prot leaderDelayId ETV
vector 78 Highway.node[3].prot leaderDelay ETV
vector 79 Highway.node[3].prot leaderDelayId ETV
vector 80 Highway.node[4].prot leaderDelay ETV
vector 81 Highway.node[4].prot leaderDelayId ETV
vector 82 Highway.node[5].prot leaderDelay ETV
vector 83 Highway.node[5].prot leaderDelayId ETV
vector 84 Highway.node[6].prot leaderDelay ETV
vector 85 Highway.node[6].prot leaderDelayId ETV
vector 86 Highway.node[7].prot leaderDelay ETV
vector 87 Highway.node[7].prot leaderDelayId ETV
vector 88 Highway.node[8].prot leaderDelay ETV
vector 89 Highway.node[8].prot leaderDelayId ETV
vector 90 Highway.node[8].prot frontDelay ETV
vector 91 Highway.node[8].prot frontDelayId ETV
vector 92 Highway.node[7].prot frontDelay ETV
vector 93 Highway.node[7].prot frontDelayId ETV
vector 94 Highway.node[3].prot frontDelay ETV
vector 95 Highway.node[3].prot frontDelayId ETV
vector 96 Highway.node[6].prot frontDelay ETV
vector 97 Highway.node[6].prot frontDelayId ETV
vector 98 Highway.node[2].prot frontDelay ETV
vector 99 Highway.node[2].prot frontDelayId ETV
vector 100 Highway.node[4].prot frontDelay ETV
vector 101 Highway.node[4].prot frontDelayId ETV
vector 102 Highway.node[5].prot frontDelay ETV
vector 103 Highway.node[5].prot frontDelayId ETV
vector 104 Highway.node[0].prot nodeId ETV
vector 105 Highway.node[0].prot busyTime ETV
vector 106 Highway.node[0].prot collisions ETV
vector 107 Highway.node[1].prot nodeId ETV
vector 108 Highway.node[1].prot busyTime ETV
vector 109 Highway.node[1].prot collisions ETV
vector 110 Highway.node[2].prot nodeId ETV
vector 111 Highway.node[2].prot busyTime ETV
vector 112 Highway.node[2].prot collisions ETV
vector 113 Highway.node[3].prot nodeId ETV
vector 114 Highway.node[3].prot busyTime ETV
vector 115 Highway.node[3].prot collisions ETV
vector 116 Highway.node[4].prot nodeId ETV
vector 117 Highway.node[4].prot busyTime ETV
vector 118 Highway.node[4].prot collisions ETV
vector 119 Highway.node[5].prot nodeId ETV
vector 120 Highway.node[5].prot busyTime ETV
vector 121 Highway.node[5].prot collisions ETV
vector 122 Highway.node[6].prot nodeId ETV
vector 123 Highway.node[6].prot busyTime ETV
vector 124 Highway.node[6].prot collisions ETV
vector 125 Highway.node[7].prot nodeId ETV
vector 126 Highway.node[7].prot busyTime ETV
vector 127 Highway.node[7].prot collisions ETV
vector 128 Highway.node[8].prot nodeId ETV
vector 129 Highway.node[8].prot busyTime ETV
vector 130 Highway.node[8].prot collisions ETV
0	113	1.11	-1
0	798	1.21	-1
0	1483	1.31	-1
0	2168	1.41	-1
0	2853	1.51	-1
0	3538	1.61	-1
0	4223	1.71	-1
0	4908	1.81	-1
0	5593	1.91	-1
0	6287	2.01	-1
0	6972	2.11	-1
0	7657	2.21	-1
0	8342	2.31	-1
0	9027	2.41	-1
0	9712	2.51	-1
0	10397	2.61	-1
0	11082	2.71	-1
0	11767	2.81	-1
0	12452	2.91	-1
0	13146	3.01	-1
0	13831	3.11	-1
0	14516	3.21	-1
0	15201	3.31	-1
0	15886	3.41	-1
0	16571	3.51	-1
0	17256	3.61	-1
0	17941	3.71	-1
0	18626	3.81	-1
0	19311	3.91	-1
0	20005	4.01	-1
0	20690	4.11	-1
0	21375	4.21	-1
0	22060	4.31	-1
0	22745	4.41	-1
0	23430	4.51	-1
0	24115	4.61	-1
0	24800	4.71	-1
0	25485	4.81	-1
0	26170	4.91	-1
0	26864	5.01	-1
0	27549	5.11	-1
0	28234	5.21	-1
0	28919	5.31	-1
0	29604	5.41	-1
0	30289	5.51	-1
0	30974	5.61	-1
0	31659	5.71	-1
0	32344	5.81	-1
0	33029	5.91	-1
0	33723	6.01	-1
0	34408	6.11	-1
0	35093	6.21	-1
0	35778	6.31	-1
0	36463	6.41	-1
0	37148	6.51	-1
0	37833	6.61	-1
0	38518	6.71	-1
0	39203	6.81	-1
0	39888	6.91	-1
0	40582	7.01	-1
0	41267	7.11	-1
0	41952	7.21	-1
0	42637	7.31	-1
0	43322	7.41	-1
0	44007	7.51	-1
0	44692	7.61	-1
0	45377	7.71	-1
0	46062	7.81	-1
0	46747	7.91	-1
0	47441	8.01	-1
0	48126	8.11	-1
0	48811	8.21	-1
0	49496	8.31	-1
0	50181	8.41	-1
0	50866	8.51	-1
0	51551	8.61	-1
0	52236	8.71	-1
0	52921	8.81	-1
0	53606	8.91	-1
0	54300	9.01	-1
0	54985	9.11	-1
0	55670	9.21	-1
0	56355	9.31	-1
0	57040	9.41	-1
0	57725	9.51	-1
0	58410	9.61	-1
0	59095	9.71	-1
0	59780	9.81	-1
0	60465	9.91	-1
0	61242	10.01	-1
0	61935	10.11	-1
0	62628	10.21	-1
0	63321	10.31	-1
0	64014	10.41	-1
0	64707	10.51	-1
0	65400	10.61	-1
0	66093	10.71	-1
0	66786	10.81	-1
0	67479	10.91	-1
0	68181	11.01	-1
0	68874	11.11	-1
0	69567	11.21	-1
0	70260	11.31	-1
0	70953	11.41	-1
0	71646	11.51	-1
0	72339	11.61	-1
0	73032	11.71	-1
0	73725	11.81	-1
0	74418	11.91	-1
0	75120	12.01	-1
0	75813	12.11	-1
0	76506	12.21	-1
0	77199	12.31	-1
0	77892	12.41	-1
0	78585	12.51	-1
0	79278	12.61	-1
0	79971	12.71	-1
0	80664	12.81	-1
0	81357	12.91	-1
0	82059	13.01	-1
0	82752	13.11	-1
0	83445	13.21	-1
0	84138	13.31	-1
0	84831	13.41	-1
0	85524	13.51	-1
0	86217	13.61	-1
0	86910	13.71	-1
0	87603	13.81	-1
0	88296	13.91	-1
0	88998	14.01	-1
0	89691	14.11	-1
0	90384	14.21	-1
0	91077	14.31	-1
0	91770	14.41	-1
0	92463	14.51	-1
0	93156	14.61	-1
0	93849	14.71	-1
0	94542	14.81	-1
0	95235	14.91	-1
0	95937	15.01	-1
0	96630	15.11	-1
0	97323	15.21	-1
0	98016	15.31	-1
0	98709	15.41	-1
0	99402	15.51	-1
0	100095	15.61	-1
0	100788	15.71	-1
0	101481	15.81	-1
0	102174	15.91	-1
0	102876	16.01	-1
0	103569	16.11	-1
0	104262	16.21	-1
0	104955	16.31	-1
0	105648	16.41	-1
0	106341	16.51	-1
0	107034	16.61	-1
0	107727	16.71	-1
0	108420	16.81	-1
0	109113	16.91	-1
0	109815	17.01	-1
0	110508	17.11	-1
0	111201	17.21	-1
0	111894	17.31	-1
0	112587	17.41	-1
0	113280	17.51	-1
0	113973	17.61	-1
0	114666	17.71	-1
0	115359	17.81	-1
0	116052	17.91	-1
0	116754	18.01	-1
0	117447	18.11	-1
0	118140	18.21	-1
0	118833	18.31	-1
0	119526	18.41	-1
0	120219	18.51	-1
0	120912	18.61	-1
0	121605	18.71	-1
0	122298	18.81	-1
0	122991	18.91	-1
0	123693	19.01	-1
0	124386	19.11	-1
0	125079	19.21	-1
0	125772	19.31	-1
0	126465	19.41	-1
0	127158	19.51	-1
0	127851	19.61	-1
0	128544	19.71	-1
0	129237	19.81	-1
0	129930	19.91	-1
0	130632	20.01	-1
0	131325	20.11	-1
0	132018	20.21	-1
0	132711	20.31	-1
0	133404	20.41	-1
0	134097	20.51	-1
0	134790	20.61	-1
0	135483	20.71	-1
0	136176	20.81	-1
0	136869	20.91	-1
0	137571	21.01	-1
0	138264	21.11	-1
0	138957	21.21	-1
0	139650	21.31	-1
0	140343	21.41	-1
0	141036	21.51	-1
0	141729	21.61	-1
0	142422	21.71	-1
0	143115	21.81	-1
0	143808	21.91	-1
0	144510	22.01	-1
0	145203	22.11	-1
0	145896	22.21	-1
0	146589	22.31	-1
0	147282	22.41	-1
0	147975	22.51	-1
0	148668	22.61	-1
0	149361	22.71	-1
0	150054	22.81	-1
0	150747	22.91	-1
0	151449	23.01	-1
0	152142	23.11	-1
0	152835	23.21	-1
0	153528	23.31	-1
0	154221	23.41	-1
0	154914	23.51	-1
0	155607	23.61	-1
0	156300	23.71	-1
0	156993	23.81	-1
0	157686	23.91	-1
0	158388	24.01	-1
0	159081	24.11	-1
0	159774	24.21	-1
0	160467	24.31	-1
0	161160	24.41	-1
0	161853	24.51	-1
0	162546	24.61	-1
0	163239	24.71	-1
0	163932	24.81	-1
0	164625	24.91	-1
0	165327	25.01	-1
0	166020	25.11	-1
0	166713	25.21	-1
0	167406	25.31	-1
0	168099	25.41	-1
0	168792	25.51	-1
0	169485	25.61	-1
0	170178	25.71	-1
0	170871	25.81	-1
0	171564	25.91	-1
0	172266	26.01	-1
0	172959	26.11	-1
0	173652	26.21	-1
0	174345	26.31	-1
0	175038	26.41	-1
0	175731	26.51	-1
0	176424	26.61	-1
0	177117	26.71	-1
0	177810	26.81	-1
0	178503	26.91	-1
0	179205	27.01	-1
0	179898	27.11	-1
0	180591	27.21	-1
0	181284	27.31	-1
0	181977	27.41	-1
0	182670	27.51	-1
0	183363	27.61	-1
0	184056	27.71	-1
0	184749	27.81	-1
0	185442	27.91	-1
0	186144	28.01	-1
0	186837	28.11	-1
0	187530	28.21	-1
0	188223	28.31	-1
0	188916	28.41	-1
0	189609	28.51	-1
0	190302	28.61	-1
0	190995	28.71	-1
0	191688	28.81	-1
0	192381	28.91	-1
0	193083	29.01	-1
0	193776	29.11	-1
0	194469	29.21	-1
0	195162	29.31	-1
0	195855	29.41	-1
0	196548	29.51	-1
0	197241	29.61	-1
0	197934	29.71	-1
0	198627	29.81	-1
0	199320	29.91	-1
0	200022	30.01	-1
0	200715	30.11	-1
0	201408	30.21	-1
0	202101	30.31	-1
0	202794	30.41	-1
0	203487	30.51	-1
0	204180	30.61	-1
0	204873	30.71	-1
0	205566	30.81	-1
0	206259	30.91	-1
0	206961	31.01	-1
0	207654	31.11	-1
0	208347	31.21	-1
0	209040	31.31	-1
0	209733	31.41	-1
0	210426	31.51	-1
0	211119	31.61	-1
0	211812	31.71	-1
0	212505	31.81	-1
0	213198	31.91	-1
0	213900	32.01	-1
0	214593	32.11	-1
0	215286	32.21	-1
0	215979	32.31	-1
0	216672	32.41	-1
0	217365	32.51	-1
0	218058	32.61	-1
0	218751	32.71	-1
0	219444	32.81	-1
0	220137	32.91	-1
0	220839	33.01	-1
0	221532	33.11	-1
0	222225	33.21	-1
0	222918	33.31	-1
0	223611	33.41	-1
0	224304	33.51	-1
0	224997	33.61	-1
0	225690	33.71	-1
0	226383	33.81	-1
0	227076	33.91	-1
0	227778	34.01	-1
0	228471	34.11	-1
0	229164	34.21	-1
0	229857	34.31	-1
0	230550	34.41	-1
0	231243	34.51	-1
0	231936	34.61	-1
0	232629	34.71	-1
0	233322	34.81	-1
0	234015	34.91	-1
0	234717	35.01	-1
0	235410	35.11	-1
0	236103	35.21	-1
0	236796	35.31	-1
0	237489	35.41	-1
0	238182	35.51	-1
0	238875	35.61	-1
0	239568	35.71	-1
0	240261	35.81	-1
0	240954	35.91	-1
0	241656	36.01	-1
0	242349	36.11	-1
0	243042	36.21	-1
0	243735	36.31	-1
0	244428	36.41	-1
0	245121	36.51	-1
0	245814	36.61	-1
0	246507	36.71	-1
0	247200	36.81	-1
0	247893	36.91	-1
0	248595	37.01	-1
0	249288	37.11	-1
0	249981	37.21	-1
0	250674	37.31	-1
0	251367	37.41	-1
0	252060	37.51	-1
0	252753	37.61	-1
0	253446	37.71	-1
0	254139	37.81	-1
0	254832	37.91	-1
0	255534	38.01	-1
0	256227	38.11	-1
0	256920	38.21	-1
0	257613	38.31	-1
0	258306	38.41	-1
0	258999	38.51	-1
0	259692	38.61	-1
0	260385	38.71	-1
0	261078	38.81	-1
0	261771	38.91	-1
0	262473	39.01	-1
0	263166	39.11	-1
0	263859	39.21	-1
0	264552	39.31	-1
0	265245	39.41	-1
0	265938	39.51	-1
0	266631	39.61	-1
0	267324	39.71	-1
0	268017	39.81	-1
0	268710	39.91	-1
0	269412	40.01	-1
0	270105	40.11	-1
0	270798	40.21	-1
0	271491	40.31	-1
0	272184	40.41	-1
0	272877	40.51	-1
0	273570	40.61	-1
0	274263	40.71	-1
0	274956	40.81	-1
0	275649	40.91	-1
0	276351	41.01	-1
0	277044	41.11	-1
0	277737	41.21	-1
0	278430	41.31	-1
0	279123	41.41	-1
0	279816	41.51	-1
0	280509	41.61	-1
0	281202	41.71	-1
0	281895	41.81	-1
0	282588	41.91	-1
0	283290	42.01	-1
0	283983	42.11	-1
0	284676	42.21	-1
0	285369	42.31	-1
0	286062	42.41	-1
0	286755	42.51	-1
0	287448	42.61	-1
0	288141	42.71	-1
0	288834	42.81	-1
0	289527	42.91	-1
0	290229	43.01	-1
0	290922	43.11	-1
0	291615	43.21	-1
0	292308	43.31	-1
0	293001	43.41	-1
0	293694	43.51	-1
0	294387	43.61	-1
0	295080	43.71	-1
0	295773	43.81	-1
0	296466	43.91	-1
0	297168	44.01	-1
0	297861	44.11	-1
0	298554	44.21	-1
0	299247	44.31	-1
0	299940	44.41	-1
0	300633	44.51	-1
0	301326	44.61	-1
0	302019	44.71	-1
0	302712	44.81	-1
0	303405	44.91	-1
0	304107	45.01	-1
0	304800	45.11	-1
0	305493	45.21	-1
0	306186	45.31	-1
0	306879	45.41	-1
0	307572	45.51	-1
0	308265	45.61	-1
0	308958	45.71	-1
0	309651	45.81	-1
0	310344	45.91	-1
0	311046	46.01	-1
0	311739	46.11	-1
0	312432	46.21	-1
0	313125	46.31	-1
0	313818	46.41	-1
0	314511	46.51	-1
0	315204	46.61	-1
0	315897	46.71	-1
0	316590	46.81	-1
0	317283	46.91	-1
0	317985	47.01	-1
0	318678	47.11	-1
0	319371	47.21	-1
0	320064	47.31	-1
0	320757	47.41	-1
0	321450	47.51	-1
0	322143	47.61	-1
0	322836	47.71	-1
0	323529	47.81	-1
0	324325	47.91	-1
0	325026	48.01	-1
0	325718	48.11	-1
0	326410	48.21	-1
0	327102	48.31	-1
0	327794	48.41	-1
0	328486	48.51	-1
0	329178	48.61	-1
0	329870	48.71	-1
0	330562	48.81	-1
0	331254	48.91	-1
0	331955	49.01	-1
0	332647	49.11	-1
0	333339	49.21	-1
0	334031	49.31	-1
0	334723	49.41	-1
0	335415	49.51	-1
0	336107	49.61	-1
0	336799	49.71	-1
0	337491	49.81	-1
0	338183	49.91	-1
0	338884	50.01	-1
0	339576	50.11	-1
0	340268	50.21	-1
0	340960	50.31	-1
0	341652	50.41	-1
0	342344	50.51	-1
0	343036	50.61	-1
0	343728	50.71	-1
0	344420	50.81	-1
0	345112	50.91	-1
0	345813	51.01	-1
0	346505	51.11	-1
0	347197	51.21	-1
0	347889	51.31	-1
0	348581	51.41	-1
0	349273	51.51	-1
0	349965	51.61	-1
0	350657	51.71	-1
0	351349	51.81	-1
0	352041	51.91	-1
0	352742	52.01	-1
0	353434	52.11	-1
0	354126	52.21	-1
0	354818	52.31	-1
0	355510	52.41	-1
0	356202	52.51	-1
0	356894	52.61	-1
0	357586	52.71	-1
0	358278	52.81	-1
0	358970	52.91	-1
0	359671	53.01	-1
0	360363	53.11	-1
0	361055	53.21	-1
0	361747	53.31	-1
0	362439	53.41	-1
0	363131	53.51	-1
0	363823	53.61	-1
0	364515	53.71	-1
0	365207	53.81	-1
0	365899	53.91	-1
0	366600	54.01	-1
0	367292	54.11	-1
0	368102	54.21	-1
0	368793	54.31	-1
0	369484	54.41	-1
0	370175	54.51	-1
0	370866	54.61	-1
0	371557	54.71	-1
0	372248	54.81	-1
0	372939	54.91	-1
0	373639	55.01	-1
0	374330	55.11	-1
0	375021	55.21	-1
0	375712	55.31	-1
0	376403	55.41	-1
0	377094	55.51	-1
0	377785	55.61	-1
0	378476	55.71	-1
0	379167	55.81	-1
0	379858	55.91	-1
0	380558	56.01	-1
0	381249	56.11	-1
0	381940	56.21	-1
0	382631	56.31	-1
0	383322	56.41	-1
0	384013	56.51	-1
0	384704	56.61	-1
0	385395	56.71	-1
0	386086	56.81	-1
0	386777	56.91	-1
0	387477	57.01	-1
0	388168	57.11	-1
0	388859	57.21	-1
0	389550	57.31	-1
0	390241	57.41	-1
0	390932	57.51	-1
0	391623	57.61	-1
0	392314	57.71	-1
0	393005	57.81	-1
0	393696	57.91	-1
0	394396	58.01	-1
0	395087	58.11	-1
0	395778	58.21	-1
0	396469	58.31	-1
0	397160	58.41	-1
0	397851	58.51	-1
0	398542	58.61	-1
0	399233	58.71	-1
0	399924	58.81	-1
0	400615	58.91	-1
0	401315	59.01	-1
0	402006	59.11	-1
0	402697	59.21	-1
0	403388	59.31	-1
0	404079	59.41	-1
0	404770	59.51	-1
0	405461	59.61	-1
0	406152	59.71	-1
0	406843	59.81	-1
0	407637	59.91	-1
0	408336	60.01	-1
0	409026	60.11	-1
0	409716	60.21	-1
0	410406	60.31	-1
0	411096	60.41	-1
0	411786	60.51	-1
0	412476	60.61	-1
0	413166	60.71	-1
0	413856	60.81	-1
0	414546	60.91	-1
0	415245	61.01	-1
0	415935	61.11	-1
0	416625	61.21	-1
0	417315	61.31	-1
0	418005	61.41	-1
0	418695	61.51	-1
0	419385	61.61	-1
0	420075	61.71	-1
0	420765	61.81	-1
0	421455	61.91	-1
0	422154	62.01	-1
0	422844	62.11	-1
0	423534	62.21	-1
0	424224	62.31	-1
0	424914	62.41	-1
0	425604	62.51	-1
0	426294	62.61	-1
0	426984	62.71	-1
0	427674	62.81	-1
0	428364	62.91	-1
0	429063	63.01	-1
0	429753	63.11	-1
0	430443	63.21	-1
0	431133	63.31	-1
0	431823	63.41	-1
0	432513	63.51	-1
0	433203	63.61	-1
0	433893	63.71	-1
0	434583	63.81	-1
0	435273	63.91	-1
0	435972	64.01	-1
0	436662	64.11	-1
0	437352	64.21	-1
0	438042	64.31	-1
0	438732	64.41	-1
0	439422	64.51	-1
0	440112	64.61	-1
0	440802	64.71	-1
0	441492	64.81	-1
0	442182	64.91	-1
0	442881	65.01	-1
0	443692	65.11	-1
0	444381	65.21	-1
0	445070	65.31	-1
0	445759	65.41	-1
0	446448	65.51	-1
0	447137	65.61	-1
0	447826	65.71	-1
0	448515	65.81	-1
0	449204	65.91	-1
0	449902	66.01	-1
0	450591	66.11	-1
0	451280	66.21	-1
0	451969	66.31	-1
0	452658	66.41	-1
0	453347	66.51	-1
0	454036	66.61	-1
0	454725	66.71	-1
0	455414	66.81	-1
0	456103	66.91	-1
0	456801	67.01	-1
0	457490	67.11	-1
0	458179	67.21	-1
0	458868	67.31	-1
0	459557	67.41	-1
0	460246	67.51	-1
0	460935	67.61	-1
0	461624	67.71	-1
0	462313	67.81	-1
0	463002	67.91	-1
0	463700	68.01	-1
0	464389	68.11	-1
0	465078	68.21	-1
0	465767	68.31	-1
0	466456	68.41	-1
0	467145	68.51	-1
0	467834	68.61	-1
0	468523	68.71	-1
0	469212	68.81	-1
0	469901	68.91	-1
0	470599	69.01	-1
0	471288	69.11	-1
0	471977	69.21	-1
0	472666	69.31	-1
0	473355	69.41	-1
0	474044	69.51	-1
0	474733	69.61	-1
0	475422	69.71	-1
0	476111	69.81	-1
0	476800	69.91	-1
0	477601	70.01	-1
0	478289	70.11	-1
0	478977	70.21	-1
0	479665	70.31	-1
0	480353	70.41	-1
0	481041	70.51	-1
0	481729	70.61	-1
0	482417	70.71	-1
0	483105	70.81	-1
0	483793	70.91	-1
0	484490	71.01	-1
0	485178	71.11	-1
0	485866	71.21	-1
0	486554	71.31	-1
0	487242	71.41	-1
0	487930	71.51	-1
0	488618	71.61	-1
0	489306	71.71	-1
0	489994	71.81	-1
0	490682	71.91	-1
0	491379	72.01	-1
0	492067	72.11	-1
0	492755	72.21	-1
0	493443	72.31	-1
0	494131	72.41	-1
0	494819	72.51	-1
0	495507	72.61	-1
0	496195	72.71	-1
0	496883	72.81	-1
0	497571	72.91	-1
0	498268	73.01	-1
0	498956	73.11	-1
0	499644	73.21	-1
0	500332	73.31	-1
0	501020	73.41	-1
0	501708	73.51	-1
0	502396	73.61	-1
0	503084	73.71	-1
0	503772	73.81	-1
0	504460	73.91	-1
0	505157	74.01	-1
0	505845	74.11	-1
0	506533	74.21	-1
0	507221	74.31	-1
0	507909	74.41	-1
0	508597	74.51	-1
0	509285	74.61	-1
0	510139	74.71	-1
0	510826	74.81	-1
0	511513	74.91	-1
0	512209	75.01	-1
0	512896	75.11	-1
0	513583	75.21	-1
0	514270	75.31	-1
0	514957	75.41	-1
0	515644	75.51	-1
0	516331	75.61	-1
0	517018	75.71	-1
0	517705	75.81	-1
0	518392	75.91	-1
0	519088	76.01	-1
0	519775	76.11	-1
0	520462	76.21	-1
0	521149	76.31	-1
0	521836	76.41	-1
0	522523	76.51	-1
0	523210	76.61	-1
0	523897	76.71	-1
0	524584	76.81	-1
0	525271	76.91	-1
0	525967	77.01	-1
0	526654	77.11	-1
0	527341	77.21	-1
0	528028	77.31	-1
0	528715	77.41	-1
0	529402	77.51	-1
0	530089	77.61	-1
0	530776	77.71	-1
0	531463	77.81	-1
0	532150	77.91	-1
0	532846	78.01	-1
0	533533	78.11	-1
0	534220	78.21	-1
0	534907	78.31	-1
0	535594	78.41	-1
0	536281	78.51	-1
0	536968	78.61	-1
0	537655	78.71	-1
0	538342	78.81	-1
0	539029	78.91	-1
0	539725	79.01	-1
0	540412	79.11	-1
0	541099	79.21	-1
0	541889	79.31	-1
0	542575	79.41	-1
0	543261	79.51	-1
0	543947	79.61	-1
0	544633	79.71	-1
0	545319	79.81	-1
0	546005	79.91	-1
0	546700	80.01	-1
0	547386	80.11	-1
0	548072	80.21	-1
0	548758	80.31	-1
0	549444	80.41	-1
0	550130	80.51	-1
0	550816	80.61	-1
0	551502	80.71	-1
0	552188	80.81	-1
0	552874	80.91	-1
0	553569	81.01	-1
0	554255	81.11	-1
0	554941	81.21	-1
0	555627	81.31	-1
0	556313	81.41	-1
0	556999	81.51	-1
0	557685	81.61	-1
0	558371	81.71	-1
0	559057	81.81	-1
0	559743	81.91	-1
0	560438	82.01	-1
0	561124	82.11	-1
0	561810	82.21	-1
0	562496	82.31	-1
0	563182	82.41	-1
0	563868	82.51	-1
0	564554	82.61	-1
0	565240	82.71	-1
0	565926	82.81	-1
0	566612	82.91	-1
0	567307	83.01	-1
0	567993	83.11	-1
0	568679	83.21	-1
0	569365	83.31	-1
0	570051	83.41	-1
0	570737	83.51	-1
0	571423	83.61	-1
0	573060	83.71	-1
0	573745	83.81	-1
0	574430	83.91	-1
0	575124	84.01	-1
0	575809	84.11	-1
0	576494	84.21	-1
0	577179	84.31	-1
0	577864	84.41	-1
0	578549	84.51	-1
0	579234	84.61	-1
0	579919	84.71	-1
0	580604	84.81	-1
0	581289	84.91	-1
0	581983	85.01	-1
0	582668	85.11	-1
0	583353	85.21	-1
0	584038	85.31	-1
0	584723	85.41	-1
0	585408	85.51	-1
0	586093	85.61	-1
0	586778	85.71	-1
0	587463	85.81	-1
0	588148	85.91	-1
0	588842	86.01	-1
0	589527	86.11	-1
0	590212	86.21	-1
0	590897	86.31	-1
0	591582	86.41	-1
0	592267	86.51	-1
0	592952	86.61	-1
0	593637	86.71	-1
0	594322	86.81	-1
0	595007	86.91	-1
0	595701	87.01	-1
0	596386	87.11	-1
0	597071	87.21	-1
0	597756	87.31	-1
0	598441	87.41	-1
0	599126	87.51	-1
0	599811	87.61	-1
0	600496	87.71	-1
0	601181	87.81	-1
0	601866	87.91	-1
0	602560	88.01	-1
0	603245	88.11	-1
0	603930	88.21	-1
0	604615	88.31	-1
0	605300	88.41	-1
0	605985	88.51	-1
0	606670	88.61	-1
0	607355	88.71	-1
0	608040	88.81	-1
0	608725	88.91	-1
0	609419	89.01	-1
0	610104	89.11	-1
0	610789	89.21	-1
0	611474	89.31	-1
0	612159	89.41	-1
0	612844	89.51	-1
0	613529	89.61	-1
0	614214	89.71	-1
0	614899	89.81	-1
0	615584	89.91	-1
0	616278	90.01	-1
0	616963	90.11	-1
0	617648	90.21	-1
0	618333	90.31	-1
0	619018	90.41	-1
0	619703	90.51	-1
0	620388	90.61	-1
0	621073	90.71	-1
0	621758	90.81	-1
0	622443	90.91	-1
0	623137	91.01	-1
0	623822	91.11	-1
0	624507	91.21	-1
0	625192	91.31	-1
0	625877	91.41	-1
0	626562	91.51	-1
0	627247	91.61	-1
0	627932	91.71	-1
0	628617	91.81	-1
0	629302	91.91	-1
0	629996	92.01	-1
0	630681	92.11	-1
0	631366	92.21	-1
0	632051	92.31	-1
0	632736	92.41	-1
0	633421	92.51	-1
0	634106	92.61	-1
0	634791	92.71	-1
0	635476	92.81	-1
0	636161	92.91	-1
0	636855	93.01	-1
0	637540	93.11	-1
0	638225	93.21	-1
0	638910	93.31	-1
0	639595	93.41	-1
0	640280	93.51	-1
0	640965	93.61	-1
0	641650	93.71	-1
0	642335	93.81	-1
0	643020	93.91	-1
0	643714	94.01	-1
0	644399	94.11	-1
0	645084	94.21	-1
0	645769	94.31	-1
0	646454	94.41	-1
0	647139	94.51	-1
0	647824	94.61	-1
0	648509	94.71	-1
0	649194	94.81	-1
0	649879	94.91	-1
0	650573	95.01	-1
0	651258	95.11	-1
0	651943	95.21	-1
0	652628	95.31	-1
0	653313	95.41	-1
0	653998	95.51	-1
0	654683	95.61	-1
0	655368	95.71	-1
0	656053	95.81	-1
0	656738	95.91	-1
0	657432	96.01	-1
0	658117	96.11	-1
0	658802	96.21	-1
0	659487	96.31	-1
0	660172	96.41	-1
0	660857	96.51	-1
0	661542	96.61	-1
0	662227	96.71	-1
0	662912	96.81	-1
0	663597	96.91	-1
0	664291	97.01	-1
0	664976	97.11	-1
0	665661	97.21	-1
0	666346	97.31	-1
0	667031	97.41	-1
0	667716	97.51	-1
0	668401	97.61	-1
0	669086	97.71	-1
0	669771	97.81	-1
0	670456	97.91	-1
0	671150	98.01	-1
0	671835	98.11	-1
0	672520	98.21	-1
0	673205	98.31	-1
0	673890	98.41	-1
0	674575	98.51	-1
0	675260	98.61	-1
0	675945	98.71	-1
0	676630	98.81	-1
0	677315	98.91	-1
0	678009	99.01	-1
0	678694	99.11	-1
0	679379	99.21	-1
0	680064	99.31	-1
0	680749	99.41	-1
0	681434	99.51	-1
0	682119	99.61	-1
0	682804	99.71	-1
0	683489	99.81	-1
0	684174	99.91	-1
1	113	1.11	0
1	798	1.21	0
1	1483	1.31	0
1	2168	1.41	0
1	2853	1.51	0
1	3538	1.61	0
1	4223	1.71	0
1	4908	1.81	0
1	5593	1.91	0
1	6287	2.01	0
1	6972	2.11	0
1	7657	2.21	0
1	8342	2.31	0
1	9027	2.41	0
1	9712	2.51	0
1	10397	2.61	0
1	11082	2.71	0
1	11767	2.81	0
1	12452	2.91	0
1	13146	3.01	0
1	13831	3.11	0
1	14516	3.21	0
1	15201	3.31	0
1	15886	3.41	0
1	16571	3.51	0
1	17256	3.61	0
1	17941	3.71	0
1	18626	3.81	0
1	19311	3.91	0
1	20005	4.01	0
1	20690	4.11	0
1	21375	4.21	0
1	22060	4.31	0
1	22745	4.41	0
1	23430	4.51	0
1	24115	4.61	0
1	24800	4.71	0
1	25485	4.81	0
1	26170	4.91	0
1	26864	5.01	0
1	27549	5.11	0
1	28234	5.21	0
1	28919	5.31	0
1	29604	5.41	0
1	30289	5.51	0
1	30974	5.61	0
1	31659	5.71	0
1	32344	5.81	0
1	33029	5.91	0
1	33723	6.01	0
1	34408	6.11	0
1	35093	6.21	0
1	35778	6.31	0
1	36463	6.41	0
1	37148	6.51	0
1	37833	6.61	0
1	38518	6.71	0
1	39203	6.81	0
1	39888	6.91	0
1	40582	7.01	0
1	41267	7.11	0
1	41952	7.21	0
1	42637	7.31	0
1	43322	7.41	0
1	44007	7.51	0
1	44692	7.61	0
1	45377	7.71	0
1	46062	7.81	0
1	46747	7.91	0
1	47441	8.01	0
1	48126	8.11	0
1	48811	8.21	0
1	49496	8.31	0
1	50181	8.41	0
1	50866	8.51	0
1	51551	8.61	0
1	52236	8.71	0
1	52921	8.81	0
1	53606	8.91	0
1	54300	9.01	0
1	54985	9.11	0
1	55670	9.21	0
1	56355	9.31	0
1	57040	9.41	0
1	57725	9.51	0
1	58410	9.61	0
1	59095	9.71	0
1	59780	9.81	0
1	60465	9.91	0
1	61242	10.01	0
1	61935	10.11	0
1	62628	10.21	0
1	63321	10.31	0
1	64014	10.41	0
1	64707	10.51	0
1	65400	10.61	0
1	66093	10.71	0
1	66786	10.81	0
1	67479	10.91	0
1	68181	11.01	0
1	68874	11.11	0
1	69567	11.21	0
1	70260	11.31	0
1	70953	11.41	0
1	71646	11.51	0
1	72339	11.61	0
1	73032	11.71	0
1	73725	11.81	0
1	74418	11.91	0
1	75120	12.01	0
1	75813	12.11	0
1	76506	12.21	0
1	77199	12.31	0
1	77892	12.41	0
1	78585	12.51	0
1	79278	12.61	0
1	79971	12.71	0
1	80664	12.81	0
1	81357	12.91	0
1	82059	13.01	0
1	82752	13.11	0
1	83445	13.21	0
1	84138	13.31	0
1	84831	13.41	0
1	85524	13.51	0
1	86217	13.61	0
1	86910	13.71	0
1	87603	13.81	0
1	88296	13.91	0
1	88998	14.01	0
1	89691	14.11	0
1	90384	14.21	0
1	91077	14.31	0
1	91770	14.41	0
1	92463	14.51	0
1	93156	14.61	0
1	93849	14.71	0
1	94542	14.81	0
1	95235	14.91	0
1	95937	15.01	0
1	96630	15.11	0
1	97323	15.21	0
1	98016	15.31	0
1	98709	15.41	0
1	99402	15.51	0
1	100095	15.61	0
1	100788	15.71	0
1	101481	15.81	0
1	102174	15.91	0
1	102876	16.01	0
1	103569	16.11	0
1	104262	16.21	0
1	104955	16.31	0
1	105648	16.41	0
1	106341	16.51	0
1	107034	16.61	0
1	107727	16.71	0
1	108420	16.81	0
1	109113	16.91	0
1	109815	17.01	0
1	110508	17.11	0
1	111201	17.21	0
1	111894	17.31	0
1	112587	17.41	0
1	113280	17.51	0
1	113973	17.61	0
1	114666	17.71	0
1	115359	17.81	0
1	116052	17.91	0
1	116754	18.01	0
1	117447	18.11	0
1	118140	18.21	0
1	118833	18.31	0
1	119526	18.41	0
1	120219	18.51	0
1	120912	18.61	0
1	121605	18.71	0
1	122298	18.81	0
1	122991	18.91	0
1	123693	19.01	0
1	124386	19.11	0
1	125079	19.21	0
1	125772	19.31	0
1	126465	19.41	0
1	127158	19.51	0
1	127851	19.61	0
1	128544	19.71	0
1	129237	19.81	0
1	129930	19.91	0
1	130632	20.01	0
1	131325	20.11	0
1	132018	20.21	0
1	132711	20.31	0
1	133404	20.41	0
1	134097	20.51	0
1	134790	20.61	0
1	135483	20.71	0
1	136176	20.81	0
1	136869	20.91	0
1	137571	21.01	0
1	138264	21.11	0
1	138957	21.21	0
1	139650	21.31	0
1	140343	21.41	0
1	141036	21.51	0
1	141729	21.61	0
1	142422	21.71	0
1	143115	21.81	0
1	143808	21.91	0
1	144510	22.01	0
1	145203	22.11	0
1	145896	22.21	0
1	146589	22.31	0
1	147282	22.41	0
1	147975	22.51	0
1	148668	22.61	0
1	149361	22.71	0
1	150054	22.81	0
1	150747	22.91	0
1	151449	23.01	0
1	152142	23.11	0
1	152835	23.21	0
1	153528	23.31	0
1	154221	23.41	0
1	154914	23.51	0
1	155607	23.61	0
1	156300	23.71	0
1	156993	23.81	0
1	157686	23.91	0
1	158388	24.01	0
1	159081	24.11	0
1	159774	24.21	0
1	160467	24.31	0
1	161160	24.41	0
1	161853	24.51	0
1	162546	24.61	0
1	163239	24.71	0
1	163932	24.81	0
1	164625	24.91	0
1	165327	25.01	0
1	166020	25.11	0
1	166713	25.21	0
1	167406	25.31	0
1	168099	25.41	0
1	168792	25.51	0
1	169485	25.61	0
1	170178	25.71	0
1	170871	25.81	0
1	171564	25.91	0
1	172266	26.01	0
1	172959	26.11	0
1	173652	26.21	0
1	174345	26.31	0
1	175038	26.41	0
1	175731	26.51	0
1	176424	26.61	0
1	177117	26.71	0
1	177810	26.81	0
1	178503	26.91	0
1	179205	27.01	0
1	179898	27.11	0
1	180591	27.21	0
1	181284	27.31	0
1	181977	27.41	0
1	182670	27.51	0
1	183363	27.61	0
1	184056	27.71	0
1	184749	27.81	0
1	185442	27.91	0
1	186144	28.01	0
1	186837	28.11	0
1	187530	28.21	0
1	188223	28.31	0
1	188916	28.41	0
1	189609	28.51	0
1	190302	28.61	0
1	190995	28.71	0
1	191688	28.81	0
1	192381	28.91	0
1	193083	29.01	0
1	193776	29.11	0
1	194469	29.21	0
1	195162	29.31	0
1	195855	29.41	0
1	196548	29.51	0
1	197241	29.61	0
1	197934	29.71	0
1	198627	29.81	0
1	199320	29.91	0
1	200022	30.01	0
1	200715	30.11	0
1	201408	30.21	0
1	202101	30.31	0
1	202794	30.41	0
1	203487	30.51	0
1	204180	30.61	0
1	204873	30.71	0
1	205566	30.81	0
1	206259	30.91	0
1	206961	31.01	0
1	207654	31.11	0
1	208347	31.21	0
1	209040	31.31	0
1	209733	31.41	0
1	210426	31.51	0
1	211119	31.61	0
1	211812	31.71	0
1	212505	31.81	0
1	213198	31.91	0
1	213900	32.01	0
1	214593	32.11	0
1	215286	32.21	0
1	215979	32.31	0
1	216672	32.41	0
1	217365	32.51	0
1	218058	32.61	0
1	218751	32.71	0
1	219444	32.81	0
1	220137	32.91	0
1	220839	33.01	0
1	221532	33.11	0
1	222225	33.21	0
1	222918	33.31	0
1	223611	33.41	0
1	224304	33.51	0
1	224997	33.61	0
1	225690	33.71	0
1	226383	33.81	0
1	227076	33.91	0
1	227778	34.01	0
1	228471	34.11	0
1	229164	34.21	0
1	229857	34.31	0
1	230550	34.41	0
1	231243	34.51	0
1	231936	34.61	0
1	232629	34.71	0
1	233322	34.81	0
1	234015	34.91	0
1	234717	35.01	0
1	235410	35.11	0
1	236103	35.21	0
1	236796	35.31	0
1	237489	35.41	0
1	238182	35.51	0
1	238875	35.61	0
1	239568	35.71	0
1	240261	35.81	0
1	240954	35.91	0
1	241656	36.01	0
1	242349	36.11	0
1	243042	36.21	0
1	243735	36.31	0
1	244428	36.41	0
1	245121	36.51	0
1	245814	36.61	0
1	246507	36.71	0
1	247200	36.81	0
1	247893	36.91	0
1	248595	37.01	0
1	249288	37.11	0
1	249981	37.21	0
1	250674	37.31	0
1	251367	37.41	0
1	252060	37.51	0
1	252753	37.61	0
1	253446	37.71	0
1	254139	37.81	0
1	254832	37.91	0
1	255534	38.01	0
1	256227	38.11	0
1	256920	38.21	0
1	257613	38.31	0
1	258306	38.41	0
1	258999	38.51	0
1	259692	38.61	0
1	260385	38.71	0
1	261078	38.81	0
1	261771	38.91	0
1	262473	39.01	0
1	263166	39.11	0
1	263859	39.21	0
1	264552	39.31	0
1	265245	39.41	0
1	265938	39.51	0
1	266631	39.61	0
1	267324	39.71	0
1	268017	39.81	0
1	268710	39.91	0
1	269412	40.01	0
1	270105	40.11	0
1	270798	40.21	0
1	271491	40.31	0
1	272184	40.41	0
1	272877	40.51	0
1	273570	40.61	0
1	274263	40.71	0
1	274956	40.81	0
1	275649	40.91	0
1	276351	41.01	0
1	277044	41.11	0
1	277737	41.21	0
1	278430	41.31	0
1	279123	41.41	0
1	279816	41.51	0
1	280509	41.61	0
1	281202	41.71	0
1	281895	41.81	0
1	282588	41.91	0
1	283290	42.01	0
1	283983	42.11	0
1	284676	42.21	0
1	285369	42.31	0
1	286062	42.41	0
1	286755	42.51	0
1	287448	42.61	0
1	288141	42.71	0
1	288834	42.81	0
1	289527	42.91	0
1	290229	43.01	0
1	290922	43.11	0
1	291615	43.21	0
1	292308	43.31	0
1	293001	43.41	0
1	293694	43.51	0
1	294387	43.61	0
1	295080	43.71	0
1	295773	43.81	0
1	296466	43.91	0
1	297168	44.01	0
1	297861	44.11	0
1	298554	44.21	0
1	299247	44.31	0
1	299940	44.41	0
1	300633	44.51	0
1	301326	44.61	0
1	302019	44.71	0
1	302712	44.81	0
1	303405	44.91	0
1	304107	45.01	0
1	304800	45.11	0
1	305493	45.21	0
1	306186	45.31	0
1	306879	45.41	0
1	307572	45.51	0
1	308265	45.61	0
1	308958	45.71	0
1	309651	45.81	0
1	310344	45.91	0
1	311046	46.01	0
1	311739	46.11	0
1	312432	46.21	0
1	313125	46.31	0
1	313818	46.41	0
1	314511	46.51	0
1	315204	46.61	0
1	315897	46.71	0
1	316590	46.81	0
1	317283	46.91	0
1	317985	47.01	0
1	318678	47.11	0
1	319371	47.21	0
1	320064	47.31	0
1	320757	47.41	0
1	321450	47.51	0
1	322143	47.61	0
1	322836	47.71	0
1	323529	47.81	0
1	324325	47.91	0
1	325026	48.01	0
1	325718	48.11	0
1	326410	48.21	0
1	327102	48.31	0
1	327794	48.41	0
1	328486	48.51	0
1	329178	48.61	0
1	329870	48.71	0
1	330562	48.81	0
1	331254	48.91	0
1	331955	49.01	0
1	332647	49.11	0
1	333339	49.21	0
1	334031	49.31	0
1	334723	49.41	0
1	335415	49.51	0
1	336107	49.61	0
1	336799	49.71	0
1	337491	49.81	0
1	338183	49.91	0
1	338884	50.01	0
1	339576	50.11	0
1	340268	50.21	0
1	340960	50.31	0
1	341652	50.41	0
1	342344	50.51	0
1	343036	50.61	0
1	343728	50.71	0
1	344420	50.81	0
1	345112	50.91	0
1	345813	51.01	0
1	346505	51.11	0
1	347197	51.21	0
1	347889	51.31	0
1	348581	51.41	0
1	349273	51.51	0
1	349965	51.61	0
1	350657	51.71	0
1	351349	51.81	0
1	352041	51.91	0
1	352742	52.01	0
1	353434	52.11	0
1	354126	52.21	0
1	354818	52.31	0
1	355510	52.41	0
1	356202	52.51	0
1	356894	52.61	0
1	357586	52.71	0
1	358278	52.81	0
1	358970	52.91	0
1	359671	53.01	0
1	360363	53.11	0
1	361055	53.21	0
1	361747	53.31	0
1	362439	53.41	0
1	363131	53.51	0
1	363823	53.61	0
1	364515	53.71	0
1	365207	53.81	0
1	365899	53.91	0
1	366600	54.01	0
1	367292	54.11	0
1	368102	54.21	0
1	368793	54.31	0
1	369484	54.41	0
1	370175	54.51	0
1	370866	54.61	0
1	371557	54.71	0
1	372248	54.81	0
1	372939	54.91	0
1	373639	55.01	0
1	374330	55.11	0
1	375021	55.21	0
1	375712	55.31	0
1	376403	55.41	0
1	377094	55.51	0
1	377785	55.61	0
1	378476	55.71	0
1	379167	55.81	0
1	379858	55.91	0
1	380558	56.01	0
1	381249	56.11	0
1	381940	56.21	0
1	382631	56.31	0
1	383322	56.41	0
1	384013	56.51	0
1	384704	56.61	0
1	385395	56.71	0
1	386086	56.81	0
1	386777	56.91	0
1	387477	57.01	0
1	388168	57.11	0
1	388859	57.21	0
1	389550	57.31	0
1	390241	57.41	0
1	390932	57.51	0
1	391623	57.61	0
1	392314	57.71	0
1	393005	57.81	0
1	393696	57.91	0
1	394396	58.01	0
1	395087	58.11	0
1	395778	58.21	0
1	396469	58.31	0
1	397160	58.41	0
1	397851	58.51	0
1	398542	58.61	0
1	399233	58.71	0
1	399924	58.81	0
1	400615	58.91	0
1	401315	59.01	0
1	402006	59.11	0
1	402697	59.21	0
1	403388	59.31	0
1	404079	59.41	0
1	404770	59.51	0
1	405461	59.61	0
1	406152	59.71	0
1	406843	59.81	0
1	407637	59.91	0
1	408336	60.01	0
1	409026	60.11	0
1	409716	60.21	0
1	410406	60.31	0
1	411096	60.41	0
1	411786	60.51	0
1	412476	60.61	0
1	413166	60.71	0
1	413856	60.81	0
1	414546	60.91	0
1	415245	61.01	0
1	415935	61.11	0
1	416625	61.21	0
1	417315	61.31	0
1	418005	61.41	0
1	418695	61.51	0
1	419385	61.61	0
1	420075	61.71	0
1	420765	61.81	0
1	421455	61.91	0
1	422154	62.01	0
1	422844	62.11	0
1	423534	62.21	0
1	424224	62.31	0
1	424914	62.41	0
1	425604	62.51	0
1	426294	62.61	0
1	426984	62.71	0
1	427674	62.81	0
1	428364	62.91	0
1	429063	63.01	0
1	429753	63.11	0
1	430443	63.21	0
1	431133	63.31	0
1	431823	63.41	0
1	432513	63.51	0
1	433203	63.61	0
1	433893	63.71	0
1	434583	63.81	0
1	435273	63.91	0
1	435972	64.01	0
1	436662	64.11	0
1	437352	64.21	0
1	438042	64.31	0
1	438732	64.41	0
1	439422	64.51	0
1	440112	64.61	0
1	440802	64.71	0
1	441492	64.81	0
1	442182	64.91	0
1	442881	65.01	0
1	443692	65.11	0
1	444381	65.21	0
1	445070	65.31	0
1	445759	65.41	0
1	446448	65.51	0
1	447137	65.61	0
1	447826	65.71	0
1	448515	65.81	0
1	449204	65.91	0
1	449902	66.01	0
1	450591	66.11	0
1	451280	66.21	0
1	451969	66.31	0
1	452658	66.41	0
1	453347	66.51	0
1	454036	66.61	0
1	454725	66.71	0
1	455414	66.81	0
1	456103	66.91	0
1	456801	67.01	0
1	457490	67.11	0
1	458179	67.21	0
1	458868	67.31	0
1	459557	67.41	0
1	460246	67.51	0
1	460935	67.61	0
1	461624	67.71	0
1	462313	67.81	0
1	463002	67.91	0
1	463700	68.01	0
1	464389	68.11	0
1	465078	68.21	0
1	465767	68.31	0
1	466456	68.41	0
1	467145	68.51	0
1	467834	68.61	0
1	468523	68.71	0
1	469212	68.81	0
1	469901	68.91	0
1	470599	69.01	0
1	471288	69.11	0
1	471977	69.21	0
1	472666	69.31	0
1	473355	69.41	0
1	474044	69.51	0
1	474733	69.61	0
1	475422	69.71	0
1	476111	69.81	0
1	476800	69.91	0
1	477601	70.01	0
1	478289	70.11	0
1	478977	70.21	0
1	479665	70.31	0
1	480353	70.41	0
1	481041	70.51	0
1	481729	70.61	0
1	482417	70.71	0
1	483105	70.81	0
1	483793	70.91	0
1	484490	71.01	0
1	485178	71.11	0
1	485866	71.21	0
1	486554	71.31	0
1	487242	71.41	0
1	487930	71.51	0
1	488618	71.61	0
1	489306	71.71	0
1	489994	71.81	0
1	490682	71.91	0
1	491379	72.01	0
1	492067	72.11	0
1	492755	72.21	0
1	493443	72.31	0
1	494131	72.41	0
1	494819	72.51	0
1	495507	72.61	0
1	496195	72.71	0
1	496883	72.81	0
1	497571	72.91	0
1	498268	73.01	0
1	498956	73.11	0
1	499644	73.21	0
1	500332	73.31	0
1	501020	73.41	0
1	501708	73.51	0
1	502396	73.61	0
1	503084	73.71	0
1	503772	73.81	0
1	504460	73.91	0
1	505157	74.01	0
1	505845	74.11	0
1	506533	74.21	0
1	507221	74.31	0
1	507909	74.41	0
1	508597	74.51	0
1	509285	74.61	0
1	510139	74.71	0
1	510826	74.81	0
1	511513	74.91	0
1	512209	75.01	0
1	512896	75.11	0
1	513583	75.21	0
1	514270	75.31	0
1	514957	75.41	0
1	515644	75.51	0
1	516331	75.61	0
1	517018	75.71	0
1	517705	75.81	0
1	518392	75.91	0
1	519088	76.01	0
1	519775	76.11	0
1	520462	76.21	0
1	521149	76.31	0
1	521836	76.41	0
1	522523	76.51	0
1	523210	76.61	0
1	523897	76.71	0
1	524584	76.81	0
1	525271	76.91	0
1	525967	77.01	0
1	526654	77.11	0
1	527341	77.21	0
1	528028	77.31	0
1	528715	77.41	0
1	529402	77.51	0
1	530089	77.61	0
1	530776	77.71	0
1	531463	77.81	0
1	532150	77.91	0
1	532846	78.01	0
1	533533	78.11	0
1	534220	78.21	0
1	534907	78.31	0
1	535594	78.41	0
1	536281	78.51	0
1	536968	78.61	0
1	537655	78.71	0
1	538342	78.81	0
1	539029	78.91	0
1	539725	79.01	0
1	540412	79.11	0
1	541099	79.21	0
1	541889	79.31	0
1	542575	79.41	0
1	543261	79.51	0
1	543947	79.61	0
1	544633	79.71	0
1	545319	79.81	0
1	546005	79.91	0
1	546700	80.01	0
1	547386	80.11	0
1	548072	80.21	0
1	548758	80.31	0
1	549444	80.41	0
1	550130	80.51	0
1	550816	80.61	0
1	551502	80.71	0
1	552188	80.81	0
1	552874	80.91	0
1	553569	81.01	0
1	554255	81.11	0
1	554941	81.21	0
1	555627	81.31	0
1	556313	81.41	0
1	556999	81.51	0
1	557685	81.61	0
1	558371	81.71	0
1	559057	81.81	0
1	559743	81.91	0
1	560438	82.01	0
1	561124	82.11	0
1	561810	82.21	0
1	562496	82.31	0
1	563182	82.41	0
1	563868	82.51	0
1	564554	82.61	0
1	565240	82.71	0
1	565926	82.81	0
1	566612	82.91	0
1	567307	83.01	0
1	567993	83.11	0
1	568679	83.21	0
1	569365	83.31	0
1	570051	83.41	0
1	570737	83.51	0
1	571423	83.61	0
1	573060	83.71	0
1	573745	83.81	0
1	574430	83.91	0
1	575124	84.01	0
1	575809	84.11	0
1	576494	84.21	0
1	577179	84.31	0
1	577864	84.41	0
1	578549	84.51	0
1	579234	84.61	0
1	579919	84.71	0
1	580604	84.81	0
1	581289	84.91	0
1	581983	85.01	0
1	582668	85.11	0
1	583353	85.21	0
1	584038	85.31	0
1	584723	85.41	0
1	585408	85.51	0
1	586093	85.61	0
1	586778	85.71	0
1	587463	85.81	0
1	588148	85.91	0
1	588842	86.01	0
1	589527	86.11	0
1	590212	86.21	0
1	590897	86.31	0
1	591582	86.41	0
1	592267	86.51	0
1	592952	86.61	0
1	593637	86.71	0
1	594322	86.81	0
1	595007	86.91	0
1	595701	87.01	0
1	596386	87.11	0
1	597071	87.21	0
1	597756	87.31	0
1	598441	87.41	0
1	599126	87.51	0
1	599811	87.61	0
1	600496	87.71	0
1	601181	87.81	0
1	601866	87.91	0
1	602560	88.01	0
1	603245	88.11	0
1	603930	88.21	0
1	604615	88.31	0
1	605300	88.41	0
1	605985	88.51	0
1	606670	88.61	0
1	607355	88.71	0
1	608040	88.81	0
1	608725	88.91	0
1	609419	89.01	0
1	610104	89.11	0
1	610789	89.21	0
1	611474	89.31	0
1	612159	89.41	0
1	612844	89.51	0
1	613529	89.61	0
1	614214	89.71	0
1	614899	89.81	0
1	615584	89.91	0
1	616278	90.01	0
1	616963	90.11	0
1	617648	90.21	0
1	618333	90.31	0
1	619018	90.41	0
1	619703	90.51	0
1	620388	90.61	0
1	621073	90.71	0
1	621758	90.81	0
1	622443	90.91	0
1	623137	91.01	0
1	623822	91.11	0
1	624507	91.21	0
1	625192	91.31	0
1	625877	91.41	0
1	626562	91.51	0
1	627247	91.61	0
1	627932	91.71	0
1	628617	91.81	0
1	629302	91.91	0
1	629996	92.01	0
1	630681	92.11	0
1	631366	92.21	0
1	632051	92.31	0
1	632736	92.41	0
1	633421	92.51	0
1	634106	92.61	0
1	634791	92.71	0
1	635476	92.81	0
1	636161	92.91	0
1	636855	93.01	0
1	637540	93.11	0
1	638225	93.21	0
1	638910	93.31	0
1	639595	93.41	0
1	640280	93.51	0
1	640965	93.61	0
1	641650	93.71	0
1	642335	93.81	0
1	643020	93.91	0
1	643714	94.01	0
1	644399	94.11	0
1	645084	94.21	0
1	645769	94.31	0
1	646454	94.41	0
1	647139	94.51	0
1	647824	94.61	0
1	648509	94.71	0
1	649194	94.81	0
1	649879	94.91	0
1	650573	95.01	0
1	651258	95.11	0
1	651943	95.21	0
1	652628	95.31	0
1	653313	95.41	0
1	653998	95.51	0
1	654683	95.61	0
1	655368	95.71	0
1	656053	95.81	0
1	656738	95.91	0
1	657432	96.01	0
1	658117	96.11	0
1	658802	96.21	0
1	659487	96.31	0
1	660172	96.41	0
1	660857	96.51	0
1	661542	96.61	0
1	662227	96.71	0
1	662912	96.81	0
1	663597	96.91	0
1	664291	97.01	0
1	664976	97.11	0
1	665661	97.21	0
1	666346	97.31	0
1	667031	97.41	0
1	667716	97.51	0
1	668401	97.61	0
1	669086	97.71	0
1	669771	97.81	0
1	670456	97.91	0
1	671150	98.01	0
1	671835	98.11	0
1	672520	98.21	0
1	673205	98.31	0
1	673890	98.41	0
1	674575	98.51	0
1	675260	98.61	0
1	675945	98.71	0
1	676630	98.81	0
1	677315	98.91	0
1	678009	99.01	0
1	678694	99.11	0
1	679379	99.21	0
1	680064	99.31	0
1	680749	99.41	0
1	681434	99.51	0
1	682119	99.61	0
1	682804	99.71	0
1	683489	99.81	0
1	684174	99.91	0
2	113	1.11	0
2	798	1.21	0
2	1483	1.31	0
2	2168	1.41	0
2	2853	1.51	0
2	3538	1.61	0
2	4223	1.71	0
2	4908	1.81	0
2	5593	1.91	0
2	6287	2.01	0
2	6972	2.11	0
2	7657	2.21	0
2	8342	2.31	0
2	9027	2.41	0
2	9712	2.51	0
2	10397	2.61	0
2	11082	2.71	0
2	11767	2.81	0
2	12452	2.91	0
2	13146	3.01	0
2	13831	3.11	0
2	14516	3.21	0
2	15201	3.31	0
2	15886	3.41	0
2	16571	3.51	0
2	17256	3.61	0
2	17941	3.71	0
2	18626	3.81	0
2	19311	3.91	0
2	20005	4.01	0
2	20690	4.11	0
2	21375	4.21	0
2	22060	4.31	0
2	22745	4.41	0
2	23430	4.51	0
2	24115	4.61	0
2	24800	4.71	0
2	25485	4.81	0
2	26170	4.91	0
2	26864	5.01	0
2	27549	5.11	0
2	28234	5.21	0
2	28919	5.31	0
2	29604	5.41	0
2	30289	5.51	0
2	30974	5.61	0
2	31659	5.71	0
2	32344	5.81	0
2	33029	5.91	0
2	33723	6.01	0
2	34408	6.11	0
2	35093	6.21	0
2	35778	6.31	0
2	36463	6.41	0
2	37148	6.51	0
2	37833	6.61	0
2	38518	6.71	0
2	39203	6.81	0
2	39888	6.91	0
2	40582	7.01	0
2	41267	7.11	0
2	41952	7.21	0
2	42637	7.31	0
2	43322	7.41	0
2	44007	7.51	0
2	44692	7.61	0
2	45377	7.71	0
2	46062	7.81	0
2	46747	7.91	0
2	47441	8.01	0
2	48126	8.11	0
2	48811	8.21	0
2	49496	8.31	0
2	50181	8.41	0
2	50866	8.51	0
2	51551	8.61	0
2	52236	8.71	0
2	52921	8.81	0
2	53606	8.91	0
2	54300	9.01	0
2	54985	9.11	0
2	55670	9.21	0
2	56355	9.31	0
2	57040	9.41	0
2	57725	9.51	0
2	58410	9.61	0
2	59095	9.71	0
2	59780	9.81	0
2	60465	9.91	0
2	61242	10.01	0
2	61935	10.11	0
2	62628	10.21	0
2	63321	10.31	0
2	64014	10.41	0
2	64707	10.51	0
2	65400	10.61	0
2	66093	10.71	0
2	66786	10.81	0
2	67479	10.91	0
2	68181	11.01	0
2	68874	11.11	0
2	69567	11.21	0
2	70260	11.31	0
2	70953	11.41	0
2	71646	11.51	0
2	72339	11.61	0
2	73032	11.71	0
2	73725	11.81	0
2	74418	11.91	0
2	75120	12.01	0
2	75813	12.11	0
2	76506	12.21	0
2	77199	12.31	0
2	77892	12.41	0
2	78585	12.51	0
2	79278	12.61	0
2	79971	12.71	0
2	80664	12.81	0
2	81357	12.91	0
2	82059	13.01	0
2	82752	13.11	0
2	83445	13.21	0
2	84138	13.31	0
2	84831	13.41	0
2	85524	13.51	0
2	86217	13.61	0
2	86910	13.71	0
2	87603	13.81	0
2	88296	13.91	0
2	88998	14.01	0
2	89691	14.11	0
2	90384	14.21	0
2	91077	14.31	0
2	91770	14.41	0
2	92463	14.51	0
2	93156	14.61	0
2	93849	14.71	0
2	94542	14.81	0
2	95235	14.91	0
2	95937	15.01	0
2	96630	15.11	0
2	97323	15.21	0
2	98016	15.31	0
2	98709	15.41	0
2	99402	15.51	0
2	100095	15.61	0
2	100788	15.71	0
2	101481	15.81	0
2	102174	15.91	0
2	102876	16.01	0
2	103569	16.11	0
2	104262	16.21	0
2	104955	16.31	0
2	105648	16.41	0
2	106341	16.51	0
2	107034	16.61	0
2	107727	16.71	0
2	108420	16.81	0
2	109113	16.91	0
2	109815	17.01	0
2	110508	17.11	0
2	111201	17.21	0
2	111894	17.31	0
2	112587	17.41	0
2	113280	17.51	0
2	113973	17.61	0
2	114666	17.71	0
2	115359	17.81	0
2	116052	17.91	0
2	116754	18.01	0
2	117447	18.11	0
2	118140	18.21	0
2	118833	18.31	0
2	119526	18.41	0
2	120219	18.51	0
2	120912	18.61	0
2	121605	18.71	0
2	122298	18.81	0
2	122991	18.91	0
2	123693	19.01	0
2	124386	19.11	0
2	125079	19.21	0
2	125772	19.31	0
2	126465	19.41	0
2	127158	19.51	0
2	127851	19.61	0
2	128544	19.71	0
2	129237	19.81	0
2	129930	19.91	0
2	130632	20.01	0
2	131325	20.11	0
2	132018	20.21	0
2	132711	20.31	0
2	133404	20.41	0
2	134097	20.51	0
2	134790	20.61	0
2	135483	20.71	0
2	136176	20.81	0
2	136869	20.91	0
2	137571	21.01	0
2	138264	21.11	0
2	138957	21.21	0
2	139650	21.31	0
2	140343	21.41	0
2	141036	21.51	0
2	141729	21.61	0
2	142422	21.71	0
2	143115	21.81	0
2	143808	21.91	0
2	144510	22.01	0
2	145203	22.11	0
2	145896	22.21	0
2	146589	22.31	0
2	147282	22.41	0
2	147975	22.51	0
2	148668	22.61	0
2	149361	22.71	0
2	150054	22.81	0
2	150747	22.91	0
2	151449	23.01	0
2	152142	23.11	0
2	152835	23.21	0
2	153528	23.31	0
2	154221	23.41	0
2	154914	23.51	0
2	155607	23.61	0
2	156300	23.71	0
2	156993	23.81	0
2	157686	23.91	0
2	158388	24.01	0
2	159081	24.11	0
2	159774	24.21	0
2	160467	24.31	0
2	161160	24.41	0
2	161853	24.51	0
2	162546	24.61	0
2	163239	24.71	0
2	163932	24.81	0
2	164625	24.91	0
2	165327	25.01	0
2	166020	25.11	0
2	166713	25.21	0
2	167406	25.31	0
2	168099	25.41	0
2	168792	25.51	0
2	169485	25.61	0
2	170178	25.71	0
2	170871	25.81	0
2	171564	25.91	0
2	172266	26.01	0
2	172959	26.11	0
2	173652	26.21	0
2	174345	26.31	0
2	175038	26.41	0
2	175731	26.51	0
2	176424	26.61	0
2	177117	26.71	0
2	177810	26.81	0
2	178503	26.91	0
2	179205	27.01	0
2	179898	27.11	0
2	180591	27.21	0
2	181284	27.31	0
2	181977	27.41	0
2	182670	27.51	0
2	183363	27.61	0
2	184056	27.71	0
2	184749	27.81	0
2	185442	27.91	0
2	186144	28.01	0
2	186837	28.11	0
2	187530	28.21	0
2	188223	28.31	0
2	188916	28.41	0
2	189609	28.51	0
2	190302	28.61	0
2	190995	28.71	0
2	191688	28.81	0
2	192381	28.91	0
2	193083	29.01	0
2	193776	29.11	0
2	194469	29.21	0
2	195162	29.31	0
2	195855	29.41	0
2	196548	29.51	0
2	197241	29.61	0
2	197934	29.71	0
2	198627	29.81	0
2	199320	29.91	0
2	200022	30.01	0
2	200715	30.11	0
2	201408	30.21	0
2	202101	30.31	0
2	202794	30.41	0
2	203487	30.51	0
2	204180	30.61	0
2	204873	30.71	0
2	205566	30.81	0
2	206259	30.91	0
2	206961	31.01	0
2	207654	31.11	0
2	208347	31.21	0
2	209040	31.31	0
2	209733	31.41	0
2	210426	31.51	0
2	211119	31.61	0
2	211812	31.71	0
2	212505	31.81	0
2	213198	31.91	0
2	213900	32.01	0
2	214593	32.11	0
2	215286	32.21	0
2	215979	32.31	0
2	216672	32.41	0
2	217365	32.51	0
2	218058	32.61	0
2	218751	32.71	0
2	219444	32.81	0
2	220137	32.91	0
2	220839	33.01	0
2	221532	33.11	0
2	222225	33.21	0
2	222918	33.31	0
2	223611	33.41	0
2	224304	33.51	0
2	224997	33.61	0
2	225690	33.71	0
2	226383	33.81	0
2	227076	33.91	0
2	227778	34.01	0
2	228471	34.11	0
2	229164	34.21	0
2	229857	34.31	0
2	230550	34.41	0
2	231243	34.51	0
2	231936	34.61	0
2	232629	34.71	0
2	233322	34.81	0
2	234015	34.91	0
2	234717	35.01	0
2	235410	35.11	0
2	236103	35.21	0
2	236796	35.31	0
2	237489	35.41	0
2	238182	35.51	0
2	238875	35.61	0
2	239568	35.71	0
2	240261	35.81	0
2	240954	35.91	0
2	241656	36.01	0
2	242349	36.11	0
2	243042	36.21	0
2	243735	36.31	0
2	244428	36.41	0
2	245121	36.51	0
2	245814	36.61	0
2	246507	36.71	0
2	247200	36.81	0
2	247893	36.91	0
2	248595	37.01	0
2	249288	37.11	0
2	249981	37.21	0
2	250674	37.31	0
2	251367	37.41	0
2	252060	37.51	0
2	252753	37.61	0
2	253446	37.71	0
2	254139	37.81	0
2	254832	37.91	0
2	255534	38.01	0
2	256227	38.11	0
2	256920	38.21	0
2	257613	38.31	0
2	258306	38.41	0
2	258999	38.51	0
2	259692	38.61	0
2	260385	38.71	0
2	261078	38.81	0
2	261771	38.91	0
2	262473	39.01	0
2	263166	39.11	0
2	263859	39.21	0
2	264552	39.31	0
2	265245	39.41	0
2	265938	39.51	0
2	266631	39.61	0
2	267324	39.71	0
2	268017	39.81	0
2	268710	39.91	0
2	269412	40.01	0
2	270105	40.11	0
2	270798	40.21	0
2	271491	40.31	0
2	272184	40.41	0
2	272877	40.51	0
2	273570	40.61	0
2	274263	40.71	0
2	274956	40.81	0
2	275649	40.91	0
2	276351	41.01	0
2	277044	41.11	0
2	277737	41.21	0
2	278430	41.31	0
2	279123	41.41	0
2	279816	41.51	0
2	280509	41.61	0
2	281202	41.71	0
2	281895	41.81	0
2	282588	41.91	0
2	283290	42.01	0
2	283983	42.11	0
2	284676	42.21	0
2	285369	42.31	0
2	286062	42.41	0
2	286755	42.51	0
2	287448	42.61	0
2	288141	42.71	0
2	288834	42.81	0
2	289527	42.91	0
2	290229	43.01	0
2	290922	43.11	0
2	291615	43.21	0
2	292308	43.31	0
2	293001	43.41	0
2	293694	43.51	0
2	294387	43.61	0
2	295080	43.71	0
2	295773	43.81	0
2	296466	43.91	0
2	297168	44.01	0
2	297861	44.11	0
2	298554	44.21	0
2	299247	44.31	0
2	299940	44.41	0
2	300633	44.51	0
2	301326	44.61	0
2	302019	44.71	0
2	302712	44.81	0
2	303405	44.91	0
2	304107	45.01	0
2	304800	45.11	0
2	305493	45.21	0
2	306186	45.31	0
2	306879	45.41	0
2	307572	45.51	0
2	308265	45.61	0
2	308958	45.71	0
2	309651	45.81	0
2	310344	45.91	0
2	311046	46.01	0
2	311739	46.11	0
2	312432	46.21	0
2	313125	46.31	0
2	313818	46.41	0
2	314511	46.51	0
2	315204	46.61	0
2	315897	46.71	0
2	316590	46.81	0
2	317283	46.91	0
2	317985	47.01	0
2	318678	47.11	0
2	319371	47.21	0
2	320064	47.31	0
2	320757	47.41	0
2	321450	47.51	0
2	322143	47.61	0
2	322836	47.71	0
2	323529	47.81	0
2	324325	47.91	0
2	325026	48.01	0
2	325718	48.11	0
2	326410	48.21	0
2	327102	48.31	0
2	327794	48.41	0
2	328486	48.51	0
2	329178	48.61	0
2	329870	48.71	0
2	330562	48.81	0
2	331254	48.91	0
2	331955	49.01	0
2	332647	49.11	0
2	333339	49.21	0
2	334031	49.31	0
2	334723	49.41	0
2	335415	49.51	0
2	336107	49.61	0
2	336799	49.71	0
2	337491	49.81	0
2	338183	49.91	0
2	338884	50.01	0
2	339576	50.11	0
2	340268	50.21	0
2	340960	50.31	0
2	341652	50.41	0
2	342344	50.51	0
2	343036	50.61	0
2	343728	50.71	0
2	344420	50.81	0
2	345112	50.91	0
2	345813	51.01	0
2	346505	51.11	0
2	347197	51.21	0
2	347889	51.31	0
2	348581	51.41	0
2	349273	51.51	0
2	349965	51.61	0
2	350657	51.71	0
2	351349	51.81	0
2	352041	51.91	0
2	352742	52.01	0
2	353434	52.11	0
2	354126	52.21	0
2	354818	52.31	0
2	355510	52.41	0
2	356202	52.51	0
2	356894	52.61	0
2	357586	52.71	0
2	358278	52.81	0
2	358970	52.91	0
2	359671	53.01	0
2	360363	53.11	0
2	361055	53.21	0
2	361747	53.31	0
2	362439	53.41	0
2	363131	53.51	0
2	363823	53.61	0
2	364515	53.71	0
2	365207	53.81	0
2	365899	53.91	0
2	366600	54.01	0
2	367292	54.11	0
2	368102	54.21	0
2	368793	54.31	0
2	369484	54.41	0
2	370175	54.51	0
2	370866	54.61	0
2	371557	54.71	0
2	372248	54.81	0
2	372939	54.91	0
2	373639	55.01	0
2	374330	55.11	0
2	375021	55.21	0
2	375712	55.31	0
2	376403	55.41	0
2	377094	55.51	0
2	377785	55.61	0
2	378476	55.71	0
2	379167	55.81	0
2	379858	55.91	0
2	380558	56.01	0
2	381249	56.11	0
2	381940	56.21	0
2	382631	56.31	0
2	383322	56.41	0
2	384013	56.51	0
2	384704	56.61	0
2	385395	56.71	0
2	386086	56.81	0
2	386777	56.91	0
2	387477	57.01	0
2	388168	57.11	0
2	388859	57.21	0
2	389550	57.31	0
2	390241	57.41	0
2	390932	57.51	0
2	391623	57.61	0
2	392314	57.71	0
2	393005	57.81	0
2	393696	57.91	0
2	394396	58.01	0
2	395087	58.11	0
2	395778	58.21	0
2	396469	58.31	0
2	397160	58.41	0
2	397851	58.51	0
2	398542	58.61	0
2	399233	58.71	0
2	399924	58.81	0
2	400615	58.91	0
2	401315	59.01	0
2	402006	59.11	0
2	402697	59.21	0
2	403388	59.31	0
2	404079	59.41	0
2	404770	59.51	0
2	405461	59.61	0
2	406152	59.71	0
2	406843	59.81	0
2	407637	59.91	0
2	408336	60.01	0
2	409026	60.11	0
2	409716	60.21	0
2	410406	60.31	0
2	411096	60.41	0
2	411786	60.51	0
2	412476	60.61	0
2	413166	60.71	0
2	413856	60.81	0
2	414546	60.91	0
2	415245	61.01	0
2	415935	61.11	0
2	416625	61.21	0
2	417315	61.31	0
2	418005	61.41	0
2	418695	61.51	0
2	419385	61.61	0
2	420075	61.71	0
2	420765	61.81	0
2	421455	61.91	0
2	422154	62.01	0
2	422844	62.11	0
2	423534	62.21	0
2	424224	62.31	0
2	424914	62.41	0
2	425604	62.51	0
2	426294	62.61	0
2	426984	62.71	0
2	427674	62.81	0
2	428364	62.91	0
2	429063	63.01	0
2	429753	63.11	0
2	430443	63.21	0
2	431133	63.31	0
2	431823	63.41	0
2	432513	63.51	0
2	433203	63.61	0
2	433893	63.71	0
2	434583	63.81	0
2	435273	63.91	0
2	435972	64.01	0
2	436662	64.11	0
2	437352	64.21	0
2	438042	64.31	0
2	438732	64.41	0
2	439422	64.51	0
2	440112	64.61	0
2	440802	64.71	0
2	441492	64.81	0
2	442182	64.91	0
2	442881	65.01	0
2	443692	65.11	0
2	444381	65.21	0
2	445070	65.31	0
2	445759	65.41	0
2	446448	65.51	0
2	447137	65.61	0
2	447826	65.71	0
2	448515	65.81	0
2	449204	65.91	0
2	449902	66.01	0
2	450591	66.11	0
2	451280	66.21	0
2	451969	66.31	0
2	452658	66.41	0
2	453347	66.51	0
2	454036	66.61	0
2	454725	66.71	0
2	455414	66.81	0
2	456103	66.91	0
2	456801	67.01	0
2	457490	67.11	0
2	458179	67.21	0
2	458868	67.31	0
2	459557	67.41	0
2	460246	67.51	0
2	460935	67.61	0
2	461624	67.71	0
2	462313	67.81	0
2	463002	67.91	0
2	463700	68.01	0
2	464389	68.11	0
2	465078	68.21	0
2	465767	68.31	0
2	466456	68.41	0
2	467145	68.51	0
2	467834	68.61	0
2	468523	68.71	0
2	469212	68.81	0
2	469901	68.91	0
2	470599	69.01	0
2	471288	69.11	0
2	471977	69.21	0
2	472666	69.31	0
2	473355	69.41	0
2	474044	69.51	0
2	474733	69.61	0
2	475422	69.71	0
2	476111	69.81	0
2	476800	69.91	0
2	477601	70.01	0
2	478289	70.11	0
2	478977	70.21	0
2	479665	70.31	0
2	480353	70.41	0
2	481041	70.51	0
2	481729	70.61	0
2	482417	70.71	0
2	483105	70.81	0
2	483793	70.91	0
2	484490	71.01	0
2	485178	71.11	0
2	485866	71.21	0
2	486554	71.31	0
2	487242	71.41	0
2	487930	71.51	0
2	488618	71.61	0
2	489306	71.71	0
2	489994	71.81	0
2	490682	71.91	0
2	491379	72.01	0
2	492067	72.11	0
2	492755	72.21	0
2	493443	72.31	0
2	494131	72.41	0
2	494819	72.51	0
2	495507	72.61	0
2	496195	72.71	0
2	496883	72.81	0
2	497571	72.91	0
2	498268	73.01	0
2	498956	73.11	0
2	499644	73.21	0
2	500332	73.31	0
2	501020	73.41	0
2	501708	73.51	0
2	502396	73.61	0
2	503084	73.71	0
2	503772	73.81	0
2	504460	73.91	0
2	505157	74.01	0
2	505845	74.11	0
2	506533	74.21	0
2	507221	74.31	0
2	507909	74.41	0
2	508597	74.51	0
2	509285	74.61	0
2	510139	74.71	0
2	510826	74.81	0
2	511513	74.91	0
2	512209	75.01	0
2	512896	75.11	0
2	513583	75.21	0
2	514270	75.31	0
2	514957	75.41	0
2	515644	75.51	0
2	516331	75.61	0
2	517018	75.71	0
2	517705	75.81	0
2	518392	75.91	0
2	519088	76.01	0
2	519775	76.11	0
2	520462	76.21	0
2	521149	76.31	0
2	521836	76.41	0
2	522523	76.51	0
2	523210	76.61	0
2	523897	76.71	0
2	524584	76.81	0
2	525271	76.91	0
2	525967	77.01	0
2	526654	77.11	0
2	527341	77.21	0
2	528028	77.31	0
2	528715	77.41	0
2	529402	77.51	0
2	530089	77.61	0
2	530776	77.71	0
2	531463	77.81	0
2	532150	77.91	0
2	532846	78.01	0
2	533533	78.11	0
2	534220	78.21	0
2	534907	78.31	0
2	535594	78.41	0
2	536281	78.51	0
2	536968	78.61	0
2	537655	78.71	0
2	538342	78.81	0
2	539029	78.91	0
2	539725	79.01	0
2	540412	79.11	0
2	541099	79.21	0
2	541889	79.31	0
2	542575	79.41	0
2	543261	79.51	0
2	543947	79.61	0
2	544633	79.71	0
2	545319	79.81	0
2	546005	79.91	0
2	546700	80.01	0
2	547386	80.11	0
2	548072	80.21	0
2	548758	80.31	0
2	549444	80.41	0
2	550130	80.51	0
2	550816	80.61	0
2	551502	80.71	0
2	552188	80.81	0
2	552874	80.91	0
2	553569	81.01	0
2	554255	81.11	0
2	554941	81.21	0
2	555627	81.31	0
2	556313	81.41	0
2	556999	81.51	0
2	557685	81.61	0
2	558371	81.71	0
2	559057	81.81	0
2	559743	81.91	0
2	560438	82.01	0
2	561124	82.11	0
2	561810	82.21	0
2	562496	82.31	0
2	563182	82.41	0
2	563868	82.51	0
2	564554	82.61	0
2	565240	82.71	0
2	565926	82.81	0
2	566612	82.91	0
2	567307	83.01	0
2	567993	83.11	0
2	568679	83.21	0
2	569365	83.31	0
2	570051	83.41	0
2	570737	83.51	0
2	571423	83.61	0
2	573060	83.71	0
2	573745	83.81	0
2	574430	83.91	0
2	575124	84.01	0
2	575809	84.11	0
2	576494	84.21	0
2	577179	84.31	0
2	577864	84.41	0
2	578549	84.51	0
2	579234	84.61	0
2	579919	84.71	0
2	580604	84.81	0
2	581289	84.91	0
2	581983	85.01	0
2	582668	85.11	0
2	583353	85.21	0
2	584038	85.31	0
2	584723	85.41	0
2	585408	85.51	0
2	586093	85.61	0
2	586778	85.71	0
2	587463	85.81	0
2	588148	85.91	0
2	588842	86.01	0
2	589527	86.11	0
2	590212	86.21	0
2	590897	86.31	0
2	591582	86.41	0
2	592267	86.51	0
2	592952	86.61	0
2	593637	86.71	0
2	594322	86.81	0
2	595007	86.91	0
2	595701	87.01	0
2	596386	87.11	0
2	597071	87.21	0
2	597756	87.31	0
2	598441	87.41	0
2	599126	87.51	0
2	599811	87.61	0
2	600496	87.71	0
2	601181	87.81	0
2	601866	87.91	0
2	602560	88.01	0
2	603245	88.11	0
2	603930	88.21	0
2	604615	88.31	0
2	605300	88.41	0
2	605985	88.51	0
2	606670	88.61	0
2	607355	88.71	0
2	608040	88.81	0
2	608725	88.91	0
2	609419	89.01	0
2	610104	89.11	0
2	610789	89.21	0
2	611474	89.31	0
2	612159	89.41	0
2	612844	89.51	0
2	613529	89.61	0
2	614214	89.71	0
2	614899	89.81	0
2	615584	89.91	0
2	616278	90.01	0
2	616963	90.11	0
2	617648	90.21	0
2	618333	90.31	0
2	619018	90.41	0
2	619703	90.51	0
2	620388	90.61	0
2	621073	90.71	0
2	621758	90.81	0
2	622443	90.91	0
2	623137	91.01	0
2	623822	91.11	0
2	624507	91.21	0
2	625192	91.31	0
2	625877	91.41	0
2	626562	91.51	0
2	627247	91.61	0
2	627932	91.71	0
2	628617	91.81	0
2	629302	91.91	0
2	629996	92.01	0
2	630681	92.11	0
2	631366	92.21	0
2	632051	92.31	0
2	632736	92.41	0
2	633421	92.51	0
2	634106	92.61	0
2	634791	92.71	0
2	635476	92.81	0
2	636161	92.91	0
2	636855	93.01	0
2	637540	93.11	0
2	638225	93.21	0
2	638910	93.31	0
2	639595	93.41	0
2	640280	93.51	0
2	640965	93.61	0
2	641650	93.71	0
2	642335	93.81	0
2	643020	93.91	0
2	643714	94.01	0
2	644399	94.11	0
2	645084	94.21	0
2	645769	94.31	0
2	646454	94.41	0
2	647139	94.51	0
2	647824	94.61	0
2	648509	94.71	0
2	649194	94.81	0
2	649879	94.91	0
2	650573	95.01	0
2	651258	95.11	0
2	651943	95.21	0
2	652628	95.31	0
2	653313	95.41	0
2	653998	95.51	0
2	654683	95.61	0
2	655368	95.71	0
2	656053	95.81	0
2	656738	95.91	0
2	657432	96.01	0
2	658117	96.11	0
2	658802	96.21	0
2	659487	96.31	0
2	660172	96.41	0
2	660857	96.51	0
2	661542	96.61	0
2	662227	96.71	0
2	662912	96.81	0
2	663597	96.91	0
2	664291	97.01	0
2	664976	97.11	0
2	665661	97.21	0
2	666346	97.31	0
2	667031	97.41	0
2	667716	97.51	0
2	668401	97.61	0
2	669086	97.71	0
2	669771	97.81	0
2	670456	97.91	0
2	671150	98.01	0
2	671835	98.11	0
2	672520	98.21	0
2	673205	98.31	0
2	673890	98.41	0
2	674575	98.51	0
2	675260	98.61	0
2	675945	98.71	0
2	676630	98.81	0
2	677315	98.91	0
2	678009	99.01	0
2	678694	99.11	0
2	679379	99.21	0
2	680064	99.31	0
2	680749	99.41	0
2	681434	99.51	0
2	682119	99.61	0
2	682804	99.71	0
2	683489	99.81	0
2	684174	99.91	0
3	113	1.11	0.000179096
3	798	1.21	0.000340852
3	1483	1.31	0.000467435
3	2168	1.41	0.000562893
3	2853	1.51	0.000631106
3	3538	1.61	0.000675745
3	4223	1.71	0.000700245
3	4908	1.81	0.000707784
3	5593	1.91	0.000701273
3	6287	2.01	0.000683354
3	6972	2.11	0.000656398
3	7657	2.21	0.000622512
3	8342	2.31	0.000583548
3	9027	2.41	0.000541117
3	9712	2.51	0.000496604
3	10397	2.61	0.000451181
3	11082	2.71	0.000405825
3	11767	2.81	0.00036134
3	12452	2.91	0.000318365
3	13146	3.01	0.0002774
3	13831	3.11	0.00023882
3	14516	3.21	0.000202887
3	15201	3.31	0.00016977
3	15886	3.41	0.000139558
3	16571	3.51	0.000112271
3	17256	3.61	8.78717e-05
3	17941	3.71	6.628e-05
3	18626	3.81	4.73785e-05
3	19311	3.91	3.1023e-05
3	20005	4.01	1.70493e-05
3	20690	4.11	5.28023e-06
3	21375	4.21	-4.46922e-06
3	22060	4.31	-1.2387e-05
3	22745	4.41	-1.86602e-05
3	23430	4.51	-2.34717e-05
3	24115	4.61	-2.69978e-05
3	24800	4.71	-2.94062e-05
3	25485	4.81	-3.08545e-05
3	26170	4.91	-3.14892e-05
3	26864	5.01	-3.14451e-05
3	27549	5.11	-3.0845e-05
3	28234	5.21	-2.97994e-05
3	28919	5.31	-2.84072e-05
3	29604	5.41	-2.67556e-05
3	30289	5.51	-2.49208e-05
3	30974	5.61	-2.29687e-05
3	31659	5.71	-2.09553e-05
3	32344	5.81	-1.89277e-05
3	33029	5.91	-1.6925e-05
3	33723	6.01	-1.49784e-05
3	34408	6.11	-1.31129e-05
3	35093	6.21	-1.13474e-05
3	35778	6.31	-9.69553e-06
3	36463	6.41	-8.16651e-06
3	37148	6.51	-6.76571e-06
3	37833	6.61	-5.49522e-06
3	38518	6.71	-4.35441e-06
3	39203	6.81	-3.34045e-06
3	39888	6.91	-2.44874e-06
3	40582	7.01	-1.6733e-06
3	41267	7.11	-1.00716e-06
3	41952	7.21	-4.42628e-07
3	42637	7.31	2.84224e-08
3	43322	7.41	4.14339e-07
3	44007	7.51	7.23492e-07
3	44692	7.61	9.6413e-07
3	45377	7.71	1.14424e-06
3	46062	7.81	1.27148e-06
3	46747	7.91	1.35305e-06
3	47441	8.01	1.3957e-06
3	48126	8.11	1.40565e-06
3	48811	8.21	1.3886e-06
3	49496	8.31	1.34971e-06
3	50181	8.41	1.2936e-06
3	50866	8.51	1.22437e-06
3	51551	8.61	1.14561e-06
3	52236	8.71	1.06046e-06
3	52921	8.81	9.71582e-07
3	53606	8.91	8.81246e-07
3	54300	9.01	7.91334e-07
3	54985	9.11	7.03381e-07
3	55670	9.21	6.18613e-07
3	56355	9.31	5.37979e-07
3	57040	9.41	4.62183e-07
3	57725	9.51	3.91714e-07
3	58410	9.61	3.26878e-07
3	59095	9.71	2.67827e-07
3	59780	9.81	2.14581e-07
3	60465	9.91	1.67052e-07
3	61242	10.01	1.25066e-07
3	61935	10.11	8.83794e-08
3	62628	10.21	5.66978e-08
3	63321	10.31	2.96922e-08
3	64014	10.41	7.00453e-09
3	64707	10.51	-1.17325e-08
3	65400	10.61	-2.68933e-08
3	66093	10.71	-3.88482e-08
3	66786	10.81	-4.79581e-08
3	67479	10.91	-5.45704e-08
3	68181	11.01	-5.90177e-08
3	68874	11.11	-6.16069e-08
3	69567	11.21	-6.26265e-08
3	70260	11.31	-6.23395e-08
3	70953	11.41	-6.09859e-08
3	71646	11.51	-5.87811e-08
3	72339	11.61	-5.59183e-08
3	73032	11.71	-5.25674e-08
3	73725	11.81	-4.88761e-08
3	74418	11.91	-4.4971e-08
3	75120	12.01	-4.09599e-08
3	75813	12.11	-3.69354e-08
3	76506	12.21	-3.29713e-08
3	77199	12.31	-2.9128e-08
3	77892	12.41	-2.54531e-08
3	78585	12.51	-2.19821e-08
3	79278	12.61	-1.87399e-08
3	79971	12.71	-1.57428e-08
3	80664	12.81	-1.30029e-08
3	81357	12.91	-1.05217e-08
3	82059	13.01	-8.29772e-09
3	82752	13.11	-6.32454e-09
3	83445	13.21	-4.59224e-09
3	84138	13.31	-3.08802e-09
3	84831	13.41	-1.79838e-09
3	85524	13.51	-7.08411e-10
3	86217	13.61	1.98241e-10
3	86910	13.71	9.37916e-10
3	87603	13.81	1.52767e-09
3	88296	13.91	1.98384e-09
3	88998	14.01	2.32276e-09
3	89691	14.11	2.55937e-09
3	90384	14.21	2.70788e-09
3	91077	14.31	2.78249e-09
3	91770	14.41	2.79243e-09
3	92463	14.51	2.7498e-09
3	93156	14.61	2.66525e-09
3	93849	14.71	2.54872e-09
3	94542	14.81	2.40803e-09
3	95235	14.91	2.24887e-09
3	95937	15.01	2.07763e-09
3	96630	15.11	1.89999e-09
3	97323	15.21	1.72236e-09
3	98016	15.31	1.54472e-09
3	98709	15.41	1.37064e-09
3	99402	15.51	1.20295e-09
3	100095	15.61	1.04379e-09
3	100788	15.71	8.94573e-10
3	101481	15.81	7.56017e-10
3	102174	15.91	6.29541e-10
3	102876	16.01	5.13012e-10
3	103569	16.11	4.09273e-10
3	104262	16.21	3.16902e-10
3	104955	16.31	2.3519e-10
3	105648	16.41	1.63425e-10
3	106341	16.51	1.02318e-10
3	107034	16.61	4.9738e-11
3	107727	16.71	5.68434e-12
3	108420	16.81	-3.05533e-11
3	109113	16.91	-5.8975e-11
3	109815	17.01	-8.10019e-11
3	110508	17.11	-9.80549e-11
3	111201	17.21	-1.11555e-10
3	111894	17.31	-1.18661e-10
3	112587	17.41	-1.23634e-10
3	113280	17.51	-1.23634e-10
3	113973	17.61	-1.23634e-10
3	114666	17.71	-1.21503e-10
3	115359	17.81	-1.14397e-10
3	116052	17.91	-1.07292e-10
3	116754	18.01	-1.00187e-10
3	117447	18.11	-9.30811e-11
3	118140	18.21	-8.59757e-11
3	118833	18.31	-7.88702e-11
3	119526	18.41	-7.17648e-11
3	120219	18.51	-6.46594e-11
3	120912	18.61	-5.7554e-11
3	121605	18.71	-5.04485e-11
3	122298	18.81	-4.33431e-11
3	122991	18.91	-3.62377e-11
3	123693	19.01	-2.91323e-11
3	124386	19.11	-2.20268e-11
3	125079	19.21	-1.7053e-11
3	125772	19.31	-1.49214e-11
3	126465	19.41	-1.35003e-11
3	127158	19.51	-1.27898e-11
3	127851	19.61	-1.13687e-11
3	128544	19.71	-9.9476e-12
3	129237	19.81	-9.23706e-12
3	129930	19.91	-8.52651e-12
3	130632	20.01	-7.81597e-12
3	131325	20.11	-7.10543e-12
3	132018	20.21	-6.39488e-12
3	132711	20.31	-5.68434e-12
3	133404	20.41	-4.9738e-12
3	134097	20.51	-4.26326e-12
3	134790	20.61	-4.26326e-12
3	135483	20.71	-3.55271e-12
3	136176	20.81	-3.55271e-12
3	136869	20.91	-2.84217e-12
3	137571	21.01	-2.84217e-12
3	138264	21.11	-2.84217e-12
3	138957	21.21	-2.13163e-12
3	139650	21.31	-2.13163e-12
3	140343	21.41	-2.13163e-12
3	141036	21.51	-1.42109e-12
3	141729	21.61	-1.42109e-12
3	142422	21.71	-1.42109e-12
3	143115	21.81	-1.42109e-12
3	143808	21.91	-1.42109e-12
3	144510	22.01	-7.10543e-13
3	145203	22.11	-7.10543e-13
3	145896	22.21	-7.10543e-13
3	146589	22.31	-7.10543e-13
3	147282	22.41	-7.10543e-13
3	147975	22.51	-7.10543e-13
3	148668	22.61	-7.10543e-13
3	149361	22.71	-7.10543e-13
3	150054	22.81	-7.10543e-13
3	150747	22.91	-7.10543e-13
3	151449	23.01	0
3	152142	23.11	0
3	152835	23.21	0
3	153528	23.31	0
3	154221	23.41	0
3	154914	23.51	0
3	155607	23.61	0
3	156300	23.71	0
3	156993	23.81	0
3	157686	23.91	0
3	158388	24.01	0
3	159081	24.11	0
3	159774	24.21	0
3	160467	24.31	0
3	161160	24.41	0
3	161853	24.51	0
3	162546	24.61	0
3	163239	24.71	0
3	163932	24.81	0
3	164625	24.91	0
3	165327	25.01	0
3	166020	25.11	0
3	166713	25.21	0
3	167406	25.31	0
3	168099	25.41	0
3	168792	25.51	0
3	169485	25.61	0
3	170178	25.71	0
3	170871	25.81	0
3	171564	25.91	0
3	172266	26.01	0
3	172959	26.11	0
3	173652	26.21	0
3	174345	26.31	0
3	175038	26.41	0
3	175731	26.51	0
3	176424	26.61	0
3	177117	26.71	0
3	177810	26.81	0
3	178503	26.91	0
3	179205	27.01	0
3	179898	27.11	0
3	180591	27.21	0
3	181284	27.31	0
3	181977	27.41	0
3	182670	27.51	0
3	183363	27.61	0
3	184056	27.71	0
3	184749	27.81	0
3	185442	27.91	0
3	186144	28.01	0
3	186837	28.11	0
3	187530	28.21	0
3	188223	28.31	0
3	188916	28.41	0
3	189609	28.51	0
3	190302	28.61	0
3	190995	28.71	0
3	191688	28.81	0
3	192381	28.91	0
3	193083	29.01	0
3	193776	29.11	0
3	194469	29.21	0
3	195162	29.31	0
3	195855	29.41	0
3	196548	29.51	0
3	197241	29.61	0
3	197934	29.71	0
3	198627	29.81	0
3	199320	29.91	0
3	200022	30.01	0
3	200715	30.11	0
3	201408	30.21	0
3	202101	30.31	0
3	202794	30.41	0
3	203487	30.51	0
3	204180	30.61	0
3	204873	30.71	0
3	205566	30.81	0
3	206259	30.91	0
3	206961	31.01	0
3	207654	31.11	0
3	208347	31.21	0
3	209040	31.31	0
3	209733	31.41	0
3	210426	31.51	0
3	211119	31.61	0
3	211812	31.71	0
3	212505	31.81	0
3	213198	31.91	0
3	213900	32.01	0
3	214593	32.11	0
3	215286	32.21	0
3	215979	32.31	0
3	216672	32.41	0
3	217365	32.51	0
3	218058	32.61	0
3	218751	32.71	0
3	219444	32.81	0
3	220137	32.91	0
3	220839	33.01	0
3	221532	33.11	0
3	222225	33.21	0
3	222918	33.31	0
3	223611	33.41	0
3	224304	33.51	0
3	224997	33.61	0
3	225690	33.71	0
3	226383	33.81	0
3	227076	33.91	0
3	227778	34.01	0
3	228471	34.11	0
3	229164	34.21	0
3	229857	34.31	0
3	230550	34.41	0
3	231243	34.51	0
3	231936	34.61	0
3	232629	34.71	0
3	233322	34.81	0
3	234015	34.91	0
3	234717	35.01	0
3	235410	35.11	0
3	236103	35.21	0
3	236796	35.31	0
3	237489	35.41	0
3	238182	35.51	0
3	238875	35.61	0
3	239568	35.71	0
3	240261	35.81	0
3	240954	35.91	0
3	241656	36.01	0
3	242349	36.11	0
3	243042	36.21	0
3	243735	36.31	0
3	244428	36.41	0
3	245121	36.51	0
3	245814	36.61	0
3	246507	36.71	0
3	247200	36.81	0
3	247893	36.91	0
3	248595	37.01	0
3	249288	37.11	0
3	249981	37.21	0
3	250674	37.31	0
3	251367	37.41	0
3	252060	37.51	0
3	252753	37.61	0
3	253446	37.71	0
3	254139	37.81	0
3	254832	37.91	0
3	255534	38.01	0
3	256227	38.11	0
3	256920	38.21	0
3	257613	38.31	0
3	258306	38.41	0
3	258999	38.51	0
3	259692	38.61	0
3	260385	38.71	0
3	261078	38.81	0
3	261771	38.91	0
3	262473	39.01	0
3	263166	39.11	0
3	263859	39.21	0
3	264552	39.31	0
3	265245	39.41	0
3	265938	39.51	0
3	266631	39.61	0
3	267324	39.71	0
3	268017	39.81	0
3	268710	39.91	0
3	269412	40.01	0
3	270105	40.11	0
3	270798	40.21	0
3	271491	40.31	0
3	272184	40.41	0
3	272877	40.51	0
3	273570	40.61	0
3	274263	40.71	0
3	274956	40.81	0
3	275649	40.91	0
3	276351	41.01	0
3	277044	41.11	0
3	277737	41.21	0
3	278430	41.31	0
3	279123	41.41	0
3	279816	41.51	0
3	280509	41.61	0
3	281202	41.71	0
3	281895	41.81	0
3	282588	41.91	0
3	283290	42.01	0
3	283983	42.11	0
3	284676	42.21	0
3	285369	42.31	0
3	286062	42.41	0
3	286755	42.51	0
3	287448	42.61	0
3	288141	42.71	0
3	288834	42.81	0
3	289527	42.91	0
3	290229	43.01	0
3	290922	43.11	0
3	291615	43.21	0
3	292308	43.31	0
3	293001	43.41	0
3	293694	43.51	0
3	294387	43.61	0
3	295080	43.71	0
3	295773	43.81	0
3	296466	43.91	0
3	297168	44.01	0
3	297861	44.11	0
3	298554	44.21	0
3	299247	44.31	0
3	299940	44.41	0
3	300633	44.51	0
3	301326	44.61	0
3	302019	44.71	0
3	302712	44.81	0
3	303405	44.91	0
3	304107	45.01	0
3	304800	45.11	0
3	305493	45.21	0
3	306186	45.31	0
3	306879	45.41	0
3	307572	45.51	0
3	308265	45.61	0
3	308958	45.71	0
3	309651	45.81	0
3	310344	45.91	0
3	311046	46.01	0
3	311739	46.11	0
3	312432	46.21	0
3	313125	46.31	0
3	313818	46.41	0
3	314511	46.51	0
3	315204	46.61	0
3	315897	46.71	0
3	316590	46.81	0
3	317283	46.91	0
3	317985	47.01	0
3	318678	47.11	0
3	319371	47.21	0
3	320064	47.31	0
3	320757	47.41	0
3	321450	47.51	0
3	322143	47.61	0
3	322836	47.71	0
3	323529	47.81	0
3	324325	47.91	0
3	325026	48.01	0
3	325718	48.11	0
3	326410	48.21	0
3	327102	48.31	0
3	327794	48.41	0
3	328486	48.51	0
3	329178	48.61	0
3	329870	48.71	0
3	330562	48.81	0
3	331254	48.91	0
3	331955	49.01	0
3	332647	49.11	0
3	333339	49.21	0
3	334031	49.31	0
3	334723	49.41	0
3	335415	49.51	0
3	336107	49.61	0
3	336799	49.71	0
3	337491	49.81	0
3	338183	49.91	0
3	338884	50.01	0
3	339576	50.11	0
3	340268	50.21	0
3	340960	50.31	0
3	341652	50.41	0
3	342344	50.51	0
3	343036	50.61	0
3	343728	50.71	0
3	344420	50.81	0
3	345112	50.91	0
3	345813	51.01	0
3	346505	51.11	0
3	347197	51.21	0
3	347889	51.31	0
3	348581	51.41	0
3	349273	51.51	0
3	349965	51.61	0
3	350657	51.71	0
3	351349	51.81	0
3	352041	51.91	0
3	352742	52.01	0
3	353434	52.11	0
3	354126	52.21	0
3	354818	52.31	0
3	355510	52.41	0
3	356202	52.51	0
3	356894	52.61	0
3	357586	52.71	0
3	358278	52.81	0
3	358970	52.91	0
3	359671	53.01	0
3	360363	53.11	0
3	361055	53.21	0
3	361747	53.31	0
3	362439	53.41	0
3	363131	53.51	0
3	363823	53.61	0
3	364515	53.71	0
3	365207	53.81	0
3	365899	53.91	0
3	366600	54.01	0
3	367292	54.11	0
3	368102	54.21	0
3	368793	54.31	0
3	369484	54.41	0
3	370175	54.51	0
3	370866	54.61	0
3	371557	54.71	0
3	372248	54.81	0
3	372939	54.91	0
3	373639	55.01	0
3	374330	55.11	0
3	375021	55.21	0
3	375712	55.31	0
3	376403	55.41	0
3	377094	55.51	0
3	377785	55.61	0
3	378476	55.71	0
3	379167	55.81	0
3	379858	55.91	0
3	380558	56.01	0
3	381249	56.11	0
3	381940	56.21	0
3	382631	56.31	0
3	383322	56.41	0
3	384013	56.51	0
3	384704	56.61	0
3	385395	56.71	0
3	386086	56.81	0
3	386777	56.91	0
3	387477	57.01	0
3	388168	57.11	0
3	388859	57.21	0
3	389550	57.31	0
3	390241	57.41	0
3	390932	57.51	0
3	391623	57.61	0
3	392314	57.71	0
3	393005	57.81	0
3	393696	57.91	0
3	394396	58.01	0
3	395087	58.11	0
3	395778	58.21	0
3	396469	58.31	0
3	397160	58.41	0
3	397851	58.51	0
3	398542	58.61	0
3	399233	58.71	0
3	399924	58.81	0
3	400615	58.91	0
3	401315	59.01	0
3	402006	59.11	0
3	402697	59.21	0
3	403388	59.31	0
3	404079	59.41	0
3	404770	59.51	0
3	405461	59.61	0
3	406152	59.71	0
3	406843	59.81	0
3	407637	59.91	0
3	408336	60.01	0
3	409026	60.11	0
3	409716	60.21	0
3	410406	60.31	0
3	411096	60.41	0
3	411786	60.51	0
3	412476	60.61	0
3	413166	60.71	0
3	413856	60.81	0
3	414546	60.91	0
3	415245	61.01	0
3	415935	61.11	0
3	416625	61.21	0
3	417315	61.31	0
3	418005	61.41	0
3	418695	61.51	0
3	419385	61.61	0
3	420075	61.71	0
3	420765	61.81	0
3	421455	61.91	0
3	422154	62.01	0
3	422844	62.11	0
3	423534	62.21	0
3	424224	62.31	0
3	424914	62.41	0
3	425604	62.51	0
3	426294	62.61	0
3	426984	62.71	0
3	427674	62.81	0
3	428364	62.91	0
3	429063	63.01	0
3	429753	63.11	0
3	430443	63.21	0
3	431133	63.31	0
3	431823	63.41	0
3	432513	63.51	0
3	433203	63.61	0
3	433893	63.71	0
3	434583	63.81	0
3	435273	63.91	0
3	435972	64.01	0
3	436662	64.11	0
3	437352	64.21	0
3	438042	64.31	0
3	438732	64.41	0
3	439422	64.51	0
3	440112	64.61	0
3	440802	64.71	0
3	441492	64.81	0
3	442182	64.91	0
3	442881	65.01	0
3	443692	65.11	0
3	444381	65.21	0
3	445070	65.31	0
3	445759	65.41	0
3	446448	65.51	0
3	447137	65.61	0
3	447826	65.71	0
3	448515	65.81	0
3	449204	65.91	0
3	449902	66.01	0
3	450591	66.11	0
3	451280	66.21	0
3	451969	66.31	0
3	452658	66.41	0
3	453347	66.51	0
3	454036	66.61	0
3	454725	66.71	0
3	455414	66.81	0
3	456103	66.91	0
3	456801	67.01	0
3	457490	67.11	0
3	458179	67.21	0
3	458868	67.31	0
3	459557	67.41	0
3	460246	67.51	0
3	460935	67.61	0
3	461624	67.71	0
3	462313	67.81	0
3	463002	67.91	0
3	463700	68.01	0
3	464389	68.11	0
3	465078	68.21	0
3	465767	68.31	0
3	466456	68.41	0
3	467145	68.51	0
3	467834	68.61	0
3	468523	68.71	0
3	469212	68.81	0
3	469901	68.91	0
3	470599	69.01	0
3	471288	69.11	0
3	471977	69.21	0
3	472666	69.31	0
3	473355	69.41	0
3	474044	69.51	0
3	474733	69.61	0
3	475422	69.71	0
3	476111	69.81	0
3	476800	69.91	0
3	477601	70.01	0
3	478289	70.11	0
3	478977	70.21	0
3	479665	70.31	0
3	480353	70.41	0
3	481041	70.51	0
3	481729	70.61	0
3	482417	70.71	0
3	483105	70.81	0
3	483793	70.91	0
3	484490	71.01	0
3	485178	71.11	0
3	485866	71.21	0
3	486554	71.31	0
3	487242	71.41	0
3	487930	71.51	0
3	488618	71.61	0
3	489306	71.71	0
3	489994	71.81	0
3	490682	71.91	0
3	491379	72.01	0
3	492067	72.11	0
3	492755	72.21	0
3	493443	72.31	0
3	494131	72.41	0
3	494819	72.51	0
3	495507	72.61	0
3	496195	72.71	0
3	496883	72.81	0
3	497571	72.91	0
3	498268	73.01	0
3	498956	73.11	0
3	499644	73.21	0
3	500332	73.31	0
3	501020	73.41	0
3	501708	73.51	0
3	502396	73.61	0
3	503084	73.71	0
3	503772	73.81	0
3	504460	73.91	0
3	505157	74.01	0
3	505845	74.11	0
3	506533	74.21	0
3	507221	74.31	0
3	507909	74.41	0
3	508597	74.51	0
3	509285	74.61	0
3	510139	74.71	0
3	510826	74.81	0
3	511513	74.91	0
3	512209	75.01	0
3	512896	75.11	0
3	513583	75.21	0
3	514270	75.31	0
3	514957	75.41	0
3	515644	75.51	0
3	516331	75.61	0
3	517018	75.71	0
3	517705	75.81	0
3	518392	75.91	0
3	519088	76.01	0
3	519775	76.11	0
3	520462	76.21	0
3	521149	76.31	0
3	521836	76.41	0
3	522523	76.51	0
3	523210	76.61	0
3	523897	76.71	0
3	524584	76.81	0
3	525271	76.91	0
3	525967	77.01	0
3	526654	77.11	0
3	527341	77.21	0
3	528028	77.31	0
3	528715	77.41	0
3	529402	77.51	0
3	530089	77.61	0
3	530776	77.71	0
3	531463	77.81	0
3	532150	77.91	0
3	532846	78.01	0
3	533533	78.11	0
3	534220	78.21	0
3	534907	78.31	0
3	535594	78.41	0
3	536281	78.51	0
3	536968	78.61	0
3	537655	78.71	0
3	538342	78.81	0
3	539029	78.91	0
3	539725	79.01	0
3	540412	79.11	0
3	541099	79.21	0
3	541889	79.31	0
3	542575	79.41	0
3	543261	79.51	0
3	543947	79.61	0
3	544633	79.71	0
3	545319	79.81	0
3	546005	79.91	0
3	546700	80.01	0
3	547386	80.11	0
3	548072	80.21	0
3	548758	80.31	0
3	549444	80.41	0
3	550130	80.51	0
3	550816	80.61	0
3	551502	80.71	0
3	552188	80.81	0
3	552874	80.91	0
3	553569	81.01	0
3	554255	81.11	0
3	554941	81.21	0
3	555627	81.31	0
3	556313	81.41	0
3	556999	81.51	0
3	557685	81.61	0
3	558371	81.71	0
3	559057	81.81	0
3	559743	81.91	0
3	560438	82.01	0
3	561124	82.11	0
3	561810	82.21	0
3	562496	82.31	0
3	563182	82.41	0
3	563868	82.51	0
3	564554	82.61	0
3	565240	82.71	0
3	565926	82.81	0
3	566612	82.91	0
3	567307	83.01	0
3	567993	83.11	0
3	568679	83.21	0
3	569365	83.31	0
3	570051	83.41	0
3	570737	83.51	0
3	571423	83.61	0
3	573060	83.71	0
3	573745	83.81	0
3	574430	83.91	0
3	575124	84.01	0
3	575809	84.11	0
3	576494	84.21	0
3	577179	84.31	0
3	577864	84.41	0
3	578549	84.51	0
3	579234	84.61	0
3	579919	84.71	0
3	580604	84.81	0
3	581289	84.91	0
3	581983	85.01	0
3	582668	85.11	0
3	583353	85.21	0
3	584038	85.31	0
3	584723	85.41	0
3	585408	85.51	0
3	586093	85.61	0
3	586778	85.71	0
3	587463	85.81	0
3	588148	85.91	0
3	588842	86.01	0
3	589527	86.11	0
3	590212	86.21	0
3	590897	86.31	0
3	591582	86.41	0
3	592267	86.51	0
3	592952	86.61	0
3	593637	86.71	0
3	594322	86.81	0
3	595007	86.91	0
3	595701	87.01	0
3	596386	87.11	0
3	597071	87.21	0
3	597756	87.31	0
3	598441	87.41	0
3	599126	87.51	0
3	599811	87.61	0
3	600496	87.71	0
3	601181	87.81	0
3	601866	87.91	0
3	602560	88.01	0
3	603245	88.11	0
3	603930	88.21	0
3	604615	88.31	0
3	605300	88.41	0
3	605985	88.51	0
3	606670	88.61	0
3	607355	88.71	0
3	608040	88.81	0
3	608725	88.91	0
3	609419	89.01	0
3	610104	89.11	0
3	610789	89.21	0
3	611474	89.31	0
3	612159	89.41	0
3	612844	89.51	0
3	613529	89.61	0
3	614214	89.71	0
3	614899	89.81	0
3	615584	89.91	0
3	616278	90.01	0
3	616963	90.11	0
3	617648	90.21	0
3	618333	90.31	0
3	619018	90.41	0
3	619703	90.51	0
3	620388	90.61	0
3	621073	90.71	0
3	621758	90.81	0
3	622443	90.91	0
3	623137	91.01	0
3	623822	91.11	0
3	624507	91.21	0
3	625192	91.31	0
3	625877	91.41	0
[...]
120	560161	82	0.028088607909
120	567030	83	0.028088605289
120	574848	84	0.029128193105
120	581707	85	0.028088572437
120	588566	86	0.028088643761
120	595425	87	0.028088728125
120	602284	88	0.028088816858
120	609143	89	0.028088910366
120	616002	90	0.028089007133
120	622861	91	0.028089166923
120	629720	92	0.028102395735
120	636579	93	0.028089645355
120	643438	94	0.028089865557
120	650297	95	0.028089984463
120	657156	96	0.028090011659
120	664015	97	0.028090011384
120	670874	98	0.028090003363
120	677733	99	0.028089990406
120	684592	100	0.028089977751
121	6011	2	0
121	12870	3	0
121	19729	4	0
121	26588	5	0
121	33447	6	0
121	40306	7	0
121	47165	8	0
121	54024	9	0
121	60884	10	0
121	67897	11	0
121	74836	12	0
121	81775	13	0
121	88714	14	0
121	95653	15	0
121	102592	16	0
121	109531	17	0
121	116470	18	0
121	123409	19	0
121	130348	20	0
121	137287	21	0
121	144226	22	0
121	151165	23	0
121	158104	24	0
121	165043	25	0
121	171982	26	0
121	178921	27	0
121	185860	28	0
121	192799	29	0
121	199738	30	0
121	206677	31	0
121	213616	32	0
121	220555	33	0
121	227494	34	0
121	234433	35	0
121	241372	36	0
121	248311	37	0
121	255250	38	0
121	262189	39	0
121	269128	40	0
121	276067	41	0
121	283006	42	0
121	289945	43	0
121	296884	44	0
121	303823	45	0
121	310762	46	0
121	317701	47	0
121	324743	48	0
121	331672	49	0
121	338601	50	0
121	345530	51	0
121	352459	52	0
121	359388	53	0
121	366317	54	0
121	373357	55	0
121	380276	56	0
121	387195	57	0
121	394114	58	0
121	401033	59	0
121	408055	60	0
121	414964	61	0
121	421873	62	0
121	428782	63	0
121	435691	64	0
121	442600	65	0
121	449622	66	0
121	456521	67	0
121	463420	68	0
121	470319	69	0
121	477218	70	0
121	484211	71	0
121	491100	72	0
121	497989	73	0
121	504878	74	0
121	511931	75	0
121	518810	76	0
121	525689	77	0
121	532568	78	0
121	539447	79	0
121	546423	80	0
121	553292	81	0
121	560161	82	0
121	567030	83	0
121	574848	84	0
121	581707	85	0
121	588566	86	0
121	595425	87	0
121	602284	88	0
121	609143	89	0
121	616002	90	0
121	622861	91	0
121	629720	92	0
121	636579	93	0
121	643438	94	0
121	650297	95	0
121	657156	96	0
121	664015	97	0
121	670874	98	0
121	677733	99	0
121	684592	100	0
122	6012	2	6
122	12871	3	6
122	19730	4	6
122	26589	5	6
122	33448	6	6
122	40307	7	6
122	47166	8	6
122	54025	9	6
122	60885	10	6
122	67898	11	6
122	74837	12	6
122	81776	13	6
122	88715	14	6
122	95654	15	6
122	102593	16	6
122	109532	17	6
122	116471	18	6
122	123410	19	6
122	130349	20	6
122	137288	21	6
122	144227	22	6
122	151166	23	6
122	158105	24	6
122	165044	25	6
122	171983	26	6
122	178922	27	6
122	185861	28	6
122	192800	29	6
122	199739	30	6
122	206678	31	6
122	213617	32	6
122	220556	33	6
122	227495	34	6
122	234434	35	6
122	241373	36	6
122	248312	37	6
122	255251	38	6
122	262190	39	6
122	269129	40	6
122	276068	41	6
122	283007	42	6
122	289946	43	6
122	296885	44	6
122	303824	45	6
122	310763	46	6
122	317702	47	6
122	324744	48	6
122	331673	49	6
122	338602	50	6
122	345531	51	6
122	352460	52	6
122	359389	53	6
122	366318	54	6
122	373358	55	6
122	380277	56	6
122	387196	57	6
122	394115	58	6
122	401034	59	6
122	408056	60	6
122	414965	61	6
122	421874	62	6
122	428783	63	6
122	435692	64	6
122	442601	65	6
122	449623	66	6
122	456522	67	6
122	463421	68	6
122	470320	69	6
122	477219	70	6
122	484212	71	6
122	491101	72	6
122	497990	73	6
122	504879	74	6
122	511932	75	6
122	518811	76	6
122	525690	77	6
122	532569	78	6
122	539448	79	6
122	546424	80	6
122	553293	81	6
122	560162	82	6
122	567031	83	6
122	574849	84	6
122	581708	85	6
122	588567	86	6
122	595426	87	6
122	602285	88	6
122	609144	89	6
122	616003	90	6
122	622862	91	6
122	629721	92	6
122	636580	93	6
122	643439	94	6
122	650298	95	6
122	657157	96	6
122	664016	97	6
122	670875	98	6
122	677734	99	6
122	684593	100	6
123	6012	2	0.024273156641
123	12871	3	0.028092396084
123	19730	4	0.02809239608
123	26589	5	0.028079396075
123	33448	6	0.028092396063
123	40307	7	0.02809239606
123	47166	8	0.02809239606
123	54025	9	0.02809239606
123	60885	10	0.02807939606
123	67898	11	0.028137350069
123	74837	12	0.028092312058
123	81776	13	0.028092100197
123	88715	14	0.028091756881
123	95654	15	0.028091301279
123	102593	16	0.028090754799
123	109532	17	0.028090138025
123	116471	18	0.028089469814
123	123410	19	0.028088766945
123	130349	20	0.028088043998
123	137288	21	0.028087313347
123	144227	22	0.028099585327
123	151166	23	0.028085868323
123	158105	24	0.028085169047
123	165044	25	0.028097492688
123	171983	26	0.028083843129
123	178922	27	0.028096223137
123	185861	28	0.02808263455
123	192800	29	0.028095078423
123	199739	30	0.028094555179
123	206678	31	0.028081064706
123	213617	32	0.028093606514
123	220556	33	0.028093179781
123	227495	34	0.028079783426
123	234434	35	0.028092416234
123	241373	36	0.028092076832
123	248312	37	0.02809176378
123	255251	38	0.0280914756
123	262190	39	0.028091210783
123	269129	40	0.028090967858
123	276068	41	0.028090745355
123	283007	42	0.028090541859
123	289946	43	0.028090356003
123	296885	44	0.02809018647
123	303824	45	0.028090032022
123	310763	46	0.028089891468
123	317702	47	0.028089763708
123	324744	48	0.028193488245
123	331673	49	0.028089542446
123	338602	50	0.028089447056
123	345531	51	0.028089360676
123	352460	52	0.028089282521
123	359389	53	0.028102211869
123	366318	54	0.028089148058
123	373358	55	0.027928771143
123	380277	56	0.028089038492
123	387196	57	0.028088991656
123	394115	58	0.028101949464
123	401034	59	0.028088911492
123	408056	60	0.028192398055
123	414965	61	0.028088846611
123	421874	62	0.028101819012
123	428783	63	0.028088794222
123	435692	64	0.028088771977
123	442601	65	0.028088752021
123	449623	66	0.027941094859
123	456522	67	0.028088718098
123	463421	68	0.02808870373
123	470320	69	0.028088690877
123	477219	70	0.028088679365
123	484212	71	0.028204869796
123	491101	72	0.028088659868
123	497990	73	0.028088651651
123	504879	74	0.028088644297
123	511932	75	0.028208277496
123	518811	76	0.02808863188
123	525690	77	0.028088626656
123	532569	78	0.028088621994
123	539448	79	0.028101617842
123	546424	80	0.028191494786
123	553293	81	0.028101610835
123	560162	82	0.028088607891
123	567031	83	0.028088605273
123	574849	84	0.029128192297
123	581708	85	0.028088570123
123	588567	86	0.028088637897
123	595426	87	0.028088717902
123	602285	88	0.028088807199
123	609144	89	0.028088900207
123	616003	90	0.028088997011
123	622862	91	0.02808915693
123	629721	92	0.0281023858
123	636580	93	0.02808963542
123	643439	94	0.028089855668
123	650298	95	0.028089975944
123	657157	96	0.028090004686
123	664016	97	0.02809000488
123	670875	98	0.028089996832
123	677734	99	0.028089983798
123	684593	100	0.028089971113
124	6012	2	0
124	12871	3	0
124	19730	4	0
124	26589	5	0
124	33448	6	0
124	40307	7	0
124	47166	8	0
124	54025	9	0
124	60885	10	0
124	67898	11	0
124	74837	12	0
124	81776	13	0
124	88715	14	0
124	95654	15	0
124	102593	16	0
124	109532	17	0
124	116471	18	0
124	123410	19	0
124	130349	20	0
124	137288	21	0
124	144227	22	0
124	151166	23	0
124	158105	24	0
124	165044	25	0
124	171983	26	0
124	178922	27	0
124	185861	28	0
124	192800	29	0
124	199739	30	0
124	206678	31	0
124	213617	32	0
124	220556	33	0
124	227495	34	0
124	234434	35	0
124	241373	36	0
124	248312	37	0
124	255251	38	0
124	262190	39	0
124	269129	40	0
124	276068	41	0
124	283007	42	0
124	289946	43	0
124	296885	44	0
124	303824	45	0
124	310763	46	0
124	317702	47	0
124	324744	48	0
124	331673	49	0
124	338602	50	0
124	345531	51	0
124	352460	52	0
124	359389	53	0
124	366318	54	0
124	373358	55	0
124	380277	56	0
124	387196	57	0
124	394115	58	0
124	401034	59	0
124	408056	60	0
124	414965	61	0
124	421874	62	0
124	428783	63	0
124	435692	64	0
124	442601	65	0
124	449623	66	0
124	456522	67	0
124	463421	68	0
124	470320	69	0
124	477219	70	0
124	484212	71	0
124	491101	72	0
124	497990	73	0
124	504879	74	0
124	511932	75	0
124	518811	76	0
124	525690	77	0
124	532569	78	0
124	539448	79	0
124	546424	80	0
124	553293	81	0
124	560162	82	0
124	567031	83	0
124	574849	84	0
124	581708	85	0
124	588567	86	0
124	595426	87	0
124	602285	88	0
124	609144	89	0
124	616003	90	0
124	622862	91	0
124	629721	92	0
124	636580	93	0
124	643439	94	0
124	650298	95	0
124	657157	96	0
124	664016	97	0
124	670875	98	0
124	677734	99	0
124	684593	100	0
125	6013	2	7
125	12872	3	7
125	19731	4	7
125	26590	5	7
125	33449	6	7
125	40308	7	7
125	47167	8	7
125	54026	9	7
125	60886	10	7
125	67899	11	7
125	74838	12	7
125	81777	13	7
125	88716	14	7
125	95655	15	7
125	102594	16	7
125	109533	17	7
125	116472	18	7
125	123411	19	7
125	130350	20	7
125	137289	21	7
125	144228	22	7
125	151167	23	7
125	158106	24	7
125	165045	25	7
125	171984	26	7
125	178923	27	7
125	185862	28	7
125	192801	29	7
125	199740	30	7
125	206679	31	7
125	213618	32	7
125	220557	33	7
125	227496	34	7
125	234435	35	7
125	241374	36	7
125	248313	37	7
125	255252	38	7
125	262191	39	7
125	269130	40	7
125	276069	41	7
125	283008	42	7
125	289947	43	7
125	296886	44	7
125	303825	45	7
125	310764	46	7
125	317703	47	7
125	324745	48	7
125	331674	49	7
125	338603	50	7
125	345532	51	7
125	352461	52	7
125	359390	53	7
125	366319	54	7
125	373359	55	7
125	380278	56	7
125	387197	57	7
125	394116	58	7
125	401035	59	7
125	408057	60	7
125	414966	61	7
125	421875	62	7
125	428784	63	7
125	435693	64	7
125	442602	65	7
125	449624	66	7
125	456523	67	7
125	463422	68	7
125	470321	69	7
125	477220	70	7
125	484213	71	7
125	491102	72	7
125	497991	73	7
125	504880	74	7
125	511933	75	7
125	518812	76	7
125	525691	77	7
125	532570	78	7
125	539449	79	7
125	546425	80	7
125	553294	81	7
125	560163	82	7
125	567032	83	7
125	574850	84	7
125	581709	85	7
125	588568	86	7
125	595427	87	7
125	602286	88	7
125	609145	89	7
125	616004	90	7
125	622863	91	7
125	629722	92	7
125	636581	93	7
125	643440	94	7
125	650299	95	7
125	657158	96	7
125	664017	97	7
125	670876	98	7
125	677735	99	7
125	684594	100	7
126	6013	2	0.024273136627
126	12872	3	0.028092396084
126	19731	4	0.02809239608
126	26590	5	0.028079396075
126	33449	6	0.028092396063
126	40308	7	0.02809239606
126	47167	8	0.02809239606
126	54026	9	0.02809239606
126	60886	10	0.02807939606
126	67899	11	0.028137350053
126	74838	12	0.028092312009
126	81777	13	0.028092100091
126	88716	14	0.028091756679
126	95655	15	0.028091300948
126	102594	16	0.028090754308
126	109533	17	0.028090137354
126	116472	18	0.028089468951
126	123411	19	0.028088765889
126	130350	20	0.028088042752
126	137289	21	0.028087311923
126	144228	22	0.028099583739
126	151167	23	0.028085866591
126	158106	24	0.028085167192
126	165045	25	0.028097490733
126	171984	26	0.028083841098
126	178923	27	0.028096221051
126	185862	28	0.028082632431
126	192801	29	0.028095076293
126	199740	30	0.028094553056
126	206679	31	0.028081062606
126	213618	32	0.02809360445
126	220557	33	0.028093177768
126	227496	34	0.028079781472
126	234435	35	0.028092414348
126	241374	36	0.028092075022
126	248313	37	0.02809176205
126	255252	38	0.028091473952
126	262191	39	0.028091209221
126	269130	40	0.028090966381
126	276069	41	0.028090743963
126	283008	42	0.028090540554
126	289947	43	0.02809035478
126	296886	44	0.028090185328
126	303825	45	0.028090030959
126	310764	46	0.028089890479
126	317703	47	0.028089762792
126	324745	48	0.028193487396
126	331674	49	0.028089541663
126	338603	50	0.028089446333
126	345532	51	0.028089360012
126	352461	52	0.028089281909
126	359390	53	0.02810221131
126	366319	54	0.028089147544
126	373359	55	0.027928770674
126	380278	56	0.028089038062
126	387197	57	0.028088991265
126	394116	58	0.028101949108
126	401035	59	0.028088911167
126	408057	60	0.02819239776
126	414966	61	0.028088846342
126	421875	62	0.028101818769
126	428784	63	0.028088794001
126	435693	64	0.028088771777
126	442602	65	0.028088751841
126	449624	66	0.027941094695
126	456523	67	0.028088717951
126	463422	68	0.028088703597
126	470321	69	0.028088690756
126	477220	70	0.028088679257
126	484213	71	0.028204869699
126	491102	72	0.02808865978
126	497991	73	0.028088651572
126	504880	74	0.028088644226
126	511933	75	0.02798431813
126	518812	76	0.028088631823
126	525691	77	0.028088626604
126	532570	78	0.028088621948
126	539449	79	0.028101617801
126	546425	80	0.028225614093
126	553294	81	0.028101610802
126	560163	82	0.028088607862
126	567032	83	0.028088605246
126	574850	84	0.029128193019
126	581709	85	0.028088569346
126	588568	86	0.028088634762
126	595427	87	0.028088715329
126	602286	88	0.028088803173
126	609145	89	0.028088896813
126	616004	90	0.028088993754
126	622863	91	0.028089153594
126	629722	92	0.028102382403
126	636581	93	0.028089632015
126	643440	94	0.028089852214
126	650299	95	0.02808997112
126	657158	96	0.028089998316
126	664017	97	0.028089998042
126	670876	98	0.02808999002
126	677735	99	0.028089977064
126	684594	100	0.028089964239
127	6013	2	0
127	12872	3	0
127	19731	4	0
127	26590	5	0
127	33449	6	0
127	40308	7	0
127	47167	8	0
127	54026	9	0
127	60886	10	0
127	67899	11	0
127	74838	12	0
127	81777	13	0
127	88716	14	0
127	95655	15	0
127	102594	16	0
127	109533	17	0
127	116472	18	0
127	123411	19	0
127	130350	20	0
127	137289	21	0
127	144228	22	0
127	151167	23	0
127	158106	24	0
127	165045	25	0
127	171984	26	0
127	178923	27	0
127	185862	28	0
127	192801	29	0
127	199740	30	0
127	206679	31	0
127	213618	32	0
127	220557	33	0
127	227496	34	0
127	234435	35	0
127	241374	36	0
127	248313	37	0
127	255252	38	0
127	262191	39	0
127	269130	40	0
127	276069	41	0
127	283008	42	0
127	289947	43	0
127	296886	44	0
127	303825	45	0
127	310764	46	0
127	317703	47	0
127	324745	48	0
127	331674	49	0
127	338603	50	0
127	345532	51	0
127	352461	52	0
127	359390	53	0
127	366319	54	0
127	373359	55	0
127	380278	56	0
127	387197	57	0
127	394116	58	0
127	401035	59	0
127	408057	60	0
127	414966	61	0
127	421875	62	0
127	428784	63	0
127	435693	64	0
127	442602	65	0
127	449624	66	0
127	456523	67	0
127	463422	68	0
127	470321	69	0
127	477220	70	0
127	484213	71	0
127	491102	72	0
127	497991	73	0
127	504880	74	0
127	511933	75	0
127	518812	76	0
127	525691	77	0
127	532570	78	0
127	539449	79	0
127	546425	80	0
127	553294	81	0
127	560163	82	0
127	567032	83	0
127	574850	84	0
127	581709	85	0
127	588568	86	0
127	595427	87	0
127	602286	88	0
127	609145	89	0
127	616004	90	0
127	622863	91	0
127	629722	92	0
127	636581	93	0
127	643440	94	0
127	650299	95	0
127	657158	96	0
127	664017	97	0
127	670876	98	0
127	677735	99	0
127	684594	100	0
128	6014	2	8
128	12873	3	8
128	19732	4	8
128	26591	5	8
128	33450	6	8
128	40309	7	8
128	47168	8	8
128	54027	9	8
128	60887	10	8
128	67900	11	8
128	74839	12	8
128	81778	13	8
128	88717	14	8
128	95656	15	8
128	102595	16	8
128	109534	17	8
128	116473	18	8
128	123412	19	8
128	130351	20	8
128	137290	21	8
128	144229	22	8
128	151168	23	8
128	158107	24	8
128	165046	25	8
128	171985	26	8
128	178924	27	8
128	185863	28	8
128	192802	29	8
128	199741	30	8
128	206680	31	8
128	213619	32	8
128	220558	33	8
128	227497	34	8
128	234436	35	8
128	241375	36	8
128	248314	37	8
128	255253	38	8
128	262192	39	8
128	269131	40	8
128	276070	41	8
128	283009	42	8
128	289948	43	8
128	296887	44	8
128	303826	45	8
128	310765	46	8
128	317704	47	8
128	324746	48	8
128	331675	49	8
128	338604	50	8
128	345533	51	8
128	352462	52	8
128	359391	53	8
128	366320	54	8
128	373360	55	8
128	380279	56	8
128	387198	57	8
128	394117	58	8
128	401036	59	8
128	408058	60	8
128	414967	61	8
128	421876	62	8
128	428785	63	8
128	435694	64	8
128	442603	65	8
128	449625	66	8
128	456524	67	8
128	463423	68	8
128	470322	69	8
128	477221	70	8
128	484214	71	8
128	491103	72	8
128	497992	73	8
128	504881	74	8
128	511934	75	8
128	518813	76	8
128	525692	77	8
128	532571	78	8
128	539450	79	8
128	546426	80	8
128	553295	81	8
128	560164	82	8
128	567033	83	8
128	574851	84	8
128	581710	85	8
128	588569	86	8
128	595428	87	8
128	602287	88	8
128	609146	89	8
128	616005	90	8
128	622864	91	8
128	629723	92	8
128	636582	93	8
128	643441	94	8
128	650300	95	8
128	657159	96	8
128	664018	97	8
128	670877	98	8
128	677736	99	8
128	684595	100	8
129	6014	2	0.024273116613
129	12873	3	0.028092396085
129	19732	4	0.028092396079
129	26591	5	0.028079396075
129	33450	6	0.028092396063
129	40309	7	0.02809239606
129	47168	8	0.02809239606
129	54027	9	0.02809239606
129	60887	10	0.02807939606
129	67900	11	0.028137350025
129	74839	12	0.028092311949
129	81778	13	0.028092100011
129	88717	14	0.028091756555
129	95656	15	0.028091300749
129	102595	16	0.028090754004
129	109534	17	0.028090136925
129	116473	18	0.028089468377
129	123412	19	0.028088765158
129	130351	20	0.028088041858
129	137290	21	0.028087310866
129	144229	22	0.028099582524
129	151168	23	0.028085865227
129	158107	24	0.02808516569
129	165046	25	0.02809748911
129	171985	26	0.028083839368
129	178924	27	0.028096219233
129	185863	28	0.028082630546
129	192802	29	0.028095074355
129	199741	30	0.028094551085
129	206680	31	0.028081060617
129	213619	32	0.028093602461
129	220558	33	0.028093175792
129	227497	34	0.028079779522
129	234436	35	0.028092412435
129	241375	36	0.028092073155
129	248314	37	0.028091760237
129	255253	38	0.028091472201
129	262192	39	0.028091207536
129	269131	40	0.028090964766
129	276070	41	0.028090742423
129	283009	42	0.028090539087
129	289948	43	0.02809035339
129	296887	44	0.028090184013
129	303826	45	0.02809002972
129	310765	46	0.028089889313
129	317704	47	0.0280897617
129	324746	48	0.028193486374
129	331675	49	0.028089540708
129	338604	50	0.028089445444
129	345533	51	0.028089359185
129	352462	52	0.028089281143
129	359391	53	0.028102210599
129	366320	54	0.028089146887
129	373360	55	0.027928770067
129	380279	56	0.028089037503
129	387198	57	0.02808899075
129	394117	58	0.028101948635
129	401036	59	0.028088910732
129	408058	60	0.028192397361
129	414967	61	0.028088845978
129	421876	62	0.028101818436
129	428785	63	0.028088793696
129	435694	64	0.028088771498
129	442603	65	0.028088751588
129	449625	66	0.027941094464
129	456524	67	0.02808871774
129	463423	68	0.028088703406
129	470322	69	0.028088690583
129	477221	70	0.028088679099
129	484214	71	0.028204869556
129	491103	72	0.02808865965
129	497992	73	0.028088651456
129	504881	74	0.02808864412
129	511934	75	0.027984318034
129	518813	76	0.028088631736
129	525692	77	0.028088626526
129	532571	78	0.028088621878
129	539450	79	0.028101617737
129	546426	80	0.028191494692
129	553295	81	0.02810161075
129	560164	82	0.028088607815
129	567033	83	0.028088605205
129	574851	84	0.029162472141
129	581710	85	0.028088571066
129	588569	86	0.028088639673
129	595428	87	0.028088720959
129	602287	88	0.02808880854
129	609146	89	0.028088901513
129	616005	90	0.028089000047
129	622864	91	0.02808916417
129	629723	92	0.02810239554
129	636582	93	0.028089645656
129	643441	94	0.028089865705
129	650300	95	0.028089984481
129	657159	96	0.028090011646
129	664018	97	0.028090011376
129	670877	98	0.028090003362
129	677736	99	0.028089990406
129	684595	100	0.028089977752
130	6014	2	0
130	12873	3	0
130	19732	4	0
130	26591	5	0
130	33450	6	0
130	40309	7	0
130	47168	8	0
130	54027	9	0
130	60887	10	0
130	67900	11	0
130	74839	12	0
130	81778	13	0
130	88717	14	0
130	95656	15	0
130	102595	16	0
130	109534	17	0
130	116473	18	0
130	123412	19	0
130	130351	20	0
130	137290	21	0
130	144229	22	0
130	151168	23	0
130	158107	24	0
130	165046	25	0
130	171985	26	0
130	178924	27	0
130	185863	28	0
130	192802	29	0
130	199741	30	0
130	206680	31	0
130	213619	32	0
130	220558	33	0
130	227497	34	0
130	234436	35	0
130	241375	36	0
130	248314	37	0
130	255253	38	0
130	262192	39	0
130	269131	40	0
130	276070	41	0
130	283009	42	0
130	289948	43	0
130	296887	44	0
130	303826	45	0
130	310765	46	0
130	317704	47	0
130	324746	48	0
130	331675	49	0
130	338604	50	0
130	345533	51	0
130	352462	52	0
130	359391	53	0
130	366320	54	0
130	373360	55	0
130	380279	56	0
130	387198	57	0
130	394117	58	0
130	401036	59	0
130	408058	60	0
130	414967	61	0
130	421876	62	0
130	428785	63	0
130	435694	64	0
130	442603	65	0
130	449625	66	0
130	456524	67	0
130	463423	68	0
130	470322	69	0
130	477221	70	0
130	484214	71	0
130	491103	72	0
130	497992	73	0
130	504881	74	0
130	511934	75	0
130	518813	76	0
130	525692	77	0
130	532571	78	0
130	539450	79	0
130	546426	80	0
130	553295	81	0
130	560164	82	0
130	567033	83	0
130	574851	84	0
130	581710	85	0
130	588569	86	0
130	595428	87	0
130	602287	88	0
130	609146	89	0
130	616005	90	0
130	622864	91	0
130	629723	92	0
130	636582	93	0
130	643441	94	0
130	650300	95	0
130	657159	96	0
130	664018	97	0
130	670877	98	0
130	677736	99	0
130	684595	100	0

