version 3
run BreakRanksNoGui-577-20240711-14:14:49-290410
attr configname BreakRanksNoGui
attr datetime 20240711-14:14:49
attr datetimef 20240711-141449
attr experiment BreakRanksNoGui
attr inifile omnetpp.ini
attr iterationvars "$nCars=9, $platoonSize=8, $nLanes=1, $ploegH=0.5, $controller=1, $headway=0.1, $leaderHeadway=1.2, $leaderSpeed=130, $breakRanksSafetyDistance=3, $minSpeed=120, $maxSpeed=140, $beaconInterval=0.1, $priority=4, $packetSize=200, $sController=\"CACC\", $0=2, $1=0"
attr iterationvarsd nCars=9/platoonSize=8/nLanes=1/ploegH=0.5/controller=1/headway=0.1/leaderHeadway=1.2/leaderSpeed=130/breakRanksSafetyDistance=3/minSpeed=120/maxSpeed=140/beaconInterval=0.1/priority=4/packetSize=200/sController=CACC/2/0
attr iterationvarsf nCars=9,platoonSize=8,nLanes=1,ploegH=0.5,controller=1,headway=0.1,leaderHeadway=1.2,leaderSpeed=130,breakRanksSafetyDistance=3,minSpeed=120,maxSpeed=140,beaconInterval=0.1,priority=4,packetSize=200,sController=CACC,2,0-
attr measurement "$nCars=9, $platoonSize=8, $nLanes=1, $ploegH=0.5, $controller=1, $headway=0.1, $leaderHeadway=1.2, $leaderSpeed=130, $breakRanksSafetyDistance=3, $minSpeed=120, $maxSpeed=140, $beaconInterval=0.1, $priority=4, $packetSize=200, $sController=\"CACC\", $0=2, $1=0"
attr network Highway
attr processid 290410
attr repetition 7
attr replication #7
attr resultdir results
attr runnumber 577
attr seedset 7
itervar beaconInterval 0.1
itervar breakRanksSafetyDistance 3
itervar controller 1
itervar headway 0.1
itervar leaderHeadway 1.2
itervar leaderSpeed 130
itervar maxSpeed 140
itervar minSpeed 120
itervar nCars 9
itervar nLanes 1
itervar packetSize 200
itervar platoonSize 8
itervar ploegH 0.5
itervar priority 4
itervar sController "\"CACC\""
config image-path ../../../veins/images
config repeat 10
config extends BreakRanks
config *.manager.command "\"sumo\""
config *.manager.ignoreGuiCommands true
config output-vector-file "results/BreakRanks_1_0.1_130_3_8 /result_7.vec"
config output-scalar-file "results/BreakRanks_1_0.1_130_3_8 /result_7.sca"
config extends Platooning
config *.node[*].scenario_type "\"BreakRanksScenario\""
config *.manager.command "\"sumo-gui\""
config *.node[*].scenario_type "\"SimpleScenario\""
config cmdenv-express-mode true
config cmdenv-autoflush true
config cmdenv-status-frequency 15s
config num-rngs 6
config network Highway
config debug-on-errors true
config print-undisposed true
config *.playgroundSizeX 65000m
config *.playgroundSizeY 25000m
config *.playgroundSizeZ 50m
config sim-time-limit "100 s"
config *.annotations.draw false
config *.obstacles.debug false
config *.world.useTorus false
config *.world.use2D false
config *.manager.updateInterval 0.01s
config *.manager.host "\"localhost\""
config *.manager.moduleType "\"org.car2x.plexe.PlatoonCar\""
config *.manager.moduleName "\"node\""
config *.manager.moduleDisplayString "\"\""
config *.manager.autoShutdown true
config *.manager.margin 25
config *.connectionManager.sendDirect true
config *.connectionManager.maxInterfDist 2600m
config *.connectionManager.drawMaxIntfDist false
config *.**.nic.mac1609_4.useServiceChannel false
config *.**.nic.mac1609_4.txPower 100mW
config *.**.nic.mac1609_4.bitrate 6Mbps
config *.**.nic.mac1609_4.useAcks true
config *.**.nic.mac1609_4.ackErrorRate 0.0
config *.**.nic.mac1609_4.frameErrorRate 0.0
config *.**.nic.phy80211p.minPowerLevel -94dBm
config *.**.nic.phy80211p.maxTXPower 100mW
config *.**.nic.phy80211p.useNoiseFloor true
config *.**.nic.phy80211p.noiseFloor -95dBm
config *.**.nic.phy80211p.decider "xmldoc(\"config.xml\")"
config *.**.nic.phy80211p.analogueModels "xmldoc(\"config.xml\")"
config *.**.nic.phy80211p.usePropagationDelay true
config *.node[*].mobility.x 0
config *.node[*].mobility.y 0
config *.node[*].mobility.z 1.895
config seed-set 7
config **.seed 7
config *.node[*].prot.rng-0 2
config *.node[*].appl.rng-0 3
config *.node[*].scenario.rng-0 4
config **.traffic.rng-0 5
config *.manager.configFile "\"./sumocfg/freeway.sumo.cfg\""
config *.manager.launchConfig "xmldoc(\"./sumocfg/freeway.launchd.xml\")"
config **.numberOfCars 9
config **.numberOfCarsPerPlatoon 8
config **.numberOfLanes 1
config *.node[*].helper_type "\"PositionHelper\""
config *.node[*].scenario.caccC1 0.5
config *.node[*].scenario.caccXi 1
config *.node[*].scenario.caccOmegaN "0.2 Hz"
config *.node[*].scenario.caccSpacing "2 m"
config *.node[*].scenario.engineTau "0.5 s"
config *.node[*].scenario.ploegH 0.5s
config *.node[*].scenario.ploegKp 0.2
config *.node[*].scenario.ploegKd 0.7
config *.node[*].scenario.useRealisticEngine false
config *.node[*].scenario.useControllerAcceleration true
config *.node[*].scenario.nLanes 1
config **.numericController 1
config **.headway 0.1s
config *.node[*].scenario.accHeadway 0.1s
config *.node[*].scenario.leaderHeadway 1.2s
config *.node[*].scenario.leaderSpeed 130kmph
config *.node[*].appl_type "\"SimplePlatooningApp\""
config *.node[*].appl.*.scalar-recording true
config *.node[*].appl.*.vector-recording true
config *.node[0].appl.breakRanksSafetyDistance 3m
config *.node[*].appl.minSpeed 120kmph
config *.node[*].appl.maxSpeed 140kmph
config *.node[*].protocol_type "\"SimplePlatooningBeaconing\""
config *.node[*].prot.*.scalar-recording true
config *.node[*].prot.*.vector-recording true
config *.node[*].prot.beaconingInterval 0.1s
config *.node[*].prot.priority 4
config *.node[*].prot.packetSize 200
config **.traffic_type "\"PlatoonsTrafficManager\""
config **.traffic.platoonInsertTime "1 s"
config **.traffic.platoonInsertSpeed 130kmph
config **.traffic.nCars 9
config **.traffic.platoonSize 8
config **.traffic.nLanes 1
config **.traffic.platooningVType "\"vtypeauto\""
config **.traffic.controller "\"CACC\""
config **.traffic.platoonInsertDistance 2m
config **.traffic.platoonInsertHeadway 0s
config **.traffic.platoonLeaderHeadway 1.2s
config **.scalar-recording false
config **.vector-recording false

vector 0 Highway.node[0].appl distance ETV
vector 1 Highway.node[0].appl relativeSpeed ETV
vector 2 Highway.node[0].appl nodeId ETV
vector 3 Highway.node[0].appl acceleration ETV
vector 4 Highway.node[0].appl controllerAcceleration ETV
vector 5 Highway.node[0].appl speed ETV
vector 6 Highway.node[0].appl posx ETV
vector 7 Highway.node[0].appl posy ETV
vector 8 Highway.node[1].appl distance ETV
vector 9 Highway.node[1].appl relativeSpeed ETV
vector 10 Highway.node[1].appl nodeId ETV
vector 11 Highway.node[1].appl acceleration ETV
vector 12 Highway.node[1].appl controllerAcceleration ETV
vector 13 Highway.node[1].appl speed ETV
vector 14 Highway.node[1].appl posx ETV
vector 15 Highway.node[1].appl posy ETV
vector 16 Highway.node[2].appl distance ETV
vector 17 Highway.node[2].appl relativeSpeed ETV
vector 18 Highway.node[2].appl nodeId ETV
vector 19 Highway.node[2].appl acceleration ETV
vector 20 Highway.node[2].appl controllerAcceleration ETV
vector 21 Highway.node[2].appl speed ETV
vector 22 Highway.node[2].appl posx ETV
vector 23 Highway.node[2].appl posy ETV
vector 24 Highway.node[3].appl distance ETV
vector 25 Highway.node[3].appl relativeSpeed ETV
vector 26 Highway.node[3].appl nodeId ETV
vector 27 Highway.node[3].appl acceleration ETV
vector 28 Highway.node[3].appl controllerAcceleration ETV
vector 29 Highway.node[3].appl speed ETV
vector 30 Highway.node[3].appl posx ETV
vector 31 Highway.node[3].appl posy ETV
vector 32 Highway.node[4].appl distance ETV
vector 33 Highway.node[4].appl relativeSpeed ETV
vector 34 Highway.node[4].appl nodeId ETV
vector 35 Highway.node[4].appl acceleration ETV
vector 36 Highway.node[4].appl controllerAcceleration ETV
vector 37 Highway.node[4].appl speed ETV
vector 38 Highway.node[4].appl posx ETV
vector 39 Highway.node[4].appl posy ETV
vector 40 Highway.node[5].appl distance ETV
vector 41 Highway.node[5].appl relativeSpeed ETV
vector 42 Highway.node[5].appl nodeId ETV
vector 43 Highway.node[5].appl acceleration ETV
vector 44 Highway.node[5].appl controllerAcceleration ETV
vector 45 Highway.node[5].appl speed ETV
vector 46 Highway.node[5].appl posx ETV
vector 47 Highway.node[5].appl posy ETV
vector 48 Highway.node[6].appl distance ETV
vector 49 Highway.node[6].appl relativeSpeed ETV
vector 50 Highway.node[6].appl nodeId ETV
vector 51 Highway.node[6].appl acceleration ETV
vector 52 Highway.node[6].appl controllerAcceleration ETV
vector 53 Highway.node[6].appl speed ETV
vector 54 Highway.node[6].appl posx ETV
vector 55 Highway.node[6].appl posy ETV
vector 56 Highway.node[7].appl distance ETV
vector 57 Highway.node[7].appl relativeSpeed ETV
vector 58 Highway.node[7].appl nodeId ETV
vector 59 Highway.node[7].appl acceleration ETV
vector 60 Highway.node[7].appl controllerAcceleration ETV
vector 61 Highway.node[7].appl speed ETV
vector 62 Highway.node[7].appl posx ETV
vector 63 Highway.node[7].appl posy ETV
vector 64 Highway.node[8].appl distance ETV
vector 65 Highway.node[8].appl relativeSpeed ETV
vector 66 Highway.node[8].appl nodeId ETV
vector 67 Highway.node[8].appl acceleration ETV
vector 68 Highway.node[8].appl controllerAcceleration ETV
vector 69 Highway.node[8].appl speed ETV
vector 70 Highway.node[8].appl posx ETV
vector 71 Highway.node[8].appl posy ETV
vector 72 Highway.node[4].prot frontDelay ETV
vector 73 Highway.node[4].prot frontDelayId ETV
vector 74 Highway.node[3].prot frontDelay ETV
vector 75 Highway.node[3].prot frontDelayId ETV
vector 76 Highway.node[7].prot frontDelay ETV
vector 77 Highway.node[7].prot frontDelayId ETV
vector 78 Highway.node[2].prot frontDelay ETV
vector 79 Highway.node[2].prot frontDelayId ETV
vector 80 Highway.node[6].prot frontDelay ETV
vector 81 Highway.node[6].prot frontDelayId ETV
vector 82 Highway.node[5].prot frontDelay ETV
vector 83 Highway.node[5].prot frontDelayId ETV
vector 84 Highway.node[1].prot leaderDelay ETV
vector 85 Highway.node[1].prot leaderDelayId ETV
vector 86 Highway.node[1].prot frontDelay ETV
vector 87 Highway.node[1].prot frontDelayId ETV
vector 88 Highway.node[2].prot leaderDelay ETV
vector 89 Highway.node[2].prot leaderDelayId ETV
vector 90 Highway.node[3].prot leaderDelay ETV
vector 91 Highway.node[3].prot leaderDelayId ETV
vector 92 Highway.node[4].prot leaderDelay ETV
vector 93 Highway.node[4].prot leaderDelayId ETV
vector 94 Highway.node[5].prot leaderDelay ETV
vector 95 Highway.node[5].prot leaderDelayId ETV
vector 96 Highway.node[6].prot leaderDelay ETV
vector 97 Highway.node[6].prot leaderDelayId ETV
vector 98 Highway.node[7].prot leaderDelay ETV
vector 99 Highway.node[7].prot leaderDelayId ETV
vector 100 Highway.node[0].prot nodeId ETV
vector 101 Highway.node[0].prot busyTime ETV
vector 102 Highway.node[0].prot collisions ETV
vector 103 Highway.node[1].prot nodeId ETV
vector 104 Highway.node[1].prot busyTime ETV
vector 105 Highway.node[1].prot collisions ETV
vector 106 Highway.node[2].prot nodeId ETV
vector 107 Highway.node[2].prot busyTime ETV
vector 108 Highway.node[2].prot collisions ETV
vector 109 Highway.node[3].prot nodeId ETV
vector 110 Highway.node[3].prot busyTime ETV
vector 111 Highway.node[3].prot collisions ETV
vector 112 Highway.node[4].prot nodeId ETV
vector 113 Highway.node[4].prot busyTime ETV
vector 114 Highway.node[4].prot collisions ETV
vector 115 Highway.node[5].prot nodeId ETV
vector 116 Highway.node[5].prot busyTime ETV
vector 117 Highway.node[5].prot collisions ETV
vector 118 Highway.node[6].prot nodeId ETV
vector 119 Highway.node[6].prot busyTime ETV
vector 120 Highway.node[6].prot collisions ETV
vector 121 Highway.node[7].prot nodeId ETV
vector 122 Highway.node[7].prot busyTime ETV
vector 123 Highway.node[7].prot collisions ETV
vector 124 Highway.node[8].prot nodeId ETV
vector 125 Highway.node[8].prot busyTime ETV
vector 126 Highway.node[8].prot collisions ETV
0	113	1.11	9305.17
0	670	1.21	9305.17
0	1227	1.31	9305.17
0	1784	1.41	9305.17
0	2341	1.51	9305.17
0	2898	1.61	9305.17
0	3455	1.71	9305.17
0	4012	1.81	9305.17
0	4569	1.91	9305.17
0	5135	2.01	9305.17
0	5692	2.11	9305.17
0	6249	2.21	-1
0	6806	2.31	-1
0	7363	2.41	-1
0	7920	2.51	-1
0	8477	2.61	-1
0	9034	2.71	-1
0	9591	2.81	-1
0	10148	2.91	-1
0	10714	3.01	-1
0	11271	3.11	-1
0	11828	3.21	-1
0	12385	3.31	-1
0	12942	3.41	-1
0	13499	3.51	-1
0	14056	3.61	-1
0	14613	3.71	-1
0	15170	3.81	-1
0	15727	3.91	-1
0	16293	4.01	-1
0	16850	4.11	-1
0	17407	4.21	-1
0	17964	4.31	-1
0	18521	4.41	-1
0	19078	4.51	-1
0	19635	4.61	-1
0	20192	4.71	-1
0	20749	4.81	-1
0	21306	4.91	-1
0	21872	5.01	-1
0	22429	5.11	-1
0	22986	5.21	-1
0	23543	5.31	-1
0	24100	5.41	-1
0	24657	5.51	-1
0	25214	5.61	-1
0	25771	5.71	-1
0	26328	5.81	-1
0	26885	5.91	-1
0	27451	6.01	-1
0	28008	6.11	-1
0	28565	6.21	-1
0	29122	6.31	-1
0	29679	6.41	-1
0	30236	6.51	-1
0	30793	6.61	-1
0	31350	6.71	-1
0	31907	6.81	-1
0	32464	6.91	-1
0	33030	7.01	-1
0	33587	7.11	-1
0	34144	7.21	-1
0	34701	7.31	-1
0	35258	7.41	-1
0	35815	7.51	-1
0	36372	7.61	-1
0	36929	7.71	-1
0	37486	7.81	-1
0	38043	7.91	-1
0	38609	8.01	-1
0	39166	8.11	-1
0	39723	8.21	-1
0	40280	8.31	-1
0	40837	8.41	-1
0	41394	8.51	-1
0	41951	8.61	-1
0	42508	8.71	-1
0	43065	8.81	-1
0	43622	8.91	-1
0	44188	9.01	-1
0	44745	9.11	-1
0	45302	9.21	-1
0	45859	9.31	-1
0	46416	9.41	-1
0	46973	9.51	-1
0	47530	9.61	-1
0	48087	9.71	-1
0	48644	9.81	-1
0	49201	9.91	-1
0	49852	10.01	-1
0	50416	10.11	-1
0	50980	10.21	-1
0	51544	10.31	-1
0	52108	10.41	-1
0	52672	10.51	-1
0	53236	10.61	-1
0	53800	10.71	-1
0	54364	10.81	-1
0	54928	10.91	-1
0	55501	11.01	-1
0	56065	11.11	-1
0	56629	11.21	-1
0	57193	11.31	-1
0	57757	11.41	-1
0	58321	11.51	-1
0	58885	11.61	-1
0	59449	11.71	-1
0	60013	11.81	-1
0	60577	11.91	-1
0	61150	12.01	-1
0	61714	12.11	-1
0	62278	12.21	-1
0	62842	12.31	-1
0	63406	12.41	-1
0	63970	12.51	-1
0	64534	12.61	-1
0	65098	12.71	-1
0	65662	12.81	-1
0	66226	12.91	-1
0	66799	13.01	-1
0	67363	13.11	-1
0	67927	13.21	-1
0	68491	13.31	-1
0	69055	13.41	-1
0	69619	13.51	-1
0	70183	13.61	-1
0	70747	13.71	-1
0	71311	13.81	-1
0	71875	13.91	-1
0	72448	14.01	-1
0	73012	14.11	-1
0	73576	14.21	-1
0	74140	14.31	-1
0	74704	14.41	-1
0	75268	14.51	-1
0	75832	14.61	-1
0	76396	14.71	-1
0	76960	14.81	-1
0	77524	14.91	-1
0	78097	15.01	-1
0	78661	15.11	-1
0	79225	15.21	-1
0	79789	15.31	-1
0	80353	15.41	-1
0	80917	15.51	-1
0	81481	15.61	-1
0	82045	15.71	-1
0	82609	15.81	-1
0	83173	15.91	-1
0	83746	16.01	-1
0	84310	16.11	-1
0	84874	16.21	-1
0	85438	16.31	-1
0	86002	16.41	-1
0	86566	16.51	-1
0	87130	16.61	-1
0	87694	16.71	-1
0	88258	16.81	-1
0	88822	16.91	-1
0	89395	17.01	-1
0	89959	17.11	-1
0	90523	17.21	-1
0	91087	17.31	-1
0	91651	17.41	-1
0	92215	17.51	-1
0	92779	17.61	-1
0	93343	17.71	-1
0	93907	17.81	-1
0	94471	17.91	-1
0	95044	18.01	-1
0	95608	18.11	-1
0	96172	18.21	-1
0	96736	18.31	-1
0	97300	18.41	-1
0	97864	18.51	-1
0	98428	18.61	-1
0	98992	18.71	-1
0	99556	18.81	-1
0	100120	18.91	-1
0	100693	19.01	-1
0	101257	19.11	-1
0	101821	19.21	-1
0	102385	19.31	-1
0	102949	19.41	-1
0	103513	19.51	-1
0	104077	19.61	-1
0	104641	19.71	-1
0	105205	19.81	-1
0	105769	19.91	-1
0	106342	20.01	-1
0	106906	20.11	-1
0	107470	20.21	-1
0	108034	20.31	-1
0	108598	20.41	-1
0	109162	20.51	-1
0	109726	20.61	-1
0	110290	20.71	-1
0	110854	20.81	-1
0	111418	20.91	-1
0	111991	21.01	-1
0	112555	21.11	-1
0	113119	21.21	-1
0	113683	21.31	-1
0	114247	21.41	-1
0	114811	21.51	-1
0	115375	21.61	-1
0	115939	21.71	-1
0	116503	21.81	-1
0	117067	21.91	-1
0	117640	22.01	-1
0	118204	22.11	-1
0	118768	22.21	-1
0	119332	22.31	-1
0	119896	22.41	-1
0	120460	22.51	-1
0	121024	22.61	-1
0	121588	22.71	-1
0	122152	22.81	-1
0	122716	22.91	-1
0	123289	23.01	-1
0	123853	23.11	-1
0	124417	23.21	-1
0	124981	23.31	-1
0	125545	23.41	-1
0	126109	23.51	-1
0	126673	23.61	-1
0	127237	23.71	-1
0	127801	23.81	-1
0	128365	23.91	-1
0	128938	24.01	-1
0	129502	24.11	-1
0	130066	24.21	-1
0	130630	24.31	-1
0	131194	24.41	-1
0	131758	24.51	-1
0	132322	24.61	-1
0	132886	24.71	-1
0	133450	24.81	-1
0	134014	24.91	-1
0	134587	25.01	-1
0	135151	25.11	-1
0	135715	25.21	-1
0	136279	25.31	-1
0	136843	25.41	-1
0	137407	25.51	-1
0	137971	25.61	-1
0	138535	25.71	-1
0	139099	25.81	-1
0	139663	25.91	-1
0	140236	26.01	-1
0	140800	26.11	-1
0	141364	26.21	-1
0	141928	26.31	-1
0	142492	26.41	-1
0	143056	26.51	-1
0	143620	26.61	-1
0	144184	26.71	-1
0	144748	26.81	-1
0	145312	26.91	-1
0	145885	27.01	-1
0	146449	27.11	-1
0	147013	27.21	-1
0	147577	27.31	-1
0	148141	27.41	-1
0	148705	27.51	-1
0	149269	27.61	-1
0	149833	27.71	-1
0	150397	27.81	-1
0	150961	27.91	-1
0	151534	28.01	-1
0	152098	28.11	-1
0	152662	28.21	-1
0	153226	28.31	-1
0	153790	28.41	-1
0	154354	28.51	-1
0	154918	28.61	-1
0	155482	28.71	-1
0	156046	28.81	-1
0	156610	28.91	-1
0	157183	29.01	-1
0	157747	29.11	-1
0	158311	29.21	-1
0	158968	29.31	-1
0	159531	29.41	-1
0	160094	29.51	-1
0	160657	29.61	-1
0	161220	29.71	-1
0	161783	29.81	-1
0	162346	29.91	-1
0	162918	30.01	-1
0	163481	30.11	-1
0	164044	30.21	-1
0	164607	30.31	-1
0	165170	30.41	-1
0	165733	30.51	-1
0	166296	30.61	-1
0	166859	30.71	-1
0	167422	30.81	-1
0	167985	30.91	-1
0	168557	31.01	-1
0	169120	31.11	-1
0	169683	31.21	-1
0	170246	31.31	-1
0	170809	31.41	-1
0	171372	31.51	-1
0	171935	31.61	-1
0	172498	31.71	-1
0	173061	31.81	-1
0	173624	31.91	-1
0	174196	32.01	-1
0	174759	32.11	-1
0	175322	32.21	-1
0	175885	32.31	-1
0	176448	32.41	-1
0	177011	32.51	-1
0	177574	32.61	-1
0	178137	32.71	-1
0	178700	32.81	-1
0	179263	32.91	-1
0	179835	33.01	-1
0	180398	33.11	-1
0	180961	33.21	-1
0	181524	33.31	-1
0	182087	33.41	-1
0	182743	33.51	-1
0	183305	33.61	-1
0	183867	33.71	-1
0	184429	33.81	-1
0	184991	33.91	-1
0	185562	34.01	-1
0	186124	34.11	-1
0	186686	34.21	-1
0	187248	34.31	-1
0	187810	34.41	-1
0	188372	34.51	-1
0	188934	34.61	-1
0	189496	34.71	-1
0	190058	34.81	-1
0	190620	34.91	-1
0	191191	35.01	-1
0	191753	35.11	-1
0	192315	35.21	-1
0	192877	35.31	-1
0	193439	35.41	-1
0	194001	35.51	-1
0	194563	35.61	-1
0	195125	35.71	-1
0	195687	35.81	-1
0	196249	35.91	-1
0	196820	36.01	-1
0	197382	36.11	-1
0	197944	36.21	-1
0	198506	36.31	-1
0	199068	36.41	-1
0	199630	36.51	-1
0	200192	36.61	-1
0	200754	36.71	-1
0	201316	36.81	-1
0	201878	36.91	-1
0	202449	37.01	-1
0	203011	37.11	-1
0	203573	37.21	-1
0	204135	37.31	-1
0	204697	37.41	-1
0	205352	37.51	-1
0	205913	37.61	-1
0	206474	37.71	-1
0	207035	37.81	-1
0	207596	37.91	-1
0	208166	38.01	-1
0	208727	38.11	-1
0	209288	38.21	-1
0	209849	38.31	-1
0	210410	38.41	-1
0	210971	38.51	-1
0	211532	38.61	-1
0	212093	38.71	-1
0	212654	38.81	-1
0	213215	38.91	-1
0	213785	39.01	-1
0	214346	39.11	-1
0	214907	39.21	-1
0	215468	39.31	-1
0	216029	39.41	-1
0	216590	39.51	-1
0	217151	39.61	-1
0	217712	39.71	-1
0	218273	39.81	-1
0	218834	39.91	-1
0	219404	40.01	-1
0	219965	40.11	-1
0	220526	40.21	-1
0	221087	40.31	-1
0	221648	40.41	-1
0	222209	40.51	-1
0	222770	40.61	-1
0	223331	40.71	-1
0	223892	40.81	-1
0	224453	40.91	-1
0	225023	41.01	-1
0	225584	41.11	-1
0	226145	41.21	-1
0	226799	41.31	-1
0	227359	41.41	-1
0	227919	41.51	-1
0	228479	41.61	-1
0	229039	41.71	-1
0	229599	41.81	-1
0	230159	41.91	-1
0	230728	42.01	-1
0	231288	42.11	-1
0	231848	42.21	-1
0	232408	42.31	-1
0	232968	42.41	-1
0	233528	42.51	-1
0	234088	42.61	-1
0	234648	42.71	-1
0	235208	42.81	-1
0	235768	42.91	-1
0	236337	43.01	-1
0	236897	43.11	-1
0	237457	43.21	-1
0	238017	43.31	-1
0	238577	43.41	-1
0	239137	43.51	-1
0	239697	43.61	-1
0	240257	43.71	-1
0	240817	43.81	-1
0	241377	43.91	-1
0	241946	44.01	-1
0	242506	44.11	-1
0	243066	44.21	-1
0	243626	44.31	-1
0	244186	44.41	-1
0	244746	44.51	-1
0	245306	44.61	-1
0	245866	44.71	-1
0	246426	44.81	-1
0	246986	44.91	-1
0	247648	45.01	-1
0	248207	45.11	-1
0	248766	45.21	-1
0	249325	45.31	-1
0	249884	45.41	-1
0	250443	45.51	-1
0	251002	45.61	-1
0	251561	45.71	-1
0	252120	45.81	-1
0	252679	45.91	-1
0	253247	46.01	-1
0	253806	46.11	-1
0	254365	46.21	-1
0	254924	46.31	-1
0	255483	46.41	-1
0	256042	46.51	-1
0	256601	46.61	-1
0	257160	46.71	-1
0	257719	46.81	-1
0	258278	46.91	-1
0	258846	47.01	-1
0	259405	47.11	-1
0	259964	47.21	-1
0	260523	47.31	-1
0	261082	47.41	-1
0	261641	47.51	-1
0	262200	47.61	-1
0	262759	47.71	-1
0	263318	47.81	-1
0	263877	47.91	-1
0	264445	48.01	-1
0	265004	48.11	-1
0	265563	48.21	-1
0	266122	48.31	-1
0	266681	48.41	-1
0	267240	48.51	-1
0	267892	48.61	-1
0	268450	48.71	-1
0	269008	48.81	-1
0	269566	48.91	-1
0	270133	49.01	-1
0	270691	49.11	-1
0	271249	49.21	-1
0	271807	49.31	-1
0	272365	49.41	-1
0	272923	49.51	-1
0	273481	49.61	-1
0	274039	49.71	-1
0	274597	49.81	-1
0	275155	49.91	-1
0	275722	50.01	-1
0	276280	50.11	-1
0	276838	50.21	-1
0	277396	50.31	-1
0	277954	50.41	-1
0	278512	50.51	-1
0	279070	50.61	-1
0	279628	50.71	-1
0	280186	50.81	-1
0	280744	50.91	-1
0	281311	51.01	-1
0	281869	51.11	-1
0	282427	51.21	-1
0	282985	51.31	-1
0	283543	51.41	-1
0	284101	51.51	-1
0	284659	51.61	-1
0	285217	51.71	-1
0	285775	51.81	-1
0	286333	51.91	-1
0	286900	52.01	-1
0	288202	52.11	-1
0	288759	52.21	-1
0	289316	52.31	-1
0	289873	52.41	-1
0	290430	52.51	-1
0	290987	52.61	-1
0	291544	52.71	-1
0	292101	52.81	-1
0	292658	52.91	-1
0	293224	53.01	-1
0	293781	53.11	-1
0	294338	53.21	-1
0	294895	53.31	-1
0	295452	53.41	-1
0	296009	53.51	-1
0	296566	53.61	-1
0	297123	53.71	-1
0	297680	53.81	-1
0	298237	53.91	-1
0	298803	54.01	-1
0	299360	54.11	-1
0	299917	54.21	-1
0	300474	54.31	-1
0	301031	54.41	-1
0	301588	54.51	-1
0	302145	54.61	-1
0	302702	54.71	-1
0	303259	54.81	-1
0	303816	54.91	-1
0	304382	55.01	-1
0	304939	55.11	-1
0	305496	55.21	-1
0	306053	55.31	-1
0	306610	55.41	-1
0	307167	55.51	-1
0	307724	55.61	-1
0	308281	55.71	-1
0	308838	55.81	-1
0	309395	55.91	-1
0	309961	56.01	-1
0	310518	56.11	-1
0	311075	56.21	-1
0	311632	56.31	-1
0	312189	56.41	-1
0	312746	56.51	-1
0	313303	56.61	-1
0	313860	56.71	-1
0	314417	56.81	-1
0	314974	56.91	-1
0	315540	57.01	-1
0	316097	57.11	-1
0	316654	57.21	-1
0	317211	57.31	-1
0	317768	57.41	-1
0	318325	57.51	-1
0	318882	57.61	-1
0	319439	57.71	-1
0	319996	57.81	-1
0	320553	57.91	-1
0	321119	58.01	-1
0	321676	58.11	-1
0	322233	58.21	-1
0	322790	58.31	-1
0	323347	58.41	-1
0	323904	58.51	-1
0	324461	58.61	-1
0	325018	58.71	-1
0	325575	58.81	-1
0	326132	58.91	-1
0	326698	59.01	-1
0	327255	59.11	-1
0	327812	59.21	-1
0	328369	59.31	-1
0	328926	59.41	-1
0	329483	59.51	-1
0	330040	59.61	-1
0	330597	59.71	-1
0	331154	59.81	-1
0	331711	59.91	-1
0	332277	60.01	-1
0	332834	60.11	-1
0	333391	60.21	-1
0	333948	60.31	-1
0	334505	60.41	-1
0	335062	60.51	-1
0	335619	60.61	-1
0	336176	60.71	-1
0	336733	60.81	-1
0	337290	60.91	-1
0	337856	61.01	-1
0	338413	61.11	-1
0	338970	61.21	-1
0	339527	61.31	-1
0	340084	61.41	-1
0	340641	61.51	-1
0	341198	61.61	-1
0	341755	61.71	-1
0	342312	61.81	-1
0	342869	61.91	-1
0	343435	62.01	-1
0	343992	62.11	-1
0	344549	62.21	-1
0	345106	62.31	-1
0	345663	62.41	-1
0	346220	62.51	-1
0	346777	62.61	-1
0	347334	62.71	-1
0	347891	62.81	-1
0	348448	62.91	-1
0	349014	63.01	-1
0	349571	63.11	-1
0	350128	63.21	-1
0	350685	63.31	-1
0	351242	63.41	-1
0	351799	63.51	-1
0	352356	63.61	-1
0	352913	63.71	-1
0	353470	63.81	-1
0	354027	63.91	-1
0	354593	64.01	-1
0	355150	64.11	-1
0	355707	64.21	-1
0	356264	64.31	-1
0	356821	64.41	-1
0	357378	64.51	-1
0	357935	64.61	-1
0	358492	64.71	-1
0	359049	64.81	-1
0	359606	64.91	-1
0	360172	65.01	-1
0	360729	65.11	-1
0	361286	65.21	-1
0	361843	65.31	-1
0	362400	65.41	-1
0	362957	65.51	-1
0	363514	65.61	-1
0	364071	65.71	-1
0	364628	65.81	-1
0	365185	65.91	-1
0	365751	66.01	-1
0	366308	66.11	-1
0	366865	66.21	-1
0	367422	66.31	-1
0	367979	66.41	-1
0	368536	66.51	-1
0	369093	66.61	-1
0	369650	66.71	-1
0	370207	66.81	-1
0	370764	66.91	-1
0	371330	67.01	-1
0	371887	67.11	-1
0	372444	67.21	-1
0	373001	67.31	-1
0	373558	67.41	-1
0	374115	67.51	-1
0	374672	67.61	-1
0	375229	67.71	-1
0	375786	67.81	-1
0	376343	67.91	-1
0	376909	68.01	-1
0	377466	68.11	-1
0	378023	68.21	-1
0	378580	68.31	-1
0	379137	68.41	-1
0	379694	68.51	-1
0	380251	68.61	-1
0	380808	68.71	-1
0	381365	68.81	-1
0	381922	68.91	-1
0	382488	69.01	-1
0	383045	69.11	-1
0	383602	69.21	-1
0	384159	69.31	-1
0	384716	69.41	-1
0	385273	69.51	-1
0	385830	69.61	-1
0	386387	69.71	-1
0	386944	69.81	-1
0	387501	69.91	-1
0	388067	70.01	-1
0	388624	70.11	-1
0	389181	70.21	-1
0	389738	70.31	-1
0	390295	70.41	-1
0	390852	70.51	-1
0	391409	70.61	-1
0	391966	70.71	-1
0	392523	70.81	-1
0	393080	70.91	-1
0	393646	71.01	-1
0	394203	71.11	-1
0	394760	71.21	-1
0	395317	71.31	-1
0	395874	71.41	-1
0	396431	71.51	-1
0	396988	71.61	-1
0	397545	71.71	-1
0	398102	71.81	-1
0	398659	71.91	-1
0	399225	72.01	-1
0	399782	72.11	-1
0	400339	72.21	-1
0	400896	72.31	-1
0	401453	72.41	-1
0	402010	72.51	-1
0	402567	72.61	-1
0	403124	72.71	-1
0	403681	72.81	-1
0	404238	72.91	-1
0	404804	73.01	-1
0	405361	73.11	-1
0	405918	73.21	-1
0	406475	73.31	-1
0	407032	73.41	-1
0	407589	73.51	-1
0	408146	73.61	-1
0	408703	73.71	-1
0	409260	73.81	-1
0	409817	73.91	-1
0	410383	74.01	-1
0	410940	74.11	-1
0	411497	74.21	-1
0	412054	74.31	-1
0	412611	74.41	-1
0	413168	74.51	-1
0	413725	74.61	-1
0	414282	74.71	-1
0	414839	74.81	-1
0	415396	74.91	-1
0	415962	75.01	-1
0	416519	75.11	-1
0	417076	75.21	-1
0	417633	75.31	-1
0	418190	75.41	-1
0	418747	75.51	-1
0	419304	75.61	-1
0	419861	75.71	-1
0	420418	75.81	-1
0	420975	75.91	-1
0	421541	76.01	-1
0	422098	76.11	-1
0	422655	76.21	-1
0	423212	76.31	-1
0	423769	76.41	-1
0	424326	76.51	-1
0	424883	76.61	-1
0	425440	76.71	-1
0	425997	76.81	-1
0	426554	76.91	-1
0	427120	77.01	-1
0	427677	77.11	-1
0	428234	77.21	-1
0	428791	77.31	-1
0	429348	77.41	-1
0	429905	77.51	-1
0	430462	77.61	-1
0	431019	77.71	-1
0	431576	77.81	-1
0	432133	77.91	-1
0	432699	78.01	-1
0	433256	78.11	-1
0	433813	78.21	-1
0	434370	78.31	-1
0	434927	78.41	-1
0	435484	78.51	-1
0	436041	78.61	-1
0	436598	78.71	-1
0	437155	78.81	-1
0	437712	78.91	-1
0	438278	79.01	-1
0	438835	79.11	-1
0	439392	79.21	-1
0	439949	79.31	-1
0	440506	79.41	-1
0	441063	79.51	-1
0	441620	79.61	-1
0	442177	79.71	-1
0	442734	79.81	-1
0	443291	79.91	-1
0	443857	80.01	-1
0	444414	80.11	-1
0	444971	80.21	-1
0	445528	80.31	-1
0	446085	80.41	-1
0	446642	80.51	-1
0	447199	80.61	-1
0	447756	80.71	-1
0	448313	80.81	-1
0	448870	80.91	-1
0	449436	81.01	-1
0	449993	81.11	-1
0	450550	81.21	-1
0	451107	81.31	-1
0	451664	81.41	-1
0	452221	81.51	-1
0	452778	81.61	-1
0	453335	81.71	-1
0	453892	81.81	-1
0	454449	81.91	-1
0	455015	82.01	-1
0	455572	82.11	-1
0	456129	82.21	-1
0	456686	82.31	-1
0	457243	82.41	-1
0	457800	82.51	-1
0	458357	82.61	-1
0	458914	82.71	-1
0	459471	82.81	-1
0	460028	82.91	-1
0	460594	83.01	-1
0	461151	83.11	-1
0	461708	83.21	-1
0	462265	83.31	-1
0	462822	83.41	-1
0	463379	83.51	-1
0	463936	83.61	-1
0	464493	83.71	-1
0	465050	83.81	-1
0	465607	83.91	-1
0	466173	84.01	-1
0	466730	84.11	-1
0	467287	84.21	-1
0	467844	84.31	-1
0	468401	84.41	-1
0	468958	84.51	-1
0	469515	84.61	-1
0	470072	84.71	-1
0	470629	84.81	-1
0	471186	84.91	-1
0	471752	85.01	-1
0	472309	85.11	-1
0	472866	85.21	-1
0	473423	85.31	-1
0	473980	85.41	-1
0	474537	85.51	-1
0	475094	85.61	-1
0	475651	85.71	-1
0	476208	85.81	-1
0	476765	85.91	-1
0	477331	86.01	-1
0	477888	86.11	-1
0	478445	86.21	-1
0	479002	86.31	-1
0	479559	86.41	-1
0	480116	86.51	-1
0	480673	86.61	-1
0	481230	86.71	-1
0	481787	86.81	-1
0	482344	86.91	-1
0	482910	87.01	-1
0	483467	87.11	-1
0	484024	87.21	-1
0	484581	87.31	-1
0	485138	87.41	-1
0	485695	87.51	-1
0	486252	87.61	-1
0	486809	87.71	-1
0	487366	87.81	-1
0	487923	87.91	-1
0	488489	88.01	-1
0	489046	88.11	-1
0	489603	88.21	-1
0	490160	88.31	-1
0	490717	88.41	-1
0	491274	88.51	-1
0	491831	88.61	-1
0	492388	88.71	-1
0	492945	88.81	-1
0	493502	88.91	-1
0	494068	89.01	-1
0	494625	89.11	-1
0	495182	89.21	-1
0	495739	89.31	-1
0	496296	89.41	-1
0	496853	89.51	-1
0	497410	89.61	-1
0	497967	89.71	-1
0	498524	89.81	-1
0	499081	89.91	-1
0	499647	90.01	-1
0	500204	90.11	-1
0	500761	90.21	-1
0	501318	90.31	-1
0	501875	90.41	-1
0	502432	90.51	-1
0	502989	90.61	-1
0	503546	90.71	-1
0	504103	90.81	-1
0	504660	90.91	-1
0	505226	91.01	-1
0	505783	91.11	-1
0	506340	91.21	-1
0	506897	91.31	-1
0	507454	91.41	-1
0	508011	91.51	-1
0	508568	91.61	-1
0	509125	91.71	-1
0	509682	91.81	-1
0	510239	91.91	-1
0	510805	92.01	-1
0	511362	92.11	-1
0	511919	92.21	-1
0	512476	92.31	-1
0	513033	92.41	-1
0	513590	92.51	-1
0	514147	92.61	-1
0	514704	92.71	-1
0	515261	92.81	-1
0	515818	92.91	-1
0	516384	93.01	-1
0	516941	93.11	-1
0	517498	93.21	-1
0	518055	93.31	-1
0	518612	93.41	-1
0	519169	93.51	-1
0	519726	93.61	-1
0	520283	93.71	-1
0	520840	93.81	-1
0	521397	93.91	-1
0	521963	94.01	-1
0	522520	94.11	-1
0	523077	94.21	-1
0	523634	94.31	-1
0	524191	94.41	-1
0	524748	94.51	-1
0	525305	94.61	-1
0	525862	94.71	-1
0	526419	94.81	-1
0	526976	94.91	-1
0	527542	95.01	-1
0	528099	95.11	-1
0	528656	95.21	-1
0	529213	95.31	-1
0	529770	95.41	-1
0	530327	95.51	-1
0	530884	95.61	-1
0	531441	95.71	-1
0	531998	95.81	-1
0	532555	95.91	-1
0	533121	96.01	-1
0	533678	96.11	-1
0	534235	96.21	-1
0	534792	96.31	-1
0	535349	96.41	-1
0	535906	96.51	-1
0	536463	96.61	-1
0	537020	96.71	-1
0	537577	96.81	-1
0	538134	96.91	-1
0	538700	97.01	-1
0	539257	97.11	-1
0	539814	97.21	-1
0	540371	97.31	-1
0	540928	97.41	-1
0	541485	97.51	-1
0	542042	97.61	-1
0	542599	97.71	-1
0	543156	97.81	-1
0	543713	97.91	-1
0	544279	98.01	-1
0	544836	98.11	-1
0	545393	98.21	-1
0	545950	98.31	-1
0	546507	98.41	-1
0	547064	98.51	-1
0	547621	98.61	-1
0	548178	98.71	-1
0	548735	98.81	-1
0	549292	98.91	-1
0	549858	99.01	-1
0	550415	99.11	-1
0	550972	99.21	-1
0	551529	99.31	-1
0	552086	99.41	-1
0	552643	99.51	-1
0	553200	99.61	-1
0	553757	99.71	-1
0	554314	99.81	-1
0	554871	99.91	-1
1	113	1.11	0
1	670	1.21	0
1	1227	1.31	0
1	1784	1.41	0
1	2341	1.51	0
1	2898	1.61	0
1	3455	1.71	0
1	4012	1.81	0
1	4569	1.91	0
1	5135	2.01	0
1	5692	2.11	0
1	6249	2.21	0
1	6806	2.31	0
1	7363	2.41	0
1	7920	2.51	0
1	8477	2.61	0
1	9034	2.71	0
1	9591	2.81	0
1	10148	2.91	0
1	10714	3.01	0
1	11271	3.11	0
1	11828	3.21	0
1	12385	3.31	0
1	12942	3.41	0
1	13499	3.51	0
1	14056	3.61	0
1	14613	3.71	0
1	15170	3.81	0
1	15727	3.91	0
1	16293	4.01	0
1	16850	4.11	0
1	17407	4.21	0
1	17964	4.31	0
1	18521	4.41	0
1	19078	4.51	0
1	19635	4.61	0
1	20192	4.71	0
1	20749	4.81	0
1	21306	4.91	0
1	21872	5.01	0
1	22429	5.11	0
1	22986	5.21	0
1	23543	5.31	0
1	24100	5.41	0
1	24657	5.51	0
1	25214	5.61	0
1	25771	5.71	0
1	26328	5.81	0
1	26885	5.91	0
1	27451	6.01	0
1	28008	6.11	0
1	28565	6.21	0
1	29122	6.31	0
1	29679	6.41	0
1	30236	6.51	0
1	30793	6.61	0
1	31350	6.71	0
1	31907	6.81	0
1	32464	6.91	0
1	33030	7.01	0
1	33587	7.11	0
1	34144	7.21	0
1	34701	7.31	0
1	35258	7.41	0
1	35815	7.51	0
1	36372	7.61	0
1	36929	7.71	0
1	37486	7.81	0
1	38043	7.91	0
1	38609	8.01	0
1	39166	8.11	0
1	39723	8.21	0
1	40280	8.31	0
1	40837	8.41	0
1	41394	8.51	0
1	41951	8.61	0
1	42508	8.71	0
1	43065	8.81	0
1	43622	8.91	0
1	44188	9.01	0
1	44745	9.11	0
1	45302	9.21	0
1	45859	9.31	0
1	46416	9.41	0
1	46973	9.51	0
1	47530	9.61	0
1	48087	9.71	0
1	48644	9.81	0
1	49201	9.91	0
1	49852	10.01	0
1	50416	10.11	0
1	50980	10.21	0
1	51544	10.31	0
1	52108	10.41	0
1	52672	10.51	0
1	53236	10.61	0
1	53800	10.71	0
1	54364	10.81	0
1	54928	10.91	0
1	55501	11.01	0
1	56065	11.11	0
1	56629	11.21	0
1	57193	11.31	0
1	57757	11.41	0
1	58321	11.51	0
1	58885	11.61	0
1	59449	11.71	0
1	60013	11.81	0
1	60577	11.91	0
1	61150	12.01	0
1	61714	12.11	0
1	62278	12.21	0
1	62842	12.31	0
1	63406	12.41	0
1	63970	12.51	0
1	64534	12.61	0
1	65098	12.71	0
1	65662	12.81	0
1	66226	12.91	0
1	66799	13.01	0
1	67363	13.11	0
1	67927	13.21	0
1	68491	13.31	0
1	69055	13.41	0
1	69619	13.51	0
1	70183	13.61	0
1	70747	13.71	0
1	71311	13.81	0
1	71875	13.91	0
1	72448	14.01	0
1	73012	14.11	0
1	73576	14.21	0
1	74140	14.31	0
1	74704	14.41	0
1	75268	14.51	0
1	75832	14.61	0
1	76396	14.71	0
1	76960	14.81	0
1	77524	14.91	0
1	78097	15.01	0
1	78661	15.11	0
1	79225	15.21	0
1	79789	15.31	0
1	80353	15.41	0
1	80917	15.51	0
1	81481	15.61	0
1	82045	15.71	0
1	82609	15.81	0
1	83173	15.91	0
1	83746	16.01	0
1	84310	16.11	0
1	84874	16.21	0
1	85438	16.31	0
1	86002	16.41	0
1	86566	16.51	0
1	87130	16.61	0
1	87694	16.71	0
1	88258	16.81	0
1	88822	16.91	0
1	89395	17.01	0
1	89959	17.11	0
1	90523	17.21	0
1	91087	17.31	0
1	91651	17.41	0
1	92215	17.51	0
1	92779	17.61	0
1	93343	17.71	0
1	93907	17.81	0
1	94471	17.91	0
1	95044	18.01	0
1	95608	18.11	0
1	96172	18.21	0
1	96736	18.31	0
1	97300	18.41	0
1	97864	18.51	0
1	98428	18.61	0
1	98992	18.71	0
1	99556	18.81	0
1	100120	18.91	0
1	100693	19.01	0
1	101257	19.11	0
1	101821	19.21	0
1	102385	19.31	0
1	102949	19.41	0
1	103513	19.51	0
1	104077	19.61	0
1	104641	19.71	0
1	105205	19.81	0
1	105769	19.91	0
1	106342	20.01	0
1	106906	20.11	0
1	107470	20.21	0
1	108034	20.31	0
1	108598	20.41	0
1	109162	20.51	0
1	109726	20.61	0
1	110290	20.71	0
1	110854	20.81	0
1	111418	20.91	0
1	111991	21.01	0
1	112555	21.11	0
1	113119	21.21	0
1	113683	21.31	0
1	114247	21.41	0
1	114811	21.51	0
1	115375	21.61	0
1	115939	21.71	0
1	116503	21.81	0
1	117067	21.91	0
1	117640	22.01	0
1	118204	22.11	0
1	118768	22.21	0
1	119332	22.31	0
1	119896	22.41	0
1	120460	22.51	0
1	121024	22.61	0
1	121588	22.71	0
1	122152	22.81	0
1	122716	22.91	0
1	123289	23.01	0
1	123853	23.11	0
1	124417	23.21	0
1	124981	23.31	0
1	125545	23.41	0
1	126109	23.51	0
1	126673	23.61	0
1	127237	23.71	0
1	127801	23.81	0
1	128365	23.91	0
1	128938	24.01	0
1	129502	24.11	0
1	130066	24.21	0
1	130630	24.31	0
1	131194	24.41	0
1	131758	24.51	0
1	132322	24.61	0
1	132886	24.71	0
1	133450	24.81	0
1	134014	24.91	0
1	134587	25.01	0
1	135151	25.11	0
1	135715	25.21	0
1	136279	25.31	0
1	136843	25.41	0
1	137407	25.51	0
1	137971	25.61	0
1	138535	25.71	0
1	139099	25.81	0
1	139663	25.91	0
1	140236	26.01	0
1	140800	26.11	0
1	141364	26.21	0
1	141928	26.31	0
1	142492	26.41	0
1	143056	26.51	0
1	143620	26.61	0
1	144184	26.71	0
1	144748	26.81	0
1	145312	26.91	0
1	145885	27.01	0
1	146449	27.11	0
1	147013	27.21	0
1	147577	27.31	0
1	148141	27.41	0
1	148705	27.51	0
1	149269	27.61	0
1	149833	27.71	0
1	150397	27.81	0
1	150961	27.91	0
1	151534	28.01	0
1	152098	28.11	0
1	152662	28.21	0
1	153226	28.31	0
1	153790	28.41	0
1	154354	28.51	0
1	154918	28.61	0
1	155482	28.71	0
1	156046	28.81	0
1	156610	28.91	0
1	157183	29.01	0
1	157747	29.11	0
1	158311	29.21	0
1	158968	29.31	0
1	159531	29.41	0
1	160094	29.51	0
1	160657	29.61	0
1	161220	29.71	0
1	161783	29.81	0
1	162346	29.91	0
1	162918	30.01	0
1	163481	30.11	0
1	164044	30.21	0
1	164607	30.31	0
1	165170	30.41	0
1	165733	30.51	0
1	166296	30.61	0
1	166859	30.71	0
1	167422	30.81	0
1	167985	30.91	0
1	168557	31.01	0
1	169120	31.11	0
1	169683	31.21	0
1	170246	31.31	0
1	170809	31.41	0
1	171372	31.51	0
1	171935	31.61	0
1	172498	31.71	0
1	173061	31.81	0
1	173624	31.91	0
1	174196	32.01	0
1	174759	32.11	0
1	175322	32.21	0
1	175885	32.31	0
1	176448	32.41	0
1	177011	32.51	0
1	177574	32.61	0
1	178137	32.71	0
1	178700	32.81	0
1	179263	32.91	0
1	179835	33.01	0
1	180398	33.11	0
1	180961	33.21	0
1	181524	33.31	0
1	182087	33.41	0
1	182743	33.51	0
1	183305	33.61	0
1	183867	33.71	0
1	184429	33.81	0
1	184991	33.91	0
1	185562	34.01	0
1	186124	34.11	0
1	186686	34.21	0
1	187248	34.31	0
1	187810	34.41	0
1	188372	34.51	0
1	188934	34.61	0
1	189496	34.71	0
1	190058	34.81	0
1	190620	34.91	0
1	191191	35.01	0
1	191753	35.11	0
1	192315	35.21	0
1	192877	35.31	0
1	193439	35.41	0
1	194001	35.51	0
1	194563	35.61	0
1	195125	35.71	0
1	195687	35.81	0
1	196249	35.91	0
1	196820	36.01	0
1	197382	36.11	0
1	197944	36.21	0
1	198506	36.31	0
1	199068	36.41	0
1	199630	36.51	0
1	200192	36.61	0
1	200754	36.71	0
1	201316	36.81	0
1	201878	36.91	0
1	202449	37.01	0
1	203011	37.11	0
1	203573	37.21	0
1	204135	37.31	0
1	204697	37.41	0
1	205352	37.51	0
1	205913	37.61	0
1	206474	37.71	0
1	207035	37.81	0
1	207596	37.91	0
1	208166	38.01	0
1	208727	38.11	0
1	209288	38.21	0
1	209849	38.31	0
1	210410	38.41	0
1	210971	38.51	0
1	211532	38.61	0
1	212093	38.71	0
1	212654	38.81	0
1	213215	38.91	0
1	213785	39.01	0
1	214346	39.11	0
1	214907	39.21	0
1	215468	39.31	0
1	216029	39.41	0
1	216590	39.51	0
1	217151	39.61	0
1	217712	39.71	0
1	218273	39.81	0
1	218834	39.91	0
1	219404	40.01	0
1	219965	40.11	0
1	220526	40.21	0
1	221087	40.31	0
1	221648	40.41	0
1	222209	40.51	0
1	222770	40.61	0
1	223331	40.71	0
1	223892	40.81	0
1	224453	40.91	0
1	225023	41.01	0
1	225584	41.11	0
1	226145	41.21	0
1	226799	41.31	0
1	227359	41.41	0
1	227919	41.51	0
1	228479	41.61	0
1	229039	41.71	0
1	229599	41.81	0
1	230159	41.91	0
1	230728	42.01	0
1	231288	42.11	0
1	231848	42.21	0
1	232408	42.31	0
1	232968	42.41	0
1	233528	42.51	0
1	234088	42.61	0
1	234648	42.71	0
1	235208	42.81	0
1	235768	42.91	0
1	236337	43.01	0
1	236897	43.11	0
1	237457	43.21	0
1	238017	43.31	0
1	238577	43.41	0
1	239137	43.51	0
1	239697	43.61	0
1	240257	43.71	0
1	240817	43.81	0
1	241377	43.91	0
1	241946	44.01	0
1	242506	44.11	0
1	243066	44.21	0
1	243626	44.31	0
1	244186	44.41	0
1	244746	44.51	0
1	245306	44.61	0
1	245866	44.71	0
1	246426	44.81	0
1	246986	44.91	0
1	247648	45.01	0
1	248207	45.11	0
1	248766	45.21	0
1	249325	45.31	0
1	249884	45.41	0
1	250443	45.51	0
1	251002	45.61	0
1	251561	45.71	0
1	252120	45.81	0
1	252679	45.91	0
1	253247	46.01	0
1	253806	46.11	0
1	254365	46.21	0
1	254924	46.31	0
1	255483	46.41	0
1	256042	46.51	0
1	256601	46.61	0
1	257160	46.71	0
1	257719	46.81	0
1	258278	46.91	0
1	258846	47.01	0
1	259405	47.11	0
1	259964	47.21	0
1	260523	47.31	0
1	261082	47.41	0
1	261641	47.51	0
1	262200	47.61	0
1	262759	47.71	0
1	263318	47.81	0
1	263877	47.91	0
1	264445	48.01	0
1	265004	48.11	0
1	265563	48.21	0
1	266122	48.31	0
1	266681	48.41	0
1	267240	48.51	0
1	267892	48.61	0
1	268450	48.71	0
1	269008	48.81	0
1	269566	48.91	0
1	270133	49.01	0
1	270691	49.11	0
1	271249	49.21	0
1	271807	49.31	0
1	272365	49.41	0
1	272923	49.51	0
1	273481	49.61	0
1	274039	49.71	0
1	274597	49.81	0
1	275155	49.91	0
1	275722	50.01	0
1	276280	50.11	0
1	276838	50.21	0
1	277396	50.31	0
1	277954	50.41	0
1	278512	50.51	0
1	279070	50.61	0
1	279628	50.71	0
1	280186	50.81	0
1	280744	50.91	0
1	281311	51.01	0
1	281869	51.11	0
1	282427	51.21	0
1	282985	51.31	0
1	283543	51.41	0
1	284101	51.51	0
1	284659	51.61	0
1	285217	51.71	0
1	285775	51.81	0
1	286333	51.91	0
1	286900	52.01	0
1	288202	52.11	0
1	288759	52.21	0
1	289316	52.31	0
1	289873	52.41	0
1	290430	52.51	0
1	290987	52.61	0
1	291544	52.71	0
1	292101	52.81	0
1	292658	52.91	0
1	293224	53.01	0
1	293781	53.11	0
1	294338	53.21	0
1	294895	53.31	0
1	295452	53.41	0
1	296009	53.51	0
1	296566	53.61	0
1	297123	53.71	0
1	297680	53.81	0
1	298237	53.91	0
1	298803	54.01	0
1	299360	54.11	0
1	299917	54.21	0
1	300474	54.31	0
1	301031	54.41	0
1	301588	54.51	0
1	302145	54.61	0
1	302702	54.71	0
1	303259	54.81	0
1	303816	54.91	0
1	304382	55.01	0
1	304939	55.11	0
1	305496	55.21	0
1	306053	55.31	0
1	306610	55.41	0
1	307167	55.51	0
1	307724	55.61	0
1	308281	55.71	0
1	308838	55.81	0
1	309395	55.91	0
1	309961	56.01	0
1	310518	56.11	0
1	311075	56.21	0
1	311632	56.31	0
1	312189	56.41	0
1	312746	56.51	0
1	313303	56.61	0
1	313860	56.71	0
1	314417	56.81	0
1	314974	56.91	0
1	315540	57.01	0
1	316097	57.11	0
1	316654	57.21	0
1	317211	57.31	0
1	317768	57.41	0
1	318325	57.51	0
1	318882	57.61	0
1	319439	57.71	0
1	319996	57.81	0
1	320553	57.91	0
1	321119	58.01	0
1	321676	58.11	0
1	322233	58.21	0
1	322790	58.31	0
1	323347	58.41	0
1	323904	58.51	0
1	324461	58.61	0
1	325018	58.71	0
1	325575	58.81	0
1	326132	58.91	0
1	326698	59.01	0
1	327255	59.11	0
1	327812	59.21	0
1	328369	59.31	0
1	328926	59.41	0
1	329483	59.51	0
1	330040	59.61	0
1	330597	59.71	0
1	331154	59.81	0
1	331711	59.91	0
1	332277	60.01	0
1	332834	60.11	0
1	333391	60.21	0
1	333948	60.31	0
1	334505	60.41	0
1	335062	60.51	0
1	335619	60.61	0
1	336176	60.71	0
1	336733	60.81	0
1	337290	60.91	0
1	337856	61.01	0
1	338413	61.11	0
1	338970	61.21	0
1	339527	61.31	0
1	340084	61.41	0
1	340641	61.51	0
1	341198	61.61	0
1	341755	61.71	0
1	342312	61.81	0
1	342869	61.91	0
1	343435	62.01	0
1	343992	62.11	0
1	344549	62.21	0
1	345106	62.31	0
1	345663	62.41	0
1	346220	62.51	0
1	346777	62.61	0
1	347334	62.71	0
1	347891	62.81	0
1	348448	62.91	0
1	349014	63.01	0
1	349571	63.11	0
1	350128	63.21	0
1	350685	63.31	0
1	351242	63.41	0
1	351799	63.51	0
1	352356	63.61	0
1	352913	63.71	0
1	353470	63.81	0
1	354027	63.91	0
1	354593	64.01	0
1	355150	64.11	0
1	355707	64.21	0
1	356264	64.31	0
1	356821	64.41	0
1	357378	64.51	0
1	357935	64.61	0
1	358492	64.71	0
1	359049	64.81	0
1	359606	64.91	0
1	360172	65.01	0
1	360729	65.11	0
1	361286	65.21	0
1	361843	65.31	0
1	362400	65.41	0
1	362957	65.51	0
1	363514	65.61	0
1	364071	65.71	0
1	364628	65.81	0
1	365185	65.91	0
1	365751	66.01	0
1	366308	66.11	0
1	366865	66.21	0
1	367422	66.31	0
1	367979	66.41	0
1	368536	66.51	0
1	369093	66.61	0
1	369650	66.71	0
1	370207	66.81	0
1	370764	66.91	0
1	371330	67.01	0
1	371887	67.11	0
1	372444	67.21	0
1	373001	67.31	0
1	373558	67.41	0
1	374115	67.51	0
1	374672	67.61	0
1	375229	67.71	0
1	375786	67.81	0
1	376343	67.91	0
1	376909	68.01	0
1	377466	68.11	0
1	378023	68.21	0
1	378580	68.31	0
1	379137	68.41	0
1	379694	68.51	0
1	380251	68.61	0
1	380808	68.71	0
1	381365	68.81	0
1	381922	68.91	0
1	382488	69.01	0
1	383045	69.11	0
1	383602	69.21	0
1	384159	69.31	0
1	384716	69.41	0
1	385273	69.51	0
1	385830	69.61	0
1	386387	69.71	0
1	386944	69.81	0
1	387501	69.91	0
1	388067	70.01	0
1	388624	70.11	0
1	389181	70.21	0
1	389738	70.31	0
1	390295	70.41	0
1	390852	70.51	0
1	391409	70.61	0
1	391966	70.71	0
1	392523	70.81	0
1	393080	70.91	0
1	393646	71.01	0
1	394203	71.11	0
1	394760	71.21	0
1	395317	71.31	0
1	395874	71.41	0
1	396431	71.51	0
1	396988	71.61	0
1	397545	71.71	0
1	398102	71.81	0
1	398659	71.91	0
1	399225	72.01	0
1	399782	72.11	0
1	400339	72.21	0
1	400896	72.31	0
1	401453	72.41	0
1	402010	72.51	0
1	402567	72.61	0
1	403124	72.71	0
1	403681	72.81	0
1	404238	72.91	0
1	404804	73.01	0
1	405361	73.11	0
1	405918	73.21	0
1	406475	73.31	0
1	407032	73.41	0
1	407589	73.51	0
1	408146	73.61	0
1	408703	73.71	0
1	409260	73.81	0
1	409817	73.91	0
1	410383	74.01	0
1	410940	74.11	0
1	411497	74.21	0
1	412054	74.31	0
1	412611	74.41	0
1	413168	74.51	0
1	413725	74.61	0
1	414282	74.71	0
1	414839	74.81	0
1	415396	74.91	0
1	415962	75.01	0
1	416519	75.11	0
1	417076	75.21	0
1	417633	75.31	0
1	418190	75.41	0
1	418747	75.51	0
1	419304	75.61	0
1	419861	75.71	0
1	420418	75.81	0
1	420975	75.91	0
1	421541	76.01	0
1	422098	76.11	0
1	422655	76.21	0
1	423212	76.31	0
1	423769	76.41	0
1	424326	76.51	0
1	424883	76.61	0
1	425440	76.71	0
1	425997	76.81	0
1	426554	76.91	0
1	427120	77.01	0
1	427677	77.11	0
1	428234	77.21	0
1	428791	77.31	0
1	429348	77.41	0
1	429905	77.51	0
1	430462	77.61	0
1	431019	77.71	0
1	431576	77.81	0
1	432133	77.91	0
1	432699	78.01	0
1	433256	78.11	0
1	433813	78.21	0
1	434370	78.31	0
1	434927	78.41	0
1	435484	78.51	0
1	436041	78.61	0
1	436598	78.71	0
1	437155	78.81	0
1	437712	78.91	0
1	438278	79.01	0
1	438835	79.11	0
1	439392	79.21	0
1	439949	79.31	0
1	440506	79.41	0
1	441063	79.51	0
1	441620	79.61	0
1	442177	79.71	0
1	442734	79.81	0
1	443291	79.91	0
1	443857	80.01	0
1	444414	80.11	0
1	444971	80.21	0
1	445528	80.31	0
1	446085	80.41	0
1	446642	80.51	0
1	447199	80.61	0
1	447756	80.71	0
1	448313	80.81	0
1	448870	80.91	0
1	449436	81.01	0
1	449993	81.11	0
1	450550	81.21	0
1	451107	81.31	0
1	451664	81.41	0
1	452221	81.51	0
1	452778	81.61	0
1	453335	81.71	0
1	453892	81.81	0
1	454449	81.91	0
1	455015	82.01	0
1	455572	82.11	0
1	456129	82.21	0
1	456686	82.31	0
1	457243	82.41	0
1	457800	82.51	0
1	458357	82.61	0
1	458914	82.71	0
1	459471	82.81	0
1	460028	82.91	0
1	460594	83.01	0
1	461151	83.11	0
1	461708	83.21	0
1	462265	83.31	0
1	462822	83.41	0
1	463379	83.51	0
1	463936	83.61	0
1	464493	83.71	0
1	465050	83.81	0
1	465607	83.91	0
1	466173	84.01	0
1	466730	84.11	0
1	467287	84.21	0
1	467844	84.31	0
1	468401	84.41	0
1	468958	84.51	0
1	469515	84.61	0
1	470072	84.71	0
1	470629	84.81	0
1	471186	84.91	0
1	471752	85.01	0
1	472309	85.11	0
1	472866	85.21	0
1	473423	85.31	0
1	473980	85.41	0
1	474537	85.51	0
1	475094	85.61	0
1	475651	85.71	0
1	476208	85.81	0
1	476765	85.91	0
1	477331	86.01	0
1	477888	86.11	0
1	478445	86.21	0
1	479002	86.31	0
1	479559	86.41	0
1	480116	86.51	0
1	480673	86.61	0
1	481230	86.71	0
1	481787	86.81	0
1	482344	86.91	0
1	482910	87.01	0
1	483467	87.11	0
1	484024	87.21	0
1	484581	87.31	0
1	485138	87.41	0
1	485695	87.51	0
1	486252	87.61	0
1	486809	87.71	0
1	487366	87.81	0
1	487923	87.91	0
1	488489	88.01	0
1	489046	88.11	0
1	489603	88.21	0
1	490160	88.31	0
1	490717	88.41	0
1	491274	88.51	0
1	491831	88.61	0
1	492388	88.71	0
1	492945	88.81	0
1	493502	88.91	0
1	494068	89.01	0
1	494625	89.11	0
1	495182	89.21	0
1	495739	89.31	0
1	496296	89.41	0
1	496853	89.51	0
1	497410	89.61	0
1	497967	89.71	0
1	498524	89.81	0
1	499081	89.91	0
1	499647	90.01	0
1	500204	90.11	0
1	500761	90.21	0
1	501318	90.31	0
1	501875	90.41	0
1	502432	90.51	0
1	502989	90.61	0
1	503546	90.71	0
1	504103	90.81	0
1	504660	90.91	0
1	505226	91.01	0
1	505783	91.11	0
1	506340	91.21	0
1	506897	91.31	0
1	507454	91.41	0
1	508011	91.51	0
1	508568	91.61	0
1	509125	91.71	0
1	509682	91.81	0
1	510239	91.91	0
1	510805	92.01	0
1	511362	92.11	0
1	511919	92.21	0
1	512476	92.31	0
1	513033	92.41	0
1	513590	92.51	0
1	514147	92.61	0
1	514704	92.71	0
1	515261	92.81	0
1	515818	92.91	0
1	516384	93.01	0
1	516941	93.11	0
1	517498	93.21	0
1	518055	93.31	0
1	518612	93.41	0
1	519169	93.51	0
1	519726	93.61	0
1	520283	93.71	0
1	520840	93.81	0
1	521397	93.91	0
1	521963	94.01	0
1	522520	94.11	0
1	523077	94.21	0
1	523634	94.31	0
1	524191	94.41	0
1	524748	94.51	0
1	525305	94.61	0
1	525862	94.71	0
1	526419	94.81	0
1	526976	94.91	0
1	527542	95.01	0
1	528099	95.11	0
1	528656	95.21	0
1	529213	95.31	0
1	529770	95.41	0
1	530327	95.51	0
1	530884	95.61	0
1	531441	95.71	0
1	531998	95.81	0
1	532555	95.91	0
1	533121	96.01	0
1	533678	96.11	0
1	534235	96.21	0
1	534792	96.31	0
1	535349	96.41	0
1	535906	96.51	0
1	536463	96.61	0
1	537020	96.71	0
1	537577	96.81	0
1	538134	96.91	0
1	538700	97.01	0
1	539257	97.11	0
1	539814	97.21	0
1	540371	97.31	0
1	540928	97.41	0
1	541485	97.51	0
1	542042	97.61	0
1	542599	97.71	0
1	543156	97.81	0
1	543713	97.91	0
1	544279	98.01	0
1	544836	98.11	0
1	545393	98.21	0
1	545950	98.31	0
1	546507	98.41	0
1	547064	98.51	0
1	547621	98.61	0
1	548178	98.71	0
1	548735	98.81	0
1	549292	98.91	0
1	549858	99.01	0
1	550415	99.11	0
1	550972	99.21	0
1	551529	99.31	0
1	552086	99.41	0
1	552643	99.51	0
1	553200	99.61	0
1	553757	99.71	0
1	554314	99.81	0
1	554871	99.91	0
2	113	1.11	0
2	670	1.21	0
2	1227	1.31	0
2	1784	1.41	0
2	2341	1.51	0
2	2898	1.61	0
2	3455	1.71	0
2	4012	1.81	0
2	4569	1.91	0
2	5135	2.01	0
2	5692	2.11	0
2	6249	2.21	0
2	6806	2.31	0
2	7363	2.41	0
2	7920	2.51	0
2	8477	2.61	0
2	9034	2.71	0
2	9591	2.81	0
2	10148	2.91	0
2	10714	3.01	0
2	11271	3.11	0
2	11828	3.21	0
2	12385	3.31	0
2	12942	3.41	0
2	13499	3.51	0
2	14056	3.61	0
2	14613	3.71	0
2	15170	3.81	0
2	15727	3.91	0
2	16293	4.01	0
2	16850	4.11	0
2	17407	4.21	0
2	17964	4.31	0
2	18521	4.41	0
2	19078	4.51	0
2	19635	4.61	0
2	20192	4.71	0
2	20749	4.81	0
2	21306	4.91	0
2	21872	5.01	0
2	22429	5.11	0
2	22986	5.21	0
2	23543	5.31	0
2	24100	5.41	0
2	24657	5.51	0
2	25214	5.61	0
2	25771	5.71	0
2	26328	5.81	0
2	26885	5.91	0
2	27451	6.01	0
2	28008	6.11	0
2	28565	6.21	0
2	29122	6.31	0
2	29679	6.41	0
2	30236	6.51	0
2	30793	6.61	0
2	31350	6.71	0
2	31907	6.81	0
2	32464	6.91	0
2	33030	7.01	0
2	33587	7.11	0
2	34144	7.21	0
2	34701	7.31	0
2	35258	7.41	0
2	35815	7.51	0
2	36372	7.61	0
2	36929	7.71	0
2	37486	7.81	0
2	38043	7.91	0
2	38609	8.01	0
2	39166	8.11	0
2	39723	8.21	0
2	40280	8.31	0
2	40837	8.41	0
2	41394	8.51	0
2	41951	8.61	0
2	42508	8.71	0
2	43065	8.81	0
2	43622	8.91	0
2	44188	9.01	0
2	44745	9.11	0
2	45302	9.21	0
2	45859	9.31	0
2	46416	9.41	0
2	46973	9.51	0
2	47530	9.61	0
2	48087	9.71	0
2	48644	9.81	0
2	49201	9.91	0
2	49852	10.01	0
2	50416	10.11	0
2	50980	10.21	0
2	51544	10.31	0
2	52108	10.41	0
2	52672	10.51	0
2	53236	10.61	0
2	53800	10.71	0
2	54364	10.81	0
2	54928	10.91	0
2	55501	11.01	0
2	56065	11.11	0
2	56629	11.21	0
2	57193	11.31	0
2	57757	11.41	0
2	58321	11.51	0
2	58885	11.61	0
2	59449	11.71	0
2	60013	11.81	0
2	60577	11.91	0
2	61150	12.01	0
2	61714	12.11	0
2	62278	12.21	0
2	62842	12.31	0
2	63406	12.41	0
2	63970	12.51	0
2	64534	12.61	0
2	65098	12.71	0
2	65662	12.81	0
2	66226	12.91	0
2	66799	13.01	0
2	67363	13.11	0
2	67927	13.21	0
2	68491	13.31	0
2	69055	13.41	0
2	69619	13.51	0
2	70183	13.61	0
2	70747	13.71	0
2	71311	13.81	0
2	71875	13.91	0
2	72448	14.01	0
2	73012	14.11	0
2	73576	14.21	0
2	74140	14.31	0
2	74704	14.41	0
2	75268	14.51	0
2	75832	14.61	0
2	76396	14.71	0
2	76960	14.81	0
2	77524	14.91	0
2	78097	15.01	0
2	78661	15.11	0
2	79225	15.21	0
2	79789	15.31	0
2	80353	15.41	0
2	80917	15.51	0
2	81481	15.61	0
2	82045	15.71	0
2	82609	15.81	0
2	83173	15.91	0
2	83746	16.01	0
2	84310	16.11	0
2	84874	16.21	0
2	85438	16.31	0
2	86002	16.41	0
2	86566	16.51	0
2	87130	16.61	0
2	87694	16.71	0
2	88258	16.81	0
2	88822	16.91	0
2	89395	17.01	0
2	89959	17.11	0
2	90523	17.21	0
2	91087	17.31	0
2	91651	17.41	0
2	92215	17.51	0
2	92779	17.61	0
2	93343	17.71	0
2	93907	17.81	0
2	94471	17.91	0
2	95044	18.01	0
2	95608	18.11	0
2	96172	18.21	0
2	96736	18.31	0
2	97300	18.41	0
2	97864	18.51	0
2	98428	18.61	0
2	98992	18.71	0
2	99556	18.81	0
2	100120	18.91	0
2	100693	19.01	0
2	101257	19.11	0
2	101821	19.21	0
2	102385	19.31	0
2	102949	19.41	0
2	103513	19.51	0
2	104077	19.61	0
2	104641	19.71	0
2	105205	19.81	0
2	105769	19.91	0
2	106342	20.01	0
2	106906	20.11	0
2	107470	20.21	0
2	108034	20.31	0
2	108598	20.41	0
2	109162	20.51	0
2	109726	20.61	0
2	110290	20.71	0
2	110854	20.81	0
2	111418	20.91	0
2	111991	21.01	0
2	112555	21.11	0
2	113119	21.21	0
2	113683	21.31	0
2	114247	21.41	0
2	114811	21.51	0
2	115375	21.61	0
2	115939	21.71	0
2	116503	21.81	0
2	117067	21.91	0
2	117640	22.01	0
2	118204	22.11	0
2	118768	22.21	0
2	119332	22.31	0
2	119896	22.41	0
2	120460	22.51	0
2	121024	22.61	0
2	121588	22.71	0
2	122152	22.81	0
2	122716	22.91	0
2	123289	23.01	0
2	123853	23.11	0
2	124417	23.21	0
2	124981	23.31	0
2	125545	23.41	0
2	126109	23.51	0
2	126673	23.61	0
2	127237	23.71	0
2	127801	23.81	0
2	128365	23.91	0
2	128938	24.01	0
2	129502	24.11	0
2	130066	24.21	0
2	130630	24.31	0
2	131194	24.41	0
2	131758	24.51	0
2	132322	24.61	0
2	132886	24.71	0
2	133450	24.81	0
2	134014	24.91	0
2	134587	25.01	0
2	135151	25.11	0
2	135715	25.21	0
2	136279	25.31	0
2	136843	25.41	0
2	137407	25.51	0
2	137971	25.61	0
2	138535	25.71	0
2	139099	25.81	0
2	139663	25.91	0
2	140236	26.01	0
2	140800	26.11	0
2	141364	26.21	0
2	141928	26.31	0
2	142492	26.41	0
2	143056	26.51	0
2	143620	26.61	0
2	144184	26.71	0
2	144748	26.81	0
2	145312	26.91	0
2	145885	27.01	0
2	146449	27.11	0
2	147013	27.21	0
2	147577	27.31	0
2	148141	27.41	0
2	148705	27.51	0
2	149269	27.61	0
2	149833	27.71	0
2	150397	27.81	0
2	150961	27.91	0
2	151534	28.01	0
2	152098	28.11	0
2	152662	28.21	0
2	153226	28.31	0
2	153790	28.41	0
2	154354	28.51	0
2	154918	28.61	0
2	155482	28.71	0
2	156046	28.81	0
2	156610	28.91	0
2	157183	29.01	0
2	157747	29.11	0
2	158311	29.21	0
2	158968	29.31	0
2	159531	29.41	0
2	160094	29.51	0
2	160657	29.61	0
2	161220	29.71	0
2	161783	29.81	0
2	162346	29.91	0
2	162918	30.01	0
2	163481	30.11	0
2	164044	30.21	0
2	164607	30.31	0
2	165170	30.41	0
2	165733	30.51	0
2	166296	30.61	0
2	166859	30.71	0
2	167422	30.81	0
2	167985	30.91	0
2	168557	31.01	0
2	169120	31.11	0
2	169683	31.21	0
2	170246	31.31	0
2	170809	31.41	0
2	171372	31.51	0
2	171935	31.61	0
2	172498	31.71	0
2	173061	31.81	0
2	173624	31.91	0
2	174196	32.01	0
2	174759	32.11	0
2	175322	32.21	0
2	175885	32.31	0
2	176448	32.41	0
2	177011	32.51	0
2	177574	32.61	0
2	178137	32.71	0
2	178700	32.81	0
2	179263	32.91	0
2	179835	33.01	0
2	180398	33.11	0
2	180961	33.21	0
2	181524	33.31	0
2	182087	33.41	0
2	182743	33.51	0
2	183305	33.61	0
2	183867	33.71	0
2	184429	33.81	0
2	184991	33.91	0
2	185562	34.01	0
2	186124	34.11	0
2	186686	34.21	0
2	187248	34.31	0
2	187810	34.41	0
2	188372	34.51	0
2	188934	34.61	0
2	189496	34.71	0
2	190058	34.81	0
2	190620	34.91	0
2	191191	35.01	0
2	191753	35.11	0
2	192315	35.21	0
2	192877	35.31	0
2	193439	35.41	0
2	194001	35.51	0
2	194563	35.61	0
2	195125	35.71	0
2	195687	35.81	0
2	196249	35.91	0
2	196820	36.01	0
2	197382	36.11	0
2	197944	36.21	0
2	198506	36.31	0
2	199068	36.41	0
2	199630	36.51	0
2	200192	36.61	0
2	200754	36.71	0
2	201316	36.81	0
2	201878	36.91	0
2	202449	37.01	0
2	203011	37.11	0
2	203573	37.21	0
2	204135	37.31	0
2	204697	37.41	0
2	205352	37.51	0
2	205913	37.61	0
2	206474	37.71	0
2	207035	37.81	0
2	207596	37.91	0
2	208166	38.01	0
2	208727	38.11	0
2	209288	38.21	0
2	209849	38.31	0
2	210410	38.41	0
2	210971	38.51	0
2	211532	38.61	0
2	212093	38.71	0
2	212654	38.81	0
2	213215	38.91	0
2	213785	39.01	0
2	214346	39.11	0
2	214907	39.21	0
2	215468	39.31	0
2	216029	39.41	0
2	216590	39.51	0
2	217151	39.61	0
2	217712	39.71	0
2	218273	39.81	0
2	218834	39.91	0
2	219404	40.01	0
2	219965	40.11	0
2	220526	40.21	0
2	221087	40.31	0
2	221648	40.41	0
2	222209	40.51	0
2	222770	40.61	0
2	223331	40.71	0
2	223892	40.81	0
2	224453	40.91	0
2	225023	41.01	0
2	225584	41.11	0
2	226145	41.21	0
2	226799	41.31	0
2	227359	41.41	0
2	227919	41.51	0
2	228479	41.61	0
2	229039	41.71	0
2	229599	41.81	0
2	230159	41.91	0
2	230728	42.01	0
2	231288	42.11	0
2	231848	42.21	0
2	232408	42.31	0
2	232968	42.41	0
2	233528	42.51	0
2	234088	42.61	0
2	234648	42.71	0
2	235208	42.81	0
2	235768	42.91	0
2	236337	43.01	0
2	236897	43.11	0
2	237457	43.21	0
2	238017	43.31	0
2	238577	43.41	0
2	239137	43.51	0
2	239697	43.61	0
2	240257	43.71	0
2	240817	43.81	0
2	241377	43.91	0
2	241946	44.01	0
2	242506	44.11	0
2	243066	44.21	0
2	243626	44.31	0
2	244186	44.41	0
2	244746	44.51	0
2	245306	44.61	0
2	245866	44.71	0
2	246426	44.81	0
2	246986	44.91	0
2	247648	45.01	0
2	248207	45.11	0
2	248766	45.21	0
2	249325	45.31	0
2	249884	45.41	0
2	250443	45.51	0
2	251002	45.61	0
2	251561	45.71	0
2	252120	45.81	0
2	252679	45.91	0
2	253247	46.01	0
2	253806	46.11	0
2	254365	46.21	0
2	254924	46.31	0
2	255483	46.41	0
2	256042	46.51	0
2	256601	46.61	0
2	257160	46.71	0
2	257719	46.81	0
2	258278	46.91	0
2	258846	47.01	0
2	259405	47.11	0
2	259964	47.21	0
2	260523	47.31	0
2	261082	47.41	0
2	261641	47.51	0
2	262200	47.61	0
2	262759	47.71	0
2	263318	47.81	0
2	263877	47.91	0
2	264445	48.01	0
2	265004	48.11	0
2	265563	48.21	0
2	266122	48.31	0
2	266681	48.41	0
2	267240	48.51	0
2	267892	48.61	0
2	268450	48.71	0
2	269008	48.81	0
2	269566	48.91	0
2	270133	49.01	0
2	270691	49.11	0
2	271249	49.21	0
2	271807	49.31	0
2	272365	49.41	0
2	272923	49.51	0
2	273481	49.61	0
2	274039	49.71	0
2	274597	49.81	0
2	275155	49.91	0
2	275722	50.01	0
2	276280	50.11	0
2	276838	50.21	0
2	277396	50.31	0
2	277954	50.41	0
2	278512	50.51	0
2	279070	50.61	0
2	279628	50.71	0
2	280186	50.81	0
2	280744	50.91	0
2	281311	51.01	0
2	281869	51.11	0
2	282427	51.21	0
2	282985	51.31	0
2	283543	51.41	0
2	284101	51.51	0
2	284659	51.61	0
2	285217	51.71	0
2	285775	51.81	0
2	286333	51.91	0
2	286900	52.01	0
2	288202	52.11	0
2	288759	52.21	0
2	289316	52.31	0
2	289873	52.41	0
2	290430	52.51	0
2	290987	52.61	0
2	291544	52.71	0
2	292101	52.81	0
2	292658	52.91	0
2	293224	53.01	0
2	293781	53.11	0
2	294338	53.21	0
2	294895	53.31	0
2	295452	53.41	0
2	296009	53.51	0
2	296566	53.61	0
2	297123	53.71	0
2	297680	53.81	0
2	298237	53.91	0
2	298803	54.01	0
2	299360	54.11	0
2	299917	54.21	0
2	300474	54.31	0
2	301031	54.41	0
2	301588	54.51	0
2	302145	54.61	0
2	302702	54.71	0
2	303259	54.81	0
2	303816	54.91	0
2	304382	55.01	0
2	304939	55.11	0
2	305496	55.21	0
2	306053	55.31	0
2	306610	55.41	0
2	307167	55.51	0
2	307724	55.61	0
2	308281	55.71	0
2	308838	55.81	0
2	309395	55.91	0
2	309961	56.01	0
2	310518	56.11	0
2	311075	56.21	0
2	311632	56.31	0
2	312189	56.41	0
2	312746	56.51	0
2	313303	56.61	0
2	313860	56.71	0
2	314417	56.81	0
2	314974	56.91	0
2	315540	57.01	0
2	316097	57.11	0
2	316654	57.21	0
2	317211	57.31	0
2	317768	57.41	0
2	318325	57.51	0
2	318882	57.61	0
2	319439	57.71	0
2	319996	57.81	0
2	320553	57.91	0
2	321119	58.01	0
2	321676	58.11	0
2	322233	58.21	0
2	322790	58.31	0
2	323347	58.41	0
2	323904	58.51	0
2	324461	58.61	0
2	325018	58.71	0
2	325575	58.81	0
2	326132	58.91	0
2	326698	59.01	0
2	327255	59.11	0
2	327812	59.21	0
2	328369	59.31	0
2	328926	59.41	0
2	329483	59.51	0
2	330040	59.61	0
2	330597	59.71	0
2	331154	59.81	0
2	331711	59.91	0
2	332277	60.01	0
2	332834	60.11	0
2	333391	60.21	0
2	333948	60.31	0
2	334505	60.41	0
2	335062	60.51	0
2	335619	60.61	0
2	336176	60.71	0
2	336733	60.81	0
2	337290	60.91	0
2	337856	61.01	0
2	338413	61.11	0
2	338970	61.21	0
2	339527	61.31	0
2	340084	61.41	0
2	340641	61.51	0
2	341198	61.61	0
2	341755	61.71	0
2	342312	61.81	0
2	342869	61.91	0
2	343435	62.01	0
2	343992	62.11	0
2	344549	62.21	0
2	345106	62.31	0
2	345663	62.41	0
2	346220	62.51	0
2	346777	62.61	0
2	347334	62.71	0
2	347891	62.81	0
2	348448	62.91	0
2	349014	63.01	0
2	349571	63.11	0
2	350128	63.21	0
2	350685	63.31	0
2	351242	63.41	0
2	351799	63.51	0
2	352356	63.61	0
2	352913	63.71	0
2	353470	63.81	0
2	354027	63.91	0
2	354593	64.01	0
2	355150	64.11	0
2	355707	64.21	0
2	356264	64.31	0
2	356821	64.41	0
2	357378	64.51	0
2	357935	64.61	0
2	358492	64.71	0
2	359049	64.81	0
2	359606	64.91	0
2	360172	65.01	0
2	360729	65.11	0
2	361286	65.21	0
2	361843	65.31	0
2	362400	65.41	0
2	362957	65.51	0
2	363514	65.61	0
2	364071	65.71	0
2	364628	65.81	0
2	365185	65.91	0
2	365751	66.01	0
2	366308	66.11	0
2	366865	66.21	0
2	367422	66.31	0
2	367979	66.41	0
2	368536	66.51	0
2	369093	66.61	0
2	369650	66.71	0
2	370207	66.81	0
2	370764	66.91	0
2	371330	67.01	0
2	371887	67.11	0
2	372444	67.21	0
2	373001	67.31	0
2	373558	67.41	0
2	374115	67.51	0
2	374672	67.61	0
2	375229	67.71	0
2	375786	67.81	0
2	376343	67.91	0
2	376909	68.01	0
2	377466	68.11	0
2	378023	68.21	0
2	378580	68.31	0
2	379137	68.41	0
2	379694	68.51	0
2	380251	68.61	0
2	380808	68.71	0
2	381365	68.81	0
2	381922	68.91	0
2	382488	69.01	0
2	383045	69.11	0
2	383602	69.21	0
2	384159	69.31	0
2	384716	69.41	0
2	385273	69.51	0
2	385830	69.61	0
2	386387	69.71	0
2	386944	69.81	0
2	387501	69.91	0
2	388067	70.01	0
2	388624	70.11	0
2	389181	70.21	0
2	389738	70.31	0
2	390295	70.41	0
2	390852	70.51	0
2	391409	70.61	0
2	391966	70.71	0
2	392523	70.81	0
2	393080	70.91	0
2	393646	71.01	0
2	394203	71.11	0
2	394760	71.21	0
2	395317	71.31	0
2	395874	71.41	0
2	396431	71.51	0
2	396988	71.61	0
2	397545	71.71	0
2	398102	71.81	0
2	398659	71.91	0
2	399225	72.01	0
2	399782	72.11	0
2	400339	72.21	0
2	400896	72.31	0
2	401453	72.41	0
2	402010	72.51	0
2	402567	72.61	0
2	403124	72.71	0
2	403681	72.81	0
2	404238	72.91	0
2	404804	73.01	0
2	405361	73.11	0
2	405918	73.21	0
2	406475	73.31	0
2	407032	73.41	0
2	407589	73.51	0
2	408146	73.61	0
2	408703	73.71	0
2	409260	73.81	0
2	409817	73.91	0
2	410383	74.01	0
2	410940	74.11	0
2	411497	74.21	0
2	412054	74.31	0
2	412611	74.41	0
2	413168	74.51	0
2	413725	74.61	0
2	414282	74.71	0
2	414839	74.81	0
2	415396	74.91	0
2	415962	75.01	0
2	416519	75.11	0
2	417076	75.21	0
2	417633	75.31	0
2	418190	75.41	0
2	418747	75.51	0
2	419304	75.61	0
2	419861	75.71	0
2	420418	75.81	0
2	420975	75.91	0
2	421541	76.01	0
2	422098	76.11	0
2	422655	76.21	0
2	423212	76.31	0
2	423769	76.41	0
2	424326	76.51	0
2	424883	76.61	0
2	425440	76.71	0
2	425997	76.81	0
2	426554	76.91	0
2	427120	77.01	0
2	427677	77.11	0
2	428234	77.21	0
2	428791	77.31	0
2	429348	77.41	0
2	429905	77.51	0
2	430462	77.61	0
2	431019	77.71	0
2	431576	77.81	0
2	432133	77.91	0
2	432699	78.01	0
2	433256	78.11	0
2	433813	78.21	0
2	434370	78.31	0
2	434927	78.41	0
2	435484	78.51	0
2	436041	78.61	0
2	436598	78.71	0
2	437155	78.81	0
2	437712	78.91	0
2	438278	79.01	0
2	438835	79.11	0
2	439392	79.21	0
2	439949	79.31	0
2	440506	79.41	0
2	441063	79.51	0
2	441620	79.61	0
2	442177	79.71	0
2	442734	79.81	0
2	443291	79.91	0
2	443857	80.01	0
2	444414	80.11	0
2	444971	80.21	0
2	445528	80.31	0
2	446085	80.41	0
2	446642	80.51	0
2	447199	80.61	0
2	447756	80.71	0
2	448313	80.81	0
2	448870	80.91	0
2	449436	81.01	0
2	449993	81.11	0
2	450550	81.21	0
2	451107	81.31	0
2	451664	81.41	0
2	452221	81.51	0
2	452778	81.61	0
2	453335	81.71	0
2	453892	81.81	0
2	454449	81.91	0
2	455015	82.01	0
2	455572	82.11	0
2	456129	82.21	0
2	456686	82.31	0
2	457243	82.41	0
2	457800	82.51	0
2	458357	82.61	0
2	458914	82.71	0
2	459471	82.81	0
2	460028	82.91	0
2	460594	83.01	0
2	461151	83.11	0
2	461708	83.21	0
2	462265	83.31	0
2	462822	83.41	0
2	463379	83.51	0
2	463936	83.61	0
2	464493	83.71	0
2	465050	83.81	0
2	465607	83.91	0
2	466173	84.01	0
2	466730	84.11	0
2	467287	84.21	0
2	467844	84.31	0
2	468401	84.41	0
2	468958	84.51	0
2	469515	84.61	0
2	470072	84.71	0
2	470629	84.81	0
2	471186	84.91	0
2	471752	85.01	0
2	472309	85.11	0
2	472866	85.21	0
2	473423	85.31	0
2	473980	85.41	0
2	474537	85.51	0
2	475094	85.61	0
2	475651	85.71	0
2	476208	85.81	0
2	476765	85.91	0
2	477331	86.01	0
2	477888	86.11	0
2	478445	86.21	0
2	479002	86.31	0
2	479559	86.41	0
2	480116	86.51	0
2	480673	86.61	0
2	481230	86.71	0
2	481787	86.81	0
2	482344	86.91	0
2	482910	87.01	0
2	483467	87.11	0
2	484024	87.21	0
2	484581	87.31	0
2	485138	87.41	0
2	485695	87.51	0
2	486252	87.61	0
2	486809	87.71	0
2	487366	87.81	0
2	487923	87.91	0
2	488489	88.01	0
2	489046	88.11	0
2	489603	88.21	0
2	490160	88.31	0
2	490717	88.41	0
2	491274	88.51	0
2	491831	88.61	0
2	492388	88.71	0
2	492945	88.81	0
2	493502	88.91	0
2	494068	89.01	0
2	494625	89.11	0
2	495182	89.21	0
2	495739	89.31	0
2	496296	89.41	0
2	496853	89.51	0
2	497410	89.61	0
2	497967	89.71	0
2	498524	89.81	0
2	499081	89.91	0
2	499647	90.01	0
2	500204	90.11	0
2	500761	90.21	0
2	501318	90.31	0
2	501875	90.41	0
2	502432	90.51	0
2	502989	90.61	0
2	503546	90.71	0
2	504103	90.81	0
2	504660	90.91	0
2	505226	91.01	0
2	505783	91.11	0
2	506340	91.21	0
2	506897	91.31	0
2	507454	91.41	0
2	508011	91.51	0
2	508568	91.61	0
2	509125	91.71	0
2	509682	91.81	0
2	510239	91.91	0
2	510805	92.01	0
2	511362	92.11	0
2	511919	92.21	0
2	512476	92.31	0
2	513033	92.41	0
2	513590	92.51	0
2	514147	92.61	0
2	514704	92.71	0
2	515261	92.81	0
2	515818	92.91	0
2	516384	93.01	0
2	516941	93.11	0
2	517498	93.21	0
2	518055	93.31	0
2	518612	93.41	0
2	519169	93.51	0
2	519726	93.61	0
2	520283	93.71	0
2	520840	93.81	0
2	521397	93.91	0
2	521963	94.01	0
2	522520	94.11	0
2	523077	94.21	0
2	523634	94.31	0
2	524191	94.41	0
2	524748	94.51	0
2	525305	94.61	0
2	525862	94.71	0
2	526419	94.81	0
2	526976	94.91	0
2	527542	95.01	0
2	528099	95.11	0
2	528656	95.21	0
2	529213	95.31	0
2	529770	95.41	0
2	530327	95.51	0
2	530884	95.61	0
2	531441	95.71	0
2	531998	95.81	0
2	532555	95.91	0
2	533121	96.01	0
2	533678	96.11	0
2	534235	96.21	0
2	534792	96.31	0
2	535349	96.41	0
2	535906	96.51	0
2	536463	96.61	0
2	537020	96.71	0
2	537577	96.81	0
2	538134	96.91	0
2	538700	97.01	0
2	539257	97.11	0
2	539814	97.21	0
2	540371	97.31	0
2	540928	97.41	0
2	541485	97.51	0
2	542042	97.61	0
2	542599	97.71	0
2	543156	97.81	0
2	543713	97.91	0
2	544279	98.01	0
2	544836	98.11	0
2	545393	98.21	0
2	545950	98.31	0
2	546507	98.41	0
2	547064	98.51	0
2	547621	98.61	0
2	548178	98.71	0
2	548735	98.81	0
2	549292	98.91	0
2	549858	99.01	0
2	550415	99.11	0
2	550972	99.21	0
2	551529	99.31	0
2	552086	99.41	0
2	552643	99.51	0
2	553200	99.61	0
2	553757	99.71	0
2	554314	99.81	0
2	554871	99.91	0
3	113	1.11	0.000179096
3	670	1.21	0.000340852
3	1227	1.31	0.000467435
3	1784	1.41	0.000562893
3	2341	1.51	0.000631106
3	2898	1.61	0.000675745
3	3455	1.71	0.000700245
3	4012	1.81	0.000707784
3	4569	1.91	0.000701273
3	5135	2.01	0.000683354
3	5692	2.11	0.000656398
3	6249	2.21	0.000622512
3	6806	2.31	0.000583548
3	7363	2.41	0.000541117
3	7920	2.51	0.000496604
3	8477	2.61	0.000451181
3	9034	2.71	0.000405825
3	9591	2.81	0.00036134
3	10148	2.91	0.000318365
3	10714	3.01	0.0002774
3	11271	3.11	0.00023882
3	11828	3.21	0.000202887
3	12385	3.31	0.00016977
3	12942	3.41	0.000139558
3	13499	3.51	0.000112271
3	14056	3.61	8.78717e-05
3	14613	3.71	6.628e-05
3	15170	3.81	4.73785e-05
3	15727	3.91	3.1023e-05
3	16293	4.01	1.70493e-05
3	16850	4.11	5.28023e-06
3	17407	4.21	-4.46922e-06
3	17964	4.31	-1.2387e-05
3	18521	4.41	-1.86602e-05
3	19078	4.51	-2.34717e-05
3	19635	4.61	-2.69978e-05
3	20192	4.71	-2.94062e-05
3	20749	4.81	-3.08545e-05
3	21306	4.91	-3.14892e-05
3	21872	5.01	-3.14451e-05
3	22429	5.11	-3.0845e-05
3	22986	5.21	-2.97994e-05
3	23543	5.31	-2.84072e-05
3	24100	5.41	-2.67556e-05
3	24657	5.51	-2.49208e-05
3	25214	5.61	-2.29687e-05
3	25771	5.71	-2.09553e-05
3	26328	5.81	-1.89277e-05
3	26885	5.91	-1.6925e-05
3	27451	6.01	-1.49784e-05
3	28008	6.11	-1.31129e-05
3	28565	6.21	-1.13474e-05
3	29122	6.31	-9.69553e-06
3	29679	6.41	-8.16651e-06
3	30236	6.51	-6.76571e-06
3	30793	6.61	-5.49522e-06
3	31350	6.71	-4.35441e-06
3	31907	6.81	-3.34045e-06
3	32464	6.91	-2.44874e-06
3	33030	7.01	-1.6733e-06
3	33587	7.11	-1.00716e-06
3	34144	7.21	-4.42628e-07
3	34701	7.31	2.84224e-08
3	35258	7.41	4.14339e-07
3	35815	7.51	7.23492e-07
3	36372	7.61	9.6413e-07
3	36929	7.71	1.14424e-06
3	37486	7.81	1.27148e-06
3	38043	7.91	1.35305e-06
3	38609	8.01	1.3957e-06
3	39166	8.11	1.40565e-06
3	39723	8.21	1.3886e-06
3	40280	8.31	1.34971e-06
3	40837	8.41	1.2936e-06
3	41394	8.51	1.22437e-06
3	41951	8.61	1.14561e-06
3	42508	8.71	1.06046e-06
3	43065	8.81	9.71582e-07
3	43622	8.91	8.81246e-07
3	44188	9.01	7.91334e-07
3	44745	9.11	7.03381e-07
3	45302	9.21	6.18613e-07
3	45859	9.31	5.37979e-07
3	46416	9.41	4.62183e-07
3	46973	9.51	3.91714e-07
3	47530	9.61	3.26878e-07
3	48087	9.71	2.67827e-07
3	48644	9.81	2.14581e-07
3	49201	9.91	1.67052e-07
3	49852	10.01	1.25066e-07
3	50416	10.11	8.83794e-08
3	50980	10.21	5.66978e-08
3	51544	10.31	2.96922e-08
3	52108	10.41	7.00453e-09
3	52672	10.51	-1.17325e-08
3	53236	10.61	-2.68933e-08
3	53800	10.71	-3.88482e-08
3	54364	10.81	-4.79581e-08
3	54928	10.91	-5.45704e-08
3	55501	11.01	-5.90177e-08
3	56065	11.11	-6.16069e-08
3	56629	11.21	-6.26265e-08
3	57193	11.31	-6.23395e-08
3	57757	11.41	-6.09859e-08
3	58321	11.51	-5.87811e-08
3	58885	11.61	-5.59183e-08
3	59449	11.71	-5.25674e-08
3	60013	11.81	-4.88761e-08
3	60577	11.91	-4.4971e-08
3	61150	12.01	-4.09599e-08
3	61714	12.11	-3.69354e-08
3	62278	12.21	-3.29713e-08
3	62842	12.31	-2.9128e-08
3	63406	12.41	-2.54531e-08
3	63970	12.51	-2.19821e-08
3	64534	12.61	-1.87399e-08
3	65098	12.71	-1.57428e-08
3	65662	12.81	-1.30029e-08
3	66226	12.91	-1.05217e-08
3	66799	13.01	-8.29772e-09
3	67363	13.11	-6.32454e-09
3	67927	13.21	-4.59224e-09
3	68491	13.31	-3.08802e-09
3	69055	13.41	-1.79838e-09
3	69619	13.51	-7.08411e-10
3	70183	13.61	1.98241e-10
3	70747	13.71	9.37916e-10
3	71311	13.81	1.52767e-09
3	71875	13.91	1.98384e-09
3	72448	14.01	2.32276e-09
3	73012	14.11	2.55937e-09
3	73576	14.21	2.70788e-09
3	74140	14.31	2.78249e-09
3	74704	14.41	2.79243e-09
3	75268	14.51	2.7498e-09
3	75832	14.61	2.66525e-09
3	76396	14.71	2.54872e-09
3	76960	14.81	2.40803e-09
3	77524	14.91	2.24887e-09
3	78097	15.01	2.07763e-09
3	78661	15.11	1.89999e-09
3	79225	15.21	1.72236e-09
3	79789	15.31	1.54472e-09
3	80353	15.41	1.37064e-09
3	80917	15.51	1.20295e-09
3	81481	15.61	1.04379e-09
3	82045	15.71	8.94573e-10
3	82609	15.81	7.56017e-10
3	83173	15.91	6.29541e-10
3	83746	16.01	5.13012e-10
3	84310	16.11	4.09273e-10
3	84874	16.21	3.16902e-10
3	85438	16.31	2.3519e-10
3	86002	16.41	1.63425e-10
3	86566	16.51	1.02318e-10
3	87130	16.61	4.9738e-11
3	87694	16.71	5.68434e-12
3	88258	16.81	-3.05533e-11
3	88822	16.91	-5.8975e-11
3	89395	17.01	-8.10019e-11
3	89959	17.11	-9.80549e-11
3	90523	17.21	-1.11555e-10
3	91087	17.31	-1.18661e-10
3	91651	17.41	-1.23634e-10
3	92215	17.51	-1.23634e-10
3	92779	17.61	-1.23634e-10
3	93343	17.71	-1.21503e-10
3	93907	17.81	-1.14397e-10
3	94471	17.91	-1.07292e-10
3	95044	18.01	-1.00187e-10
3	95608	18.11	-9.30811e-11
3	96172	18.21	-8.59757e-11
3	96736	18.31	-7.88702e-11
3	97300	18.41	-7.17648e-11
3	97864	18.51	-6.46594e-11
3	98428	18.61	-5.7554e-11
3	98992	18.71	-5.04485e-11
3	99556	18.81	-4.33431e-11
3	100120	18.91	-3.62377e-11
3	100693	19.01	-2.91323e-11
3	101257	19.11	-2.20268e-11
3	101821	19.21	-1.7053e-11
3	102385	19.31	-1.49214e-11
3	102949	19.41	-1.35003e-11
3	103513	19.51	-1.27898e-11
3	104077	19.61	-1.13687e-11
3	104641	19.71	-9.9476e-12
3	105205	19.81	-9.23706e-12
3	105769	19.91	-8.52651e-12
3	106342	20.01	-7.81597e-12
3	106906	20.11	-7.10543e-12
3	107470	20.21	-6.39488e-12
3	108034	20.31	-5.68434e-12
3	108598	20.41	-4.9738e-12
3	109162	20.51	-4.26326e-12
3	109726	20.61	-4.26326e-12
3	110290	20.71	-3.55271e-12
3	110854	20.81	-3.55271e-12
3	111418	20.91	-2.84217e-12
3	111991	21.01	-2.84217e-12
3	112555	21.11	-2.84217e-12
3	113119	21.21	-2.13163e-12
3	113683	21.31	-2.13163e-12
3	114247	21.41	-2.13163e-12
3	114811	21.51	-1.42109e-12
3	115375	21.61	-1.42109e-12
3	115939	21.71	-1.42109e-12
3	116503	21.81	-1.42109e-12
3	117067	21.91	-1.42109e-12
3	117640	22.01	-7.10543e-13
3	118204	22.11	-7.10543e-13
3	118768	22.21	-7.10543e-13
3	119332	22.31	-7.10543e-13
3	119896	22.41	-7.10543e-13
3	120460	22.51	-7.10543e-13
3	121024	22.61	-7.10543e-13
3	121588	22.71	-7.10543e-13
3	122152	22.81	-7.10543e-13
3	122716	22.91	-7.10543e-13
3	123289	23.01	0
3	123853	23.11	0
3	124417	23.21	0
3	124981	23.31	0
3	125545	23.41	0
3	126109	23.51	0
3	126673	23.61	0
3	127237	23.71	0
3	127801	23.81	0
3	128365	23.91	0
3	128938	24.01	0
3	129502	24.11	0
3	130066	24.21	0
3	130630	24.31	0
3	131194	24.41	0
3	131758	24.51	0
3	132322	24.61	0
3	132886	24.71	0
3	133450	24.81	0
3	134014	24.91	0
3	134587	25.01	0
3	135151	25.11	0
3	135715	25.21	0
3	136279	25.31	0
3	136843	25.41	0
3	137407	25.51	0
3	137971	25.61	0
3	138535	25.71	0
3	139099	25.81	0
3	139663	25.91	0
3	140236	26.01	0
3	140800	26.11	0
3	141364	26.21	0
3	141928	26.31	0
3	142492	26.41	0
3	143056	26.51	0
3	143620	26.61	0
3	144184	26.71	0
3	144748	26.81	0
3	145312	26.91	0
3	145885	27.01	0
3	146449	27.11	0
3	147013	27.21	0
3	147577	27.31	0
3	148141	27.41	0
3	148705	27.51	0
3	149269	27.61	0
3	149833	27.71	0
3	150397	27.81	0
3	150961	27.91	0
3	151534	28.01	0
3	152098	28.11	0
3	152662	28.21	0
3	153226	28.31	0
3	153790	28.41	0
3	154354	28.51	0
3	154918	28.61	0
3	155482	28.71	0
3	156046	28.81	0
3	156610	28.91	0
3	157183	29.01	0
3	157747	29.11	0
3	158311	29.21	0
3	158968	29.31	0
3	159531	29.41	0
3	160094	29.51	0
3	160657	29.61	0
3	161220	29.71	0
3	161783	29.81	0
3	162346	29.91	0
3	162918	30.01	0
3	163481	30.11	0
3	164044	30.21	0
3	164607	30.31	0
3	165170	30.41	0
3	165733	30.51	0
3	166296	30.61	0
3	166859	30.71	0
3	167422	30.81	0
3	167985	30.91	0
3	168557	31.01	0
3	169120	31.11	0
3	169683	31.21	0
3	170246	31.31	0
3	170809	31.41	0
3	171372	31.51	0
3	171935	31.61	0
3	172498	31.71	0
3	173061	31.81	0
3	173624	31.91	0
3	174196	32.01	0
3	174759	32.11	0
3	175322	32.21	0
3	175885	32.31	0
3	176448	32.41	0
3	177011	32.51	0
3	177574	32.61	0
3	178137	32.71	0
3	178700	32.81	0
3	179263	32.91	0
3	179835	33.01	0
3	180398	33.11	0
3	180961	33.21	0
3	181524	33.31	0
3	182087	33.41	0
3	182743	33.51	0
3	183305	33.61	0
3	183867	33.71	0
3	184429	33.81	0
3	184991	33.91	0
3	185562	34.01	0
3	186124	34.11	0
3	186686	34.21	0
3	187248	34.31	0
3	187810	34.41	0
3	188372	34.51	0
3	188934	34.61	0
3	189496	34.71	0
3	190058	34.81	0
3	190620	34.91	0
3	191191	35.01	0
3	191753	35.11	0
3	192315	35.21	0
3	192877	35.31	0
3	193439	35.41	0
3	194001	35.51	0
3	194563	35.61	0
3	195125	35.71	0
3	195687	35.81	0
3	196249	35.91	0
3	196820	36.01	0
3	197382	36.11	0
3	197944	36.21	0
3	198506	36.31	0
3	199068	36.41	0
3	199630	36.51	0
3	200192	36.61	0
3	200754	36.71	0
3	201316	36.81	0
3	201878	36.91	0
3	202449	37.01	0
3	203011	37.11	0
3	203573	37.21	0
3	204135	37.31	0
3	204697	37.41	0
3	205352	37.51	0
3	205913	37.61	0
3	206474	37.71	0
3	207035	37.81	0
3	207596	37.91	0
3	208166	38.01	0
3	208727	38.11	0
3	209288	38.21	0
3	209849	38.31	0
3	210410	38.41	0
3	210971	38.51	0
3	211532	38.61	0
3	212093	38.71	0
3	212654	38.81	0
3	213215	38.91	0
3	213785	39.01	0
3	214346	39.11	0
3	214907	39.21	0
3	215468	39.31	0
3	216029	39.41	0
3	216590	39.51	0
3	217151	39.61	0
3	217712	39.71	0
3	218273	39.81	0
3	218834	39.91	0
3	219404	40.01	0
3	219965	40.11	0
3	220526	40.21	0
3	221087	40.31	0
3	221648	40.41	0
3	222209	40.51	0
3	222770	40.61	0
3	223331	40.71	0
3	223892	40.81	0
3	224453	40.91	0
3	225023	41.01	0
3	225584	41.11	0
3	226145	41.21	0
3	226799	41.31	0
3	227359	41.41	0
3	227919	41.51	0
3	228479	41.61	0
3	229039	41.71	0
3	229599	41.81	0
3	230159	41.91	0
3	230728	42.01	0
3	231288	42.11	0
3	231848	42.21	0
3	232408	42.31	0
3	232968	42.41	0
3	233528	42.51	0
3	234088	42.61	0
3	234648	42.71	0
3	235208	42.81	0
3	235768	42.91	0
3	236337	43.01	0
3	236897	43.11	0
3	237457	43.21	0
3	238017	43.31	0
3	238577	43.41	0
3	239137	43.51	0
3	239697	43.61	0
3	240257	43.71	0
3	240817	43.81	0
3	241377	43.91	0
3	241946	44.01	0
3	242506	44.11	0
3	243066	44.21	0
3	243626	44.31	0
3	244186	44.41	0
3	244746	44.51	0
3	245306	44.61	0
3	245866	44.71	0
3	246426	44.81	0
3	246986	44.91	0
3	247648	45.01	0
3	248207	45.11	0
3	248766	45.21	0
3	249325	45.31	0
3	249884	45.41	0
3	250443	45.51	0
3	251002	45.61	0
3	251561	45.71	0
3	252120	45.81	0
3	252679	45.91	0
3	253247	46.01	0
3	253806	46.11	0
3	254365	46.21	0
3	254924	46.31	0
3	255483	46.41	0
3	256042	46.51	0
3	256601	46.61	0
3	257160	46.71	0
3	257719	46.81	0
3	258278	46.91	0
3	258846	47.01	0
3	259405	47.11	0
3	259964	47.21	0
3	260523	47.31	0
3	261082	47.41	0
3	261641	47.51	0
3	262200	47.61	0
3	262759	47.71	0
3	263318	47.81	0
3	263877	47.91	0
3	264445	48.01	0
3	265004	48.11	0
3	265563	48.21	0
3	266122	48.31	0
3	266681	48.41	0
3	267240	48.51	0
3	267892	48.61	0
3	268450	48.71	0
3	269008	48.81	0
3	269566	48.91	0
3	270133	49.01	0
3	270691	49.11	0
3	271249	49.21	0
3	271807	49.31	0
3	272365	49.41	0
3	272923	49.51	0
3	273481	49.61	0
3	274039	49.71	0
3	274597	49.81	0
3	275155	49.91	0
3	275722	50.01	0
3	276280	50.11	0
3	276838	50.21	0
3	277396	50.31	0
3	277954	50.41	0
3	278512	50.51	0
3	279070	50.61	0
3	279628	50.71	0
3	280186	50.81	0
3	280744	50.91	0
3	281311	51.01	0
3	281869	51.11	0
3	282427	51.21	0
3	282985	51.31	0
3	283543	51.41	0
3	284101	51.51	0
3	284659	51.61	0
3	285217	51.71	0
3	285775	51.81	0
3	286333	51.91	0
3	286900	52.01	0
3	288202	52.11	0
3	288759	52.21	0
3	289316	52.31	0
3	289873	52.41	0
3	290430	52.51	0
3	290987	52.61	0
3	291544	52.71	0
3	292101	52.81	0
3	292658	52.91	0
3	293224	53.01	0
3	293781	53.11	0
3	294338	53.21	0
3	294895	53.31	0
3	295452	53.41	0
3	296009	53.51	0
3	296566	53.61	0
3	297123	53.71	0
3	297680	53.81	0
3	298237	53.91	0
3	298803	54.01	0
3	299360	54.11	0
3	299917	54.21	0
3	300474	54.31	0
3	301031	54.41	0
3	301588	54.51	0
3	302145	54.61	0
3	302702	54.71	0
3	303259	54.81	0
3	303816	54.91	0
3	304382	55.01	0
3	304939	55.11	0
3	305496	55.21	0
3	306053	55.31	0
3	306610	55.41	0
3	307167	55.51	0
3	307724	55.61	0
3	308281	55.71	0
3	308838	55.81	0
3	309395	55.91	0
3	309961	56.01	0
3	310518	56.11	0
3	311075	56.21	0
3	311632	56.31	0
3	312189	56.41	0
3	312746	56.51	0
3	313303	56.61	0
3	313860	56.71	0
3	314417	56.81	0
3	314974	56.91	0
3	315540	57.01	0
3	316097	57.11	0
3	316654	57.21	0
3	317211	57.31	0
3	317768	57.41	0
3	318325	57.51	0
3	318882	57.61	0
3	319439	57.71	0
3	319996	57.81	0
3	320553	57.91	0
3	321119	58.01	0
3	321676	58.11	0
3	322233	58.21	0
3	322790	58.31	0
3	323347	58.41	0
3	323904	58.51	0
3	324461	58.61	0
3	325018	58.71	0
3	325575	58.81	0
3	326132	58.91	0
3	326698	59.01	0
3	327255	59.11	0
3	327812	59.21	0
3	328369	59.31	0
3	328926	59.41	0
3	329483	59.51	0
3	330040	59.61	0
3	330597	59.71	0
3	331154	59.81	0
3	331711	59.91	0
3	332277	60.01	0
3	332834	60.11	0
3	333391	60.21	0
3	333948	60.31	0
3	334505	60.41	0
3	335062	60.51	0
3	335619	60.61	0
3	336176	60.71	0
3	336733	60.81	0
3	337290	60.91	0
3	337856	61.01	0
3	338413	61.11	0
3	338970	61.21	0
3	339527	61.31	0
3	340084	61.41	0
3	340641	61.51	0
3	341198	61.61	0
3	341755	61.71	0
3	342312	61.81	0
3	342869	61.91	0
3	343435	62.01	0
3	343992	62.11	0
3	344549	62.21	0
3	345106	62.31	0
3	345663	62.41	0
3	346220	62.51	0
3	346777	62.61	0
3	347334	62.71	0
3	347891	62.81	0
3	348448	62.91	0
3	349014	63.01	0
3	349571	63.11	0
3	350128	63.21	0
3	350685	63.31	0
3	351242	63.41	0
3	351799	63.51	0
3	352356	63.61	0
3	352913	63.71	0
3	353470	63.81	0
3	354027	63.91	0
3	354593	64.01	0
3	355150	64.11	0
3	355707	64.21	0
3	356264	64.31	0
3	356821	64.41	0
3	357378	64.51	0
3	357935	64.61	0
3	358492	64.71	0
3	359049	64.81	0
3	359606	64.91	0
3	360172	65.01	0
3	360729	65.11	0
3	361286	65.21	0
3	361843	65.31	0
3	362400	65.41	0
3	362957	65.51	0
3	363514	65.61	0
3	364071	65.71	0
3	364628	65.81	0
3	365185	65.91	0
3	365751	66.01	0
3	366308	66.11	0
3	366865	66.21	0
3	367422	66.31	0
3	367979	66.41	0
3	368536	66.51	0
3	369093	66.61	0
3	369650	66.71	0
3	370207	66.81	0
3	370764	66.91	0
3	371330	67.01	0
3	371887	67.11	0
3	372444	67.21	0
3	373001	67.31	0
3	373558	67.41	0
3	374115	67.51	0
3	374672	67.61	0
3	375229	67.71	0
3	375786	67.81	0
3	376343	67.91	0
3	376909	68.01	0
3	377466	68.11	0
3	378023	68.21	0
3	378580	68.31	0
3	379137	68.41	0
3	379694	68.51	0
3	380251	68.61	0
3	380808	68.71	0
3	381365	68.81	0
3	381922	68.91	0
3	382488	69.01	0
3	383045	69.11	0
3	383602	69.21	0
3	384159	69.31	0
3	384716	69.41	0
3	385273	69.51	0
3	385830	69.61	0
3	386387	69.71	0
3	386944	69.81	0
3	387501	69.91	0
3	388067	70.01	0
3	388624	70.11	0
3	389181	70.21	0
3	389738	70.31	0
3	390295	70.41	0
3	390852	70.51	0
3	391409	70.61	0
3	391966	70.71	0
3	392523	70.81	0
3	393080	70.91	0
3	393646	71.01	0
3	394203	71.11	0
3	394760	71.21	0
3	395317	71.31	0
3	395874	71.41	0
3	396431	71.51	0
3	396988	71.61	0
3	397545	71.71	0
3	398102	71.81	0
3	398659	71.91	0
3	399225	72.01	0
3	399782	72.11	0
3	400339	72.21	0
3	400896	72.31	0
3	401453	72.41	0
3	402010	72.51	0
3	402567	72.61	0
3	403124	72.71	0
3	403681	72.81	0
3	404238	72.91	0
3	404804	73.01	0
3	405361	73.11	0
3	405918	73.21	0
3	406475	73.31	0
3	407032	73.41	0
3	407589	73.51	0
3	408146	73.61	0
3	408703	73.71	0
3	409260	73.81	0
3	409817	73.91	0
3	410383	74.01	0
3	410940	74.11	0
3	411497	74.21	0
3	412054	74.31	0
3	412611	74.41	0
3	413168	74.51	0
3	413725	74.61	0
3	414282	74.71	0
3	414839	74.81	0
3	415396	74.91	0
3	415962	75.01	0
3	416519	75.11	0
3	417076	75.21	0
3	417633	75.31	0
3	418190	75.41	0
3	418747	75.51	0
3	419304	75.61	0
3	419861	75.71	0
3	420418	75.81	0
3	420975	75.91	0
3	421541	76.01	0
3	422098	76.11	0
3	422655	76.21	0
3	423212	76.31	0
3	423769	76.41	0
3	424326	76.51	0
3	424883	76.61	0
3	425440	76.71	0
3	425997	76.81	0
3	426554	76.91	0
3	427120	77.01	0
3	427677	77.11	0
3	428234	77.21	0
3	428791	77.31	0
3	429348	77.41	0
3	429905	77.51	0
3	430462	77.61	0
3	431019	77.71	0
3	431576	77.81	0
3	432133	77.91	0
3	432699	78.01	0
3	433256	78.11	0
3	433813	78.21	0
3	434370	78.31	0
3	434927	78.41	0
3	435484	78.51	0
3	436041	78.61	0
3	436598	78.71	0
3	437155	78.81	0
3	437712	78.91	0
3	438278	79.01	0
3	438835	79.11	0
3	439392	79.21	0
3	439949	79.31	0
3	440506	79.41	0
3	441063	79.51	0
3	441620	79.61	0
3	442177	79.71	0
3	442734	79.81	0
3	443291	79.91	0
3	443857	80.01	0
3	444414	80.11	0
3	444971	80.21	0
3	445528	80.31	0
3	446085	80.41	0
3	446642	80.51	0
3	447199	80.61	0
3	447756	80.71	0
3	448313	80.81	0
3	448870	80.91	0
3	449436	81.01	0
3	449993	81.11	0
3	450550	81.21	0
3	451107	81.31	0
3	451664	81.41	0
3	452221	81.51	0
3	452778	81.61	0
3	453335	81.71	0
3	453892	81.81	0
3	454449	81.91	0
3	455015	82.01	0
3	455572	82.11	0
3	456129	82.21	0
3	456686	82.31	0
3	457243	82.41	0
3	457800	82.51	0
3	458357	82.61	0
3	458914	82.71	0
3	459471	82.81	0
3	460028	82.91	0
3	460594	83.01	0
3	461151	83.11	0
3	461708	83.21	0
3	462265	83.31	0
3	462822	83.41	0
3	463379	83.51	0
3	463936	83.61	0
3	464493	83.71	0
3	465050	83.81	0
3	465607	83.91	0
3	466173	84.01	0
3	466730	84.11	0
3	467287	84.21	0
3	467844	84.31	0
3	468401	84.41	0
3	468958	84.51	0
3	469515	84.61	0
3	470072	84.71	0
3	470629	84.81	0
3	471186	84.91	0
3	471752	85.01	0
3	472309	85.11	0
3	472866	85.21	0
3	473423	85.31	0
3	473980	85.41	0
3	474537	85.51	0
3	475094	85.61	0
3	475651	85.71	0
3	476208	85.81	0
3	476765	85.91	0
3	477331	86.01	0
3	477888	86.11	0
3	478445	86.21	0
3	479002	86.31	0
3	479559	86.41	0
3	480116	86.51	0
3	480673	86.61	0
3	481230	86.71	0
3	481787	86.81	0
3	482344	86.91	0
3	482910	87.01	0
3	483467	87.11	0
3	484024	87.21	0
3	484581	87.31	0
3	485138	87.41	0
3	485695	87.51	0
3	486252	87.61	0
3	486809	87.71	0
3	487366	87.81	0
3	487923	87.91	0
3	488489	88.01	0
3	489046	88.11	0
3	489603	88.21	0
3	490160	88.31	0
3	490717	88.41	0
3	491274	88.51	0
3	491831	88.61	0
3	492388	88.71	0
3	492945	88.81	0
3	493502	88.91	0
3	494068	89.01	0
3	494625	89.11	0
3	495182	89.21	0
3	495739	89.31	0
3	496296	89.41	0
3	496853	89.51	0
3	497410	89.61	0
3	497967	89.71	0
3	498524	89.81	0
3	499081	89.91	0
3	499647	90.01	0
3	500204	90.11	0
3	500761	90.21	0
3	501318	90.31	0
3	501875	90.41	0
3	502432	90.51	0
3	502989	90.61	0
3	503546	90.71	0
3	504103	90.81	0
3	504660	90.91	0
3	505226	91.01	0
3	505783	91.11	0
3	506340	91.21	0
3	506897	91.31	0
3	507454	91.41	0
3	508011	91.51	0
3	508568	91.61	0
3	509125	91.71	0
3	509682	91.81	0
3	510239	91.91	0
3	510805	92.01	0
3	511362	92.11	0
3	511919	92.21	0
3	512476	92.31	0
3	513033	92.41	0
3	513590	92.51	0
3	514147	92.61	0
3	514704	92.71	0
3	515261	92.81	0
3	515818	92.91	0
3	516384	93.01	0
3	516941	93.11	0
3	517498	93.21	0
[...]
115	415957	75	5
115	421536	76	5
115	427115	77	5
115	432694	78	5
115	438273	79	5
115	443852	80	5
115	449431	81	5
115	455010	82	5
115	460589	83	5
115	466168	84	5
115	471747	85	5
115	477326	86	5
115	482905	87	5
115	488484	88	5
115	494063	89	5
115	499642	90	5
115	505221	91	5
115	510800	92	5
115	516379	93	5
115	521958	94	5
115	527537	95	5
115	533116	96	5
115	538695	97	5
115	544274	98	5
115	549853	99	5
115	555432	100	5
116	5130	2	0.022473
116	10709	3	0.02497
116	16288	4	0.02497
116	21867	5	0.02497
116	27446	6	0.02497
116	33025	7	0.02497
116	38604	8	0.02497
116	44183	9	0.02497
116	49764	10	0.02497
116	55489	11	0.025018
116	61138	12	0.02497
116	66787	13	0.02497
116	72436	14	0.02497
116	78085	15	0.02497
116	83734	16	0.02497
116	89383	17	0.02497
116	95032	18	0.02497
116	100681	19	0.02497
116	106330	20	0.02497
116	111979	21	0.02497
116	117628	22	0.02497
116	123277	23	0.02497
116	128926	24	0.02497
116	134575	25	0.02497
116	140224	26	0.02497
116	145873	27	0.02497
116	151522	28	0.02497
116	157171	29	0.02497
116	162907	30	0.025082
116	168546	31	0.02497
116	174185	32	0.02497
116	179824	33	0.02497
116	185552	34	0.025082
116	191181	35	0.02497
116	196810	36	0.02497
116	202439	37	0.02497
116	208157	38	0.025082
116	213776	39	0.02497
116	219395	40	0.02497
116	225014	41	0.02497
116	230720	42	0.025082
116	236329	43	0.02497
116	241938	44	0.02497
116	247547	45	0.02497
116	253240	46	0.025115231948
116	258839	47	0.02497
116	264438	48	0.02497
116	270127	49	0.025082
116	275716	50	0.02497
116	281305	51	0.02497
116	286894	52	0.02497
116	293219	53	0.025898
116	298798	54	0.02497
116	304377	55	0.02497
116	309956	56	0.02497
116	315535	57	0.02497
116	321114	58	0.02497
116	326693	59	0.02497
116	332272	60	0.02497
116	337851	61	0.02497
116	343430	62	0.02497
116	349009	63	0.02497
116	354588	64	0.02497
116	360167	65	0.02497
116	365746	66	0.02497
116	371325	67	0.02497
116	376904	68	0.02497
116	382483	69	0.02497
116	388062	70	0.02497
116	393641	71	0.02497
116	399220	72	0.02497
116	404799	73	0.02497
116	410378	74	0.02497
116	415957	75	0.02497
116	421536	76	0.02497
116	427115	77	0.02497
116	432694	78	0.02497
116	438273	79	0.02497
116	443852	80	0.02497
116	449431	81	0.02497
116	455010	82	0.02497
116	460589	83	0.02497
116	466168	84	0.02497
116	471747	85	0.02497
116	477326	86	0.02497
116	482905	87	0.02497
116	488484	88	0.02497
116	494063	89	0.02497
116	499642	90	0.02497
116	505221	91	0.02497
116	510800	92	0.02497
116	516379	93	0.02497
116	521958	94	0.02497
116	527537	95	0.02497
116	533116	96	0.02497
116	538695	97	0.02497
116	544274	98	0.02497
116	549853	99	0.02497
116	555432	100	0.02497
117	5130	2	0
117	10709	3	0
117	16288	4	0
117	21867	5	0
117	27446	6	0
117	33025	7	0
117	38604	8	0
117	44183	9	0
117	49764	10	0
117	55489	11	0
117	61138	12	0
117	66787	13	0
117	72436	14	0
117	78085	15	0
117	83734	16	0
117	89383	17	0
117	95032	18	0
117	100681	19	0
117	106330	20	0
117	111979	21	0
117	117628	22	0
117	123277	23	0
117	128926	24	0
117	134575	25	0
117	140224	26	0
117	145873	27	0
117	151522	28	0
117	157171	29	0
117	162907	30	0
117	168546	31	0
117	174185	32	0
117	179824	33	0
117	185552	34	0
117	191181	35	0
117	196810	36	0
117	202439	37	0
117	208157	38	0
117	213776	39	0
117	219395	40	0
117	225014	41	0
117	230720	42	0
117	236329	43	0
117	241938	44	0
117	247547	45	0
117	253240	46	0
117	258839	47	0
117	264438	48	0
117	270127	49	0
117	275716	50	0
117	281305	51	0
117	286894	52	0
117	293219	53	0
117	298798	54	0
117	304377	55	0
117	309956	56	0
117	315535	57	0
117	321114	58	0
117	326693	59	0
117	332272	60	0
117	337851	61	0
117	343430	62	0
117	349009	63	0
117	354588	64	0
117	360167	65	0
117	365746	66	0
117	371325	67	0
117	376904	68	0
117	382483	69	0
117	388062	70	0
117	393641	71	0
117	399220	72	0
117	404799	73	0
117	410378	74	0
117	415957	75	0
117	421536	76	0
117	427115	77	0
117	432694	78	0
117	438273	79	0
117	443852	80	0
117	449431	81	0
117	455010	82	0
117	460589	83	0
117	466168	84	0
117	471747	85	0
117	477326	86	0
117	482905	87	0
117	488484	88	0
117	494063	89	0
117	499642	90	0
117	505221	91	0
117	510800	92	0
117	516379	93	0
117	521958	94	0
117	527537	95	0
117	533116	96	0
117	538695	97	0
117	544274	98	0
117	549853	99	0
117	555432	100	0
118	5131	2	6
118	10710	3	6
118	16289	4	6
118	21868	5	6
118	27447	6	6
118	33026	7	6
118	38605	8	6
118	44184	9	6
118	49765	10	6
118	55490	11	6
118	61139	12	6
118	66788	13	6
118	72437	14	6
118	78086	15	6
118	83735	16	6
118	89384	17	6
118	95033	18	6
118	100682	19	6
118	106331	20	6
118	111980	21	6
118	117629	22	6
118	123278	23	6
118	128927	24	6
118	134576	25	6
118	140225	26	6
118	145874	27	6
118	151523	28	6
118	157172	29	6
118	162908	30	6
118	168547	31	6
118	174186	32	6
118	179825	33	6
118	185553	34	6
118	191182	35	6
118	196811	36	6
118	202440	37	6
118	208158	38	6
118	213777	39	6
118	219396	40	6
118	225015	41	6
118	230721	42	6
118	236330	43	6
118	241939	44	6
118	247548	45	6
118	253241	46	6
118	258840	47	6
118	264439	48	6
118	270128	49	6
118	275717	50	6
118	281306	51	6
118	286895	52	6
118	293220	53	6
118	298799	54	6
118	304378	55	6
118	309957	56	6
118	315536	57	6
118	321115	58	6
118	326694	59	6
118	332273	60	6
118	337852	61	6
118	343431	62	6
118	349010	63	6
118	354589	64	6
118	360168	65	6
118	365747	66	6
118	371326	67	6
118	376905	68	6
118	382484	69	6
118	388063	70	6
118	393642	71	6
118	399221	72	6
118	404800	73	6
118	410379	74	6
118	415958	75	6
118	421537	76	6
118	427116	77	6
118	432695	78	6
118	438274	79	6
118	443853	80	6
118	449432	81	6
118	455011	82	6
118	460590	83	6
118	466169	84	6
118	471748	85	6
118	477327	86	6
118	482906	87	6
118	488485	88	6
118	494064	89	6
118	499643	90	6
118	505222	91	6
118	510801	92	6
118	516380	93	6
118	521959	94	6
118	527538	95	6
118	533117	96	6
118	538696	97	6
118	544275	98	6
118	549854	99	6
118	555433	100	6
119	5131	2	0.022473
119	10710	3	0.02497
119	16289	4	0.02497
119	21868	5	0.02497
119	27447	6	0.02497
119	33026	7	0.02497
119	38605	8	0.02497
119	44184	9	0.02497
119	49765	10	0.02497
119	55490	11	0.025018
119	61139	12	0.02497
119	66788	13	0.02497
119	72437	14	0.02497
119	78086	15	0.02497
119	83735	16	0.02497
119	89384	17	0.02497
119	95033	18	0.02497
119	100682	19	0.02497
119	106331	20	0.02497
119	111980	21	0.02497
119	117629	22	0.02497
119	123278	23	0.02497
119	128927	24	0.02497
119	134576	25	0.02497
119	140225	26	0.02497
119	145874	27	0.02497
119	151523	28	0.02497
119	157172	29	0.02497
119	162908	30	0.025082
119	168547	31	0.02497
119	174186	32	0.02497
119	179825	33	0.02497
119	185553	34	0.025082
119	191182	35	0.02497
119	196811	36	0.02497
119	202440	37	0.02497
119	208158	38	0.025082
119	213777	39	0.02497
119	219396	40	0.02497
119	225015	41	0.02497
119	230721	42	0.025082
119	236330	43	0.02497
119	241939	44	0.02497
119	247548	45	0.02497
119	253241	46	0.025082
119	258840	47	0.02497
119	264439	48	0.02497
119	270128	49	0.025115278522
119	275717	50	0.02497
119	281306	51	0.02497
119	286895	52	0.02497
119	293220	53	0.025898
119	298799	54	0.02497
119	304378	55	0.02497
119	309957	56	0.02497
119	315536	57	0.02497
119	321115	58	0.02497
119	326694	59	0.02497
119	332273	60	0.02497
119	337852	61	0.02497
119	343431	62	0.02497
119	349010	63	0.02497
119	354589	64	0.02497
119	360168	65	0.02497
119	365747	66	0.02497
119	371326	67	0.02497
119	376905	68	0.02497
119	382484	69	0.02497
119	388063	70	0.02497
119	393642	71	0.02497
119	399221	72	0.02497
119	404800	73	0.02497
119	410379	74	0.02497
119	415958	75	0.02497
119	421537	76	0.02497
119	427116	77	0.02497
119	432695	78	0.02497
119	438274	79	0.02497
119	443853	80	0.02497
119	449432	81	0.02497
119	455011	82	0.02497
119	460590	83	0.02497
119	466169	84	0.02497
119	471748	85	0.02497
119	477327	86	0.02497
119	482906	87	0.02497
119	488485	88	0.02497
119	494064	89	0.02497
119	499643	90	0.02497
119	505222	91	0.02497
119	510801	92	0.02497
119	516380	93	0.02497
119	521959	94	0.02497
119	527538	95	0.02497
119	533117	96	0.02497
119	538696	97	0.02497
119	544275	98	0.02497
119	549854	99	0.02497
119	555433	100	0.02497
120	5131	2	0
120	10710	3	0
120	16289	4	0
120	21868	5	0
120	27447	6	0
120	33026	7	0
120	38605	8	0
120	44184	9	0
120	49765	10	0
120	55490	11	0
120	61139	12	0
120	66788	13	0
120	72437	14	0
120	78086	15	0
120	83735	16	0
120	89384	17	0
120	95033	18	0
120	100682	19	0
120	106331	20	0
120	111980	21	0
120	117629	22	0
120	123278	23	0
120	128927	24	0
120	134576	25	0
120	140225	26	0
120	145874	27	0
120	151523	28	0
120	157172	29	0
120	162908	30	0
120	168547	31	0
120	174186	32	0
120	179825	33	0
120	185553	34	0
120	191182	35	0
120	196811	36	0
120	202440	37	0
120	208158	38	0
120	213777	39	0
120	219396	40	0
120	225015	41	0
120	230721	42	0
120	236330	43	0
120	241939	44	0
120	247548	45	0
120	253241	46	0
120	258840	47	0
120	264439	48	0
120	270128	49	0
120	275717	50	0
120	281306	51	0
120	286895	52	0
120	293220	53	0
120	298799	54	0
120	304378	55	0
120	309957	56	0
120	315536	57	0
120	321115	58	0
120	326694	59	0
120	332273	60	0
120	337852	61	0
120	343431	62	0
120	349010	63	0
120	354589	64	0
120	360168	65	0
120	365747	66	0
120	371326	67	0
120	376905	68	0
120	382484	69	0
120	388063	70	0
120	393642	71	0
120	399221	72	0
120	404800	73	0
120	410379	74	0
120	415958	75	0
120	421537	76	0
120	427116	77	0
120	432695	78	0
120	438274	79	0
120	443853	80	0
120	449432	81	0
120	455011	82	0
120	460590	83	0
120	466169	84	0
120	471748	85	0
120	477327	86	0
120	482906	87	0
120	488485	88	0
120	494064	89	0
120	499643	90	0
120	505222	91	0
120	510801	92	0
120	516380	93	0
120	521959	94	0
120	527538	95	0
120	533117	96	0
120	538696	97	0
120	544275	98	0
120	549854	99	0
120	555433	100	0
121	5132	2	7
121	10711	3	7
121	16290	4	7
121	21869	5	7
121	27448	6	7
121	33027	7	7
121	38606	8	7
121	44185	9	7
121	49766	10	7
121	55491	11	7
121	61140	12	7
121	66789	13	7
121	72438	14	7
121	78087	15	7
121	83736	16	7
121	89385	17	7
121	95034	18	7
121	100683	19	7
121	106332	20	7
121	111981	21	7
121	117630	22	7
121	123279	23	7
121	128928	24	7
121	134577	25	7
121	140226	26	7
121	145875	27	7
121	151524	28	7
121	157173	29	7
121	162909	30	7
121	168548	31	7
121	174187	32	7
121	179826	33	7
121	185554	34	7
121	191183	35	7
121	196812	36	7
121	202441	37	7
121	208159	38	7
121	213778	39	7
121	219397	40	7
121	225016	41	7
121	230722	42	7
121	236331	43	7
121	241940	44	7
121	247549	45	7
121	253242	46	7
121	258841	47	7
121	264440	48	7
121	270129	49	7
121	275718	50	7
121	281307	51	7
121	286896	52	7
121	293221	53	7
121	298800	54	7
121	304379	55	7
121	309958	56	7
121	315537	57	7
121	321116	58	7
121	326695	59	7
121	332274	60	7
121	337853	61	7
121	343432	62	7
121	349011	63	7
121	354590	64	7
121	360169	65	7
121	365748	66	7
121	371327	67	7
121	376906	68	7
121	382485	69	7
121	388064	70	7
121	393643	71	7
121	399222	72	7
121	404801	73	7
121	410380	74	7
121	415959	75	7
121	421538	76	7
121	427117	77	7
121	432696	78	7
121	438275	79	7
121	443854	80	7
121	449433	81	7
121	455012	82	7
121	460591	83	7
121	466170	84	7
121	471749	85	7
121	477328	86	7
121	482907	87	7
121	488486	88	7
121	494065	89	7
121	499644	90	7
121	505223	91	7
121	510802	92	7
121	516381	93	7
121	521960	94	7
121	527539	95	7
121	533118	96	7
121	538697	97	7
121	544276	98	7
121	549855	99	7
121	555434	100	7
122	5132	2	0.022473
122	10711	3	0.02497
122	16290	4	0.02497
122	21869	5	0.02497
122	27448	6	0.02497
122	33027	7	0.02497
122	38606	8	0.02497
122	44185	9	0.02497
122	49766	10	0.02497
122	55491	11	0.025018
122	61140	12	0.02497
122	66789	13	0.02497
122	72438	14	0.02497
122	78087	15	0.02497
122	83736	16	0.02497
122	89385	17	0.02497
122	95034	18	0.02497
122	100683	19	0.02497
122	106332	20	0.02497
122	111981	21	0.02497
122	117630	22	0.02497
122	123279	23	0.02497
122	128928	24	0.02497
122	134577	25	0.02497
122	140226	26	0.02497
122	145875	27	0.02497
122	151524	28	0.02497
122	157173	29	0.02497
122	162909	30	0.025082
122	168548	31	0.02497
122	174187	32	0.02497
122	179826	33	0.02497
122	185554	34	0.025082
122	191183	35	0.02497
122	196812	36	0.02497
122	202441	37	0.02497
122	208159	38	0.025082
122	213778	39	0.02497
122	219397	40	0.02497
122	225016	41	0.02497
122	230722	42	0.025082
122	236331	43	0.02497
122	241940	44	0.02497
122	247549	45	0.02497
122	253242	46	0.025082
122	258841	47	0.02497
122	264440	48	0.02497
122	270129	49	0.025082
122	275718	50	0.02497
122	281307	51	0.02497
122	286896	52	0.02497
122	293221	53	0.025931325104
122	298800	54	0.02497
122	304379	55	0.02497
122	309958	56	0.02497
122	315537	57	0.02497
122	321116	58	0.02497
122	326695	59	0.02497
122	332274	60	0.02497
122	337853	61	0.02497
122	343432	62	0.02497
122	349011	63	0.02497
122	354590	64	0.02497
122	360169	65	0.02497
122	365748	66	0.02497
122	371327	67	0.02497
122	376906	68	0.02497
122	382485	69	0.02497
122	388064	70	0.02497
122	393643	71	0.02497
122	399222	72	0.02497
122	404801	73	0.02497
122	410380	74	0.02497
122	415959	75	0.02497
122	421538	76	0.02497
122	427117	77	0.02497
122	432696	78	0.02497
122	438275	79	0.02497
122	443854	80	0.02497
122	449433	81	0.02497
122	455012	82	0.02497
122	460591	83	0.02497
122	466170	84	0.02497
122	471749	85	0.02497
122	477328	86	0.02497
122	482907	87	0.02497
122	488486	88	0.02497
122	494065	89	0.02497
122	499644	90	0.02497
122	505223	91	0.02497
122	510802	92	0.02497
122	516381	93	0.02497
122	521960	94	0.02497
122	527539	95	0.02497
122	533118	96	0.02497
122	538697	97	0.02497
122	544276	98	0.02497
122	549855	99	0.02497
122	555434	100	0.02497
123	5132	2	0
123	10711	3	0
123	16290	4	0
123	21869	5	0
123	27448	6	0
123	33027	7	0
123	38606	8	0
123	44185	9	0
123	49766	10	0
123	55491	11	0
123	61140	12	0
123	66789	13	0
123	72438	14	0
123	78087	15	0
123	83736	16	0
123	89385	17	0
123	95034	18	0
123	100683	19	0
123	106332	20	0
123	111981	21	0
123	117630	22	0
123	123279	23	0
123	128928	24	0
123	134577	25	0
123	140226	26	0
123	145875	27	0
123	151524	28	0
123	157173	29	0
123	162909	30	0
123	168548	31	0
123	174187	32	0
123	179826	33	0
123	185554	34	0
123	191183	35	0
123	196812	36	0
123	202441	37	0
123	208159	38	0
123	213778	39	0
123	219397	40	0
123	225016	41	0
123	230722	42	0
123	236331	43	0
123	241940	44	0
123	247549	45	0
123	253242	46	0
123	258841	47	0
123	264440	48	0
123	270129	49	0
123	275718	50	0
123	281307	51	0
123	286896	52	0
123	293221	53	0
123	298800	54	0
123	304379	55	0
123	309958	56	0
123	315537	57	0
123	321116	58	0
123	326695	59	0
123	332274	60	0
123	337853	61	0
123	343432	62	0
123	349011	63	0
123	354590	64	0
123	360169	65	0
123	365748	66	0
123	371327	67	0
123	376906	68	0
123	382485	69	0
123	388064	70	0
123	393643	71	0
123	399222	72	0
123	404801	73	0
123	410380	74	0
123	415959	75	0
123	421538	76	0
123	427117	77	0
123	432696	78	0
123	438275	79	0
123	443854	80	0
123	449433	81	0
123	455012	82	0
123	460591	83	0
123	466170	84	0
123	471749	85	0
123	477328	86	0
123	482907	87	0
123	488486	88	0
123	494065	89	0
123	499644	90	0
123	505223	91	0
123	510802	92	0
123	516381	93	0
123	521960	94	0
123	527539	95	0
123	533118	96	0
123	538697	97	0
123	544276	98	0
123	549855	99	0
123	555434	100	0
124	5133	2	8
124	10712	3	8
124	16291	4	8
124	21870	5	8
124	27449	6	8
124	33028	7	8
124	38607	8	8
124	44186	9	8
124	49767	10	8
124	55492	11	8
124	61141	12	8
124	66790	13	8
124	72439	14	8
124	78088	15	8
124	83737	16	8
124	89386	17	8
124	95035	18	8
124	100684	19	8
124	106333	20	8
124	111982	21	8
124	117631	22	8
124	123280	23	8
124	128929	24	8
124	134578	25	8
124	140227	26	8
124	145876	27	8
124	151525	28	8
124	157174	29	8
124	162910	30	8
124	168549	31	8
124	174188	32	8
124	179827	33	8
124	185555	34	8
124	191184	35	8
124	196813	36	8
124	202442	37	8
124	208160	38	8
124	213779	39	8
124	219398	40	8
124	225017	41	8
124	230723	42	8
124	236332	43	8
124	241941	44	8
124	247550	45	8
124	253243	46	8
124	258842	47	8
124	264441	48	8
124	270130	49	8
124	275719	50	8
124	281308	51	8
124	286897	52	8
124	293222	53	8
124	298801	54	8
124	304380	55	8
124	309959	56	8
124	315538	57	8
124	321117	58	8
124	326696	59	8
124	332275	60	8
124	337854	61	8
124	343433	62	8
124	349012	63	8
124	354591	64	8
124	360170	65	8
124	365749	66	8
124	371328	67	8
124	376907	68	8
124	382486	69	8
124	388065	70	8
124	393644	71	8
124	399223	72	8
124	404802	73	8
124	410381	74	8
124	415960	75	8
124	421539	76	8
124	427118	77	8
124	432697	78	8
124	438276	79	8
124	443855	80	8
124	449434	81	8
124	455013	82	8
124	460592	83	8
124	466171	84	8
124	471750	85	8
124	477329	86	8
124	482908	87	8
124	488487	88	8
124	494066	89	8
124	499645	90	8
124	505224	91	8
124	510803	92	8
124	516382	93	8
124	521961	94	8
124	527540	95	8
124	533119	96	8
124	538698	97	8
124	544277	98	8
124	549856	99	8
124	555435	100	8
125	5133	2	0.002817
125	10712	3	0.00313
125	16291	4	0.00313
125	21870	5	0.00313
125	27449	6	0.00313
125	33028	7	0.00313
125	38607	8	0.00313
125	44186	9	0.00313
125	49767	10	0.00313
125	55492	11	0.003179
125	61141	12	0.00313
125	66790	13	0.00313
125	72439	14	0.00313
125	78088	15	0.00313
125	83737	16	0.00313
125	89386	17	0.00313
125	95035	18	0.00313
125	100684	19	0.00313
125	106333	20	0.00313
125	111982	21	0.00313
125	117631	22	0.00313
125	123280	23	0.00313
125	128929	24	0.00313
125	134578	25	0.00313
125	140227	26	0.00313
125	145876	27	0.00313
125	151525	28	0.00313
125	157174	29	0.00313
125	162910	30	0.00313
125	168549	31	0.00313
125	174188	32	0.00313
125	179827	33	0.00313
125	185555	34	0.00313
125	191184	35	0.00313
125	196813	36	0.00313
125	202442	37	0.00313
125	208160	38	0.00313
125	213779	39	0.00313
125	219398	40	0.00313
125	225017	41	0.00313
125	230723	42	0.00313
125	236332	43	0.00313
125	241941	44	0.00313
125	247550	45	0.00313
125	253243	46	0.00313
125	258842	47	0.00313
125	264441	48	0.00313
125	270130	49	0.00313
125	275719	50	0.00313
125	281308	51	0.00313
125	286897	52	0.00313
125	293222	53	0.00313
125	298801	54	0.00313
125	304380	55	0.00313
125	309959	56	0.00313
125	315538	57	0.00313
125	321117	58	0.00313
125	326696	59	0.00313
125	332275	60	0.00313
125	337854	61	0.00313
125	343433	62	0.00313
125	349012	63	0.00313
125	354591	64	0.00313
125	360170	65	0.00313
125	365749	66	0.00313
125	371328	67	0.00313
125	376907	68	0.00313
125	382486	69	0.00313
125	388065	70	0.00313
125	393644	71	0.00313
125	399223	72	0.00313
125	404802	73	0.00313
125	410381	74	0.00313
125	415960	75	0.00313
125	421539	76	0.00313
125	427118	77	0.00313
125	432697	78	0.00313
125	438276	79	0.00313
125	443855	80	0.00313
125	449434	81	0.00313
125	455013	82	0.00313
125	460592	83	0.00313
125	466171	84	0.00313
125	471750	85	0.00313
125	477329	86	0.00313
125	482908	87	0.00313
125	488487	88	0.00313
125	494066	89	0.00313
125	499645	90	0.00313
125	505224	91	0.00313
125	510803	92	0.00313
125	516382	93	0.00313
125	521961	94	0.00313
125	527540	95	0.00313
125	533119	96	0.00313
125	538698	97	0.00313
125	544277	98	0.00313
125	549856	99	0.00313
125	555435	100	0.00313
126	5133	2	0
126	10712	3	0
126	16291	4	0
126	21870	5	0
126	27449	6	0
126	33028	7	0
126	38607	8	0
126	44186	9	0
126	49767	10	0
126	55492	11	0
126	61141	12	0
126	66790	13	0
126	72439	14	0
126	78088	15	0
126	83737	16	0
126	89386	17	0
126	95035	18	0
126	100684	19	0
126	106333	20	0
126	111982	21	0
126	117631	22	0
126	123280	23	0
126	128929	24	0
126	134578	25	0
126	140227	26	0
126	145876	27	0
126	151525	28	0
126	157174	29	0
126	162910	30	0
126	168549	31	0
126	174188	32	0
126	179827	33	0
126	185555	34	0
126	191184	35	0
126	196813	36	0
126	202442	37	0
126	208160	38	0
126	213779	39	0
126	219398	40	0
126	225017	41	0
126	230723	42	0
126	236332	43	0
126	241941	44	0
126	247550	45	0
126	253243	46	0
126	258842	47	0
126	264441	48	0
126	270130	49	0
126	275719	50	0
126	281308	51	0
126	286897	52	0
126	293222	53	0
126	298801	54	0
126	304380	55	0
126	309959	56	0
126	315538	57	0
126	321117	58	0
126	326696	59	0
126	332275	60	0
126	337854	61	0
126	343433	62	0
126	349012	63	0
126	354591	64	0
126	360170	65	0
126	365749	66	0
126	371328	67	0
126	376907	68	0
126	382486	69	0
126	388065	70	0
126	393644	71	0
126	399223	72	0
126	404802	73	0
126	410381	74	0
126	415960	75	0
126	421539	76	0
126	427118	77	0
126	432697	78	0
126	438276	79	0
126	443855	80	0
126	449434	81	0
126	455013	82	0
126	460592	83	0
126	466171	84	0
126	471750	85	0
126	477329	86	0
126	482908	87	0
126	488487	88	0
126	494066	89	0
126	499645	90	0
126	505224	91	0
126	510803	92	0
126	516382	93	0
126	521961	94	0
126	527540	95	0
126	533119	96	0
126	538698	97	0
126	544277	98	0
126	549856	99	0
126	555435	100	0

