file 783964 1720624519                                          
version 3
run BreakRanksNoGui-830-20240710-17:15:16-270746
attr configname BreakRanksNoGui
attr datetime 20240710-17:15:16
attr datetimef 20240710-171516
attr experiment BreakRanksNoGui
attr inifile omnetpp.ini
attr iterationvars "$nCars=3, $platoonSize=3, $nLanes=1, $ploegH=0.5, $controller=1, $headway=0.1, $leaderHeadway=1.2, $leaderSpeed=130, $breakRanksSafetyDistance=10, $minSpeed=120, $maxSpeed=140, $beaconInterval=0.1, $priority=4, $packetSize=200, $sController=\"CACC\", $0=2, $1=0"
attr iterationvarsd nCars=3/platoonSize=3/nLanes=1/ploegH=0.5/controller=1/headway=0.1/leaderHeadway=1.2/leaderSpeed=130/breakRanksSafetyDistance=10/minSpeed=120/maxSpeed=140/beaconInterval=0.1/priority=4/packetSize=200/sController=CACC/2/0
attr iterationvarsf nCars=3,platoonSize=3,nLanes=1,ploegH=0.5,controller=1,headway=0.1,leaderHeadway=1.2,leaderSpeed=130,breakRanksSafetyDistance=10,minSpeed=120,maxSpeed=140,beaconInterval=0.1,priority=4,packetSize=200,sController=CACC,2,0-
attr measurement "$nCars=3, $platoonSize=3, $nLanes=1, $ploegH=0.5, $controller=1, $headway=0.1, $leaderHeadway=1.2, $leaderSpeed=130, $breakRanksSafetyDistance=10, $minSpeed=120, $maxSpeed=140, $beaconInterval=0.1, $priority=4, $packetSize=200, $sController=\"CACC\", $0=2, $1=0"
attr network Highway
attr processid 270746
attr repetition 0
attr replication #0
attr resultdir results
attr runnumber 830
attr seedset 0
itervar beaconInterval 0.1
itervar breakRanksSafetyDistance 10
itervar controller 1
itervar headway 0.1
itervar leaderHeadway 1.2
itervar leaderSpeed 130
itervar maxSpeed 140
itervar minSpeed 120
itervar nCars 3
itervar nLanes 1
itervar packetSize 200
itervar platoonSize 3
itervar ploegH 0.5
itervar priority 4
itervar sController "\"CACC\""
config image-path ../../../veins/images
config repeat 10
config extends BreakRanks
config *.manager.command "\"sumo\""
config *.manager.ignoreGuiCommands true
config output-vector-file "results/BreakRanks_1_0.1_130_10_3 /result_0.vec"
config output-scalar-file "results/BreakRanks_1_0.1_130_10_3 /result_0.sca"
config extends Platooning
config *.node[*].scenario_type "\"BreakRanksScenario\""
config *.manager.command "\"sumo-gui\""
config *.node[*].scenario_type "\"SimpleScenario\""
config cmdenv-express-mode true
config cmdenv-autoflush true
config cmdenv-status-frequency 15s
config num-rngs 6
config network Highway
config debug-on-errors true
config print-undisposed true
config *.playgroundSizeX 65000m
config *.playgroundSizeY 25000m
config *.playgroundSizeZ 50m
config sim-time-limit "100 s"
config *.annotations.draw false
config *.obstacles.debug false
config *.world.useTorus false
config *.world.use2D false
config *.manager.updateInterval 0.01s
config *.manager.host "\"localhost\""
config *.manager.moduleType "\"org.car2x.plexe.PlatoonCar\""
config *.manager.moduleName "\"node\""
config *.manager.moduleDisplayString "\"\""
config *.manager.autoShutdown true
config *.manager.margin 25
config *.connectionManager.sendDirect true
config *.connectionManager.maxInterfDist 2600m
config *.connectionManager.drawMaxIntfDist false
config *.**.nic.mac1609_4.useServiceChannel false
config *.**.nic.mac1609_4.txPower 100mW
config *.**.nic.mac1609_4.bitrate 6Mbps
config *.**.nic.mac1609_4.useAcks true
config *.**.nic.mac1609_4.ackErrorRate 0.0
config *.**.nic.mac1609_4.frameErrorRate 0.0
config *.**.nic.phy80211p.minPowerLevel -94dBm
config *.**.nic.phy80211p.maxTXPower 100mW
config *.**.nic.phy80211p.useNoiseFloor true
config *.**.nic.phy80211p.noiseFloor -95dBm
config *.**.nic.phy80211p.decider "xmldoc(\"config.xml\")"
config *.**.nic.phy80211p.analogueModels "xmldoc(\"config.xml\")"
config *.**.nic.phy80211p.usePropagationDelay true
config *.node[*].mobility.x 0
config *.node[*].mobility.y 0
config *.node[*].mobility.z 1.895
config seed-set 0
config **.seed 0
config *.node[*].prot.rng-0 2
config *.node[*].appl.rng-0 3
config *.node[*].scenario.rng-0 4
config **.traffic.rng-0 5
config *.manager.configFile "\"./sumocfg/freeway.sumo.cfg\""
config *.manager.launchConfig "xmldoc(\"./sumocfg/freeway.launchd.xml\")"
config **.numberOfCars 3
config **.numberOfCarsPerPlatoon 3
config **.numberOfLanes 1
config *.node[*].helper_type "\"PositionHelper\""
config *.node[*].scenario.caccC1 0.5
config *.node[*].scenario.caccXi 1
config *.node[*].scenario.caccOmegaN "0.2 Hz"
config *.node[*].scenario.caccSpacing "2 m"
config *.node[*].scenario.engineTau "0.5 s"
config *.node[*].scenario.ploegH 0.5s
config *.node[*].scenario.ploegKp 0.2
config *.node[*].scenario.ploegKd 0.7
config *.node[*].scenario.useRealisticEngine false
config *.node[*].scenario.useControllerAcceleration true
config *.node[*].scenario.nLanes 1
config **.numericController 1
config **.headway 0.1s
config *.node[*].scenario.accHeadway 0.1s
config *.node[*].scenario.leaderHeadway 1.2s
config *.node[*].scenario.leaderSpeed 130kmph
config *.node[*].appl_type "\"SimplePlatooningApp\""
config *.node[*].appl.*.scalar-recording true
config *.node[*].appl.*.vector-recording true
config *.node[0].appl.breakRanksSafetyDistance 10m
config *.node[*].appl.minSpeed 120kmph
config *.node[*].appl.maxSpeed 140kmph
config *.node[*].protocol_type "\"SimplePlatooningBeaconing\""
config *.node[*].prot.*.scalar-recording true
config *.node[*].prot.*.vector-recording true
config *.node[*].prot.beaconingInterval 0.1s
config *.node[*].prot.priority 4
config *.node[*].prot.packetSize 200
config **.traffic_type "\"PlatoonsTrafficManager\""
config **.traffic.platoonInsertTime "1 s"
config **.traffic.platoonInsertSpeed 130kmph
config **.traffic.nCars 3
config **.traffic.platoonSize 3
config **.traffic.nLanes 1
config **.traffic.platooningVType "\"vtypeauto\""
config **.traffic.controller "\"CACC\""
config **.traffic.platoonInsertDistance 2m
config **.traffic.platoonInsertHeadway 0s
config **.traffic.platoonLeaderHeadway 1.2s
config **.scalar-recording false
config **.vector-recording false

vector 0 Highway.node[0].appl distance ETV
vector 1 Highway.node[0].appl relativeSpeed ETV
vector 2 Highway.node[0].appl nodeId ETV
vector 3 Highway.node[0].appl acceleration ETV
vector 4 Highway.node[0].appl controllerAcceleration ETV
vector 5 Highway.node[0].appl speed ETV
vector 6 Highway.node[0].appl posx ETV
vector 7 Highway.node[0].appl posy ETV
vector 8 Highway.node[1].appl distance ETV
vector 9 Highway.node[1].appl relativeSpeed ETV
vector 10 Highway.node[1].appl nodeId ETV
vector 11 Highway.node[1].appl acceleration ETV
vector 12 Highway.node[1].appl controllerAcceleration ETV
vector 13 Highway.node[1].appl speed ETV
vector 14 Highway.node[1].appl posx ETV
vector 15 Highway.node[1].appl posy ETV
vector 16 Highway.node[2].appl distance ETV
vector 17 Highway.node[2].appl relativeSpeed ETV
vector 18 Highway.node[2].appl nodeId ETV
vector 19 Highway.node[2].appl acceleration ETV
vector 20 Highway.node[2].appl controllerAcceleration ETV
vector 21 Highway.node[2].appl speed ETV
vector 22 Highway.node[2].appl posx ETV
vector 23 Highway.node[2].appl posy ETV
vector 24 Highway.node[2].prot frontDelay ETV
vector 25 Highway.node[2].prot frontDelayId ETV
vector 26 Highway.node[1].prot leaderDelay ETV
vector 27 Highway.node[1].prot leaderDelayId ETV
vector 28 Highway.node[1].prot frontDelay ETV
vector 29 Highway.node[1].prot frontDelayId ETV
vector 30 Highway.node[2].prot leaderDelay ETV
vector 31 Highway.node[2].prot leaderDelayId ETV
vector 32 Highway.node[0].prot nodeId ETV
vector 33 Highway.node[0].prot busyTime ETV
vector 34 Highway.node[0].prot collisions ETV
vector 35 Highway.node[1].prot nodeId ETV
vector 36 Highway.node[1].prot busyTime ETV
vector 37 Highway.node[1].prot collisions ETV
vector 38 Highway.node[2].prot nodeId ETV
vector 39 Highway.node[2].prot busyTime ETV
vector 40 Highway.node[2].prot collisions ETV
0	7769 16606 113 91228 1.11 99.91 989 -1 -1 -989 989
1	24375 15617 113 91228 1.11 99.91 989 0 0 0 0
2	39992 15617 113 91228 1.11 99.91 989 0 0 0 0
3	55609 17905 113 91228 1.11 99.91 989 -3.14892e-05 0.000707784 0.010991577126781 6.0508064149601e-06
4	73514 25563 113 91228 1.11 99.91 989 -4.89399e-05 0.00109259 0.010614843047836 8.6815283230331e-06
5	99077 21544 113 91228 1.11 99.91 989 36.11 36.1111 35713.866699999 1289666.6073546
6	120621 21413 113 91228 1.11 99.91 989 23.6899 3591.47 1787693.8569 4282602306.9052
7	142034 20562 113 91228 1.11 99.91 989 242.45 242.45 239783.05 58135400.472499
8	162596 18899 114 91229 1.11 99.91 989 -1 9.95977 2722.98557 27520.623595114
9	181495 19410 114 91229 1.11 99.91 989 -1.58028e-05 0.636963 79.600821781715 33.699286864239
10	200905 16606 114 91229 1.11 99.91 989 1 1 989 989
11	217511 23908 114 91229 1.11 99.91 989 -1.2527 0.0557488 -21.057845200885 21.673369540299
12	241419 25814 114 91229 1.11 99.91 989 -1.5 0.0865935 -20.145397766064 28.207413942802
13	267233 20456 114 91229 1.11 99.91 989 33.9134 36.1111 34571.9146 1209456.3002814
14	287689 22477 114 91229 1.11 99.91 989 17.6899 3471.38 1748652.7933 4076989056.8172
15	310166 21551 114 91229 1.11 99.91 989 242.45 245.75 241479.25 58963485.3125
16	331717 22413 115 91230 1.11 99.91 989 2 82.7249 30828.01693 1670639.0319959
17	354130 23020 115 91230 1.11 99.91 989 0 1.83731 668.20303839581 720.79340131914
18	377150 16606 115 91230 1.11 99.91 989 2 2 1978 3956
19	393756 23893 115 91230 1.11 99.91 989 -1.15028 0.20295 -11.055652366901 20.599598952354
20	417649 25645 115 91230 1.11 99.91 989 -1.75488 0.228809 -10.041041145134 27.863043415852
21	443294 20579 115 91230 1.11 99.91 989 34.2738 36.1111 34966.0628 1236471.7067841
22	463873 22481 115 91230 1.11 99.91 989 11.6899 3504.74 1747772.6263 4095831482.8026
23	486354 21551 115 91230 1.11 99.91 989 242.45 242.45 239783.05 58135400.472499
24	507905 39121 259 91277 1.229644120084 99.929641942993 988 0.099989467436 0.100004801463 98.800001902965 9.8800004174919
25	547026 26361 259 91277 1.229644120084 99.929641942993 988 2 2 1976 3952
26	573387 39122 282 91312 1.254481140098 99.954479633038 988 0.099991080056 0.100004801132 98.800002572996 9.8800005514487
27	612509 26379 282 91312 1.254481140098 99.954479633038 988 1 1 988 988
28	638888 39122 282 91312 1.254481140098 99.954479633038 988 0.099991080056 0.100004801132 98.800002572996 9.8800005514487
29	678010 26379 282 91312 1.254481140098 99.954479633038 988 1 1 988 988
30	704389 39096 288 91306 1.254481160112 99.954479521427 988 0.099991080056 0.100004800799 98.800002441371 9.8800005251236
31	743485 26354 288 91306 1.254481160112 99.954479521427 988 2 2 1976 3952
32	769839 1368 931 91318 2 100 99 0 0 0 0
33	771207 1972 931 91318 2 100 99 0.008433 0.009804278994 0.927320278994 0.0086871786325922
34	773179 1368 931 91318 2 100 99 0 0 0 0
35	774547 1368 932 91319 2 100 99 1 1 99 99
36	775915 1972 932 91319 2 100 99 0.008433 0.009738 0.927254092734 0.0086858853467366
37	777887 1368 932 91319 2 100 99 0 0 0 0
38	779255 1368 933 91320 2 100 99 2 2 198 396
39	780623 1972 933 91320 2 100 99 0.008433 0.009771185864 0.927254185864 0.0086859041101888
40	782595 1368 933 91320 2 100 99 0 0 0 0

