version 3
run BreakRanksNoGui-1481-20240711-18:30:57-303714
attr configname BreakRanksNoGui
attr datetime 20240711-18:30:57
attr datetimef 20240711-183057
attr experiment BreakRanksNoGui
attr inifile omnetpp.ini
attr iterationvars "$nCars=6, $platoonSize=2, $nLanes=1, $ploegH=0.5, $controller=1, $headway=0.1, $leaderHeadway=1.2, $leaderSpeed=110, $breakRanksSafetyDistance=15, $minSpeed=100, $maxSpeed=120, $beaconInterval=0.1, $priority=4, $packetSize=200, $sController=\"CACC\", $0=2, $1=0"
attr iterationvarsd nCars=6/platoonSize=2/nLanes=1/ploegH=0.5/controller=1/headway=0.1/leaderHeadway=1.2/leaderSpeed=110/breakRanksSafetyDistance=15/minSpeed=100/maxSpeed=120/beaconInterval=0.1/priority=4/packetSize=200/sController=CACC/2/0
attr iterationvarsf nCars=6,platoonSize=2,nLanes=1,ploegH=0.5,controller=1,headway=0.1,leaderHeadway=1.2,leaderSpeed=110,breakRanksSafetyDistance=15,minSpeed=100,maxSpeed=120,beaconInterval=0.1,priority=4,packetSize=200,sController=CACC,2,0-
attr measurement "$nCars=6, $platoonSize=2, $nLanes=1, $ploegH=0.5, $controller=1, $headway=0.1, $leaderHeadway=1.2, $leaderSpeed=110, $breakRanksSafetyDistance=15, $minSpeed=100, $maxSpeed=120, $beaconInterval=0.1, $priority=4, $packetSize=200, $sController=\"CACC\", $0=2, $1=0"
attr network Highway
attr processid 303714
attr repetition 1
attr replication #1
attr resultdir results
attr runnumber 1481
attr seedset 1
itervar beaconInterval 0.1
itervar breakRanksSafetyDistance 15
itervar controller 1
itervar headway 0.1
itervar leaderHeadway 1.2
itervar leaderSpeed 110
itervar maxSpeed 120
itervar minSpeed 100
itervar nCars 6
itervar nLanes 1
itervar packetSize 200
itervar platoonSize 2
itervar ploegH 0.5
itervar priority 4
itervar sController "\"CACC\""
config image-path ../../../veins/images
config repeat 10
config extends BreakRanks
config *.manager.command "\"sumo\""
config *.manager.ignoreGuiCommands true
config output-vector-file "results/BreakRanks_1_0.1_110_15_2 /result_1.vec"
config output-scalar-file "results/BreakRanks_1_0.1_110_15_2 /result_1.sca"
config extends Platooning
config *.node[*].scenario_type "\"BreakRanksScenario\""
config *.manager.command "\"sumo-gui\""
config *.node[*].scenario_type "\"SimpleScenario\""
config cmdenv-express-mode true
config cmdenv-autoflush true
config cmdenv-status-frequency 15s
config num-rngs 6
config network Highway
config debug-on-errors true
config print-undisposed true
config *.playgroundSizeX 65000m
config *.playgroundSizeY 25000m
config *.playgroundSizeZ 50m
config sim-time-limit "100 s"
config *.annotations.draw false
config *.obstacles.debug false
config *.world.useTorus false
config *.world.use2D false
config *.manager.updateInterval 0.01s
config *.manager.host "\"localhost\""
config *.manager.moduleType "\"org.car2x.plexe.PlatoonCar\""
config *.manager.moduleName "\"node\""
config *.manager.moduleDisplayString "\"\""
config *.manager.autoShutdown true
config *.manager.margin 25
config *.connectionManager.sendDirect true
config *.connectionManager.maxInterfDist 2600m
config *.connectionManager.drawMaxIntfDist false
config *.**.nic.mac1609_4.useServiceChannel false
config *.**.nic.mac1609_4.txPower 100mW
config *.**.nic.mac1609_4.bitrate 6Mbps
config *.**.nic.mac1609_4.useAcks true
config *.**.nic.mac1609_4.ackErrorRate 0.0
config *.**.nic.mac1609_4.frameErrorRate 0.0
config *.**.nic.phy80211p.minPowerLevel -94dBm
config *.**.nic.phy80211p.maxTXPower 100mW
config *.**.nic.phy80211p.useNoiseFloor true
config *.**.nic.phy80211p.noiseFloor -95dBm
config *.**.nic.phy80211p.decider "xmldoc(\"config.xml\")"
config *.**.nic.phy80211p.analogueModels "xmldoc(\"config.xml\")"
config *.**.nic.phy80211p.usePropagationDelay true
config *.node[*].mobility.x 0
config *.node[*].mobility.y 0
config *.node[*].mobility.z 1.895
config seed-set 1
config **.seed 1
config *.node[*].prot.rng-0 2
config *.node[*].appl.rng-0 3
config *.node[*].scenario.rng-0 4
config **.traffic.rng-0 5
config *.manager.configFile "\"./sumocfg/freeway.sumo.cfg\""
config *.manager.launchConfig "xmldoc(\"./sumocfg/freeway.launchd.xml\")"
config **.numberOfCars 6
config **.numberOfCarsPerPlatoon 2
config **.numberOfLanes 1
config *.node[*].helper_type "\"PositionHelper\""
config *.node[*].scenario.caccC1 0.5
config *.node[*].scenario.caccXi 1
config *.node[*].scenario.caccOmegaN "0.2 Hz"
config *.node[*].scenario.caccSpacing "2 m"
config *.node[*].scenario.engineTau "0.5 s"
config *.node[*].scenario.ploegH 0.5s
config *.node[*].scenario.ploegKp 0.2
config *.node[*].scenario.ploegKd 0.7
config *.node[*].scenario.useRealisticEngine false
config *.node[*].scenario.useControllerAcceleration true
config *.node[*].scenario.nLanes 1
config **.numericController 1
config **.headway 0.1s
config *.node[*].scenario.accHeadway 0.1s
config *.node[*].scenario.leaderHeadway 1.2s
config *.node[*].scenario.leaderSpeed 110kmph
config *.node[*].appl_type "\"SimplePlatooningApp\""
config *.node[*].appl.*.scalar-recording true
config *.node[*].appl.*.vector-recording true
config *.node[0].appl.breakRanksSafetyDistance 15m
config *.node[*].appl.minSpeed 100kmph
config *.node[*].appl.maxSpeed 120kmph
config *.node[*].protocol_type "\"SimplePlatooningBeaconing\""
config *.node[*].prot.*.scalar-recording true
config *.node[*].prot.*.vector-recording true
config *.node[*].prot.beaconingInterval 0.1s
config *.node[*].prot.priority 4
config *.node[*].prot.packetSize 200
config **.traffic_type "\"PlatoonsTrafficManager\""
config **.traffic.platoonInsertTime "1 s"
config **.traffic.platoonInsertSpeed 110kmph
config **.traffic.nCars 6
config **.traffic.platoonSize 2
config **.traffic.nLanes 1
config **.traffic.platooningVType "\"vtypeauto\""
config **.traffic.controller "\"CACC\""
config **.traffic.platoonInsertDistance 2m
config **.traffic.platoonInsertHeadway 0s
config **.traffic.platoonLeaderHeadway 1.2s
config **.scalar-recording false
config **.vector-recording false

vector 0 Highway.node[0].appl distance ETV
vector 1 Highway.node[0].appl relativeSpeed ETV
vector 2 Highway.node[0].appl nodeId ETV
vector 3 Highway.node[0].appl acceleration ETV
vector 4 Highway.node[0].appl controllerAcceleration ETV
vector 5 Highway.node[0].appl speed ETV
vector 6 Highway.node[0].appl posx ETV
vector 7 Highway.node[0].appl posy ETV
vector 8 Highway.node[1].appl distance ETV
vector 9 Highway.node[1].appl relativeSpeed ETV
vector 10 Highway.node[1].appl nodeId ETV
vector 11 Highway.node[1].appl acceleration ETV
vector 12 Highway.node[1].appl controllerAcceleration ETV
vector 13 Highway.node[1].appl speed ETV
vector 14 Highway.node[1].appl posx ETV
vector 15 Highway.node[1].appl posy ETV
vector 16 Highway.node[2].appl distance ETV
vector 17 Highway.node[2].appl relativeSpeed ETV
vector 18 Highway.node[2].appl nodeId ETV
vector 19 Highway.node[2].appl acceleration ETV
vector 20 Highway.node[2].appl controllerAcceleration ETV
vector 21 Highway.node[2].appl speed ETV
vector 22 Highway.node[2].appl posx ETV
vector 23 Highway.node[2].appl posy ETV
vector 24 Highway.node[3].appl distance ETV
vector 25 Highway.node[3].appl relativeSpeed ETV
vector 26 Highway.node[3].appl nodeId ETV
vector 27 Highway.node[3].appl acceleration ETV
vector 28 Highway.node[3].appl controllerAcceleration ETV
vector 29 Highway.node[3].appl speed ETV
vector 30 Highway.node[3].appl posx ETV
vector 31 Highway.node[3].appl posy ETV
vector 32 Highway.node[4].appl distance ETV
vector 33 Highway.node[4].appl relativeSpeed ETV
vector 34 Highway.node[4].appl nodeId ETV
vector 35 Highway.node[4].appl acceleration ETV
vector 36 Highway.node[4].appl controllerAcceleration ETV
vector 37 Highway.node[4].appl speed ETV
vector 38 Highway.node[4].appl posx ETV
vector 39 Highway.node[4].appl posy ETV
vector 40 Highway.node[5].appl distance ETV
vector 41 Highway.node[5].appl relativeSpeed ETV
vector 42 Highway.node[5].appl nodeId ETV
vector 43 Highway.node[5].appl acceleration ETV
vector 44 Highway.node[5].appl controllerAcceleration ETV
vector 45 Highway.node[5].appl speed ETV
vector 46 Highway.node[5].appl posx ETV
vector 47 Highway.node[5].appl posy ETV
vector 48 Highway.node[5].prot leaderDelay ETV
vector 49 Highway.node[5].prot leaderDelayId ETV
vector 50 Highway.node[5].prot frontDelay ETV
vector 51 Highway.node[5].prot frontDelayId ETV
vector 52 Highway.node[1].prot leaderDelay ETV
vector 53 Highway.node[1].prot leaderDelayId ETV
vector 54 Highway.node[1].prot frontDelay ETV
vector 55 Highway.node[1].prot frontDelayId ETV
vector 56 Highway.node[3].prot leaderDelay ETV
vector 57 Highway.node[3].prot leaderDelayId ETV
vector 58 Highway.node[3].prot frontDelay ETV
vector 59 Highway.node[3].prot frontDelayId ETV
vector 60 Highway.node[0].prot nodeId ETV
vector 61 Highway.node[0].prot busyTime ETV
vector 62 Highway.node[0].prot collisions ETV
vector 63 Highway.node[1].prot nodeId ETV
vector 64 Highway.node[1].prot busyTime ETV
vector 65 Highway.node[1].prot collisions ETV
vector 66 Highway.node[2].prot nodeId ETV
vector 67 Highway.node[2].prot busyTime ETV
vector 68 Highway.node[2].prot collisions ETV
vector 69 Highway.node[3].prot nodeId ETV
vector 70 Highway.node[3].prot busyTime ETV
vector 71 Highway.node[3].prot collisions ETV
vector 72 Highway.node[4].prot nodeId ETV
vector 73 Highway.node[4].prot busyTime ETV
vector 74 Highway.node[4].prot collisions ETV
vector 75 Highway.node[5].prot nodeId ETV
vector 76 Highway.node[5].prot busyTime ETV
vector 77 Highway.node[5].prot collisions ETV
0	113	1.11	-1
0	429	1.21	-1
0	745	1.31	-1
0	1061	1.41	-1
0	1377	1.51	-1
0	1693	1.61	-1
0	2009	1.71	-1
0	2325	1.81	-1
0	2641	1.91	-1
0	2963	2.01	-1
0	3279	2.11	-1
0	3595	2.21	-1
0	3911	2.31	-1
0	4227	2.41	-1
0	4543	2.51	-1
0	4859	2.61	-1
0	5175	2.71	-1
0	5491	2.81	-1
0	5807	2.91	-1
0	6129	3.01	-1
0	6445	3.11	-1
0	6761	3.21	-1
0	7077	3.31	-1
0	7393	3.41	-1
0	7709	3.51	-1
0	8025	3.61	-1
0	8341	3.71	-1
0	8657	3.81	-1
0	8973	3.91	-1
0	9295	4.01	-1
0	9611	4.11	-1
0	9927	4.21	-1
0	10243	4.31	-1
0	10559	4.41	-1
0	10875	4.51	-1
0	11191	4.61	-1
0	11507	4.71	-1
0	11823	4.81	-1
0	12139	4.91	-1
0	12461	5.01	-1
0	12777	5.11	-1
0	13093	5.21	-1
0	13409	5.31	-1
0	13725	5.41	-1
0	14041	5.51	-1
0	14357	5.61	-1
0	14673	5.71	-1
0	14989	5.81	-1
0	15305	5.91	-1
0	15627	6.01	-1
0	15943	6.11	-1
0	16259	6.21	-1
0	16575	6.31	-1
0	16891	6.41	-1
0	17207	6.51	-1
0	17523	6.61	-1
0	17839	6.71	-1
0	18155	6.81	-1
0	18471	6.91	-1
0	18793	7.01	-1
0	19109	7.11	-1
0	19425	7.21	-1
0	19741	7.31	-1
0	20057	7.41	-1
0	20373	7.51	-1
0	20689	7.61	-1
0	21005	7.71	-1
0	21321	7.81	-1
0	21637	7.91	-1
0	21959	8.01	-1
0	22275	8.11	-1
0	22591	8.21	-1
0	22907	8.31	-1
0	23223	8.41	-1
0	23539	8.51	-1
0	23855	8.61	-1
0	24171	8.71	-1
0	24487	8.81	-1
0	24803	8.91	-1
0	25125	9.01	-1
0	25441	9.11	-1
0	25757	9.21	-1
0	26073	9.31	-1
0	26389	9.41	-1
0	26705	9.51	-1
0	27021	9.61	-1
0	27337	9.71	-1
0	27653	9.81	-1
0	27969	9.91	-1
0	28399	10.01	-1
0	28718	10.11	-1
0	29037	10.21	-1
0	29356	10.31	-1
0	29675	10.41	-1
0	29994	10.51	-1
0	30313	10.61	-1
0	30632	10.71	-1
0	30951	10.81	-1
0	31270	10.91	-1
0	31595	11.01	-1
0	31914	11.11	-1
0	32233	11.21	-1
0	32552	11.31	-1
0	32871	11.41	-1
0	33190	11.51	-1
0	33509	11.61	-1
0	33828	11.71	-1
0	34147	11.81	-1
0	34466	11.91	-1
0	34791	12.01	-1
0	35110	12.11	-1
0	35429	12.21	-1
0	35748	12.31	-1
0	36067	12.41	-1
0	36386	12.51	-1
0	36705	12.61	-1
0	37024	12.71	-1
0	37343	12.81	-1
0	37662	12.91	-1
0	37987	13.01	-1
0	38306	13.11	-1
0	38625	13.21	-1
0	38944	13.31	-1
0	39263	13.41	-1
0	39582	13.51	-1
0	39901	13.61	-1
0	40220	13.71	-1
0	40539	13.81	-1
0	40858	13.91	-1
0	41183	14.01	-1
0	41502	14.11	-1
0	41821	14.21	-1
0	42140	14.31	-1
0	42459	14.41	-1
0	42778	14.51	-1
0	43097	14.61	-1
0	43416	14.71	-1
0	43735	14.81	-1
0	44054	14.91	-1
0	44379	15.01	-1
0	44698	15.11	-1
0	45017	15.21	-1
0	45336	15.31	-1
0	45655	15.41	-1
0	45974	15.51	-1
0	46293	15.61	-1
0	46612	15.71	-1
0	46931	15.81	-1
0	47250	15.91	-1
0	47575	16.01	-1
0	47894	16.11	-1
0	48213	16.21	-1
0	48532	16.31	-1
0	48851	16.41	-1
0	49170	16.51	-1
0	49489	16.61	-1
0	49808	16.71	-1
0	50127	16.81	-1
0	50446	16.91	-1
0	50771	17.01	-1
0	51090	17.11	-1
0	51409	17.21	-1
0	51728	17.31	-1
0	52047	17.41	-1
0	52366	17.51	-1
0	52685	17.61	-1
0	53004	17.71	-1
0	53323	17.81	-1
0	53642	17.91	-1
0	53967	18.01	-1
0	54286	18.11	-1
0	54605	18.21	-1
0	54924	18.31	-1
0	55243	18.41	-1
0	55562	18.51	-1
0	55881	18.61	-1
0	56200	18.71	-1
0	56519	18.81	-1
0	56838	18.91	-1
0	57163	19.01	-1
0	57482	19.11	-1
0	57801	19.21	-1
0	58120	19.31	-1
0	58439	19.41	-1
0	58758	19.51	-1
0	59077	19.61	-1
0	59396	19.71	-1
0	59715	19.81	-1
0	60034	19.91	-1
0	60359	20.01	-1
0	60678	20.11	-1
0	60997	20.21	-1
0	61316	20.31	-1
0	61635	20.41	-1
0	61954	20.51	-1
0	62273	20.61	-1
0	62592	20.71	-1
0	62911	20.81	-1
0	63230	20.91	-1
0	63555	21.01	-1
0	63874	21.11	-1
0	64193	21.21	-1
0	64512	21.31	-1
0	64831	21.41	-1
0	65150	21.51	-1
0	65469	21.61	-1
0	65788	21.71	-1
0	66107	21.81	-1
0	66426	21.91	-1
0	66751	22.01	-1
0	67070	22.11	-1
0	67389	22.21	-1
0	67708	22.31	-1
0	68027	22.41	-1
0	68346	22.51	-1
0	68665	22.61	-1
0	68984	22.71	-1
0	69303	22.81	-1
0	69622	22.91	-1
0	69947	23.01	-1
0	70266	23.11	-1
0	70585	23.21	-1
0	70904	23.31	-1
0	71223	23.41	-1
0	71542	23.51	-1
0	71861	23.61	-1
0	72180	23.71	-1
0	72499	23.81	-1
0	72818	23.91	-1
0	73143	24.01	-1
0	73462	24.11	-1
0	73781	24.21	-1
0	74100	24.31	-1
0	74419	24.41	-1
0	74738	24.51	-1
0	75057	24.61	-1
0	75376	24.71	-1
0	75695	24.81	-1
0	76014	24.91	-1
0	76339	25.01	-1
0	76658	25.11	-1
0	76977	25.21	-1
0	77296	25.31	-1
0	77615	25.41	-1
0	77934	25.51	-1
0	78253	25.61	-1
0	78572	25.71	-1
0	78891	25.81	-1
0	79210	25.91	-1
0	79535	26.01	-1
0	79854	26.11	-1
0	80173	26.21	-1
0	80492	26.31	-1
0	80811	26.41	-1
0	81130	26.51	-1
0	81449	26.61	-1
0	81768	26.71	-1
0	82087	26.81	-1
0	82406	26.91	-1
0	82731	27.01	-1
0	83050	27.11	-1
0	83369	27.21	-1
0	83688	27.31	-1
0	84007	27.41	-1
0	84326	27.51	-1
0	84645	27.61	-1
0	84964	27.71	-1
0	85283	27.81	-1
0	85602	27.91	-1
0	85927	28.01	-1
0	86246	28.11	-1
0	86565	28.21	-1
0	86884	28.31	-1
0	87203	28.41	-1
0	87522	28.51	-1
0	87841	28.61	-1
0	88160	28.71	-1
0	88479	28.81	-1
0	88798	28.91	-1
0	89123	29.01	-1
0	89442	29.11	-1
0	89761	29.21	-1
0	90080	29.31	-1
0	90399	29.41	-1
0	90718	29.51	-1
0	91037	29.61	-1
0	91356	29.71	-1
0	91675	29.81	-1
0	91994	29.91	-1
0	92319	30.01	-1
0	92638	30.11	-1
0	92957	30.21	-1
0	93276	30.31	-1
0	93595	30.41	-1
0	93914	30.51	-1
0	94233	30.61	-1
0	94552	30.71	-1
0	94871	30.81	-1
0	95190	30.91	-1
0	95515	31.01	-1
0	95834	31.11	-1
0	96153	31.21	-1
0	96472	31.31	-1
0	96791	31.41	-1
0	97110	31.51	-1
0	97429	31.61	-1
0	97748	31.71	-1
0	98067	31.81	-1
0	98386	31.91	-1
0	98711	32.01	-1
0	99030	32.11	-1
0	99349	32.21	-1
0	99668	32.31	-1
0	99987	32.41	-1
0	100306	32.51	-1
0	100625	32.61	-1
0	100944	32.71	-1
0	101263	32.81	-1
0	101582	32.91	-1
0	101907	33.01	-1
0	102226	33.11	-1
0	102545	33.21	-1
0	102864	33.31	-1
0	103183	33.41	-1
0	103502	33.51	-1
0	103821	33.61	-1
0	104140	33.71	-1
0	104459	33.81	-1
0	104778	33.91	-1
0	105103	34.01	-1
0	105422	34.11	-1
0	105741	34.21	-1
0	106060	34.31	-1
0	106379	34.41	-1
0	106698	34.51	-1
0	107017	34.61	-1
0	107336	34.71	-1
0	107655	34.81	-1
0	107974	34.91	-1
0	108299	35.01	-1
0	108618	35.11	-1
0	108937	35.21	-1
0	109256	35.31	-1
0	109575	35.41	-1
0	109894	35.51	-1
0	110213	35.61	-1
0	110532	35.71	-1
0	110851	35.81	-1
0	111170	35.91	-1
0	111495	36.01	-1
0	111814	36.11	-1
0	112133	36.21	-1
0	112452	36.31	-1
0	112771	36.41	-1
0	113090	36.51	-1
0	113409	36.61	-1
0	113728	36.71	-1
0	114047	36.81	-1
0	114366	36.91	-1
0	114691	37.01	-1
0	115010	37.11	-1
0	115329	37.21	-1
0	115648	37.31	-1
0	115967	37.41	-1
0	116286	37.51	-1
0	116605	37.61	-1
0	116924	37.71	-1
0	117243	37.81	-1
0	117562	37.91	-1
0	117887	38.01	-1
0	118206	38.11	-1
0	118525	38.21	-1
0	118844	38.31	-1
0	119163	38.41	-1
0	119482	38.51	-1
0	119801	38.61	-1
0	120120	38.71	-1
0	120439	38.81	-1
0	120758	38.91	-1
0	121083	39.01	-1
0	121402	39.11	-1
0	121721	39.21	-1
0	122040	39.31	-1
0	122359	39.41	-1
0	122678	39.51	-1
0	122997	39.61	-1
0	123316	39.71	-1
0	123635	39.81	-1
0	123954	39.91	-1
0	124279	40.01	-1
0	124598	40.11	-1
0	124917	40.21	-1
0	125236	40.31	-1
0	125555	40.41	-1
0	125874	40.51	-1
0	126193	40.61	-1
0	126512	40.71	-1
0	126831	40.81	-1
0	127150	40.91	-1
0	127475	41.01	-1
0	127794	41.11	-1
0	128113	41.21	-1
0	128432	41.31	-1
0	128751	41.41	-1
0	129070	41.51	-1
0	129389	41.61	-1
0	129708	41.71	-1
0	130027	41.81	-1
0	130346	41.91	-1
0	130671	42.01	-1
0	130990	42.11	-1
0	131309	42.21	-1
0	131628	42.31	-1
0	131947	42.41	-1
0	132266	42.51	-1
0	132585	42.61	-1
0	132904	42.71	-1
0	133223	42.81	-1
0	133542	42.91	-1
0	133867	43.01	-1
0	134186	43.11	-1
0	134505	43.21	-1
0	134824	43.31	-1
0	135143	43.41	-1
0	135462	43.51	-1
0	135781	43.61	-1
0	136100	43.71	-1
0	136419	43.81	-1
0	136738	43.91	-1
0	137063	44.01	-1
0	137382	44.11	-1
0	137701	44.21	-1
0	138020	44.31	-1
0	138339	44.41	-1
0	138658	44.51	-1
0	138977	44.61	-1
0	139296	44.71	-1
0	139615	44.81	-1
0	139934	44.91	-1
0	140259	45.01	-1
0	140578	45.11	-1
0	140897	45.21	-1
0	141216	45.31	-1
0	141535	45.41	-1
0	141854	45.51	-1
0	142173	45.61	-1
0	142492	45.71	-1
0	142957	45.81	-1
0	143275	45.91	-1
0	143599	46.01	-1
0	144063	46.11	-1
0	144380	46.21	-1
0	144843	46.31	-1
0	145159	46.41	-1
0	145475	46.51	-1
0	145791	46.61	-1
0	146107	46.71	-1
0	146423	46.81	-1
0	146739	46.91	-1
0	147061	47.01	-1
0	147377	47.11	-1
0	147693	47.21	-1
0	148009	47.31	-1
0	148325	47.41	-1
0	148641	47.51	-1
0	148957	47.61	-1
0	149273	47.71	-1
0	149589	47.81	-1
0	149905	47.91	-1
0	150227	48.01	-1
0	150543	48.11	-1
0	150859	48.21	-1
0	151175	48.31	-1
0	151491	48.41	-1
0	151807	48.51	-1
0	152123	48.61	-1
0	152439	48.71	-1
0	152755	48.81	-1
0	153071	48.91	-1
0	153393	49.01	-1
0	153709	49.11	-1
0	154025	49.21	-1
0	154341	49.31	-1
0	154657	49.41	-1
0	154973	49.51	-1
0	155289	49.61	-1
0	155605	49.71	-1
0	155921	49.81	-1
0	156237	49.91	-1
0	156559	50.01	-1
0	156875	50.11	-1
0	157191	50.21	-1
0	157507	50.31	-1
0	157823	50.41	-1
0	158139	50.51	-1
0	158455	50.61	-1
0	158771	50.71	-1
0	159087	50.81	-1
0	159403	50.91	-1
0	159725	51.01	-1
0	160041	51.11	-1
0	160357	51.21	-1
0	160673	51.31	-1
0	160989	51.41	-1
0	161305	51.51	-1
0	161621	51.61	-1
0	161937	51.71	-1
0	162253	51.81	-1
0	162569	51.91	-1
0	162891	52.01	-1
0	163207	52.11	-1
0	163523	52.21	-1
0	163839	52.31	-1
0	164155	52.41	-1
0	164471	52.51	-1
0	164787	52.61	-1
0	165103	52.71	-1
0	165419	52.81	-1
0	165735	52.91	-1
0	166057	53.01	-1
0	166373	53.11	-1
0	166689	53.21	-1
0	167005	53.31	-1
0	167321	53.41	-1
0	167637	53.51	-1
0	167953	53.61	-1
0	168269	53.71	-1
0	168585	53.81	-1
0	168901	53.91	-1
0	169223	54.01	-1
0	169539	54.11	-1
0	169855	54.21	-1
0	170171	54.31	-1
0	170487	54.41	-1
0	170803	54.51	-1
0	171119	54.61	-1
0	171435	54.71	-1
0	171751	54.81	-1
0	172067	54.91	-1
0	172389	55.01	-1
0	172705	55.11	-1
0	173021	55.21	-1
0	173337	55.31	-1
0	173653	55.41	-1
0	173969	55.51	-1
0	174285	55.61	-1
0	174601	55.71	-1
0	174917	55.81	-1
0	175233	55.91	-1
0	175555	56.01	-1
0	175871	56.11	-1
0	176187	56.21	-1
0	176503	56.31	-1
0	176819	56.41	-1
0	177135	56.51	-1
0	177451	56.61	-1
0	177767	56.71	-1
0	178083	56.81	-1
0	178399	56.91	-1
0	178721	57.01	-1
0	179037	57.11	-1
0	179353	57.21	-1
0	179669	57.31	-1
0	179985	57.41	-1
0	180301	57.51	-1
0	180617	57.61	-1
0	180933	57.71	-1
0	181249	57.81	-1
0	181565	57.91	-1
0	181887	58.01	-1
0	182203	58.11	-1
0	182519	58.21	-1
0	182835	58.31	-1
0	183151	58.41	-1
0	183467	58.51	-1
0	183783	58.61	-1
0	184099	58.71	-1
0	184415	58.81	-1
0	184731	58.91	-1
0	185053	59.01	-1
0	185369	59.11	-1
0	185685	59.21	-1
0	186001	59.31	-1
0	186317	59.41	-1
0	186633	59.51	-1
0	186949	59.61	-1
0	187265	59.71	-1
0	187581	59.81	-1
0	187897	59.91	-1
0	188219	60.01	-1
0	188535	60.11	-1
0	188851	60.21	-1
0	189167	60.31	-1
0	189483	60.41	-1
0	189799	60.51	-1
0	190115	60.61	-1
0	190431	60.71	-1
0	190747	60.81	-1
0	191063	60.91	-1
0	191385	61.01	-1
0	191701	61.11	-1
0	192017	61.21	-1
0	192333	61.31	-1
0	192649	61.41	-1
0	192965	61.51	-1
0	193281	61.61	-1
0	193597	61.71	-1
0	193913	61.81	-1
0	194229	61.91	-1
0	194551	62.01	-1
0	194867	62.11	-1
0	195183	62.21	-1
0	195499	62.31	-1
0	195815	62.41	-1
0	196131	62.51	-1
0	196447	62.61	-1
0	196763	62.71	-1
0	197079	62.81	-1
0	197395	62.91	-1
0	197717	63.01	-1
0	198033	63.11	-1
0	198349	63.21	-1
0	198665	63.31	-1
0	198981	63.41	-1
0	199297	63.51	-1
0	199613	63.61	-1
0	199929	63.71	-1
0	200245	63.81	-1
0	200561	63.91	-1
0	200883	64.01	-1
0	201199	64.11	-1
0	201515	64.21	-1
0	201831	64.31	-1
0	202147	64.41	-1
0	202463	64.51	-1
0	202779	64.61	-1
0	203095	64.71	-1
0	203411	64.81	-1
0	203727	64.91	-1
0	204049	65.01	-1
0	204365	65.11	-1
0	204681	65.21	-1
0	204997	65.31	-1
0	205313	65.41	-1
0	205629	65.51	22.109
0	205945	65.61	22.3534
0	206261	65.71	22.5979
0	206577	65.81	22.8423
0	206893	65.91	23.0868
0	207215	66.01	23.3312
0	207531	66.11	23.5756
0	207847	66.21	23.8201
0	208163	66.31	24.0645
0	208479	66.41	24.309
0	208795	66.51	24.5534
0	209111	66.61	24.7978
0	209427	66.71	25.0423
0	209743	66.81	25.2867
0	210059	66.91	25.5312
0	210381	67.01	25.7756
0	210697	67.11	26.02
0	211013	67.21	26.2645
0	211329	67.31	26.5089
0	211645	67.41	26.7534
0	211961	67.51	26.9978
0	212277	67.61	27.2422
0	212593	67.71	27.4867
0	212909	67.81	27.7311
0	213225	67.91	27.9756
0	213547	68.01	28.22
0	213863	68.11	28.4644
0	214179	68.21	28.7089
0	214495	68.31	28.9533
0	214811	68.41	29.1978
0	215127	68.51	29.4422
0	215443	68.61	29.6866
0	215759	68.71	29.9311
0	216075	68.81	30.1755
0	216391	68.91	30.42
0	216713	69.01	30.6644
0	217029	69.11	30.9088
0	217345	69.21	31.1533
0	217661	69.31	31.3977
0	217977	69.41	31.6422
0	218293	69.51	31.8866
0	218609	69.61	32.131
0	218925	69.71	32.3755
0	219241	69.81	32.6199
0	219557	69.91	32.8644
0	219879	70.01	33.1088
0	220195	70.11	33.3532
0	220511	70.21	33.5977
0	220827	70.31	33.8421
0	221143	70.41	34.0866
0	221459	70.51	34.331
0	221775	70.61	34.5754
0	222091	70.71	34.8199
0	222407	70.81	35.0643
0	222723	70.91	35.3088
0	223045	71.01	35.5532
0	223361	71.11	35.7976
0	223677	71.21	36.0421
0	223993	71.31	36.2865
0	224309	71.41	36.531
0	224625	71.51	36.7754
0	224941	71.61	37.0198
0	225257	71.71	37.2643
0	225573	71.81	37.5087
0	225889	71.91	37.7532
0	226211	72.01	37.9976
0	226527	72.11	38.242
0	226843	72.21	38.4865
0	227159	72.31	38.7309
0	227475	72.41	38.9754
0	227791	72.51	39.2198
0	228107	72.61	39.4642
0	228423	72.71	39.7087
0	228739	72.81	39.9531
0	229055	72.91	40.1976
0	229377	73.01	40.442
0	229693	73.11	40.6864
0	230009	73.21	40.9309
0	230325	73.31	41.1753
0	230641	73.41	41.4198
0	230957	73.51	41.6642
0	231273	73.61	41.9086
0	231589	73.71	42.1531
0	231905	73.81	42.3975
0	232221	73.91	42.642
0	232543	74.01	42.8864
0	232859	74.11	43.1308
0	233175	74.21	43.3753
0	233491	74.31	43.6197
0	233807	74.41	43.8642
0	234123	74.51	44.1086
0	234439	74.61	44.353
0	234755	74.71	44.5975
0	235071	74.81	44.8419
0	235387	74.91	45.0864
0	235709	75.01	45.3308
0	236025	75.11	45.5752
0	236341	75.21	45.8197
0	236657	75.31	46.0641
0	236973	75.41	46.3086
0	237289	75.51	46.553
0	237605	75.61	46.7974
0	237921	75.71	47.0419
0	238237	75.81	47.2863
0	238553	75.91	47.5308
0	238875	76.01	47.7752
0	239191	76.11	48.0196
0	239507	76.21	48.2641
0	239823	76.31	48.5085
0	240139	76.41	48.753
0	240455	76.51	48.9974
0	240771	76.61	49.2418
0	241087	76.71	49.4863
0	241403	76.81	49.7307
0	241719	76.91	49.9752
0	242041	77.01	50.2196
0	242357	77.11	50.464
0	242673	77.21	50.7085
0	242989	77.31	50.9529
0	243305	77.41	51.1974
0	243621	77.51	51.4418
0	243937	77.61	51.6862
0	244253	77.71	51.9307
0	244569	77.81	52.1751
0	244885	77.91	52.4196
0	245207	78.01	52.664
0	245523	78.11	52.9084
0	245839	78.21	53.1529
0	246155	78.31	53.3973
0	246471	78.41	53.6418
0	246787	78.51	53.8862
0	247103	78.61	54.1306
0	247419	78.71	54.3751
0	247735	78.81	54.6195
0	248051	78.91	54.864
0	248373	79.01	55.1084
0	248689	79.11	55.3528
0	249005	79.21	55.5973
0	249321	79.31	55.8417
0	249637	79.41	56.0862
0	249953	79.51	56.3306
0	250269	79.61	56.575
0	250585	79.71	56.8195
0	250901	79.81	57.0639
0	251217	79.91	57.3084
0	251539	80.01	57.5528
0	251855	80.11	57.7972
0	252171	80.21	58.0417
0	252487	80.31	58.2861
0	252803	80.41	58.5306
0	253119	80.51	58.775
0	253435	80.61	59.0194
0	253751	80.71	59.2639
0	254067	80.81	59.5083
0	254383	80.91	59.7528
0	254705	81.01	59.9972
0	255021	81.11	60.2416
0	255337	81.21	60.4861
0	255653	81.31	60.7305
0	255969	81.41	60.975
0	256285	81.51	61.2194
0	256601	81.61	61.4638
0	256917	81.71	61.7083
0	257233	81.81	61.9527
0	257549	81.91	62.1972
0	257871	82.01	62.4416
0	258187	82.11	62.686
0	258503	82.21	62.9305
0	258819	82.31	63.1749
0	259135	82.41	63.4194
0	259451	82.51	63.6638
0	259767	82.61	63.9082
0	260083	82.71	64.1527
0	260399	82.81	64.3971
0	260715	82.91	64.6416
0	261037	83.01	64.886
0	261353	83.11	65.1304
0	261669	83.21	65.3749
0	261985	83.31	65.6193
0	262301	83.41	65.8638
0	262617	83.51	66.1082
0	262933	83.61	66.3526
0	263249	83.71	66.5971
0	263565	83.81	66.8415
0	263881	83.91	67.086
0	264203	84.01	67.3304
0	264519	84.11	67.5748
0	264835	84.21	67.8193
0	265151	84.31	68.0637
0	265467	84.41	68.3082
0	265783	84.51	68.5526
0	266099	84.61	68.797
0	266415	84.71	69.0415
0	266731	84.81	69.2859
0	267047	84.91	69.5304
0	267369	85.01	69.7748
0	267685	85.11	70.0192
0	268001	85.21	70.2637
0	268317	85.31	70.5081
0	268633	85.41	70.7526
0	268949	85.51	70.997
0	269265	85.61	71.2414
0	269581	85.71	71.4859
0	269897	85.81	71.7303
0	270213	85.91	71.9748
0	270535	86.01	72.2192
0	270851	86.11	72.4636
0	271167	86.21	72.7081
0	271483	86.31	72.9525
0	271799	86.41	73.197
0	272115	86.51	73.4414
0	272431	86.61	73.6858
0	272747	86.71	73.9303
0	273063	86.81	74.1747
0	273379	86.91	74.4192
0	273701	87.01	74.6636
0	274017	87.11	74.908
0	274333	87.21	75.1525
0	274649	87.31	75.3969
0	274965	87.41	75.6414
0	275281	87.51	75.8858
0	275597	87.61	76.1302
0	275913	87.71	76.3747
0	276229	87.81	76.6191
0	276545	87.91	76.8636
0	276867	88.01	77.108
0	277183	88.11	77.3524
0	277499	88.21	77.5969
0	277815	88.31	77.8413
0	278131	88.41	78.0858
0	278447	88.51	78.3302
0	278763	88.61	78.5746
0	279079	88.71	78.8191
0	279395	88.81	79.0635
0	279711	88.91	79.308
0	280033	89.01	79.5524
0	280349	89.11	79.7968
0	280665	89.21	80.0413
0	280981	89.31	80.2857
0	281297	89.41	80.5302
0	281613	89.51	80.7746
0	281929	89.61	81.019
0	282245	89.71	81.2635
0	282561	89.81	81.5079
0	282877	89.91	81.7524
0	283199	90.01	81.9968
0	283515	90.11	82.2412
0	283831	90.21	82.4857
0	284147	90.31	82.7301
0	284463	90.41	82.9746
0	284779	90.51	83.219
0	285095	90.61	83.4634
0	285411	90.71	83.7079
0	285727	90.81	83.9523
0	286043	90.91	84.1968
0	286365	91.01	84.4412
0	286681	91.11	84.6856
0	286997	91.21	84.9301
0	287313	91.31	85.1745
0	287629	91.41	85.419
0	287945	91.51	85.6634
0	288261	91.61	85.9078
0	288577	91.71	86.1523
0	288893	91.81	86.3967
0	289209	91.91	86.6412
0	289531	92.01	86.8856
0	289847	92.11	87.13
0	290163	92.21	87.3745
0	290479	92.31	87.6189
0	290795	92.41	87.8634
0	291111	92.51	88.1078
0	291427	92.61	88.3522
0	291743	92.71	88.5967
0	292059	92.81	88.8411
0	292375	92.91	89.0856
0	292697	93.01	89.33
0	293013	93.11	89.5744
0	293329	93.21	89.8189
0	293645	93.31	90.0633
0	293961	93.41	90.3078
0	294277	93.51	90.5522
0	294593	93.61	90.7966
0	294909	93.71	91.0411
0	295225	93.81	91.2855
0	295541	93.91	91.53
0	295863	94.01	91.7744
0	296179	94.11	92.0188
0	296495	94.21	92.2633
0	296811	94.31	92.5077
0	297127	94.41	92.7522
0	297443	94.51	92.9966
0	297759	94.61	93.241
0	298075	94.71	93.4855
0	298391	94.81	93.7299
0	298707	94.91	93.9744
0	299029	95.01	94.2188
0	299345	95.11	94.4632
0	299661	95.21	94.7077
0	299977	95.31	94.9521
0	300293	95.41	95.1966
0	300609	95.51	95.441
0	300925	95.61	95.6854
0	301241	95.71	95.9299
0	301557	95.81	96.1743
0	301873	95.91	96.4188
0	302195	96.01	96.6632
0	302511	96.11	96.9076
0	302827	96.21	97.1521
0	303143	96.31	97.3965
0	303459	96.41	97.641
0	303775	96.51	97.8854
0	304091	96.61	98.1298
0	304407	96.71	98.3743
0	304723	96.81	98.6187
0	305039	96.91	98.8632
0	305361	97.01	99.1076
0	305677	97.11	99.352
0	305993	97.21	99.5965
0	306309	97.31	99.8409
0	306625	97.41	100.085
0	306941	97.51	100.33
0	307257	97.61	100.574
0	307573	97.71	100.819
0	307889	97.81	101.063
0	308205	97.91	101.308
0	308527	98.01	101.552
0	308843	98.11	101.796
0	309159	98.21	102.041
0	309475	98.31	102.285
0	309791	98.41	102.53
0	310107	98.51	102.774
0	310423	98.61	103.019
0	310739	98.71	103.263
0	311055	98.81	103.508
0	311371	98.91	103.752
0	311693	99.01	103.996
0	312009	99.11	104.241
0	312325	99.21	104.485
0	312641	99.31	104.73
0	312957	99.41	104.974
0	313273	99.51	105.219
0	313589	99.61	105.463
0	313905	99.71	105.707
0	314221	99.81	105.952
0	314537	99.91	106.196
1	113	1.11	0
1	429	1.21	0
1	745	1.31	0
1	1061	1.41	0
1	1377	1.51	0
1	1693	1.61	0
1	2009	1.71	0
1	2325	1.81	0
1	2641	1.91	0
1	2963	2.01	0
1	3279	2.11	0
1	3595	2.21	0
1	3911	2.31	0
1	4227	2.41	0
1	4543	2.51	0
1	4859	2.61	0
1	5175	2.71	0
1	5491	2.81	0
1	5807	2.91	0
1	6129	3.01	0
1	6445	3.11	0
1	6761	3.21	0
1	7077	3.31	0
1	7393	3.41	0
1	7709	3.51	0
1	8025	3.61	0
1	8341	3.71	0
1	8657	3.81	0
1	8973	3.91	0
1	9295	4.01	0
1	9611	4.11	0
1	9927	4.21	0
1	10243	4.31	0
1	10559	4.41	0
1	10875	4.51	0
1	11191	4.61	0
1	11507	4.71	0
1	11823	4.81	0
1	12139	4.91	0
1	12461	5.01	0
1	12777	5.11	0
1	13093	5.21	0
1	13409	5.31	0
1	13725	5.41	0
1	14041	5.51	0
1	14357	5.61	0
1	14673	5.71	0
1	14989	5.81	0
1	15305	5.91	0
1	15627	6.01	0
1	15943	6.11	0
1	16259	6.21	0
1	16575	6.31	0
1	16891	6.41	0
1	17207	6.51	0
1	17523	6.61	0
1	17839	6.71	0
1	18155	6.81	0
1	18471	6.91	0
1	18793	7.01	0
1	19109	7.11	0
1	19425	7.21	0
1	19741	7.31	0
1	20057	7.41	0
1	20373	7.51	0
1	20689	7.61	0
1	21005	7.71	0
1	21321	7.81	0
1	21637	7.91	0
1	21959	8.01	0
1	22275	8.11	0
1	22591	8.21	0
1	22907	8.31	0
1	23223	8.41	0
1	23539	8.51	0
1	23855	8.61	0
1	24171	8.71	0
1	24487	8.81	0
1	24803	8.91	0
1	25125	9.01	0
1	25441	9.11	0
1	25757	9.21	0
1	26073	9.31	0
1	26389	9.41	0
1	26705	9.51	0
1	27021	9.61	0
1	27337	9.71	0
1	27653	9.81	0
1	27969	9.91	0
1	28399	10.01	0
1	28718	10.11	0
1	29037	10.21	0
1	29356	10.31	0
1	29675	10.41	0
1	29994	10.51	0
1	30313	10.61	0
1	30632	10.71	0
1	30951	10.81	0
1	31270	10.91	0
1	31595	11.01	0
1	31914	11.11	0
1	32233	11.21	0
1	32552	11.31	0
1	32871	11.41	0
1	33190	11.51	0
1	33509	11.61	0
1	33828	11.71	0
1	34147	11.81	0
1	34466	11.91	0
1	34791	12.01	0
1	35110	12.11	0
1	35429	12.21	0
1	35748	12.31	0
1	36067	12.41	0
1	36386	12.51	0
1	36705	12.61	0
1	37024	12.71	0
1	37343	12.81	0
1	37662	12.91	0
1	37987	13.01	0
1	38306	13.11	0
1	38625	13.21	0
1	38944	13.31	0
1	39263	13.41	0
1	39582	13.51	0
1	39901	13.61	0
1	40220	13.71	0
1	40539	13.81	0
1	40858	13.91	0
1	41183	14.01	0
1	41502	14.11	0
1	41821	14.21	0
1	42140	14.31	0
1	42459	14.41	0
1	42778	14.51	0
1	43097	14.61	0
1	43416	14.71	0
1	43735	14.81	0
1	44054	14.91	0
1	44379	15.01	0
1	44698	15.11	0
1	45017	15.21	0
1	45336	15.31	0
1	45655	15.41	0
1	45974	15.51	0
1	46293	15.61	0
1	46612	15.71	0
1	46931	15.81	0
1	47250	15.91	0
1	47575	16.01	0
1	47894	16.11	0
1	48213	16.21	0
1	48532	16.31	0
1	48851	16.41	0
1	49170	16.51	0
1	49489	16.61	0
1	49808	16.71	0
1	50127	16.81	0
1	50446	16.91	0
1	50771	17.01	0
1	51090	17.11	0
1	51409	17.21	0
1	51728	17.31	0
1	52047	17.41	0
1	52366	17.51	0
1	52685	17.61	0
1	53004	17.71	0
1	53323	17.81	0
1	53642	17.91	0
1	53967	18.01	0
1	54286	18.11	0
1	54605	18.21	0
1	54924	18.31	0
1	55243	18.41	0
1	55562	18.51	0
1	55881	18.61	0
1	56200	18.71	0
1	56519	18.81	0
1	56838	18.91	0
1	57163	19.01	0
1	57482	19.11	0
1	57801	19.21	0
1	58120	19.31	0
1	58439	19.41	0
1	58758	19.51	0
1	59077	19.61	0
1	59396	19.71	0
1	59715	19.81	0
1	60034	19.91	0
1	60359	20.01	0
1	60678	20.11	0
1	60997	20.21	0
1	61316	20.31	0
1	61635	20.41	0
1	61954	20.51	0
1	62273	20.61	0
1	62592	20.71	0
1	62911	20.81	0
1	63230	20.91	0
1	63555	21.01	0
1	63874	21.11	0
1	64193	21.21	0
1	64512	21.31	0
1	64831	21.41	0
1	65150	21.51	0
1	65469	21.61	0
1	65788	21.71	0
1	66107	21.81	0
1	66426	21.91	0
1	66751	22.01	0
1	67070	22.11	0
1	67389	22.21	0
1	67708	22.31	0
1	68027	22.41	0
1	68346	22.51	0
1	68665	22.61	0
1	68984	22.71	0
1	69303	22.81	0
1	69622	22.91	0
1	69947	23.01	0
1	70266	23.11	0
1	70585	23.21	0
1	70904	23.31	0
1	71223	23.41	0
1	71542	23.51	0
1	71861	23.61	0
1	72180	23.71	0
1	72499	23.81	0
1	72818	23.91	0
1	73143	24.01	0
1	73462	24.11	0
1	73781	24.21	0
1	74100	24.31	0
1	74419	24.41	0
1	74738	24.51	0
1	75057	24.61	0
1	75376	24.71	0
1	75695	24.81	0
1	76014	24.91	0
1	76339	25.01	0
1	76658	25.11	0
1	76977	25.21	0
1	77296	25.31	0
1	77615	25.41	0
1	77934	25.51	0
1	78253	25.61	0
1	78572	25.71	0
1	78891	25.81	0
1	79210	25.91	0
1	79535	26.01	0
1	79854	26.11	0
1	80173	26.21	0
1	80492	26.31	0
1	80811	26.41	0
1	81130	26.51	0
1	81449	26.61	0
1	81768	26.71	0
1	82087	26.81	0
1	82406	26.91	0
1	82731	27.01	0
1	83050	27.11	0
1	83369	27.21	0
1	83688	27.31	0
1	84007	27.41	0
1	84326	27.51	0
1	84645	27.61	0
1	84964	27.71	0
1	85283	27.81	0
1	85602	27.91	0
1	85927	28.01	0
1	86246	28.11	0
1	86565	28.21	0
1	86884	28.31	0
1	87203	28.41	0
1	87522	28.51	0
1	87841	28.61	0
1	88160	28.71	0
1	88479	28.81	0
1	88798	28.91	0
1	89123	29.01	0
1	89442	29.11	0
1	89761	29.21	0
1	90080	29.31	0
1	90399	29.41	0
1	90718	29.51	0
1	91037	29.61	0
1	91356	29.71	0
1	91675	29.81	0
1	91994	29.91	0
1	92319	30.01	0
1	92638	30.11	0
1	92957	30.21	0
1	93276	30.31	0
1	93595	30.41	0
1	93914	30.51	0
1	94233	30.61	0
1	94552	30.71	0
1	94871	30.81	0
1	95190	30.91	0
1	95515	31.01	0
1	95834	31.11	0
1	96153	31.21	0
1	96472	31.31	0
1	96791	31.41	0
1	97110	31.51	0
1	97429	31.61	0
1	97748	31.71	0
1	98067	31.81	0
1	98386	31.91	0
1	98711	32.01	0
1	99030	32.11	0
1	99349	32.21	0
1	99668	32.31	0
1	99987	32.41	0
1	100306	32.51	0
1	100625	32.61	0
1	100944	32.71	0
1	101263	32.81	0
1	101582	32.91	0
1	101907	33.01	0
1	102226	33.11	0
1	102545	33.21	0
1	102864	33.31	0
1	103183	33.41	0
1	103502	33.51	0
1	103821	33.61	0
1	104140	33.71	0
1	104459	33.81	0
1	104778	33.91	0
1	105103	34.01	0
1	105422	34.11	0
1	105741	34.21	0
1	106060	34.31	0
1	106379	34.41	0
1	106698	34.51	0
1	107017	34.61	0
1	107336	34.71	0
1	107655	34.81	0
1	107974	34.91	0
1	108299	35.01	0
1	108618	35.11	0
1	108937	35.21	0
1	109256	35.31	0
1	109575	35.41	0
1	109894	35.51	0
1	110213	35.61	0
1	110532	35.71	0
1	110851	35.81	0
1	111170	35.91	0
1	111495	36.01	0
1	111814	36.11	0
1	112133	36.21	0
1	112452	36.31	0
1	112771	36.41	0
1	113090	36.51	0
1	113409	36.61	0
1	113728	36.71	0
1	114047	36.81	0
1	114366	36.91	0
1	114691	37.01	0
1	115010	37.11	0
1	115329	37.21	0
1	115648	37.31	0
1	115967	37.41	0
1	116286	37.51	0
1	116605	37.61	0
1	116924	37.71	0
1	117243	37.81	0
1	117562	37.91	0
1	117887	38.01	0
1	118206	38.11	0
1	118525	38.21	0
1	118844	38.31	0
1	119163	38.41	0
1	119482	38.51	0
1	119801	38.61	0
1	120120	38.71	0
1	120439	38.81	0
1	120758	38.91	0
1	121083	39.01	0
1	121402	39.11	0
1	121721	39.21	0
1	122040	39.31	0
1	122359	39.41	0
1	122678	39.51	0
1	122997	39.61	0
1	123316	39.71	0
1	123635	39.81	0
1	123954	39.91	0
1	124279	40.01	0
1	124598	40.11	0
1	124917	40.21	0
1	125236	40.31	0
1	125555	40.41	0
1	125874	40.51	0
1	126193	40.61	0
1	126512	40.71	0
1	126831	40.81	0
1	127150	40.91	0
1	127475	41.01	0
1	127794	41.11	0
1	128113	41.21	0
1	128432	41.31	0
1	128751	41.41	0
1	129070	41.51	0
1	129389	41.61	0
1	129708	41.71	0
1	130027	41.81	0
1	130346	41.91	0
1	130671	42.01	0
1	130990	42.11	0
1	131309	42.21	0
1	131628	42.31	0
1	131947	42.41	0
1	132266	42.51	0
1	132585	42.61	0
1	132904	42.71	0
1	133223	42.81	0
1	133542	42.91	0
1	133867	43.01	0
1	134186	43.11	0
1	134505	43.21	0
1	134824	43.31	0
1	135143	43.41	0
1	135462	43.51	0
1	135781	43.61	0
1	136100	43.71	0
1	136419	43.81	0
1	136738	43.91	0
1	137063	44.01	0
1	137382	44.11	0
1	137701	44.21	0
1	138020	44.31	0
1	138339	44.41	0
1	138658	44.51	0
1	138977	44.61	0
1	139296	44.71	0
1	139615	44.81	0
1	139934	44.91	0
1	140259	45.01	0
1	140578	45.11	0
1	140897	45.21	0
1	141216	45.31	0
1	141535	45.41	0
1	141854	45.51	0
1	142173	45.61	0
1	142492	45.71	0
1	142957	45.81	0
1	143275	45.91	0
1	143599	46.01	0
1	144063	46.11	0
1	144380	46.21	0
1	144843	46.31	0
1	145159	46.41	0
1	145475	46.51	0
1	145791	46.61	0
1	146107	46.71	0
1	146423	46.81	0
1	146739	46.91	0
1	147061	47.01	0
1	147377	47.11	0
1	147693	47.21	0
1	148009	47.31	0
1	148325	47.41	0
1	148641	47.51	0
1	148957	47.61	0
1	149273	47.71	0
1	149589	47.81	0
1	149905	47.91	0
1	150227	48.01	0
1	150543	48.11	0
1	150859	48.21	0
1	151175	48.31	0
1	151491	48.41	0
1	151807	48.51	0
1	152123	48.61	0
1	152439	48.71	0
1	152755	48.81	0
1	153071	48.91	0
1	153393	49.01	0
1	153709	49.11	0
1	154025	49.21	0
1	154341	49.31	0
1	154657	49.41	0
1	154973	49.51	0
1	155289	49.61	0
1	155605	49.71	0
1	155921	49.81	0
1	156237	49.91	0
1	156559	50.01	0
1	156875	50.11	0
1	157191	50.21	0
1	157507	50.31	0
1	157823	50.41	0
1	158139	50.51	0
1	158455	50.61	0
1	158771	50.71	0
1	159087	50.81	0
1	159403	50.91	0
1	159725	51.01	0
1	160041	51.11	0
1	160357	51.21	0
1	160673	51.31	0
1	160989	51.41	0
1	161305	51.51	0
1	161621	51.61	0
1	161937	51.71	0
1	162253	51.81	0
1	162569	51.91	0
1	162891	52.01	0
1	163207	52.11	0
1	163523	52.21	0
1	163839	52.31	0
1	164155	52.41	0
1	164471	52.51	0
1	164787	52.61	0
1	165103	52.71	0
1	165419	52.81	0
1	165735	52.91	0
1	166057	53.01	0
1	166373	53.11	0
1	166689	53.21	0
1	167005	53.31	0
1	167321	53.41	0
1	167637	53.51	0
1	167953	53.61	0
1	168269	53.71	0
1	168585	53.81	0
1	168901	53.91	0
1	169223	54.01	0
1	169539	54.11	0
1	169855	54.21	0
1	170171	54.31	0
1	170487	54.41	0
1	170803	54.51	0
1	171119	54.61	0
1	171435	54.71	0
1	171751	54.81	0
1	172067	54.91	0
1	172389	55.01	0
1	172705	55.11	0
1	173021	55.21	0
1	173337	55.31	0
1	173653	55.41	0
1	173969	55.51	0
1	174285	55.61	0
1	174601	55.71	0
1	174917	55.81	0
1	175233	55.91	0
1	175555	56.01	0
1	175871	56.11	0
1	176187	56.21	0
1	176503	56.31	0
1	176819	56.41	0
1	177135	56.51	0
1	177451	56.61	0
1	177767	56.71	0
1	178083	56.81	0
1	178399	56.91	0
1	178721	57.01	0
1	179037	57.11	0
1	179353	57.21	0
1	179669	57.31	0
1	179985	57.41	0
1	180301	57.51	0
1	180617	57.61	0
1	180933	57.71	0
1	181249	57.81	0
1	181565	57.91	0
1	181887	58.01	0
1	182203	58.11	0
1	182519	58.21	0
1	182835	58.31	0
1	183151	58.41	0
1	183467	58.51	0
1	183783	58.61	0
1	184099	58.71	0
1	184415	58.81	0
1	184731	58.91	0
1	185053	59.01	0
1	185369	59.11	0
1	185685	59.21	0
1	186001	59.31	0
1	186317	59.41	0
1	186633	59.51	0
1	186949	59.61	0
1	187265	59.71	0
1	187581	59.81	0
1	187897	59.91	0
1	188219	60.01	0
1	188535	60.11	0
1	188851	60.21	0
1	189167	60.31	0
1	189483	60.41	0
1	189799	60.51	0
1	190115	60.61	0
1	190431	60.71	0
1	190747	60.81	0
1	191063	60.91	0
1	191385	61.01	0
1	191701	61.11	0
1	192017	61.21	0
1	192333	61.31	0
1	192649	61.41	0
1	192965	61.51	0
1	193281	61.61	0
1	193597	61.71	0
1	193913	61.81	0
1	194229	61.91	0
1	194551	62.01	0
1	194867	62.11	0
1	195183	62.21	0
1	195499	62.31	0
1	195815	62.41	0
1	196131	62.51	0
1	196447	62.61	0
1	196763	62.71	0
1	197079	62.81	0
1	197395	62.91	0
1	197717	63.01	0
1	198033	63.11	0
1	198349	63.21	0
1	198665	63.31	0
1	198981	63.41	0
1	199297	63.51	0
1	199613	63.61	0
1	199929	63.71	0
1	200245	63.81	0
1	200561	63.91	0
1	200883	64.01	0
1	201199	64.11	0
1	201515	64.21	0
1	201831	64.31	0
1	202147	64.41	0
1	202463	64.51	0
1	202779	64.61	0
1	203095	64.71	0
1	203411	64.81	0
1	203727	64.91	0
1	204049	65.01	0
1	204365	65.11	0
1	204681	65.21	0
1	204997	65.31	0
1	205313	65.41	0
1	205629	65.51	2.4444
1	205945	65.61	2.4444
1	206261	65.71	2.4444
1	206577	65.81	2.4444
1	206893	65.91	2.4444
1	207215	66.01	2.4444
1	207531	66.11	2.4444
1	207847	66.21	2.4444
1	208163	66.31	2.4444
1	208479	66.41	2.4444
1	208795	66.51	2.4444
1	209111	66.61	2.4444
1	209427	66.71	2.4444
1	209743	66.81	2.4444
1	210059	66.91	2.4444
1	210381	67.01	2.4444
1	210697	67.11	2.4444
1	211013	67.21	2.4444
1	211329	67.31	2.4444
1	211645	67.41	2.4444
1	211961	67.51	2.4444
1	212277	67.61	2.4444
1	212593	67.71	2.4444
1	212909	67.81	2.4444
1	213225	67.91	2.4444
1	213547	68.01	2.4444
1	213863	68.11	2.4444
1	214179	68.21	2.4444
1	214495	68.31	2.4444
1	214811	68.41	2.4444
1	215127	68.51	2.4444
1	215443	68.61	2.4444
1	215759	68.71	2.4444
1	216075	68.81	2.4444
1	216391	68.91	2.4444
1	216713	69.01	2.4444
1	217029	69.11	2.4444
1	217345	69.21	2.4444
1	217661	69.31	2.4444
1	217977	69.41	2.4444
1	218293	69.51	2.4444
1	218609	69.61	2.4444
1	218925	69.71	2.4444
1	219241	69.81	2.4444
1	219557	69.91	2.4444
1	219879	70.01	2.4444
1	220195	70.11	2.4444
1	220511	70.21	2.4444
1	220827	70.31	2.4444
1	221143	70.41	2.4444
1	221459	70.51	2.4444
1	221775	70.61	2.4444
1	222091	70.71	2.4444
1	222407	70.81	2.4444
1	222723	70.91	2.4444
1	223045	71.01	2.4444
1	223361	71.11	2.4444
1	223677	71.21	2.4444
1	223993	71.31	2.4444
1	224309	71.41	2.4444
1	224625	71.51	2.4444
1	224941	71.61	2.4444
1	225257	71.71	2.4444
1	225573	71.81	2.4444
1	225889	71.91	2.4444
1	226211	72.01	2.4444
1	226527	72.11	2.4444
1	226843	72.21	2.4444
1	227159	72.31	2.4444
1	227475	72.41	2.4444
1	227791	72.51	2.4444
1	228107	72.61	2.4444
1	228423	72.71	2.4444
1	228739	72.81	2.4444
1	229055	72.91	2.4444
1	229377	73.01	2.4444
1	229693	73.11	2.4444
1	230009	73.21	2.4444
1	230325	73.31	2.4444
1	230641	73.41	2.4444
1	230957	73.51	2.4444
1	231273	73.61	2.4444
1	231589	73.71	2.4444
1	231905	73.81	2.4444
1	232221	73.91	2.4444
1	232543	74.01	2.4444
1	232859	74.11	2.4444
1	233175	74.21	2.4444
1	233491	74.31	2.4444
1	233807	74.41	2.4444
1	234123	74.51	2.4444
1	234439	74.61	2.4444
1	234755	74.71	2.4444
1	235071	74.81	2.4444
1	235387	74.91	2.4444
1	235709	75.01	2.4444
1	236025	75.11	2.4444
1	236341	75.21	2.4444
1	236657	75.31	2.4444
1	236973	75.41	2.4444
1	237289	75.51	2.4444
1	237605	75.61	2.4444
1	237921	75.71	2.4444
1	238237	75.81	2.4444
1	238553	75.91	2.4444
1	238875	76.01	2.4444
1	239191	76.11	2.4444
1	239507	76.21	2.4444
1	239823	76.31	2.4444
1	240139	76.41	2.4444
1	240455	76.51	2.4444
1	240771	76.61	2.4444
1	241087	76.71	2.4444
1	241403	76.81	2.4444
1	241719	76.91	2.4444
1	242041	77.01	2.4444
1	242357	77.11	2.4444
1	242673	77.21	2.4444
1	242989	77.31	2.4444
1	243305	77.41	2.4444
1	243621	77.51	2.4444
1	243937	77.61	2.4444
1	244253	77.71	2.4444
1	244569	77.81	2.4444
1	244885	77.91	2.4444
1	245207	78.01	2.4444
1	245523	78.11	2.4444
1	245839	78.21	2.4444
1	246155	78.31	2.4444
1	246471	78.41	2.4444
1	246787	78.51	2.4444
1	247103	78.61	2.4444
1	247419	78.71	2.4444
1	247735	78.81	2.4444
1	248051	78.91	2.4444
1	248373	79.01	2.4444
1	248689	79.11	2.4444
1	249005	79.21	2.4444
1	249321	79.31	2.4444
1	249637	79.41	2.4444
1	249953	79.51	2.4444
1	250269	79.61	2.4444
1	250585	79.71	2.4444
1	250901	79.81	2.4444
1	251217	79.91	2.4444
1	251539	80.01	2.4444
1	251855	80.11	2.4444
1	252171	80.21	2.4444
1	252487	80.31	2.4444
1	252803	80.41	2.4444
1	253119	80.51	2.4444
1	253435	80.61	2.4444
1	253751	80.71	2.4444
1	254067	80.81	2.4444
1	254383	80.91	2.4444
1	254705	81.01	2.4444
1	255021	81.11	2.4444
1	255337	81.21	2.4444
1	255653	81.31	2.4444
1	255969	81.41	2.4444
1	256285	81.51	2.4444
1	256601	81.61	2.4444
1	256917	81.71	2.4444
1	257233	81.81	2.4444
1	257549	81.91	2.4444
1	257871	82.01	2.4444
1	258187	82.11	2.4444
1	258503	82.21	2.4444
1	258819	82.31	2.4444
1	259135	82.41	2.4444
1	259451	82.51	2.4444
1	259767	82.61	2.4444
1	260083	82.71	2.4444
1	260399	82.81	2.4444
1	260715	82.91	2.4444
1	261037	83.01	2.4444
1	261353	83.11	2.4444
1	261669	83.21	2.4444
1	261985	83.31	2.4444
1	262301	83.41	2.4444
1	262617	83.51	2.4444
1	262933	83.61	2.4444
1	263249	83.71	2.4444
1	263565	83.81	2.4444
1	263881	83.91	2.4444
1	264203	84.01	2.4444
1	264519	84.11	2.4444
1	264835	84.21	2.4444
1	265151	84.31	2.4444
1	265467	84.41	2.4444
1	265783	84.51	2.4444
1	266099	84.61	2.4444
1	266415	84.71	2.4444
1	266731	84.81	2.4444
1	267047	84.91	2.4444
1	267369	85.01	2.4444
1	267685	85.11	2.4444
1	268001	85.21	2.4444
1	268317	85.31	2.4444
1	268633	85.41	2.4444
1	268949	85.51	2.4444
1	269265	85.61	2.4444
1	269581	85.71	2.4444
1	269897	85.81	2.4444
1	270213	85.91	2.4444
1	270535	86.01	2.4444
1	270851	86.11	2.4444
1	271167	86.21	2.4444
1	271483	86.31	2.4444
1	271799	86.41	2.4444
1	272115	86.51	2.4444
1	272431	86.61	2.4444
1	272747	86.71	2.4444
1	273063	86.81	2.4444
1	273379	86.91	2.4444
1	273701	87.01	2.4444
1	274017	87.11	2.4444
1	274333	87.21	2.4444
1	274649	87.31	2.4444
1	274965	87.41	2.4444
1	275281	87.51	2.4444
1	275597	87.61	2.4444
1	275913	87.71	2.4444
1	276229	87.81	2.4444
1	276545	87.91	2.4444
1	276867	88.01	2.4444
1	277183	88.11	2.4444
1	277499	88.21	2.4444
1	277815	88.31	2.4444
1	278131	88.41	2.4444
1	278447	88.51	2.4444
1	278763	88.61	2.4444
1	279079	88.71	2.4444
1	279395	88.81	2.4444
1	279711	88.91	2.4444
1	280033	89.01	2.4444
1	280349	89.11	2.4444
1	280665	89.21	2.4444
1	280981	89.31	2.4444
1	281297	89.41	2.4444
1	281613	89.51	2.4444
1	281929	89.61	2.4444
1	282245	89.71	2.4444
1	282561	89.81	2.4444
1	282877	89.91	2.4444
1	283199	90.01	2.4444
1	283515	90.11	2.4444
1	283831	90.21	2.4444
1	284147	90.31	2.4444
1	284463	90.41	2.4444
1	284779	90.51	2.4444
1	285095	90.61	2.4444
1	285411	90.71	2.4444
1	285727	90.81	2.4444
1	286043	90.91	2.4444
1	286365	91.01	2.4444
1	286681	91.11	2.4444
1	286997	91.21	2.4444
1	287313	91.31	2.4444
1	287629	91.41	2.4444
1	287945	91.51	2.4444
1	288261	91.61	2.4444
1	288577	91.71	2.4444
1	288893	91.81	2.4444
1	289209	91.91	2.4444
1	289531	92.01	2.4444
1	289847	92.11	2.4444
1	290163	92.21	2.4444
1	290479	92.31	2.4444
1	290795	92.41	2.4444
1	291111	92.51	2.4444
1	291427	92.61	2.4444
1	291743	92.71	2.4444
1	292059	92.81	2.4444
1	292375	92.91	2.4444
1	292697	93.01	2.4444
1	293013	93.11	2.4444
1	293329	93.21	2.4444
1	293645	93.31	2.4444
1	293961	93.41	2.4444
1	294277	93.51	2.4444
1	294593	93.61	2.4444
1	294909	93.71	2.4444
1	295225	93.81	2.4444
1	295541	93.91	2.4444
1	295863	94.01	2.4444
1	296179	94.11	2.4444
1	296495	94.21	2.4444
1	296811	94.31	2.4444
1	297127	94.41	2.4444
1	297443	94.51	2.4444
1	297759	94.61	2.4444
1	298075	94.71	2.4444
1	298391	94.81	2.4444
1	298707	94.91	2.4444
1	299029	95.01	2.4444
1	299345	95.11	2.4444
1	299661	95.21	2.4444
1	299977	95.31	2.4444
1	300293	95.41	2.4444
1	300609	95.51	2.4444
1	300925	95.61	2.4444
1	301241	95.71	2.4444
1	301557	95.81	2.4444
1	301873	95.91	2.4444
1	302195	96.01	2.4444
1	302511	96.11	2.4444
1	302827	96.21	2.4444
1	303143	96.31	2.4444
1	303459	96.41	2.4444
1	303775	96.51	2.4444
1	304091	96.61	2.4444
1	304407	96.71	2.4444
1	304723	96.81	2.4444
1	305039	96.91	2.4444
1	305361	97.01	2.4444
1	305677	97.11	2.4444
1	305993	97.21	2.4444
1	306309	97.31	2.4444
1	306625	97.41	2.4444
1	306941	97.51	2.4444
1	307257	97.61	2.4444
1	307573	97.71	2.4444
1	307889	97.81	2.4444
1	308205	97.91	2.4444
1	308527	98.01	2.4444
1	308843	98.11	2.4444
1	309159	98.21	2.4444
1	309475	98.31	2.4444
1	309791	98.41	2.4444
1	310107	98.51	2.4444
1	310423	98.61	2.4444
1	310739	98.71	2.4444
1	311055	98.81	2.4444
1	311371	98.91	2.4444
1	311693	99.01	2.4444
1	312009	99.11	2.4444
1	312325	99.21	2.4444
1	312641	99.31	2.4444
1	312957	99.41	2.4444
1	313273	99.51	2.4444
1	313589	99.61	2.4444
1	313905	99.71	2.4444
1	314221	99.81	2.4444
1	314537	99.91	2.4444
2	113	1.11	0
2	429	1.21	0
2	745	1.31	0
2	1061	1.41	0
2	1377	1.51	0
2	1693	1.61	0
2	2009	1.71	0
2	2325	1.81	0
2	2641	1.91	0
2	2963	2.01	0
2	3279	2.11	0
2	3595	2.21	0
2	3911	2.31	0
2	4227	2.41	0
2	4543	2.51	0
2	4859	2.61	0
2	5175	2.71	0
2	5491	2.81	0
2	5807	2.91	0
2	6129	3.01	0
2	6445	3.11	0
2	6761	3.21	0
2	7077	3.31	0
2	7393	3.41	0
2	7709	3.51	0
2	8025	3.61	0
2	8341	3.71	0
2	8657	3.81	0
2	8973	3.91	0
2	9295	4.01	0
2	9611	4.11	0
2	9927	4.21	0
2	10243	4.31	0
2	10559	4.41	0
2	10875	4.51	0
2	11191	4.61	0
2	11507	4.71	0
2	11823	4.81	0
2	12139	4.91	0
2	12461	5.01	0
2	12777	5.11	0
2	13093	5.21	0
2	13409	5.31	0
2	13725	5.41	0
2	14041	5.51	0
2	14357	5.61	0
2	14673	5.71	0
2	14989	5.81	0
2	15305	5.91	0
2	15627	6.01	0
2	15943	6.11	0
2	16259	6.21	0
2	16575	6.31	0
2	16891	6.41	0
2	17207	6.51	0
2	17523	6.61	0
2	17839	6.71	0
2	18155	6.81	0
2	18471	6.91	0
2	18793	7.01	0
2	19109	7.11	0
2	19425	7.21	0
2	19741	7.31	0
2	20057	7.41	0
2	20373	7.51	0
2	20689	7.61	0
2	21005	7.71	0
2	21321	7.81	0
2	21637	7.91	0
2	21959	8.01	0
2	22275	8.11	0
2	22591	8.21	0
2	22907	8.31	0
2	23223	8.41	0
2	23539	8.51	0
2	23855	8.61	0
2	24171	8.71	0
2	24487	8.81	0
2	24803	8.91	0
2	25125	9.01	0
2	25441	9.11	0
2	25757	9.21	0
2	26073	9.31	0
2	26389	9.41	0
2	26705	9.51	0
2	27021	9.61	0
2	27337	9.71	0
2	27653	9.81	0
2	27969	9.91	0
2	28399	10.01	0
2	28718	10.11	0
2	29037	10.21	0
2	29356	10.31	0
2	29675	10.41	0
2	29994	10.51	0
2	30313	10.61	0
2	30632	10.71	0
2	30951	10.81	0
2	31270	10.91	0
2	31595	11.01	0
2	31914	11.11	0
2	32233	11.21	0
2	32552	11.31	0
2	32871	11.41	0
2	33190	11.51	0
2	33509	11.61	0
2	33828	11.71	0
2	34147	11.81	0
2	34466	11.91	0
2	34791	12.01	0
2	35110	12.11	0
2	35429	12.21	0
2	35748	12.31	0
2	36067	12.41	0
2	36386	12.51	0
2	36705	12.61	0
2	37024	12.71	0
2	37343	12.81	0
2	37662	12.91	0
2	37987	13.01	0
2	38306	13.11	0
2	38625	13.21	0
2	38944	13.31	0
2	39263	13.41	0
2	39582	13.51	0
2	39901	13.61	0
2	40220	13.71	0
2	40539	13.81	0
2	40858	13.91	0
2	41183	14.01	0
2	41502	14.11	0
2	41821	14.21	0
2	42140	14.31	0
2	42459	14.41	0
2	42778	14.51	0
2	43097	14.61	0
2	43416	14.71	0
2	43735	14.81	0
2	44054	14.91	0
2	44379	15.01	0
2	44698	15.11	0
2	45017	15.21	0
2	45336	15.31	0
2	45655	15.41	0
2	45974	15.51	0
2	46293	15.61	0
2	46612	15.71	0
2	46931	15.81	0
2	47250	15.91	0
2	47575	16.01	0
2	47894	16.11	0
2	48213	16.21	0
2	48532	16.31	0
2	48851	16.41	0
2	49170	16.51	0
2	49489	16.61	0
2	49808	16.71	0
2	50127	16.81	0
2	50446	16.91	0
2	50771	17.01	0
2	51090	17.11	0
2	51409	17.21	0
2	51728	17.31	0
2	52047	17.41	0
2	52366	17.51	0
2	52685	17.61	0
2	53004	17.71	0
2	53323	17.81	0
2	53642	17.91	0
2	53967	18.01	0
2	54286	18.11	0
2	54605	18.21	0
2	54924	18.31	0
2	55243	18.41	0
2	55562	18.51	0
2	55881	18.61	0
2	56200	18.71	0
2	56519	18.81	0
2	56838	18.91	0
2	57163	19.01	0
2	57482	19.11	0
2	57801	19.21	0
2	58120	19.31	0
2	58439	19.41	0
2	58758	19.51	0
2	59077	19.61	0
2	59396	19.71	0
2	59715	19.81	0
2	60034	19.91	0
2	60359	20.01	0
2	60678	20.11	0
2	60997	20.21	0
2	61316	20.31	0
2	61635	20.41	0
2	61954	20.51	0
2	62273	20.61	0
2	62592	20.71	0
2	62911	20.81	0
2	63230	20.91	0
2	63555	21.01	0
2	63874	21.11	0
2	64193	21.21	0
2	64512	21.31	0
2	64831	21.41	0
2	65150	21.51	0
2	65469	21.61	0
2	65788	21.71	0
2	66107	21.81	0
2	66426	21.91	0
2	66751	22.01	0
2	67070	22.11	0
2	67389	22.21	0
2	67708	22.31	0
2	68027	22.41	0
2	68346	22.51	0
2	68665	22.61	0
2	68984	22.71	0
2	69303	22.81	0
2	69622	22.91	0
2	69947	23.01	0
2	70266	23.11	0
2	70585	23.21	0
2	70904	23.31	0
2	71223	23.41	0
2	71542	23.51	0
2	71861	23.61	0
2	72180	23.71	0
2	72499	23.81	0
2	72818	23.91	0
2	73143	24.01	0
2	73462	24.11	0
2	73781	24.21	0
2	74100	24.31	0
2	74419	24.41	0
2	74738	24.51	0
2	75057	24.61	0
2	75376	24.71	0
2	75695	24.81	0
2	76014	24.91	0
2	76339	25.01	0
2	76658	25.11	0
2	76977	25.21	0
2	77296	25.31	0
2	77615	25.41	0
2	77934	25.51	0
2	78253	25.61	0
2	78572	25.71	0
2	78891	25.81	0
2	79210	25.91	0
2	79535	26.01	0
2	79854	26.11	0
2	80173	26.21	0
2	80492	26.31	0
2	80811	26.41	0
2	81130	26.51	0
2	81449	26.61	0
2	81768	26.71	0
2	82087	26.81	0
2	82406	26.91	0
2	82731	27.01	0
2	83050	27.11	0
2	83369	27.21	0
2	83688	27.31	0
2	84007	27.41	0
2	84326	27.51	0
2	84645	27.61	0
2	84964	27.71	0
2	85283	27.81	0
2	85602	27.91	0
2	85927	28.01	0
2	86246	28.11	0
2	86565	28.21	0
2	86884	28.31	0
2	87203	28.41	0
2	87522	28.51	0
2	87841	28.61	0
2	88160	28.71	0
2	88479	28.81	0
2	88798	28.91	0
2	89123	29.01	0
2	89442	29.11	0
2	89761	29.21	0
2	90080	29.31	0
2	90399	29.41	0
2	90718	29.51	0
2	91037	29.61	0
2	91356	29.71	0
2	91675	29.81	0
2	91994	29.91	0
2	92319	30.01	0
2	92638	30.11	0
2	92957	30.21	0
2	93276	30.31	0
2	93595	30.41	0
2	93914	30.51	0
2	94233	30.61	0
2	94552	30.71	0
2	94871	30.81	0
2	95190	30.91	0
2	95515	31.01	0
2	95834	31.11	0
2	96153	31.21	0
2	96472	31.31	0
2	96791	31.41	0
2	97110	31.51	0
2	97429	31.61	0
2	97748	31.71	0
2	98067	31.81	0
2	98386	31.91	0
2	98711	32.01	0
2	99030	32.11	0
2	99349	32.21	0
2	99668	32.31	0
2	99987	32.41	0
2	100306	32.51	0
2	100625	32.61	0
2	100944	32.71	0
2	101263	32.81	0
2	101582	32.91	0
2	101907	33.01	0
2	102226	33.11	0
2	102545	33.21	0
2	102864	33.31	0
2	103183	33.41	0
2	103502	33.51	0
2	103821	33.61	0
2	104140	33.71	0
2	104459	33.81	0
2	104778	33.91	0
2	105103	34.01	0
2	105422	34.11	0
2	105741	34.21	0
2	106060	34.31	0
2	106379	34.41	0
2	106698	34.51	0
2	107017	34.61	0
2	107336	34.71	0
2	107655	34.81	0
2	107974	34.91	0
2	108299	35.01	0
2	108618	35.11	0
2	108937	35.21	0
2	109256	35.31	0
2	109575	35.41	0
2	109894	35.51	0
2	110213	35.61	0
2	110532	35.71	0
2	110851	35.81	0
2	111170	35.91	0
2	111495	36.01	0
2	111814	36.11	0
2	112133	36.21	0
2	112452	36.31	0
2	112771	36.41	0
2	113090	36.51	0
2	113409	36.61	0
2	113728	36.71	0
2	114047	36.81	0
2	114366	36.91	0
2	114691	37.01	0
2	115010	37.11	0
2	115329	37.21	0
2	115648	37.31	0
2	115967	37.41	0
2	116286	37.51	0
2	116605	37.61	0
2	116924	37.71	0
2	117243	37.81	0
2	117562	37.91	0
2	117887	38.01	0
2	118206	38.11	0
2	118525	38.21	0
2	118844	38.31	0
2	119163	38.41	0
2	119482	38.51	0
2	119801	38.61	0
2	120120	38.71	0
2	120439	38.81	0
2	120758	38.91	0
2	121083	39.01	0
2	121402	39.11	0
2	121721	39.21	0
2	122040	39.31	0
2	122359	39.41	0
2	122678	39.51	0
2	122997	39.61	0
2	123316	39.71	0
2	123635	39.81	0
2	123954	39.91	0
2	124279	40.01	0
2	124598	40.11	0
2	124917	40.21	0
2	125236	40.31	0
2	125555	40.41	0
2	125874	40.51	0
2	126193	40.61	0
2	126512	40.71	0
2	126831	40.81	0
2	127150	40.91	0
2	127475	41.01	0
2	127794	41.11	0
2	128113	41.21	0
2	128432	41.31	0
2	128751	41.41	0
2	129070	41.51	0
2	129389	41.61	0
2	129708	41.71	0
2	130027	41.81	0
2	130346	41.91	0
2	130671	42.01	0
2	130990	42.11	0
2	131309	42.21	0
2	131628	42.31	0
2	131947	42.41	0
2	132266	42.51	0
2	132585	42.61	0
2	132904	42.71	0
2	133223	42.81	0
2	133542	42.91	0
2	133867	43.01	0
2	134186	43.11	0
2	134505	43.21	0
2	134824	43.31	0
2	135143	43.41	0
2	135462	43.51	0
2	135781	43.61	0
2	136100	43.71	0
2	136419	43.81	0
2	136738	43.91	0
2	137063	44.01	0
2	137382	44.11	0
2	137701	44.21	0
2	138020	44.31	0
2	138339	44.41	0
2	138658	44.51	0
2	138977	44.61	0
2	139296	44.71	0
2	139615	44.81	0
2	139934	44.91	0
2	140259	45.01	0
2	140578	45.11	0
2	140897	45.21	0
2	141216	45.31	0
2	141535	45.41	0
2	141854	45.51	0
2	142173	45.61	0
2	142492	45.71	0
2	142957	45.81	0
2	143275	45.91	0
2	143599	46.01	0
2	144063	46.11	0
2	144380	46.21	0
2	144843	46.31	0
2	145159	46.41	0
2	145475	46.51	0
2	145791	46.61	0
2	146107	46.71	0
2	146423	46.81	0
2	146739	46.91	0
2	147061	47.01	0
2	147377	47.11	0
2	147693	47.21	0
2	148009	47.31	0
2	148325	47.41	0
2	148641	47.51	0
2	148957	47.61	0
2	149273	47.71	0
2	149589	47.81	0
2	149905	47.91	0
2	150227	48.01	0
2	150543	48.11	0
2	150859	48.21	0
2	151175	48.31	0
2	151491	48.41	0
2	151807	48.51	0
2	152123	48.61	0
2	152439	48.71	0
2	152755	48.81	0
2	153071	48.91	0
2	153393	49.01	0
2	153709	49.11	0
2	154025	49.21	0
2	154341	49.31	0
2	154657	49.41	0
2	154973	49.51	0
2	155289	49.61	0
2	155605	49.71	0
2	155921	49.81	0
2	156237	49.91	0
2	156559	50.01	0
2	156875	50.11	0
2	157191	50.21	0
2	157507	50.31	0
2	157823	50.41	0
2	158139	50.51	0
2	158455	50.61	0
2	158771	50.71	0
2	159087	50.81	0
2	159403	50.91	0
2	159725	51.01	0
2	160041	51.11	0
2	160357	51.21	0
2	160673	51.31	0
2	160989	51.41	0
2	161305	51.51	0
2	161621	51.61	0
2	161937	51.71	0
2	162253	51.81	0
2	162569	51.91	0
2	162891	52.01	0
2	163207	52.11	0
2	163523	52.21	0
2	163839	52.31	0
2	164155	52.41	0
2	164471	52.51	0
2	164787	52.61	0
2	165103	52.71	0
2	165419	52.81	0
2	165735	52.91	0
2	166057	53.01	0
2	166373	53.11	0
2	166689	53.21	0
2	167005	53.31	0
2	167321	53.41	0
2	167637	53.51	0
2	167953	53.61	0
2	168269	53.71	0
2	168585	53.81	0
2	168901	53.91	0
2	169223	54.01	0
2	169539	54.11	0
2	169855	54.21	0
2	170171	54.31	0
2	170487	54.41	0
2	170803	54.51	0
2	171119	54.61	0
2	171435	54.71	0
2	171751	54.81	0
2	172067	54.91	0
2	172389	55.01	0
2	172705	55.11	0
2	173021	55.21	0
2	173337	55.31	0
2	173653	55.41	0
2	173969	55.51	0
2	174285	55.61	0
2	174601	55.71	0
2	174917	55.81	0
2	175233	55.91	0
2	175555	56.01	0
2	175871	56.11	0
2	176187	56.21	0
2	176503	56.31	0
2	176819	56.41	0
2	177135	56.51	0
2	177451	56.61	0
2	177767	56.71	0
2	178083	56.81	0
2	178399	56.91	0
2	178721	57.01	0
2	179037	57.11	0
2	179353	57.21	0
2	179669	57.31	0
2	179985	57.41	0
2	180301	57.51	0
2	180617	57.61	0
2	180933	57.71	0
2	181249	57.81	0
2	181565	57.91	0
2	181887	58.01	0
2	182203	58.11	0
2	182519	58.21	0
2	182835	58.31	0
2	183151	58.41	0
2	183467	58.51	0
2	183783	58.61	0
2	184099	58.71	0
2	184415	58.81	0
2	184731	58.91	0
2	185053	59.01	0
2	185369	59.11	0
2	185685	59.21	0
2	186001	59.31	0
2	186317	59.41	0
2	186633	59.51	0
2	186949	59.61	0
2	187265	59.71	0
2	187581	59.81	0
2	187897	59.91	0
2	188219	60.01	0
2	188535	60.11	0
2	188851	60.21	0
2	189167	60.31	0
2	189483	60.41	0
2	189799	60.51	0
2	190115	60.61	0
2	190431	60.71	0
2	190747	60.81	0
2	191063	60.91	0
2	191385	61.01	0
2	191701	61.11	0
2	192017	61.21	0
2	192333	61.31	0
2	192649	61.41	0
2	192965	61.51	0
2	193281	61.61	0
2	193597	61.71	0
2	193913	61.81	0
2	194229	61.91	0
2	194551	62.01	0
2	194867	62.11	0
2	195183	62.21	0
2	195499	62.31	0
2	195815	62.41	0
2	196131	62.51	0
2	196447	62.61	0
2	196763	62.71	0
2	197079	62.81	0
2	197395	62.91	0
2	197717	63.01	0
2	198033	63.11	0
2	198349	63.21	0
2	198665	63.31	0
2	198981	63.41	0
2	199297	63.51	0
2	199613	63.61	0
2	199929	63.71	0
2	200245	63.81	0
2	200561	63.91	0
2	200883	64.01	0
2	201199	64.11	0
2	201515	64.21	0
2	201831	64.31	0
2	202147	64.41	0
2	202463	64.51	0
2	202779	64.61	0
2	203095	64.71	0
2	203411	64.81	0
2	203727	64.91	0
2	204049	65.01	0
2	204365	65.11	0
2	204681	65.21	0
2	204997	65.31	0
2	205313	65.41	0
2	205629	65.51	0
2	205945	65.61	0
2	206261	65.71	0
2	206577	65.81	0
2	206893	65.91	0
2	207215	66.01	0
2	207531	66.11	0
2	207847	66.21	0
2	208163	66.31	0
2	208479	66.41	0
2	208795	66.51	0
2	209111	66.61	0
2	209427	66.71	0
2	209743	66.81	0
2	210059	66.91	0
2	210381	67.01	0
2	210697	67.11	0
2	211013	67.21	0
2	211329	67.31	0
2	211645	67.41	0
2	211961	67.51	0
2	212277	67.61	0
2	212593	67.71	0
2	212909	67.81	0
2	213225	67.91	0
2	213547	68.01	0
2	213863	68.11	0
2	214179	68.21	0
2	214495	68.31	0
2	214811	68.41	0
2	215127	68.51	0
2	215443	68.61	0
2	215759	68.71	0
2	216075	68.81	0
2	216391	68.91	0
2	216713	69.01	0
2	217029	69.11	0
2	217345	69.21	0
2	217661	69.31	0
2	217977	69.41	0
2	218293	69.51	0
2	218609	69.61	0
2	218925	69.71	0
2	219241	69.81	0
2	219557	69.91	0
2	219879	70.01	0
2	220195	70.11	0
2	220511	70.21	0
2	220827	70.31	0
2	221143	70.41	0
2	221459	70.51	0
2	221775	70.61	0
2	222091	70.71	0
2	222407	70.81	0
2	222723	70.91	0
2	223045	71.01	0
2	223361	71.11	0
2	223677	71.21	0
2	223993	71.31	0
2	224309	71.41	0
2	224625	71.51	0
2	224941	71.61	0
2	225257	71.71	0
2	225573	71.81	0
2	225889	71.91	0
2	226211	72.01	0
2	226527	72.11	0
2	226843	72.21	0
2	227159	72.31	0
2	227475	72.41	0
2	227791	72.51	0
2	228107	72.61	0
2	228423	72.71	0
2	228739	72.81	0
2	229055	72.91	0
2	229377	73.01	0
2	229693	73.11	0
2	230009	73.21	0
2	230325	73.31	0
2	230641	73.41	0
2	230957	73.51	0
2	231273	73.61	0
2	231589	73.71	0
2	231905	73.81	0
2	232221	73.91	0
2	232543	74.01	0
2	232859	74.11	0
2	233175	74.21	0
2	233491	74.31	0
2	233807	74.41	0
2	234123	74.51	0
2	234439	74.61	0
2	234755	74.71	0
2	235071	74.81	0
2	235387	74.91	0
2	235709	75.01	0
2	236025	75.11	0
2	236341	75.21	0
2	236657	75.31	0
2	236973	75.41	0
2	237289	75.51	0
2	237605	75.61	0
2	237921	75.71	0
2	238237	75.81	0
2	238553	75.91	0
2	238875	76.01	0
2	239191	76.11	0
2	239507	76.21	0
2	239823	76.31	0
2	240139	76.41	0
2	240455	76.51	0
2	240771	76.61	0
2	241087	76.71	0
2	241403	76.81	0
2	241719	76.91	0
2	242041	77.01	0
2	242357	77.11	0
2	242673	77.21	0
2	242989	77.31	0
2	243305	77.41	0
2	243621	77.51	0
2	243937	77.61	0
2	244253	77.71	0
2	244569	77.81	0
2	244885	77.91	0
2	245207	78.01	0
2	245523	78.11	0
2	245839	78.21	0
2	246155	78.31	0
2	246471	78.41	0
2	246787	78.51	0
2	247103	78.61	0
2	247419	78.71	0
2	247735	78.81	0
2	248051	78.91	0
2	248373	79.01	0
2	248689	79.11	0
2	249005	79.21	0
2	249321	79.31	0
2	249637	79.41	0
2	249953	79.51	0
2	250269	79.61	0
2	250585	79.71	0
2	250901	79.81	0
2	251217	79.91	0
2	251539	80.01	0
2	251855	80.11	0
2	252171	80.21	0
2	252487	80.31	0
2	252803	80.41	0
2	253119	80.51	0
2	253435	80.61	0
2	253751	80.71	0
2	254067	80.81	0
2	254383	80.91	0
2	254705	81.01	0
2	255021	81.11	0
2	255337	81.21	0
2	255653	81.31	0
2	255969	81.41	0
2	256285	81.51	0
2	256601	81.61	0
2	256917	81.71	0
2	257233	81.81	0
2	257549	81.91	0
2	257871	82.01	0
2	258187	82.11	0
2	258503	82.21	0
2	258819	82.31	0
2	259135	82.41	0
2	259451	82.51	0
2	259767	82.61	0
2	260083	82.71	0
2	260399	82.81	0
2	260715	82.91	0
2	261037	83.01	0
2	261353	83.11	0
2	261669	83.21	0
2	261985	83.31	0
2	262301	83.41	0
2	262617	83.51	0
2	262933	83.61	0
2	263249	83.71	0
2	263565	83.81	0
2	263881	83.91	0
2	264203	84.01	0
2	264519	84.11	0
2	264835	84.21	0
2	265151	84.31	0
2	265467	84.41	0
2	265783	84.51	0
2	266099	84.61	0
2	266415	84.71	0
2	266731	84.81	0
2	267047	84.91	0
2	267369	85.01	0
2	267685	85.11	0
2	268001	85.21	0
2	268317	85.31	0
2	268633	85.41	0
2	268949	85.51	0
2	269265	85.61	0
2	269581	85.71	0
2	269897	85.81	0
2	270213	85.91	0
2	270535	86.01	0
2	270851	86.11	0
2	271167	86.21	0
2	271483	86.31	0
2	271799	86.41	0
2	272115	86.51	0
2	272431	86.61	0
2	272747	86.71	0
2	273063	86.81	0
2	273379	86.91	0
2	273701	87.01	0
2	274017	87.11	0
2	274333	87.21	0
2	274649	87.31	0
2	274965	87.41	0
2	275281	87.51	0
2	275597	87.61	0
2	275913	87.71	0
2	276229	87.81	0
2	276545	87.91	0
2	276867	88.01	0
2	277183	88.11	0
2	277499	88.21	0
2	277815	88.31	0
2	278131	88.41	0
2	278447	88.51	0
2	278763	88.61	0
2	279079	88.71	0
2	279395	88.81	0
2	279711	88.91	0
2	280033	89.01	0
2	280349	89.11	0
2	280665	89.21	0
2	280981	89.31	0
2	281297	89.41	0
2	281613	89.51	0
2	281929	89.61	0
2	282245	89.71	0
2	282561	89.81	0
2	282877	89.91	0
2	283199	90.01	0
2	283515	90.11	0
2	283831	90.21	0
2	284147	90.31	0
2	284463	90.41	0
2	284779	90.51	0
2	285095	90.61	0
2	285411	90.71	0
2	285727	90.81	0
2	286043	90.91	0
2	286365	91.01	0
2	286681	91.11	0
2	286997	91.21	0
2	287313	91.31	0
2	287629	91.41	0
2	287945	91.51	0
2	288261	91.61	0
2	288577	91.71	0
2	288893	91.81	0
2	289209	91.91	0
2	289531	92.01	0
2	289847	92.11	0
2	290163	92.21	0
2	290479	92.31	0
2	290795	92.41	0
2	291111	92.51	0
2	291427	92.61	0
2	291743	92.71	0
2	292059	92.81	0
2	292375	92.91	0
2	292697	93.01	0
2	293013	93.11	0
2	293329	93.21	0
2	293645	93.31	0
2	293961	93.41	0
2	294277	93.51	0
2	294593	93.61	0
2	294909	93.71	0
2	295225	93.81	0
2	295541	93.91	0
2	295863	94.01	0
2	296179	94.11	0
2	296495	94.21	0
2	296811	94.31	0
2	297127	94.41	0
2	297443	94.51	0
2	297759	94.61	0
2	298075	94.71	0
2	298391	94.81	0
2	298707	94.91	0
2	299029	95.01	0
2	299345	95.11	0
2	299661	95.21	0
2	299977	95.31	0
2	300293	95.41	0
2	300609	95.51	0
2	300925	95.61	0
2	301241	95.71	0
2	301557	95.81	0
2	301873	95.91	0
2	302195	96.01	0
2	302511	96.11	0
2	302827	96.21	0
2	303143	96.31	0
2	303459	96.41	0
2	303775	96.51	0
2	304091	96.61	0
2	304407	96.71	0
2	304723	96.81	0
2	305039	96.91	0
2	305361	97.01	0
2	305677	97.11	0
2	305993	97.21	0
2	306309	97.31	0
2	306625	97.41	0
2	306941	97.51	0
2	307257	97.61	0
2	307573	97.71	0
2	307889	97.81	0
2	308205	97.91	0
2	308527	98.01	0
2	308843	98.11	0
2	309159	98.21	0
2	309475	98.31	0
2	309791	98.41	0
2	310107	98.51	0
2	310423	98.61	0
2	310739	98.71	0
2	311055	98.81	0
2	311371	98.91	0
2	311693	99.01	0
2	312009	99.11	0
2	312325	99.21	0
2	312641	99.31	0
2	312957	99.41	0
2	313273	99.51	0
2	313589	99.61	0
2	313905	99.71	0
2	314221	99.81	0
2	314537	99.91	0
3	113	1.11	-0.000716383
3	429	1.21	-0.00136341
3	745	1.31	-0.00186974
3	1061	1.41	-0.00225157
3	1377	1.51	-0.00252443
3	1693	1.61	-0.00270298
3	2009	1.71	-0.00280098
3	2325	1.81	-0.00283113
3	2641	1.91	-0.00280509
3	2963	2.01	-0.00273342
3	3279	2.11	-0.00262559
3	3595	2.21	-0.00249005
3	3911	2.31	-0.00233419
3	4227	2.41	-0.00216447
3	4543	2.51	-0.00198642
3	4859	2.61	-0.00180472
3	5175	2.71	-0.0016233
3	5491	2.81	-0.00144536
3	5807	2.91	-0.00127346
3	6129	3.01	-0.0011096
3	6445	3.11	-0.000955278
3	6761	3.21	-0.000811546
3	7077	3.31	-0.00067908
3	7393	3.41	-0.000558232
3	7709	3.51	-0.000449082
3	8025	3.61	-0.000351487
3	8341	3.71	-0.00026512
3	8657	3.81	-0.000189514
3	8973	3.91	-0.000124092
3	9295	4.01	-6.81972e-05
3	9611	4.11	-2.11209e-05
3	9927	4.21	1.78769e-05
3	10243	4.31	4.9548e-05
3	10559	4.41	7.46407e-05
3	10875	4.51	9.38867e-05
3	11191	4.61	0.000107991
3	11507	4.71	0.000117625
3	11823	4.81	0.000123418
3	12139	4.91	0.000125957
3	12461	5.01	0.000125781
3	12777	5.11	0.00012338
3	13093	5.21	0.000119198
3	13409	5.31	0.000113629
3	13725	5.41	0.000107022
3	14041	5.51	9.96832e-05
3	14357	5.61	9.18747e-05
3	14673	5.71	8.38211e-05
3	14989	5.81	7.57109e-05
3	15305	5.91	6.76999e-05
3	15627	6.01	5.99137e-05
3	15943	6.11	5.24518e-05
3	16259	6.21	4.53896e-05
3	16575	6.31	3.87821e-05
3	16891	6.41	3.2666e-05
3	17207	6.51	2.70628e-05
3	17523	6.61	2.19809e-05
3	17839	6.71	1.74176e-05
3	18155	6.81	1.33618e-05
3	18471	6.91	9.79494e-06
3	18793	7.01	6.6932e-06
3	19109	7.11	4.02864e-06
3	19425	7.21	1.77051e-06
3	19741	7.31	-1.13691e-07
3	20057	7.41	-1.65736e-06
3	20373	7.51	-2.89397e-06
3	20689	7.61	-3.85652e-06
3	21005	7.71	-4.57698e-06
3	21321	7.81	-5.08591e-06
3	21637	7.91	-5.41219e-06
3	21959	8.01	-5.58279e-06
3	22275	8.11	-5.6226e-06
3	22591	8.21	-5.55442e-06
3	22907	8.31	-5.39886e-06
3	23223	8.41	-5.17441e-06
3	23539	8.51	-4.89748e-06
3	23855	8.61	-4.58246e-06
3	24171	8.71	-4.24184e-06
3	24487	8.81	-3.88634e-06
3	24803	8.91	-3.52499e-06
3	25125	9.01	-3.16534e-06
3	25441	9.11	-2.81353e-06
3	25757	9.21	-2.47446e-06
3	26073	9.31	-2.15192e-06
3	26389	9.41	-1.84873e-06
3	26705	9.51	-1.56685e-06
3	27021	9.61	-1.30751e-06
3	27337	9.71	-1.0713e-06
3	27653	9.81	-8.58321e-07
3	27969	9.91	-6.68206e-07
3	28399	10.01	-5.0026e-07
3	28718	10.11	-3.53514e-07
3	29037	10.21	-2.2679e-07
3	29356	10.31	-1.18765e-07
3	29675	10.41	-2.80163e-08
3	29994	10.51	4.6931e-08
3	30313	10.61	1.07573e-07
3	30632	10.71	1.55391e-07
3	30951	10.81	1.91831e-07
3	31270	10.91	2.18284e-07
3	31595	11.01	2.3607e-07
3	31914	11.11	2.46427e-07
3	32233	11.21	2.50502e-07
3	32552	11.31	2.49353e-07
3	32871	11.41	2.43938e-07
3	33190	11.51	2.3512e-07
3	33509	11.61	2.23669e-07
3	33828	11.71	2.10264e-07
3	34147	11.81	1.95496e-07
3	34466	11.91	1.79874e-07
3	34791	12.01	1.63833e-07
3	35110	12.11	1.47736e-07
3	35429	12.21	1.3188e-07
3	35748	12.31	1.16508e-07
3	36067	12.41	1.01807e-07
3	36386	12.51	8.79222e-08
3	36705	12.61	7.49541e-08
3	37024	12.71	6.29711e-08
3	37343	12.81	5.20114e-08
3	37662	12.91	4.20883e-08
3	37987	13.01	3.3193e-08
3	38306	13.11	2.53003e-08
3	38625	13.21	1.83718e-08
3	38944	13.31	1.23581e-08
3	39263	13.41	7.20348e-09
3	39582	13.51	2.84537e-09
3	39901	13.61	-7.80886e-10
3	40220	13.71	-3.74136e-09
3	40539	13.81	-6.10285e-09
3	40858	13.91	-7.93072e-09
3	41183	14.01	-9.28821e-09
3	41502	14.11	-1.0235e-08
3	41821	14.21	-1.08283e-08
3	42140	14.31	-1.11211e-08
3	42459	14.41	-1.11612e-08
3	42778	14.51	-1.09946e-08
3	43097	14.61	-1.06599e-08
3	43416	14.71	-1.01945e-08
3	43735	14.81	-9.62999e-09
3	44054	14.91	-8.99405e-09
3	44379	15.01	-8.31086e-09
3	44698	15.11	-7.60103e-09
3	45017	15.21	-6.88338e-09
3	45336	15.31	-6.17071e-09
3	45655	15.41	-5.47544e-09
3	45974	15.51	-4.80682e-09
3	46293	15.61	-4.17266e-09
3	46612	15.71	-3.57687e-09
3	46931	15.81	-3.02443e-09
3	47250	15.91	-2.51674e-09
3	47575	16.01	-2.05489e-09
3	47894	16.11	-1.63958e-09
3	48213	16.21	-1.26903e-09
3	48532	16.31	-9.42535e-10
3	48851	16.41	-6.57963e-10
3	49170	16.51	-4.1247e-10
3	49489	16.61	-2.04636e-10
3	49808	16.71	-2.91323e-11
3	50127	16.81	1.14753e-10
3	50446	16.91	2.30926e-10
3	50771	17.01	3.22231e-10
3	51090	17.11	3.91154e-10
3	51409	17.21	4.40892e-10
3	51728	17.31	4.73577e-10
3	52047	17.41	4.92051e-10
3	52366	17.51	4.98446e-10
3	52685	17.61	4.94893e-10
3	53004	17.71	4.82814e-10
3	53323	17.81	4.6434e-10
3	53642	17.91	4.40892e-10
3	53967	18.01	4.13536e-10
3	54286	18.11	3.83693e-10
3	54605	18.21	3.51719e-10
3	54924	18.31	3.19744e-10
3	55243	18.41	2.8777e-10
3	55562	18.51	2.55795e-10
3	55881	18.61	2.25953e-10
3	56200	18.71	1.97531e-10
3	56519	18.81	1.6982e-10
3	56838	18.91	1.44951e-10
3	57163	19.01	1.21503e-10
3	57482	19.11	1.00187e-10
3	57801	19.21	8.10019e-11
3	58120	19.31	6.32383e-11
3	58439	19.41	4.86722e-11
3	58758	19.51	3.44613e-11
3	59077	19.61	2.34479e-11
3	59396	19.71	1.27898e-11
3	59715	19.81	4.9738e-12
3	60034	19.91	-2.13163e-12
3	60359	20.01	-8.17124e-12
3	60678	20.11	-1.1724e-11
3	60997	20.21	-1.52767e-11
3	61316	20.31	-1.88294e-11
3	61635	20.41	-2.02505e-11
3	61954	20.51	-2.02505e-11
3	62273	20.61	-2.02505e-11
3	62592	20.71	-2.02505e-11
3	62911	20.81	-2.02505e-11
3	63230	20.91	-2.02505e-11
3	63555	21.01	-2.02505e-11
3	63874	21.11	-2.02505e-11
3	64193	21.21	-2.02505e-11
3	64512	21.31	-1.88294e-11
3	64831	21.41	-1.7053e-11
3	65150	21.51	-1.52767e-11
3	65469	21.61	-1.38556e-11
3	65788	21.71	-1.24345e-11
3	66107	21.81	-1.13687e-11
3	66426	21.91	-1.03029e-11
3	66751	22.01	-9.23706e-12
3	67070	22.11	-8.52651e-12
3	67389	22.21	-7.4607e-12
3	67708	22.31	-6.75016e-12
3	68027	22.41	-6.03961e-12
3	68346	22.51	-5.68434e-12
3	68665	22.61	-4.9738e-12
3	68984	22.71	-4.61853e-12
3	69303	22.81	-4.26326e-12
3	69622	22.91	-3.90799e-12
3	69947	23.01	-3.55271e-12
3	70266	23.11	-3.19744e-12
3	70585	23.21	-2.84217e-12
3	70904	23.31	-2.4869e-12
3	71223	23.41	-2.13163e-12
3	71542	23.51	-2.13163e-12
3	71861	23.61	-1.77636e-12
3	72180	23.71	-1.77636e-12
3	72499	23.81	-1.42109e-12
3	72818	23.91	-1.42109e-12
3	73143	24.01	-1.06581e-12
3	73462	24.11	-1.06581e-12
3	73781	24.21	-1.06581e-12
3	74100	24.31	-1.06581e-12
3	74419	24.41	-7.10543e-13
3	74738	24.51	-7.10543e-13
3	75057	24.61	-7.10543e-13
3	75376	24.71	-7.10543e-13
3	75695	24.81	-7.10543e-13
3	76014	24.91	-3.55271e-13
3	76339	25.01	-3.55271e-13
3	76658	25.11	-3.55271e-13
3	76977	25.21	-3.55271e-13
3	77296	25.31	-3.55271e-13
3	77615	25.41	-3.55271e-13
3	77934	25.51	-3.55271e-13
3	78253	25.61	-3.55271e-13
3	78572	25.71	-3.55271e-13
3	78891	25.81	-3.55271e-13
3	79210	25.91	0
3	79535	26.01	0
3	79854	26.11	0
3	80173	26.21	0
3	80492	26.31	0
3	80811	26.41	0
3	81130	26.51	0
3	81449	26.61	0
3	81768	26.71	0
3	82087	26.81	0
3	82406	26.91	0
3	82731	27.01	0
3	83050	27.11	0
3	83369	27.21	0
3	83688	27.31	0
3	84007	27.41	0
3	84326	27.51	0
3	84645	27.61	0
3	84964	27.71	0
3	85283	27.81	0
3	85602	27.91	0
3	85927	28.01	0
3	86246	28.11	0
3	86565	28.21	0
3	86884	28.31	0
3	87203	28.41	0
3	87522	28.51	0
3	87841	28.61	0
3	88160	28.71	0
3	88479	28.81	0
3	88798	28.91	0
3	89123	29.01	0
3	89442	29.11	0
3	89761	29.21	0
3	90080	29.31	0
3	90399	29.41	0
3	90718	29.51	0
3	91037	29.61	0
3	91356	29.71	0
3	91675	29.81	0
3	91994	29.91	0
3	92319	30.01	0
3	92638	30.11	0
3	92957	30.21	0
3	93276	30.31	0
3	93595	30.41	0
3	93914	30.51	0
3	94233	30.61	0
3	94552	30.71	0
3	94871	30.81	0
3	95190	30.91	0
3	95515	31.01	0
3	95834	31.11	0
3	96153	31.21	0
3	96472	31.31	0
3	96791	31.41	0
3	97110	31.51	0
3	97429	31.61	0
3	97748	31.71	0
3	98067	31.81	0
3	98386	31.91	0
3	98711	32.01	0
3	99030	32.11	0
3	99349	32.21	0
3	99668	32.31	0
3	99987	32.41	0
3	100306	32.51	0
3	100625	32.61	0
3	100944	32.71	0
3	101263	32.81	0
3	101582	32.91	0
3	101907	33.01	0
3	102226	33.11	0
3	102545	33.21	0
3	102864	33.31	0
3	103183	33.41	0
3	103502	33.51	0
3	103821	33.61	0
3	104140	33.71	0
3	104459	33.81	0
3	104778	33.91	0
3	105103	34.01	0
3	105422	34.11	0
3	105741	34.21	0
3	106060	34.31	0
3	106379	34.41	0
3	106698	34.51	0
3	107017	34.61	0
3	107336	34.71	0
3	107655	34.81	0
3	107974	34.91	0
3	108299	35.01	0
3	108618	35.11	0
3	108937	35.21	0
3	109256	35.31	0
3	109575	35.41	0
3	109894	35.51	0
3	110213	35.61	0
3	110532	35.71	0
3	110851	35.81	0
3	111170	35.91	0
3	111495	36.01	0
3	111814	36.11	0
3	112133	36.21	0
3	112452	36.31	0
3	112771	36.41	0
3	113090	36.51	0
3	113409	36.61	0
3	113728	36.71	0
3	114047	36.81	0
3	114366	36.91	0
3	114691	37.01	0
3	115010	37.11	0
3	115329	37.21	0
3	115648	37.31	0
3	115967	37.41	0
3	116286	37.51	0
3	116605	37.61	0
3	116924	37.71	0
3	117243	37.81	0
3	117562	37.91	0
3	117887	38.01	0
3	118206	38.11	0
3	118525	38.21	0
3	118844	38.31	0
3	119163	38.41	0
3	119482	38.51	0
3	119801	38.61	0
3	120120	38.71	0
3	120439	38.81	0
3	120758	38.91	0
3	121083	39.01	0
3	121402	39.11	0
3	121721	39.21	0
3	122040	39.31	0
3	122359	39.41	0
3	122678	39.51	0
3	122997	39.61	0
3	123316	39.71	0
3	123635	39.81	0
3	123954	39.91	0
3	124279	40.01	0
3	124598	40.11	0
3	124917	40.21	0
3	125236	40.31	0
3	125555	40.41	0
3	125874	40.51	0
3	126193	40.61	0
3	126512	40.71	0
3	126831	40.81	0
3	127150	40.91	0
3	127475	41.01	0
3	127794	41.11	0
3	128113	41.21	0
3	128432	41.31	0
3	128751	41.41	0
3	129070	41.51	0
3	129389	41.61	0
3	129708	41.71	0
3	130027	41.81	0
3	130346	41.91	0
3	130671	42.01	0
3	130990	42.11	0
3	131309	42.21	0
3	131628	42.31	0
3	131947	42.41	0
3	132266	42.51	0
3	132585	42.61	0
3	132904	42.71	0
3	133223	42.81	0
3	133542	42.91	0
3	133867	43.01	0
3	134186	43.11	0
3	134505	43.21	0
3	134824	43.31	0
3	135143	43.41	0
3	135462	43.51	0
3	135781	43.61	0
3	136100	43.71	0
3	136419	43.81	0
3	136738	43.91	0
3	137063	44.01	0
3	137382	44.11	0
3	137701	44.21	0
3	138020	44.31	0
3	138339	44.41	0
3	138658	44.51	0
3	138977	44.61	0
3	139296	44.71	0
3	139615	44.81	0
3	139934	44.91	0
3	140259	45.01	0
3	140578	45.11	0
3	140897	45.21	0
3	141216	45.31	0
3	141535	45.41	0
3	141854	45.51	0
3	142173	45.61	0
3	142492	45.71	0
3	142957	45.81	0
3	143275	45.91	0
3	143599	46.01	0
3	144063	46.11	0
3	144380	46.21	0
3	144843	46.31	0
3	145159	46.41	0
3	145475	46.51	0
3	145791	46.61	0
3	146107	46.71	0
3	146423	46.81	0
3	146739	46.91	0
3	147061	47.01	0
3	147377	47.11	0
3	147693	47.21	0
3	148009	47.31	0
3	148325	47.41	0
3	148641	47.51	0
3	148957	47.61	0
3	149273	47.71	0
3	149589	47.81	0
3	149905	47.91	0
3	150227	48.01	0
3	150543	48.11	0
3	150859	48.21	0
3	151175	48.31	0
3	151491	48.41	0
3	151807	48.51	0
3	152123	48.61	0
3	152439	48.71	0
3	152755	48.81	0
3	153071	48.91	0
3	153393	49.01	0
3	153709	49.11	0
3	154025	49.21	0
3	154341	49.31	0
3	154657	49.41	0
3	154973	49.51	0
3	155289	49.61	0
3	155605	49.71	0
3	155921	49.81	0
3	156237	49.91	0
3	156559	50.01	0
3	156875	50.11	0
3	157191	50.21	0
3	157507	50.31	0
3	157823	50.41	0
3	158139	50.51	0
3	158455	50.61	0
3	158771	50.71	0
3	159087	50.81	0
3	159403	50.91	0
3	159725	51.01	0
3	160041	51.11	0
3	160357	51.21	0
3	160673	51.31	0
3	160989	51.41	0
3	161305	51.51	0
3	161621	51.61	0
3	161937	51.71	0
3	162253	51.81	0
3	162569	51.91	0
3	162891	52.01	0
3	163207	52.11	0
3	163523	52.21	0
3	163839	52.31	0
3	164155	52.41	0
3	164471	52.51	0
3	164787	52.61	0
3	165103	52.71	0
3	165419	52.81	0
3	165735	52.91	0
3	166057	53.01	0
3	166373	53.11	0
3	166689	53.21	0
3	167005	53.31	0
3	167321	53.41	0
3	167637	53.51	0
3	167953	53.61	0
3	168269	53.71	0
3	168585	53.81	0
3	168901	53.91	0
3	169223	54.01	0
3	169539	54.11	0
3	169855	54.21	0
3	170171	54.31	0
3	170487	54.41	0
3	170803	54.51	0
3	171119	54.61	0
3	171435	54.71	0
3	171751	54.81	0
3	172067	54.91	0
3	172389	55.01	0
3	172705	55.11	0
3	173021	55.21	0
3	173337	55.31	0
3	173653	55.41	0
3	173969	55.51	0
3	174285	55.61	0
3	174601	55.71	0
3	174917	55.81	0
3	175233	55.91	0
3	175555	56.01	0
3	175871	56.11	0
3	176187	56.21	0
3	176503	56.31	0
3	176819	56.41	0
3	177135	56.51	0
3	177451	56.61	0
3	177767	56.71	0
3	178083	56.81	0
3	178399	56.91	0
3	178721	57.01	0
3	179037	57.11	0
3	179353	57.21	0
3	179669	57.31	0
3	179985	57.41	0
3	180301	57.51	0
3	180617	57.61	0
3	180933	57.71	0
3	181249	57.81	0
3	181565	57.91	0
3	181887	58.01	0
3	182203	58.11	0
3	182519	58.21	0
3	182835	58.31	0
3	183151	58.41	0
3	183467	58.51	0
3	183783	58.61	0
3	184099	58.71	0
3	184415	58.81	0
3	184731	58.91	0
3	185053	59.01	0
3	185369	59.11	0
3	185685	59.21	0
3	186001	59.31	0
3	186317	59.41	0
3	186633	59.51	0
3	186949	59.61	0
3	187265	59.71	0
3	187581	59.81	0
3	187897	59.91	0
3	188219	60.01	0
3	188535	60.11	0
3	188851	60.21	0
3	189167	60.31	0
3	189483	60.41	0
3	189799	60.51	0
3	190115	60.61	0
3	190431	60.71	0
3	190747	60.81	0
3	191063	60.91	0
3	191385	61.01	0
3	191701	61.11	0
3	192017	61.21	0
3	192333	61.31	0
3	192649	61.41	0
3	192965	61.51	0
3	193281	61.61	0
3	193597	61.71	0
3	193913	61.81	0
3	194229	61.91	0
3	194551	62.01	0
3	194867	62.11	0
3	195183	62.21	0
3	195499	62.31	0
3	195815	62.41	0
3	196131	62.51	0
3	196447	62.61	0
3	196763	62.71	0
3	197079	62.81	0
3	197395	62.91	0
3	197717	63.01	0
3	198033	63.11	0
3	198349	63.21	0
3	198665	63.31	0
3	198981	63.41	0
3	199297	63.51	0
3	199613	63.61	0
3	199929	63.71	0
3	200245	63.81	0
3	200561	63.91	0
3	200883	64.01	0
3	201199	64.11	0
3	201515	64.21	0
3	201831	64.31	0
3	202147	64.41	0
3	202463	64.51	0
3	202779	64.61	0
3	203095	64.71	0
3	203411	64.81	0
3	203727	64.91	0
3	204049	65.01	0
3	204365	65.11	0
3	204681	65.21	0
3	204997	65.31	0
3	205313	65.41	0
3	205629	65.51	0
3	205945	65.61	0
3	206261	65.71	0
3	206577	65.81	0
3	206893	65.91	0
3	207215	66.01	0
3	207531	66.11	0
3	207847	66.21	0
3	208163	66.31	0
3	208479	66.41	0
3	208795	66.51	0
3	209111	66.61	0
3	209427	66.71	0
3	209743	66.81	0
3	210059	66.91	0
3	210381	67.01	0
3	210697	67.11	0
3	211013	67.21	0
3	211329	67.31	0
3	211645	67.41	0
3	211961	67.51	0
3	212277	67.61	0
3	212593	67.71	0
3	212909	67.81	0
3	213225	67.91	0
3	213547	68.01	0
3	213863	68.11	0
3	214179	68.21	0
3	214495	68.31	0
3	214811	68.41	0
3	215127	68.51	0
3	215443	68.61	0
3	215759	68.71	0
3	216075	68.81	0
3	216391	68.91	0
3	216713	69.01	0
3	217029	69.11	0
3	217345	69.21	0
3	217661	69.31	0
3	217977	69.41	0
3	218293	69.51	0
3	218609	69.61	0
3	218925	69.71	0
3	219241	69.81	0
3	219557	69.91	0
3	219879	70.01	0
3	220195	70.11	0
3	220511	70.21	0
3	220827	70.31	0
3	221143	70.41	0
3	221459	70.51	0
3	221775	70.61	0
3	222091	70.71	0
3	222407	70.81	0
3	222723	70.91	0
3	223045	71.01	0
3	223361	71.11	0
3	223677	71.21	0
3	223993	71.31	0
3	224309	71.41	0
3	224625	71.51	0
3	224941	71.61	0
3	225257	71.71	0
3	225573	71.81	0
3	225889	71.91	0
3	226211	72.01	0
3	226527	72.11	0
3	226843	72.21	0
3	227159	72.31	0
3	227475	72.41	0
3	227791	72.51	0
3	228107	72.61	0
3	228423	72.71	0
3	228739	72.81	0
3	229055	72.91	0
3	229377	73.01	0
3	229693	73.11	0
3	230009	73.21	0
3	230325	73.31	0
3	230641	73.41	0
3	230957	73.51	0
3	231273	73.61	0
3	231589	73.71	0
3	231905	73.81	0
3	232221	73.91	0
3	232543	74.01	0
3	232859	74.11	0
3	233175	74.21	0
3	233491	74.31	0
3	233807	74.41	0
3	234123	74.51	0
3	234439	74.61	0
3	234755	74.71	0
3	235071	74.81	0
3	235387	74.91	0
3	235709	75.01	0
3	236025	75.11	0
3	236341	75.21	0
3	236657	75.31	0
3	236973	75.41	0
3	237289	75.51	0
3	237605	75.61	0
3	237921	75.71	0
3	238237	75.81	0
3	238553	75.91	0
3	238875	76.01	0
3	239191	76.11	0
3	239507	76.21	0
3	239823	76.31	0
3	240139	76.41	0
3	240455	76.51	0
3	240771	76.61	0
3	241087	76.71	0
3	241403	76.81	0
3	241719	76.91	0
3	242041	77.01	0
3	242357	77.11	0
3	242673	77.21	0
3	242989	77.31	0
3	243305	77.41	0
3	243621	77.51	0
3	243937	77.61	0
3	244253	77.71	0
3	244569	77.81	0
3	244885	77.91	0
3	245207	78.01	0
3	245523	78.11	0
3	245839	78.21	0
3	246155	78.31	0
3	246471	78.41	0
3	246787	78.51	0
3	247103	78.61	0
3	247419	78.71	0
3	247735	78.81	0
3	248051	78.91	0
3	248373	79.01	0
3	248689	79.11	0
3	249005	79.21	0
3	249321	79.31	0
3	249637	79.41	0
3	249953	79.51	0
3	250269	79.61	0
3	250585	79.71	0
3	250901	79.81	0
3	251217	79.91	0
3	251539	80.01	0
3	251855	80.11	0
3	252171	80.21	0
3	252487	80.31	0
3	252803	80.41	0
3	253119	80.51	0
3	253435	80.61	0
3	253751	80.71	0
3	254067	80.81	0
3	254383	80.91	0
3	254705	81.01	0
3	255021	81.11	0
3	255337	81.21	0
3	255653	81.31	0
3	255969	81.41	0
3	256285	81.51	0
3	256601	81.61	0
3	256917	81.71	0
3	257233	81.81	0
3	257549	81.91	0
3	257871	82.01	0
3	258187	82.11	0
3	258503	82.21	0
3	258819	82.31	0
3	259135	82.41	0
3	259451	82.51	0
3	259767	82.61	0
3	260083	82.71	0
3	260399	82.81	0
3	260715	82.91	0
3	261037	83.01	0
3	261353	83.11	0
3	261669	83.21	0
3	261985	83.31	0
3	262301	83.41	0
3	262617	83.51	0
3	262933	83.61	0
3	263249	83.71	0
3	263565	83.81	0
3	263881	83.91	0
3	264203	84.01	0
3	264519	84.11	0
3	264835	84.21	0
3	265151	84.31	0
3	265467	84.41	0
3	265783	84.51	0
3	266099	84.61	0
3	266415	84.71	0
3	266731	84.81	0
3	267047	84.91	0
3	267369	85.01	0
3	267685	85.11	0
3	268001	85.21	0
3	268317	85.31	0
3	268633	85.41	0
3	268949	85.51	0
3	269265	85.61	0
3	269581	85.71	0
3	269897	85.81	0
3	270213	85.91	0
3	270535	86.01	0
3	270851	86.11	0
3	271167	86.21	0
3	271483	86.31	0
3	271799	86.41	0
3	272115	86.51	0
3	272431	86.61	0
3	272747	86.71	0
3	273063	86.81	0
3	273379	86.91	0
3	273701	87.01	0
3	274017	87.11	0
3	274333	87.21	0
3	274649	87.31	0
3	274965	87.41	0
3	275281	87.51	0
3	275597	87.61	0
3	275913	87.71	0
3	276229	87.81	0
3	276545	87.91	0
3	276867	88.01	0
3	277183	88.11	0
3	277499	88.21	0
3	277815	88.31	0
3	278131	88.41	0
3	278447	88.51	0
[...]
65	270479	86	0
65	273645	87	0
65	276811	88	0
65	279977	89	0
65	283143	90	0
65	286309	91	0
65	289475	92	0
65	292641	93	0
65	295807	94	0
65	298973	95	0
65	302139	96	0
65	305305	97	0
65	308471	98	0
65	311637	99	0
65	314803	100	0
66	2908	2	2
66	6074	3	2
66	9240	4	2
66	12406	5	2
66	15572	6	2
66	18738	7	2
66	21904	8	2
66	25070	9	2
66	28239	10	2
66	31537	11	2
66	34733	12	2
66	37929	13	2
66	41125	14	2
66	44321	15	2
66	47517	16	2
66	50713	17	2
66	53909	18	2
66	57105	19	2
66	60301	20	2
66	63497	21	2
66	66693	22	2
66	69889	23	2
66	73085	24	2
66	76281	25	2
66	79477	26	2
66	82673	27	2
66	85869	28	2
66	89065	29	2
66	92261	30	2
66	95457	31	2
66	98653	32	2
66	101849	33	2
66	105045	34	2
66	108241	35	2
66	111437	36	2
66	114633	37	2
66	117829	38	2
66	121025	39	2
66	124221	40	2
66	127417	41	2
66	130613	42	2
66	133809	43	2
66	137005	44	2
66	140201	45	2
66	143542	46	2
66	147006	47	2
66	150172	48	2
66	153338	49	2
66	156504	50	2
66	159670	51	2
66	162836	52	2
66	166002	53	2
66	169168	54	2
66	172334	55	2
66	175500	56	2
66	178666	57	2
66	181832	58	2
66	184998	59	2
66	188164	60	2
66	191330	61	2
66	194496	62	2
66	197662	63	2
66	200828	64	2
66	203994	65	2
66	207160	66	2
66	210326	67	2
66	213492	68	2
66	216658	69	2
66	219824	70	2
66	222990	71	2
66	226156	72	2
66	229322	73	2
66	232488	74	2
66	235654	75	2
66	238820	76	2
66	241986	77	2
66	245152	78	2
66	248318	79	2
66	251484	80	2
66	254650	81	2
66	257816	82	2
66	260982	83	2
66	264148	84	2
66	267314	85	2
66	270480	86	2
66	273646	87	2
66	276812	88	2
66	279978	89	2
66	283144	90	2
66	286310	91	2
66	289476	92	2
66	292642	93	2
66	295808	94	2
66	298974	95	2
66	302140	96	2
66	305306	97	2
66	308472	98	2
66	311638	99	2
66	314804	100	2
67	2908	2	0.016544
67	6074	3	0.01873
67	9240	4	0.01873
67	12406	5	0.01873
67	15572	6	0.01873
67	18738	7	0.01873
67	21904	8	0.01873
67	25070	9	0.01873
67	28239	10	0.01873
67	31537	11	0.018779317526
67	34733	12	0.01873
67	37929	13	0.01873
67	41125	14	0.01873
67	44321	15	0.01873
67	47517	16	0.01873
67	50713	17	0.01873
67	53909	18	0.01873
67	57105	19	0.01873
67	60301	20	0.01873
67	63497	21	0.01873
67	66693	22	0.01873
67	69889	23	0.01873
67	73085	24	0.01873
67	76281	25	0.01873
67	79477	26	0.01873
67	82673	27	0.01873
67	85869	28	0.01873
67	89065	29	0.01873
67	92261	30	0.01873
67	95457	31	0.01873
67	98653	32	0.01873
67	101849	33	0.01873
67	105045	34	0.01873
67	108241	35	0.01873
67	111437	36	0.01873
67	114633	37	0.01873
67	117829	38	0.01873
67	121025	39	0.01873
67	124221	40	0.01873
67	127417	41	0.01873
67	130613	42	0.01873
67	133809	43	0.01873
67	137005	44	0.01873
67	140201	45	0.01873
67	143542	46	0.018954
67	147006	47	0.019243126096
67	150172	48	0.01873
67	153338	49	0.01873
67	156504	50	0.01873
67	159670	51	0.01873
67	162836	52	0.01873
67	166002	53	0.01873
67	169168	54	0.01873
67	172334	55	0.01873
67	175500	56	0.01873
67	178666	57	0.01873
67	181832	58	0.01873
67	184998	59	0.01873
67	188164	60	0.01873
67	191330	61	0.01873
67	194496	62	0.01873
67	197662	63	0.01873
67	200828	64	0.01873
67	203994	65	0.01873
67	207160	66	0.01873
67	210326	67	0.01873
67	213492	68	0.01873
67	216658	69	0.01873
67	219824	70	0.01873
67	222990	71	0.01873
67	226156	72	0.01873
67	229322	73	0.01873
67	232488	74	0.01873
67	235654	75	0.01873
67	238820	76	0.01873
67	241986	77	0.01873
67	245152	78	0.01873
67	248318	79	0.01873
67	251484	80	0.01873
67	254650	81	0.01873
67	257816	82	0.01873
67	260982	83	0.01873
67	264148	84	0.01873
67	267314	85	0.01873
67	270480	86	0.01873
67	273646	87	0.01873
67	276812	88	0.01873
67	279978	89	0.01873
67	283144	90	0.01873
67	286310	91	0.01873
67	289476	92	0.01873
67	292642	93	0.01873
67	295808	94	0.01873
67	298974	95	0.01873
67	302140	96	0.01873
67	305306	97	0.01873
67	308472	98	0.01873
67	311638	99	0.01873
67	314804	100	0.01873
68	2908	2	0
68	6074	3	0
68	9240	4	0
68	12406	5	0
68	15572	6	0
68	18738	7	0
68	21904	8	0
68	25070	9	0
68	28239	10	0
68	31537	11	0
68	34733	12	0
68	37929	13	0
68	41125	14	0
68	44321	15	0
68	47517	16	0
68	50713	17	0
68	53909	18	0
68	57105	19	0
68	60301	20	0
68	63497	21	0
68	66693	22	0
68	69889	23	0
68	73085	24	0
68	76281	25	0
68	79477	26	0
68	82673	27	0
68	85869	28	0
68	89065	29	0
68	92261	30	0
68	95457	31	0
68	98653	32	0
68	101849	33	0
68	105045	34	0
68	108241	35	0
68	111437	36	0
68	114633	37	0
68	117829	38	0
68	121025	39	0
68	124221	40	0
68	127417	41	0
68	130613	42	0
68	133809	43	0
68	137005	44	0
68	140201	45	0
68	143542	46	0
68	147006	47	0
68	150172	48	0
68	153338	49	0
68	156504	50	0
68	159670	51	0
68	162836	52	0
68	166002	53	0
68	169168	54	0
68	172334	55	0
68	175500	56	0
68	178666	57	0
68	181832	58	0
68	184998	59	0
68	188164	60	0
68	191330	61	0
68	194496	62	0
68	197662	63	0
68	200828	64	0
68	203994	65	0
68	207160	66	0
68	210326	67	0
68	213492	68	0
68	216658	69	0
68	219824	70	0
68	222990	71	0
68	226156	72	0
68	229322	73	0
68	232488	74	0
68	235654	75	0
68	238820	76	0
68	241986	77	0
68	245152	78	0
68	248318	79	0
68	251484	80	0
68	254650	81	0
68	257816	82	0
68	260982	83	0
68	264148	84	0
68	267314	85	0
68	270480	86	0
68	273646	87	0
68	276812	88	0
68	279978	89	0
68	283144	90	0
68	286310	91	0
68	289476	92	0
68	292642	93	0
68	295808	94	0
68	298974	95	0
68	302140	96	0
68	305306	97	0
68	308472	98	0
68	311638	99	0
68	314804	100	0
69	2909	2	3
69	6075	3	3
69	9241	4	3
69	12407	5	3
69	15573	6	3
69	18739	7	3
69	21905	8	3
69	25071	9	3
69	28240	10	3
69	31538	11	3
69	34734	12	3
69	37930	13	3
69	41126	14	3
69	44322	15	3
69	47518	16	3
69	50714	17	3
69	53910	18	3
69	57106	19	3
69	60302	20	3
69	63498	21	3
69	66694	22	3
69	69890	23	3
69	73086	24	3
69	76282	25	3
69	79478	26	3
69	82674	27	3
69	85870	28	3
69	89066	29	3
69	92262	30	3
69	95458	31	3
69	98654	32	3
69	101850	33	3
69	105046	34	3
69	108242	35	3
69	111438	36	3
69	114634	37	3
69	117830	38	3
69	121026	39	3
69	124222	40	3
69	127418	41	3
69	130614	42	3
69	133810	43	3
69	137006	44	3
69	140202	45	3
69	143543	46	3
69	147007	47	3
69	150173	48	3
69	153339	49	3
69	156505	50	3
69	159671	51	3
69	162837	52	3
69	166003	53	3
69	169169	54	3
69	172335	55	3
69	175501	56	3
69	178667	57	3
69	181833	58	3
69	184999	59	3
69	188165	60	3
69	191331	61	3
69	194497	62	3
69	197663	63	3
69	200829	64	3
69	203995	65	3
69	207161	66	3
69	210327	67	3
69	213493	68	3
69	216659	69	3
69	219825	70	3
69	222991	71	3
69	226157	72	3
69	229323	73	3
69	232489	74	3
69	235655	75	3
69	238821	76	3
69	241987	77	3
69	245153	78	3
69	248319	79	3
69	251485	80	3
69	254651	81	3
69	257817	82	3
69	260983	83	3
69	264149	84	3
69	267315	85	3
69	270481	86	3
69	273647	87	3
69	276813	88	3
69	279979	89	3
69	283145	90	3
69	286311	91	3
69	289477	92	3
69	292643	93	3
69	295809	94	3
69	298975	95	3
69	302141	96	3
69	305307	97	3
69	308473	98	3
69	311639	99	3
69	314805	100	3
70	2909	2	0.016545
70	6075	3	0.01873
70	9241	4	0.01873
70	12407	5	0.01873
70	15573	6	0.01873
70	18739	7	0.01873
70	21905	8	0.01873
70	25071	9	0.01873
70	28240	10	0.01873
70	31538	11	0.01877827771
70	34734	12	0.01873
70	37930	13	0.01873
70	41126	14	0.01873
70	44322	15	0.01873
70	47518	16	0.01873
70	50714	17	0.01873
70	53910	18	0.01873
70	57106	19	0.01873
70	60302	20	0.01873
70	63498	21	0.01873
70	66694	22	0.01873
70	69890	23	0.01873
70	73086	24	0.01873
70	76282	25	0.01873
70	79478	26	0.01873
70	82674	27	0.01873
70	85870	28	0.01873
70	89066	29	0.01873
70	92262	30	0.01873
70	95458	31	0.01873
70	98654	32	0.01873
70	101850	33	0.01873
70	105046	34	0.01873
70	108242	35	0.01873
70	111438	36	0.01873
70	114634	37	0.01873
70	117830	38	0.01873
70	121026	39	0.01873
70	124222	40	0.01873
70	127418	41	0.01873
70	130614	42	0.01873
70	133810	43	0.01873
70	137006	44	0.01873
70	140202	45	0.01873
70	143543	46	0.018954
70	147007	47	0.019243126096
70	150173	48	0.01873
70	153339	49	0.01873
70	156505	50	0.01873
70	159671	51	0.01873
70	162837	52	0.01873
70	166003	53	0.01873
70	169169	54	0.01873
70	172335	55	0.01873
70	175501	56	0.01873
70	178667	57	0.01873
70	181833	58	0.01873
70	184999	59	0.01873
70	188165	60	0.01873
70	191331	61	0.01873
70	194497	62	0.01873
70	197663	63	0.01873
70	200829	64	0.01873
70	203995	65	0.01873
70	207161	66	0.01873
70	210327	67	0.01873
70	213493	68	0.01873
70	216659	69	0.01873
70	219825	70	0.01873
70	222991	71	0.01873
70	226157	72	0.01873
70	229323	73	0.01873
70	232489	74	0.01873
70	235655	75	0.01873
70	238821	76	0.01873
70	241987	77	0.01873
70	245153	78	0.01873
70	248319	79	0.01873
70	251485	80	0.01873
70	254651	81	0.01873
70	257817	82	0.01873
70	260983	83	0.01873
70	264149	84	0.01873
70	267315	85	0.01873
70	270481	86	0.01873
70	273647	87	0.01873
70	276813	88	0.01873
70	279979	89	0.01873
70	283145	90	0.01873
70	286311	91	0.01873
70	289477	92	0.01873
70	292643	93	0.01873
70	295809	94	0.01873
70	298975	95	0.01873
70	302141	96	0.01873
70	305307	97	0.01873
70	308473	98	0.01873
70	311639	99	0.01873
70	314805	100	0.01873
71	2909	2	0
71	6075	3	0
71	9241	4	0
71	12407	5	0
71	15573	6	0
71	18739	7	0
71	21905	8	0
71	25071	9	0
71	28240	10	0
71	31538	11	0
71	34734	12	0
71	37930	13	0
71	41126	14	0
71	44322	15	0
71	47518	16	0
71	50714	17	0
71	53910	18	0
71	57106	19	0
71	60302	20	0
71	63498	21	0
71	66694	22	0
71	69890	23	0
71	73086	24	0
71	76282	25	0
71	79478	26	0
71	82674	27	0
71	85870	28	0
71	89066	29	0
71	92262	30	0
71	95458	31	0
71	98654	32	0
71	101850	33	0
71	105046	34	0
71	108242	35	0
71	111438	36	0
71	114634	37	0
71	117830	38	0
71	121026	39	0
71	124222	40	0
71	127418	41	0
71	130614	42	0
71	133810	43	0
71	137006	44	0
71	140202	45	0
71	143543	46	0
71	147007	47	0
71	150173	48	0
71	153339	49	0
71	156505	50	0
71	159671	51	0
71	162837	52	0
71	166003	53	0
71	169169	54	0
71	172335	55	0
71	175501	56	0
71	178667	57	0
71	181833	58	0
71	184999	59	0
71	188165	60	0
71	191331	61	0
71	194497	62	0
71	197663	63	0
71	200829	64	0
71	203995	65	0
71	207161	66	0
71	210327	67	0
71	213493	68	0
71	216659	69	0
71	219825	70	0
71	222991	71	0
71	226157	72	0
71	229323	73	0
71	232489	74	0
71	235655	75	0
71	238821	76	0
71	241987	77	0
71	245153	78	0
71	248319	79	0
71	251485	80	0
71	254651	81	0
71	257817	82	0
71	260983	83	0
71	264149	84	0
71	267315	85	0
71	270481	86	0
71	273647	87	0
71	276813	88	0
71	279979	89	0
71	283145	90	0
71	286311	91	0
71	289477	92	0
71	292643	93	0
71	295809	94	0
71	298975	95	0
71	302141	96	0
71	305307	97	0
71	308473	98	0
71	311639	99	0
71	314805	100	0
72	2910	2	4
72	6076	3	4
72	9242	4	4
72	12408	5	4
72	15574	6	4
72	18740	7	4
72	21906	8	4
72	25072	9	4
72	28241	10	4
72	31539	11	4
72	34735	12	4
72	37931	13	4
72	41127	14	4
72	44323	15	4
72	47519	16	4
72	50715	17	4
72	53911	18	4
72	57107	19	4
72	60303	20	4
72	63499	21	4
72	66695	22	4
72	69891	23	4
72	73087	24	4
72	76283	25	4
72	79479	26	4
72	82675	27	4
72	85871	28	4
72	89067	29	4
72	92263	30	4
72	95459	31	4
72	98655	32	4
72	101851	33	4
72	105047	34	4
72	108243	35	4
72	111439	36	4
72	114635	37	4
72	117831	38	4
72	121027	39	4
72	124223	40	4
72	127419	41	4
72	130615	42	4
72	133811	43	4
72	137007	44	4
72	140203	45	4
72	143544	46	4
72	147008	47	4
72	150174	48	4
72	153340	49	4
72	156506	50	4
72	159672	51	4
72	162838	52	4
72	166004	53	4
72	169170	54	4
72	172336	55	4
72	175502	56	4
72	178668	57	4
72	181834	58	4
72	185000	59	4
72	188166	60	4
72	191332	61	4
72	194498	62	4
72	197664	63	4
72	200830	64	4
72	203996	65	4
72	207162	66	4
72	210328	67	4
72	213494	68	4
72	216660	69	4
72	219826	70	4
72	222992	71	4
72	226158	72	4
72	229324	73	4
72	232490	74	4
72	235656	75	4
72	238822	76	4
72	241988	77	4
72	245154	78	4
72	248320	79	4
72	251486	80	4
72	254652	81	4
72	257818	82	4
72	260984	83	4
72	264150	84	4
72	267316	85	4
72	270482	86	4
72	273648	87	4
72	276814	88	4
72	279980	89	4
72	283146	90	4
72	286312	91	4
72	289478	92	4
72	292644	93	4
72	295810	94	4
72	298976	95	4
72	302142	96	4
72	305308	97	4
72	308474	98	4
72	311640	99	4
72	314806	100	4
73	2910	2	0.016545
73	6076	3	0.01873
73	9242	4	0.01873
73	12408	5	0.01873
73	15574	6	0.01873
73	18740	7	0.01873
73	21906	8	0.01873
73	25072	9	0.01873
73	28241	10	0.01873
73	31539	11	0.018779000004
73	34735	12	0.01873
73	37931	13	0.01873
73	41127	14	0.01873
73	44323	15	0.01873
73	47519	16	0.01873
73	50715	17	0.01873
73	53911	18	0.01873
73	57107	19	0.01873
73	60303	20	0.01873
73	63499	21	0.01873
73	66695	22	0.01873
73	69891	23	0.01873
73	73087	24	0.01873
73	76283	25	0.01873
73	79479	26	0.01873
73	82675	27	0.01873
73	85871	28	0.01873
73	89067	29	0.01873
73	92263	30	0.01873
73	95459	31	0.01873
73	98655	32	0.01873
73	101851	33	0.01873
73	105047	34	0.01873
73	108243	35	0.01873
73	111439	36	0.01873
73	114635	37	0.01873
73	117831	38	0.01873
73	121027	39	0.01873
73	124223	40	0.01873
73	127419	41	0.01873
73	130615	42	0.01873
73	133811	43	0.01873
73	137007	44	0.01873
73	140203	45	0.01873
73	143544	46	0.018954
73	147008	47	0.01924312609
73	150174	48	0.01873
73	153340	49	0.01873
73	156506	50	0.01873
73	159672	51	0.01873
73	162838	52	0.01873
73	166004	53	0.01873
73	169170	54	0.01873
73	172336	55	0.01873
73	175502	56	0.01873
73	178668	57	0.01873
73	181834	58	0.01873
73	185000	59	0.01873
73	188166	60	0.01873
73	191332	61	0.01873
73	194498	62	0.01873
73	197664	63	0.01873
73	200830	64	0.01873
73	203996	65	0.01873
73	207162	66	0.01873
73	210328	67	0.01873
73	213494	68	0.01873
73	216660	69	0.01873
73	219826	70	0.01873
73	222992	71	0.01873
73	226158	72	0.01873
73	229324	73	0.01873
73	232490	74	0.01873
73	235656	75	0.01873
73	238822	76	0.01873
73	241988	77	0.01873
73	245154	78	0.01873
73	248320	79	0.01873
73	251486	80	0.01873
73	254652	81	0.01873
73	257818	82	0.01873
73	260984	83	0.01873
73	264150	84	0.01873
73	267316	85	0.01873
73	270482	86	0.01873
73	273648	87	0.01873
73	276814	88	0.01873
73	279980	89	0.01873
73	283146	90	0.01873
73	286312	91	0.01873
73	289478	92	0.01873
73	292644	93	0.01873
73	295810	94	0.01873
73	298976	95	0.01873
73	302142	96	0.01873
73	305308	97	0.01873
73	308474	98	0.01873
73	311640	99	0.01873
73	314806	100	0.01873
74	2910	2	0
74	6076	3	0
74	9242	4	0
74	12408	5	0
74	15574	6	0
74	18740	7	0
74	21906	8	0
74	25072	9	0
74	28241	10	0
74	31539	11	0
74	34735	12	0
74	37931	13	0
74	41127	14	0
74	44323	15	0
74	47519	16	0
74	50715	17	0
74	53911	18	0
74	57107	19	0
74	60303	20	0
74	63499	21	0
74	66695	22	0
74	69891	23	0
74	73087	24	0
74	76283	25	0
74	79479	26	0
74	82675	27	0
74	85871	28	0
74	89067	29	0
74	92263	30	0
74	95459	31	0
74	98655	32	0
74	101851	33	0
74	105047	34	0
74	108243	35	0
74	111439	36	0
74	114635	37	0
74	117831	38	0
74	121027	39	0
74	124223	40	0
74	127419	41	0
74	130615	42	0
74	133811	43	0
74	137007	44	0
74	140203	45	0
74	143544	46	0
74	147008	47	0
74	150174	48	0
74	153340	49	0
74	156506	50	0
74	159672	51	0
74	162838	52	0
74	166004	53	0
74	169170	54	0
74	172336	55	0
74	175502	56	0
74	178668	57	0
74	181834	58	0
74	185000	59	0
74	188166	60	0
74	191332	61	0
74	194498	62	0
74	197664	63	0
74	200830	64	0
74	203996	65	0
74	207162	66	0
74	210328	67	0
74	213494	68	0
74	216660	69	0
74	219826	70	0
74	222992	71	0
74	226158	72	0
74	229324	73	0
74	232490	74	0
74	235656	75	0
74	238822	76	0
74	241988	77	0
74	245154	78	0
74	248320	79	0
74	251486	80	0
74	254652	81	0
74	257818	82	0
74	260984	83	0
74	264150	84	0
74	267316	85	0
74	270482	86	0
74	273648	87	0
74	276814	88	0
74	279980	89	0
74	283146	90	0
74	286312	91	0
74	289478	92	0
74	292644	93	0
74	295810	94	0
74	298976	95	0
74	302142	96	0
74	305308	97	0
74	308474	98	0
74	311640	99	0
74	314806	100	0
75	2911	2	5
75	6077	3	5
75	9243	4	5
75	12409	5	5
75	15575	6	5
75	18741	7	5
75	21907	8	5
75	25073	9	5
75	28242	10	5
75	31540	11	5
75	34736	12	5
75	37932	13	5
75	41128	14	5
75	44324	15	5
75	47520	16	5
75	50716	17	5
75	53912	18	5
75	57108	19	5
75	60304	20	5
75	63500	21	5
75	66696	22	5
75	69892	23	5
75	73088	24	5
75	76284	25	5
75	79480	26	5
75	82676	27	5
75	85872	28	5
75	89068	29	5
75	92264	30	5
75	95460	31	5
75	98656	32	5
75	101852	33	5
75	105048	34	5
75	108244	35	5
75	111440	36	5
75	114636	37	5
75	117832	38	5
75	121028	39	5
75	124224	40	5
75	127420	41	5
75	130616	42	5
75	133812	43	5
75	137008	44	5
75	140204	45	5
75	143545	46	5
75	147009	47	5
75	150175	48	5
75	153341	49	5
75	156507	50	5
75	159673	51	5
75	162839	52	5
75	166005	53	5
75	169171	54	5
75	172337	55	5
75	175503	56	5
75	178669	57	5
75	181835	58	5
75	185001	59	5
75	188167	60	5
75	191333	61	5
75	194499	62	5
75	197665	63	5
75	200831	64	5
75	203997	65	5
75	207163	66	5
75	210329	67	5
75	213495	68	5
75	216661	69	5
75	219827	70	5
75	222993	71	5
75	226159	72	5
75	229325	73	5
75	232491	74	5
75	235657	75	5
75	238823	76	5
75	241989	77	5
75	245155	78	5
75	248321	79	5
75	251487	80	5
75	254653	81	5
75	257819	82	5
75	260985	83	5
75	264151	84	5
75	267317	85	5
75	270483	86	5
75	273649	87	5
75	276815	88	5
75	279981	89	5
75	283147	90	5
75	286313	91	5
75	289479	92	5
75	292645	93	5
75	295811	94	5
75	298977	95	5
75	302143	96	5
75	305309	97	5
75	308475	98	5
75	311641	99	5
75	314807	100	5
76	2911	2	0.016545
76	6077	3	0.01873
76	9243	4	0.01873
76	12409	5	0.01873
76	15575	6	0.01873
76	18741	7	0.01873
76	21907	8	0.01873
76	25073	9	0.01873
76	28242	10	0.01873
76	31540	11	0.018778000003
76	34736	12	0.01873
76	37932	13	0.01873
76	41128	14	0.01873
76	44324	15	0.01873
76	47520	16	0.01873
76	50716	17	0.01873
76	53912	18	0.01873
76	57108	19	0.01873
76	60304	20	0.01873
76	63500	21	0.01873
76	66696	22	0.01873
76	69892	23	0.01873
76	73088	24	0.01873
76	76284	25	0.01873
76	79480	26	0.01873
76	82676	27	0.01873
76	85872	28	0.01873
76	89068	29	0.01873
76	92264	30	0.01873
76	95460	31	0.01873
76	98656	32	0.01873
76	101852	33	0.01873
76	105048	34	0.01873
76	108244	35	0.01873
76	111440	36	0.01873
76	114636	37	0.01873
76	117832	38	0.01873
76	121028	39	0.01873
76	124224	40	0.01873
76	127420	41	0.01873
76	130616	42	0.01873
76	133812	43	0.01873
76	137008	44	0.01873
76	140204	45	0.01873
76	143545	46	0.018954
76	147009	47	0.01924312609
76	150175	48	0.01873
76	153341	49	0.01873
76	156507	50	0.01873
76	159673	51	0.01873
76	162839	52	0.01873
76	166005	53	0.01873
76	169171	54	0.01873
76	172337	55	0.01873
76	175503	56	0.01873
76	178669	57	0.01873
76	181835	58	0.01873
76	185001	59	0.01873
76	188167	60	0.01873
76	191333	61	0.01873
76	194499	62	0.01873
76	197665	63	0.01873
76	200831	64	0.01873
76	203997	65	0.01873
76	207163	66	0.01873
76	210329	67	0.01873
76	213495	68	0.01873
76	216661	69	0.01873
76	219827	70	0.01873
76	222993	71	0.01873
76	226159	72	0.01873
76	229325	73	0.01873
76	232491	74	0.01873
76	235657	75	0.01873
76	238823	76	0.01873
76	241989	77	0.01873
76	245155	78	0.01873
76	248321	79	0.01873
76	251487	80	0.01873
76	254653	81	0.01873
76	257819	82	0.01873
76	260985	83	0.01873
76	264151	84	0.01873
76	267317	85	0.01873
76	270483	86	0.01873
76	273649	87	0.01873
76	276815	88	0.01873
76	279981	89	0.01873
76	283147	90	0.01873
76	286313	91	0.01873
76	289479	92	0.01873
76	292645	93	0.01873
76	295811	94	0.01873
76	298977	95	0.01873
76	302143	96	0.01873
76	305309	97	0.01873
76	308475	98	0.01873
76	311641	99	0.01873
76	314807	100	0.01873
77	2911	2	0
77	6077	3	0
77	9243	4	0
77	12409	5	0
77	15575	6	0
77	18741	7	0
77	21907	8	0
77	25073	9	0
77	28242	10	0
77	31540	11	0
77	34736	12	0
77	37932	13	0
77	41128	14	0
77	44324	15	0
77	47520	16	0
77	50716	17	0
77	53912	18	0
77	57108	19	0
77	60304	20	0
77	63500	21	0
77	66696	22	0
77	69892	23	0
77	73088	24	0
77	76284	25	0
77	79480	26	0
77	82676	27	0
77	85872	28	0
77	89068	29	0
77	92264	30	0
77	95460	31	0
77	98656	32	0
77	101852	33	0
77	105048	34	0
77	108244	35	0
77	111440	36	0
77	114636	37	0
77	117832	38	0
77	121028	39	0
77	124224	40	0
77	127420	41	0
77	130616	42	0
77	133812	43	0
77	137008	44	0
77	140204	45	0
77	143545	46	0
77	147009	47	0
77	150175	48	0
77	153341	49	0
77	156507	50	0
77	159673	51	0
77	162839	52	0
77	166005	53	0
77	169171	54	0
77	172337	55	0
77	175503	56	0
77	178669	57	0
77	181835	58	0
77	185001	59	0
77	188167	60	0
77	191333	61	0
77	194499	62	0
77	197665	63	0
77	200831	64	0
77	203997	65	0
77	207163	66	0
77	210329	67	0
77	213495	68	0
77	216661	69	0
77	219827	70	0
77	222993	71	0
77	226159	72	0
77	229325	73	0
77	232491	74	0
77	235657	75	0
77	238823	76	0
77	241989	77	0
77	245155	78	0
77	248321	79	0
77	251487	80	0
77	254653	81	0
77	257819	82	0
77	260985	83	0
77	264151	84	0
77	267317	85	0
77	270483	86	0
77	273649	87	0
77	276815	88	0
77	279981	89	0
77	283147	90	0
77	286313	91	0
77	289479	92	0
77	292645	93	0
77	295811	94	0
77	298977	95	0
77	302143	96	0
77	305309	97	0
77	308475	98	0
77	311641	99	0
77	314807	100	0

