file 1531544 1720715456                                         
version 3
run BreakRanksNoGui-1480-20240711-18:30:51-303709
attr configname BreakRanksNoGui
attr datetime 20240711-18:30:51
attr datetimef 20240711-183051
attr experiment BreakRanksNoGui
attr inifile omnetpp.ini
attr iterationvars "$nCars=6, $platoonSize=2, $nLanes=1, $ploegH=0.5, $controller=1, $headway=0.1, $leaderHeadway=1.2, $leaderSpeed=110, $breakRanksSafetyDistance=15, $minSpeed=100, $maxSpeed=120, $beaconInterval=0.1, $priority=4, $packetSize=200, $sController=\"CACC\", $0=2, $1=0"
attr iterationvarsd nCars=6/platoonSize=2/nLanes=1/ploegH=0.5/controller=1/headway=0.1/leaderHeadway=1.2/leaderSpeed=110/breakRanksSafetyDistance=15/minSpeed=100/maxSpeed=120/beaconInterval=0.1/priority=4/packetSize=200/sController=CACC/2/0
attr iterationvarsf nCars=6,platoonSize=2,nLanes=1,ploegH=0.5,controller=1,headway=0.1,leaderHeadway=1.2,leaderSpeed=110,breakRanksSafetyDistance=15,minSpeed=100,maxSpeed=120,beaconInterval=0.1,priority=4,packetSize=200,sController=CACC,2,0-
attr measurement "$nCars=6, $platoonSize=2, $nLanes=1, $ploegH=0.5, $controller=1, $headway=0.1, $leaderHeadway=1.2, $leaderSpeed=110, $breakRanksSafetyDistance=15, $minSpeed=100, $maxSpeed=120, $beaconInterval=0.1, $priority=4, $packetSize=200, $sController=\"CACC\", $0=2, $1=0"
attr network Highway
attr processid 303709
attr repetition 0
attr replication #0
attr resultdir results
attr runnumber 1480
attr seedset 0
itervar beaconInterval 0.1
itervar breakRanksSafetyDistance 15
itervar controller 1
itervar headway 0.1
itervar leaderHeadway 1.2
itervar leaderSpeed 110
itervar maxSpeed 120
itervar minSpeed 100
itervar nCars 6
itervar nLanes 1
itervar packetSize 200
itervar platoonSize 2
itervar ploegH 0.5
itervar priority 4
itervar sController "\"CACC\""
config image-path ../../../veins/images
config repeat 10
config extends BreakRanks
config *.manager.command "\"sumo\""
config *.manager.ignoreGuiCommands true
config output-vector-file "results/BreakRanks_1_0.1_110_15_2 /result_0.vec"
config output-scalar-file "results/BreakRanks_1_0.1_110_15_2 /result_0.sca"
config extends Platooning
config *.node[*].scenario_type "\"BreakRanksScenario\""
config *.manager.command "\"sumo-gui\""
config *.node[*].scenario_type "\"SimpleScenario\""
config cmdenv-express-mode true
config cmdenv-autoflush true
config cmdenv-status-frequency 15s
config num-rngs 6
config network Highway
config debug-on-errors true
config print-undisposed true
config *.playgroundSizeX 65000m
config *.playgroundSizeY 25000m
config *.playgroundSizeZ 50m
config sim-time-limit "100 s"
config *.annotations.draw false
config *.obstacles.debug false
config *.world.useTorus false
config *.world.use2D false
config *.manager.updateInterval 0.01s
config *.manager.host "\"localhost\""
config *.manager.moduleType "\"org.car2x.plexe.PlatoonCar\""
config *.manager.moduleName "\"node\""
config *.manager.moduleDisplayString "\"\""
config *.manager.autoShutdown true
config *.manager.margin 25
config *.connectionManager.sendDirect true
config *.connectionManager.maxInterfDist 2600m
config *.connectionManager.drawMaxIntfDist false
config *.**.nic.mac1609_4.useServiceChannel false
config *.**.nic.mac1609_4.txPower 100mW
config *.**.nic.mac1609_4.bitrate 6Mbps
config *.**.nic.mac1609_4.useAcks true
config *.**.nic.mac1609_4.ackErrorRate 0.0
config *.**.nic.mac1609_4.frameErrorRate 0.0
config *.**.nic.phy80211p.minPowerLevel -94dBm
config *.**.nic.phy80211p.maxTXPower 100mW
config *.**.nic.phy80211p.useNoiseFloor true
config *.**.nic.phy80211p.noiseFloor -95dBm
config *.**.nic.phy80211p.decider "xmldoc(\"config.xml\")"
config *.**.nic.phy80211p.analogueModels "xmldoc(\"config.xml\")"
config *.**.nic.phy80211p.usePropagationDelay true
config *.node[*].mobility.x 0
config *.node[*].mobility.y 0
config *.node[*].mobility.z 1.895
config seed-set 0
config **.seed 0
config *.node[*].prot.rng-0 2
config *.node[*].appl.rng-0 3
config *.node[*].scenario.rng-0 4
config **.traffic.rng-0 5
config *.manager.configFile "\"./sumocfg/freeway.sumo.cfg\""
config *.manager.launchConfig "xmldoc(\"./sumocfg/freeway.launchd.xml\")"
config **.numberOfCars 6
config **.numberOfCarsPerPlatoon 2
config **.numberOfLanes 1
config *.node[*].helper_type "\"PositionHelper\""
config *.node[*].scenario.caccC1 0.5
config *.node[*].scenario.caccXi 1
config *.node[*].scenario.caccOmegaN "0.2 Hz"
config *.node[*].scenario.caccSpacing "2 m"
config *.node[*].scenario.engineTau "0.5 s"
config *.node[*].scenario.ploegH 0.5s
config *.node[*].scenario.ploegKp 0.2
config *.node[*].scenario.ploegKd 0.7
config *.node[*].scenario.useRealisticEngine false
config *.node[*].scenario.useControllerAcceleration true
config *.node[*].scenario.nLanes 1
config **.numericController 1
config **.headway 0.1s
config *.node[*].scenario.accHeadway 0.1s
config *.node[*].scenario.leaderHeadway 1.2s
config *.node[*].scenario.leaderSpeed 110kmph
config *.node[*].appl_type "\"SimplePlatooningApp\""
config *.node[*].appl.*.scalar-recording true
config *.node[*].appl.*.vector-recording true
config *.node[0].appl.breakRanksSafetyDistance 15m
config *.node[*].appl.minSpeed 100kmph
config *.node[*].appl.maxSpeed 120kmph
config *.node[*].protocol_type "\"SimplePlatooningBeaconing\""
config *.node[*].prot.*.scalar-recording true
config *.node[*].prot.*.vector-recording true
config *.node[*].prot.beaconingInterval 0.1s
config *.node[*].prot.priority 4
config *.node[*].prot.packetSize 200
config **.traffic_type "\"PlatoonsTrafficManager\""
config **.traffic.platoonInsertTime "1 s"
config **.traffic.platoonInsertSpeed 110kmph
config **.traffic.nCars 6
config **.traffic.platoonSize 2
config **.traffic.nLanes 1
config **.traffic.platooningVType "\"vtypeauto\""
config **.traffic.controller "\"CACC\""
config **.traffic.platoonInsertDistance 2m
config **.traffic.platoonInsertHeadway 0s
config **.traffic.platoonLeaderHeadway 1.2s
config **.scalar-recording false
config **.vector-recording false

vector 0 Highway.node[0].appl distance ETV
vector 1 Highway.node[0].appl relativeSpeed ETV
vector 2 Highway.node[0].appl nodeId ETV
vector 3 Highway.node[0].appl acceleration ETV
vector 4 Highway.node[0].appl controllerAcceleration ETV
vector 5 Highway.node[0].appl speed ETV
vector 6 Highway.node[0].appl posx ETV
vector 7 Highway.node[0].appl posy ETV
vector 8 Highway.node[1].appl distance ETV
vector 9 Highway.node[1].appl relativeSpeed ETV
vector 10 Highway.node[1].appl nodeId ETV
vector 11 Highway.node[1].appl acceleration ETV
vector 12 Highway.node[1].appl controllerAcceleration ETV
vector 13 Highway.node[1].appl speed ETV
vector 14 Highway.node[1].appl posx ETV
vector 15 Highway.node[1].appl posy ETV
vector 16 Highway.node[2].appl distance ETV
vector 17 Highway.node[2].appl relativeSpeed ETV
vector 18 Highway.node[2].appl nodeId ETV
vector 19 Highway.node[2].appl acceleration ETV
vector 20 Highway.node[2].appl controllerAcceleration ETV
vector 21 Highway.node[2].appl speed ETV
vector 22 Highway.node[2].appl posx ETV
vector 23 Highway.node[2].appl posy ETV
vector 24 Highway.node[3].appl distance ETV
vector 25 Highway.node[3].appl relativeSpeed ETV
vector 26 Highway.node[3].appl nodeId ETV
vector 27 Highway.node[3].appl acceleration ETV
vector 28 Highway.node[3].appl controllerAcceleration ETV
vector 29 Highway.node[3].appl speed ETV
vector 30 Highway.node[3].appl posx ETV
vector 31 Highway.node[3].appl posy ETV
vector 32 Highway.node[4].appl distance ETV
vector 33 Highway.node[4].appl relativeSpeed ETV
vector 34 Highway.node[4].appl nodeId ETV
vector 35 Highway.node[4].appl acceleration ETV
vector 36 Highway.node[4].appl controllerAcceleration ETV
vector 37 Highway.node[4].appl speed ETV
vector 38 Highway.node[4].appl posx ETV
vector 39 Highway.node[4].appl posy ETV
vector 40 Highway.node[5].appl distance ETV
vector 41 Highway.node[5].appl relativeSpeed ETV
vector 42 Highway.node[5].appl nodeId ETV
vector 43 Highway.node[5].appl acceleration ETV
vector 44 Highway.node[5].appl controllerAcceleration ETV
vector 45 Highway.node[5].appl speed ETV
vector 46 Highway.node[5].appl posx ETV
vector 47 Highway.node[5].appl posy ETV
vector 48 Highway.node[3].prot leaderDelay ETV
vector 49 Highway.node[3].prot leaderDelayId ETV
vector 50 Highway.node[3].prot frontDelay ETV
vector 51 Highway.node[3].prot frontDelayId ETV
vector 52 Highway.node[1].prot leaderDelay ETV
vector 53 Highway.node[1].prot leaderDelayId ETV
vector 54 Highway.node[1].prot frontDelay ETV
vector 55 Highway.node[1].prot frontDelayId ETV
vector 56 Highway.node[5].prot leaderDelay ETV
vector 57 Highway.node[5].prot leaderDelayId ETV
vector 58 Highway.node[5].prot frontDelay ETV
vector 59 Highway.node[5].prot frontDelayId ETV
vector 60 Highway.node[0].prot nodeId ETV
vector 61 Highway.node[0].prot busyTime ETV
vector 62 Highway.node[0].prot collisions ETV
vector 63 Highway.node[1].prot nodeId ETV
vector 64 Highway.node[1].prot busyTime ETV
vector 65 Highway.node[1].prot collisions ETV
vector 66 Highway.node[2].prot nodeId ETV
vector 67 Highway.node[2].prot busyTime ETV
vector 68 Highway.node[2].prot collisions ETV
vector 69 Highway.node[3].prot nodeId ETV
vector 70 Highway.node[3].prot busyTime ETV
vector 71 Highway.node[3].prot collisions ETV
vector 72 Highway.node[4].prot nodeId ETV
vector 73 Highway.node[4].prot busyTime ETV
vector 74 Highway.node[4].prot collisions ETV
vector 75 Highway.node[5].prot nodeId ETV
vector 76 Highway.node[5].prot busyTime ETV
vector 77 Highway.node[5].prot collisions ETV
0	9443 17363 113 313514 1.11 99.91 989 -1 -1 -989 989
1	26806 16374 113 313514 1.11 99.91 989 0 0 0 0
2	43180 16374 113 313514 1.11 99.91 989 0 0 0 0
3	59554 18962 113 313514 1.11 99.91 989 -0.00283113 0.000125957 -0.043966303784312 9.6812896349407e-05
4	78516 26342 113 313514 1.11 99.91 989 -0.00437036 0.00019576 -0.042459310034081 0.00013890441444735
5	104858 22304 113 313514 1.11 99.91 989 30.5554 30.56 30219.5304 923377.16656332
6	127162 22227 113 313514 1.11 99.91 989 110.52 3129.42 1602151.323 3348081439.4272
7	149389 21319 113 313514 1.11 99.91 989 242.45 242.45 239783.05 58135400.472499
8	170708 18734 114 313515 1.11 99.91 989 1.99924 2 1977.91033 3955.6413648939
9	189442 26185 114 313515 1.11 99.91 989 -0.00041042 6.26813e-05 -3.4673468220309e-07 2.6074323449556e-06
10	215627 17363 114 313515 1.11 99.91 989 1 1 989 989
11	232990 27174 114 313515 1.11 99.91 989 -0.00278278 9.01752e-05 -0.044000094619911 9.3920196512105e-05
12	260164 27161 114 313515 1.11 99.91 989 -0.00438568 0.000149002 -0.044000638677152 0.00014171271432123
13	287325 23290 114 313515 1.11 99.91 989 30.5554 30.56 30219.5327 923377.30714723
14	310615 23213 114 313515 1.11 99.91 989 104.52 3123.42 1596217.406 3328891287.4112
15	333828 22308 114 313515 1.11 99.91 989 242.45 242.45 239783.05 58135400.472499
16	356136 23193 115 313516 1.11 99.91 989 36.66 38.6666 38017.074 1461569.3201818
17	379329 26212 115 313516 1.11 99.91 989 1.21209e-05 0.170822 20.0659989048 1.8780300975272
18	405541 17363 115 313516 1.11 99.91 989 2 2 1978 3956
19	422904 26761 115 313516 1.11 99.91 989 -0.109309 0.018657 -0.04283574901 0.1601438693738
20	449665 26795 115 313516 1.11 99.91 989 -0.16661 0.0209336 0.01459310162 0.22440081068702
21	476460 23218 115 313516 1.11 99.91 989 30.3847 30.5586 30199.4665 922152.91152592
22	499678 23181 115 313516 1.11 99.91 989 63.8604 3080.75 1554244.4137 3194647319.0356
23	522859 22308 115 313516 1.11 99.91 989 242.45 242.45 239783.05 58135400.472499
24	545167 23090 116 313517 1.11 99.91 989 1.98303 2.00009 1976.10681 3948.4442577867
25	568257 27285 116 313517 1.11 99.91 989 -0.0108318 0.00212359 -0.001652717668 0.0015643983076762
26	595542 17363 116 313517 1.11 99.91 989 3 3 2967 8901
27	612905 26891 116 313517 1.11 99.91 989 -0.1096 0.0187857 -0.0441059587083 0.16112511887329
28	639796 26906 116 313517 1.11 99.91 989 -0.167675 0.0210755 -0.0440756657783 0.23555483987429
29	666702 23221 116 313517 1.11 99.91 989 30.3843 30.56 30199.4647 922152.8045557
30	689923 23177 116 313517 1.11 99.91 989 57.8604 3074.75 1548312.2381 3176033338.2155
31	713100 22308 116 313517 1.11 99.91 989 242.45 242.45 239783.05 58135400.472499
32	735408 23191 117 313518 1.11 99.91 989 36.67 38.6666 37994.113 1459837.3702767
33	758599 26194 117 313518 1.11 99.91 989 1.10259e-05 0.164632 19.9658127938 1.7936092537258
34	784793 17363 117 313518 1.11 99.91 989 4 4 3956 15824
35	802156 26698 117 313518 1.11 99.91 989 -0.133481 0.033253 -0.042940295410698 0.39294392731916
36	828854 26695 117 313518 1.11 99.91 989 -0.165781 0.0356425 0.014195925994299 0.46729238996718
37	855549 23212 117 313518 1.11 99.91 989 30.2351 30.5586 30179.5028 920938.23291017
38	878761 23180 117 313518 1.11 99.91 989 17.1904 3032.08 1506362.0504 3045873595.3934
39	901941 22308 117 313518 1.11 99.91 989 242.45 242.45 239783.05 58135400.472499
40	924249 20541 118 313519 1.11 99.91 989 -1 14.9014 3734.47092 53623.510407296
41	944790 20758 118 313519 1.11 99.91 989 -0.0180721 1.03613 129.021149265 89.192711891913
42	965548 17363 118 313519 1.11 99.91 989 5 5 4945 24725
43	982911 24106 118 313519 1.11 99.91 989 -0.376438 0.942948 14.414364975922 14.488819593349
44	1007017 26642 118 313519 1.11 99.91 989 -0.500308 1.4584 14.318550121633 20.11553197354
45	1033659 21068 118 313519 1.11 99.91 989 29.3999 32.0652 30816.8353 961099.20036863
46	1054727 23242 118 313519 1.11 99.91 989 11.1904 3089.75 1510411.6793 3092465401.077
47	1077969 22308 118 313519 1.11 99.91 989 242.45 245.75 241565.05 59005372.8725
48	1100277 39848 460 313545 1.213889953992 99.913886391344 988 0.099987054846 0.10001284528 98.79999637133 9.8799992756147
49	1140125 27120 460 313545 1.213889953992 99.913886391344 988 3 3 2964 8892
50	1167245 39848 460 313545 1.213889953992 99.913886391344 988 0.099987054846 0.10001284528 98.79999637133 9.8799992756147
51	1207093 27120 460 313545 1.213889953992 99.913886391344 988 3 3 2964 8892
52	1234213 39805 564 313649 1.254477109636 99.954486553679 988 0.099987046023 0.100012934302 98.800009378024 9.8800018773699
53	1274018 27096 564 313649 1.254477109636 99.954486553679 988 1 1 988 988
54	1301114 39805 564 313649 1.254477109636 99.954486553679 988 0.099987046023 0.100012934302 98.800009378024 9.8800018773699
55	1340919 27096 564 313649 1.254477109636 99.954486553679 988 1 1 988 988
56	1368015 39841 615 313712 1.265742420951 99.965739051273 988 0.099987049043 0.100012935473 98.799996564303 9.8799993145434
57	1407856 27112 615 313712 1.265742420951 99.965739051273 988 5 5 4940 24700
58	1434968 39841 615 313712 1.265742420951 99.965739051273 988 0.099987049043 0.100012935473 98.799996564303 9.8799993145434
59	1474809 27112 615 313712 1.265742420951 99.965739051273 988 5 5 4940 24700
60	1501921 1444 2856 313729 2 100 99 0 0 0 0
61	1503365 2047 2856 313729 2 100 99 0.016233 0.018954 1.852046000012 0.034653453646451
62	1505412 1444 2856 313729 2 100 99 0 0 0 0
63	1506856 1444 2857 313730 2 100 99 1 1 99 99
64	1508300 2047 2857 313730 2 100 99 0.016233 0.018954 1.852045040012 0.034653417591692
65	1510347 1444 2857 313730 2 100 99 0 0 0 0
66	1511791 1444 2858 313731 2 100 99 2 2 198 396
67	1513235 2047 2858 313731 2 100 99 0.016233 0.018954 1.852046318506 0.03465346560855
68	1515282 1444 2858 313731 2 100 99 0 0 0 0
69	1516726 1444 2859 313732 2 100 99 3 3 297 891
70	1518170 2047 2859 313732 2 100 99 0.016232 0.018954 1.852044358464 0.034653397086602
71	1520217 1444 2859 313732 2 100 99 0 0 0 0
72	1521661 1444 2860 313733 2 100 99 4 4 396 1584
73	1523105 2053 2860 313733 2 100 99 0.016233 0.019019126096 1.852111443812 0.034655938620334
74	1525158 1444 2860 313733 2 100 99 0 0 0 0
75	1526602 1444 2861 313734 2 100 99 5 5 495 2475
76	1528046 2053 2861 313734 2 100 99 0.016232 0.019019126096 1.852109443812 0.034655868597699
77	1530099 1444 2861 313734 2 100 99 0 0 0 0

