version 3
run BreakRanksNoGui-1490-20240711-19:24:39-306033
attr configname BreakRanksNoGui
attr datetime 20240711-19:24:39
attr datetimef 20240711-192439
attr experiment BreakRanksNoGui
attr inifile omnetpp.ini
attr iterationvars "$nCars=16, $platoonSize=8, $nLanes=1, $ploegH=0.5, $controller=1, $headway=0.1, $leaderHeadway=1.2, $leaderSpeed=110, $breakRanksSafetyDistance=20, $minSpeed=100, $maxSpeed=120, $beaconInterval=0.1, $priority=4, $packetSize=200, $sController=\"CACC\", $0=2, $1=0"
attr iterationvarsd nCars=16/platoonSize=8/nLanes=1/ploegH=0.5/controller=1/headway=0.1/leaderHeadway=1.2/leaderSpeed=110/breakRanksSafetyDistance=20/minSpeed=100/maxSpeed=120/beaconInterval=0.1/priority=4/packetSize=200/sController=CACC/2/0
attr iterationvarsf nCars=16,platoonSize=8,nLanes=1,ploegH=0.5,controller=1,headway=0.1,leaderHeadway=1.2,leaderSpeed=110,breakRanksSafetyDistance=20,minSpeed=100,maxSpeed=120,beaconInterval=0.1,priority=4,packetSize=200,sController=CACC,2,0-
attr measurement "$nCars=16, $platoonSize=8, $nLanes=1, $ploegH=0.5, $controller=1, $headway=0.1, $leaderHeadway=1.2, $leaderSpeed=110, $breakRanksSafetyDistance=20, $minSpeed=100, $maxSpeed=120, $beaconInterval=0.1, $priority=4, $packetSize=200, $sController=\"CACC\", $0=2, $1=0"
attr network Highway
attr processid 306033
attr repetition 0
attr replication #0
attr resultdir results
attr runnumber 1490
attr seedset 0
itervar beaconInterval 0.1
itervar breakRanksSafetyDistance 20
itervar controller 1
itervar headway 0.1
itervar leaderHeadway 1.2
itervar leaderSpeed 110
itervar maxSpeed 120
itervar minSpeed 100
itervar nCars 16
itervar nLanes 1
itervar packetSize 200
itervar platoonSize 8
itervar ploegH 0.5
itervar priority 4
itervar sController "\"CACC\""
config image-path ../../../veins/images
config repeat 10
config extends BreakRanks
config *.manager.command "\"sumo\""
config *.manager.ignoreGuiCommands true
config output-vector-file "results/BreakRanks_1_0.1_110_20_8 /result_0.vec"
config output-scalar-file "results/BreakRanks_1_0.1_110_20_8 /result_0.sca"
config extends Platooning
config *.node[*].scenario_type "\"BreakRanksScenario\""
config *.manager.command "\"sumo-gui\""
config *.node[*].scenario_type "\"SimpleScenario\""
config cmdenv-express-mode true
config cmdenv-autoflush true
config cmdenv-status-frequency 15s
config num-rngs 6
config network Highway
config debug-on-errors true
config print-undisposed true
config *.playgroundSizeX 65000m
config *.playgroundSizeY 25000m
config *.playgroundSizeZ 50m
config sim-time-limit "100 s"
config *.annotations.draw false
config *.obstacles.debug false
config *.world.useTorus false
config *.world.use2D false
config *.manager.updateInterval 0.01s
config *.manager.host "\"localhost\""
config *.manager.moduleType "\"org.car2x.plexe.PlatoonCar\""
config *.manager.moduleName "\"node\""
config *.manager.moduleDisplayString "\"\""
config *.manager.autoShutdown true
config *.manager.margin 25
config *.connectionManager.sendDirect true
config *.connectionManager.maxInterfDist 2600m
config *.connectionManager.drawMaxIntfDist false
config *.**.nic.mac1609_4.useServiceChannel false
config *.**.nic.mac1609_4.txPower 100mW
config *.**.nic.mac1609_4.bitrate 6Mbps
config *.**.nic.mac1609_4.useAcks true
config *.**.nic.mac1609_4.ackErrorRate 0.0
config *.**.nic.mac1609_4.frameErrorRate 0.0
config *.**.nic.phy80211p.minPowerLevel -94dBm
config *.**.nic.phy80211p.maxTXPower 100mW
config *.**.nic.phy80211p.useNoiseFloor true
config *.**.nic.phy80211p.noiseFloor -95dBm
config *.**.nic.phy80211p.decider "xmldoc(\"config.xml\")"
config *.**.nic.phy80211p.analogueModels "xmldoc(\"config.xml\")"
config *.**.nic.phy80211p.usePropagationDelay true
config *.node[*].mobility.x 0
config *.node[*].mobility.y 0
config *.node[*].mobility.z 1.895
config seed-set 0
config **.seed 0
config *.node[*].prot.rng-0 2
config *.node[*].appl.rng-0 3
config *.node[*].scenario.rng-0 4
config **.traffic.rng-0 5
config *.manager.configFile "\"./sumocfg/freeway.sumo.cfg\""
config *.manager.launchConfig "xmldoc(\"./sumocfg/freeway.launchd.xml\")"
config **.numberOfCars 16
config **.numberOfCarsPerPlatoon 8
config **.numberOfLanes 1
config *.node[*].helper_type "\"PositionHelper\""
config *.node[*].scenario.caccC1 0.5
config *.node[*].scenario.caccXi 1
config *.node[*].scenario.caccOmegaN "0.2 Hz"
config *.node[*].scenario.caccSpacing "2 m"
config *.node[*].scenario.engineTau "0.5 s"
config *.node[*].scenario.ploegH 0.5s
config *.node[*].scenario.ploegKp 0.2
config *.node[*].scenario.ploegKd 0.7
config *.node[*].scenario.useRealisticEngine false
config *.node[*].scenario.useControllerAcceleration true
config *.node[*].scenario.nLanes 1
config **.numericController 1
config **.headway 0.1s
config *.node[*].scenario.accHeadway 0.1s
config *.node[*].scenario.leaderHeadway 1.2s
config *.node[*].scenario.leaderSpeed 110kmph
config *.node[*].appl_type "\"SimplePlatooningApp\""
config *.node[*].appl.*.scalar-recording true
config *.node[*].appl.*.vector-recording true
config *.node[0].appl.breakRanksSafetyDistance 20m
config *.node[*].appl.minSpeed 100kmph
config *.node[*].appl.maxSpeed 120kmph
config *.node[*].protocol_type "\"SimplePlatooningBeaconing\""
config *.node[*].prot.*.scalar-recording true
config *.node[*].prot.*.vector-recording true
config *.node[*].prot.beaconingInterval 0.1s
config *.node[*].prot.priority 4
config *.node[*].prot.packetSize 200
config **.traffic_type "\"PlatoonsTrafficManager\""
config **.traffic.platoonInsertTime "1 s"
config **.traffic.platoonInsertSpeed 110kmph
config **.traffic.nCars 16
config **.traffic.platoonSize 8
config **.traffic.nLanes 1
config **.traffic.platooningVType "\"vtypeauto\""
config **.traffic.controller "\"CACC\""
config **.traffic.platoonInsertDistance 2m
config **.traffic.platoonInsertHeadway 0s
config **.traffic.platoonLeaderHeadway 1.2s
config **.scalar-recording false
config **.vector-recording false

vector 0 Highway.node[0].appl distance ETV
vector 1 Highway.node[0].appl relativeSpeed ETV
vector 2 Highway.node[0].appl nodeId ETV
vector 3 Highway.node[0].appl acceleration ETV
vector 4 Highway.node[0].appl controllerAcceleration ETV
vector 5 Highway.node[0].appl speed ETV
vector 6 Highway.node[0].appl posx ETV
vector 7 Highway.node[0].appl posy ETV
vector 8 Highway.node[1].appl distance ETV
vector 9 Highway.node[1].appl relativeSpeed ETV
vector 10 Highway.node[1].appl nodeId ETV
vector 11 Highway.node[1].appl acceleration ETV
vector 12 Highway.node[1].appl controllerAcceleration ETV
vector 13 Highway.node[1].appl speed ETV
vector 14 Highway.node[1].appl posx ETV
vector 15 Highway.node[1].appl posy ETV
vector 16 Highway.node[2].appl distance ETV
vector 17 Highway.node[2].appl relativeSpeed ETV
vector 18 Highway.node[2].appl nodeId ETV
vector 19 Highway.node[2].appl acceleration ETV
vector 20 Highway.node[2].appl controllerAcceleration ETV
vector 21 Highway.node[2].appl speed ETV
vector 22 Highway.node[2].appl posx ETV
vector 23 Highway.node[2].appl posy ETV
vector 24 Highway.node[3].appl distance ETV
vector 25 Highway.node[3].appl relativeSpeed ETV
vector 26 Highway.node[3].appl nodeId ETV
vector 27 Highway.node[3].appl acceleration ETV
vector 28 Highway.node[3].appl controllerAcceleration ETV
vector 29 Highway.node[3].appl speed ETV
vector 30 Highway.node[3].appl posx ETV
vector 31 Highway.node[3].appl posy ETV
vector 32 Highway.node[4].appl distance ETV
vector 33 Highway.node[4].appl relativeSpeed ETV
vector 34 Highway.node[4].appl nodeId ETV
vector 35 Highway.node[4].appl acceleration ETV
vector 36 Highway.node[4].appl controllerAcceleration ETV
vector 37 Highway.node[4].appl speed ETV
vector 38 Highway.node[4].appl posx ETV
vector 39 Highway.node[4].appl posy ETV
vector 40 Highway.node[5].appl distance ETV
vector 41 Highway.node[5].appl relativeSpeed ETV
vector 42 Highway.node[5].appl nodeId ETV
vector 43 Highway.node[5].appl acceleration ETV
vector 44 Highway.node[5].appl controllerAcceleration ETV
vector 45 Highway.node[5].appl speed ETV
vector 46 Highway.node[5].appl posx ETV
vector 47 Highway.node[5].appl posy ETV
vector 48 Highway.node[6].appl distance ETV
vector 49 Highway.node[6].appl relativeSpeed ETV
vector 50 Highway.node[6].appl nodeId ETV
vector 51 Highway.node[6].appl acceleration ETV
vector 52 Highway.node[6].appl controllerAcceleration ETV
vector 53 Highway.node[6].appl speed ETV
vector 54 Highway.node[6].appl posx ETV
vector 55 Highway.node[6].appl posy ETV
vector 56 Highway.node[7].appl distance ETV
vector 57 Highway.node[7].appl relativeSpeed ETV
vector 58 Highway.node[7].appl nodeId ETV
vector 59 Highway.node[7].appl acceleration ETV
vector 60 Highway.node[7].appl controllerAcceleration ETV
vector 61 Highway.node[7].appl speed ETV
vector 62 Highway.node[7].appl posx ETV
vector 63 Highway.node[7].appl posy ETV
vector 64 Highway.node[8].appl distance ETV
vector 65 Highway.node[8].appl relativeSpeed ETV
vector 66 Highway.node[8].appl nodeId ETV
vector 67 Highway.node[8].appl acceleration ETV
vector 68 Highway.node[8].appl controllerAcceleration ETV
vector 69 Highway.node[8].appl speed ETV
vector 70 Highway.node[8].appl posx ETV
vector 71 Highway.node[8].appl posy ETV
vector 72 Highway.node[9].appl distance ETV
vector 73 Highway.node[9].appl relativeSpeed ETV
vector 74 Highway.node[9].appl nodeId ETV
vector 75 Highway.node[9].appl acceleration ETV
vector 76 Highway.node[9].appl controllerAcceleration ETV
vector 77 Highway.node[9].appl speed ETV
vector 78 Highway.node[9].appl posx ETV
vector 79 Highway.node[9].appl posy ETV
vector 80 Highway.node[10].appl distance ETV
vector 81 Highway.node[10].appl relativeSpeed ETV
vector 82 Highway.node[10].appl nodeId ETV
vector 83 Highway.node[10].appl acceleration ETV
vector 84 Highway.node[10].appl controllerAcceleration ETV
vector 85 Highway.node[10].appl speed ETV
vector 86 Highway.node[10].appl posx ETV
vector 87 Highway.node[10].appl posy ETV
vector 88 Highway.node[11].appl distance ETV
vector 89 Highway.node[11].appl relativeSpeed ETV
vector 90 Highway.node[11].appl nodeId ETV
vector 91 Highway.node[11].appl acceleration ETV
vector 92 Highway.node[11].appl controllerAcceleration ETV
vector 93 Highway.node[11].appl speed ETV
vector 94 Highway.node[11].appl posx ETV
vector 95 Highway.node[11].appl posy ETV
vector 96 Highway.node[12].appl distance ETV
vector 97 Highway.node[12].appl relativeSpeed ETV
vector 98 Highway.node[12].appl nodeId ETV
vector 99 Highway.node[12].appl acceleration ETV
vector 100 Highway.node[12].appl controllerAcceleration ETV
vector 101 Highway.node[12].appl speed ETV
vector 102 Highway.node[12].appl posx ETV
vector 103 Highway.node[12].appl posy ETV
vector 104 Highway.node[13].appl distance ETV
vector 105 Highway.node[13].appl relativeSpeed ETV
vector 106 Highway.node[13].appl nodeId ETV
vector 107 Highway.node[13].appl acceleration ETV
vector 108 Highway.node[13].appl controllerAcceleration ETV
vector 109 Highway.node[13].appl speed ETV
vector 110 Highway.node[13].appl posx ETV
vector 111 Highway.node[13].appl posy ETV
vector 112 Highway.node[14].appl distance ETV
vector 113 Highway.node[14].appl relativeSpeed ETV
vector 114 Highway.node[14].appl nodeId ETV
vector 115 Highway.node[14].appl acceleration ETV
vector 116 Highway.node[14].appl controllerAcceleration ETV
vector 117 Highway.node[14].appl speed ETV
vector 118 Highway.node[14].appl posx ETV
vector 119 Highway.node[14].appl posy ETV
vector 120 Highway.node[15].appl distance ETV
vector 121 Highway.node[15].appl relativeSpeed ETV
vector 122 Highway.node[15].appl nodeId ETV
vector 123 Highway.node[15].appl acceleration ETV
vector 124 Highway.node[15].appl controllerAcceleration ETV
vector 125 Highway.node[15].appl speed ETV
vector 126 Highway.node[15].appl posx ETV
vector 127 Highway.node[15].appl posy ETV
vector 128 Highway.node[3].prot frontDelay ETV
vector 129 Highway.node[3].prot frontDelayId ETV
vector 130 Highway.node[2].prot frontDelay ETV
vector 131 Highway.node[2].prot frontDelayId ETV
vector 132 Highway.node[12].prot frontDelay ETV
vector 133 Highway.node[12].prot frontDelayId ETV
vector 134 Highway.node[8].prot frontDelay ETV
vector 135 Highway.node[8].prot frontDelayId ETV
vector 136 Highway.node[13].prot frontDelay ETV
vector 137 Highway.node[13].prot frontDelayId ETV
vector 138 Highway.node[10].prot frontDelay ETV
vector 139 Highway.node[10].prot frontDelayId ETV
vector 140 Highway.node[11].prot frontDelay ETV
vector 141 Highway.node[11].prot frontDelayId ETV
vector 142 Highway.node[9].prot frontDelay ETV
vector 143 Highway.node[9].prot frontDelayId ETV
vector 144 Highway.node[7].prot frontDelay ETV
vector 145 Highway.node[7].prot frontDelayId ETV
vector 146 Highway.node[1].prot leaderDelay ETV
vector 147 Highway.node[1].prot leaderDelayId ETV
vector 148 Highway.node[1].prot frontDelay ETV
vector 149 Highway.node[1].prot frontDelayId ETV
vector 150 Highway.node[8].prot leaderDelay ETV
vector 151 Highway.node[8].prot leaderDelayId ETV
vector 152 Highway.node[9].prot leaderDelay ETV
vector 153 Highway.node[9].prot leaderDelayId ETV
vector 154 Highway.node[10].prot leaderDelay ETV
vector 155 Highway.node[10].prot leaderDelayId ETV
vector 156 Highway.node[11].prot leaderDelay ETV
vector 157 Highway.node[11].prot leaderDelayId ETV
vector 158 Highway.node[12].prot leaderDelay ETV
vector 159 Highway.node[12].prot leaderDelayId ETV
vector 160 Highway.node[13].prot leaderDelay ETV
vector 161 Highway.node[13].prot leaderDelayId ETV
vector 162 Highway.node[5].prot frontDelay ETV
vector 163 Highway.node[5].prot frontDelayId ETV
vector 164 Highway.node[15].prot leaderDelay ETV
vector 165 Highway.node[15].prot leaderDelayId ETV
vector 166 Highway.node[15].prot frontDelay ETV
vector 167 Highway.node[15].prot frontDelayId ETV
vector 168 Highway.node[2].prot leaderDelay ETV
vector 169 Highway.node[2].prot leaderDelayId ETV
vector 170 Highway.node[3].prot leaderDelay ETV
vector 171 Highway.node[3].prot leaderDelayId ETV
vector 172 Highway.node[4].prot leaderDelay ETV
vector 173 Highway.node[4].prot leaderDelayId ETV
vector 174 Highway.node[5].prot leaderDelay ETV
vector 175 Highway.node[5].prot leaderDelayId ETV
vector 176 Highway.node[6].prot leaderDelay ETV
vector 177 Highway.node[6].prot leaderDelayId ETV
vector 178 Highway.node[7].prot leaderDelay ETV
vector 179 Highway.node[7].prot leaderDelayId ETV
vector 180 Highway.node[4].prot frontDelay ETV
vector 181 Highway.node[4].prot frontDelayId ETV
vector 182 Highway.node[6].prot frontDelay ETV
vector 183 Highway.node[6].prot frontDelayId ETV
vector 184 Highway.node[0].prot nodeId ETV
vector 185 Highway.node[0].prot busyTime ETV
vector 186 Highway.node[0].prot collisions ETV
vector 187 Highway.node[1].prot nodeId ETV
vector 188 Highway.node[1].prot busyTime ETV
vector 189 Highway.node[1].prot collisions ETV
vector 190 Highway.node[2].prot nodeId ETV
vector 191 Highway.node[2].prot busyTime ETV
vector 192 Highway.node[2].prot collisions ETV
vector 193 Highway.node[3].prot nodeId ETV
vector 194 Highway.node[3].prot busyTime ETV
vector 195 Highway.node[3].prot collisions ETV
vector 196 Highway.node[4].prot nodeId ETV
vector 197 Highway.node[4].prot busyTime ETV
vector 198 Highway.node[4].prot collisions ETV
vector 199 Highway.node[5].prot nodeId ETV
vector 200 Highway.node[5].prot busyTime ETV
vector 201 Highway.node[5].prot collisions ETV
vector 202 Highway.node[6].prot nodeId ETV
vector 203 Highway.node[6].prot busyTime ETV
vector 204 Highway.node[6].prot collisions ETV
vector 205 Highway.node[7].prot nodeId ETV
vector 206 Highway.node[7].prot busyTime ETV
vector 207 Highway.node[7].prot collisions ETV
vector 208 Highway.node[8].prot nodeId ETV
vector 209 Highway.node[8].prot busyTime ETV
vector 210 Highway.node[8].prot collisions ETV
vector 211 Highway.node[9].prot nodeId ETV
vector 212 Highway.node[9].prot busyTime ETV
vector 213 Highway.node[9].prot collisions ETV
vector 214 Highway.node[10].prot nodeId ETV
vector 215 Highway.node[10].prot busyTime ETV
vector 216 Highway.node[10].prot collisions ETV
vector 217 Highway.node[11].prot nodeId ETV
vector 218 Highway.node[11].prot busyTime ETV
vector 219 Highway.node[11].prot collisions ETV
vector 220 Highway.node[12].prot nodeId ETV
vector 221 Highway.node[12].prot busyTime ETV
vector 222 Highway.node[12].prot collisions ETV
vector 223 Highway.node[13].prot nodeId ETV
vector 224 Highway.node[13].prot busyTime ETV
vector 225 Highway.node[13].prot collisions ETV
vector 226 Highway.node[14].prot nodeId ETV
vector 227 Highway.node[14].prot busyTime ETV
vector 228 Highway.node[14].prot collisions ETV
vector 229 Highway.node[15].prot nodeId ETV
vector 230 Highway.node[15].prot busyTime ETV
vector 231 Highway.node[15].prot collisions ETV
0	113	1.11	-1
0	2219	1.21	-1
0	4325	1.31	-1
0	6431	1.41	-1
0	8537	1.51	-1
0	10643	1.61	-1
0	12749	1.71	-1
0	14855	1.81	-1
0	16961	1.91	-1
0	19083	2.01	-1
0	21189	2.11	-1
0	23295	2.21	-1
0	25401	2.31	-1
0	27507	2.41	-1
0	29613	2.51	-1
0	31719	2.61	-1
0	33825	2.71	-1
0	35931	2.81	-1
0	38037	2.91	-1
0	40159	3.01	-1
0	42265	3.11	-1
0	44371	3.21	-1
0	46477	3.31	-1
0	48583	3.41	-1
0	50689	3.51	-1
0	52795	3.61	-1
0	54901	3.71	-1
0	57007	3.81	-1
0	59113	3.91	-1
0	61235	4.01	-1
0	63341	4.11	-1
0	65447	4.21	-1
0	67553	4.31	-1
0	69659	4.41	-1
0	71765	4.51	-1
0	73871	4.61	-1
0	75977	4.71	-1
0	78083	4.81	-1
0	80189	4.91	-1
0	82311	5.01	-1
0	84417	5.11	-1
0	86523	5.21	-1
0	88629	5.31	-1
0	90735	5.41	-1
0	92841	5.51	-1
0	94947	5.61	-1
0	97053	5.71	-1
0	99159	5.81	-1
0	101265	5.91	-1
0	103387	6.01	-1
0	105493	6.11	-1
0	107599	6.21	-1
0	109705	6.31	-1
0	111811	6.41	-1
0	113917	6.51	-1
0	116023	6.61	-1
0	118129	6.71	-1
0	120235	6.81	-1
0	122341	6.91	-1
0	124463	7.01	-1
0	126569	7.11	-1
0	128675	7.21	-1
0	130781	7.31	-1
0	132887	7.41	-1
0	134993	7.51	-1
0	137099	7.61	-1
0	139205	7.71	-1
0	141311	7.81	-1
0	143417	7.91	-1
0	145539	8.01	-1
0	147645	8.11	-1
0	149751	8.21	-1
0	151857	8.31	-1
0	153963	8.41	-1
0	156069	8.51	-1
0	158175	8.61	-1
0	160281	8.71	-1
0	162387	8.81	-1
0	164493	8.91	-1
0	166615	9.01	-1
0	168721	9.11	-1
0	170827	9.21	-1
0	172933	9.31	-1
0	175039	9.41	-1
0	177145	9.51	-1
0	179251	9.61	-1
0	181357	9.71	-1
0	183463	9.81	-1
0	185569	9.91	-1
0	187895	10.01	-1
0	190013	10.11	-1
0	192131	10.21	-1
0	194249	10.31	-1
0	196367	10.41	-1
0	198485	10.51	-1
0	200603	10.61	-1
0	202721	10.71	-1
0	204839	10.81	-1
0	206957	10.91	-1
0	209091	11.01	-1
0	211209	11.11	-1
0	213327	11.21	-1
0	215445	11.31	-1
0	217563	11.41	-1
0	219681	11.51	-1
0	221799	11.61	-1
0	223917	11.71	-1
0	226035	11.81	-1
0	228153	11.91	-1
0	230287	12.01	-1
0	232405	12.11	-1
0	234523	12.21	-1
0	236641	12.31	-1
0	238759	12.41	-1
0	240877	12.51	-1
0	242995	12.61	-1
0	245113	12.71	-1
0	247231	12.81	-1
0	249349	12.91	-1
0	251483	13.01	-1
0	253601	13.11	-1
0	255719	13.21	-1
0	257837	13.31	-1
1	113	1.11	0
1	2219	1.21	0
1	4325	1.31	0
1	6431	1.41	0
1	8537	1.51	0
1	10643	1.61	0
1	12749	1.71	0
1	14855	1.81	0
1	16961	1.91	0
1	19083	2.01	0
1	21189	2.11	0
1	23295	2.21	0
1	25401	2.31	0
1	27507	2.41	0
1	29613	2.51	0
1	31719	2.61	0
1	33825	2.71	0
1	35931	2.81	0
1	38037	2.91	0
1	40159	3.01	0
1	42265	3.11	0
1	44371	3.21	0
1	46477	3.31	0
1	48583	3.41	0
1	50689	3.51	0
1	52795	3.61	0
1	54901	3.71	0
1	57007	3.81	0
1	59113	3.91	0
1	61235	4.01	0
1	63341	4.11	0
1	65447	4.21	0
1	67553	4.31	0
1	69659	4.41	0
1	71765	4.51	0
1	73871	4.61	0
1	75977	4.71	0
1	78083	4.81	0
1	80189	4.91	0
1	82311	5.01	0
1	84417	5.11	0
1	86523	5.21	0
1	88629	5.31	0
1	90735	5.41	0
1	92841	5.51	0
1	94947	5.61	0
1	97053	5.71	0
1	99159	5.81	0
1	101265	5.91	0
1	103387	6.01	0
1	105493	6.11	0
1	107599	6.21	0
1	109705	6.31	0
1	111811	6.41	0
1	113917	6.51	0
1	116023	6.61	0
1	118129	6.71	0
1	120235	6.81	0
1	122341	6.91	0
1	124463	7.01	0
1	126569	7.11	0
1	128675	7.21	0
1	130781	7.31	0
1	132887	7.41	0
1	134993	7.51	0
1	137099	7.61	0
1	139205	7.71	0
1	141311	7.81	0
1	143417	7.91	0
1	145539	8.01	0
1	147645	8.11	0
1	149751	8.21	0
1	151857	8.31	0
1	153963	8.41	0
1	156069	8.51	0
1	158175	8.61	0
1	160281	8.71	0
1	162387	8.81	0
1	164493	8.91	0
1	166615	9.01	0
1	168721	9.11	0
1	170827	9.21	0
1	172933	9.31	0
1	175039	9.41	0
1	177145	9.51	0
1	179251	9.61	0
1	181357	9.71	0
1	183463	9.81	0
1	185569	9.91	0
1	187895	10.01	0
1	190013	10.11	0
1	192131	10.21	0
1	194249	10.31	0
1	196367	10.41	0
1	198485	10.51	0
1	200603	10.61	0
1	202721	10.71	0
1	204839	10.81	0
1	206957	10.91	0
1	209091	11.01	0
1	211209	11.11	0
1	213327	11.21	0
1	215445	11.31	0
1	217563	11.41	0
1	219681	11.51	0
1	221799	11.61	0
1	223917	11.71	0
1	226035	11.81	0
1	228153	11.91	0
1	230287	12.01	0
1	232405	12.11	0
1	234523	12.21	0
1	236641	12.31	0
1	238759	12.41	0
1	240877	12.51	0
1	242995	12.61	0
1	245113	12.71	0
1	247231	12.81	0
1	249349	12.91	0
1	251483	13.01	0
1	253601	13.11	0
1	255719	13.21	0
1	257837	13.31	0
2	113	1.11	0
2	2219	1.21	0
2	4325	1.31	0
2	6431	1.41	0
2	8537	1.51	0
2	10643	1.61	0
2	12749	1.71	0
2	14855	1.81	0
2	16961	1.91	0
2	19083	2.01	0
2	21189	2.11	0
2	23295	2.21	0
2	25401	2.31	0
2	27507	2.41	0
2	29613	2.51	0
2	31719	2.61	0
2	33825	2.71	0
2	35931	2.81	0
2	38037	2.91	0
2	40159	3.01	0
2	42265	3.11	0
2	44371	3.21	0
2	46477	3.31	0
2	48583	3.41	0
2	50689	3.51	0
2	52795	3.61	0
2	54901	3.71	0
2	57007	3.81	0
2	59113	3.91	0
2	61235	4.01	0
2	63341	4.11	0
2	65447	4.21	0
2	67553	4.31	0
2	69659	4.41	0
2	71765	4.51	0
2	73871	4.61	0
2	75977	4.71	0
2	78083	4.81	0
2	80189	4.91	0
2	82311	5.01	0
2	84417	5.11	0
2	86523	5.21	0
2	88629	5.31	0
2	90735	5.41	0
2	92841	5.51	0
2	94947	5.61	0
2	97053	5.71	0
2	99159	5.81	0
2	101265	5.91	0
2	103387	6.01	0
2	105493	6.11	0
2	107599	6.21	0
2	109705	6.31	0
2	111811	6.41	0
2	113917	6.51	0
2	116023	6.61	0
2	118129	6.71	0
2	120235	6.81	0
2	122341	6.91	0
2	124463	7.01	0
2	126569	7.11	0
2	128675	7.21	0
2	130781	7.31	0
2	132887	7.41	0
2	134993	7.51	0
2	137099	7.61	0
2	139205	7.71	0
2	141311	7.81	0
2	143417	7.91	0
2	145539	8.01	0
2	147645	8.11	0
2	149751	8.21	0
2	151857	8.31	0
2	153963	8.41	0
2	156069	8.51	0
2	158175	8.61	0
2	160281	8.71	0
2	162387	8.81	0
2	164493	8.91	0
2	166615	9.01	0
2	168721	9.11	0
2	170827	9.21	0
2	172933	9.31	0
2	175039	9.41	0
2	177145	9.51	0
2	179251	9.61	0
2	181357	9.71	0
2	183463	9.81	0
2	185569	9.91	0
2	187895	10.01	0
2	190013	10.11	0
2	192131	10.21	0
2	194249	10.31	0
2	196367	10.41	0
2	198485	10.51	0
2	200603	10.61	0
2	202721	10.71	0
2	204839	10.81	0
2	206957	10.91	0
2	209091	11.01	0
2	211209	11.11	0
2	213327	11.21	0
2	215445	11.31	0
2	217563	11.41	0
2	219681	11.51	0
2	221799	11.61	0
2	223917	11.71	0
2	226035	11.81	0
2	228153	11.91	0
2	230287	12.01	0
2	232405	12.11	0
2	234523	12.21	0
2	236641	12.31	0
2	238759	12.41	0
2	240877	12.51	0
2	242995	12.61	0
2	245113	12.71	0
2	247231	12.81	0
2	249349	12.91	0
2	251483	13.01	0
2	253601	13.11	0
2	255719	13.21	0
2	257837	13.31	0
3	113	1.11	-0.000716383
3	2219	1.21	-0.00136341
3	4325	1.31	-0.00186974
3	6431	1.41	-0.00225157
3	8537	1.51	-0.00252443
3	10643	1.61	-0.00270298
3	12749	1.71	-0.00280098
3	14855	1.81	-0.00283113
3	16961	1.91	-0.00280509
3	19083	2.01	-0.00273342
3	21189	2.11	-0.00262559
3	23295	2.21	-0.00249005
3	25401	2.31	-0.00233419
3	27507	2.41	-0.00216447
3	29613	2.51	-0.00198642
3	31719	2.61	-0.00180472
3	33825	2.71	-0.0016233
3	35931	2.81	-0.00144536
3	38037	2.91	-0.00127346
3	40159	3.01	-0.0011096
3	42265	3.11	-0.000955278
3	44371	3.21	-0.000811546
3	46477	3.31	-0.00067908
3	48583	3.41	-0.000558232
3	50689	3.51	-0.000449082
3	52795	3.61	-0.000351487
3	54901	3.71	-0.00026512
3	57007	3.81	-0.000189514
3	59113	3.91	-0.000124092
3	61235	4.01	-6.81972e-05
3	63341	4.11	-2.11209e-05
3	65447	4.21	1.78769e-05
3	67553	4.31	4.9548e-05
3	69659	4.41	7.46407e-05
3	71765	4.51	9.38867e-05
3	73871	4.61	0.000107991
3	75977	4.71	0.000117625
3	78083	4.81	0.000123418
3	80189	4.91	0.000125957
3	82311	5.01	0.000125781
3	84417	5.11	0.00012338
3	86523	5.21	0.000119198
3	88629	5.31	0.000113629
3	90735	5.41	0.000107022
3	92841	5.51	9.96832e-05
3	94947	5.61	9.18747e-05
3	97053	5.71	8.38211e-05
3	99159	5.81	7.57109e-05
3	101265	5.91	6.76999e-05
3	103387	6.01	5.99137e-05
3	105493	6.11	5.24518e-05
3	107599	6.21	4.53896e-05
3	109705	6.31	3.87821e-05
3	111811	6.41	3.2666e-05
3	113917	6.51	2.70628e-05
3	116023	6.61	2.19809e-05
3	118129	6.71	1.74176e-05
3	120235	6.81	1.33618e-05
3	122341	6.91	9.79494e-06
3	124463	7.01	6.6932e-06
3	126569	7.11	4.02864e-06
3	128675	7.21	1.77051e-06
3	130781	7.31	-1.13691e-07
3	132887	7.41	-1.65736e-06
3	134993	7.51	-2.89397e-06
3	137099	7.61	-3.85652e-06
3	139205	7.71	-4.57698e-06
3	141311	7.81	-5.08591e-06
3	143417	7.91	-5.41219e-06
3	145539	8.01	-5.58279e-06
3	147645	8.11	-5.6226e-06
3	149751	8.21	-5.55442e-06
3	151857	8.31	-5.39886e-06
3	153963	8.41	-5.17441e-06
3	156069	8.51	-4.89748e-06
3	158175	8.61	-4.58246e-06
3	160281	8.71	-4.24184e-06
3	162387	8.81	-3.88634e-06
3	164493	8.91	-3.52499e-06
3	166615	9.01	-3.16534e-06
3	168721	9.11	-2.81353e-06
3	170827	9.21	-2.47446e-06
3	172933	9.31	-2.15192e-06
3	175039	9.41	-1.84873e-06
3	177145	9.51	-1.56685e-06
3	179251	9.61	-1.30751e-06
3	181357	9.71	-1.0713e-06
3	183463	9.81	-8.58321e-07
3	185569	9.91	-6.68206e-07
3	187895	10.01	-5.0026e-07
3	190013	10.11	-3.53514e-07
3	192131	10.21	-2.2679e-07
3	194249	10.31	-1.18765e-07
3	196367	10.41	-2.80163e-08
3	198485	10.51	4.6931e-08
3	200603	10.61	1.07573e-07
3	202721	10.71	1.55391e-07
3	204839	10.81	1.91831e-07
3	206957	10.91	2.18284e-07
3	209091	11.01	2.3607e-07
3	211209	11.11	2.46427e-07
3	213327	11.21	2.50502e-07
3	215445	11.31	2.49353e-07
3	217563	11.41	2.43938e-07
3	219681	11.51	2.3512e-07
3	221799	11.61	2.23669e-07
3	223917	11.71	2.10264e-07
3	226035	11.81	1.95496e-07
3	228153	11.91	1.79874e-07
3	230287	12.01	1.63833e-07
3	232405	12.11	1.47736e-07
3	234523	12.21	1.3188e-07
3	236641	12.31	1.16508e-07
3	238759	12.41	1.01807e-07
3	240877	12.51	8.79222e-08
3	242995	12.61	7.49541e-08
3	245113	12.71	6.29711e-08
3	247231	12.81	5.20114e-08
3	249349	12.91	4.20883e-08
3	251483	13.01	3.3193e-08
3	253601	13.11	2.53003e-08
3	255719	13.21	1.83718e-08
3	257837	13.31	1.23581e-08
4	113	1.11	-0.00437036
4	2219	1.21	-0.00426837
4	4325	1.31	-0.00410815
4	6431	1.41	-0.00390303
4	8537	1.51	-0.00366476
4	10643	1.61	-0.00340356
4	12749	1.71	-0.00312825
4	14855	1.81	-0.00284628
4	16961	1.91	-0.00256392
4	19083	2.01	-0.0022863
4	21189	2.11	-0.00201755
4	23295	2.21	-0.00176089
4	25401	2.31	-0.00151876
4	27507	2.41	-0.00129289
4	29613	2.51	-0.00108441
4	31719	2.61	-0.00089393
4	33825	2.71	-0.000721638
4	35931	2.81	-0.000567355
4	38037	2.91	-0.000430614
4	40159	3.01	-0.000310715
4	42265	3.11	-0.000206783
4	44371	3.21	-0.000117814
4	46477	3.31	-4.27149e-05
4	48583	3.41	1.96584e-05
4	50689	3.51	7.04736e-05
4	52795	3.61	0.000110896
4	54901	3.71	0.000142067
4	57007	3.81	0.00016509
4	59113	3.91	0.000181016
4	61235	4.01	0.000190834
4	63341	4.11	0.000195466
4	65447	4.21	0.00019576
4	67553	4.31	0.000192489
4	69659	4.41	0.000186354
4	71765	4.51	0.000177979
4	73871	4.61	0.000167916
4	75977	4.71	0.000156649
4	78083	4.81	0.000144597
4	80189	4.91	0.000132116
4	82311	5.01	0.000119508
4	84417	5.11	0.000107021
4	86523	5.21	9.48587e-05
4	88629	5.31	8.31796e-05
4	90735	5.41	7.21068e-05
4	92841	5.51	6.17299e-05
4	94947	5.61	5.21101e-05
4	97053	5.71	4.32839e-05
4	99159	5.81	3.52669e-05
4	101265	5.91	2.80577e-05
4	103387	6.01	2.16404e-05
4	105493	6.11	1.59878e-05
4	107599	6.21	1.1064e-05
4	109705	6.31	6.82631e-06
4	111811	6.41	3.22748e-06
4	113917	6.51	2.17307e-07
4	116023	6.61	-2.25598e-06
4	118129	6.71	-4.24448e-06
4	120235	6.81	-5.79961e-06
4	122341	6.91	-6.97134e-06
4	124463	7.01	-7.80753e-06
4	126569	7.11	-8.35346e-06
4	128675	7.21	-8.65149e-06
4	130781	7.31	-8.7408e-06
4	132887	7.41	-8.6573e-06
4	134993	7.51	-8.43352e-06
4	137099	7.61	-8.09868e-06
4	139205	7.71	-7.67874e-06
4	141311	7.81	-7.19651e-06
4	143417	7.91	-6.67185e-06
4	145539	8.01	-6.12177e-06
4	147645	8.11	-5.56072e-06
4	149751	8.21	-5.00073e-06
4	151857	8.31	-4.45164e-06
4	153963	8.41	-3.92136e-06
4	156069	8.51	-3.41601e-06
4	158175	8.61	-2.94018e-06
4	160281	8.71	-2.4971e-06
4	162387	8.81	-2.08883e-06
4	164493	8.91	-1.71644e-06
4	166615	9.01	-1.38016e-06
4	168721	9.11	-1.07955e-06
4	170827	9.21	-8.13576e-07
4	172933	9.31	-5.80794e-07
4	175039	9.41	-3.79414e-07
4	177145	9.51	-2.07408e-07
4	179251	9.61	-6.25825e-08
4	181357	9.71	5.73472e-08
4	183463	9.81	1.54703e-07
4	185569	9.91	2.31794e-07
4	187895	10.01	2.90877e-07
4	190013	10.11	3.3413e-07
4	192131	10.21	3.63618e-07
4	194249	10.31	3.81288e-07
4	196367	10.41	3.88944e-07
4	198485	10.51	3.88249e-07
4	200603	10.61	3.80715e-07
4	202721	10.71	3.67706e-07
4	204839	10.81	3.50439e-07
4	206957	10.91	3.29989e-07
4	209091	11.01	3.07294e-07
4	211209	11.11	2.83164e-07
4	213327	11.21	2.58291e-07
4	215445	11.31	2.33253e-07
4	217563	11.41	2.0853e-07
4	219681	11.51	1.84509e-07
4	221799	11.61	1.61493e-07
4	223917	11.71	1.39716e-07
4	226035	11.81	1.19345e-07
4	228153	11.91	1.00493e-07
4	230287	12.01	8.32259e-08
4	232405	12.11	6.75676e-08
4	234523	12.21	5.35106e-08
4	236641	12.31	4.10193e-08
4	238759	12.41	3.00361e-08
4	240877	12.51	2.04874e-08
4	242995	12.61	1.22867e-08
4	245113	12.71	5.33902e-09
4	247231	12.81	-4.56524e-10
4	249349	12.91	-5.20259e-09
4	251483	13.01	-9.00258e-09
4	253601	13.11	-1.19588e-08
4	255719	13.21	-1.41693e-08
4	257837	13.31	-1.57286e-08
5	113	1.11	30.56
5	2219	1.21	30.5599
5	4325	1.31	30.5597
5	6431	1.41	30.5595
5	8537	1.51	30.5592
5	10643	1.61	30.559
5	12749	1.71	30.5587
5	14855	1.81	30.5584
5	16961	1.91	30.5581
5	19083	2.01	30.5579
5	21189	2.11	30.5576
5	23295	2.21	30.5573
5	25401	2.31	30.5571
5	27507	2.41	30.5569
5	29613	2.51	30.5567
5	31719	2.61	30.5565
5	33825	2.71	30.5563
5	35931	2.81	30.5562
5	38037	2.91	30.556
5	40159	3.01	30.5559
5	42265	3.11	30.5558
5	44371	3.21	30.5557
5	46477	3.31	30.5556
5	48583	3.41	30.5556
5	50689	3.51	30.5555
5	52795	3.61	30.5555
5	54901	3.71	30.5555
5	57007	3.81	30.5554
5	59113	3.91	30.5554
5	61235	4.01	30.5554
5	63341	4.11	30.5554
5	65447	4.21	30.5554
5	67553	4.31	30.5554
5	69659	4.41	30.5554
5	71765	4.51	30.5554
5	73871	4.61	30.5554
5	75977	4.71	30.5554
5	78083	4.81	30.5555
5	80189	4.91	30.5555
5	82311	5.01	30.5555
5	84417	5.11	30.5555
5	86523	5.21	30.5555
5	88629	5.31	30.5555
5	90735	5.41	30.5555
5	92841	5.51	30.5555
5	94947	5.61	30.5555
5	97053	5.71	30.5556
5	99159	5.81	30.5556
5	101265	5.91	30.5556
5	103387	6.01	30.5556
5	105493	6.11	30.5556
5	107599	6.21	30.5556
5	109705	6.31	30.5556
5	111811	6.41	30.5556
5	113917	6.51	30.5556
5	116023	6.61	30.5556
5	118129	6.71	30.5556
5	120235	6.81	30.5556
5	122341	6.91	30.5556
5	124463	7.01	30.5556
5	126569	7.11	30.5556
5	128675	7.21	30.5556
5	130781	7.31	30.5556
5	132887	7.41	30.5556
5	134993	7.51	30.5556
5	137099	7.61	30.5556
5	139205	7.71	30.5556
5	141311	7.81	30.5556
5	143417	7.91	30.5556
5	145539	8.01	30.5556
5	147645	8.11	30.5556
5	149751	8.21	30.5556
5	151857	8.31	30.5556
5	153963	8.41	30.5556
5	156069	8.51	30.5556
5	158175	8.61	30.5556
5	160281	8.71	30.5556
5	162387	8.81	30.5556
5	164493	8.91	30.5556
5	166615	9.01	30.5556
5	168721	9.11	30.5556
5	170827	9.21	30.5556
5	172933	9.31	30.5556
5	175039	9.41	30.5556
5	177145	9.51	30.5556
5	179251	9.61	30.5556
5	181357	9.71	30.5556
5	183463	9.81	30.5556
5	185569	9.91	30.5556
5	187895	10.01	30.5556
5	190013	10.11	30.5556
5	192131	10.21	30.5556
5	194249	10.31	30.5556
5	196367	10.41	30.5556
5	198485	10.51	30.5556
5	200603	10.61	30.5556
5	202721	10.71	30.5556
5	204839	10.81	30.5556
5	206957	10.91	30.5556
5	209091	11.01	30.5556
5	211209	11.11	30.5556
5	213327	11.21	30.5556
5	215445	11.31	30.5556
5	217563	11.41	30.5556
5	219681	11.51	30.5556
5	221799	11.61	30.5556
5	223917	11.71	30.5556
5	226035	11.81	30.5556
5	228153	11.91	30.5556
5	230287	12.01	30.5556
5	232405	12.11	30.5556
5	234523	12.21	30.5556
5	236641	12.31	30.5556
5	238759	12.41	30.5556
5	240877	12.51	30.5556
5	242995	12.61	30.5556
5	245113	12.71	30.5556
5	247231	12.81	30.5556
5	249349	12.91	30.5556
5	251483	13.01	30.5556
5	253601	13.11	30.5556
5	255719	13.21	30.5556
5	257837	13.31	30.5556
6	113	1.11	135.86
6	2219	1.21	138.916
6	4325	1.31	141.972
6	6431	1.41	145.028
6	8537	1.51	148.084
6	10643	1.61	151.14
6	12749	1.71	154.196
6	14855	1.81	157.252
6	16961	1.91	160.308
6	19083	2.01	163.364
6	21189	2.11	166.419
6	23295	2.21	169.475
6	25401	2.31	172.531
6	27507	2.41	175.586
6	29613	2.51	178.642
6	31719	2.61	181.698
6	33825	2.71	184.753
6	35931	2.81	187.809
6	38037	2.91	190.865
6	40159	3.01	193.92
6	42265	3.11	196.976
6	44371	3.21	200.031
6	46477	3.31	203.087
6	48583	3.41	206.143
6	50689	3.51	209.198
6	52795	3.61	212.254
6	54901	3.71	215.309
6	57007	3.81	218.365
6	59113	3.91	221.42
6	61235	4.01	224.476
6	63341	4.11	227.531
6	65447	4.21	230.587
6	67553	4.31	233.642
6	69659	4.41	236.698
6	71765	4.51	239.754
6	73871	4.61	242.809
6	75977	4.71	245.865
6	78083	4.81	248.92
6	80189	4.91	251.976
6	82311	5.01	255.031
6	84417	5.11	258.087
6	86523	5.21	261.142
6	88629	5.31	264.198
6	90735	5.41	267.253
6	92841	5.51	270.309
6	94947	5.61	273.365
6	97053	5.71	276.42
6	99159	5.81	279.476
6	101265	5.91	282.531
6	103387	6.01	285.587
6	105493	6.11	288.642
6	107599	6.21	291.698
6	109705	6.31	294.753
6	111811	6.41	297.809
6	113917	6.51	300.865
6	116023	6.61	303.92
6	118129	6.71	306.976
6	120235	6.81	310.031
6	122341	6.91	313.087
6	124463	7.01	316.142
6	126569	7.11	319.198
6	128675	7.21	322.254
6	130781	7.31	325.309
6	132887	7.41	328.365
6	134993	7.51	331.42
6	137099	7.61	334.476
6	139205	7.71	337.531
6	141311	7.81	340.587
6	143417	7.91	343.642
6	145539	8.01	346.698
6	147645	8.11	349.754
6	149751	8.21	352.809
6	151857	8.31	355.865
6	153963	8.41	358.92
6	156069	8.51	361.976
6	158175	8.61	365.031
6	160281	8.71	368.087
6	162387	8.81	371.143
6	164493	8.91	374.198
6	166615	9.01	377.254
6	168721	9.11	380.309
6	170827	9.21	383.365
6	172933	9.31	386.42
6	175039	9.41	389.476
6	177145	9.51	392.531
6	179251	9.61	395.587
6	181357	9.71	398.643
6	183463	9.81	401.698
6	185569	9.91	404.754
6	187895	10.01	407.809
6	190013	10.11	410.865
6	192131	10.21	413.92
6	194249	10.31	416.976
6	196367	10.41	420.031
6	198485	10.51	423.087
6	200603	10.61	426.143
6	202721	10.71	429.198
6	204839	10.81	432.254
6	206957	10.91	435.309
6	209091	11.01	438.365
6	211209	11.11	441.42
6	213327	11.21	444.476
6	215445	11.31	447.532
6	217563	11.41	450.587
6	219681	11.51	453.643
6	221799	11.61	456.698
6	223917	11.71	459.754
6	226035	11.81	462.809
6	228153	11.91	465.865
6	230287	12.01	468.92
6	232405	12.11	471.976
6	234523	12.21	475.032
6	236641	12.31	478.087
6	238759	12.41	481.143
6	240877	12.51	484.198
6	242995	12.61	487.254
6	245113	12.71	490.309
6	247231	12.81	493.365
6	249349	12.91	496.42
6	251483	13.01	499.476
6	253601	13.11	502.532
6	255719	13.21	505.587
6	257837	13.31	508.643
7	113	1.11	242.45
7	2219	1.21	242.45
7	4325	1.31	242.45
7	6431	1.41	242.45
7	8537	1.51	242.45
7	10643	1.61	242.45
7	12749	1.71	242.45
7	14855	1.81	242.45
7	16961	1.91	242.45
7	19083	2.01	242.45
7	21189	2.11	242.45
7	23295	2.21	242.45
7	25401	2.31	242.45
7	27507	2.41	242.45
7	29613	2.51	242.45
7	31719	2.61	242.45
7	33825	2.71	242.45
7	35931	2.81	242.45
7	38037	2.91	242.45
7	40159	3.01	242.45
7	42265	3.11	242.45
7	44371	3.21	242.45
7	46477	3.31	242.45
7	48583	3.41	242.45
7	50689	3.51	242.45
7	52795	3.61	242.45
7	54901	3.71	242.45
7	57007	3.81	242.45
7	59113	3.91	242.45
7	61235	4.01	242.45
7	63341	4.11	242.45
7	65447	4.21	242.45
7	67553	4.31	242.45
7	69659	4.41	242.45
7	71765	4.51	242.45
7	73871	4.61	242.45
7	75977	4.71	242.45
7	78083	4.81	242.45
7	80189	4.91	242.45
7	82311	5.01	242.45
7	84417	5.11	242.45
7	86523	5.21	242.45
7	88629	5.31	242.45
7	90735	5.41	242.45
7	92841	5.51	242.45
7	94947	5.61	242.45
7	97053	5.71	242.45
7	99159	5.81	242.45
7	101265	5.91	242.45
7	103387	6.01	242.45
7	105493	6.11	242.45
7	107599	6.21	242.45
7	109705	6.31	242.45
7	111811	6.41	242.45
7	113917	6.51	242.45
7	116023	6.61	242.45
7	118129	6.71	242.45
7	120235	6.81	242.45
7	122341	6.91	242.45
7	124463	7.01	242.45
7	126569	7.11	242.45
7	128675	7.21	242.45
7	130781	7.31	242.45
7	132887	7.41	242.45
7	134993	7.51	242.45
7	137099	7.61	242.45
7	139205	7.71	242.45
7	141311	7.81	242.45
7	143417	7.91	242.45
7	145539	8.01	242.45
7	147645	8.11	242.45
7	149751	8.21	242.45
7	151857	8.31	242.45
7	153963	8.41	242.45
7	156069	8.51	242.45
7	158175	8.61	242.45
7	160281	8.71	242.45
7	162387	8.81	242.45
7	164493	8.91	242.45
7	166615	9.01	242.45
7	168721	9.11	242.45
7	170827	9.21	242.45
7	172933	9.31	242.45
7	175039	9.41	242.45
7	177145	9.51	242.45
7	179251	9.61	242.45
7	181357	9.71	242.45
7	183463	9.81	242.45
7	185569	9.91	242.45
7	187895	10.01	242.45
7	190013	10.11	242.45
7	192131	10.21	242.45
7	194249	10.31	242.45
7	196367	10.41	242.45
7	198485	10.51	242.45
7	200603	10.61	242.45
7	202721	10.71	242.45
7	204839	10.81	242.45
7	206957	10.91	242.45
7	209091	11.01	242.45
7	211209	11.11	242.45
7	213327	11.21	242.45
7	215445	11.31	242.45
7	217563	11.41	242.45
7	219681	11.51	242.45
7	221799	11.61	242.45
7	223917	11.71	242.45
7	226035	11.81	242.45
7	228153	11.91	242.45
7	230287	12.01	242.45
7	232405	12.11	242.45
7	234523	12.21	242.45
7	236641	12.31	242.45
7	238759	12.41	242.45
7	240877	12.51	242.45
7	242995	12.61	242.45
7	245113	12.71	242.45
7	247231	12.81	242.45
7	249349	12.91	242.45
7	251483	13.01	242.45
7	253601	13.11	242.45
7	255719	13.21	242.45
7	257837	13.31	242.45
8	114	1.11	2
8	2220	1.21	1.99999
8	4326	1.31	1.99997
8	6432	1.41	1.99995
8	8538	1.51	1.99992
8	10644	1.61	1.99988
8	12750	1.71	1.99984
8	14856	1.81	1.9998
8	16962	1.91	1.99976
8	19084	2.01	1.99972
8	21190	2.11	1.99968
8	23296	2.21	1.99964
8	25402	2.31	1.9996
8	27508	2.41	1.99957
8	29614	2.51	1.99953
8	31720	2.61	1.9995
8	33826	2.71	1.99947
8	35932	2.81	1.99944
8	38038	2.91	1.99942
8	40160	3.01	1.99939
8	42266	3.11	1.99937
8	44372	3.21	1.99935
8	46478	3.31	1.99933
8	48584	3.41	1.99932
8	50690	3.51	1.9993
8	52796	3.61	1.99929
8	54902	3.71	1.99928
8	57008	3.81	1.99927
8	59114	3.91	1.99926
8	61236	4.01	1.99926
8	63342	4.11	1.99925
8	65448	4.21	1.99925
8	67554	4.31	1.99924
8	69660	4.41	1.99924
8	71766	4.51	1.99924
8	73872	4.61	1.99924
8	75978	4.71	1.99924
8	78084	4.81	1.99924
8	80190	4.91	1.99924
8	82312	5.01	1.99924
8	84418	5.11	1.99924
8	86524	5.21	1.99924
8	88630	5.31	1.99924
8	90736	5.41	1.99925
8	92842	5.51	1.99925
8	94948	5.61	1.99925
8	97054	5.71	1.99925
8	99160	5.81	1.99926
8	101266	5.91	1.99926
8	103388	6.01	1.99926
8	105494	6.11	1.99927
8	107600	6.21	1.99927
8	109706	6.31	1.99928
8	111812	6.41	1.99928
8	113918	6.51	1.99928
8	116024	6.61	1.99929
8	118130	6.71	1.99929
8	120236	6.81	1.9993
8	122342	6.91	1.9993
8	124464	7.01	1.99931
8	126570	7.11	1.99931
8	128676	7.21	1.99932
8	130782	7.31	1.99932
8	132888	7.41	1.99933
8	134994	7.51	1.99933
8	137100	7.61	1.99934
8	139206	7.71	1.99934
8	141312	7.81	1.99935
8	143418	7.91	1.99935
8	145540	8.01	1.99936
8	147646	8.11	1.99936
8	149752	8.21	1.99937
8	151858	8.31	1.99938
8	153964	8.41	1.99938
8	156070	8.51	1.99939
8	158176	8.61	1.99939
8	160282	8.71	1.9994
8	162388	8.81	1.99941
8	164494	8.91	1.99941
8	166616	9.01	1.99942
8	168722	9.11	1.99942
8	170828	9.21	1.99943
8	172934	9.31	1.99944
8	175040	9.41	1.99944
8	177146	9.51	1.99945
8	179252	9.61	1.99946
8	181358	9.71	1.99946
8	183464	9.81	1.99947
8	185570	9.91	1.99947
8	187896	10.01	1.99948
8	190014	10.11	1.99975
8	192132	10.21	2.00134
8	194250	10.31	2.00531
8	196368	10.41	2.01249
8	198486	10.51	2.02354
8	200604	10.61	2.03898
8	202722	10.71	2.0592
8	204840	10.81	2.08449
8	206958	10.91	2.11504
8	209092	11.01	2.15097
8	211210	11.11	2.19234
8	213328	11.21	2.23916
8	215446	11.31	2.29139
8	217564	11.41	2.34895
8	219682	11.51	2.41174
8	221800	11.61	2.47964
8	223918	11.71	2.55251
8	226036	11.81	2.63018
8	228154	11.91	2.71248
8	230288	12.01	2.79923
8	232406	12.11	2.89026
8	234524	12.21	2.98536
8	236642	12.31	3.08435
8	238760	12.41	3.18704
8	240878	12.51	3.29324
8	242996	12.61	3.40276
8	245114	12.71	3.5154
8	247232	12.81	3.631
8	249350	12.91	3.74936
8	251484	13.01	3.87031
8	253602	13.11	3.99369
8	255720	13.21	4.11931
8	257838	13.31	4.24703
9	114	1.11	-3.68088e-05
9	2220	1.21	-0.000132721
9	4326	1.31	-0.000216591
9	6432	1.41	-0.000282172
9	8538	1.51	-0.000331797
9	10644	1.61	-0.0003677
9	12750	1.71	-0.000391564
9	14856	1.81	-0.000405119
9	16962	1.91	-0.00041042
9	19084	2.01	-0.000408825
9	21190	2.11	-0.000401462
9	23296	2.21	-0.0003894
9	25402	2.31	-0.000373928
9	27508	2.41	-0.000355699
9	29614	2.51	-0.000335644
9	31720	2.61	-0.000314499
9	33826	2.71	-0.000292753
9	35932	2.81	-0.000270686
9	38038	2.91	-0.000248514
9	40160	3.01	-0.000226818
9	42266	3.11	-0.000205899
9	44372	3.21	-0.000185564
9	46478	3.31	-0.000166423
9	48584	3.41	-0.000148452
9	50690	3.51	-0.000131454
9	52796	3.61	-0.000115274
9	54902	3.71	-0.000100231
9	57008	3.81	-8.64476e-05
9	59114	3.91	-7.35233e-05
9	61236	4.01	-6.1529e-05
9	63342	4.11	-5.05274e-05
9	65448	4.21	-4.05147e-05
9	67554	4.31	-3.14391e-05
9	69660	4.41	-2.32168e-05
9	71766	4.51	-1.57438e-05
9	73872	4.61	-8.9059e-06
9	75978	4.71	-2.58624e-06
9	78084	4.81	3.21459e-06
9	80190	4.91	8.08836e-06
9	82312	5.01	1.21837e-05
9	84418	5.11	1.56997e-05
9	86524	5.21	1.88055e-05
9	88630	5.31	2.16432e-05
9	90736	5.41	2.43294e-05
9	92842	5.51	2.69578e-05
9	94948	5.61	2.96018e-05
9	97054	5.71	3.2202e-05
9	99160	5.81	3.42824e-05
9	101266	5.91	3.59201e-05
9	103388	6.01	3.72428e-05
9	105494	6.11	3.83511e-05
9	107600	6.21	3.93235e-05
9	109706	6.31	4.02192e-05
9	111812	6.41	4.10822e-05
9	113918	6.51	4.19431e-05
9	116024	6.61	4.28224e-05
9	118130	6.71	4.37321e-05
9	120236	6.81	4.46776e-05
9	122342	6.91	4.56593e-05
9	124464	7.01	4.66735e-05
9	126570	7.11	4.77143e-05
9	128676	7.21	4.87736e-05
9	130782	7.31	4.98423e-05
9	132888	7.41	5.09108e-05
9	134994	7.51	5.19694e-05
9	137100	7.61	5.30088e-05
9	139206	7.71	5.40203e-05
9	141312	7.81	5.49957e-05
9	143418	7.91	5.5928e-05
9	145540	8.01	5.68109e-05
9	147646	8.11	5.76394e-05
9	149752	8.21	5.84092e-05
9	151858	8.31	5.91172e-05
9	153964	8.41	5.97609e-05
9	156070	8.51	6.03392e-05
9	158176	8.61	6.08511e-05
9	160282	8.71	6.1297e-05
9	162388	8.81	6.16773e-05
9	164494	8.91	6.19934e-05
9	166616	9.01	6.2247e-05
9	168722	9.11	6.244e-05
9	170828	9.21	6.2575e-05
9	172934	9.31	6.26545e-05
9	175040	9.41	6.26813e-05
9	177146	9.51	6.26584e-05
9	179252	9.61	6.25886e-05
9	181358	9.71	6.24752e-05
9	183464	9.81	6.23209e-05
9	185570	9.91	6.21289e-05
9	187896	10.01	6.1902e-05
9	190014	10.11	0.00738187
9	192132	10.21	0.0262604
9	194250	10.31	0.054484
9	196368	10.41	0.0901684
9	198486	10.51	0.131712
9	200604	10.61	0.177755
9	202722	10.71	0.227148
9	204840	10.81	0.278919
9	206958	10.91	0.332252
9	209092	11.01	0.386461
9	211210	11.11	0.440973
9	213328	11.21	0.495312
9	215446	11.31	0.549086
9	217564	11.41	0.601973
9	219682	11.51	0.65371
9	221800	11.61	0.704088
9	223918	11.71	0.75294
9	226036	11.81	0.800137
9	228154	11.91	0.845581
9	230288	12.01	0.889203
9	232406	12.11	0.930953
9	234524	12.21	0.970803
9	236642	12.31	1.00874
9	238760	12.41	1.04476
9	240878	12.51	1.07889
9	242996	12.61	1.11113
9	245114	12.71	1.14151
9	247232	12.81	1.17008
9	249350	12.91	1.19686
9	251484	13.01	1.22191
9	253602	13.11	1.24526
9	255720	13.21	1.26697
9	257838	13.31	1.28709
10	114	1.11	1
10	2220	1.21	1
10	4326	1.31	1
10	6432	1.41	1
10	8538	1.51	1
10	10644	1.61	1
10	12750	1.71	1
10	14856	1.81	1
10	16962	1.91	1
10	19084	2.01	1
10	21190	2.11	1
10	23296	2.21	1
10	25402	2.31	1
10	27508	2.41	1
10	29614	2.51	1
10	31720	2.61	1
10	33826	2.71	1
10	35932	2.81	1
10	38038	2.91	1
10	40160	3.01	1
10	42266	3.11	1
10	44372	3.21	1
10	46478	3.31	1
10	48584	3.41	1
10	50690	3.51	1
10	52796	3.61	1
10	54902	3.71	1
10	57008	3.81	1
10	59114	3.91	1
10	61236	4.01	1
10	63342	4.11	1
10	65448	4.21	1
10	67554	4.31	1
10	69660	4.41	1
10	71766	4.51	1
10	73872	4.61	1
10	75978	4.71	1
10	78084	4.81	1
10	80190	4.91	1
10	82312	5.01	1
10	84418	5.11	1
10	86524	5.21	1
10	88630	5.31	1
10	90736	5.41	1
10	92842	5.51	1
10	94948	5.61	1
10	97054	5.71	1
10	99160	5.81	1
10	101266	5.91	1
10	103388	6.01	1
10	105494	6.11	1
10	107600	6.21	1
10	109706	6.31	1
10	111812	6.41	1
10	113918	6.51	1
10	116024	6.61	1
10	118130	6.71	1
10	120236	6.81	1
10	122342	6.91	1
10	124464	7.01	1
10	126570	7.11	1
10	128676	7.21	1
10	130782	7.31	1
10	132888	7.41	1
10	134994	7.51	1
10	137100	7.61	1
10	139206	7.71	1
10	141312	7.81	1
10	143418	7.91	1
10	145540	8.01	1
10	147646	8.11	1
10	149752	8.21	1
10	151858	8.31	1
10	153964	8.41	1
10	156070	8.51	1
10	158176	8.61	1
10	160282	8.71	1
10	162388	8.81	1
10	164494	8.91	1
10	166616	9.01	1
10	168722	9.11	1
10	170828	9.21	1
10	172934	9.31	1
10	175040	9.41	1
10	177146	9.51	1
10	179252	9.61	1
10	181358	9.71	1
10	183464	9.81	1
10	185570	9.91	1
10	187896	10.01	1
10	190014	10.11	1
10	192132	10.21	1
10	194250	10.31	1
10	196368	10.41	1
10	198486	10.51	1
10	200604	10.61	1
10	202722	10.71	1
10	204840	10.81	1
10	206958	10.91	1
10	209092	11.01	1
10	211210	11.11	1
10	213328	11.21	1
10	215446	11.31	1
10	217564	11.41	1
10	219682	11.51	1
10	221800	11.61	1
10	223918	11.71	1
10	226036	11.81	1
10	228154	11.91	1
10	230288	12.01	1
10	232406	12.11	1
10	234524	12.21	1
10	236642	12.31	1
10	238760	12.41	1
10	240878	12.51	1
10	242996	12.61	1
10	245114	12.71	1
10	247232	12.81	1
10	249350	12.91	1
10	251484	13.01	1
10	253602	13.11	1
10	255720	13.21	1
10	257838	13.31	1
11	114	1.11	0
11	2220	1.21	-0.00041283
11	4326	1.31	-0.00111623
11	6432	1.41	-0.00166973
11	8538	1.51	-0.00209121
11	10644	1.61	-0.00239878
11	12750	1.71	-0.00260965
11	14856	1.81	-0.00273308
11	16962	1.91	-0.00278278
11	19084	2.01	-0.00277477
11	21190	2.11	-0.00272013
11	23296	2.21	-0.0026253
11	25402	2.31	-0.00250058
11	27508	2.41	-0.00235439
11	29614	2.51	-0.00219105
11	31720	2.61	-0.00201789
11	33826	2.71	-0.00184111
11	35932	2.81	-0.00166587
11	38038	2.91	-0.00149261
11	40160	3.01	-0.00132194
11	42266	3.11	-0.00116142
11	44372	3.21	-0.00100915
11	46478	3.31	-0.000864388
11	48584	3.41	-0.000732745
11	50690	3.51	-0.000615126
11	52796	3.61	-0.00050819
11	54902	3.71	-0.000409267
11	57008	3.81	-0.000323089
11	59114	3.91	-0.000249121
11	61236	4.01	-0.000183589
11	63342	4.11	-0.000126572
11	65448	4.21	-7.79062e-05
11	67554	4.31	-3.7242e-05
11	69660	4.41	-4.09537e-06
11	71766	4.51	2.21125e-05
11	73872	4.61	4.20207e-05
11	75978	4.71	5.63e-05
11	78084	4.81	6.93996e-05
11	80190	4.91	8.093e-05
11	82312	5.01	8.75898e-05
11	84418	5.11	9.01752e-05
11	86524	5.21	8.94149e-05
11	88630	5.31	8.59684e-05
11	90736	5.41	8.04261e-05
11	92842	5.51	7.33104e-05
11	94948	5.61	6.50787e-05
11	97054	5.71	5.98956e-05
11	99160	5.81	5.70382e-05
11	101266	5.91	5.28412e-05
11	103388	6.01	4.77215e-05
11	105494	6.11	4.20252e-05
11	107600	6.21	3.60359e-05
11	109706	6.31	2.99821e-05
11	111812	6.41	2.40439e-05
11	113918	6.51	1.83604e-05
11	116024	6.61	1.30347e-05
11	118130	6.71	8.13946e-06
11	120236	6.81	3.72217e-06
11	122342	6.91	-1.91051e-07
11	124464	7.01	-3.59133e-06
11	126570	7.11	-6.48372e-06
11	128676	7.21	-8.88422e-06
11	130782	7.31	-1.08172e-05
11	132888	7.41	-1.23131e-05
11	134994	7.51	-1.34066e-05
11	137100	7.61	-1.4135e-05
11	139206	7.71	-1.4537e-05
11	141312	7.81	-1.46514e-05
11	143418	7.91	-1.45163e-05
11	145540	8.01	-1.41685e-05
11	147646	8.11	-1.36428e-05
11	149752	8.21	-1.2972e-05
11	151858	8.31	-1.21862e-05
11	153964	8.41	-1.13126e-05
11	156070	8.51	-1.0376e-05
11	158176	8.61	-9.39825e-06
11	160282	8.71	-8.39854e-06
11	162388	8.81	-7.39341e-06
11	164494	8.91	-6.39695e-06
11	166616	9.01	-5.42094e-06
11	168722	9.11	-4.475e-06
11	170828	9.21	-3.56679e-06
11	172934	9.31	-2.70221e-06
11	175040	9.41	-1.88558e-06
11	177146	9.51	-1.11983e-06
11	179252	9.61	-4.06684e-07
11	181358	9.71	2.53193e-07
11	183464	9.81	8.59994e-07
11	185570	9.91	1.41466e-06
11	187896	10.01	1.9187e-06
11	190014	10.11	-0.129178
11	192132	10.21	-0.234216
11	194250	10.31	-0.318684
11	196368	10.41	-0.385649
11	198486	10.51	-0.437751
11	200604	10.61	-0.477254
11	202722	10.71	-0.506107
11	204840	10.81	-0.52598
11	206958	10.91	-0.538306
11	209092	11.01	-0.544315
11	211210	11.11	-0.545059
11	213328	11.21	-0.54144
11	215446	11.31	-0.534228
11	217564	11.41	-0.524082
11	219682	11.51	-0.511565
11	221800	11.61	-0.497154
11	223918	11.71	-0.481258
11	226036	11.81	-0.464222
11	228154	11.91	-0.446339
11	230288	12.01	-0.427858
11	232406	12.11	-0.408987
11	234524	12.21	-0.389901
11	236642	12.31	-0.370748
11	238760	12.41	-0.351651
11	240878	12.51	-0.332709
11	242996	12.61	-0.314007
11	245114	12.71	-0.295613
11	247232	12.81	-0.277581
11	249350	12.91	-0.259957
11	251484	13.01	-0.242772
11	253602	13.11	-0.226055
11	255720	13.21	-0.209824
11	257838	13.31	-0.194093
12	114	1.11	0
12	2220	1.21	-0.00438568
12	4326	1.31	-0.00427522
12	6432	1.41	-0.00412568
12	8538	1.51	-0.00391546
12	10644	1.61	-0.00370081
12	12750	1.71	-0.00345564
12	14856	1.81	-0.00315201
12	16962	1.91	-0.00288025
12	19084	2.01	-0.0026089
12	21190	2.11	-0.00234483
12	23296	2.21	-0.00205358
12	25402	2.31	-0.00181962
12	27508	2.41	-0.00156609
12	29614	2.51	-0.00133535
12	31720	2.61	-0.00112891
12	33826	2.71	-0.000947508
12	35932	2.81	-0.000791269
12	38038	2.91	-0.000619803
12	40160	3.01	-0.000472514
12	42266	3.11	-0.000388441
12	44372	3.21	-0.000246175
12	46478	3.31	-0.000164484
12	48584	3.41	-0.000101815
12	50690	3.51	-5.64746e-05
12	52796	3.61	1.32447e-05
12	54902	3.71	6.88391e-05
12	57008	3.81	7.18059e-05
12	59114	3.91	0.000103811
12	61236	4.01	0.000126265
12	63342	4.11	0.000140471
12	65448	4.21	0.000147667
12	67554	4.31	0.000149002
12	69660	4.41	0.000145537
12	71766	4.51	0.000138235
12	73872	4.61	0.000127965
12	75978	4.71	0.000115494
12	78084	4.81	0.000141466
12	80190	4.91	0.000126255
12	82312	5.01	0.00011036
12	84418	5.11	9.42443e-05
12	86524	5.21	7.82892e-05
12	88630	5.31	6.28037e-05
12	90736	5.41	4.80325e-05
12	92842	5.51	3.41612e-05
12	94948	5.61	2.13248e-05
12	97054	5.71	4.95832e-05
12	99160	5.81	3.87774e-05
12	101266	5.91	2.89304e-05
12	103388	6.01	2.00803e-05
12	105494	6.11	1.22369e-05
12	107600	6.21	5.38698e-06
12	109706	6.31	-5.00798e-07
12	111812	6.41	-5.47162e-06
12	113918	6.51	-9.58126e-06
12	116024	6.61	-1.28927e-05
12	118130	6.71	-1.54737e-05
12	120236	6.81	-1.73942e-05
12	122342	6.91	-1.87248e-05
12	124464	7.01	-1.95352e-05
12	126570	7.11	-1.9893e-05
12	128676	7.21	-1.98626e-05
12	130782	7.31	-1.95045e-05
12	132888	7.41	-1.88753e-05
12	134994	7.51	-1.80266e-05
12	137100	7.61	-1.70056e-05
12	139206	7.71	-1.58544e-05
12	141312	7.81	-1.46106e-05
12	143418	7.91	-1.3307e-05
12	145540	8.01	-1.19722e-05
12	147646	8.11	-1.06303e-05
12	149752	8.21	-9.30198e-06
12	151858	8.31	-8.00392e-06
12	153964	8.41	-6.74978e-06
12	156070	8.51	-5.5502e-06
12	158176	8.61	-4.41319e-06
12	160282	8.71	-3.34449e-06
12	162388	8.81	-2.34777e-06
12	164494	8.91	-1.425e-06
12	166616	9.01	-5.76672e-07
12	168722	9.11	1.97972e-07
12	170828	9.21	9.00674e-07
12	172934	9.31	1.53399e-06
12	175040	9.41	2.1011e-06
12	177146	9.51	2.60565e-06
12	179252	9.61	3.05159e-06
12	181358	9.71	3.4431e-06
12	183464	9.81	3.78444e-06
12	185570	9.91	4.07988e-06
12	187896	10.01	4.33364e-06
12	190014	10.11	-0.717576
12	192132	10.21	-0.710389
12	194250	10.31	-0.699289
12	196368	10.41	-0.68501
12	198486	10.51	-0.668176
12	200604	10.61	-0.649317
12	202722	10.71	-0.628886
12	204840	10.81	-0.607266
12	206958	10.91	-0.584782
12	209092	11.01	-0.561707
12	211210	11.11	-0.538272
12	213328	11.21	-0.514671
12	215446	11.31	-0.491065
12	217564	11.41	-0.467589
12	219682	11.51	-0.444353
12	221800	11.61	-0.421448
12	223918	11.71	-0.398949
12	226036	11.81	-0.376914
12	228154	11.91	-0.355391
12	230288	12.01	-0.334416
12	232406	12.11	-0.314016
12	234524	12.21	-0.294211
12	236642	12.31	-0.275016
12	238760	12.41	-0.256437
12	240878	12.51	-0.238478
12	242996	12.61	-0.221139
12	245114	12.71	-0.204418
12	247232	12.81	-0.188307
12	249350	12.91	-0.172798
12	251484	13.01	-0.157883
12	253602	13.11	-0.143549
12	255720	13.21	-0.129784
12	257838	13.31	-0.116576
13	114	1.11	30.56
13	2220	1.21	30.56
13	4326	1.31	30.5599
13	6432	1.41	30.5598
13	8538	1.51	30.5596
13	10644	1.61	30.5593
13	12750	1.71	30.5591
13	14856	1.81	30.5588
13	16962	1.91	30.5585
13	19084	2.01	30.5583
13	21190	2.11	30.558
13	23296	2.21	30.5577
13	25402	2.31	30.5575
13	27508	2.41	30.5572
13	29614	2.51	30.557
13	31720	2.61	30.5568
13	33826	2.71	30.5566
13	35932	2.81	30.5564
13	38038	2.91	30.5563
13	40160	3.01	30.5561
13	42266	3.11	30.556
13	44372	3.21	30.5559
13	46478	3.31	30.5558
13	48584	3.41	30.5557
13	50690	3.51	30.5557
13	52796	3.61	30.5556
13	54902	3.71	30.5556
13	57008	3.81	30.5555
13	59114	3.91	30.5555
13	61236	4.01	30.5555
13	63342	4.11	30.5555
13	65448	4.21	30.5554
13	67554	4.31	30.5554
13	69660	4.41	30.5554
13	71766	4.51	30.5554
13	73872	4.61	30.5554
13	75978	4.71	30.5554
13	78084	4.81	30.5555
13	80190	4.91	30.5555
13	82312	5.01	30.5555
13	84418	5.11	30.5555
13	86524	5.21	30.5555
13	88630	5.31	30.5555
13	90736	5.41	30.5555
13	92842	5.51	30.5555
13	94948	5.61	30.5555
13	97054	5.71	30.5555
13	99160	5.81	30.5555
13	101266	5.91	30.5555
13	103388	6.01	30.5555
13	105494	6.11	30.5555
13	107600	6.21	30.5556
13	109706	6.31	30.5556
13	111812	6.41	30.5556
13	113918	6.51	30.5556
13	116024	6.61	30.5556
13	118130	6.71	30.5556
13	120236	6.81	30.5556
13	122342	6.91	30.5556
13	124464	7.01	30.5556
13	126570	7.11	30.5556
13	128676	7.21	30.5556
13	130782	7.31	30.5556
13	132888	7.41	30.5556
13	134994	7.51	30.5556
13	137100	7.61	30.5556
13	139206	7.71	30.5556
13	141312	7.81	30.5556
13	143418	7.91	30.5556
13	145540	8.01	30.5555
13	147646	8.11	30.5555
13	149752	8.21	30.5555
13	151858	8.31	30.5555
13	153964	8.41	30.5555
13	156070	8.51	30.5555
13	158176	8.61	30.5555
13	160282	8.71	30.5555
13	162388	8.81	30.5555
13	164494	8.91	30.5555
13	166616	9.01	30.5555
13	168722	9.11	30.5555
13	170828	9.21	30.5555
13	172934	9.31	30.5555
13	175040	9.41	30.5555
13	177146	9.51	30.5555
13	179252	9.61	30.5555
13	181358	9.71	30.5555
13	183464	9.81	30.5555
13	185570	9.91	30.5555
13	187896	10.01	30.5555
13	190014	10.11	30.5482
13	192132	10.21	30.5293
13	194250	10.31	30.5011
13	196368	10.41	30.4654
13	198486	10.51	30.4239
13	200604	10.61	30.3778
13	202722	10.71	30.3285
13	204840	10.81	30.2767
13	206958	10.91	30.2233
13	209092	11.01	30.1691
13	211210	11.11	30.1146
13	213328	11.21	30.0603
13	215446	11.31	30.0065
13	217564	11.41	29.9536
13	219682	11.51	29.9019
13	221800	11.61	29.8515
13	223918	11.71	29.8027
13	226036	11.81	29.7555
13	228154	11.91	29.71
13	230288	12.01	29.6664
13	232406	12.11	29.6246
13	234524	12.21	29.5848
13	236642	12.31	29.5469
13	238760	12.41	29.5108
13	240878	12.51	29.4767
13	242996	12.61	29.4445
13	245114	12.71	29.4141
13	247232	12.81	29.3855
13	249350	12.91	29.3587
13	251484	13.01	29.3337
13	253602	13.11	29.3103
13	255720	13.21	29.2886
13	257838	13.31	29.2685
14	114	1.11	129.86
14	2220	1.21	132.916
14	4326	1.31	135.972
14	6432	1.41	139.028
14	8538	1.51	142.084
14	10644	1.61	145.14
14	12750	1.71	148.196
14	14856	1.81	151.252
14	16962	1.91	154.308
14	19084	2.01	157.364
14	21190	2.11	160.42
14	23296	2.21	163.475
14	25402	2.31	166.531
14	27508	2.41	169.587
14	29614	2.51	172.643
14	31720	2.61	175.698
14	33826	2.71	178.754
14	35932	2.81	181.81
14	38038	2.91	184.865
14	40160	3.01	187.921
14	42266	3.11	190.976
14	44372	3.21	194.032
14	46478	3.31	197.088
14	48584	3.41	200.143
14	50690	3.51	203.199
14	52796	3.61	206.254
14	54902	3.71	209.31
14	57008	3.81	212.365
14	59114	3.91	215.421
14	61236	4.01	218.477
14	63342	4.11	221.532
14	65448	4.21	224.588
14	67554	4.31	227.643
14	69660	4.41	230.699
14	71766	4.51	233.754
14	73872	4.61	236.81
14	75978	4.71	239.865
14	78084	4.81	242.921
14	80190	4.91	245.976
14	82312	5.01	249.032
14	84418	5.11	252.088
14	86524	5.21	255.143
14	88630	5.31	258.199
14	90736	5.41	261.254
14	92842	5.51	264.31
14	94948	5.61	267.365
14	97054	5.71	270.421
14	99160	5.81	273.476
14	101266	5.91	276.532
14	103388	6.01	279.588
14	105494	6.11	282.643
14	107600	6.21	285.699
14	109706	6.31	288.754
14	111812	6.41	291.81
14	113918	6.51	294.865
14	116024	6.61	297.921
14	118130	6.71	300.976
14	120236	6.81	304.032
14	122342	6.91	307.088
14	124464	7.01	310.143
14	126570	7.11	313.199
14	128676	7.21	316.254
14	130782	7.31	319.31
14	132888	7.41	322.365
14	134994	7.51	325.421
14	137100	7.61	328.476
14	139206	7.71	331.532
14	141312	7.81	334.588
14	143418	7.91	337.643
14	145540	8.01	340.699
14	147646	8.11	343.754
14	149752	8.21	346.81
14	151858	8.31	349.865
14	153964	8.41	352.921
14	156070	8.51	355.976
14	158176	8.61	359.032
14	160282	8.71	362.088
14	162388	8.81	365.143
14	164494	8.91	368.199
14	166616	9.01	371.254
14	168722	9.11	374.31
14	170828	9.21	377.365
14	172934	9.31	380.421
14	175040	9.41	383.476
14	177146	9.51	386.532
14	179252	9.61	389.588
14	181358	9.71	392.643
14	183464	9.81	395.699
14	185570	9.91	398.754
14	187896	10.01	401.81
14	190014	10.11	404.865
14	192132	10.21	407.919
14	194250	10.31	410.971
14	196368	10.41	414.019
14	198486	10.51	417.063
14	200604	10.61	420.104
14	202722	10.71	423.139
14	204840	10.81	426.169
14	206958	10.91	429.194
14	209092	11.01	432.214
14	211210	11.11	435.228
14	213328	11.21	438.237
14	215446	11.31	441.24
14	217564	11.41	444.238
14	219682	11.51	447.231
14	221800	11.61	450.219
14	223918	11.71	453.201
14	226036	11.81	456.179
14	228154	11.91	459.152
14	230288	12.01	462.121
14	232406	12.11	465.086
14	234524	12.21	468.046
14	236642	12.31	471.003
14	238760	12.41	473.956
14	240878	12.51	476.905
14	242996	12.61	479.851
14	245114	12.71	482.794
14	247232	12.81	485.734
14	249350	12.91	488.671
14	251484	13.01	491.606
14	253602	13.11	494.538
14	255720	13.21	497.468
14	257838	13.31	500.396
15	114	1.11	242.45
15	2220	1.21	242.45
15	4326	1.31	242.45
15	6432	1.41	242.45
15	8538	1.51	242.45
15	10644	1.61	242.45
15	12750	1.71	242.45
15	14856	1.81	242.45
15	16962	1.91	242.45
15	19084	2.01	242.45
15	21190	2.11	242.45
15	23296	2.21	242.45
15	25402	2.31	242.45
15	27508	2.41	242.45
15	29614	2.51	242.45
15	31720	2.61	242.45
15	33826	2.71	242.45
15	35932	2.81	242.45
15	38038	2.91	242.45
15	40160	3.01	242.45
15	42266	3.11	242.45
15	44372	3.21	242.45
15	46478	3.31	242.45
15	48584	3.41	242.45
15	50690	3.51	242.45
15	52796	3.61	242.45
15	54902	3.71	242.45
15	57008	3.81	242.45
15	59114	3.91	242.45
15	61236	4.01	242.45
15	63342	4.11	242.45
15	65448	4.21	242.45
15	67554	4.31	242.45
15	69660	4.41	242.45
15	71766	4.51	242.45
15	73872	4.61	242.45
15	75978	4.71	242.45
15	78084	4.81	242.45
15	80190	4.91	242.45
15	82312	5.01	242.45
15	84418	5.11	242.45
15	86524	5.21	242.45
15	88630	5.31	242.45
15	90736	5.41	242.45
15	92842	5.51	242.45
15	94948	5.61	242.45
15	97054	5.71	242.45
15	99160	5.81	242.45
15	101266	5.91	242.45
15	103388	6.01	242.45
15	105494	6.11	242.45
15	107600	6.21	242.45
15	109706	6.31	242.45
15	111812	6.41	242.45
15	113918	6.51	242.45
15	116024	6.61	242.45
15	118130	6.71	242.45
15	120236	6.81	242.45
15	122342	6.91	242.45
15	124464	7.01	242.45
15	126570	7.11	242.45
15	128676	7.21	242.45
15	130782	7.31	242.45
15	132888	7.41	242.45
15	134994	7.51	242.45
15	137100	7.61	242.45
15	139206	7.71	242.45
15	141312	7.81	242.45
15	143418	7.91	242.45
15	145540	8.01	242.45
15	147646	8.11	242.45
15	149752	8.21	242.45
15	151858	8.31	242.45
15	153964	8.41	242.45
15	156070	8.51	242.45
15	158176	8.61	242.45
15	160282	8.71	242.45
15	162388	8.81	242.45
15	164494	8.91	242.45
15	166616	9.01	242.45
15	168722	9.11	242.45
15	170828	9.21	242.45
15	172934	9.31	242.45
15	175040	9.41	242.45
15	177146	9.51	242.45
15	179252	9.61	242.45
15	181358	9.71	242.45
15	183464	9.81	242.45
15	185570	9.91	242.45
15	187896	10.01	242.45
15	190014	10.11	242.45
15	192132	10.21	242.45
15	194250	10.31	242.45
15	196368	10.41	242.45
15	198486	10.51	242.45
15	200604	10.61	242.45
15	202722	10.71	242.45
15	204840	10.81	242.45
15	206958	10.91	242.45
15	209092	11.01	242.45
15	211210	11.11	242.45
15	213328	11.21	242.45
15	215446	11.31	242.45
15	217564	11.41	242.45
15	219682	11.51	242.45
15	221800	11.61	242.45
15	223918	11.71	242.45
15	226036	11.81	242.45
15	228154	11.91	242.45
15	230288	12.01	242.45
15	232406	12.11	242.45
15	234524	12.21	242.45
15	236642	12.31	242.45
15	238760	12.41	242.45
15	240878	12.51	242.45
15	242996	12.61	242.45
15	245114	12.71	242.45
15	247232	12.81	242.45
15	249350	12.91	242.45
15	251484	13.01	242.45
15	253602	13.11	242.45
15	255720	13.21	242.45
15	257838	13.31	242.45
16	115	1.11	2
16	2221	1.21	2
16	4327	1.31	1.99995
16	6433	1.41	1.99984
16	8539	1.51	1.99967
16	10645	1.61	1.99947
16	12751	1.71	1.99922
16	14857	1.81	1.99896
16	16963	1.91	1.99868
16	19085	2.01	1.99839
16	21191	2.11	1.99809
16	23297	2.21	1.9978
16	25403	2.31	1.9975
16	27509	2.41	1.99722
16	29615	2.51	1.99694
16	31721	2.61	1.99667
16	33827	2.71	1.99642
16	35933	2.81	1.99617
16	38039	2.91	1.99594
16	40161	3.01	1.99572
16	42267	3.11	1.99551
16	44373	3.21	1.99531
16	46479	3.31	1.99513
16	48585	3.41	1.99495
16	50691	3.51	1.99479
16	52797	3.61	1.99463
16	54903	3.71	1.99449
16	57009	3.81	1.99435
16	59115	3.91	1.99421
16	61237	4.01	1.99409
16	63343	4.11	1.99396
16	65449	4.21	1.99385
16	67555	4.31	1.99373
16	69661	4.41	1.99362
16	71767	4.51	1.99351
16	73873	4.61	1.99341
16	75979	4.71	1.9933
16	78085	4.81	1.9932
16	80191	4.91	1.9931
16	82313	5.01	1.993
16	84419	5.11	1.99289
16	86525	5.21	1.99279
16	88631	5.31	1.99269
16	90737	5.41	1.99259
16	92843	5.51	1.99249
16	94949	5.61	1.99239
16	97055	5.71	1.99229
16	99161	5.81	1.99219
16	101267	5.91	1.99209
16	103389	6.01	1.99199
16	105495	6.11	1.9919
16	107601	6.21	1.9918
16	109707	6.31	1.9917
16	111813	6.41	1.9916
16	113919	6.51	1.99151
16	116025	6.61	1.99141
16	118131	6.71	1.99132
16	120237	6.81	1.99123
16	122343	6.91	1.99114
16	124465	7.01	1.99105
16	126571	7.11	1.99096
16	128677	7.21	1.99087
16	130783	7.31	1.99079
16	132889	7.41	1.99071
16	134995	7.51	1.99063
16	137101	7.61	1.99055
16	139207	7.71	1.99047
16	141313	7.81	1.9904
16	143419	7.91	1.99033
16	145541	8.01	1.99026
16	147647	8.11	1.99019
16	149753	8.21	1.99013
16	151859	8.31	1.99007
16	153965	8.41	1.99001
16	156071	8.51	1.98995
16	158177	8.61	1.9899
16	160283	8.71	1.98985
16	162389	8.81	1.9898
16	164495	8.91	1.98975
16	166617	9.01	1.98971
16	168723	9.11	1.98967
16	170829	9.21	1.98963
16	172935	9.31	1.9896
16	175041	9.41	1.98957
16	177147	9.51	1.98954
16	179253	9.61	1.98951
16	181359	9.71	1.98948
16	183465	9.81	1.98946
16	185571	9.91	1.98944
16	187897	10.01	1.98942
16	190015	10.11	1.98946
16	192133	10.21	1.98989
16	194251	10.31	1.99112
16	196369	10.41	1.99346
16	198487	10.51	1.99719
16	200605	10.61	2.0025
16	202723	10.71	2.00956
16	204841	10.81	2.0185
16	206959	10.91	2.02942
16	209093	11.01	2.0424
16	211211	11.11	2.05748
16	213329	11.21	2.0747
16	215447	11.31	2.09408
16	217565	11.41	2.11563
16	219683	11.51	2.13934
16	221801	11.61	2.16521
16	223919	11.71	2.19321
16	226037	11.81	2.22333
16	228155	11.91	2.25553
16	230289	12.01	2.28979
16	232407	12.11	2.32606
16	234525	12.21	2.36432
16	236643	12.31	2.40451
16	238761	12.41	2.44659
16	240879	12.51	2.49054
16	242997	12.61	2.53628
16	245115	12.71	2.58379
16	247233	12.81	2.63302
16	249351	12.91	2.68392
16	251485	13.01	2.73643
16	253603	13.11	2.79052
16	255721	13.21	2.84614
16	257839	13.31	2.90323
17	115	1.11	0
17	2221	1.21	-9.65752e-05
17	4327	1.31	-0.000816233
17	6433	1.41	-0.00141582
17	8539	1.51	-0.00189408
17	10645	1.61	-0.00226547
17	12751	1.71	-0.00254383
17	14857	1.81	-0.00274171
17	16963	1.91	-0.00287094
17	19085	2.01	-0.00294202
17	21191	2.11	-0.00296467
17	23297	2.21	-0.0029476
17	25403	2.31	-0.00289858
17	27509	2.41	-0.00282462
17	29615	2.51	-0.00273146
17	31721	2.61	-0.00262455
17	33827	2.71	-0.00250862
17	35933	2.81	-0.00238731
17	38039	2.91	-0.00226383
17	40161	3.01	-0.00214107
17	42267	3.11	-0.00202149
17	44373	3.21	-0.00190654
17	46479	3.31	-0.00179734
17	48585	3.41	-0.00169495
17	50691	3.51	-0.00160013
17	52797	3.61	-0.00151328
17	54903	3.71	-0.00143468
17	57009	3.81	-0.0013643
17	59115	3.91	-0.00130162
17	61237	4.01	-0.00124657
17	63343	4.11	-0.00119886
17	65449	4.21	-0.00115805
17	67555	4.31	-0.00112366
17	69661	4.41	-0.00109494
17	71767	4.51	-0.00107138
17	73873	4.61	-0.00105233
17	75979	4.71	-0.0010376
17	78085	4.81	-0.00102631
17	80191	4.91	-0.00101783
17	82313	5.01	-0.00101192
17	84419	5.11	-0.00100788
17	86525	5.21	-0.00100523
17	88631	5.31	-0.00100329
17	90737	5.41	-0.00100196
17	92843	5.51	-0.00100069
17	94949	5.61	-0.000999306
17	97055	5.71	-0.000997674
17	99161	5.81	-0.000995599
17	101267	5.91	-0.000993011
17	103389	6.01	-0.000989313
17	105495	6.11	-0.000984575
17	107601	6.21	-0.000978536
17	109707	6.31	-0.000971303
17	111813	6.41	-0.000962763
17	113919	6.51	-0.000953343
17	116025	6.61	-0.000942523
17	118131	6.71	-0.000930274
17	120237	6.81	-0.000916941
17	122343	6.91	-0.000902258
17	124465	7.01	-0.000886336
17	126571	7.11	-0.000869373
17	128677	7.21	-0.00085143
17	130783	7.31	-0.000832515
17	132889	7.41	-0.000812533
17	134995	7.51	-0.00079186
17	137101	7.61	-0.000770234
17	139207	7.71	-0.000747736
17	141313	7.81	-0.000724509
17	143419	7.91	-0.000700497
17	145541	8.01	-0.00067576
17	147647	8.11	-0.000650808
17	149753	8.21	-0.000625486
17	151859	8.31	-0.000599592
17	153965	8.41	-0.000573382
17	156071	8.51	-0.000547154
17	158177	8.61	-0.00052053
17	160283	8.71	-0.00049382
17	162389	8.81	-0.000467344
17	164495	8.91	-0.000441075
17	166617	9.01	-0.000415027
17	168723	9.11	-0.000389247
17	170829	9.21	-0.00036361
17	172935	9.31	-0.000337951
17	175041	9.41	-0.000312522
17	177147	9.51	-0.000287096
17	179253	9.61	-0.000261976
17	181359	9.71	-0.000236982
17	183465	9.81	-0.00021249
17	185571	9.91	-0.000188396
17	187897	10.01	-0.000164633
17	190015	10.11	0.00161353
17	192133	10.21	0.00770605
17	194251	10.31	0.0173726
17	196369	10.41	0.0299412
17	198487	10.51	0.0448451
17	200605	10.61	0.0616082
17	202723	10.71	0.0798322
17	204841	10.81	0.0991849
17	206959	10.91	0.119389
17	209093	11.01	0.140214
17	211211	11.11	0.161466
17	213329	11.21	0.182986
17	215447	11.31	0.204641
17	217565	11.41	0.22632
17	219683	11.51	0.247932
17	221801	11.61	0.269399
17	223919	11.71	0.290658
17	226037	11.81	0.311657
17	228155	11.91	0.332352
17	230289	12.01	0.352708
17	232407	12.11	0.372695
17	234525	12.21	0.392287
17	236643	12.31	0.411466
17	238761	12.41	0.430216
17	240879	12.51	0.448523
17	242997	12.61	0.466376
17	245115	12.71	0.483767
17	247233	12.81	0.500691
17	249351	12.91	0.517142
17	251485	13.01	0.533117
17	253603	13.11	0.548614
17	255721	13.21	0.563632
17	257839	13.31	0.578047
18	115	1.11	10
18	2221	1.21	10
18	4327	1.31	10
18	6433	1.41	10
18	8539	1.51	10
18	10645	1.61	10
18	12751	1.71	10
18	14857	1.81	10
18	16963	1.91	10
18	19085	2.01	10
18	21191	2.11	10
18	23297	2.21	10
18	25403	2.31	10
18	27509	2.41	10
18	29615	2.51	10
18	31721	2.61	10
18	33827	2.71	10
18	35933	2.81	10
18	38039	2.91	10
18	40161	3.01	10
18	42267	3.11	10
18	44373	3.21	10
18	46479	3.31	10
18	48585	3.41	10
18	50691	3.51	10
18	52797	3.61	10
18	54903	3.71	10
18	57009	3.81	10
18	59115	3.91	10
18	61237	4.01	10
18	63343	4.11	10
18	65449	4.21	10
18	67555	4.31	10
18	69661	4.41	10
18	71767	4.51	10
18	73873	4.61	10
18	75979	4.71	10
18	78085	4.81	10
18	80191	4.91	10
18	82313	5.01	10
18	84419	5.11	10
18	86525	5.21	10
18	88631	5.31	10
18	90737	5.41	10
18	92843	5.51	10
18	94949	5.61	10
18	97055	5.71	10
18	99161	5.81	10
18	101267	5.91	10
18	103389	6.01	10
18	105495	6.11	10
18	107601	6.21	10
18	109707	6.31	10
18	111813	6.41	10
18	113919	6.51	10
18	116025	6.61	10
18	118131	6.71	10
18	120237	6.81	10
18	122343	6.91	10
18	124465	7.01	10
18	126571	7.11	10
18	128677	7.21	10
18	130783	7.31	10
18	132889	7.41	10
18	134995	7.51	10
18	137101	7.61	10
18	139207	7.71	10
18	141313	7.81	10
18	143419	7.91	10
18	145541	8.01	10
18	147647	8.11	10
18	149753	8.21	10
18	151859	8.31	10
18	153965	8.41	10
18	156071	8.51	10
18	158177	8.61	10
18	160283	8.71	10
18	162389	8.81	10
18	164495	8.91	10
18	166617	9.01	10
18	168723	9.11	10
18	170829	9.21	10
18	172935	9.31	10
18	175041	9.41	10
18	177147	9.51	10
18	179253	9.61	10
18	181359	9.71	10
18	183465	9.81	10
18	185571	9.91	10
18	187897	10.01	10
18	190015	10.11	10
18	192133	10.21	10
18	194251	10.31	10
18	196369	10.41	10
18	198487	10.51	10
18	200605	10.61	10
18	202723	10.71	10
18	204841	10.81	10
18	206959	10.91	10
18	209093	11.01	10
18	211211	11.11	10
18	213329	11.21	10
18	215447	11.31	10
18	217565	11.41	10
18	219683	11.51	10
18	221801	11.61	10
18	223919	11.71	10
18	226037	11.81	10
18	228155	11.91	10
18	230289	12.01	10
18	232407	12.11	10
18	234525	12.21	10
18	236643	12.31	10
18	238761	12.41	10
18	240879	12.51	10
18	242997	12.61	10
18	245115	12.71	10
18	247233	12.81	10
18	249351	12.91	10
18	251485	13.01	10
18	253603	13.11	10
18	255721	13.21	10
18	257839	13.31	10
19	115	1.11	0
19	2221	1.21	-0.00474239
19	4327	1.31	-0.0307317
19	6433	1.41	-0.0541526
19	8539	1.51	-0.0723468
19	10645	1.61	-0.0859694
19	12751	1.71	-0.0956286
19	14857	1.81	-0.101879
19	16963	1.91	-0.10523
19	19085	2.01	-0.106145
19	21191	2.11	-0.105046
19	23297	2.21	-0.102302
19	25403	2.31	-0.0982437
19	27509	2.41	-0.0931702
19	29615	2.51	-0.0873351
19	31721	2.61	-0.0809578
19	33827	2.71	-0.0742361
19	35933	2.81	-0.0673337
19	38039	2.91	-0.0603881
19	40161	3.01	-0.0535088
19	42267	3.11	-0.0467922
19	44373	3.21	-0.0403156
19	46479	3.31	-0.0341365
19	48585	3.41	-0.028294
19	50691	3.51	-0.0228212
19	52797	3.61	-0.0177373
19	54903	3.71	-0.013053
19	57009	3.81	-0.0087754
19	59115	3.91	-0.00489452
19	61237	4.01	-0.00140278
19	63343	4.11	0.0017094
19	65449	4.21	0.00446308
19	67555	4.31	0.00687649
19	69661	4.41	0.00896674
19	71767	4.51	0.010757
19	73873	4.61	0.0122766
19	75979	4.71	0.0135413
19	78085	4.81	0.0145756
19	80191	4.91	0.0154066
19	82313	5.01	0.0160498
19	84419	5.11	0.0165282
19	86525	5.21	0.0168587
19	88631	5.31	0.017065
19	90737	5.41	0.0171596
19	92843	5.51	0.017161
19	94949	5.61	0.0170802
19	97055	5.71	0.0169363
19	99161	5.81	0.0167421
19	101267	5.91	0.0164975
19	103389	6.01	0.0162216
19	105495	6.11	0.0159187
19	107601	6.21	0.0155975
19	109707	6.31	0.0152644
19	111813	6.41	0.014931
19	113919	6.51	0.0145931
19	116025	6.61	0.0142557
19	118131	6.71	0.0139253
19	120237	6.81	0.0136003
19	122343	6.91	0.0132887
19	124465	7.01	0.0129864
19	126571	7.11	0.0126975
19	128677	7.21	0.0124253
19	130783	7.31	0.0121639
19	132889	7.41	0.011919
19	134995	7.51	0.011686
19	137101	7.61	0.0114696
19	139207	7.71	0.0112627
19	141313	7.81	0.0110672
19	143419	7.91	0.010885
19	145541	8.01	0.0107207
19	147647	8.11	0.0105669
19	149753	8.21	0.0104186
19	151859	8.31	0.010281
19	153965	8.41	0.0101551
19	156071	8.51	0.0100331
19	158177	8.61	0.00991836
19	160283	8.71	0.00981234
19	162389	8.81	0.00971116
19	164495	8.91	0.00961457
19	166617	9.01	0.00952321
19	168723	9.11	0.0094375
19	170829	9.21	0.00935329
19	172935	9.31	0.00927428
19	175041	9.41	0.00919363
19	177147	9.51	0.00911897
19	179253	9.61	0.00904387
19	181359	9.71	0.00897563
19	183465	9.81	0.00890698
19	185571	9.91	0.00883714
19	187897	10.01	0.00876716
19	190015	10.11	-0.122716
19	192133	10.21	-0.238685
19	194251	10.31	-0.333041
19	196369	10.41	-0.409658
19	198487	10.51	-0.471861
19	200605	10.61	-0.522438
19	202723	10.71	-0.56367
19	204841	10.81	-0.59738
19	206959	10.91	-0.625015
19	209093	11.01	-0.647741
19	211211	11.11	-0.66647
19	213329	11.21	-0.681924
19	215447	11.31	-0.694667
19	217565	11.41	-0.705137
19	219683	11.51	-0.713672
19	221801	11.61	-0.720542
19	223919	11.71	-0.725956
19	226037	11.81	-0.730069
19	228155	11.91	-0.733011
19	230289	12.01	-0.734877
19	232407	12.11	-0.735744
19	234525	12.21	-0.735685
19	236643	12.31	-0.73475
19	238761	12.41	-0.732994
19	240879	12.51	-0.730459
19	242997	12.61	-0.727188
19	245115	12.71	-0.723222
19	247233	12.81	-0.718603
19	249351	12.91	-0.713364
19	251485	13.01	-0.707554
19	253603	13.11	-0.701205
19	255721	13.21	-0.694356
19	257839	13.31	-0.693214
20	115	1.11	0
20	2221	1.21	-0.0822561
20	4327	1.31	-0.163157
20	6433	1.41	-0.158654
20	8539	1.51	-0.152288
20	10645	1.61	-0.144527
20	12751	1.71	-0.135709
20	14857	1.81	-0.126146
20	16963	1.91	-0.116115
20	19085	2.01	-0.105863
20	21191	2.11	-0.0955974
20	23297	2.21	-0.0854156
20	25403	2.31	-0.0755059
20	27509	2.41	-0.0659716
20	29615	2.51	-0.0568661
20	31721	2.61	-0.0482377
20	33827	2.71	-0.0401949
20	35933	2.81	-0.0327199
20	38039	2.91	-0.0258331
20	40161	3.01	-0.0195059
20	42267	3.11	-0.0137844
20	44373	3.21	-0.00865222
20	46479	3.31	-0.00406303
20	48585	3.41	2.73567e-05
20	50691	3.51	0.00359875
20	52797	3.61	0.00671473
20	54903	3.71	0.0093914
20	57009	3.81	0.0116464
20	59115	3.91	0.0135675
20	61237	4.01	0.0151415
20	63343	4.11	0.0163942
20	65449	4.21	0.0174091
20	67555	4.31	0.0181673
20	69661	4.41	0.0186872
20	71767	4.51	0.0190443
20	73873	4.61	0.0192609
20	75979	4.71	0.0193058
20	78085	4.81	0.0192447
20	80191	4.91	0.0191101
20	82313	5.01	0.018861
20	84419	5.11	0.0185638
20	86525	5.21	0.0182018
20	88631	5.31	0.0178254
20	90737	5.41	0.0174024
20	92843	5.51	0.0169689
20	94949	5.61	0.0165081
20	97055	5.71	0.016091
20	99161	5.81	0.0156573
20	101267	5.91	0.0151843
20	103389	6.01	0.0147786
20	105495	6.11	0.0143547
20	107601	6.21	0.0139563
20	109707	6.31	0.013586
20	111813	6.41	0.0132553
20	113919	6.51	0.0129051
20	116025	6.61	0.0125757
20	118131	6.71	0.012287
20	120237	6.81	0.011998
20	122343	6.91	0.011758
20	124465	7.01	0.0114953
20	126571	7.11	0.0112885
20	128677	7.21	0.0110959
20	130783	7.31	0.0108854
20	132889	7.41	0.0107254
20	134995	7.51	0.0105538
20	137101	7.61	0.0104188
20	139207	7.71	0.0102483
20	141313	7.81	0.0101207
20	143419	7.91	0.0100043
20	145541	8.01	0.0099273
20	147647	8.11	0.00981784
20	149753	8.21	0.00969455
20	151859	8.31	0.00961616
20	153965	8.41	0.00954128
20	156071	8.51	0.00943863
20	158177	8.61	0.00935732
20	160283	8.71	0.0092963
20	162389	8.81	0.00921462
20	164495	8.91	0.00914159
20	166617	9.01	0.00907653
20	168723	9.11	0.00901881
20	170829	9.21	0.00893785
20	172935	9.31	0.0088832
20	175041	9.41	0.00879433
20	177147	9.51	0.00875106
20	179253	9.61	0.00867296
20	181359	9.71	0.00863987
20	183465	9.81	0.00856138
20	185571	9.91	0.00848742
20	187897	10.01	0.00841798
20	190015	10.11	-0.769996
20	192133	10.21	-0.766943
20	194251	10.31	-0.762792
20	196369	10.41	-0.758985
20	198487	10.51	-0.756069
20	200605	10.61	-0.754227
20	202723	10.71	-0.753315
20	204841	10.81	-0.753049
20	206959	10.91	-0.75321
20	209093	11.01	-0.753677
20	211211	11.11	-0.754211
20	213329	11.21	-0.75468
20	215447	11.31	-0.754948
20	217565	11.41	-0.754876
20	219683	11.51	-0.754363
20	221801	11.61	-0.753393
20	223919	11.71	-0.751886
20	226037	11.81	-0.749764
20	228155	11.91	-0.747046
20	230289	12.01	-0.743678
20	232407	12.11	-0.739671
20	234525	12.21	-0.735067
20	236643	12.31	-0.72981
20	238761	12.41	-0.724022
20	240879	12.51	-0.717634
20	242997	12.61	-0.710727
20	245115	12.71	-0.703342
20	247233	12.81	-0.695487
20	249351	12.91	-0.687194
20	251485	13.01	-0.678575
20	253603	13.11	-0.669569
20	255721	13.21	-0.660264
20	257839	13.31	-0.757664
21	115	1.11	30.56
21	2221	1.21	30.5599
21	4327	1.31	30.5581
21	6433	1.41	30.5537
21	8539	1.51	30.5472
21	10645	1.61	30.5392
21	12751	1.71	30.53
21	14857	1.81	30.5201
21	16963	1.91	30.5097
21	19085	2.01	30.4991
21	21191	2.11	30.4885
21	23297	2.21	30.4782
21	25403	2.31	30.4682
21	27509	2.41	30.4586
21	29615	2.51	30.4496
21	31721	2.61	30.4412
21	33827	2.71	30.4335
21	35933	2.81	30.4264
21	38039	2.91	30.4201
21	40161	3.01	30.4144
21	42267	3.11	30.4094
21	44373	3.21	30.4051
21	46479	3.31	30.4014
21	48585	3.41	30.3983
21	50691	3.51	30.3958
21	52797	3.61	30.3938
21	54903	3.71	30.3923
21	57009	3.81	30.3912
21	59115	3.91	30.3906
21	61237	4.01	30.3903
21	63343	4.11	30.3903
21	65449	4.21	30.3906
21	67555	4.31	30.3912
21	69661	4.41	30.392
21	71767	4.51	30.393
21	73873	4.61	30.3942
21	75979	4.71	30.3955
21	78085	4.81	30.3969
21	80191	4.91	30.3984
21	82313	5.01	30.4
21	84419	5.11	30.4016
21	86525	5.21	30.4033
21	88631	5.31	30.405
21	90737	5.41	30.4067
21	92843	5.51	30.4084
21	94949	5.61	30.4101
21	97055	5.71	30.4118
21	99161	5.81	30.4135
21	101267	5.91	30.4152
21	103389	6.01	30.4168
21	105495	6.11	30.4184
21	107601	6.21	30.42
21	109707	6.31	30.4215
21	111813	6.41	30.423
21	113919	6.51	30.4245
21	116025	6.61	30.4259
21	118131	6.71	30.4274
21	120237	6.81	30.4287
21	122343	6.91	30.4301
21	124465	7.01	30.4314
21	126571	7.11	30.4327
21	128677	7.21	30.4339
21	130783	7.31	30.4351
21	132889	7.41	30.4364
21	134995	7.51	30.4375
21	137101	7.61	30.4387
21	139207	7.71	30.4398
21	141313	7.81	30.4409
21	143419	7.91	30.442
21	145541	8.01	30.4431
21	147647	8.11	30.4442
21	149753	8.21	30.4452
21	151859	8.31	30.4463
21	153965	8.41	30.4473
21	156071	8.51	30.4483
21	158177	8.61	30.4493
21	160283	8.71	30.4503
21	162389	8.81	30.4512
21	164495	8.91	30.4522
21	166617	9.01	30.4532
21	168723	9.11	30.4541
21	170829	9.21	30.4551
21	172935	9.31	30.456
21	175041	9.41	30.4569
21	177147	9.51	30.4578
21	179253	9.61	30.4587
21	181359	9.71	30.4596
21	183465	9.81	30.4605
21	185571	9.91	30.4614
21	187897	10.01	30.4623
21	190015	10.11	30.4561
21	192133	10.21	30.4373
21	194251	10.31	30.4081
21	196369	10.41	30.3704
21	198487	10.51	30.3259
21	200605	10.61	30.2759
21	202723	10.71	30.2213
21	204841	10.81	30.163
21	206959	10.91	30.1017
21	209093	11.01	30.0379
21	211211	11.11	29.9721
21	213329	11.21	29.9046
21	215447	11.31	29.8357
21	217565	11.41	29.7656
21	219683	11.51	29.6946
21	221801	11.61	29.6229
21	223919	11.71	29.5505
21	226037	11.81	29.4777
21	228155	11.91	29.4045
21	230289	12.01	29.3311
21	232407	12.11	29.2576
21	234525	12.21	29.184
21	236643	12.31	29.1105
21	238761	12.41	29.0371
21	240879	12.51	28.9639
21	242997	12.61	28.8911
21	245115	12.71	28.8186
21	247233	12.81	28.7465
21	249351	12.91	28.6749
21	251485	13.01	28.6039
21	253603	13.11	28.5335
21	255721	13.21	28.4637
21	257839	13.31	28.3946
22	115	1.11	41.1904
22	2221	1.21	44.2464
22	4327	1.31	47.3023
22	6433	1.41	50.3579
22	8539	1.51	53.413
22	10645	1.61	56.4673
22	12751	1.71	59.5208
22	14857	1.81	62.5733
22	16963	1.91	65.6248
22	19085	2.01	68.6752
22	21191	2.11	71.7246
22	23297	2.21	74.773
22	25403	2.31	77.8203
22	27509	2.41	80.8666
22	29615	2.51	83.912
22	31721	2.61	86.9565
22	33827	2.71	90.0003
22	35933	2.81	93.0433
22	38039	2.91	96.0856
22	40161	3.01	99.1273
22	42267	3.11	102.168
22	44373	3.21	105.209
22	46479	3.31	108.25
22	48585	3.41	111.29
22	50691	3.51	114.329
22	52797	3.61	117.369
22	54903	3.71	120.408
22	57009	3.81	123.447
22	59115	3.91	126.486
22	61237	4.01	129.525
22	63343	4.11	132.564
22	65449	4.21	135.603
22	67555	4.31	138.642
22	69661	4.41	141.682
22	71767	4.51	144.721
22	73873	4.61	147.76
22	75979	4.71	150.8
22	78085	4.81	153.839
22	80191	4.91	156.879
22	82313	5.01	159.919
22	84419	5.11	162.959
22	86525	5.21	165.999
22	88631	5.31	169.04
22	90737	5.41	172.08
22	92843	5.51	175.121
22	94949	5.61	178.162
22	97055	5.71	181.203
22	99161	5.81	184.244
22	101267	5.91	187.286
22	103389	6.01	190.327
22	105495	6.11	193.369
22	107601	6.21	196.411
22	109707	6.31	199.453
22	111813	6.41	202.495
22	113919	6.51	205.538
22	116025	6.61	208.58
22	118131	6.71	211.623
22	120237	6.81	214.666
22	122343	6.91	217.709
22	124465	7.01	220.752
22	126571	7.11	223.795
22	128677	7.21	226.838
22	130783	7.31	229.882
22	132889	7.41	232.925
22	134995	7.51	235.969
22	137101	7.61	239.013
22	139207	7.71	242.057
22	141313	7.81	245.101
22	143419	7.91	248.145
22	145541	8.01	251.189
22	147647	8.11	254.234
22	149753	8.21	257.278
22	151859	8.31	260.323
22	153965	8.41	263.367
22	156071	8.51	266.412
22	158177	8.61	269.457
22	160283	8.71	272.502
22	162389	8.81	275.547
22	164495	8.91	278.592
22	166617	9.01	281.637
22	168723	9.11	284.683
22	170829	9.21	287.728
22	172935	9.31	290.774
22	175041	9.41	293.819
22	177147	9.51	296.865
22	179253	9.61	299.911
22	181359	9.71	302.957
22	183465	9.81	306.003
22	185571	9.91	309.049
22	187897	10.01	312.095
22	190015	10.11	315.141
22	192133	10.21	318.186
22	194251	10.31	321.228
22	196369	10.41	324.267
22	198487	10.51	327.302
22	200605	10.61	330.332
22	202723	10.71	333.357
22	204841	10.81	336.377
22	206959	10.91	339.39
22	209093	11.01	342.397
22	211211	11.11	345.397
22	213329	11.21	348.391
22	215447	11.31	351.378
22	217565	11.41	354.358
22	219683	11.51	357.331
22	221801	11.61	360.297
22	223919	11.71	363.256
22	226037	11.81	366.207
22	228155	11.91	369.151
22	230289	12.01	372.088
22	232407	12.11	375.018
22	234525	12.21	377.94
22	236643	12.31	380.854
22	238761	12.41	383.762
22	240879	12.51	386.662
22	242997	12.61	389.555
22	245115	12.71	392.44
22	247233	12.81	395.318
22	249351	12.91	398.189
22	251485	13.01	401.053
22	253603	13.11	403.91
22	255721	13.21	406.76
22	257839	13.31	409.603
23	115	1.11	242.45
23	2221	1.21	242.45
23	4327	1.31	242.45
23	6433	1.41	242.45
23	8539	1.51	242.45
23	10645	1.61	242.45
23	12751	1.71	242.45
23	14857	1.81	242.45
23	16963	1.91	242.45
23	19085	2.01	242.45
23	21191	2.11	242.45
23	23297	2.21	242.45
23	25403	2.31	242.45
23	27509	2.41	242.45
23	29615	2.51	242.45
23	31721	2.61	242.45
23	33827	2.71	242.45
23	35933	2.81	242.45
23	38039	2.91	242.45
23	40161	3.01	242.45
23	42267	3.11	242.45
[...]
181	141095	7.803544472374	12
181	143201	7.903537743354	12
181	145323	8.003544014558	12
181	147429	8.103537285979	12
181	149535	8.203543557617	12
181	151641	8.30353682947	12
181	153747	8.403543101537	12
181	155853	8.503536373816	12
181	157959	8.603542646304	12
181	160065	8.703535918996	12
181	162171	8.803542191896	12
181	164277	8.903548465	12
181	166399	9.003541738305	12
181	168505	9.10354801181	12
181	170611	9.203541285512	12
181	172717	9.303547559408	12
181	174823	9.403540833499	12
181	176929	9.503547107781	12
181	179035	9.603540382255	12
181	181141	9.703546656918	12
181	183247	9.803539931768	12
181	185353	9.903546206804	12
181	187679	10.003542482026	12
181	189797	10.103535757426	12
181	191915	10.203542033013	12
181	194033	10.303548308794	12
181	196151	10.403541584792	12
181	198269	10.503547861044	12
181	200387	10.603541137604	12
181	202505	10.703547414533	12
181	204623	10.803540691909	12
181	206741	10.903546969818	12
181	208875	11.00354024835	12
181	210993	11.103546527603	12
181	213111	11.203539807687	12
181	215229	11.303546088715	12
181	217347	11.4035393708	12
181	219465	11.503545654072	12
181	221583	11.603538938655	12
181	223701	11.703545224689	12
181	225819	11.803538512308	12
181	227937	11.903544801655	12
181	230071	12.00353809288	12
181	232189	12.103544386131	12
181	234307	12.203537681564	12
181	236425	12.303543979339	12
181	238543	12.403537279612	12
181	240661	12.503543582551	12
181	242779	12.603536888318	12
181	244897	12.703543197082	12
181	247015	12.803536509018	12
181	249133	12.903542824292	12
181	251267	13.003536143084	12
181	253385	13.103542465567	12
181	255503	13.203535791913	12
181	257621	13.303542122449	12
182	4245	1.305146469895	0.100006254962
182	6351	1.40513972486	0.099993254965
182	8457	1.505145979833	0.100006254973
182	10563	1.605139234829	0.099993254996
182	12663	1.705145489858	0.100006255029
182	14769	1.805138744939	0.099993255081
182	16875	1.90514500009	0.100006255151
182	18997	2.005151255331	0.100006255241
182	21103	2.105144510684	0.099993255353
182	23209	2.205150766164	0.10000625548
182	25315	2.305144021795	0.099993255631
182	27421	2.405150277596	0.100006255801
182	29527	2.505143533584	0.099993255988
182	31633	2.60514978978	0.100006256196
182	33739	2.705143046198	0.099993256418
182	35845	2.805149302852	0.100006256654
182	37951	2.905142559758	0.099993256906
182	40073	3.005148816927	0.100006257169
182	42179	3.10514207437	0.099993257443
182	44285	3.205148332099	0.100006257729
182	46391	3.305141590123	0.099993258024
182	48497	3.40514784845	0.100006258327
182	50603	3.505141107084	0.099993258634
182	52709	3.605147366028	0.100006258944
182	54815	3.705140625291	0.099993259263
182	56921	3.805146884873	0.100006259582
182	59027	3.905140144777	0.099993259904
182	61149	4.005146405005	0.100006260228
182	63255	4.105139665558	0.099993260553
182	65361	4.205145926434	0.100006260876
182	67467	4.305139187631	0.099993261197
182	69573	4.405145449153	0.100006261522
182	71679	4.505138710995	0.099993261842
182	73785	4.605144973154	0.100006262159
182	75891	4.705151235633	0.100006262479
182	77997	4.805144498423	0.09999326279
182	80103	4.905150761524	0.100006263101
182	82225	5.005144024934	0.09999326341
182	84331	5.105150288649	0.100006263715
182	86437	5.205143552666	0.099993264017
182	88543	5.305149816982	0.100006264316
182	90649	5.405143081593	0.099993264611
182	92755	5.505149346494	0.100006264901
182	94861	5.605142611685	0.099993265191
182	96967	5.705148877161	0.100006265476
182	99073	5.805142142916	0.099993265755
182	101179	5.905148408951	0.100006266035
182	103301	6.005141675259	0.099993266308
182	105407	6.105147941839	0.10000626658
182	107513	6.205141208688	0.099993266849
182	109619	6.305147475798	0.10000626711
182	111725	6.405140743176	0.099993267378
182	113831	6.505147010812	0.100006267636
182	115937	6.605140278701	0.099993267889
182	118043	6.705146546842	0.100006268141
182	120149	6.805139815236	0.099993268394
182	122255	6.905146083878	0.100006268642
182	124377	7.005139352766	0.099993268888
182	126483	7.105145621893	0.100006269127
182	128589	7.205138891261	0.099993269368
182	130695	7.305145160869	0.100006269608
182	132801	7.40513843071	0.099993269841
182	134907	7.505144700785	0.100006270075
182	137013	7.605150971087	0.100006270302
182	139119	7.705144241617	0.09999327053
182	141225	7.805150512374	0.100006270757
182	143331	7.905143783354	0.09999327098
182	145453	8.005150054557	0.100006271203
182	147559	8.105143325978	0.099993271421
182	149665	8.205149597615	0.100006271637
182	151771	8.305142869469	0.099993271854
182	153877	8.405149141535	0.100006272066
182	155983	8.505142413813	0.099993272278
182	158089	8.6051486863	0.100006272487
182	160195	8.705141958992	0.099993272692
182	162301	8.805148231891	0.100006272899
182	164407	8.905141504995	0.099993273104
182	166529	9.005147778299	0.100006273304
182	168635	9.105141051805	0.099993273506
182	170741	9.205147325506	0.100006273701
182	172847	9.305140599402	0.099993273896
182	174953	9.405146873492	0.10000627409
182	177059	9.505140147774	0.099993274282
182	179165	9.605146422247	0.100006274473
182	181271	9.705139696909	0.099993274662
182	183377	9.805145971759	0.10000627485
182	185483	9.905139246794	0.099993275035
182	187809	10.005148522016	0.100009275222
182	189927	10.105141797416	0.0999932754
182	192045	10.205148073003	0.100006275587
182	194163	10.305141348783	0.09999327578
182	196281	10.405147624781	0.100006275998
182	198399	10.505140901033	0.099993276252
182	200517	10.605147177594	0.100006276561
182	202635	10.705140454525	0.099993276931
182	204753	10.805146731904	0.100006277379
182	206871	10.905140009817	0.099993277913
182	209005	11.005146288354	0.100006278537
182	211123	11.105139567614	0.09999327926
182	213241	11.205145847707	0.100006280093
182	215359	11.305139128744	0.099993281037
182	217477	11.405145410841	0.100006282097
182	219595	11.505138694126	0.099993283285
182	221713	11.605144978725	0.100006284599
182	223831	11.705151264777	0.100006286052
182	225949	11.805144552415	0.099993287638
182	228067	11.905150841785	0.10000628937
182	230201	12.005144133033	0.099993291248
182	232319	12.105150426311	0.100006293278
182	234437	12.205143721773	0.099993295462
182	236555	12.30515001958	0.100006297807
182	238673	12.405143319887	0.099993300307
182	240791	12.505149622862	0.100006302975
182	242909	12.605142928668	0.099993305806
182	245027	12.705149237475	0.100006308807
182	247145	12.805142549456	0.099993311981
182	249263	12.905148864778	0.100006315322
182	251397	13.005142183621	0.099993318843
182	253515	13.105148506158	0.100006322537
182	255633	13.205141832561	0.099993326403
182	257751	13.305148163156	0.100006330595
183	4245	1.305146469895	14
183	6351	1.40513972486	14
183	8457	1.505145979833	14
183	10563	1.605139234829	14
183	12663	1.705145489858	14
183	14769	1.805138744939	14
183	16875	1.90514500009	14
183	18997	2.005151255331	14
183	21103	2.105144510684	14
183	23209	2.205150766164	14
183	25315	2.305144021795	14
183	27421	2.405150277596	14
183	29527	2.505143533584	14
183	31633	2.60514978978	14
183	33739	2.705143046198	14
183	35845	2.805149302852	14
183	37951	2.905142559758	14
183	40073	3.005148816927	14
183	42179	3.10514207437	14
183	44285	3.205148332099	14
183	46391	3.305141590123	14
183	48497	3.40514784845	14
183	50603	3.505141107084	14
183	52709	3.605147366028	14
183	54815	3.705140625291	14
183	56921	3.805146884873	14
183	59027	3.905140144777	14
183	61149	4.005146405005	14
183	63255	4.105139665558	14
183	65361	4.205145926434	14
183	67467	4.305139187631	14
183	69573	4.405145449153	14
183	71679	4.505138710995	14
183	73785	4.605144973154	14
183	75891	4.705151235633	14
183	77997	4.805144498423	14
183	80103	4.905150761524	14
183	82225	5.005144024934	14
183	84331	5.105150288649	14
183	86437	5.205143552666	14
183	88543	5.305149816982	14
183	90649	5.405143081593	14
183	92755	5.505149346494	14
183	94861	5.605142611685	14
183	96967	5.705148877161	14
183	99073	5.805142142916	14
183	101179	5.905148408951	14
183	103301	6.005141675259	14
183	105407	6.105147941839	14
183	107513	6.205141208688	14
183	109619	6.305147475798	14
183	111725	6.405140743176	14
183	113831	6.505147010812	14
183	115937	6.605140278701	14
183	118043	6.705146546842	14
183	120149	6.805139815236	14
183	122255	6.905146083878	14
183	124377	7.005139352766	14
183	126483	7.105145621893	14
183	128589	7.205138891261	14
183	130695	7.305145160869	14
183	132801	7.40513843071	14
183	134907	7.505144700785	14
183	137013	7.605150971087	14
183	139119	7.705144241617	14
183	141225	7.805150512374	14
183	143331	7.905143783354	14
183	145453	8.005150054557	14
183	147559	8.105143325978	14
183	149665	8.205149597615	14
183	151771	8.305142869469	14
183	153877	8.405149141535	14
183	155983	8.505142413813	14
183	158089	8.6051486863	14
183	160195	8.705141958992	14
183	162301	8.805148231891	14
183	164407	8.905141504995	14
183	166529	9.005147778299	14
183	168635	9.105141051805	14
183	170741	9.205147325506	14
183	172847	9.305140599402	14
183	174953	9.405146873492	14
183	177059	9.505140147774	14
183	179165	9.605146422247	14
183	181271	9.705139696909	14
183	183377	9.805145971759	14
183	185483	9.905139246794	14
183	187809	10.005148522016	14
183	189927	10.105141797416	14
183	192045	10.205148073003	14
183	194163	10.305141348783	14
183	196281	10.405147624781	14
183	198399	10.505140901033	14
183	200517	10.605147177594	14
183	202635	10.705140454525	14
183	204753	10.805146731904	14
183	206871	10.905140009817	14
183	209005	11.005146288354	14
183	211123	11.105139567614	14
183	213241	11.205145847707	14
183	215359	11.305139128744	14
183	217477	11.405145410841	14
183	219595	11.505138694126	14
183	221713	11.605144978725	14
183	223831	11.705151264777	14
183	225949	11.805144552415	14
183	228067	11.905150841785	14
183	230201	12.005144133033	14
183	232319	12.105150426311	14
183	234437	12.205143721773	14
183	236555	12.30515001958	14
183	238673	12.405143319887	14
183	240791	12.505149622862	14
183	242909	12.605142928668	14
183	245027	12.705149237475	14
183	247145	12.805142549456	14
183	249263	12.905148864778	14
183	251397	13.005142183621	14
183	253515	13.105148506158	14
183	255633	13.205141832561	14
183	257751	13.305148163156	14
184	18806	2	0
184	39882	3	0
184	60958	4	0
184	82034	5	0
184	103110	6	0
184	124186	7	0
184	145262	8	0
184	166338	9	0
184	187416	10	0
184	208802	11	0
184	229998	12	0
184	251194	13	0
185	18806	2	0.044313
185	39882	3	0.04993
185	60958	4	0.04993
185	82034	5	0.04993
185	103110	6	0.04993
185	124186	7	0.04993
185	145262	8	0.04993
185	166338	9	0.04993
185	187416	10	0.04993
185	208802	11	0.049979
185	229998	12	0.04993
185	251194	13	0.04993
186	18806	2	0
186	39882	3	0
186	60958	4	0
186	82034	5	0
186	103110	6	0
186	124186	7	0
186	145262	8	0
186	166338	9	0
186	187416	10	0
186	208802	11	0
186	229998	12	0
186	251194	13	0
187	18807	2	1
187	39883	3	1
187	60959	4	1
187	82035	5	1
187	103111	6	1
187	124187	7	1
187	145263	8	1
187	166339	9	1
187	187417	10	1
187	208803	11	1
187	229999	12	1
187	251195	13	1
188	18807	2	0.044313
188	39883	3	0.04993
188	60959	4	0.04993
188	82035	5	0.04993
188	103111	6	0.04993
188	124187	7	0.04993
188	145263	8	0.04993
188	166339	9	0.04993
188	187417	10	0.04993
188	208803	11	0.049978
188	229999	12	0.04993
188	251195	13	0.04993
189	18807	2	0
189	39883	3	0
189	60959	4	0
189	82035	5	0
189	103111	6	0
189	124187	7	0
189	145263	8	0
189	166339	9	0
189	187417	10	0
189	208803	11	0
189	229999	12	0
189	251195	13	0
190	18808	2	10
190	39884	3	10
190	60960	4	10
190	82036	5	10
190	103112	6	10
190	124188	7	10
190	145264	8	10
190	166340	9	10
190	187418	10	10
190	208804	11	10
190	230000	12	10
190	251196	13	10
191	18808	2	0.044313
191	39884	3	0.04993
191	60960	4	0.04993
191	82036	5	0.04993
191	103112	6	0.04993
191	124188	7	0.04993
191	145264	8	0.04993
191	166340	9	0.04993
191	187418	10	0.04993
191	208804	11	0.049978
191	230000	12	0.04993
191	251196	13	0.04993
192	18808	2	0
192	39884	3	0
192	60960	4	0
192	82036	5	0
192	103112	6	0
192	124188	7	0
192	145264	8	0
192	166340	9	0
192	187418	10	0
192	208804	11	0
192	230000	12	0
192	251196	13	0
193	18809	2	11
193	39885	3	11
193	60961	4	11
193	82037	5	11
193	103113	6	11
193	124189	7	11
193	145265	8	11
193	166341	9	11
193	187419	10	11
193	208805	11	11
193	230001	12	11
193	251197	13	11
194	18809	2	0.044312
194	39885	3	0.04993
194	60961	4	0.04993
194	82037	5	0.04993
194	103113	6	0.04993
194	124189	7	0.04993
194	145265	8	0.04993
194	166341	9	0.04993
194	187419	10	0.04993
194	208805	11	0.049978
194	230001	12	0.04993
194	251197	13	0.04993
195	18809	2	0
195	39885	3	0
195	60961	4	0
195	82037	5	0
195	103113	6	0
195	124189	7	0
195	145265	8	0
195	166341	9	0
195	187419	10	0
195	208805	11	0
195	230001	12	0
195	251197	13	0
196	18810	2	12
196	39886	3	12
196	60962	4	12
196	82038	5	12
196	103114	6	12
196	124190	7	12
196	145266	8	12
196	166342	9	12
196	187420	10	12
196	208806	11	12
196	230002	12	12
196	251198	13	12
197	18810	2	0.044313
197	39886	3	0.04993
197	60962	4	0.04993
197	82038	5	0.04993
197	103114	6	0.04993
197	124190	7	0.04993
197	145266	8	0.04993
197	166342	9	0.04993
197	187420	10	0.04993
197	208806	11	0.049978
197	230002	12	0.04993
197	251198	13	0.04993
198	18810	2	0
198	39886	3	0
198	60962	4	0
198	82038	5	0
198	103114	6	0
198	124190	7	0
198	145266	8	0
198	166342	9	0
198	187420	10	0
198	208806	11	0
198	230002	12	0
198	251198	13	0
199	18811	2	13
199	39887	3	13
199	60963	4	13
199	82039	5	13
199	103115	6	13
199	124191	7	13
199	145267	8	13
199	166343	9	13
199	187421	10	13
199	208807	11	13
199	230003	12	13
199	251199	13	13
200	18811	2	0.044312
200	39887	3	0.04993
200	60963	4	0.04993
200	82039	5	0.04993
200	103115	6	0.04993
200	124191	7	0.04993
200	145267	8	0.04993
200	166343	9	0.04993
200	187421	10	0.04993
200	208807	11	0.049978
200	230003	12	0.04993
200	251199	13	0.04993
201	18811	2	0
201	39887	3	0
201	60963	4	0
201	82039	5	0
201	103115	6	0
201	124191	7	0
201	145267	8	0
201	166343	9	0
201	187421	10	0
201	208807	11	0
201	230003	12	0
201	251199	13	0
202	18812	2	14
202	39888	3	14
202	60964	4	14
202	82040	5	14
202	103116	6	14
202	124192	7	14
202	145268	8	14
202	166344	9	14
202	187422	10	14
202	208808	11	14
202	230004	12	14
202	251200	13	14
203	18812	2	0.044313
203	39888	3	0.04993
203	60964	4	0.04993
203	82040	5	0.04993
203	103116	6	0.04993
203	124192	7	0.04993
203	145268	8	0.04993
203	166344	9	0.04993
203	187422	10	0.04993
203	208808	11	0.049978
203	230004	12	0.04993
203	251200	13	0.04993
204	18812	2	0
204	39888	3	0
204	60964	4	0
204	82040	5	0
204	103116	6	0
204	124192	7	0
204	145268	8	0
204	166344	9	0
204	187422	10	0
204	208808	11	0
204	230004	12	0
204	251200	13	0
205	18813	2	15
205	39889	3	15
205	60965	4	15
205	82041	5	15
205	103117	6	15
205	124193	7	15
205	145269	8	15
205	166345	9	15
205	187423	10	15
205	208809	11	15
205	230005	12	15
205	251201	13	15
206	18813	2	0.044313
206	39889	3	0.04993
206	60965	4	0.04993
206	82041	5	0.04993
206	103117	6	0.04993
206	124193	7	0.04993
206	145269	8	0.04993
206	166345	9	0.04993
206	187423	10	0.04993
206	208809	11	0.049978
206	230005	12	0.04993
206	251201	13	0.04993
207	18813	2	0
207	39889	3	0
207	60965	4	0
207	82041	5	0
207	103117	6	0
207	124193	7	0
207	145269	8	0
207	166345	9	0
207	187423	10	0
207	208809	11	0
207	230005	12	0
207	251201	13	0
208	18814	2	2
208	39890	3	2
208	60966	4	2
208	82042	5	2
208	103118	6	2
208	124194	7	2
208	145270	8	2
208	166346	9	2
208	187424	10	2
208	208810	11	2
208	230006	12	2
208	251202	13	2
209	18814	2	0.044313
209	39890	3	0.04993
209	60966	4	0.04993
209	82042	5	0.04993
209	103118	6	0.04993
209	124194	7	0.04993
209	145270	8	0.04993
209	166346	9	0.04993
209	187424	10	0.04993
209	208810	11	0.04997819847
209	230006	12	0.04993
209	251202	13	0.04993
210	18814	2	0
210	39890	3	0
210	60966	4	0
210	82042	5	0
210	103118	6	0
210	124194	7	0
210	145270	8	0
210	166346	9	0
210	187424	10	0
210	208810	11	0
210	230006	12	0
210	251202	13	0
211	18815	2	3
211	39891	3	3
211	60967	4	3
211	82043	5	3
211	103119	6	3
211	124195	7	3
211	145271	8	3
211	166347	9	3
211	187425	10	3
211	208811	11	3
211	230007	12	3
211	251203	13	3
212	18815	2	0.044313
212	39891	3	0.04993
212	60967	4	0.04993
212	82043	5	0.04993
212	103119	6	0.04993
212	124195	7	0.04993
212	145271	8	0.04993
212	166347	9	0.04993
212	187425	10	0.04993
212	208811	11	0.049978158444
212	230007	12	0.04993
212	251203	13	0.04993
213	18815	2	0
213	39891	3	0
213	60967	4	0
213	82043	5	0
213	103119	6	0
213	124195	7	0
213	145271	8	0
213	166347	9	0
213	187425	10	0
213	208811	11	0
213	230007	12	0
213	251203	13	0
214	18816	2	4
214	39892	3	4
214	60968	4	4
214	82044	5	4
214	103120	6	4
214	124196	7	4
214	145272	8	4
214	166348	9	4
214	187426	10	4
214	208812	11	4
214	230008	12	4
214	251204	13	4
215	18816	2	0.044313
215	39892	3	0.04993
215	60968	4	0.04993
215	82044	5	0.04993
215	103120	6	0.04993
215	124196	7	0.04993
215	145272	8	0.04993
215	166348	9	0.04993
215	187426	10	0.04993
215	208812	11	0.049978118418
215	230008	12	0.04993
215	251204	13	0.04993
216	18816	2	0
216	39892	3	0
216	60968	4	0
216	82044	5	0
216	103120	6	0
216	124196	7	0
216	145272	8	0
216	166348	9	0
216	187426	10	0
216	208812	11	0
216	230008	12	0
216	251204	13	0
217	18817	2	5
217	39893	3	5
217	60969	4	5
217	82045	5	5
217	103121	6	5
217	124197	7	5
217	145273	8	5
217	166349	9	5
217	187427	10	5
217	208813	11	5
217	230009	12	5
217	251205	13	5
218	18817	2	0.044313
218	39893	3	0.04993
218	60969	4	0.04993
218	82045	5	0.04993
218	103121	6	0.04993
218	124197	7	0.04993
218	145273	8	0.04993
218	166349	9	0.04993
218	187427	10	0.04993
218	208813	11	0.04997807839
218	230009	12	0.04993
218	251205	13	0.04993
219	18817	2	0
219	39893	3	0
219	60969	4	0
219	82045	5	0
219	103121	6	0
219	124197	7	0
219	145273	8	0
219	166349	9	0
219	187427	10	0
219	208813	11	0
219	230009	12	0
219	251205	13	0
220	18818	2	6
220	39894	3	6
220	60970	4	6
220	82046	5	6
220	103122	6	6
220	124198	7	6
220	145274	8	6
220	166350	9	6
220	187428	10	6
220	208814	11	6
220	230010	12	6
220	251206	13	6
221	18818	2	0.044313
221	39894	3	0.04993
221	60970	4	0.04993
221	82046	5	0.04993
221	103122	6	0.04993
221	124198	7	0.04993
221	145274	8	0.04993
221	166350	9	0.04993
221	187428	10	0.04993
221	208814	11	0.049978038362
221	230010	12	0.04993
221	251206	13	0.04993
222	18818	2	0
222	39894	3	0
222	60970	4	0
222	82046	5	0
222	103122	6	0
222	124198	7	0
222	145274	8	0
222	166350	9	0
222	187428	10	0
222	208814	11	0
222	230010	12	0
222	251206	13	0
223	18819	2	7
223	39895	3	7
223	60971	4	7
223	82047	5	7
223	103123	6	7
223	124199	7	7
223	145275	8	7
223	166351	9	7
223	187429	10	7
223	208815	11	7
223	230011	12	7
223	251207	13	7
224	18819	2	0.044313
224	39895	3	0.04993
224	60971	4	0.04993
224	82047	5	0.04993
224	103123	6	0.04993
224	124199	7	0.04993
224	145275	8	0.04993
224	166351	9	0.04993
224	187429	10	0.04993
224	208815	11	0.049978001664
224	230011	12	0.04993
224	251207	13	0.04993
225	18819	2	0
225	39895	3	0
225	60971	4	0
225	82047	5	0
225	103123	6	0
225	124199	7	0
225	145275	8	0
225	166351	9	0
225	187429	10	0
225	208815	11	0
225	230011	12	0
225	251207	13	0
226	18820	2	8
226	39896	3	8
226	60972	4	8
226	82048	5	8
226	103124	6	8
226	124200	7	8
226	145276	8	8
226	166352	9	8
226	187430	10	8
226	208816	11	8
226	230012	12	8
226	251208	13	8
227	18820	2	0.044313
227	39896	3	0.04993
227	60972	4	0.04993
227	82048	5	0.04993
227	103124	6	0.04993
227	124200	7	0.04993
227	145276	8	0.04993
227	166352	9	0.04993
227	187430	10	0.04993
227	208816	11	0.049979
227	230012	12	0.04993
227	251208	13	0.04993
228	18820	2	0
228	39896	3	0
228	60972	4	0
228	82048	5	0
228	103124	6	0
228	124200	7	0
228	145276	8	0
228	166352	9	0
228	187430	10	0
228	208816	11	0
228	230012	12	0
228	251208	13	0
229	18821	2	9
229	39897	3	9
229	60973	4	9
229	82049	5	9
229	103125	6	9
229	124201	7	9
229	145277	8	9
229	166353	9	9
229	187431	10	9
229	208817	11	9
229	230013	12	9
229	251209	13	9
230	18821	2	0.044313
230	39897	3	0.04993
230	60973	4	0.04993
230	82049	5	0.04993
230	103125	6	0.04993
230	124201	7	0.04993
230	145277	8	0.04993
230	166353	9	0.04993
230	187431	10	0.04993
230	208817	11	0.049978
230	230013	12	0.04993
230	251209	13	0.04993
231	18821	2	0
231	39897	3	0
231	60973	4	0
231	82049	5	0
231	103125	6	0
231	124201	7	0
231	145277	8	0
231	166353	9	0
231	187431	10	0
231	208817	11	0
231	230013	12	0
231	251209	13	0

