version 3
run BreakRanksNoGui-24-20240708-18:12:10-157778
attr configname BreakRanksNoGui
attr datetime 20240708-18:12:10
attr datetimef 20240708-181210
attr experiment BreakRanksNoGui
attr inifile omnetpp.ini
attr iterationvars "$nCars=8, $platoonSize=8, $nLanes=1, $ploegH=0.5, $controller=1, $headway=0.1, $leaderHeadway=1.2, $leaderSpeed=130, $breakRanksSafetyDistance=10, $minSpeed=120, $maxSpeed=140, $beaconInterval=0.1, $priority=4, $packetSize=200, $sController=\"CACC\", $0=2, $1=0"
attr iterationvarsd nCars=8/platoonSize=8/nLanes=1/ploegH=0.5/controller=1/headway=0.1/leaderHeadway=1.2/leaderSpeed=130/breakRanksSafetyDistance=10/minSpeed=120/maxSpeed=140/beaconInterval=0.1/priority=4/packetSize=200/sController=CACC/2/0
attr iterationvarsf nCars=8,platoonSize=8,nLanes=1,ploegH=0.5,controller=1,headway=0.1,leaderHeadway=1.2,leaderSpeed=130,breakRanksSafetyDistance=10,minSpeed=120,maxSpeed=140,beaconInterval=0.1,priority=4,packetSize=200,sController=CACC,2,0-
attr measurement "$nCars=8, $platoonSize=8, $nLanes=1, $ploegH=0.5, $controller=1, $headway=0.1, $leaderHeadway=1.2, $leaderSpeed=130, $breakRanksSafetyDistance=10, $minSpeed=120, $maxSpeed=140, $beaconInterval=0.1, $priority=4, $packetSize=200, $sController=\"CACC\", $0=2, $1=0"
attr network Highway
attr processid 157778
attr repetition 4
attr replication #4
attr resultdir results
attr runnumber 24
attr seedset 4
itervar beaconInterval 0.1
itervar breakRanksSafetyDistance 10
itervar controller 1
itervar headway 0.1
itervar leaderHeadway 1.2
itervar leaderSpeed 130
itervar maxSpeed 140
itervar minSpeed 120
itervar nCars 8
itervar nLanes 1
itervar packetSize 200
itervar platoonSize 8
itervar ploegH 0.5
itervar priority 4
itervar sController "\"CACC\""
config image-path ../../../veins/images
config repeat 10
config extends BreakRanks
config *.manager.command "\"sumo\""
config *.manager.ignoreGuiCommands true
config output-vector-file results/BreakRanks_1_0.1_130_10/result_4.vec
config output-scalar-file results/BreakRanks_1_0.1_130_10/result_4.sca
config extends Platooning
config *.node[*].scenario_type "\"BreakRanksScenario\""
config *.manager.command "\"sumo-gui\""
config *.node[*].scenario_type "\"SimpleScenario\""
config cmdenv-express-mode true
config cmdenv-autoflush true
config cmdenv-status-frequency 15s
config num-rngs 6
config network Highway
config debug-on-errors true
config print-undisposed true
config *.playgroundSizeX 65000m
config *.playgroundSizeY 25000m
config *.playgroundSizeZ 50m
config sim-time-limit "100 s"
config *.annotations.draw false
config *.obstacles.debug false
config *.world.useTorus false
config *.world.use2D false
config *.manager.updateInterval 0.01s
config *.manager.host "\"localhost\""
config *.manager.moduleType "\"org.car2x.plexe.PlatoonCar\""
config *.manager.moduleName "\"node\""
config *.manager.moduleDisplayString "\"\""
config *.manager.autoShutdown true
config *.manager.margin 25
config *.connectionManager.sendDirect true
config *.connectionManager.maxInterfDist 2600m
config *.connectionManager.drawMaxIntfDist false
config *.**.nic.mac1609_4.useServiceChannel false
config *.**.nic.mac1609_4.txPower 100mW
config *.**.nic.mac1609_4.bitrate 6Mbps
config *.**.nic.mac1609_4.useAcks true
config *.**.nic.mac1609_4.ackErrorRate 0.0
config *.**.nic.mac1609_4.frameErrorRate 0.0
config *.**.nic.phy80211p.minPowerLevel -94dBm
config *.**.nic.phy80211p.maxTXPower 100mW
config *.**.nic.phy80211p.useNoiseFloor true
config *.**.nic.phy80211p.noiseFloor -95dBm
config *.**.nic.phy80211p.decider "xmldoc(\"config.xml\")"
config *.**.nic.phy80211p.analogueModels "xmldoc(\"config.xml\")"
config *.**.nic.phy80211p.usePropagationDelay true
config *.node[*].mobility.x 0
config *.node[*].mobility.y 0
config *.node[*].mobility.z 1.895
config seed-set 4
config **.seed 4
config *.node[*].prot.rng-0 2
config *.node[*].appl.rng-0 3
config *.node[*].scenario.rng-0 4
config **.traffic.rng-0 5
config *.manager.configFile "\"./sumocfg/freeway.sumo.cfg\""
config *.manager.launchConfig "xmldoc(\"./sumocfg/freeway.launchd.xml\")"
config **.numberOfCars 8
config **.numberOfCarsPerPlatoon 8
config **.numberOfLanes 1
config *.node[*].helper_type "\"PositionHelper\""
config *.node[*].scenario.caccC1 0.5
config *.node[*].scenario.caccXi 1
config *.node[*].scenario.caccOmegaN "0.2 Hz"
config *.node[*].scenario.caccSpacing "2 m"
config *.node[*].scenario.engineTau "0.5 s"
config *.node[*].scenario.ploegH 0.5s
config *.node[*].scenario.ploegKp 0.2
config *.node[*].scenario.ploegKd 0.7
config *.node[*].scenario.useRealisticEngine false
config *.node[*].scenario.useControllerAcceleration true
config *.node[*].scenario.nLanes 1
config **.numericController 1
config **.headway 0.1s
config *.node[*].scenario.accHeadway 0.1s
config *.node[*].scenario.leaderHeadway 1.2s
config *.node[*].scenario.leaderSpeed 130kmph
config *.node[*].appl_type "\"SimplePlatooningApp\""
config *.node[*].appl.*.scalar-recording true
config *.node[*].appl.*.vector-recording true
config *.node[0].appl.breakRanksSafetyDistance 10m
config *.node[*].appl.minSpeed 120kmph
config *.node[*].appl.maxSpeed 140kmph
config *.node[*].protocol_type "\"SimplePlatooningBeaconing\""
config *.node[*].prot.*.scalar-recording true
config *.node[*].prot.*.vector-recording true
config *.node[*].prot.beaconingInterval 0.1s
config *.node[*].prot.priority 4
config *.node[*].prot.packetSize 200
config **.traffic_type "\"PlatoonsTrafficManager\""
config **.traffic.platoonInsertTime "1 s"
config **.traffic.platoonInsertSpeed 130kmph
config **.traffic.nCars 8
config **.traffic.platoonSize 8
config **.traffic.nLanes 1
config **.traffic.platooningVType "\"vtypeauto\""
config **.traffic.controller "\"CACC\""
config **.traffic.platoonInsertDistance 2m
config **.traffic.platoonInsertHeadway 0s
config **.traffic.platoonLeaderHeadway 1.2s
config **.scalar-recording false
config **.vector-recording false
config output-vector-file results/BreakRanksNoGui_1_0.1_130_10/result_4.vec
config output-scalar-file results/BreakRanksNoGui_1_0.1_130_10/result_4.sca

vector 0 Highway.node[0].appl distance ETV
vector 1 Highway.node[0].appl relativeSpeed ETV
vector 2 Highway.node[0].appl nodeId ETV
vector 3 Highway.node[0].appl acceleration ETV
vector 4 Highway.node[0].appl controllerAcceleration ETV
vector 5 Highway.node[0].appl speed ETV
vector 6 Highway.node[0].appl posx ETV
vector 7 Highway.node[0].appl posy ETV
vector 8 Highway.node[1].appl distance ETV
vector 9 Highway.node[1].appl relativeSpeed ETV
vector 10 Highway.node[1].appl nodeId ETV
vector 11 Highway.node[1].appl acceleration ETV
vector 12 Highway.node[1].appl controllerAcceleration ETV
vector 13 Highway.node[1].appl speed ETV
vector 14 Highway.node[1].appl posx ETV
vector 15 Highway.node[1].appl posy ETV
vector 16 Highway.node[2].appl distance ETV
vector 17 Highway.node[2].appl relativeSpeed ETV
vector 18 Highway.node[2].appl nodeId ETV
vector 19 Highway.node[2].appl acceleration ETV
vector 20 Highway.node[2].appl controllerAcceleration ETV
vector 21 Highway.node[2].appl speed ETV
vector 22 Highway.node[2].appl posx ETV
vector 23 Highway.node[2].appl posy ETV
vector 24 Highway.node[3].appl distance ETV
vector 25 Highway.node[3].appl relativeSpeed ETV
vector 26 Highway.node[3].appl nodeId ETV
vector 27 Highway.node[3].appl acceleration ETV
vector 28 Highway.node[3].appl controllerAcceleration ETV
vector 29 Highway.node[3].appl speed ETV
vector 30 Highway.node[3].appl posx ETV
vector 31 Highway.node[3].appl posy ETV
vector 32 Highway.node[4].appl distance ETV
vector 33 Highway.node[4].appl relativeSpeed ETV
vector 34 Highway.node[4].appl nodeId ETV
vector 35 Highway.node[4].appl acceleration ETV
vector 36 Highway.node[4].appl controllerAcceleration ETV
vector 37 Highway.node[4].appl speed ETV
vector 38 Highway.node[4].appl posx ETV
vector 39 Highway.node[4].appl posy ETV
vector 40 Highway.node[5].appl distance ETV
vector 41 Highway.node[5].appl relativeSpeed ETV
vector 42 Highway.node[5].appl nodeId ETV
vector 43 Highway.node[5].appl acceleration ETV
vector 44 Highway.node[5].appl controllerAcceleration ETV
vector 45 Highway.node[5].appl speed ETV
vector 46 Highway.node[5].appl posx ETV
vector 47 Highway.node[5].appl posy ETV
vector 48 Highway.node[6].appl distance ETV
vector 49 Highway.node[6].appl relativeSpeed ETV
vector 50 Highway.node[6].appl nodeId ETV
vector 51 Highway.node[6].appl acceleration ETV
vector 52 Highway.node[6].appl controllerAcceleration ETV
vector 53 Highway.node[6].appl speed ETV
vector 54 Highway.node[6].appl posx ETV
vector 55 Highway.node[6].appl posy ETV
vector 56 Highway.node[7].appl distance ETV
vector 57 Highway.node[7].appl relativeSpeed ETV
vector 58 Highway.node[7].appl nodeId ETV
vector 59 Highway.node[7].appl acceleration ETV
vector 60 Highway.node[7].appl controllerAcceleration ETV
vector 61 Highway.node[7].appl speed ETV
vector 62 Highway.node[7].appl posx ETV
vector 63 Highway.node[7].appl posy ETV
vector 64 Highway.node[4].prot frontDelay ETV
vector 65 Highway.node[4].prot frontDelayId ETV
vector 66 Highway.node[1].prot leaderDelay ETV
vector 67 Highway.node[1].prot leaderDelayId ETV
vector 68 Highway.node[1].prot frontDelay ETV
vector 69 Highway.node[1].prot frontDelayId ETV
vector 70 Highway.node[2].prot leaderDelay ETV
vector 71 Highway.node[2].prot leaderDelayId ETV
vector 72 Highway.node[3].prot leaderDelay ETV
vector 73 Highway.node[3].prot leaderDelayId ETV
vector 74 Highway.node[4].prot leaderDelay ETV
vector 75 Highway.node[4].prot leaderDelayId ETV
vector 76 Highway.node[5].prot leaderDelay ETV
vector 77 Highway.node[5].prot leaderDelayId ETV
vector 78 Highway.node[6].prot leaderDelay ETV
vector 79 Highway.node[6].prot leaderDelayId ETV
vector 80 Highway.node[7].prot leaderDelay ETV
vector 81 Highway.node[7].prot leaderDelayId ETV
vector 82 Highway.node[3].prot frontDelay ETV
vector 83 Highway.node[3].prot frontDelayId ETV
vector 84 Highway.node[6].prot frontDelay ETV
vector 85 Highway.node[6].prot frontDelayId ETV
vector 86 Highway.node[2].prot frontDelay ETV
vector 87 Highway.node[2].prot frontDelayId ETV
vector 88 Highway.node[5].prot frontDelay ETV
vector 89 Highway.node[5].prot frontDelayId ETV
vector 90 Highway.node[7].prot frontDelay ETV
vector 91 Highway.node[7].prot frontDelayId ETV
vector 92 Highway.node[0].prot nodeId ETV
vector 93 Highway.node[0].prot busyTime ETV
vector 94 Highway.node[0].prot collisions ETV
vector 95 Highway.node[1].prot nodeId ETV
vector 96 Highway.node[1].prot busyTime ETV
vector 97 Highway.node[1].prot collisions ETV
vector 98 Highway.node[2].prot nodeId ETV
vector 99 Highway.node[2].prot busyTime ETV
vector 100 Highway.node[2].prot collisions ETV
vector 101 Highway.node[3].prot nodeId ETV
vector 102 Highway.node[3].prot busyTime ETV
vector 103 Highway.node[3].prot collisions ETV
vector 104 Highway.node[4].prot nodeId ETV
vector 105 Highway.node[4].prot busyTime ETV
vector 106 Highway.node[4].prot collisions ETV
vector 107 Highway.node[5].prot nodeId ETV
vector 108 Highway.node[5].prot busyTime ETV
vector 109 Highway.node[5].prot collisions ETV
vector 110 Highway.node[6].prot nodeId ETV
vector 111 Highway.node[6].prot busyTime ETV
vector 112 Highway.node[6].prot collisions ETV
vector 113 Highway.node[7].prot nodeId ETV
vector 114 Highway.node[7].prot busyTime ETV
vector 115 Highway.node[7].prot collisions ETV
0	113	1.11	-1
0	659	1.21	-1
0	1205	1.31	-1
0	1751	1.41	-1
0	2297	1.51	-1
0	2843	1.61	-1
0	3389	1.71	-1
0	3935	1.81	-1
0	4481	1.91	-1
0	5035	2.01	-1
0	5581	2.11	-1
0	6127	2.21	-1
0	6673	2.31	-1
0	7219	2.41	-1
0	7765	2.51	-1
0	8311	2.61	-1
0	8857	2.71	-1
0	9403	2.81	-1
0	9949	2.91	-1
0	10503	3.01	-1
0	11049	3.11	-1
0	11595	3.21	-1
0	12141	3.31	-1
0	12687	3.41	-1
0	13233	3.51	-1
0	13779	3.61	-1
0	14325	3.71	-1
0	14871	3.81	-1
0	15417	3.91	-1
0	15971	4.01	-1
0	16517	4.11	-1
0	17063	4.21	-1
0	17609	4.31	-1
0	18155	4.41	-1
0	18701	4.51	-1
0	19247	4.61	-1
0	19793	4.71	-1
0	20339	4.81	-1
0	20885	4.91	-1
0	21439	5.01	-1
0	21985	5.11	-1
0	22531	5.21	-1
0	23077	5.31	-1
0	23623	5.41	-1
0	24169	5.51	-1
0	24715	5.61	-1
0	25261	5.71	-1
0	25807	5.81	-1
0	26353	5.91	-1
0	26907	6.01	-1
0	27453	6.11	-1
0	27999	6.21	-1
0	28545	6.31	-1
0	29091	6.41	-1
0	29637	6.51	-1
0	30183	6.61	-1
0	30729	6.71	-1
0	31275	6.81	-1
0	31821	6.91	-1
0	32375	7.01	-1
0	32921	7.11	-1
0	33467	7.21	-1
0	34013	7.31	-1
0	34559	7.41	-1
0	35105	7.51	-1
0	35651	7.61	-1
0	36197	7.71	-1
0	36743	7.81	-1
0	37289	7.91	-1
0	37843	8.01	-1
0	38389	8.11	-1
0	38935	8.21	-1
0	39481	8.31	-1
0	40027	8.41	-1
0	40573	8.51	-1
0	41119	8.61	-1
0	41665	8.71	-1
0	42211	8.81	-1
0	42757	8.91	-1
0	43311	9.01	-1
0	43857	9.11	-1
0	44403	9.21	-1
0	44949	9.31	-1
0	45495	9.41	-1
0	46041	9.51	-1
0	46587	9.61	-1
0	47133	9.71	-1
0	47679	9.81	-1
0	48225	9.91	-1
0	48853	10.01	-1
0	49406	10.11	-1
0	49959	10.21	-1
0	50512	10.31	-1
0	51065	10.41	-1
0	51618	10.51	-1
0	52171	10.61	-1
0	52724	10.71	-1
0	53277	10.81	-1
0	53830	10.91	-1
0	54391	11.01	-1
0	54944	11.11	-1
0	55497	11.21	-1
0	56050	11.31	-1
0	56603	11.41	-1
0	57156	11.51	-1
0	57709	11.61	-1
0	58262	11.71	-1
0	58815	11.81	-1
0	59368	11.91	-1
0	59929	12.01	-1
0	60482	12.11	-1
0	61035	12.21	-1
0	61588	12.31	-1
0	62141	12.41	-1
0	62694	12.51	-1
0	63247	12.61	-1
0	63800	12.71	-1
0	64353	12.81	-1
0	64906	12.91	-1
0	65467	13.01	-1
0	66020	13.11	-1
0	66573	13.21	-1
0	67126	13.31	-1
0	67679	13.41	-1
0	68232	13.51	-1
0	68785	13.61	-1
0	69338	13.71	-1
0	69891	13.81	-1
0	70444	13.91	-1
0	71005	14.01	-1
0	71558	14.11	-1
0	72111	14.21	-1
0	72664	14.31	-1
0	73217	14.41	-1
0	73770	14.51	-1
0	74323	14.61	-1
0	74876	14.71	-1
0	75429	14.81	-1
0	75982	14.91	-1
0	76543	15.01	-1
0	77096	15.11	-1
0	77649	15.21	-1
0	78202	15.31	-1
0	78755	15.41	-1
0	79308	15.51	-1
0	79861	15.61	-1
0	80414	15.71	-1
0	80967	15.81	-1
0	81520	15.91	-1
0	82081	16.01	-1
0	82634	16.11	-1
0	83187	16.21	-1
0	83740	16.31	-1
0	84293	16.41	-1
0	84846	16.51	-1
0	85399	16.61	-1
0	85952	16.71	-1
0	86505	16.81	-1
0	87058	16.91	-1
0	87619	17.01	-1
0	88172	17.11	-1
0	88725	17.21	-1
0	89278	17.31	-1
0	89831	17.41	-1
0	90384	17.51	-1
0	90937	17.61	-1
0	91490	17.71	-1
0	92043	17.81	-1
0	92596	17.91	-1
0	93157	18.01	-1
0	93710	18.11	-1
0	94263	18.21	-1
0	94816	18.31	-1
0	95369	18.41	-1
0	95922	18.51	-1
0	96475	18.61	-1
0	97028	18.71	-1
0	97581	18.81	-1
0	98134	18.91	-1
0	98695	19.01	-1
0	99248	19.11	-1
0	99801	19.21	-1
0	100354	19.31	-1
0	100907	19.41	-1
0	101460	19.51	-1
0	102013	19.61	-1
0	102566	19.71	-1
0	103119	19.81	-1
0	103672	19.91	-1
0	104233	20.01	-1
0	104786	20.11	-1
0	105339	20.21	-1
0	105892	20.31	-1
0	106445	20.41	-1
0	106998	20.51	-1
0	107551	20.61	-1
0	108104	20.71	-1
0	108657	20.81	-1
0	109210	20.91	-1
0	109771	21.01	-1
0	110324	21.11	-1
0	110877	21.21	-1
0	111430	21.31	-1
0	111983	21.41	-1
0	112536	21.51	-1
0	113089	21.61	-1
0	113642	21.71	-1
0	114195	21.81	-1
0	114748	21.91	-1
0	115309	22.01	-1
0	115862	22.11	-1
0	116415	22.21	-1
0	116968	22.31	-1
0	117521	22.41	-1
0	118074	22.51	-1
0	118627	22.61	-1
0	119180	22.71	-1
0	119733	22.81	-1
0	120286	22.91	-1
0	120847	23.01	-1
0	121400	23.11	-1
0	121953	23.21	-1
0	122506	23.31	-1
0	123059	23.41	-1
0	123612	23.51	-1
0	124165	23.61	-1
0	124718	23.71	-1
0	125271	23.81	-1
0	125824	23.91	-1
0	126385	24.01	-1
0	126938	24.11	-1
0	127491	24.21	-1
0	128044	24.31	-1
0	128597	24.41	-1
0	129150	24.51	-1
0	129703	24.61	-1
0	130256	24.71	-1
0	130809	24.81	-1
0	131362	24.91	-1
0	131923	25.01	-1
0	132476	25.11	-1
0	133029	25.21	-1
0	133582	25.31	-1
0	134135	25.41	-1
0	134688	25.51	-1
0	135241	25.61	-1
0	135794	25.71	-1
0	136347	25.81	-1
0	136900	25.91	-1
0	137461	26.01	-1
0	138014	26.11	-1
0	138567	26.21	-1
0	139120	26.31	-1
0	139673	26.41	-1
0	140226	26.51	-1
0	140779	26.61	-1
0	141332	26.71	-1
0	141885	26.81	-1
0	142438	26.91	-1
0	142999	27.01	-1
0	143552	27.11	-1
0	144105	27.21	-1
0	144658	27.31	-1
0	145211	27.41	-1
0	145764	27.51	-1
0	146317	27.61	-1
0	146870	27.71	-1
0	147423	27.81	-1
0	147976	27.91	-1
0	148537	28.01	-1
0	149090	28.11	-1
0	149643	28.21	-1
0	150196	28.31	-1
0	150749	28.41	-1
0	151302	28.51	-1
0	151855	28.61	-1
0	152408	28.71	-1
0	152961	28.81	-1
0	153514	28.91	-1
0	154075	29.01	-1
0	154628	29.11	-1
0	155181	29.21	-1
0	155734	29.31	-1
0	156287	29.41	-1
0	156840	29.51	-1
0	157393	29.61	-1
0	157946	29.71	-1
0	158499	29.81	-1
0	159052	29.91	-1
0	159613	30.01	-1
0	160166	30.11	-1
0	160719	30.21	-1
0	161272	30.31	-1
0	161825	30.41	-1
0	162378	30.51	-1
0	162931	30.61	-1
0	163484	30.71	-1
0	164037	30.81	-1
0	164590	30.91	-1
0	165151	31.01	-1
0	165704	31.11	-1
0	166257	31.21	-1
0	166810	31.31	-1
0	167363	31.41	-1
0	167916	31.51	-1
0	168469	31.61	-1
0	169022	31.71	-1
0	169575	31.81	-1
0	170128	31.91	-1
0	170689	32.01	-1
0	171242	32.11	-1
0	171795	32.21	-1
0	172348	32.31	-1
0	172901	32.41	-1
0	173454	32.51	-1
0	174007	32.61	-1
0	174560	32.71	-1
0	175113	32.81	-1
0	175666	32.91	-1
0	176227	33.01	-1
0	176780	33.11	-1
0	177333	33.21	-1
0	177886	33.31	-1
0	178439	33.41	-1
0	178992	33.51	-1
0	179545	33.61	-1
0	180098	33.71	-1
0	180651	33.81	-1
0	181204	33.91	-1
0	181765	34.01	-1
0	182318	34.11	-1
0	182871	34.21	-1
0	183424	34.31	-1
0	183977	34.41	-1
0	184530	34.51	-1
0	185083	34.61	-1
0	185636	34.71	-1
0	186189	34.81	-1
0	186742	34.91	-1
0	187303	35.01	-1
0	187856	35.11	-1
0	188409	35.21	-1
0	188962	35.31	-1
0	189515	35.41	-1
0	190068	35.51	-1
0	190621	35.61	-1
0	191174	35.71	-1
0	191727	35.81	-1
0	192280	35.91	-1
0	192841	36.01	-1
0	193394	36.11	-1
0	193947	36.21	-1
0	194500	36.31	-1
0	195053	36.41	-1
0	195606	36.51	-1
0	196159	36.61	-1
0	196712	36.71	-1
0	197265	36.81	-1
0	197818	36.91	-1
0	198379	37.01	-1
0	198932	37.11	-1
0	199485	37.21	-1
0	200038	37.31	-1
0	200591	37.41	-1
0	201144	37.51	-1
0	201697	37.61	-1
0	202250	37.71	-1
0	202803	37.81	-1
0	203356	37.91	-1
0	203917	38.01	-1
0	204470	38.11	-1
0	205023	38.21	-1
0	205576	38.31	-1
0	206129	38.41	-1
0	206682	38.51	-1
0	207235	38.61	-1
0	207788	38.71	-1
0	208341	38.81	-1
0	208894	38.91	-1
0	209455	39.01	-1
0	210008	39.11	-1
0	210561	39.21	-1
0	211114	39.31	-1
0	211667	39.41	-1
0	212220	39.51	-1
0	212773	39.61	-1
0	213326	39.71	-1
0	213879	39.81	-1
0	214432	39.91	-1
0	214993	40.01	-1
0	215546	40.11	-1
0	216099	40.21	-1
0	216652	40.31	-1
0	217205	40.41	-1
0	217758	40.51	-1
0	218311	40.61	-1
0	218864	40.71	-1
0	219417	40.81	-1
0	219970	40.91	-1
0	220531	41.01	-1
0	221084	41.11	-1
0	221637	41.21	-1
0	222190	41.31	-1
0	222743	41.41	-1
0	223296	41.51	-1
0	223849	41.61	-1
0	224402	41.71	-1
0	224955	41.81	-1
0	225508	41.91	-1
0	226069	42.01	-1
0	226622	42.11	-1
0	227175	42.21	-1
0	227728	42.31	-1
0	228281	42.41	-1
0	228834	42.51	-1
0	229387	42.61	-1
0	230033	42.71	-1
0	230585	42.81	-1
0	231137	42.91	-1
0	231697	43.01	-1
0	232249	43.11	-1
0	232801	43.21	-1
0	233353	43.31	-1
0	233905	43.41	-1
0	234457	43.51	-1
0	235009	43.61	-1
0	235561	43.71	-1
0	236113	43.81	-1
0	236665	43.91	-1
0	237225	44.01	-1
0	237777	44.11	-1
0	238329	44.21	-1
0	238881	44.31	-1
0	239433	44.41	-1
0	239985	44.51	-1
0	240537	44.61	-1
0	241089	44.71	-1
0	241641	44.81	-1
0	242193	44.91	-1
0	242753	45.01	-1
0	243305	45.11	-1
0	243857	45.21	-1
0	244409	45.31	-1
0	244961	45.41	-1
0	245513	45.51	-1
0	246065	45.61	-1
0	246617	45.71	-1
0	247169	45.81	-1
0	247721	45.91	-1
0	248281	46.01	-1
0	248833	46.11	-1
0	249385	46.21	-1
0	249937	46.31	-1
0	250489	46.41	-1
0	251041	46.51	-1
0	251593	46.61	-1
0	252145	46.71	-1
0	252697	46.81	-1
0	253249	46.91	-1
0	253809	47.01	-1
0	254361	47.11	-1
0	254913	47.21	-1
0	255465	47.31	-1
0	256017	47.41	-1
0	256569	47.51	-1
0	257121	47.61	-1
0	257673	47.71	-1
0	258225	47.81	-1
0	258777	47.91	-1
0	259337	48.01	-1
0	259889	48.11	-1
0	260441	48.21	-1
0	260993	48.31	-1
0	261545	48.41	-1
0	262190	48.51	-1
0	262741	48.61	-1
0	263292	48.71	-1
0	263843	48.81	-1
0	264394	48.91	-1
0	264953	49.01	-1
0	265504	49.11	-1
0	266055	49.21	-1
0	266606	49.31	-1
0	267157	49.41	-1
0	267708	49.51	-1
0	268259	49.61	-1
0	268810	49.71	-1
0	269361	49.81	-1
0	269912	49.91	-1
0	270471	50.01	-1
0	271022	50.11	-1
0	271573	50.21	-1
0	272124	50.31	-1
0	272675	50.41	-1
0	273226	50.51	-1
0	273777	50.61	-1
0	274328	50.71	-1
0	274879	50.81	-1
0	275430	50.91	-1
0	275989	51.01	-1
0	276540	51.11	-1
0	277091	51.21	-1
0	277642	51.31	-1
0	278193	51.41	-1
0	278744	51.51	-1
0	279295	51.61	-1
0	279846	51.71	-1
0	280397	51.81	-1
0	280948	51.91	-1
0	281507	52.01	-1
0	282058	52.11	-1
0	282609	52.21	-1
0	283160	52.31	-1
0	283711	52.41	-1
0	284262	52.51	-1
0	284813	52.61	-1
0	285364	52.71	-1
0	285915	52.81	-1
0	286466	52.91	-1
0	287025	53.01	-1
0	287576	53.11	-1
0	288127	53.21	-1
0	288678	53.31	-1
0	289229	53.41	-1
0	289780	53.51	-1
0	290331	53.61	-1
0	290882	53.71	-1
0	291526	53.81	-1
0	292076	53.91	-1
0	292634	54.01	-1
0	293184	54.11	-1
0	293734	54.21	-1
0	294284	54.31	-1
0	294834	54.41	-1
0	295384	54.51	-1
0	295934	54.61	-1
0	296484	54.71	-1
0	297034	54.81	-1
0	297584	54.91	-1
0	298142	55.01	-1
0	298692	55.11	-1
0	299242	55.21	-1
0	299792	55.31	-1
0	300342	55.41	-1
0	300892	55.51	-1
0	301442	55.61	-1
0	301992	55.71	-1
0	302542	55.81	-1
0	303092	55.91	-1
0	303650	56.01	-1
0	304200	56.11	-1
0	304750	56.21	-1
0	305300	56.31	-1
0	305850	56.41	-1
0	306400	56.51	-1
0	306950	56.61	-1
0	307500	56.71	-1
0	308050	56.81	-1
0	308600	56.91	-1
0	309158	57.01	-1
0	309708	57.11	-1
0	310258	57.21	-1
0	310808	57.31	-1
0	311358	57.41	-1
0	311908	57.51	-1
0	312458	57.61	-1
0	313008	57.71	-1
0	313558	57.81	-1
0	314108	57.91	-1
0	314666	58.01	-1
0	315216	58.11	-1
0	315766	58.21	-1
0	316316	58.31	-1
0	316866	58.41	-1
0	317416	58.51	-1
0	318059	58.61	-1
0	318608	58.71	-1
0	319157	58.81	-1
0	319706	58.91	-1
0	320263	59.01	-1
0	320812	59.11	-1
0	321361	59.21	-1
0	321910	59.31	-1
0	322459	59.41	-1
0	323008	59.51	-1
0	323557	59.61	-1
0	324106	59.71	-1
0	324655	59.81	-1
0	325204	59.91	-1
0	325761	60.01	-1
0	326310	60.11	-1
0	326859	60.21	-1
0	327408	60.31	-1
0	327957	60.41	-1
0	328506	60.51	-1
0	329055	60.61	-1
0	329604	60.71	-1
0	330153	60.81	-1
0	330702	60.91	-1
0	331259	61.01	-1
0	331808	61.11	-1
0	332357	61.21	-1
0	332906	61.31	-1
0	333455	61.41	-1
0	334004	61.51	-1
0	334553	61.61	-1
0	335102	61.71	-1
0	335651	61.81	-1
0	336200	61.91	-1
0	336757	62.01	-1
0	337306	62.11	-1
0	337855	62.21	-1
0	338404	62.31	-1
0	338953	62.41	-1
0	339502	62.51	-1
0	340051	62.61	-1
0	340600	62.71	-1
0	341149	62.81	-1
0	341698	62.91	-1
0	342255	63.01	-1
0	342804	63.11	-1
0	343353	63.21	-1
0	343995	63.31	-1
0	344543	63.41	-1
0	345091	63.51	-1
0	345639	63.61	-1
0	346187	63.71	-1
0	346735	63.81	-1
0	347283	63.91	-1
0	347839	64.01	-1
0	348387	64.11	-1
0	348935	64.21	-1
0	349483	64.31	-1
0	350031	64.41	-1
0	350579	64.51	-1
0	351127	64.61	-1
0	351675	64.71	-1
0	352223	64.81	-1
0	352771	64.91	-1
0	353327	65.01	-1
0	353875	65.11	-1
0	354423	65.21	-1
0	354971	65.31	-1
0	355519	65.41	-1
0	356067	65.51	-1
0	356615	65.61	-1
0	357163	65.71	-1
0	357711	65.81	-1
0	358259	65.91	-1
0	358815	66.01	-1
0	359363	66.11	-1
0	359911	66.21	-1
0	360459	66.31	-1
0	361007	66.41	-1
0	361555	66.51	-1
0	362103	66.61	-1
0	362651	66.71	-1
0	363199	66.81	-1
0	363747	66.91	-1
0	364303	67.01	-1
0	364851	67.11	-1
0	365399	67.21	-1
0	365947	67.31	-1
0	366495	67.41	-1
0	367043	67.51	-1
0	367591	67.61	-1
0	368232	67.71	-1
0	368779	67.81	-1
0	369326	67.91	-1
0	369881	68.01	-1
0	370428	68.11	-1
0	370975	68.21	-1
0	371522	68.31	-1
0	372069	68.41	-1
0	372616	68.51	-1
0	373163	68.61	-1
0	373710	68.71	-1
0	374257	68.81	-1
0	374804	68.91	-1
0	375359	69.01	-1
0	375906	69.11	-1
0	376453	69.21	-1
0	377000	69.31	-1
0	377547	69.41	-1
0	378094	69.51	-1
0	378641	69.61	-1
0	379188	69.71	-1
0	379735	69.81	-1
0	380282	69.91	-1
0	380837	70.01	-1
0	381384	70.11	-1
0	381931	70.21	-1
0	382478	70.31	-1
0	383025	70.41	-1
0	383572	70.51	-1
0	384119	70.61	-1
0	384666	70.71	-1
0	385213	70.81	-1
0	385760	70.91	-1
0	386315	71.01	-1
0	386862	71.11	-1
0	387409	71.21	-1
0	387956	71.31	-1
0	388503	71.41	-1
0	389050	71.51	-1
0	389597	71.61	-1
0	390144	71.71	-1
0	390691	71.81	-1
0	391238	71.91	-1
0	392537	72.01	-1
0	393083	72.11	-1
0	393629	72.21	-1
0	394175	72.31	-1
0	394721	72.41	-1
0	395267	72.51	-1
0	395813	72.61	-1
0	396359	72.71	-1
0	396905	72.81	-1
0	397451	72.91	-1
0	398005	73.01	-1
0	398551	73.11	-1
0	399097	73.21	-1
0	399643	73.31	-1
0	400189	73.41	-1
0	400735	73.51	-1
0	401281	73.61	-1
0	401827	73.71	-1
0	402373	73.81	-1
0	402919	73.91	-1
0	403473	74.01	-1
0	404019	74.11	-1
0	404565	74.21	-1
0	405111	74.31	-1
0	405657	74.41	-1
0	406203	74.51	-1
0	406749	74.61	-1
0	407295	74.71	-1
0	407841	74.81	-1
0	408387	74.91	-1
0	408941	75.01	-1
0	409487	75.11	-1
0	410033	75.21	-1
0	410579	75.31	-1
0	411125	75.41	-1
0	411671	75.51	-1
0	412217	75.61	-1
0	412763	75.71	-1
0	413309	75.81	-1
0	413855	75.91	-1
0	414409	76.01	-1
0	414955	76.11	-1
0	415501	76.21	-1
0	416047	76.31	-1
0	416593	76.41	-1
0	417139	76.51	-1
0	417685	76.61	-1
0	418231	76.71	-1
0	418777	76.81	-1
0	419323	76.91	-1
0	419877	77.01	-1
0	420423	77.11	-1
0	420969	77.21	-1
0	421515	77.31	-1
0	422061	77.41	-1
0	422607	77.51	-1
0	423153	77.61	-1
0	423699	77.71	-1
0	424245	77.81	-1
0	424791	77.91	-1
0	425345	78.01	-1
0	425891	78.11	-1
0	426437	78.21	-1
0	426983	78.31	-1
0	427529	78.41	-1
0	428075	78.51	-1
0	428621	78.61	-1
0	429167	78.71	-1
0	429713	78.81	-1
0	430259	78.91	-1
0	430813	79.01	-1
0	431359	79.11	-1
0	431905	79.21	-1
0	432451	79.31	-1
0	432997	79.41	-1
0	433543	79.51	-1
0	434089	79.61	-1
0	434635	79.71	-1
0	435181	79.81	-1
0	435727	79.91	-1
0	436281	80.01	-1
0	436827	80.11	-1
0	437373	80.21	-1
0	437919	80.31	-1
0	438465	80.41	-1
0	439011	80.51	-1
0	439557	80.61	-1
0	440103	80.71	-1
0	440649	80.81	-1
0	441195	80.91	-1
0	441749	81.01	-1
0	442295	81.11	-1
0	442841	81.21	-1
0	443387	81.31	-1
0	443933	81.41	-1
0	444479	81.51	-1
0	445025	81.61	-1
0	445571	81.71	-1
0	446117	81.81	-1
0	446663	81.91	-1
0	447217	82.01	-1
0	447763	82.11	-1
0	448309	82.21	-1
0	448855	82.31	-1
0	449401	82.41	-1
0	449947	82.51	-1
0	450493	82.61	-1
0	451039	82.71	-1
0	451585	82.81	-1
0	452131	82.91	-1
0	452685	83.01	-1
0	453231	83.11	-1
0	453777	83.21	-1
0	454323	83.31	-1
0	454869	83.41	-1
0	455415	83.51	-1
0	455961	83.61	-1
0	456507	83.71	-1
0	457053	83.81	-1
0	457599	83.91	-1
0	458153	84.01	-1
0	458699	84.11	-1
0	459245	84.21	-1
0	459791	84.31	-1
0	460337	84.41	-1
0	460883	84.51	-1
0	461429	84.61	-1
0	461975	84.71	-1
0	462521	84.81	-1
0	463067	84.91	-1
0	463621	85.01	-1
0	464167	85.11	-1
0	464713	85.21	-1
0	465259	85.31	-1
0	465805	85.41	-1
0	466351	85.51	-1
0	466897	85.61	-1
0	467443	85.71	-1
0	467989	85.81	-1
0	468535	85.91	-1
0	469089	86.01	-1
0	469635	86.11	-1
0	470181	86.21	-1
0	470727	86.31	-1
0	471273	86.41	-1
0	471819	86.51	-1
0	472365	86.61	-1
0	472911	86.71	-1
0	473457	86.81	-1
0	474003	86.91	-1
0	474557	87.01	-1
0	475103	87.11	-1
0	475649	87.21	-1
0	476195	87.31	-1
0	476741	87.41	-1
0	477287	87.51	-1
0	477833	87.61	-1
0	478379	87.71	-1
0	478925	87.81	-1
0	479471	87.91	-1
0	480025	88.01	-1
0	480571	88.11	-1
0	481117	88.21	-1
0	481663	88.31	-1
0	482209	88.41	-1
0	482755	88.51	-1
0	483301	88.61	-1
0	483847	88.71	-1
0	484393	88.81	-1
0	484939	88.91	-1
0	485493	89.01	-1
0	486039	89.11	-1
0	486585	89.21	-1
0	487131	89.31	-1
0	487677	89.41	-1
0	488223	89.51	-1
0	488769	89.61	-1
0	489315	89.71	-1
0	489861	89.81	-1
0	490407	89.91	-1
0	490961	90.01	-1
0	491507	90.11	-1
0	492053	90.21	-1
0	492599	90.31	-1
0	493145	90.41	-1
0	493691	90.51	-1
0	494237	90.61	-1
0	494783	90.71	-1
0	495329	90.81	-1
0	495875	90.91	-1
0	496429	91.01	-1
0	496975	91.11	-1
0	497521	91.21	-1
0	498067	91.31	-1
0	498613	91.41	-1
0	499159	91.51	-1
0	499705	91.61	-1
0	500251	91.71	-1
0	500797	91.81	-1
0	501343	91.91	-1
0	501897	92.01	-1
0	502443	92.11	-1
0	502989	92.21	-1
0	503535	92.31	-1
0	504081	92.41	-1
0	504627	92.51	-1
0	505173	92.61	-1
0	505719	92.71	-1
0	506265	92.81	-1
0	506811	92.91	-1
0	507365	93.01	-1
0	507911	93.11	-1
0	508457	93.21	-1
0	509003	93.31	-1
0	509549	93.41	-1
0	510095	93.51	-1
0	510641	93.61	-1
0	511187	93.71	-1
0	511733	93.81	-1
0	512279	93.91	-1
0	512833	94.01	-1
0	513379	94.11	-1
0	513925	94.21	-1
0	514471	94.31	-1
0	515017	94.41	-1
0	515563	94.51	-1
0	516109	94.61	-1
0	516655	94.71	-1
0	517201	94.81	-1
0	517747	94.91	-1
0	518301	95.01	-1
0	518847	95.11	-1
0	519393	95.21	-1
0	519939	95.31	-1
0	520485	95.41	-1
0	521031	95.51	-1
0	521577	95.61	-1
0	522123	95.71	-1
0	522669	95.81	-1
0	523215	95.91	-1
0	523769	96.01	-1
0	524315	96.11	-1
0	524861	96.21	-1
0	525407	96.31	-1
0	525953	96.41	-1
0	526499	96.51	-1
0	527045	96.61	-1
0	527591	96.71	-1
0	528137	96.81	-1
0	528683	96.91	-1
0	529237	97.01	-1
0	529783	97.11	-1
0	530329	97.21	-1
0	530875	97.31	-1
0	531421	97.41	-1
0	531967	97.51	-1
0	532513	97.61	-1
0	533059	97.71	-1
0	533605	97.81	-1
0	534151	97.91	-1
0	534705	98.01	-1
0	535251	98.11	-1
0	535797	98.21	-1
0	536343	98.31	-1
0	536889	98.41	-1
0	537435	98.51	-1
0	537981	98.61	-1
0	538527	98.71	-1
0	539073	98.81	-1
0	539619	98.91	-1
0	540173	99.01	-1
0	540719	99.11	-1
0	541265	99.21	-1
0	541811	99.31	-1
0	542357	99.41	-1
0	542903	99.51	-1
0	543449	99.61	-1
0	543995	99.71	-1
0	544541	99.81	-1
0	545087	99.91	-1
1	113	1.11	0
1	659	1.21	0
1	1205	1.31	0
1	1751	1.41	0
1	2297	1.51	0
1	2843	1.61	0
1	3389	1.71	0
1	3935	1.81	0
1	4481	1.91	0
1	5035	2.01	0
1	5581	2.11	0
1	6127	2.21	0
1	6673	2.31	0
1	7219	2.41	0
1	7765	2.51	0
1	8311	2.61	0
1	8857	2.71	0
1	9403	2.81	0
1	9949	2.91	0
1	10503	3.01	0
1	11049	3.11	0
1	11595	3.21	0
1	12141	3.31	0
1	12687	3.41	0
1	13233	3.51	0
1	13779	3.61	0
1	14325	3.71	0
1	14871	3.81	0
1	15417	3.91	0
1	15971	4.01	0
1	16517	4.11	0
1	17063	4.21	0
1	17609	4.31	0
1	18155	4.41	0
1	18701	4.51	0
1	19247	4.61	0
1	19793	4.71	0
1	20339	4.81	0
1	20885	4.91	0
1	21439	5.01	0
1	21985	5.11	0
1	22531	5.21	0
1	23077	5.31	0
1	23623	5.41	0
1	24169	5.51	0
1	24715	5.61	0
1	25261	5.71	0
1	25807	5.81	0
1	26353	5.91	0
1	26907	6.01	0
1	27453	6.11	0
1	27999	6.21	0
1	28545	6.31	0
1	29091	6.41	0
1	29637	6.51	0
1	30183	6.61	0
1	30729	6.71	0
1	31275	6.81	0
1	31821	6.91	0
1	32375	7.01	0
1	32921	7.11	0
1	33467	7.21	0
1	34013	7.31	0
1	34559	7.41	0
1	35105	7.51	0
1	35651	7.61	0
1	36197	7.71	0
1	36743	7.81	0
1	37289	7.91	0
1	37843	8.01	0
1	38389	8.11	0
1	38935	8.21	0
1	39481	8.31	0
1	40027	8.41	0
1	40573	8.51	0
1	41119	8.61	0
1	41665	8.71	0
1	42211	8.81	0
1	42757	8.91	0
1	43311	9.01	0
1	43857	9.11	0
1	44403	9.21	0
1	44949	9.31	0
1	45495	9.41	0
1	46041	9.51	0
1	46587	9.61	0
1	47133	9.71	0
1	47679	9.81	0
1	48225	9.91	0
1	48853	10.01	0
1	49406	10.11	0
1	49959	10.21	0
1	50512	10.31	0
1	51065	10.41	0
1	51618	10.51	0
1	52171	10.61	0
1	52724	10.71	0
1	53277	10.81	0
1	53830	10.91	0
1	54391	11.01	0
1	54944	11.11	0
1	55497	11.21	0
1	56050	11.31	0
1	56603	11.41	0
1	57156	11.51	0
1	57709	11.61	0
1	58262	11.71	0
1	58815	11.81	0
1	59368	11.91	0
1	59929	12.01	0
1	60482	12.11	0
1	61035	12.21	0
1	61588	12.31	0
1	62141	12.41	0
1	62694	12.51	0
1	63247	12.61	0
1	63800	12.71	0
1	64353	12.81	0
1	64906	12.91	0
1	65467	13.01	0
1	66020	13.11	0
1	66573	13.21	0
1	67126	13.31	0
1	67679	13.41	0
1	68232	13.51	0
1	68785	13.61	0
1	69338	13.71	0
1	69891	13.81	0
1	70444	13.91	0
1	71005	14.01	0
1	71558	14.11	0
1	72111	14.21	0
1	72664	14.31	0
1	73217	14.41	0
1	73770	14.51	0
1	74323	14.61	0
1	74876	14.71	0
1	75429	14.81	0
1	75982	14.91	0
1	76543	15.01	0
1	77096	15.11	0
1	77649	15.21	0
1	78202	15.31	0
1	78755	15.41	0
1	79308	15.51	0
1	79861	15.61	0
1	80414	15.71	0
1	80967	15.81	0
1	81520	15.91	0
1	82081	16.01	0
1	82634	16.11	0
1	83187	16.21	0
1	83740	16.31	0
1	84293	16.41	0
1	84846	16.51	0
1	85399	16.61	0
1	85952	16.71	0
1	86505	16.81	0
1	87058	16.91	0
1	87619	17.01	0
1	88172	17.11	0
1	88725	17.21	0
1	89278	17.31	0
1	89831	17.41	0
1	90384	17.51	0
1	90937	17.61	0
1	91490	17.71	0
1	92043	17.81	0
1	92596	17.91	0
1	93157	18.01	0
1	93710	18.11	0
1	94263	18.21	0
1	94816	18.31	0
1	95369	18.41	0
1	95922	18.51	0
1	96475	18.61	0
1	97028	18.71	0
1	97581	18.81	0
1	98134	18.91	0
1	98695	19.01	0
1	99248	19.11	0
1	99801	19.21	0
1	100354	19.31	0
1	100907	19.41	0
1	101460	19.51	0
1	102013	19.61	0
1	102566	19.71	0
1	103119	19.81	0
1	103672	19.91	0
1	104233	20.01	0
1	104786	20.11	0
1	105339	20.21	0
1	105892	20.31	0
1	106445	20.41	0
1	106998	20.51	0
1	107551	20.61	0
1	108104	20.71	0
1	108657	20.81	0
1	109210	20.91	0
1	109771	21.01	0
1	110324	21.11	0
1	110877	21.21	0
1	111430	21.31	0
1	111983	21.41	0
1	112536	21.51	0
1	113089	21.61	0
1	113642	21.71	0
1	114195	21.81	0
1	114748	21.91	0
1	115309	22.01	0
1	115862	22.11	0
1	116415	22.21	0
1	116968	22.31	0
1	117521	22.41	0
1	118074	22.51	0
1	118627	22.61	0
1	119180	22.71	0
1	119733	22.81	0
1	120286	22.91	0
1	120847	23.01	0
1	121400	23.11	0
1	121953	23.21	0
1	122506	23.31	0
1	123059	23.41	0
1	123612	23.51	0
1	124165	23.61	0
1	124718	23.71	0
1	125271	23.81	0
1	125824	23.91	0
1	126385	24.01	0
1	126938	24.11	0
1	127491	24.21	0
1	128044	24.31	0
1	128597	24.41	0
1	129150	24.51	0
1	129703	24.61	0
1	130256	24.71	0
1	130809	24.81	0
1	131362	24.91	0
1	131923	25.01	0
1	132476	25.11	0
1	133029	25.21	0
1	133582	25.31	0
1	134135	25.41	0
1	134688	25.51	0
1	135241	25.61	0
1	135794	25.71	0
1	136347	25.81	0
1	136900	25.91	0
1	137461	26.01	0
1	138014	26.11	0
1	138567	26.21	0
1	139120	26.31	0
1	139673	26.41	0
1	140226	26.51	0
1	140779	26.61	0
1	141332	26.71	0
1	141885	26.81	0
1	142438	26.91	0
1	142999	27.01	0
1	143552	27.11	0
1	144105	27.21	0
1	144658	27.31	0
1	145211	27.41	0
1	145764	27.51	0
1	146317	27.61	0
1	146870	27.71	0
1	147423	27.81	0
1	147976	27.91	0
1	148537	28.01	0
1	149090	28.11	0
1	149643	28.21	0
1	150196	28.31	0
1	150749	28.41	0
1	151302	28.51	0
1	151855	28.61	0
1	152408	28.71	0
1	152961	28.81	0
1	153514	28.91	0
1	154075	29.01	0
1	154628	29.11	0
1	155181	29.21	0
1	155734	29.31	0
1	156287	29.41	0
1	156840	29.51	0
1	157393	29.61	0
1	157946	29.71	0
1	158499	29.81	0
1	159052	29.91	0
1	159613	30.01	0
1	160166	30.11	0
1	160719	30.21	0
1	161272	30.31	0
1	161825	30.41	0
1	162378	30.51	0
1	162931	30.61	0
1	163484	30.71	0
1	164037	30.81	0
1	164590	30.91	0
1	165151	31.01	0
1	165704	31.11	0
1	166257	31.21	0
1	166810	31.31	0
1	167363	31.41	0
1	167916	31.51	0
1	168469	31.61	0
1	169022	31.71	0
1	169575	31.81	0
1	170128	31.91	0
1	170689	32.01	0
1	171242	32.11	0
1	171795	32.21	0
1	172348	32.31	0
1	172901	32.41	0
1	173454	32.51	0
1	174007	32.61	0
1	174560	32.71	0
1	175113	32.81	0
1	175666	32.91	0
1	176227	33.01	0
1	176780	33.11	0
1	177333	33.21	0
1	177886	33.31	0
1	178439	33.41	0
1	178992	33.51	0
1	179545	33.61	0
1	180098	33.71	0
1	180651	33.81	0
1	181204	33.91	0
1	181765	34.01	0
1	182318	34.11	0
1	182871	34.21	0
1	183424	34.31	0
1	183977	34.41	0
1	184530	34.51	0
1	185083	34.61	0
1	185636	34.71	0
1	186189	34.81	0
1	186742	34.91	0
1	187303	35.01	0
1	187856	35.11	0
1	188409	35.21	0
1	188962	35.31	0
1	189515	35.41	0
1	190068	35.51	0
1	190621	35.61	0
1	191174	35.71	0
1	191727	35.81	0
1	192280	35.91	0
1	192841	36.01	0
1	193394	36.11	0
1	193947	36.21	0
1	194500	36.31	0
1	195053	36.41	0
1	195606	36.51	0
1	196159	36.61	0
1	196712	36.71	0
1	197265	36.81	0
1	197818	36.91	0
1	198379	37.01	0
1	198932	37.11	0
1	199485	37.21	0
1	200038	37.31	0
1	200591	37.41	0
1	201144	37.51	0
1	201697	37.61	0
1	202250	37.71	0
1	202803	37.81	0
1	203356	37.91	0
1	203917	38.01	0
1	204470	38.11	0
1	205023	38.21	0
1	205576	38.31	0
1	206129	38.41	0
1	206682	38.51	0
1	207235	38.61	0
1	207788	38.71	0
1	208341	38.81	0
1	208894	38.91	0
1	209455	39.01	0
1	210008	39.11	0
1	210561	39.21	0
1	211114	39.31	0
1	211667	39.41	0
1	212220	39.51	0
1	212773	39.61	0
1	213326	39.71	0
1	213879	39.81	0
1	214432	39.91	0
1	214993	40.01	0
1	215546	40.11	0
1	216099	40.21	0
1	216652	40.31	0
1	217205	40.41	0
1	217758	40.51	0
1	218311	40.61	0
1	218864	40.71	0
1	219417	40.81	0
1	219970	40.91	0
1	220531	41.01	0
1	221084	41.11	0
1	221637	41.21	0
1	222190	41.31	0
1	222743	41.41	0
1	223296	41.51	0
1	223849	41.61	0
1	224402	41.71	0
1	224955	41.81	0
1	225508	41.91	0
1	226069	42.01	0
1	226622	42.11	0
1	227175	42.21	0
1	227728	42.31	0
1	228281	42.41	0
1	228834	42.51	0
1	229387	42.61	0
1	230033	42.71	0
1	230585	42.81	0
1	231137	42.91	0
1	231697	43.01	0
1	232249	43.11	0
1	232801	43.21	0
1	233353	43.31	0
1	233905	43.41	0
1	234457	43.51	0
1	235009	43.61	0
1	235561	43.71	0
1	236113	43.81	0
1	236665	43.91	0
1	237225	44.01	0
1	237777	44.11	0
1	238329	44.21	0
1	238881	44.31	0
1	239433	44.41	0
1	239985	44.51	0
1	240537	44.61	0
1	241089	44.71	0
1	241641	44.81	0
1	242193	44.91	0
1	242753	45.01	0
1	243305	45.11	0
1	243857	45.21	0
1	244409	45.31	0
1	244961	45.41	0
1	245513	45.51	0
1	246065	45.61	0
1	246617	45.71	0
1	247169	45.81	0
1	247721	45.91	0
1	248281	46.01	0
1	248833	46.11	0
1	249385	46.21	0
1	249937	46.31	0
1	250489	46.41	0
1	251041	46.51	0
1	251593	46.61	0
1	252145	46.71	0
1	252697	46.81	0
1	253249	46.91	0
1	253809	47.01	0
1	254361	47.11	0
1	254913	47.21	0
1	255465	47.31	0
1	256017	47.41	0
1	256569	47.51	0
1	257121	47.61	0
1	257673	47.71	0
1	258225	47.81	0
1	258777	47.91	0
1	259337	48.01	0
1	259889	48.11	0
1	260441	48.21	0
1	260993	48.31	0
1	261545	48.41	0
1	262190	48.51	0
1	262741	48.61	0
1	263292	48.71	0
1	263843	48.81	0
1	264394	48.91	0
1	264953	49.01	0
1	265504	49.11	0
1	266055	49.21	0
1	266606	49.31	0
1	267157	49.41	0
1	267708	49.51	0
1	268259	49.61	0
1	268810	49.71	0
1	269361	49.81	0
1	269912	49.91	0
1	270471	50.01	0
1	271022	50.11	0
1	271573	50.21	0
1	272124	50.31	0
1	272675	50.41	0
1	273226	50.51	0
1	273777	50.61	0
1	274328	50.71	0
1	274879	50.81	0
1	275430	50.91	0
1	275989	51.01	0
1	276540	51.11	0
1	277091	51.21	0
1	277642	51.31	0
1	278193	51.41	0
1	278744	51.51	0
1	279295	51.61	0
1	279846	51.71	0
1	280397	51.81	0
1	280948	51.91	0
1	281507	52.01	0
1	282058	52.11	0
1	282609	52.21	0
1	283160	52.31	0
1	283711	52.41	0
1	284262	52.51	0
1	284813	52.61	0
1	285364	52.71	0
1	285915	52.81	0
1	286466	52.91	0
1	287025	53.01	0
1	287576	53.11	0
1	288127	53.21	0
1	288678	53.31	0
1	289229	53.41	0
1	289780	53.51	0
1	290331	53.61	0
1	290882	53.71	0
1	291526	53.81	0
1	292076	53.91	0
1	292634	54.01	0
1	293184	54.11	0
1	293734	54.21	0
1	294284	54.31	0
1	294834	54.41	0
1	295384	54.51	0
1	295934	54.61	0
1	296484	54.71	0
1	297034	54.81	0
1	297584	54.91	0
1	298142	55.01	0
1	298692	55.11	0
1	299242	55.21	0
1	299792	55.31	0
1	300342	55.41	0
1	300892	55.51	0
1	301442	55.61	0
1	301992	55.71	0
1	302542	55.81	0
1	303092	55.91	0
1	303650	56.01	0
1	304200	56.11	0
1	304750	56.21	0
1	305300	56.31	0
1	305850	56.41	0
1	306400	56.51	0
1	306950	56.61	0
1	307500	56.71	0
1	308050	56.81	0
1	308600	56.91	0
1	309158	57.01	0
1	309708	57.11	0
1	310258	57.21	0
1	310808	57.31	0
1	311358	57.41	0
1	311908	57.51	0
1	312458	57.61	0
1	313008	57.71	0
1	313558	57.81	0
1	314108	57.91	0
1	314666	58.01	0
1	315216	58.11	0
1	315766	58.21	0
1	316316	58.31	0
1	316866	58.41	0
1	317416	58.51	0
1	318059	58.61	0
1	318608	58.71	0
1	319157	58.81	0
1	319706	58.91	0
1	320263	59.01	0
1	320812	59.11	0
1	321361	59.21	0
1	321910	59.31	0
1	322459	59.41	0
1	323008	59.51	0
1	323557	59.61	0
1	324106	59.71	0
1	324655	59.81	0
1	325204	59.91	0
1	325761	60.01	0
1	326310	60.11	0
1	326859	60.21	0
1	327408	60.31	0
1	327957	60.41	0
1	328506	60.51	0
1	329055	60.61	0
1	329604	60.71	0
1	330153	60.81	0
1	330702	60.91	0
1	331259	61.01	0
1	331808	61.11	0
1	332357	61.21	0
1	332906	61.31	0
1	333455	61.41	0
1	334004	61.51	0
1	334553	61.61	0
1	335102	61.71	0
1	335651	61.81	0
1	336200	61.91	0
1	336757	62.01	0
1	337306	62.11	0
1	337855	62.21	0
1	338404	62.31	0
1	338953	62.41	0
1	339502	62.51	0
1	340051	62.61	0
1	340600	62.71	0
1	341149	62.81	0
1	341698	62.91	0
1	342255	63.01	0
1	342804	63.11	0
1	343353	63.21	0
1	343995	63.31	0
1	344543	63.41	0
1	345091	63.51	0
1	345639	63.61	0
1	346187	63.71	0
1	346735	63.81	0
1	347283	63.91	0
1	347839	64.01	0
1	348387	64.11	0
1	348935	64.21	0
1	349483	64.31	0
1	350031	64.41	0
1	350579	64.51	0
1	351127	64.61	0
1	351675	64.71	0
1	352223	64.81	0
1	352771	64.91	0
1	353327	65.01	0
1	353875	65.11	0
1	354423	65.21	0
1	354971	65.31	0
1	355519	65.41	0
1	356067	65.51	0
1	356615	65.61	0
1	357163	65.71	0
1	357711	65.81	0
1	358259	65.91	0
1	358815	66.01	0
1	359363	66.11	0
1	359911	66.21	0
1	360459	66.31	0
1	361007	66.41	0
1	361555	66.51	0
1	362103	66.61	0
1	362651	66.71	0
1	363199	66.81	0
1	363747	66.91	0
1	364303	67.01	0
1	364851	67.11	0
1	365399	67.21	0
1	365947	67.31	0
1	366495	67.41	0
1	367043	67.51	0
1	367591	67.61	0
1	368232	67.71	0
1	368779	67.81	0
1	369326	67.91	0
1	369881	68.01	0
1	370428	68.11	0
1	370975	68.21	0
1	371522	68.31	0
1	372069	68.41	0
1	372616	68.51	0
1	373163	68.61	0
1	373710	68.71	0
1	374257	68.81	0
1	374804	68.91	0
1	375359	69.01	0
1	375906	69.11	0
1	376453	69.21	0
1	377000	69.31	0
1	377547	69.41	0
1	378094	69.51	0
1	378641	69.61	0
1	379188	69.71	0
1	379735	69.81	0
1	380282	69.91	0
1	380837	70.01	0
1	381384	70.11	0
1	381931	70.21	0
1	382478	70.31	0
1	383025	70.41	0
1	383572	70.51	0
1	384119	70.61	0
1	384666	70.71	0
1	385213	70.81	0
1	385760	70.91	0
1	386315	71.01	0
1	386862	71.11	0
1	387409	71.21	0
1	387956	71.31	0
1	388503	71.41	0
1	389050	71.51	0
1	389597	71.61	0
1	390144	71.71	0
1	390691	71.81	0
1	391238	71.91	0
1	392537	72.01	0
1	393083	72.11	0
1	393629	72.21	0
1	394175	72.31	0
1	394721	72.41	0
1	395267	72.51	0
1	395813	72.61	0
1	396359	72.71	0
1	396905	72.81	0
1	397451	72.91	0
1	398005	73.01	0
1	398551	73.11	0
1	399097	73.21	0
1	399643	73.31	0
1	400189	73.41	0
1	400735	73.51	0
1	401281	73.61	0
1	401827	73.71	0
1	402373	73.81	0
1	402919	73.91	0
1	403473	74.01	0
1	404019	74.11	0
1	404565	74.21	0
1	405111	74.31	0
1	405657	74.41	0
1	406203	74.51	0
1	406749	74.61	0
1	407295	74.71	0
1	407841	74.81	0
1	408387	74.91	0
1	408941	75.01	0
1	409487	75.11	0
1	410033	75.21	0
1	410579	75.31	0
1	411125	75.41	0
1	411671	75.51	0
1	412217	75.61	0
1	412763	75.71	0
1	413309	75.81	0
1	413855	75.91	0
1	414409	76.01	0
1	414955	76.11	0
1	415501	76.21	0
1	416047	76.31	0
1	416593	76.41	0
1	417139	76.51	0
1	417685	76.61	0
1	418231	76.71	0
1	418777	76.81	0
1	419323	76.91	0
1	419877	77.01	0
1	420423	77.11	0
1	420969	77.21	0
1	421515	77.31	0
1	422061	77.41	0
1	422607	77.51	0
1	423153	77.61	0
1	423699	77.71	0
1	424245	77.81	0
1	424791	77.91	0
1	425345	78.01	0
1	425891	78.11	0
1	426437	78.21	0
1	426983	78.31	0
1	427529	78.41	0
1	428075	78.51	0
1	428621	78.61	0
1	429167	78.71	0
1	429713	78.81	0
1	430259	78.91	0
1	430813	79.01	0
1	431359	79.11	0
1	431905	79.21	0
1	432451	79.31	0
1	432997	79.41	0
1	433543	79.51	0
1	434089	79.61	0
1	434635	79.71	0
1	435181	79.81	0
1	435727	79.91	0
1	436281	80.01	0
1	436827	80.11	0
1	437373	80.21	0
1	437919	80.31	0
1	438465	80.41	0
1	439011	80.51	0
1	439557	80.61	0
1	440103	80.71	0
1	440649	80.81	0
1	441195	80.91	0
1	441749	81.01	0
1	442295	81.11	0
1	442841	81.21	0
1	443387	81.31	0
1	443933	81.41	0
1	444479	81.51	0
1	445025	81.61	0
1	445571	81.71	0
1	446117	81.81	0
1	446663	81.91	0
1	447217	82.01	0
1	447763	82.11	0
1	448309	82.21	0
1	448855	82.31	0
1	449401	82.41	0
1	449947	82.51	0
1	450493	82.61	0
1	451039	82.71	0
1	451585	82.81	0
1	452131	82.91	0
1	452685	83.01	0
1	453231	83.11	0
1	453777	83.21	0
1	454323	83.31	0
1	454869	83.41	0
1	455415	83.51	0
1	455961	83.61	0
1	456507	83.71	0
1	457053	83.81	0
1	457599	83.91	0
1	458153	84.01	0
1	458699	84.11	0
1	459245	84.21	0
1	459791	84.31	0
1	460337	84.41	0
1	460883	84.51	0
1	461429	84.61	0
1	461975	84.71	0
1	462521	84.81	0
1	463067	84.91	0
1	463621	85.01	0
1	464167	85.11	0
1	464713	85.21	0
1	465259	85.31	0
1	465805	85.41	0
1	466351	85.51	0
1	466897	85.61	0
1	467443	85.71	0
1	467989	85.81	0
1	468535	85.91	0
1	469089	86.01	0
1	469635	86.11	0
1	470181	86.21	0
1	470727	86.31	0
1	471273	86.41	0
1	471819	86.51	0
1	472365	86.61	0
1	472911	86.71	0
1	473457	86.81	0
1	474003	86.91	0
1	474557	87.01	0
1	475103	87.11	0
1	475649	87.21	0
1	476195	87.31	0
1	476741	87.41	0
1	477287	87.51	0
1	477833	87.61	0
1	478379	87.71	0
1	478925	87.81	0
1	479471	87.91	0
1	480025	88.01	0
1	480571	88.11	0
1	481117	88.21	0
1	481663	88.31	0
1	482209	88.41	0
1	482755	88.51	0
1	483301	88.61	0
1	483847	88.71	0
1	484393	88.81	0
1	484939	88.91	0
1	485493	89.01	0
1	486039	89.11	0
1	486585	89.21	0
1	487131	89.31	0
1	487677	89.41	0
1	488223	89.51	0
1	488769	89.61	0
1	489315	89.71	0
1	489861	89.81	0
1	490407	89.91	0
1	490961	90.01	0
1	491507	90.11	0
1	492053	90.21	0
1	492599	90.31	0
1	493145	90.41	0
1	493691	90.51	0
1	494237	90.61	0
1	494783	90.71	0
1	495329	90.81	0
1	495875	90.91	0
1	496429	91.01	0
1	496975	91.11	0
1	497521	91.21	0
1	498067	91.31	0
1	498613	91.41	0
1	499159	91.51	0
1	499705	91.61	0
1	500251	91.71	0
1	500797	91.81	0
1	501343	91.91	0
1	501897	92.01	0
1	502443	92.11	0
1	502989	92.21	0
1	503535	92.31	0
1	504081	92.41	0
1	504627	92.51	0
1	505173	92.61	0
1	505719	92.71	0
1	506265	92.81	0
1	506811	92.91	0
1	507365	93.01	0
1	507911	93.11	0
1	508457	93.21	0
1	509003	93.31	0
1	509549	93.41	0
1	510095	93.51	0
1	510641	93.61	0
1	511187	93.71	0
1	511733	93.81	0
1	512279	93.91	0
1	512833	94.01	0
1	513379	94.11	0
1	513925	94.21	0
1	514471	94.31	0
1	515017	94.41	0
1	515563	94.51	0
1	516109	94.61	0
1	516655	94.71	0
1	517201	94.81	0
1	517747	94.91	0
1	518301	95.01	0
1	518847	95.11	0
1	519393	95.21	0
1	519939	95.31	0
1	520485	95.41	0
1	521031	95.51	0
1	521577	95.61	0
1	522123	95.71	0
1	522669	95.81	0
1	523215	95.91	0
1	523769	96.01	0
1	524315	96.11	0
1	524861	96.21	0
1	525407	96.31	0
1	525953	96.41	0
1	526499	96.51	0
1	527045	96.61	0
1	527591	96.71	0
1	528137	96.81	0
1	528683	96.91	0
1	529237	97.01	0
1	529783	97.11	0
1	530329	97.21	0
1	530875	97.31	0
1	531421	97.41	0
1	531967	97.51	0
1	532513	97.61	0
1	533059	97.71	0
1	533605	97.81	0
1	534151	97.91	0
1	534705	98.01	0
1	535251	98.11	0
1	535797	98.21	0
1	536343	98.31	0
1	536889	98.41	0
1	537435	98.51	0
1	537981	98.61	0
1	538527	98.71	0
1	539073	98.81	0
1	539619	98.91	0
1	540173	99.01	0
1	540719	99.11	0
1	541265	99.21	0
1	541811	99.31	0
1	542357	99.41	0
1	542903	99.51	0
1	543449	99.61	0
1	543995	99.71	0
1	544541	99.81	0
1	545087	99.91	0
2	113	1.11	0
2	659	1.21	0
2	1205	1.31	0
2	1751	1.41	0
2	2297	1.51	0
2	2843	1.61	0
2	3389	1.71	0
2	3935	1.81	0
2	4481	1.91	0
2	5035	2.01	0
2	5581	2.11	0
2	6127	2.21	0
2	6673	2.31	0
2	7219	2.41	0
2	7765	2.51	0
2	8311	2.61	0
2	8857	2.71	0
2	9403	2.81	0
2	9949	2.91	0
2	10503	3.01	0
2	11049	3.11	0
2	11595	3.21	0
2	12141	3.31	0
2	12687	3.41	0
2	13233	3.51	0
2	13779	3.61	0
2	14325	3.71	0
2	14871	3.81	0
2	15417	3.91	0
2	15971	4.01	0
2	16517	4.11	0
2	17063	4.21	0
2	17609	4.31	0
2	18155	4.41	0
2	18701	4.51	0
2	19247	4.61	0
2	19793	4.71	0
2	20339	4.81	0
2	20885	4.91	0
2	21439	5.01	0
2	21985	5.11	0
2	22531	5.21	0
2	23077	5.31	0
2	23623	5.41	0
2	24169	5.51	0
2	24715	5.61	0
2	25261	5.71	0
2	25807	5.81	0
2	26353	5.91	0
2	26907	6.01	0
2	27453	6.11	0
2	27999	6.21	0
2	28545	6.31	0
2	29091	6.41	0
2	29637	6.51	0
2	30183	6.61	0
2	30729	6.71	0
2	31275	6.81	0
2	31821	6.91	0
2	32375	7.01	0
2	32921	7.11	0
2	33467	7.21	0
2	34013	7.31	0
2	34559	7.41	0
2	35105	7.51	0
2	35651	7.61	0
2	36197	7.71	0
2	36743	7.81	0
2	37289	7.91	0
2	37843	8.01	0
2	38389	8.11	0
2	38935	8.21	0
2	39481	8.31	0
2	40027	8.41	0
2	40573	8.51	0
2	41119	8.61	0
2	41665	8.71	0
2	42211	8.81	0
2	42757	8.91	0
2	43311	9.01	0
2	43857	9.11	0
2	44403	9.21	0
2	44949	9.31	0
2	45495	9.41	0
2	46041	9.51	0
2	46587	9.61	0
2	47133	9.71	0
2	47679	9.81	0
2	48225	9.91	0
2	48853	10.01	0
2	49406	10.11	0
2	49959	10.21	0
2	50512	10.31	0
2	51065	10.41	0
2	51618	10.51	0
2	52171	10.61	0
2	52724	10.71	0
2	53277	10.81	0
2	53830	10.91	0
2	54391	11.01	0
2	54944	11.11	0
2	55497	11.21	0
2	56050	11.31	0
2	56603	11.41	0
2	57156	11.51	0
2	57709	11.61	0
2	58262	11.71	0
2	58815	11.81	0
2	59368	11.91	0
2	59929	12.01	0
2	60482	12.11	0
2	61035	12.21	0
2	61588	12.31	0
2	62141	12.41	0
2	62694	12.51	0
2	63247	12.61	0
2	63800	12.71	0
2	64353	12.81	0
2	64906	12.91	0
2	65467	13.01	0
2	66020	13.11	0
2	66573	13.21	0
2	67126	13.31	0
2	67679	13.41	0
2	68232	13.51	0
2	68785	13.61	0
2	69338	13.71	0
2	69891	13.81	0
2	70444	13.91	0
2	71005	14.01	0
2	71558	14.11	0
2	72111	14.21	0
2	72664	14.31	0
2	73217	14.41	0
2	73770	14.51	0
2	74323	14.61	0
2	74876	14.71	0
2	75429	14.81	0
2	75982	14.91	0
2	76543	15.01	0
2	77096	15.11	0
2	77649	15.21	0
2	78202	15.31	0
2	78755	15.41	0
2	79308	15.51	0
2	79861	15.61	0
2	80414	15.71	0
2	80967	15.81	0
2	81520	15.91	0
2	82081	16.01	0
2	82634	16.11	0
2	83187	16.21	0
2	83740	16.31	0
2	84293	16.41	0
2	84846	16.51	0
2	85399	16.61	0
2	85952	16.71	0
2	86505	16.81	0
2	87058	16.91	0
2	87619	17.01	0
2	88172	17.11	0
2	88725	17.21	0
2	89278	17.31	0
2	89831	17.41	0
2	90384	17.51	0
2	90937	17.61	0
2	91490	17.71	0
2	92043	17.81	0
2	92596	17.91	0
2	93157	18.01	0
2	93710	18.11	0
2	94263	18.21	0
2	94816	18.31	0
2	95369	18.41	0
2	95922	18.51	0
2	96475	18.61	0
2	97028	18.71	0
2	97581	18.81	0
2	98134	18.91	0
2	98695	19.01	0
2	99248	19.11	0
2	99801	19.21	0
2	100354	19.31	0
2	100907	19.41	0
2	101460	19.51	0
2	102013	19.61	0
2	102566	19.71	0
2	103119	19.81	0
2	103672	19.91	0
2	104233	20.01	0
2	104786	20.11	0
2	105339	20.21	0
2	105892	20.31	0
2	106445	20.41	0
2	106998	20.51	0
2	107551	20.61	0
2	108104	20.71	0
2	108657	20.81	0
2	109210	20.91	0
2	109771	21.01	0
2	110324	21.11	0
2	110877	21.21	0
2	111430	21.31	0
2	111983	21.41	0
2	112536	21.51	0
2	113089	21.61	0
2	113642	21.71	0
2	114195	21.81	0
2	114748	21.91	0
2	115309	22.01	0
2	115862	22.11	0
2	116415	22.21	0
2	116968	22.31	0
2	117521	22.41	0
2	118074	22.51	0
2	118627	22.61	0
2	119180	22.71	0
2	119733	22.81	0
2	120286	22.91	0
2	120847	23.01	0
2	121400	23.11	0
2	121953	23.21	0
2	122506	23.31	0
2	123059	23.41	0
2	123612	23.51	0
2	124165	23.61	0
2	124718	23.71	0
2	125271	23.81	0
2	125824	23.91	0
2	126385	24.01	0
2	126938	24.11	0
2	127491	24.21	0
2	128044	24.31	0
2	128597	24.41	0
2	129150	24.51	0
2	129703	24.61	0
2	130256	24.71	0
2	130809	24.81	0
2	131362	24.91	0
2	131923	25.01	0
2	132476	25.11	0
2	133029	25.21	0
2	133582	25.31	0
2	134135	25.41	0
2	134688	25.51	0
2	135241	25.61	0
2	135794	25.71	0
2	136347	25.81	0
2	136900	25.91	0
2	137461	26.01	0
2	138014	26.11	0
2	138567	26.21	0
2	139120	26.31	0
2	139673	26.41	0
2	140226	26.51	0
2	140779	26.61	0
2	141332	26.71	0
2	141885	26.81	0
2	142438	26.91	0
2	142999	27.01	0
2	143552	27.11	0
2	144105	27.21	0
2	144658	27.31	0
2	145211	27.41	0
2	145764	27.51	0
2	146317	27.61	0
2	146870	27.71	0
2	147423	27.81	0
2	147976	27.91	0
2	148537	28.01	0
2	149090	28.11	0
2	149643	28.21	0
2	150196	28.31	0
2	150749	28.41	0
2	151302	28.51	0
2	151855	28.61	0
2	152408	28.71	0
2	152961	28.81	0
2	153514	28.91	0
2	154075	29.01	0
2	154628	29.11	0
2	155181	29.21	0
2	155734	29.31	0
2	156287	29.41	0
2	156840	29.51	0
2	157393	29.61	0
2	157946	29.71	0
2	158499	29.81	0
2	159052	29.91	0
2	159613	30.01	0
2	160166	30.11	0
2	160719	30.21	0
2	161272	30.31	0
2	161825	30.41	0
2	162378	30.51	0
2	162931	30.61	0
2	163484	30.71	0
2	164037	30.81	0
2	164590	30.91	0
2	165151	31.01	0
2	165704	31.11	0
2	166257	31.21	0
2	166810	31.31	0
2	167363	31.41	0
2	167916	31.51	0
2	168469	31.61	0
2	169022	31.71	0
2	169575	31.81	0
2	170128	31.91	0
2	170689	32.01	0
2	171242	32.11	0
2	171795	32.21	0
2	172348	32.31	0
2	172901	32.41	0
2	173454	32.51	0
2	174007	32.61	0
2	174560	32.71	0
2	175113	32.81	0
2	175666	32.91	0
2	176227	33.01	0
2	176780	33.11	0
2	177333	33.21	0
2	177886	33.31	0
2	178439	33.41	0
2	178992	33.51	0
2	179545	33.61	0
2	180098	33.71	0
2	180651	33.81	0
2	181204	33.91	0
2	181765	34.01	0
2	182318	34.11	0
2	182871	34.21	0
2	183424	34.31	0
2	183977	34.41	0
2	184530	34.51	0
2	185083	34.61	0
2	185636	34.71	0
2	186189	34.81	0
2	186742	34.91	0
2	187303	35.01	0
2	187856	35.11	0
2	188409	35.21	0
2	188962	35.31	0
2	189515	35.41	0
2	190068	35.51	0
2	190621	35.61	0
2	191174	35.71	0
2	191727	35.81	0
2	192280	35.91	0
2	192841	36.01	0
2	193394	36.11	0
2	193947	36.21	0
2	194500	36.31	0
2	195053	36.41	0
2	195606	36.51	0
2	196159	36.61	0
2	196712	36.71	0
2	197265	36.81	0
2	197818	36.91	0
2	198379	37.01	0
2	198932	37.11	0
2	199485	37.21	0
2	200038	37.31	0
2	200591	37.41	0
2	201144	37.51	0
2	201697	37.61	0
2	202250	37.71	0
2	202803	37.81	0
2	203356	37.91	0
2	203917	38.01	0
2	204470	38.11	0
2	205023	38.21	0
2	205576	38.31	0
2	206129	38.41	0
2	206682	38.51	0
2	207235	38.61	0
2	207788	38.71	0
2	208341	38.81	0
2	208894	38.91	0
2	209455	39.01	0
2	210008	39.11	0
2	210561	39.21	0
2	211114	39.31	0
2	211667	39.41	0
2	212220	39.51	0
2	212773	39.61	0
2	213326	39.71	0
2	213879	39.81	0
2	214432	39.91	0
2	214993	40.01	0
2	215546	40.11	0
2	216099	40.21	0
2	216652	40.31	0
2	217205	40.41	0
2	217758	40.51	0
2	218311	40.61	0
2	218864	40.71	0
2	219417	40.81	0
2	219970	40.91	0
2	220531	41.01	0
2	221084	41.11	0
2	221637	41.21	0
2	222190	41.31	0
2	222743	41.41	0
2	223296	41.51	0
2	223849	41.61	0
2	224402	41.71	0
2	224955	41.81	0
2	225508	41.91	0
2	226069	42.01	0
2	226622	42.11	0
2	227175	42.21	0
2	227728	42.31	0
2	228281	42.41	0
2	228834	42.51	0
2	229387	42.61	0
2	230033	42.71	0
2	230585	42.81	0
2	231137	42.91	0
2	231697	43.01	0
2	232249	43.11	0
2	232801	43.21	0
2	233353	43.31	0
2	233905	43.41	0
2	234457	43.51	0
2	235009	43.61	0
2	235561	43.71	0
2	236113	43.81	0
2	236665	43.91	0
2	237225	44.01	0
2	237777	44.11	0
2	238329	44.21	0
2	238881	44.31	0
2	239433	44.41	0
2	239985	44.51	0
2	240537	44.61	0
2	241089	44.71	0
2	241641	44.81	0
2	242193	44.91	0
2	242753	45.01	0
2	243305	45.11	0
2	243857	45.21	0
2	244409	45.31	0
2	244961	45.41	0
2	245513	45.51	0
2	246065	45.61	0
2	246617	45.71	0
2	247169	45.81	0
2	247721	45.91	0
2	248281	46.01	0
2	248833	46.11	0
2	249385	46.21	0
2	249937	46.31	0
2	250489	46.41	0
2	251041	46.51	0
2	251593	46.61	0
2	252145	46.71	0
2	252697	46.81	0
2	253249	46.91	0
2	253809	47.01	0
2	254361	47.11	0
2	254913	47.21	0
2	255465	47.31	0
2	256017	47.41	0
2	256569	47.51	0
2	257121	47.61	0
2	257673	47.71	0
2	258225	47.81	0
2	258777	47.91	0
2	259337	48.01	0
2	259889	48.11	0
2	260441	48.21	0
2	260993	48.31	0
2	261545	48.41	0
2	262190	48.51	0
2	262741	48.61	0
2	263292	48.71	0
2	263843	48.81	0
2	264394	48.91	0
2	264953	49.01	0
2	265504	49.11	0
2	266055	49.21	0
2	266606	49.31	0
2	267157	49.41	0
2	267708	49.51	0
2	268259	49.61	0
2	268810	49.71	0
2	269361	49.81	0
2	269912	49.91	0
2	270471	50.01	0
2	271022	50.11	0
2	271573	50.21	0
2	272124	50.31	0
2	272675	50.41	0
2	273226	50.51	0
2	273777	50.61	0
2	274328	50.71	0
2	274879	50.81	0
2	275430	50.91	0
2	275989	51.01	0
2	276540	51.11	0
2	277091	51.21	0
2	277642	51.31	0
2	278193	51.41	0
2	278744	51.51	0
2	279295	51.61	0
2	279846	51.71	0
2	280397	51.81	0
2	280948	51.91	0
2	281507	52.01	0
2	282058	52.11	0
2	282609	52.21	0
2	283160	52.31	0
2	283711	52.41	0
2	284262	52.51	0
2	284813	52.61	0
2	285364	52.71	0
2	285915	52.81	0
2	286466	52.91	0
2	287025	53.01	0
2	287576	53.11	0
2	288127	53.21	0
2	288678	53.31	0
2	289229	53.41	0
2	289780	53.51	0
2	290331	53.61	0
2	290882	53.71	0
2	291526	53.81	0
2	292076	53.91	0
2	292634	54.01	0
2	293184	54.11	0
2	293734	54.21	0
2	294284	54.31	0
2	294834	54.41	0
2	295384	54.51	0
2	295934	54.61	0
2	296484	54.71	0
2	297034	54.81	0
2	297584	54.91	0
2	298142	55.01	0
2	298692	55.11	0
2	299242	55.21	0
2	299792	55.31	0
2	300342	55.41	0
2	300892	55.51	0
2	301442	55.61	0
2	301992	55.71	0
2	302542	55.81	0
2	303092	55.91	0
2	303650	56.01	0
2	304200	56.11	0
2	304750	56.21	0
2	305300	56.31	0
2	305850	56.41	0
2	306400	56.51	0
2	306950	56.61	0
2	307500	56.71	0
2	308050	56.81	0
2	308600	56.91	0
2	309158	57.01	0
2	309708	57.11	0
2	310258	57.21	0
2	310808	57.31	0
2	311358	57.41	0
2	311908	57.51	0
2	312458	57.61	0
2	313008	57.71	0
2	313558	57.81	0
2	314108	57.91	0
2	314666	58.01	0
2	315216	58.11	0
2	315766	58.21	0
2	316316	58.31	0
2	316866	58.41	0
2	317416	58.51	0
2	318059	58.61	0
2	318608	58.71	0
2	319157	58.81	0
2	319706	58.91	0
2	320263	59.01	0
2	320812	59.11	0
2	321361	59.21	0
2	321910	59.31	0
2	322459	59.41	0
2	323008	59.51	0
2	323557	59.61	0
2	324106	59.71	0
2	324655	59.81	0
2	325204	59.91	0
2	325761	60.01	0
2	326310	60.11	0
2	326859	60.21	0
2	327408	60.31	0
2	327957	60.41	0
2	328506	60.51	0
2	329055	60.61	0
2	329604	60.71	0
2	330153	60.81	0
2	330702	60.91	0
2	331259	61.01	0
2	331808	61.11	0
2	332357	61.21	0
2	332906	61.31	0
2	333455	61.41	0
2	334004	61.51	0
2	334553	61.61	0
2	335102	61.71	0
2	335651	61.81	0
2	336200	61.91	0
2	336757	62.01	0
2	337306	62.11	0
2	337855	62.21	0
2	338404	62.31	0
2	338953	62.41	0
2	339502	62.51	0
2	340051	62.61	0
2	340600	62.71	0
2	341149	62.81	0
2	341698	62.91	0
2	342255	63.01	0
2	342804	63.11	0
2	343353	63.21	0
2	343995	63.31	0
2	344543	63.41	0
2	345091	63.51	0
2	345639	63.61	0
2	346187	63.71	0
2	346735	63.81	0
2	347283	63.91	0
2	347839	64.01	0
2	348387	64.11	0
2	348935	64.21	0
2	349483	64.31	0
2	350031	64.41	0
2	350579	64.51	0
2	351127	64.61	0
2	351675	64.71	0
2	352223	64.81	0
2	352771	64.91	0
2	353327	65.01	0
2	353875	65.11	0
2	354423	65.21	0
2	354971	65.31	0
2	355519	65.41	0
2	356067	65.51	0
2	356615	65.61	0
2	357163	65.71	0
2	357711	65.81	0
2	358259	65.91	0
2	358815	66.01	0
2	359363	66.11	0
2	359911	66.21	0
2	360459	66.31	0
2	361007	66.41	0
2	361555	66.51	0
2	362103	66.61	0
2	362651	66.71	0
2	363199	66.81	0
2	363747	66.91	0
2	364303	67.01	0
2	364851	67.11	0
2	365399	67.21	0
2	365947	67.31	0
2	366495	67.41	0
2	367043	67.51	0
2	367591	67.61	0
2	368232	67.71	0
2	368779	67.81	0
2	369326	67.91	0
2	369881	68.01	0
2	370428	68.11	0
2	370975	68.21	0
2	371522	68.31	0
2	372069	68.41	0
2	372616	68.51	0
2	373163	68.61	0
2	373710	68.71	0
2	374257	68.81	0
2	374804	68.91	0
2	375359	69.01	0
2	375906	69.11	0
2	376453	69.21	0
2	377000	69.31	0
2	377547	69.41	0
2	378094	69.51	0
2	378641	69.61	0
2	379188	69.71	0
2	379735	69.81	0
2	380282	69.91	0
2	380837	70.01	0
2	381384	70.11	0
2	381931	70.21	0
2	382478	70.31	0
2	383025	70.41	0
2	383572	70.51	0
2	384119	70.61	0
2	384666	70.71	0
2	385213	70.81	0
2	385760	70.91	0
2	386315	71.01	0
2	386862	71.11	0
2	387409	71.21	0
2	387956	71.31	0
2	388503	71.41	0
2	389050	71.51	0
2	389597	71.61	0
2	390144	71.71	0
2	390691	71.81	0
2	391238	71.91	0
2	392537	72.01	0
2	393083	72.11	0
2	393629	72.21	0
2	394175	72.31	0
2	394721	72.41	0
2	395267	72.51	0
2	395813	72.61	0
2	396359	72.71	0
2	396905	72.81	0
2	397451	72.91	0
2	398005	73.01	0
2	398551	73.11	0
2	399097	73.21	0
2	399643	73.31	0
2	400189	73.41	0
2	400735	73.51	0
2	401281	73.61	0
2	401827	73.71	0
2	402373	73.81	0
2	402919	73.91	0
2	403473	74.01	0
2	404019	74.11	0
2	404565	74.21	0
2	405111	74.31	0
2	405657	74.41	0
2	406203	74.51	0
2	406749	74.61	0
2	407295	74.71	0
2	407841	74.81	0
2	408387	74.91	0
2	408941	75.01	0
2	409487	75.11	0
2	410033	75.21	0
2	410579	75.31	0
2	411125	75.41	0
2	411671	75.51	0
2	412217	75.61	0
2	412763	75.71	0
2	413309	75.81	0
2	413855	75.91	0
2	414409	76.01	0
2	414955	76.11	0
2	415501	76.21	0
2	416047	76.31	0
2	416593	76.41	0
2	417139	76.51	0
2	417685	76.61	0
2	418231	76.71	0
2	418777	76.81	0
2	419323	76.91	0
2	419877	77.01	0
2	420423	77.11	0
2	420969	77.21	0
2	421515	77.31	0
2	422061	77.41	0
2	422607	77.51	0
2	423153	77.61	0
2	423699	77.71	0
2	424245	77.81	0
2	424791	77.91	0
2	425345	78.01	0
2	425891	78.11	0
2	426437	78.21	0
2	426983	78.31	0
2	427529	78.41	0
2	428075	78.51	0
2	428621	78.61	0
2	429167	78.71	0
2	429713	78.81	0
2	430259	78.91	0
2	430813	79.01	0
2	431359	79.11	0
2	431905	79.21	0
2	432451	79.31	0
2	432997	79.41	0
2	433543	79.51	0
2	434089	79.61	0
2	434635	79.71	0
2	435181	79.81	0
2	435727	79.91	0
2	436281	80.01	0
2	436827	80.11	0
2	437373	80.21	0
2	437919	80.31	0
2	438465	80.41	0
2	439011	80.51	0
2	439557	80.61	0
2	440103	80.71	0
2	440649	80.81	0
2	441195	80.91	0
2	441749	81.01	0
2	442295	81.11	0
2	442841	81.21	0
2	443387	81.31	0
2	443933	81.41	0
2	444479	81.51	0
2	445025	81.61	0
2	445571	81.71	0
2	446117	81.81	0
2	446663	81.91	0
2	447217	82.01	0
2	447763	82.11	0
2	448309	82.21	0
2	448855	82.31	0
2	449401	82.41	0
2	449947	82.51	0
2	450493	82.61	0
2	451039	82.71	0
2	451585	82.81	0
2	452131	82.91	0
2	452685	83.01	0
2	453231	83.11	0
2	453777	83.21	0
2	454323	83.31	0
2	454869	83.41	0
2	455415	83.51	0
2	455961	83.61	0
2	456507	83.71	0
2	457053	83.81	0
2	457599	83.91	0
2	458153	84.01	0
2	458699	84.11	0
2	459245	84.21	0
2	459791	84.31	0
2	460337	84.41	0
2	460883	84.51	0
2	461429	84.61	0
2	461975	84.71	0
2	462521	84.81	0
2	463067	84.91	0
2	463621	85.01	0
2	464167	85.11	0
2	464713	85.21	0
2	465259	85.31	0
2	465805	85.41	0
2	466351	85.51	0
2	466897	85.61	0
2	467443	85.71	0
2	467989	85.81	0
2	468535	85.91	0
2	469089	86.01	0
2	469635	86.11	0
2	470181	86.21	0
2	470727	86.31	0
2	471273	86.41	0
2	471819	86.51	0
2	472365	86.61	0
2	472911	86.71	0
2	473457	86.81	0
2	474003	86.91	0
2	474557	87.01	0
2	475103	87.11	0
2	475649	87.21	0
2	476195	87.31	0
2	476741	87.41	0
2	477287	87.51	0
2	477833	87.61	0
2	478379	87.71	0
2	478925	87.81	0
2	479471	87.91	0
2	480025	88.01	0
2	480571	88.11	0
2	481117	88.21	0
2	481663	88.31	0
2	482209	88.41	0
2	482755	88.51	0
2	483301	88.61	0
2	483847	88.71	0
2	484393	88.81	0
2	484939	88.91	0
2	485493	89.01	0
2	486039	89.11	0
2	486585	89.21	0
2	487131	89.31	0
2	487677	89.41	0
2	488223	89.51	0
2	488769	89.61	0
2	489315	89.71	0
2	489861	89.81	0
2	490407	89.91	0
2	490961	90.01	0
2	491507	90.11	0
2	492053	90.21	0
2	492599	90.31	0
2	493145	90.41	0
2	493691	90.51	0
2	494237	90.61	0
2	494783	90.71	0
2	495329	90.81	0
2	495875	90.91	0
2	496429	91.01	0
2	496975	91.11	0
2	497521	91.21	0
2	498067	91.31	0
2	498613	91.41	0
2	499159	91.51	0
2	499705	91.61	0
2	500251	91.71	0
2	500797	91.81	0
2	501343	91.91	0
2	501897	92.01	0
2	502443	92.11	0
2	502989	92.21	0
2	503535	92.31	0
2	504081	92.41	0
2	504627	92.51	0
2	505173	92.61	0
2	505719	92.71	0
2	506265	92.81	0
2	506811	92.91	0
2	507365	93.01	0
2	507911	93.11	0
2	508457	93.21	0
2	509003	93.31	0
2	509549	93.41	0
2	510095	93.51	0
2	510641	93.61	0
2	511187	93.71	0
2	511733	93.81	0
2	512279	93.91	0
2	512833	94.01	0
2	513379	94.11	0
2	513925	94.21	0
2	514471	94.31	0
2	515017	94.41	0
2	515563	94.51	0
2	516109	94.61	0
2	516655	94.71	0
2	517201	94.81	0
2	517747	94.91	0
2	518301	95.01	0
2	518847	95.11	0
2	519393	95.21	0
2	519939	95.31	0
2	520485	95.41	0
2	521031	95.51	0
2	521577	95.61	0
2	522123	95.71	0
2	522669	95.81	0
2	523215	95.91	0
2	523769	96.01	0
2	524315	96.11	0
2	524861	96.21	0
2	525407	96.31	0
2	525953	96.41	0
2	526499	96.51	0
2	527045	96.61	0
2	527591	96.71	0
2	528137	96.81	0
2	528683	96.91	0
2	529237	97.01	0
2	529783	97.11	0
2	530329	97.21	0
2	530875	97.31	0
2	531421	97.41	0
2	531967	97.51	0
2	532513	97.61	0
2	533059	97.71	0
2	533605	97.81	0
2	534151	97.91	0
2	534705	98.01	0
2	535251	98.11	0
2	535797	98.21	0
2	536343	98.31	0
2	536889	98.41	0
2	537435	98.51	0
2	537981	98.61	0
2	538527	98.71	0
2	539073	98.81	0
2	539619	98.91	0
2	540173	99.01	0
2	540719	99.11	0
2	541265	99.21	0
2	541811	99.31	0
2	542357	99.41	0
2	542903	99.51	0
2	543449	99.61	0
2	543995	99.71	0
2	544541	99.81	0
2	545087	99.91	0
3	113	1.11	0.000179096
3	659	1.21	0.000340852
3	1205	1.31	0.000467435
3	1751	1.41	0.000562893
3	2297	1.51	0.000631106
3	2843	1.61	0.000675745
3	3389	1.71	0.000700245
3	3935	1.81	0.000707784
3	4481	1.91	0.000701273
3	5035	2.01	0.000683354
3	5581	2.11	0.000656398
3	6127	2.21	0.000622512
3	6673	2.31	0.000583548
3	7219	2.41	0.000541117
3	7765	2.51	0.000496604
3	8311	2.61	0.000451181
3	8857	2.71	0.000405825
3	9403	2.81	0.00036134
3	9949	2.91	0.000318365
3	10503	3.01	0.0002774
3	11049	3.11	0.00023882
3	11595	3.21	0.000202887
3	12141	3.31	0.00016977
3	12687	3.41	0.000139558
3	13233	3.51	0.000112271
3	13779	3.61	8.78717e-05
3	14325	3.71	6.628e-05
3	14871	3.81	4.73785e-05
3	15417	3.91	3.1023e-05
3	15971	4.01	1.70493e-05
3	16517	4.11	5.28023e-06
3	17063	4.21	-4.46922e-06
3	17609	4.31	-1.2387e-05
3	18155	4.41	-1.86602e-05
3	18701	4.51	-2.34717e-05
3	19247	4.61	-2.69978e-05
3	19793	4.71	-2.94062e-05
3	20339	4.81	-3.08545e-05
3	20885	4.91	-3.14892e-05
3	21439	5.01	-3.14451e-05
3	21985	5.11	-3.0845e-05
3	22531	5.21	-2.97994e-05
3	23077	5.31	-2.84072e-05
3	23623	5.41	-2.67556e-05
3	24169	5.51	-2.49208e-05
3	24715	5.61	-2.29687e-05
3	25261	5.71	-2.09553e-05
3	25807	5.81	-1.89277e-05
3	26353	5.91	-1.6925e-05
3	26907	6.01	-1.49784e-05
3	27453	6.11	-1.31129e-05
3	27999	6.21	-1.13474e-05
3	28545	6.31	-9.69553e-06
3	29091	6.41	-8.16651e-06
3	29637	6.51	-6.76571e-06
3	30183	6.61	-5.49522e-06
3	30729	6.71	-4.35441e-06
3	31275	6.81	-3.34045e-06
3	31821	6.91	-2.44874e-06
3	32375	7.01	-1.6733e-06
3	32921	7.11	-1.00716e-06
3	33467	7.21	-4.42628e-07
3	34013	7.31	2.84224e-08
3	34559	7.41	4.14339e-07
3	35105	7.51	7.23492e-07
3	35651	7.61	9.6413e-07
3	36197	7.71	1.14424e-06
3	36743	7.81	1.27148e-06
3	37289	7.91	1.35305e-06
3	37843	8.01	1.3957e-06
3	38389	8.11	1.40565e-06
3	38935	8.21	1.3886e-06
3	39481	8.31	1.34971e-06
3	40027	8.41	1.2936e-06
3	40573	8.51	1.22437e-06
3	41119	8.61	1.14561e-06
3	41665	8.71	1.06046e-06
3	42211	8.81	9.71582e-07
3	42757	8.91	8.81246e-07
3	43311	9.01	7.91334e-07
3	43857	9.11	7.03381e-07
3	44403	9.21	6.18613e-07
3	44949	9.31	5.37979e-07
3	45495	9.41	4.62183e-07
3	46041	9.51	3.91714e-07
3	46587	9.61	3.26878e-07
3	47133	9.71	2.67827e-07
3	47679	9.81	2.14581e-07
3	48225	9.91	1.67052e-07
3	48853	10.01	1.25066e-07
3	49406	10.11	8.83794e-08
3	49959	10.21	5.66978e-08
3	50512	10.31	2.96922e-08
3	51065	10.41	7.00453e-09
3	51618	10.51	-1.17325e-08
3	52171	10.61	-2.68933e-08
3	52724	10.71	-3.88482e-08
3	53277	10.81	-4.79581e-08
3	53830	10.91	-5.45704e-08
3	54391	11.01	-5.90177e-08
3	54944	11.11	-6.16069e-08
3	55497	11.21	-6.26265e-08
3	56050	11.31	-6.23395e-08
3	56603	11.41	-6.09859e-08
3	57156	11.51	-5.87811e-08
3	57709	11.61	-5.59183e-08
3	58262	11.71	-5.25674e-08
3	58815	11.81	-4.88761e-08
3	59368	11.91	-4.4971e-08
3	59929	12.01	-4.09599e-08
3	60482	12.11	-3.69354e-08
3	61035	12.21	-3.29713e-08
3	61588	12.31	-2.9128e-08
3	62141	12.41	-2.54531e-08
3	62694	12.51	-2.19821e-08
3	63247	12.61	-1.87399e-08
3	63800	12.71	-1.57428e-08
3	64353	12.81	-1.30029e-08
3	64906	12.91	-1.05217e-08
3	65467	13.01	-8.29772e-09
3	66020	13.11	-6.32454e-09
3	66573	13.21	-4.59224e-09
3	67126	13.31	-3.08802e-09
3	67679	13.41	-1.79838e-09
3	68232	13.51	-7.08411e-10
3	68785	13.61	1.98241e-10
3	69338	13.71	9.37916e-10
3	69891	13.81	1.52767e-09
3	70444	13.91	1.98384e-09
3	71005	14.01	2.32276e-09
3	71558	14.11	2.55937e-09
3	72111	14.21	2.70788e-09
3	72664	14.31	2.78249e-09
3	73217	14.41	2.79243e-09
3	73770	14.51	2.7498e-09
3	74323	14.61	2.66525e-09
3	74876	14.71	2.54872e-09
3	75429	14.81	2.40803e-09
3	75982	14.91	2.24887e-09
3	76543	15.01	2.07763e-09
3	77096	15.11	1.89999e-09
3	77649	15.21	1.72236e-09
3	78202	15.31	1.54472e-09
3	78755	15.41	1.37064e-09
3	79308	15.51	1.20295e-09
3	79861	15.61	1.04379e-09
3	80414	15.71	8.94573e-10
3	80967	15.81	7.56017e-10
3	81520	15.91	6.29541e-10
3	82081	16.01	5.13012e-10
3	82634	16.11	4.09273e-10
3	83187	16.21	3.16902e-10
3	83740	16.31	2.3519e-10
3	84293	16.41	1.63425e-10
3	84846	16.51	1.02318e-10
3	85399	16.61	4.9738e-11
3	85952	16.71	5.68434e-12
3	86505	16.81	-3.05533e-11
3	87058	16.91	-5.8975e-11
3	87619	17.01	-8.10019e-11
3	88172	17.11	-9.80549e-11
3	88725	17.21	-1.11555e-10
3	89278	17.31	-1.18661e-10
3	89831	17.41	-1.23634e-10
3	90384	17.51	-1.23634e-10
3	90937	17.61	-1.23634e-10
3	91490	17.71	-1.21503e-10
3	92043	17.81	-1.14397e-10
3	92596	17.91	-1.07292e-10
3	93157	18.01	-1.00187e-10
3	93710	18.11	-9.30811e-11
3	94263	18.21	-8.59757e-11
3	94816	18.31	-7.88702e-11
3	95369	18.41	-7.17648e-11
3	95922	18.51	-6.46594e-11
3	96475	18.61	-5.7554e-11
3	97028	18.71	-5.04485e-11
3	97581	18.81	-4.33431e-11
3	98134	18.91	-3.62377e-11
3	98695	19.01	-2.91323e-11
3	99248	19.11	-2.20268e-11
3	99801	19.21	-1.7053e-11
3	100354	19.31	-1.49214e-11
3	100907	19.41	-1.35003e-11
3	101460	19.51	-1.27898e-11
3	102013	19.61	-1.13687e-11
3	102566	19.71	-9.9476e-12
3	103119	19.81	-9.23706e-12
3	103672	19.91	-8.52651e-12
3	104233	20.01	-7.81597e-12
3	104786	20.11	-7.10543e-12
3	105339	20.21	-6.39488e-12
3	105892	20.31	-5.68434e-12
3	106445	20.41	-4.9738e-12
3	106998	20.51	-4.26326e-12
3	107551	20.61	-4.26326e-12
3	108104	20.71	-3.55271e-12
3	108657	20.81	-3.55271e-12
3	109210	20.91	-2.84217e-12
3	109771	21.01	-2.84217e-12
3	110324	21.11	-2.84217e-12
3	110877	21.21	-2.13163e-12
3	111430	21.31	-2.13163e-12
3	111983	21.41	-2.13163e-12
3	112536	21.51	-1.42109e-12
3	113089	21.61	-1.42109e-12
3	113642	21.71	-1.42109e-12
3	114195	21.81	-1.42109e-12
3	114748	21.91	-1.42109e-12
3	115309	22.01	-7.10543e-13
3	115862	22.11	-7.10543e-13
3	116415	22.21	-7.10543e-13
3	116968	22.31	-7.10543e-13
3	117521	22.41	-7.10543e-13
3	118074	22.51	-7.10543e-13
3	118627	22.61	-7.10543e-13
3	119180	22.71	-7.10543e-13
3	119733	22.81	-7.10543e-13
3	120286	22.91	-7.10543e-13
3	120847	23.01	0
3	121400	23.11	0
3	121953	23.21	0
3	122506	23.31	0
3	123059	23.41	0
3	123612	23.51	0
3	124165	23.61	0
3	124718	23.71	0
3	125271	23.81	0
3	125824	23.91	0
3	126385	24.01	0
3	126938	24.11	0
3	127491	24.21	0
3	128044	24.31	0
3	128597	24.41	0
3	129150	24.51	0
3	129703	24.61	0
3	130256	24.71	0
3	130809	24.81	0
3	131362	24.91	0
3	131923	25.01	0
3	132476	25.11	0
3	133029	25.21	0
3	133582	25.31	0
3	134135	25.41	0
3	134688	25.51	0
3	135241	25.61	0
3	135794	25.71	0
3	136347	25.81	0
3	136900	25.91	0
3	137461	26.01	0
3	138014	26.11	0
3	138567	26.21	0
3	139120	26.31	0
3	139673	26.41	0
3	140226	26.51	0
3	140779	26.61	0
3	141332	26.71	0
3	141885	26.81	0
3	142438	26.91	0
3	142999	27.01	0
3	143552	27.11	0
3	144105	27.21	0
3	144658	27.31	0
3	145211	27.41	0
3	145764	27.51	0
3	146317	27.61	0
3	146870	27.71	0
3	147423	27.81	0
3	147976	27.91	0
3	148537	28.01	0
3	149090	28.11	0
3	149643	28.21	0
3	150196	28.31	0
3	150749	28.41	0
3	151302	28.51	0
3	151855	28.61	0
3	152408	28.71	0
3	152961	28.81	0
3	153514	28.91	0
3	154075	29.01	0
3	154628	29.11	0
3	155181	29.21	0
3	155734	29.31	0
3	156287	29.41	0
3	156840	29.51	0
3	157393	29.61	0
3	157946	29.71	0
3	158499	29.81	0
3	159052	29.91	0
3	159613	30.01	0
3	160166	30.11	0
3	160719	30.21	0
3	161272	30.31	0
3	161825	30.41	0
3	162378	30.51	0
3	162931	30.61	0
3	163484	30.71	0
3	164037	30.81	0
3	164590	30.91	0
3	165151	31.01	0
3	165704	31.11	0
3	166257	31.21	0
3	166810	31.31	0
3	167363	31.41	0
3	167916	31.51	0
3	168469	31.61	0
3	169022	31.71	0
3	169575	31.81	0
3	170128	31.91	0
3	170689	32.01	0
3	171242	32.11	0
3	171795	32.21	0
3	172348	32.31	0
3	172901	32.41	0
3	173454	32.51	0
3	174007	32.61	0
3	174560	32.71	0
3	175113	32.81	0
3	175666	32.91	0
3	176227	33.01	0
3	176780	33.11	0
3	177333	33.21	0
3	177886	33.31	0
3	178439	33.41	0
3	178992	33.51	0
3	179545	33.61	0
3	180098	33.71	0
3	180651	33.81	0
3	181204	33.91	0
3	181765	34.01	0
3	182318	34.11	0
3	182871	34.21	0
3	183424	34.31	0
3	183977	34.41	0
3	184530	34.51	0
3	185083	34.61	0
3	185636	34.71	0
3	186189	34.81	0
3	186742	34.91	0
3	187303	35.01	0
3	187856	35.11	0
3	188409	35.21	0
3	188962	35.31	0
3	189515	35.41	0
3	190068	35.51	0
3	190621	35.61	0
3	191174	35.71	0
3	191727	35.81	0
3	192280	35.91	0
3	192841	36.01	0
3	193394	36.11	0
3	193947	36.21	0
3	194500	36.31	0
3	195053	36.41	0
3	195606	36.51	0
3	196159	36.61	0
3	196712	36.71	0
3	197265	36.81	0
3	197818	36.91	0
3	198379	37.01	0
3	198932	37.11	0
3	199485	37.21	0
3	200038	37.31	0
3	200591	37.41	0
3	201144	37.51	0
3	201697	37.61	0
3	202250	37.71	0
3	202803	37.81	0
3	203356	37.91	0
3	203917	38.01	0
3	204470	38.11	0
3	205023	38.21	0
3	205576	38.31	0
3	206129	38.41	0
3	206682	38.51	0
3	207235	38.61	0
3	207788	38.71	0
3	208341	38.81	0
3	208894	38.91	0
3	209455	39.01	0
3	210008	39.11	0
3	210561	39.21	0
3	211114	39.31	0
3	211667	39.41	0
3	212220	39.51	0
3	212773	39.61	0
3	213326	39.71	0
3	213879	39.81	0
3	214432	39.91	0
3	214993	40.01	0
3	215546	40.11	0
3	216099	40.21	0
3	216652	40.31	0
3	217205	40.41	0
3	217758	40.51	0
3	218311	40.61	0
3	218864	40.71	0
3	219417	40.81	0
3	219970	40.91	0
3	220531	41.01	0
3	221084	41.11	0
3	221637	41.21	0
3	222190	41.31	0
3	222743	41.41	0
3	223296	41.51	0
3	223849	41.61	0
3	224402	41.71	0
3	224955	41.81	0
3	225508	41.91	0
3	226069	42.01	0
3	226622	42.11	0
3	227175	42.21	0
3	227728	42.31	0
3	228281	42.41	0
3	228834	42.51	0
3	229387	42.61	0
3	230033	42.71	0
3	230585	42.81	0
3	231137	42.91	0
3	231697	43.01	0
3	232249	43.11	0
3	232801	43.21	0
3	233353	43.31	0
3	233905	43.41	0
3	234457	43.51	0
3	235009	43.61	0
3	235561	43.71	0
3	236113	43.81	0
3	236665	43.91	0
3	237225	44.01	0
3	237777	44.11	0
3	238329	44.21	0
3	238881	44.31	0
3	239433	44.41	0
3	239985	44.51	0
3	240537	44.61	0
3	241089	44.71	0
3	241641	44.81	0
3	242193	44.91	0
3	242753	45.01	0
3	243305	45.11	0
3	243857	45.21	0
3	244409	45.31	0
3	244961	45.41	0
3	245513	45.51	0
3	246065	45.61	0
3	246617	45.71	0
3	247169	45.81	0
3	247721	45.91	0
3	248281	46.01	0
3	248833	46.11	0
3	249385	46.21	0
3	249937	46.31	0
3	250489	46.41	0
3	251041	46.51	0
3	251593	46.61	0
3	252145	46.71	0
3	252697	46.81	0
3	253249	46.91	0
3	253809	47.01	0
3	254361	47.11	0
3	254913	47.21	0
3	255465	47.31	0
3	256017	47.41	0
3	256569	47.51	0
3	257121	47.61	0
3	257673	47.71	0
3	258225	47.81	0
3	258777	47.91	0
3	259337	48.01	0
3	259889	48.11	0
3	260441	48.21	0
3	260993	48.31	0
3	261545	48.41	0
3	262190	48.51	0
3	262741	48.61	0
3	263292	48.71	0
3	263843	48.81	0
3	264394	48.91	0
3	264953	49.01	0
3	265504	49.11	0
3	266055	49.21	0
3	266606	49.31	0
3	267157	49.41	0
3	267708	49.51	0
3	268259	49.61	0
3	268810	49.71	0
3	269361	49.81	0
3	269912	49.91	0
3	270471	50.01	0
3	271022	50.11	0
3	271573	50.21	0
3	272124	50.31	0
3	272675	50.41	0
3	273226	50.51	0
3	273777	50.61	0
3	274328	50.71	0
3	274879	50.81	0
3	275430	50.91	0
3	275989	51.01	0
3	276540	51.11	0
3	277091	51.21	0
3	277642	51.31	0
3	278193	51.41	0
3	278744	51.51	0
3	279295	51.61	0
3	279846	51.71	0
3	280397	51.81	0
3	280948	51.91	0
3	281507	52.01	0
3	282058	52.11	0
3	282609	52.21	0
3	283160	52.31	0
3	283711	52.41	0
3	284262	52.51	0
3	284813	52.61	0
3	285364	52.71	0
3	285915	52.81	0
3	286466	52.91	0
3	287025	53.01	0
3	287576	53.11	0
3	288127	53.21	0
3	288678	53.31	0
3	289229	53.41	0
3	289780	53.51	0
3	290331	53.61	0
3	290882	53.71	0
3	291526	53.81	0
3	292076	53.91	0
3	292634	54.01	0
3	293184	54.11	0
3	293734	54.21	0
3	294284	54.31	0
3	294834	54.41	0
3	295384	54.51	0
3	295934	54.61	0
3	296484	54.71	0
3	297034	54.81	0
3	297584	54.91	0
3	298142	55.01	0
3	298692	55.11	0
3	299242	55.21	0
3	299792	55.31	0
3	300342	55.41	0
3	300892	55.51	0
3	301442	55.61	0
3	301992	55.71	0
3	302542	55.81	0
3	303092	55.91	0
3	303650	56.01	0
3	304200	56.11	0
3	304750	56.21	0
3	305300	56.31	0
3	305850	56.41	0
3	306400	56.51	0
3	306950	56.61	0
3	307500	56.71	0
3	308050	56.81	0
3	308600	56.91	0
3	309158	57.01	0
3	309708	57.11	0
3	310258	57.21	0
3	310808	57.31	0
3	311358	57.41	0
3	311908	57.51	0
3	312458	57.61	0
3	313008	57.71	0
3	313558	57.81	0
3	314108	57.91	0
3	314666	58.01	0
3	315216	58.11	0
3	315766	58.21	0
3	316316	58.31	0
3	316866	58.41	0
3	317416	58.51	0
3	318059	58.61	0
3	318608	58.71	0
3	319157	58.81	0
3	319706	58.91	0
3	320263	59.01	0
3	320812	59.11	0
3	321361	59.21	0
3	321910	59.31	0
3	322459	59.41	0
3	323008	59.51	0
3	323557	59.61	0
3	324106	59.71	0
3	324655	59.81	0
3	325204	59.91	0
3	325761	60.01	0
3	326310	60.11	0
3	326859	60.21	0
3	327408	60.31	0
3	327957	60.41	0
3	328506	60.51	0
3	329055	60.61	0
3	329604	60.71	0
3	330153	60.81	0
3	330702	60.91	0
3	331259	61.01	0
3	331808	61.11	0
3	332357	61.21	0
3	332906	61.31	0
3	333455	61.41	0
3	334004	61.51	0
3	334553	61.61	0
3	335102	61.71	0
3	335651	61.81	0
3	336200	61.91	0
3	336757	62.01	0
3	337306	62.11	0
3	337855	62.21	0
3	338404	62.31	0
3	338953	62.41	0
3	339502	62.51	0
3	340051	62.61	0
3	340600	62.71	0
3	341149	62.81	0
3	341698	62.91	0
3	342255	63.01	0
3	342804	63.11	0
3	343353	63.21	0
3	343995	63.31	0
3	344543	63.41	0
3	345091	63.51	0
3	345639	63.61	0
3	346187	63.71	0
3	346735	63.81	0
3	347283	63.91	0
3	347839	64.01	0
3	348387	64.11	0
3	348935	64.21	0
3	349483	64.31	0
3	350031	64.41	0
3	350579	64.51	0
3	351127	64.61	0
3	351675	64.71	0
3	352223	64.81	0
3	352771	64.91	0
3	353327	65.01	0
3	353875	65.11	0
3	354423	65.21	0
3	354971	65.31	0
3	355519	65.41	0
3	356067	65.51	0
3	356615	65.61	0
3	357163	65.71	0
3	357711	65.81	0
3	358259	65.91	0
3	358815	66.01	0
3	359363	66.11	0
3	359911	66.21	0
3	360459	66.31	0
3	361007	66.41	0
3	361555	66.51	0
3	362103	66.61	0
3	362651	66.71	0
3	363199	66.81	0
3	363747	66.91	0
3	364303	67.01	0
3	364851	67.11	0
3	365399	67.21	0
3	365947	67.31	0
3	366495	67.41	0
3	367043	67.51	0
3	367591	67.61	0
3	368232	67.71	0
3	368779	67.81	0
3	369326	67.91	0
3	369881	68.01	0
3	370428	68.11	0
3	370975	68.21	0
3	371522	68.31	0
3	372069	68.41	0
3	372616	68.51	0
3	373163	68.61	0
3	373710	68.71	0
3	374257	68.81	0
3	374804	68.91	0
3	375359	69.01	0
3	375906	69.11	0
3	376453	69.21	0
3	377000	69.31	0
3	377547	69.41	0
3	378094	69.51	0
3	378641	69.61	0
3	379188	69.71	0
3	379735	69.81	0
3	380282	69.91	0
3	380837	70.01	0
3	381384	70.11	0
3	381931	70.21	0
3	382478	70.31	0
3	383025	70.41	0
3	383572	70.51	0
3	384119	70.61	0
3	384666	70.71	0
3	385213	70.81	0
3	385760	70.91	0
3	386315	71.01	0
3	386862	71.11	0
3	387409	71.21	0
3	387956	71.31	0
3	388503	71.41	0
3	389050	71.51	0
3	389597	71.61	0
3	390144	71.71	0
3	390691	71.81	0
3	391238	71.91	0
3	392537	72.01	0
3	393083	72.11	0
3	393629	72.21	0
3	394175	72.31	0
3	394721	72.41	0
3	395267	72.51	0
3	395813	72.61	0
3	396359	72.71	0
3	396905	72.81	0
3	397451	72.91	0
3	398005	73.01	0
3	398551	73.11	0
3	399097	73.21	0
3	399643	73.31	0
3	400189	73.41	0
3	400735	73.51	0
3	401281	73.61	0
3	401827	73.71	0
3	402373	73.81	0
3	402919	73.91	0
3	403473	74.01	0
3	404019	74.11	0
3	404565	74.21	0
3	405111	74.31	0
3	405657	74.41	0
3	406203	74.51	0
3	406749	74.61	0
3	407295	74.71	0
3	407841	74.81	0
3	408387	74.91	0
3	408941	75.01	0
3	409487	75.11	0
3	410033	75.21	0
3	410579	75.31	0
3	411125	75.41	0
3	411671	75.51	0
3	412217	75.61	0
3	412763	75.71	0
3	413309	75.81	0
3	413855	75.91	0
3	414409	76.01	0
3	414955	76.11	0
3	415501	76.21	0
3	416047	76.31	0
3	416593	76.41	0
3	417139	76.51	0
3	417685	76.61	0
3	418231	76.71	0
3	418777	76.81	0
3	419323	76.91	0
3	419877	77.01	0
3	420423	77.11	0
3	420969	77.21	0
3	421515	77.31	0
3	422061	77.41	0
3	422607	77.51	0
3	423153	77.61	0
3	423699	77.71	0
3	424245	77.81	0
3	424791	77.91	0
3	425345	78.01	0
3	425891	78.11	0
3	426437	78.21	0
3	426983	78.31	0
3	427529	78.41	0
3	428075	78.51	0
3	428621	78.61	0
3	429167	78.71	0
3	429713	78.81	0
3	430259	78.91	0
3	430813	79.01	0
3	431359	79.11	0
3	431905	79.21	0
3	432451	79.31	0
3	432997	79.41	0
3	433543	79.51	0
3	434089	79.61	0
3	434635	79.71	0
3	435181	79.81	0
3	435727	79.91	0
3	436281	80.01	0
3	436827	80.11	0
3	437373	80.21	0
3	437919	80.31	0
3	438465	80.41	0
3	439011	80.51	0
3	439557	80.61	0
3	440103	80.71	0
3	440649	80.81	0
3	441195	80.91	0
3	441749	81.01	0
3	442295	81.11	0
3	442841	81.21	0
3	443387	81.31	0
3	443933	81.41	0
3	444479	81.51	0
3	445025	81.61	0
3	445571	81.71	0
3	446117	81.81	0
3	446663	81.91	0
3	447217	82.01	0
3	447763	82.11	0
3	448309	82.21	0
3	448855	82.31	0
3	449401	82.41	0
3	449947	82.51	0
3	450493	82.61	0
3	451039	82.71	0
3	451585	82.81	0
3	452131	82.91	0
3	452685	83.01	0
3	453231	83.11	0
3	453777	83.21	0
3	454323	83.31	0
3	454869	83.41	0
3	455415	83.51	0
3	455961	83.61	0
3	456507	83.71	0
3	457053	83.81	0
3	457599	83.91	0
3	458153	84.01	0
3	458699	84.11	0
3	459245	84.21	0
3	459791	84.31	0
3	460337	84.41	0
3	460883	84.51	0
3	461429	84.61	0
3	461975	84.71	0
3	462521	84.81	0
3	463067	84.91	0
3	463621	85.01	0
3	464167	85.11	0
3	464713	85.21	0
3	465259	85.31	0
3	465805	85.41	0
3	466351	85.51	0
3	466897	85.61	0
3	467443	85.71	0
3	467989	85.81	0
3	468535	85.91	0
3	469089	86.01	0
3	469635	86.11	0
3	470181	86.21	0
3	470727	86.31	0
3	471273	86.41	0
3	471819	86.51	0
3	472365	86.61	0
3	472911	86.71	0
3	473457	86.81	0
3	474003	86.91	0
3	474557	87.01	0
3	475103	87.11	0
3	475649	87.21	0
3	476195	87.31	0
3	476741	87.41	0
3	477287	87.51	0
3	477833	87.61	0
3	478379	87.71	0
3	478925	87.81	0
3	479471	87.91	0
3	480025	88.01	0
3	480571	88.11	0
3	481117	88.21	0
3	481663	88.31	0
3	482209	88.41	0
3	482755	88.51	0
3	483301	88.61	0
3	483847	88.71	0
3	484393	88.81	0
3	484939	88.91	0
3	485493	89.01	0
3	486039	89.11	0
3	486585	89.21	0
3	487131	89.31	0
3	487677	89.41	0
3	488223	89.51	0
3	488769	89.61	0
3	489315	89.71	0
3	489861	89.81	0
3	490407	89.91	0
3	490961	90.01	0
3	491507	90.11	0
3	492053	90.21	0
3	492599	90.31	0
3	493145	90.41	0
3	493691	90.51	0
3	494237	90.61	0
3	494783	90.71	0
3	495329	90.81	0
3	495875	90.91	0
3	496429	91.01	0
3	496975	91.11	0
3	497521	91.21	0
3	498067	91.31	0
3	498613	91.41	0
3	499159	91.51	0
3	499705	91.61	0
3	500251	91.71	0
3	500797	91.81	0
3	501343	91.91	0
3	501897	92.01	0
3	502443	92.11	0
3	502989	92.21	0
3	503535	92.31	0
3	504081	92.41	0
3	504627	92.51	0
3	505173	92.61	0
3	505719	92.71	0
3	506265	92.81	0
3	506811	92.91	0
3	507365	93.01	0
3	507911	93.11	0
3	508457	93.21	0
3	509003	93.31	0
3	509549	93.41	0
3	510095	93.51	0
3	510641	93.61	0
3	511187	93.71	0
3	511733	93.81	0
3	512279	93.91	0
3	512833	94.01	0
3	513379	94.11	0
3	513925	94.21	0
3	514471	94.31	0
3	515017	94.41	0
3	515563	94.51	0
3	516109	94.61	0
3	516655	94.71	0
3	517201	94.81	0
3	517747	94.91	0
3	518301	95.01	0
3	518847	95.11	0
3	519393	95.21	0
3	519939	95.31	0
3	520485	95.41	0
3	521031	95.51	0
3	521577	95.61	0
3	522123	95.71	0
[...]
104	408936	75	4
104	414404	76	4
104	419872	77	4
104	425340	78	4
104	430808	79	4
104	436276	80	4
104	441744	81	4
104	447212	82	4
104	452680	83	4
104	458148	84	4
104	463616	85	4
104	469084	86	4
104	474552	87	4
104	480020	88	4
104	485488	89	4
104	490956	90	4
104	496424	91	4
104	501892	92	4
104	507360	93	4
104	512828	94	4
104	518296	95	4
104	523764	96	4
104	529232	97	4
104	534700	98	4
104	540168	99	4
104	545636	100	4
105	5030	2	0.022473
105	10498	3	0.02497
105	15966	4	0.02497
105	21434	5	0.02497
105	26902	6	0.02497
105	32370	7	0.02497
105	37838	8	0.02497
105	43306	9	0.02497
105	48775	10	0.02497
105	54379	11	0.025018
105	59917	12	0.02497
105	65455	13	0.02497
105	70993	14	0.02497
105	76531	15	0.02497
105	82069	16	0.02497
105	87607	17	0.02497
105	93145	18	0.02497
105	98683	19	0.02497
105	104221	20	0.02497
105	109759	21	0.02497
105	115297	22	0.02497
105	120835	23	0.02497
105	126373	24	0.02497
105	131911	25	0.02497
105	137449	26	0.02497
105	142987	27	0.02497
105	148525	28	0.02497
105	154063	29	0.02497
105	159601	30	0.02497
105	165139	31	0.02497
105	170677	32	0.02497
105	176215	33	0.02497
105	181753	34	0.02497
105	187291	35	0.02497
105	192829	36	0.02497
105	198367	37	0.02497
105	203905	38	0.02497
105	209443	39	0.02497
105	214981	40	0.02497
105	220519	41	0.02497
105	226057	42	0.02497
105	231686	43	0.025082
105	237214	44	0.02497
105	242742	45	0.02497
105	248270	46	0.02497
105	253798	47	0.02497
105	259326	48	0.02497
105	264943	49	0.025082
105	270461	50	0.02497
105	275979	51	0.02497
105	281497	52	0.02497
105	287015	53	0.02497
105	292625	54	0.025082
105	298133	55	0.02497
105	303641	56	0.02497
105	309149	57	0.02497
105	314657	58	0.02497
105	320255	59	0.025115372362
105	325753	60	0.02497
105	331251	61	0.02497
105	336749	62	0.02497
105	342247	63	0.02497
105	347832	64	0.025082
105	353320	65	0.02497
105	358808	66	0.02497
105	364296	67	0.02497
105	369875	68	0.025082
105	375353	69	0.02497
105	380831	70	0.02497
105	386309	71	0.02497
105	391787	72	0.02497
105	398000	73	0.025898
105	403468	74	0.02497
105	408936	75	0.02497
105	414404	76	0.02497
105	419872	77	0.02497
105	425340	78	0.02497
105	430808	79	0.02497
105	436276	80	0.02497
105	441744	81	0.02497
105	447212	82	0.02497
105	452680	83	0.02497
105	458148	84	0.02497
105	463616	85	0.02497
105	469084	86	0.02497
105	474552	87	0.02497
105	480020	88	0.02497
105	485488	89	0.02497
105	490956	90	0.02497
105	496424	91	0.02497
105	501892	92	0.02497
105	507360	93	0.02497
105	512828	94	0.02497
105	518296	95	0.02497
105	523764	96	0.02497
105	529232	97	0.02497
105	534700	98	0.02497
105	540168	99	0.02497
105	545636	100	0.02497
106	5030	2	0
106	10498	3	0
106	15966	4	0
106	21434	5	0
106	26902	6	0
106	32370	7	0
106	37838	8	0
106	43306	9	0
106	48775	10	0
106	54379	11	0
106	59917	12	0
106	65455	13	0
106	70993	14	0
106	76531	15	0
106	82069	16	0
106	87607	17	0
106	93145	18	0
106	98683	19	0
106	104221	20	0
106	109759	21	0
106	115297	22	0
106	120835	23	0
106	126373	24	0
106	131911	25	0
106	137449	26	0
106	142987	27	0
106	148525	28	0
106	154063	29	0
106	159601	30	0
106	165139	31	0
106	170677	32	0
106	176215	33	0
106	181753	34	0
106	187291	35	0
106	192829	36	0
106	198367	37	0
106	203905	38	0
106	209443	39	0
106	214981	40	0
106	220519	41	0
106	226057	42	0
106	231686	43	0
106	237214	44	0
106	242742	45	0
106	248270	46	0
106	253798	47	0
106	259326	48	0
106	264943	49	0
106	270461	50	0
106	275979	51	0
106	281497	52	0
106	287015	53	0
106	292625	54	0
106	298133	55	0
106	303641	56	0
106	309149	57	0
106	314657	58	0
106	320255	59	0
106	325753	60	0
106	331251	61	0
106	336749	62	0
106	342247	63	0
106	347832	64	0
106	353320	65	0
106	358808	66	0
106	364296	67	0
106	369875	68	0
106	375353	69	0
106	380831	70	0
106	386309	71	0
106	391787	72	0
106	398000	73	0
106	403468	74	0
106	408936	75	0
106	414404	76	0
106	419872	77	0
106	425340	78	0
106	430808	79	0
106	436276	80	0
106	441744	81	0
106	447212	82	0
106	452680	83	0
106	458148	84	0
106	463616	85	0
106	469084	86	0
106	474552	87	0
106	480020	88	0
106	485488	89	0
106	490956	90	0
106	496424	91	0
106	501892	92	0
106	507360	93	0
106	512828	94	0
106	518296	95	0
106	523764	96	0
106	529232	97	0
106	534700	98	0
106	540168	99	0
106	545636	100	0
107	5031	2	5
107	10499	3	5
107	15967	4	5
107	21435	5	5
107	26903	6	5
107	32371	7	5
107	37839	8	5
107	43307	9	5
107	48776	10	5
107	54380	11	5
107	59918	12	5
107	65456	13	5
107	70994	14	5
107	76532	15	5
107	82070	16	5
107	87608	17	5
107	93146	18	5
107	98684	19	5
107	104222	20	5
107	109760	21	5
107	115298	22	5
107	120836	23	5
107	126374	24	5
107	131912	25	5
107	137450	26	5
107	142988	27	5
107	148526	28	5
107	154064	29	5
107	159602	30	5
107	165140	31	5
107	170678	32	5
107	176216	33	5
107	181754	34	5
107	187292	35	5
107	192830	36	5
107	198368	37	5
107	203906	38	5
107	209444	39	5
107	214982	40	5
107	220520	41	5
107	226058	42	5
107	231687	43	5
107	237215	44	5
107	242743	45	5
107	248271	46	5
107	253799	47	5
107	259327	48	5
107	264944	49	5
107	270462	50	5
107	275980	51	5
107	281498	52	5
107	287016	53	5
107	292626	54	5
107	298134	55	5
107	303642	56	5
107	309150	57	5
107	314658	58	5
107	320256	59	5
107	325754	60	5
107	331252	61	5
107	336750	62	5
107	342248	63	5
107	347833	64	5
107	353321	65	5
107	358809	66	5
107	364297	67	5
107	369876	68	5
107	375354	69	5
107	380832	70	5
107	386310	71	5
107	391788	72	5
107	398001	73	5
107	403469	74	5
107	408937	75	5
107	414405	76	5
107	419873	77	5
107	425341	78	5
107	430809	79	5
107	436277	80	5
107	441745	81	5
107	447213	82	5
107	452681	83	5
107	458149	84	5
107	463617	85	5
107	469085	86	5
107	474553	87	5
107	480021	88	5
107	485489	89	5
107	490957	90	5
107	496425	91	5
107	501893	92	5
107	507361	93	5
107	512829	94	5
107	518297	95	5
107	523765	96	5
107	529233	97	5
107	534701	98	5
107	540169	99	5
107	545637	100	5
108	5031	2	0.022473
108	10499	3	0.02497
108	15967	4	0.02497
108	21435	5	0.02497
108	26903	6	0.02497
108	32371	7	0.02497
108	37839	8	0.02497
108	43307	9	0.02497
108	48776	10	0.02497
108	54380	11	0.025018
108	59918	12	0.02497
108	65456	13	0.02497
108	70994	14	0.02497
108	76532	15	0.02497
108	82070	16	0.02497
108	87608	17	0.02497
108	93146	18	0.02497
108	98684	19	0.02497
108	104222	20	0.02497
108	109760	21	0.02497
108	115298	22	0.02497
108	120836	23	0.02497
108	126374	24	0.02497
108	131912	25	0.02497
108	137450	26	0.02497
108	142988	27	0.02497
108	148526	28	0.02497
108	154064	29	0.02497
108	159602	30	0.02497
108	165140	31	0.02497
108	170678	32	0.02497
108	176216	33	0.02497
108	181754	34	0.02497
108	187292	35	0.02497
108	192830	36	0.02497
108	198368	37	0.02497
108	203906	38	0.02497
108	209444	39	0.02497
108	214982	40	0.02497
108	220520	41	0.02497
108	226058	42	0.02497
108	231687	43	0.025082
108	237215	44	0.02497
108	242743	45	0.02497
108	248271	46	0.02497
108	253799	47	0.02497
108	259327	48	0.02497
108	264944	49	0.025082
108	270462	50	0.02497
108	275980	51	0.02497
108	281498	52	0.02497
108	287016	53	0.02497
108	292626	54	0.025082
108	298134	55	0.02497
108	303642	56	0.02497
108	309150	57	0.02497
108	314658	58	0.02497
108	320256	59	0.025082
108	325754	60	0.02497
108	331252	61	0.02497
108	336750	62	0.02497
108	342248	63	0.02497
108	347833	64	0.025115465668
108	353321	65	0.02497
108	358809	66	0.02497
108	364297	67	0.02497
108	369876	68	0.025082
108	375354	69	0.02497
108	380832	70	0.02497
108	386310	71	0.02497
108	391788	72	0.02497
108	398001	73	0.025898
108	403469	74	0.02497
108	408937	75	0.02497
108	414405	76	0.02497
108	419873	77	0.02497
108	425341	78	0.02497
108	430809	79	0.02497
108	436277	80	0.02497
108	441745	81	0.02497
108	447213	82	0.02497
108	452681	83	0.02497
108	458149	84	0.02497
108	463617	85	0.02497
108	469085	86	0.02497
108	474553	87	0.02497
108	480021	88	0.02497
108	485489	89	0.02497
108	490957	90	0.02497
108	496425	91	0.02497
108	501893	92	0.02497
108	507361	93	0.02497
108	512829	94	0.02497
108	518297	95	0.02497
108	523765	96	0.02497
108	529233	97	0.02497
108	534701	98	0.02497
108	540169	99	0.02497
108	545637	100	0.02497
109	5031	2	0
109	10499	3	0
109	15967	4	0
109	21435	5	0
109	26903	6	0
109	32371	7	0
109	37839	8	0
109	43307	9	0
109	48776	10	0
109	54380	11	0
109	59918	12	0
109	65456	13	0
109	70994	14	0
109	76532	15	0
109	82070	16	0
109	87608	17	0
109	93146	18	0
109	98684	19	0
109	104222	20	0
109	109760	21	0
109	115298	22	0
109	120836	23	0
109	126374	24	0
109	131912	25	0
109	137450	26	0
109	142988	27	0
109	148526	28	0
109	154064	29	0
109	159602	30	0
109	165140	31	0
109	170678	32	0
109	176216	33	0
109	181754	34	0
109	187292	35	0
109	192830	36	0
109	198368	37	0
109	203906	38	0
109	209444	39	0
109	214982	40	0
109	220520	41	0
109	226058	42	0
109	231687	43	0
109	237215	44	0
109	242743	45	0
109	248271	46	0
109	253799	47	0
109	259327	48	0
109	264944	49	0
109	270462	50	0
109	275980	51	0
109	281498	52	0
109	287016	53	0
109	292626	54	0
109	298134	55	0
109	303642	56	0
109	309150	57	0
109	314658	58	0
109	320256	59	0
109	325754	60	0
109	331252	61	0
109	336750	62	0
109	342248	63	0
109	347833	64	0
109	353321	65	0
109	358809	66	0
109	364297	67	0
109	369876	68	0
109	375354	69	0
109	380832	70	0
109	386310	71	0
109	391788	72	0
109	398001	73	0
109	403469	74	0
109	408937	75	0
109	414405	76	0
109	419873	77	0
109	425341	78	0
109	430809	79	0
109	436277	80	0
109	441745	81	0
109	447213	82	0
109	452681	83	0
109	458149	84	0
109	463617	85	0
109	469085	86	0
109	474553	87	0
109	480021	88	0
109	485489	89	0
109	490957	90	0
109	496425	91	0
109	501893	92	0
109	507361	93	0
109	512829	94	0
109	518297	95	0
109	523765	96	0
109	529233	97	0
109	534701	98	0
109	540169	99	0
109	545637	100	0
110	5032	2	6
110	10500	3	6
110	15968	4	6
110	21436	5	6
110	26904	6	6
110	32372	7	6
110	37840	8	6
110	43308	9	6
110	48777	10	6
110	54381	11	6
110	59919	12	6
110	65457	13	6
110	70995	14	6
110	76533	15	6
110	82071	16	6
110	87609	17	6
110	93147	18	6
110	98685	19	6
110	104223	20	6
110	109761	21	6
110	115299	22	6
110	120837	23	6
110	126375	24	6
110	131913	25	6
110	137451	26	6
110	142989	27	6
110	148527	28	6
110	154065	29	6
110	159603	30	6
110	165141	31	6
110	170679	32	6
110	176217	33	6
110	181755	34	6
110	187293	35	6
110	192831	36	6
110	198369	37	6
110	203907	38	6
110	209445	39	6
110	214983	40	6
110	220521	41	6
110	226059	42	6
110	231688	43	6
110	237216	44	6
110	242744	45	6
110	248272	46	6
110	253800	47	6
110	259328	48	6
110	264945	49	6
110	270463	50	6
110	275981	51	6
110	281499	52	6
110	287017	53	6
110	292627	54	6
110	298135	55	6
110	303643	56	6
110	309151	57	6
110	314659	58	6
110	320257	59	6
110	325755	60	6
110	331253	61	6
110	336751	62	6
110	342249	63	6
110	347834	64	6
110	353322	65	6
110	358810	66	6
110	364298	67	6
110	369877	68	6
110	375355	69	6
110	380833	70	6
110	386311	71	6
110	391789	72	6
110	398002	73	6
110	403470	74	6
110	408938	75	6
110	414406	76	6
110	419874	77	6
110	425342	78	6
110	430810	79	6
110	436278	80	6
110	441746	81	6
110	447214	82	6
110	452682	83	6
110	458150	84	6
110	463618	85	6
110	469086	86	6
110	474554	87	6
110	480022	88	6
110	485490	89	6
110	490958	90	6
110	496426	91	6
110	501894	92	6
110	507362	93	6
110	512830	94	6
110	518298	95	6
110	523766	96	6
110	529234	97	6
110	534702	98	6
110	540170	99	6
110	545638	100	6
111	5032	2	0.022473
111	10500	3	0.02497
111	15968	4	0.02497
111	21436	5	0.02497
111	26904	6	0.02497
111	32372	7	0.02497
111	37840	8	0.02497
111	43308	9	0.02497
111	48777	10	0.02497
111	54381	11	0.025018
111	59919	12	0.02497
111	65457	13	0.02497
111	70995	14	0.02497
111	76533	15	0.02497
111	82071	16	0.02497
111	87609	17	0.02497
111	93147	18	0.02497
111	98685	19	0.02497
111	104223	20	0.02497
111	109761	21	0.02497
111	115299	22	0.02497
111	120837	23	0.02497
111	126375	24	0.02497
111	131913	25	0.02497
111	137451	26	0.02497
111	142989	27	0.02497
111	148527	28	0.02497
111	154065	29	0.02497
111	159603	30	0.02497
111	165141	31	0.02497
111	170679	32	0.02497
111	176217	33	0.02497
111	181755	34	0.02497
111	187293	35	0.02497
111	192831	36	0.02497
111	198369	37	0.02497
111	203907	38	0.02497
111	209445	39	0.02497
111	214983	40	0.02497
111	220521	41	0.02497
111	226059	42	0.02497
111	231688	43	0.025082
111	237216	44	0.02497
111	242744	45	0.02497
111	248272	46	0.02497
111	253800	47	0.02497
111	259328	48	0.02497
111	264945	49	0.025082
111	270463	50	0.02497
111	275981	51	0.02497
111	281499	52	0.02497
111	287017	53	0.02497
111	292627	54	0.025082
111	298135	55	0.02497
111	303643	56	0.02497
111	309151	57	0.02497
111	314659	58	0.02497
111	320257	59	0.025082
111	325755	60	0.02497
111	331253	61	0.02497
111	336751	62	0.02497
111	342249	63	0.02497
111	347834	64	0.025082
111	353322	65	0.02497
111	358810	66	0.02497
111	364298	67	0.02497
111	369877	68	0.025115558964
111	375355	69	0.02497
111	380833	70	0.02497
111	386311	71	0.02497
111	391789	72	0.02497
111	398002	73	0.025898
111	403470	74	0.02497
111	408938	75	0.02497
111	414406	76	0.02497
111	419874	77	0.02497
111	425342	78	0.02497
111	430810	79	0.02497
111	436278	80	0.02497
111	441746	81	0.02497
111	447214	82	0.02497
111	452682	83	0.02497
111	458150	84	0.02497
111	463618	85	0.02497
111	469086	86	0.02497
111	474554	87	0.02497
111	480022	88	0.02497
111	485490	89	0.02497
111	490958	90	0.02497
111	496426	91	0.02497
111	501894	92	0.02497
111	507362	93	0.02497
111	512830	94	0.02497
111	518298	95	0.02497
111	523766	96	0.02497
111	529234	97	0.02497
111	534702	98	0.02497
111	540170	99	0.02497
111	545638	100	0.02497
112	5032	2	0
112	10500	3	0
112	15968	4	0
112	21436	5	0
112	26904	6	0
112	32372	7	0
112	37840	8	0
112	43308	9	0
112	48777	10	0
112	54381	11	0
112	59919	12	0
112	65457	13	0
112	70995	14	0
112	76533	15	0
112	82071	16	0
112	87609	17	0
112	93147	18	0
112	98685	19	0
112	104223	20	0
112	109761	21	0
112	115299	22	0
112	120837	23	0
112	126375	24	0
112	131913	25	0
112	137451	26	0
112	142989	27	0
112	148527	28	0
112	154065	29	0
112	159603	30	0
112	165141	31	0
112	170679	32	0
112	176217	33	0
112	181755	34	0
112	187293	35	0
112	192831	36	0
112	198369	37	0
112	203907	38	0
112	209445	39	0
112	214983	40	0
112	220521	41	0
112	226059	42	0
112	231688	43	0
112	237216	44	0
112	242744	45	0
112	248272	46	0
112	253800	47	0
112	259328	48	0
112	264945	49	0
112	270463	50	0
112	275981	51	0
112	281499	52	0
112	287017	53	0
112	292627	54	0
112	298135	55	0
112	303643	56	0
112	309151	57	0
112	314659	58	0
112	320257	59	0
112	325755	60	0
112	331253	61	0
112	336751	62	0
112	342249	63	0
112	347834	64	0
112	353322	65	0
112	358810	66	0
112	364298	67	0
112	369877	68	0
112	375355	69	0
112	380833	70	0
112	386311	71	0
112	391789	72	0
112	398002	73	0
112	403470	74	0
112	408938	75	0
112	414406	76	0
112	419874	77	0
112	425342	78	0
112	430810	79	0
112	436278	80	0
112	441746	81	0
112	447214	82	0
112	452682	83	0
112	458150	84	0
112	463618	85	0
112	469086	86	0
112	474554	87	0
112	480022	88	0
112	485490	89	0
112	490958	90	0
112	496426	91	0
112	501894	92	0
112	507362	93	0
112	512830	94	0
112	518298	95	0
112	523766	96	0
112	529234	97	0
112	534702	98	0
112	540170	99	0
112	545638	100	0
113	5033	2	7
113	10501	3	7
113	15969	4	7
113	21437	5	7
113	26905	6	7
113	32373	7	7
113	37841	8	7
113	43309	9	7
113	48778	10	7
113	54382	11	7
113	59920	12	7
113	65458	13	7
113	70996	14	7
113	76534	15	7
113	82072	16	7
113	87610	17	7
113	93148	18	7
113	98686	19	7
113	104224	20	7
113	109762	21	7
113	115300	22	7
113	120838	23	7
113	126376	24	7
113	131914	25	7
113	137452	26	7
113	142990	27	7
113	148528	28	7
113	154066	29	7
113	159604	30	7
113	165142	31	7
113	170680	32	7
113	176218	33	7
113	181756	34	7
113	187294	35	7
113	192832	36	7
113	198370	37	7
113	203908	38	7
113	209446	39	7
113	214984	40	7
113	220522	41	7
113	226060	42	7
113	231689	43	7
113	237217	44	7
113	242745	45	7
113	248273	46	7
113	253801	47	7
113	259329	48	7
113	264946	49	7
113	270464	50	7
113	275982	51	7
113	281500	52	7
113	287018	53	7
113	292628	54	7
113	298136	55	7
113	303644	56	7
113	309152	57	7
113	314660	58	7
113	320258	59	7
113	325756	60	7
113	331254	61	7
113	336752	62	7
113	342250	63	7
113	347835	64	7
113	353323	65	7
113	358811	66	7
113	364299	67	7
113	369878	68	7
113	375356	69	7
113	380834	70	7
113	386312	71	7
113	391790	72	7
113	398003	73	7
113	403471	74	7
113	408939	75	7
113	414407	76	7
113	419875	77	7
113	425343	78	7
113	430811	79	7
113	436279	80	7
113	441747	81	7
113	447215	82	7
113	452683	83	7
113	458151	84	7
113	463619	85	7
113	469087	86	7
113	474555	87	7
113	480023	88	7
113	485491	89	7
113	490959	90	7
113	496427	91	7
113	501895	92	7
113	507363	93	7
113	512831	94	7
113	518299	95	7
113	523767	96	7
113	529235	97	7
113	534703	98	7
113	540171	99	7
113	545639	100	7
114	5033	2	0.022473
114	10501	3	0.02497
114	15969	4	0.02497
114	21437	5	0.02497
114	26905	6	0.02497
114	32373	7	0.02497
114	37841	8	0.02497
114	43309	9	0.02497
114	48778	10	0.02497
114	54382	11	0.025018
114	59920	12	0.02497
114	65458	13	0.02497
114	70996	14	0.02497
114	76534	15	0.02497
114	82072	16	0.02497
114	87610	17	0.02497
114	93148	18	0.02497
114	98686	19	0.02497
114	104224	20	0.02497
114	109762	21	0.02497
114	115300	22	0.02497
114	120838	23	0.02497
114	126376	24	0.02497
114	131914	25	0.02497
114	137452	26	0.02497
114	142990	27	0.02497
114	148528	28	0.02497
114	154066	29	0.02497
114	159604	30	0.02497
114	165142	31	0.02497
114	170680	32	0.02497
114	176218	33	0.02497
114	181756	34	0.02497
114	187294	35	0.02497
114	192832	36	0.02497
114	198370	37	0.02497
114	203908	38	0.02497
114	209446	39	0.02497
114	214984	40	0.02497
114	220522	41	0.02497
114	226060	42	0.02497
114	231689	43	0.025082
114	237217	44	0.02497
114	242745	45	0.02497
114	248273	46	0.02497
114	253801	47	0.02497
114	259329	48	0.02497
114	264946	49	0.025082
114	270464	50	0.02497
114	275982	51	0.02497
114	281500	52	0.02497
114	287018	53	0.02497
114	292628	54	0.025082
114	298136	55	0.02497
114	303644	56	0.02497
114	309152	57	0.02497
114	314660	58	0.02497
114	320258	59	0.025082
114	325756	60	0.02497
114	331254	61	0.02497
114	336752	62	0.02497
114	342250	63	0.02497
114	347835	64	0.025082
114	353323	65	0.02497
114	358811	66	0.02497
114	364299	67	0.02497
114	369878	68	0.025082
114	375356	69	0.02497
114	380834	70	0.02497
114	386312	71	0.02497
114	391790	72	0.02497
114	398003	73	0.025931652278
114	403471	74	0.02497
114	408939	75	0.02497
114	414407	76	0.02497
114	419875	77	0.02497
114	425343	78	0.02497
114	430811	79	0.02497
114	436279	80	0.02497
114	441747	81	0.02497
114	447215	82	0.02497
114	452683	83	0.02497
114	458151	84	0.02497
114	463619	85	0.02497
114	469087	86	0.02497
114	474555	87	0.02497
114	480023	88	0.02497
114	485491	89	0.02497
114	490959	90	0.02497
114	496427	91	0.02497
114	501895	92	0.02497
114	507363	93	0.02497
114	512831	94	0.02497
114	518299	95	0.02497
114	523767	96	0.02497
114	529235	97	0.02497
114	534703	98	0.02497
114	540171	99	0.02497
114	545639	100	0.02497
115	5033	2	0
115	10501	3	0
115	15969	4	0
115	21437	5	0
115	26905	6	0
115	32373	7	0
115	37841	8	0
115	43309	9	0
115	48778	10	0
115	54382	11	0
115	59920	12	0
115	65458	13	0
115	70996	14	0
115	76534	15	0
115	82072	16	0
115	87610	17	0
115	93148	18	0
115	98686	19	0
115	104224	20	0
115	109762	21	0
115	115300	22	0
115	120838	23	0
115	126376	24	0
115	131914	25	0
115	137452	26	0
115	142990	27	0
115	148528	28	0
115	154066	29	0
115	159604	30	0
115	165142	31	0
115	170680	32	0
115	176218	33	0
115	181756	34	0
115	187294	35	0
115	192832	36	0
115	198370	37	0
115	203908	38	0
115	209446	39	0
115	214984	40	0
115	220522	41	0
115	226060	42	0
115	231689	43	0
115	237217	44	0
115	242745	45	0
115	248273	46	0
115	253801	47	0
115	259329	48	0
115	264946	49	0
115	270464	50	0
115	275982	51	0
115	281500	52	0
115	287018	53	0
115	292628	54	0
115	298136	55	0
115	303644	56	0
115	309152	57	0
115	314660	58	0
115	320258	59	0
115	325756	60	0
115	331254	61	0
115	336752	62	0
115	342250	63	0
115	347835	64	0
115	353323	65	0
115	358811	66	0
115	364299	67	0
115	369878	68	0
115	375356	69	0
115	380834	70	0
115	386312	71	0
115	391790	72	0
115	398003	73	0
115	403471	74	0
115	408939	75	0
115	414407	76	0
115	419875	77	0
115	425343	78	0
115	430811	79	0
115	436279	80	0
115	441747	81	0
115	447215	82	0
115	452683	83	0
115	458151	84	0
115	463619	85	0
115	469087	86	0
115	474555	87	0
115	480023	88	0
115	485491	89	0
115	490959	90	0
115	496427	91	0
115	501895	92	0
115	507363	93	0
115	512831	94	0
115	518299	95	0
115	523767	96	0
115	529235	97	0
115	534703	98	0
115	540171	99	0
115	545639	100	0

