version 3
run BreakRanksNoGui-88-20240710-13:39:35-257614
attr configname BreakRanksNoGui
attr datetime 20240710-13:39:35
attr datetimef 20240710-133935
attr experiment BreakRanksNoGui
attr inifile omnetpp.ini
attr iterationvars "$nCars=2, $platoonSize=2, $nLanes=1, $ploegH=0.5, $controller=1, $headway=0.1, $leaderHeadway=1.2, $leaderSpeed=110, $breakRanksSafetyDistance=2, $minSpeed=100, $maxSpeed=120, $beaconInterval=0.1, $priority=4, $packetSize=200, $sController=\"CACC\", $0=2, $1=0"
attr iterationvarsd nCars=2/platoonSize=2/nLanes=1/ploegH=0.5/controller=1/headway=0.1/leaderHeadway=1.2/leaderSpeed=110/breakRanksSafetyDistance=2/minSpeed=100/maxSpeed=120/beaconInterval=0.1/priority=4/packetSize=200/sController=CACC/2/0
attr iterationvarsf nCars=2,platoonSize=2,nLanes=1,ploegH=0.5,controller=1,headway=0.1,leaderHeadway=1.2,leaderSpeed=110,breakRanksSafetyDistance=2,minSpeed=100,maxSpeed=120,beaconInterval=0.1,priority=4,packetSize=200,sController=CACC,2,0-
attr measurement "$nCars=2, $platoonSize=2, $nLanes=1, $ploegH=0.5, $controller=1, $headway=0.1, $leaderHeadway=1.2, $leaderSpeed=110, $breakRanksSafetyDistance=2, $minSpeed=100, $maxSpeed=120, $beaconInterval=0.1, $priority=4, $packetSize=200, $sController=\"CACC\", $0=2, $1=0"
attr network Highway
attr processid 257614
attr repetition 8
attr replication #8
attr resultdir results
attr runnumber 88
attr seedset 8
itervar beaconInterval 0.1
itervar breakRanksSafetyDistance 2
itervar controller 1
itervar headway 0.1
itervar leaderHeadway 1.2
itervar leaderSpeed 110
itervar maxSpeed 120
itervar minSpeed 100
itervar nCars 2
itervar nLanes 1
itervar packetSize 200
itervar platoonSize 2
itervar ploegH 0.5
itervar priority 4
itervar sController "\"CACC\""
config image-path ../../../veins/images
config repeat 10
config extends BreakRanks
config *.manager.command "\"sumo\""
config *.manager.ignoreGuiCommands true
config output-vector-file "results/BreakRanks_1_0.1_110_2_2 /result_8.vec"
config output-scalar-file "results/BreakRanks_1_0.1_110_2_2 /result_8.sca"
config extends Platooning
config *.node[*].scenario_type "\"BreakRanksScenario\""
config *.manager.command "\"sumo-gui\""
config *.node[*].scenario_type "\"SimpleScenario\""
config cmdenv-express-mode true
config cmdenv-autoflush true
config cmdenv-status-frequency 15s
config num-rngs 6
config network Highway
config debug-on-errors true
config print-undisposed true
config *.playgroundSizeX 65000m
config *.playgroundSizeY 25000m
config *.playgroundSizeZ 50m
config sim-time-limit "100 s"
config *.annotations.draw false
config *.obstacles.debug false
config *.world.useTorus false
config *.world.use2D false
config *.manager.updateInterval 0.01s
config *.manager.host "\"localhost\""
config *.manager.moduleType "\"org.car2x.plexe.PlatoonCar\""
config *.manager.moduleName "\"node\""
config *.manager.moduleDisplayString "\"\""
config *.manager.autoShutdown true
config *.manager.margin 25
config *.connectionManager.sendDirect true
config *.connectionManager.maxInterfDist 2600m
config *.connectionManager.drawMaxIntfDist false
config *.**.nic.mac1609_4.useServiceChannel false
config *.**.nic.mac1609_4.txPower 100mW
config *.**.nic.mac1609_4.bitrate 6Mbps
config *.**.nic.mac1609_4.useAcks true
config *.**.nic.mac1609_4.ackErrorRate 0.0
config *.**.nic.mac1609_4.frameErrorRate 0.0
config *.**.nic.phy80211p.minPowerLevel -94dBm
config *.**.nic.phy80211p.maxTXPower 100mW
config *.**.nic.phy80211p.useNoiseFloor true
config *.**.nic.phy80211p.noiseFloor -95dBm
config *.**.nic.phy80211p.decider "xmldoc(\"config.xml\")"
config *.**.nic.phy80211p.analogueModels "xmldoc(\"config.xml\")"
config *.**.nic.phy80211p.usePropagationDelay true
config *.node[*].mobility.x 0
config *.node[*].mobility.y 0
config *.node[*].mobility.z 1.895
config seed-set 8
config **.seed 8
config *.node[*].prot.rng-0 2
config *.node[*].appl.rng-0 3
config *.node[*].scenario.rng-0 4
config **.traffic.rng-0 5
config *.manager.configFile "\"./sumocfg/freeway.sumo.cfg\""
config *.manager.launchConfig "xmldoc(\"./sumocfg/freeway.launchd.xml\")"
config **.numberOfCars 2
config **.numberOfCarsPerPlatoon 2
config **.numberOfLanes 1
config *.node[*].helper_type "\"PositionHelper\""
config *.node[*].scenario.caccC1 0.5
config *.node[*].scenario.caccXi 1
config *.node[*].scenario.caccOmegaN "0.2 Hz"
config *.node[*].scenario.caccSpacing "2 m"
config *.node[*].scenario.engineTau "0.5 s"
config *.node[*].scenario.ploegH 0.5s
config *.node[*].scenario.ploegKp 0.2
config *.node[*].scenario.ploegKd 0.7
config *.node[*].scenario.useRealisticEngine false
config *.node[*].scenario.useControllerAcceleration true
config *.node[*].scenario.nLanes 1
config **.numericController 1
config **.headway 0.1s
config *.node[*].scenario.accHeadway 0.1s
config *.node[*].scenario.leaderHeadway 1.2s
config *.node[*].scenario.leaderSpeed 110kmph
config *.node[*].appl_type "\"SimplePlatooningApp\""
config *.node[*].appl.*.scalar-recording true
config *.node[*].appl.*.vector-recording true
config *.node[0].appl.breakRanksSafetyDistance 2m
config *.node[*].appl.minSpeed 100kmph
config *.node[*].appl.maxSpeed 120kmph
config *.node[*].protocol_type "\"SimplePlatooningBeaconing\""
config *.node[*].prot.*.scalar-recording true
config *.node[*].prot.*.vector-recording true
config *.node[*].prot.beaconingInterval 0.1s
config *.node[*].prot.priority 4
config *.node[*].prot.packetSize 200
config **.traffic_type "\"PlatoonsTrafficManager\""
config **.traffic.platoonInsertTime "1 s"
config **.traffic.platoonInsertSpeed 110kmph
config **.traffic.nCars 2
config **.traffic.platoonSize 2
config **.traffic.nLanes 1
config **.traffic.platooningVType "\"vtypeauto\""
config **.traffic.controller "\"CACC\""
config **.traffic.platoonInsertDistance 2m
config **.traffic.platoonInsertHeadway 0s
config **.traffic.platoonLeaderHeadway 1.2s
config **.scalar-recording false
config **.vector-recording false

vector 0 Highway.node[0].appl distance ETV
vector 1 Highway.node[0].appl relativeSpeed ETV
vector 2 Highway.node[0].appl nodeId ETV
vector 3 Highway.node[0].appl acceleration ETV
vector 4 Highway.node[0].appl controllerAcceleration ETV
vector 5 Highway.node[0].appl speed ETV
vector 6 Highway.node[0].appl posx ETV
vector 7 Highway.node[0].appl posy ETV
vector 8 Highway.node[1].appl distance ETV
vector 9 Highway.node[1].appl relativeSpeed ETV
vector 10 Highway.node[1].appl nodeId ETV
vector 11 Highway.node[1].appl acceleration ETV
vector 12 Highway.node[1].appl controllerAcceleration ETV
vector 13 Highway.node[1].appl speed ETV
vector 14 Highway.node[1].appl posx ETV
vector 15 Highway.node[1].appl posy ETV
vector 16 Highway.node[1].prot leaderDelay ETV
vector 17 Highway.node[1].prot leaderDelayId ETV
vector 18 Highway.node[1].prot frontDelay ETV
vector 19 Highway.node[1].prot frontDelayId ETV
vector 20 Highway.node[0].prot nodeId ETV
vector 21 Highway.node[0].prot busyTime ETV
vector 22 Highway.node[0].prot collisions ETV
vector 23 Highway.node[1].prot nodeId ETV
vector 24 Highway.node[1].prot busyTime ETV
vector 25 Highway.node[1].prot collisions ETV
0	113	1.11	-1
0	161	1.21	-1
0	209	1.31	-1
0	257	1.41	-1
0	305	1.51	-1
0	353	1.61	-1
0	401	1.71	-1
0	449	1.81	-1
0	497	1.91	-1
0	547	2.01	-1
0	595	2.11	-1
0	643	2.21	-1
0	691	2.31	-1
0	739	2.41	-1
0	787	2.51	-1
0	835	2.61	-1
0	883	2.71	-1
0	931	2.81	-1
0	979	2.91	-1
0	1029	3.01	-1
0	1077	3.11	-1
0	1125	3.21	-1
0	1173	3.31	-1
0	1221	3.41	-1
0	1269	3.51	-1
0	1317	3.61	-1
0	1365	3.71	-1
0	1413	3.81	-1
0	1461	3.91	-1
0	1511	4.01	-1
0	1559	4.11	-1
0	1607	4.21	-1
0	1655	4.31	-1
0	1703	4.41	-1
0	1751	4.51	-1
0	1799	4.61	-1
0	1847	4.71	-1
0	1895	4.81	-1
0	1943	4.91	-1
0	1993	5.01	-1
0	2041	5.11	-1
0	2089	5.21	-1
0	2137	5.31	-1
0	2185	5.41	-1
0	2233	5.51	-1
0	2281	5.61	-1
0	2329	5.71	-1
0	2377	5.81	-1
0	2425	5.91	-1
0	2475	6.01	-1
0	2523	6.11	-1
0	2571	6.21	-1
0	2619	6.31	-1
0	2667	6.41	-1
0	2715	6.51	-1
0	2763	6.61	-1
0	2811	6.71	-1
0	2859	6.81	-1
0	2907	6.91	-1
0	2957	7.01	-1
0	3005	7.11	-1
0	3053	7.21	-1
0	3101	7.31	-1
0	3149	7.41	-1
0	3197	7.51	-1
0	3245	7.61	-1
0	3293	7.71	-1
0	3341	7.81	-1
0	3389	7.91	-1
0	3439	8.01	-1
0	3487	8.11	-1
0	3535	8.21	-1
0	3583	8.31	-1
0	3631	8.41	-1
0	3679	8.51	-1
0	3727	8.61	-1
0	3775	8.71	-1
0	3823	8.81	-1
0	3871	8.91	-1
0	3921	9.01	-1
0	3969	9.11	-1
0	4017	9.21	-1
0	4065	9.31	-1
0	4113	9.41	-1
0	4161	9.51	-1
0	4209	9.61	-1
0	4257	9.71	-1
0	4305	9.81	-1
0	4353	9.91	-1
0	4489	10.01	-1
0	4537	10.11	-1
0	4585	10.21	-1
0	4633	10.31	-1
0	4681	10.41	-1
0	4729	10.51	-1
0	4777	10.61	-1
0	4825	10.71	-1
0	4873	10.81	-1
0	4921	10.91	-1
0	4971	11.01	-1
0	5019	11.11	-1
0	5067	11.21	-1
0	5115	11.31	-1
0	5163	11.41	-1
0	5211	11.51	-1
0	5259	11.61	-1
0	5307	11.71	-1
0	5355	11.81	-1
0	5403	11.91	-1
0	5453	12.01	-1
0	5501	12.11	-1
0	5549	12.21	-1
0	5597	12.31	-1
0	5645	12.41	-1
0	5693	12.51	-1
0	5741	12.61	-1
0	5789	12.71	-1
0	5837	12.81	-1
0	5885	12.91	-1
0	5935	13.01	-1
0	5983	13.11	-1
0	6031	13.21	-1
0	6079	13.31	-1
0	6127	13.41	-1
0	6175	13.51	-1
0	6223	13.61	-1
0	6271	13.71	-1
0	6319	13.81	-1
0	6367	13.91	-1
0	6417	14.01	-1
0	6465	14.11	-1
0	6513	14.21	-1
0	6561	14.31	-1
0	6609	14.41	-1
0	6657	14.51	-1
0	6705	14.61	-1
0	6753	14.71	-1
0	6801	14.81	-1
0	6849	14.91	-1
0	6899	15.01	-1
0	6947	15.11	-1
0	6995	15.21	-1
0	7043	15.31	-1
0	7091	15.41	-1
0	7139	15.51	-1
0	7187	15.61	-1
0	7235	15.71	-1
0	7283	15.81	-1
0	7331	15.91	-1
0	7381	16.01	-1
0	7429	16.11	-1
0	7477	16.21	-1
0	7525	16.31	-1
0	7573	16.41	-1
0	7621	16.51	-1
0	7669	16.61	-1
0	7717	16.71	-1
0	7765	16.81	-1
0	7813	16.91	-1
0	7863	17.01	-1
0	7911	17.11	-1
0	7959	17.21	-1
0	8007	17.31	-1
0	8055	17.41	-1
0	8103	17.51	-1
0	8151	17.61	-1
0	8199	17.71	-1
0	8247	17.81	-1
0	8295	17.91	-1
0	8345	18.01	-1
0	8393	18.11	-1
0	8441	18.21	-1
0	8489	18.31	-1
0	8537	18.41	-1
0	8585	18.51	-1
0	8633	18.61	-1
0	8681	18.71	-1
0	8729	18.81	-1
0	8777	18.91	-1
0	8827	19.01	-1
0	8875	19.11	-1
0	8923	19.21	-1
0	8971	19.31	-1
0	9019	19.41	-1
0	9067	19.51	-1
0	9115	19.61	-1
0	9163	19.71	-1
0	9211	19.81	-1
0	9259	19.91	-1
0	9309	20.01	-1
0	9357	20.11	-1
0	9405	20.21	-1
0	9453	20.31	-1
0	9501	20.41	-1
0	9549	20.51	-1
0	9597	20.61	-1
0	9645	20.71	-1
0	9693	20.81	-1
0	9741	20.91	-1
0	9791	21.01	-1
0	9839	21.11	-1
0	9887	21.21	-1
0	9935	21.31	-1
0	9983	21.41	-1
0	10031	21.51	-1
0	10079	21.61	-1
0	10127	21.71	-1
0	10175	21.81	-1
0	10223	21.91	-1
0	10273	22.01	-1
0	10321	22.11	-1
0	10369	22.21	-1
0	10417	22.31	-1
0	10465	22.41	-1
0	10513	22.51	-1
0	10561	22.61	-1
0	10609	22.71	-1
0	10657	22.81	-1
0	10705	22.91	-1
0	10755	23.01	-1
0	10803	23.11	-1
0	10851	23.21	-1
0	10899	23.31	-1
0	10947	23.41	-1
0	10995	23.51	-1
0	11043	23.61	-1
0	11091	23.71	-1
0	11139	23.81	-1
0	11187	23.91	-1
0	11237	24.01	-1
0	11285	24.11	-1
0	11333	24.21	-1
0	11381	24.31	-1
0	11429	24.41	-1
0	11477	24.51	-1
0	11525	24.61	-1
0	11573	24.71	-1
0	11621	24.81	-1
0	11669	24.91	-1
0	11719	25.01	-1
0	11767	25.11	-1
0	11815	25.21	-1
0	11863	25.31	-1
0	11911	25.41	-1
0	11959	25.51	-1
0	12007	25.61	-1
0	12055	25.71	-1
0	12103	25.81	-1
0	12151	25.91	-1
0	12201	26.01	-1
0	12249	26.11	-1
0	12297	26.21	-1
0	12345	26.31	-1
0	12393	26.41	-1
0	12441	26.51	-1
0	12489	26.61	-1
0	12537	26.71	-1
0	12585	26.81	-1
0	12633	26.91	-1
0	12683	27.01	-1
0	12731	27.11	-1
0	12779	27.21	-1
0	12827	27.31	-1
0	12875	27.41	-1
0	12923	27.51	-1
0	12971	27.61	-1
0	13019	27.71	-1
0	13067	27.81	-1
0	13115	27.91	-1
0	13165	28.01	-1
0	13213	28.11	-1
0	13261	28.21	-1
0	13309	28.31	-1
0	13357	28.41	-1
0	13405	28.51	-1
0	13453	28.61	-1
0	13501	28.71	-1
0	13549	28.81	-1
0	13597	28.91	-1
0	13647	29.01	-1
0	13695	29.11	-1
0	13743	29.21	-1
0	13791	29.31	-1
0	13839	29.41	-1
0	13887	29.51	-1
0	13935	29.61	-1
0	13983	29.71	-1
0	14031	29.81	-1
0	14079	29.91	-1
0	14129	30.01	-1
0	14177	30.11	-1
0	14225	30.21	-1
0	14273	30.31	-1
0	14321	30.41	-1
0	14369	30.51	-1
0	14417	30.61	-1
0	14465	30.71	-1
0	14513	30.81	-1
0	14561	30.91	-1
0	14611	31.01	-1
0	14659	31.11	-1
0	14707	31.21	-1
0	14755	31.31	-1
0	14803	31.41	-1
0	14851	31.51	-1
0	14899	31.61	-1
0	14947	31.71	-1
0	14995	31.81	-1
0	15043	31.91	-1
0	15093	32.01	-1
0	15141	32.11	-1
0	15189	32.21	-1
0	15237	32.31	-1
0	15285	32.41	-1
0	15333	32.51	-1
0	15381	32.61	-1
0	15429	32.71	-1
0	15477	32.81	-1
0	15525	32.91	-1
0	15575	33.01	-1
0	15623	33.11	-1
0	15671	33.21	-1
0	15719	33.31	-1
0	15767	33.41	-1
0	15815	33.51	-1
0	15863	33.61	-1
0	15911	33.71	-1
0	15959	33.81	-1
0	16007	33.91	-1
0	16057	34.01	-1
0	16105	34.11	-1
0	16153	34.21	-1
0	16201	34.31	-1
0	16249	34.41	-1
0	16297	34.51	-1
0	16345	34.61	-1
0	16393	34.71	-1
0	16441	34.81	-1
0	16489	34.91	-1
0	16539	35.01	-1
0	16587	35.11	-1
0	16635	35.21	-1
0	16683	35.31	-1
0	16731	35.41	-1
0	16779	35.51	-1
0	16827	35.61	-1
0	16875	35.71	-1
0	16923	35.81	-1
0	16971	35.91	-1
0	17021	36.01	-1
0	17069	36.11	-1
0	17117	36.21	-1
0	17165	36.31	-1
0	17213	36.41	-1
0	17261	36.51	-1
0	17309	36.61	-1
0	17357	36.71	-1
0	17405	36.81	-1
0	17453	36.91	-1
0	17503	37.01	-1
0	17551	37.11	-1
0	17599	37.21	-1
0	17647	37.31	-1
0	17695	37.41	-1
0	17743	37.51	-1
0	17791	37.61	-1
0	17839	37.71	-1
0	17887	37.81	-1
0	17935	37.91	-1
0	17985	38.01	-1
0	18033	38.11	-1
0	18081	38.21	-1
0	18129	38.31	-1
0	18177	38.41	-1
0	18225	38.51	-1
0	18273	38.61	-1
0	18321	38.71	-1
0	18369	38.81	-1
0	18417	38.91	-1
0	18467	39.01	-1
0	18515	39.11	-1
0	18563	39.21	-1
0	18611	39.31	-1
0	18659	39.41	-1
0	18707	39.51	-1
0	18755	39.61	-1
0	18803	39.71	-1
0	18851	39.81	-1
0	18899	39.91	-1
0	18949	40.01	-1
0	18997	40.11	-1
0	19045	40.21	-1
0	19093	40.31	-1
0	19141	40.41	-1
0	19189	40.51	-1
0	19237	40.61	-1
0	19285	40.71	-1
0	19333	40.81	-1
0	19381	40.91	-1
0	19431	41.01	-1
0	19479	41.11	-1
0	19527	41.21	-1
0	19575	41.31	-1
0	19623	41.41	-1
0	19671	41.51	-1
0	19719	41.61	-1
0	19767	41.71	-1
0	19815	41.81	-1
0	19863	41.91	-1
0	19913	42.01	-1
0	19961	42.11	-1
0	20009	42.21	-1
0	20057	42.31	-1
0	20105	42.41	-1
0	20153	42.51	-1
0	20201	42.61	-1
0	20249	42.71	-1
0	20297	42.81	-1
0	20345	42.91	-1
0	20395	43.01	-1
0	20443	43.11	-1
0	20491	43.21	-1
0	20539	43.31	-1
0	20587	43.41	-1
0	20635	43.51	-1
0	20683	43.61	-1
0	20731	43.71	-1
0	20779	43.81	-1
0	20827	43.91	-1
0	20877	44.01	-1
0	20925	44.11	-1
0	20973	44.21	-1
0	21021	44.31	-1
0	21069	44.41	-1
0	21117	44.51	-1
0	21165	44.61	-1
0	21213	44.71	-1
0	21261	44.81	-1
0	21309	44.91	-1
0	21359	45.01	-1
0	21407	45.11	-1
0	21455	45.21	-1
0	21503	45.31	-1
0	21551	45.41	-1
0	21599	45.51	-1
0	21647	45.61	-1
0	21695	45.71	-1
0	21743	45.81	-1
0	21791	45.91	-1
0	21841	46.01	-1
0	21889	46.11	-1
0	21937	46.21	-1
0	21985	46.31	-1
0	22033	46.41	-1
0	22081	46.51	-1
0	22129	46.61	-1
0	22177	46.71	-1
0	22225	46.81	-1
0	22273	46.91	-1
0	22323	47.01	-1
0	22371	47.11	-1
0	22419	47.21	-1
0	22467	47.31	-1
0	22515	47.41	-1
0	22563	47.51	-1
0	22611	47.61	-1
0	22659	47.71	-1
0	22707	47.81	-1
0	22755	47.91	-1
0	22805	48.01	-1
0	22853	48.11	-1
0	22901	48.21	-1
0	22949	48.31	-1
0	22997	48.41	-1
0	23045	48.51	-1
0	23093	48.61	-1
0	23141	48.71	-1
0	23189	48.81	-1
0	23237	48.91	-1
0	23287	49.01	-1
0	23335	49.11	-1
0	23383	49.21	-1
0	23431	49.31	-1
0	23479	49.41	-1
0	23527	49.51	-1
0	23575	49.61	-1
0	23623	49.71	-1
0	23671	49.81	-1
0	23719	49.91	-1
0	23769	50.01	-1
0	23817	50.11	-1
0	23865	50.21	-1
0	23913	50.31	-1
0	23961	50.41	-1
0	24009	50.51	-1
0	24057	50.61	-1
0	24105	50.71	-1
0	24153	50.81	-1
0	24201	50.91	-1
0	24251	51.01	-1
0	24299	51.11	-1
0	24347	51.21	-1
0	24395	51.31	-1
0	24443	51.41	-1
0	24491	51.51	-1
0	24539	51.61	-1
0	24587	51.71	-1
0	24635	51.81	-1
0	24683	51.91	-1
0	24733	52.01	-1
0	24781	52.11	-1
0	24829	52.21	-1
0	24877	52.31	-1
0	24925	52.41	-1
0	24973	52.51	-1
0	25021	52.61	-1
0	25069	52.71	-1
0	25117	52.81	-1
0	25165	52.91	-1
0	25215	53.01	-1
0	25263	53.11	-1
0	25311	53.21	-1
0	25359	53.31	-1
0	25407	53.41	-1
0	25455	53.51	-1
0	25503	53.61	-1
0	25551	53.71	-1
0	25599	53.81	-1
0	25647	53.91	-1
0	25697	54.01	-1
0	25745	54.11	-1
0	25793	54.21	-1
0	25841	54.31	-1
0	25889	54.41	-1
0	25937	54.51	-1
0	25985	54.61	-1
0	26033	54.71	-1
0	26081	54.81	-1
0	26129	54.91	-1
0	26179	55.01	-1
0	26227	55.11	-1
0	26275	55.21	-1
0	26323	55.31	-1
0	26371	55.41	-1
0	26419	55.51	-1
0	26467	55.61	-1
0	26515	55.71	-1
0	26563	55.81	-1
0	26611	55.91	-1
0	26661	56.01	-1
0	26709	56.11	-1
0	26757	56.21	-1
0	26805	56.31	-1
0	26853	56.41	-1
0	26901	56.51	-1
0	26949	56.61	-1
0	26997	56.71	-1
0	27045	56.81	-1
0	27093	56.91	-1
0	27143	57.01	-1
0	27191	57.11	-1
0	27239	57.21	-1
0	27287	57.31	-1
0	27335	57.41	-1
0	27383	57.51	-1
0	27431	57.61	-1
0	27479	57.71	-1
0	27527	57.81	-1
0	27575	57.91	-1
0	27625	58.01	-1
0	27673	58.11	-1
0	27721	58.21	-1
0	27769	58.31	-1
0	27817	58.41	-1
0	27865	58.51	-1
0	27913	58.61	-1
0	27961	58.71	-1
0	28009	58.81	-1
0	28057	58.91	-1
0	28107	59.01	-1
0	28155	59.11	-1
0	28203	59.21	-1
0	28251	59.31	-1
0	28299	59.41	-1
0	28347	59.51	-1
0	28395	59.61	-1
0	28443	59.71	-1
0	28491	59.81	-1
0	28539	59.91	-1
0	28589	60.01	-1
0	28637	60.11	-1
0	28685	60.21	-1
0	28733	60.31	-1
0	28781	60.41	-1
0	28829	60.51	-1
0	28877	60.61	-1
0	28925	60.71	-1
0	28973	60.81	-1
0	29021	60.91	-1
0	29071	61.01	-1
0	29119	61.11	-1
0	29167	61.21	-1
0	29215	61.31	-1
0	29263	61.41	-1
0	29311	61.51	-1
0	29359	61.61	-1
0	29407	61.71	-1
0	29455	61.81	-1
0	29503	61.91	-1
0	29553	62.01	-1
0	29601	62.11	-1
0	29649	62.21	-1
0	29697	62.31	-1
0	29745	62.41	-1
0	29793	62.51	-1
0	29841	62.61	-1
0	29889	62.71	-1
0	29937	62.81	-1
0	29985	62.91	-1
0	30035	63.01	-1
0	30083	63.11	-1
0	30131	63.21	-1
0	30179	63.31	-1
0	30227	63.41	-1
0	30275	63.51	-1
0	30323	63.61	-1
0	30371	63.71	-1
0	30419	63.81	-1
0	30467	63.91	-1
0	30517	64.01	-1
0	30565	64.11	-1
0	30613	64.21	-1
0	30661	64.31	-1
0	30709	64.41	-1
0	30757	64.51	-1
0	30805	64.61	-1
0	30853	64.71	-1
0	30901	64.81	-1
0	30949	64.91	-1
0	30999	65.01	-1
0	31047	65.11	-1
0	31095	65.21	-1
0	31143	65.31	-1
0	31191	65.41	-1
0	31239	65.51	-1
0	31287	65.61	-1
0	31335	65.71	-1
0	31383	65.81	-1
0	31431	65.91	-1
0	31481	66.01	-1
0	31529	66.11	-1
0	31577	66.21	-1
0	31625	66.31	-1
0	31673	66.41	-1
0	31721	66.51	-1
0	31769	66.61	-1
0	31817	66.71	-1
0	31865	66.81	-1
0	31913	66.91	-1
0	31963	67.01	-1
0	32011	67.11	-1
0	32059	67.21	-1
0	32107	67.31	-1
0	32155	67.41	-1
0	32203	67.51	-1
0	32251	67.61	-1
0	32299	67.71	-1
0	32347	67.81	-1
0	32395	67.91	-1
0	32445	68.01	-1
0	32493	68.11	-1
0	32541	68.21	-1
0	32589	68.31	-1
0	32637	68.41	-1
0	32685	68.51	-1
0	32733	68.61	-1
0	32781	68.71	-1
0	32829	68.81	-1
0	32877	68.91	-1
0	32927	69.01	-1
0	32975	69.11	-1
0	33023	69.21	-1
0	33071	69.31	-1
0	33119	69.41	-1
0	33167	69.51	-1
0	33215	69.61	-1
0	33263	69.71	-1
0	33311	69.81	-1
0	33359	69.91	-1
0	33409	70.01	-1
0	33457	70.11	-1
0	33505	70.21	-1
0	33553	70.31	-1
0	33601	70.41	-1
0	33649	70.51	-1
0	33697	70.61	-1
0	33745	70.71	-1
0	33793	70.81	-1
0	33841	70.91	-1
0	33891	71.01	-1
0	33939	71.11	-1
0	33987	71.21	-1
0	34035	71.31	-1
0	34083	71.41	-1
0	34131	71.51	-1
0	34179	71.61	-1
0	34227	71.71	-1
0	34275	71.81	-1
0	34323	71.91	-1
0	34373	72.01	-1
0	34421	72.11	-1
0	34469	72.21	-1
0	34517	72.31	-1
0	34565	72.41	-1
0	34613	72.51	-1
0	34661	72.61	-1
0	34709	72.71	-1
0	34757	72.81	-1
0	34805	72.91	-1
0	34855	73.01	-1
0	34903	73.11	-1
0	34951	73.21	-1
0	34999	73.31	-1
0	35047	73.41	-1
0	35095	73.51	-1
0	35143	73.61	-1
0	35191	73.71	-1
0	35239	73.81	-1
0	35287	73.91	-1
0	35337	74.01	-1
0	35385	74.11	-1
0	35433	74.21	-1
0	35481	74.31	-1
0	35529	74.41	-1
0	35577	74.51	-1
0	35625	74.61	-1
0	35673	74.71	-1
0	35721	74.81	-1
0	35769	74.91	-1
0	35819	75.01	-1
0	35867	75.11	-1
0	35915	75.21	-1
0	35963	75.31	-1
0	36011	75.41	-1
0	36059	75.51	-1
0	36107	75.61	-1
0	36155	75.71	-1
0	36203	75.81	-1
0	36251	75.91	-1
0	36301	76.01	-1
0	36349	76.11	-1
0	36397	76.21	-1
0	36445	76.31	-1
0	36493	76.41	-1
0	36541	76.51	-1
0	36589	76.61	-1
0	36637	76.71	-1
0	36685	76.81	-1
0	36733	76.91	-1
0	36783	77.01	-1
0	36831	77.11	-1
0	36879	77.21	-1
0	36927	77.31	-1
0	36975	77.41	-1
0	37023	77.51	-1
0	37071	77.61	-1
0	37119	77.71	-1
0	37167	77.81	-1
0	37215	77.91	-1
0	37265	78.01	-1
0	37313	78.11	-1
0	37361	78.21	-1
0	37409	78.31	-1
0	37457	78.41	-1
0	37505	78.51	-1
0	37553	78.61	-1
0	37601	78.71	-1
0	37649	78.81	-1
0	37697	78.91	-1
0	37747	79.01	-1
0	37795	79.11	-1
0	37843	79.21	-1
0	37891	79.31	-1
0	37939	79.41	-1
0	37987	79.51	-1
0	38035	79.61	-1
0	38083	79.71	-1
0	38131	79.81	-1
0	38179	79.91	-1
0	38229	80.01	-1
0	38277	80.11	-1
0	38325	80.21	-1
0	38373	80.31	-1
0	38421	80.41	-1
0	38469	80.51	-1
0	38517	80.61	-1
0	38565	80.71	-1
0	38613	80.81	-1
0	38661	80.91	-1
0	38711	81.01	-1
0	38759	81.11	-1
0	38807	81.21	-1
0	38855	81.31	-1
0	38903	81.41	-1
0	38951	81.51	-1
0	38999	81.61	-1
0	39047	81.71	-1
0	39095	81.81	-1
0	39143	81.91	-1
0	39193	82.01	-1
0	39241	82.11	-1
0	39289	82.21	-1
0	39337	82.31	-1
0	39385	82.41	-1
0	39433	82.51	-1
0	39481	82.61	-1
0	39529	82.71	-1
0	39577	82.81	-1
0	39625	82.91	-1
0	39675	83.01	-1
0	39723	83.11	-1
0	39771	83.21	-1
0	39819	83.31	-1
0	39867	83.41	-1
0	39915	83.51	-1
0	39963	83.61	-1
0	40011	83.71	-1
0	40059	83.81	-1
0	40107	83.91	-1
0	40157	84.01	-1
0	40205	84.11	-1
0	40253	84.21	-1
0	40301	84.31	-1
0	40349	84.41	-1
0	40397	84.51	-1
0	40445	84.61	-1
0	40493	84.71	-1
0	40541	84.81	-1
0	40589	84.91	-1
0	40639	85.01	-1
0	40687	85.11	-1
0	40735	85.21	-1
0	40783	85.31	-1
0	40831	85.41	-1
0	40879	85.51	-1
0	40927	85.61	-1
0	40975	85.71	-1
0	41023	85.81	-1
0	41071	85.91	-1
0	41121	86.01	-1
0	41169	86.11	-1
0	41217	86.21	-1
0	41265	86.31	-1
0	41313	86.41	-1
0	41361	86.51	-1
0	41409	86.61	-1
0	41457	86.71	-1
0	41505	86.81	-1
0	41553	86.91	-1
0	41603	87.01	-1
0	41651	87.11	-1
0	41699	87.21	-1
0	41747	87.31	-1
0	41795	87.41	-1
0	41843	87.51	-1
0	41891	87.61	-1
0	41939	87.71	-1
0	41987	87.81	-1
0	42035	87.91	-1
0	42085	88.01	-1
0	42133	88.11	-1
0	42181	88.21	-1
0	42229	88.31	-1
0	42277	88.41	-1
0	42325	88.51	-1
0	42373	88.61	-1
0	42421	88.71	-1
0	42469	88.81	-1
0	42517	88.91	-1
0	42567	89.01	-1
0	42615	89.11	-1
0	42663	89.21	-1
0	42711	89.31	-1
0	42759	89.41	-1
0	42807	89.51	-1
0	42855	89.61	-1
0	42903	89.71	-1
0	42951	89.81	-1
0	42999	89.91	-1
0	43049	90.01	-1
0	43097	90.11	-1
0	43145	90.21	-1
0	43193	90.31	-1
0	43241	90.41	-1
0	43289	90.51	-1
0	43337	90.61	-1
0	43385	90.71	-1
0	43433	90.81	-1
0	43481	90.91	-1
0	43531	91.01	-1
0	43579	91.11	-1
0	43627	91.21	-1
0	43675	91.31	-1
0	43723	91.41	-1
0	43771	91.51	-1
0	43819	91.61	-1
0	43867	91.71	-1
0	43915	91.81	-1
0	43963	91.91	-1
0	44013	92.01	-1
0	44061	92.11	-1
0	44109	92.21	-1
0	44157	92.31	-1
0	44205	92.41	-1
0	44253	92.51	-1
0	44301	92.61	-1
0	44349	92.71	-1
0	44397	92.81	-1
0	44445	92.91	-1
0	44495	93.01	-1
0	44543	93.11	-1
0	44591	93.21	-1
0	44639	93.31	-1
0	44687	93.41	-1
0	44735	93.51	-1
0	44783	93.61	-1
0	44831	93.71	-1
0	44879	93.81	-1
0	44927	93.91	-1
0	44977	94.01	-1
0	45025	94.11	-1
0	45073	94.21	-1
0	45121	94.31	-1
0	45169	94.41	-1
0	45217	94.51	-1
0	45265	94.61	-1
0	45313	94.71	-1
0	45361	94.81	-1
0	45409	94.91	-1
0	45459	95.01	-1
0	45507	95.11	-1
0	45555	95.21	-1
0	45603	95.31	-1
0	45651	95.41	-1
0	45699	95.51	-1
0	45747	95.61	-1
0	45795	95.71	-1
0	45843	95.81	-1
0	45891	95.91	-1
0	45941	96.01	-1
0	45989	96.11	-1
0	46037	96.21	-1
0	46085	96.31	-1
0	46133	96.41	-1
0	46181	96.51	-1
0	46229	96.61	-1
0	46277	96.71	-1
0	46325	96.81	-1
0	46373	96.91	-1
0	46423	97.01	-1
0	46471	97.11	-1
0	46519	97.21	-1
0	46567	97.31	-1
0	46615	97.41	-1
0	46663	97.51	-1
0	46711	97.61	-1
0	46759	97.71	-1
0	46807	97.81	-1
0	46855	97.91	-1
0	46905	98.01	-1
0	46953	98.11	-1
0	47001	98.21	-1
0	47049	98.31	-1
0	47097	98.41	-1
0	47145	98.51	-1
0	47193	98.61	-1
0	47241	98.71	-1
0	47289	98.81	-1
0	47337	98.91	-1
0	47387	99.01	29.075
0	47435	99.11	29.1201
0	47483	99.21	29.1666
0	47531	99.31	29.2148
0	47579	99.41	29.2652
0	47627	99.51	29.318
0	47675	99.61	29.3734
0	47723	99.71	29.4315
0	47771	99.81	29.4922
0	47819	99.91	29.5555
1	113	1.11	0
1	161	1.21	0
1	209	1.31	0
1	257	1.41	0
1	305	1.51	0
1	353	1.61	0
1	401	1.71	0
1	449	1.81	0
1	497	1.91	0
1	547	2.01	0
1	595	2.11	0
1	643	2.21	0
1	691	2.31	0
1	739	2.41	0
1	787	2.51	0
1	835	2.61	0
1	883	2.71	0
1	931	2.81	0
1	979	2.91	0
1	1029	3.01	0
1	1077	3.11	0
1	1125	3.21	0
1	1173	3.31	0
1	1221	3.41	0
1	1269	3.51	0
1	1317	3.61	0
1	1365	3.71	0
1	1413	3.81	0
1	1461	3.91	0
1	1511	4.01	0
1	1559	4.11	0
1	1607	4.21	0
1	1655	4.31	0
1	1703	4.41	0
1	1751	4.51	0
1	1799	4.61	0
1	1847	4.71	0
1	1895	4.81	0
1	1943	4.91	0
1	1993	5.01	0
1	2041	5.11	0
1	2089	5.21	0
1	2137	5.31	0
1	2185	5.41	0
1	2233	5.51	0
1	2281	5.61	0
1	2329	5.71	0
1	2377	5.81	0
1	2425	5.91	0
1	2475	6.01	0
1	2523	6.11	0
1	2571	6.21	0
1	2619	6.31	0
1	2667	6.41	0
1	2715	6.51	0
1	2763	6.61	0
1	2811	6.71	0
1	2859	6.81	0
1	2907	6.91	0
1	2957	7.01	0
1	3005	7.11	0
1	3053	7.21	0
1	3101	7.31	0
1	3149	7.41	0
1	3197	7.51	0
1	3245	7.61	0
1	3293	7.71	0
1	3341	7.81	0
1	3389	7.91	0
1	3439	8.01	0
1	3487	8.11	0
1	3535	8.21	0
1	3583	8.31	0
1	3631	8.41	0
1	3679	8.51	0
1	3727	8.61	0
1	3775	8.71	0
1	3823	8.81	0
1	3871	8.91	0
1	3921	9.01	0
1	3969	9.11	0
1	4017	9.21	0
1	4065	9.31	0
1	4113	9.41	0
1	4161	9.51	0
1	4209	9.61	0
1	4257	9.71	0
1	4305	9.81	0
1	4353	9.91	0
1	4489	10.01	0
1	4537	10.11	0
1	4585	10.21	0
1	4633	10.31	0
1	4681	10.41	0
1	4729	10.51	0
1	4777	10.61	0
1	4825	10.71	0
1	4873	10.81	0
1	4921	10.91	0
1	4971	11.01	0
1	5019	11.11	0
1	5067	11.21	0
1	5115	11.31	0
1	5163	11.41	0
1	5211	11.51	0
1	5259	11.61	0
1	5307	11.71	0
1	5355	11.81	0
1	5403	11.91	0
1	5453	12.01	0
1	5501	12.11	0
1	5549	12.21	0
1	5597	12.31	0
1	5645	12.41	0
1	5693	12.51	0
1	5741	12.61	0
1	5789	12.71	0
1	5837	12.81	0
1	5885	12.91	0
1	5935	13.01	0
1	5983	13.11	0
1	6031	13.21	0
1	6079	13.31	0
1	6127	13.41	0
1	6175	13.51	0
1	6223	13.61	0
1	6271	13.71	0
1	6319	13.81	0
1	6367	13.91	0
1	6417	14.01	0
1	6465	14.11	0
1	6513	14.21	0
1	6561	14.31	0
1	6609	14.41	0
1	6657	14.51	0
1	6705	14.61	0
1	6753	14.71	0
1	6801	14.81	0
1	6849	14.91	0
1	6899	15.01	0
1	6947	15.11	0
1	6995	15.21	0
1	7043	15.31	0
1	7091	15.41	0
1	7139	15.51	0
1	7187	15.61	0
1	7235	15.71	0
1	7283	15.81	0
1	7331	15.91	0
1	7381	16.01	0
1	7429	16.11	0
1	7477	16.21	0
1	7525	16.31	0
1	7573	16.41	0
1	7621	16.51	0
1	7669	16.61	0
1	7717	16.71	0
1	7765	16.81	0
1	7813	16.91	0
1	7863	17.01	0
1	7911	17.11	0
1	7959	17.21	0
1	8007	17.31	0
1	8055	17.41	0
1	8103	17.51	0
1	8151	17.61	0
1	8199	17.71	0
1	8247	17.81	0
1	8295	17.91	0
1	8345	18.01	0
1	8393	18.11	0
1	8441	18.21	0
1	8489	18.31	0
1	8537	18.41	0
1	8585	18.51	0
1	8633	18.61	0
1	8681	18.71	0
1	8729	18.81	0
1	8777	18.91	0
1	8827	19.01	0
1	8875	19.11	0
1	8923	19.21	0
1	8971	19.31	0
1	9019	19.41	0
1	9067	19.51	0
1	9115	19.61	0
1	9163	19.71	0
1	9211	19.81	0
1	9259	19.91	0
1	9309	20.01	0
1	9357	20.11	0
1	9405	20.21	0
1	9453	20.31	0
1	9501	20.41	0
1	9549	20.51	0
1	9597	20.61	0
1	9645	20.71	0
1	9693	20.81	0
1	9741	20.91	0
1	9791	21.01	0
1	9839	21.11	0
1	9887	21.21	0
1	9935	21.31	0
1	9983	21.41	0
1	10031	21.51	0
1	10079	21.61	0
1	10127	21.71	0
1	10175	21.81	0
1	10223	21.91	0
1	10273	22.01	0
1	10321	22.11	0
1	10369	22.21	0
1	10417	22.31	0
1	10465	22.41	0
1	10513	22.51	0
1	10561	22.61	0
1	10609	22.71	0
1	10657	22.81	0
1	10705	22.91	0
1	10755	23.01	0
1	10803	23.11	0
1	10851	23.21	0
1	10899	23.31	0
1	10947	23.41	0
1	10995	23.51	0
1	11043	23.61	0
1	11091	23.71	0
1	11139	23.81	0
1	11187	23.91	0
1	11237	24.01	0
1	11285	24.11	0
1	11333	24.21	0
1	11381	24.31	0
1	11429	24.41	0
1	11477	24.51	0
1	11525	24.61	0
1	11573	24.71	0
1	11621	24.81	0
1	11669	24.91	0
1	11719	25.01	0
1	11767	25.11	0
1	11815	25.21	0
1	11863	25.31	0
1	11911	25.41	0
1	11959	25.51	0
1	12007	25.61	0
1	12055	25.71	0
1	12103	25.81	0
1	12151	25.91	0
1	12201	26.01	0
1	12249	26.11	0
1	12297	26.21	0
1	12345	26.31	0
1	12393	26.41	0
1	12441	26.51	0
1	12489	26.61	0
1	12537	26.71	0
1	12585	26.81	0
1	12633	26.91	0
1	12683	27.01	0
1	12731	27.11	0
1	12779	27.21	0
1	12827	27.31	0
1	12875	27.41	0
1	12923	27.51	0
1	12971	27.61	0
1	13019	27.71	0
1	13067	27.81	0
1	13115	27.91	0
1	13165	28.01	0
1	13213	28.11	0
1	13261	28.21	0
1	13309	28.31	0
1	13357	28.41	0
1	13405	28.51	0
1	13453	28.61	0
1	13501	28.71	0
1	13549	28.81	0
1	13597	28.91	0
1	13647	29.01	0
1	13695	29.11	0
1	13743	29.21	0
1	13791	29.31	0
1	13839	29.41	0
1	13887	29.51	0
1	13935	29.61	0
1	13983	29.71	0
1	14031	29.81	0
1	14079	29.91	0
1	14129	30.01	0
1	14177	30.11	0
1	14225	30.21	0
1	14273	30.31	0
1	14321	30.41	0
1	14369	30.51	0
1	14417	30.61	0
1	14465	30.71	0
1	14513	30.81	0
1	14561	30.91	0
1	14611	31.01	0
1	14659	31.11	0
1	14707	31.21	0
1	14755	31.31	0
1	14803	31.41	0
1	14851	31.51	0
1	14899	31.61	0
1	14947	31.71	0
1	14995	31.81	0
1	15043	31.91	0
1	15093	32.01	0
1	15141	32.11	0
1	15189	32.21	0
1	15237	32.31	0
1	15285	32.41	0
1	15333	32.51	0
1	15381	32.61	0
1	15429	32.71	0
1	15477	32.81	0
1	15525	32.91	0
1	15575	33.01	0
1	15623	33.11	0
1	15671	33.21	0
1	15719	33.31	0
1	15767	33.41	0
1	15815	33.51	0
1	15863	33.61	0
1	15911	33.71	0
1	15959	33.81	0
1	16007	33.91	0
1	16057	34.01	0
1	16105	34.11	0
1	16153	34.21	0
1	16201	34.31	0
1	16249	34.41	0
1	16297	34.51	0
1	16345	34.61	0
1	16393	34.71	0
1	16441	34.81	0
1	16489	34.91	0
1	16539	35.01	0
1	16587	35.11	0
1	16635	35.21	0
1	16683	35.31	0
1	16731	35.41	0
1	16779	35.51	0
1	16827	35.61	0
1	16875	35.71	0
1	16923	35.81	0
1	16971	35.91	0
1	17021	36.01	0
1	17069	36.11	0
1	17117	36.21	0
1	17165	36.31	0
1	17213	36.41	0
1	17261	36.51	0
1	17309	36.61	0
1	17357	36.71	0
1	17405	36.81	0
1	17453	36.91	0
1	17503	37.01	0
1	17551	37.11	0
1	17599	37.21	0
1	17647	37.31	0
1	17695	37.41	0
1	17743	37.51	0
1	17791	37.61	0
1	17839	37.71	0
1	17887	37.81	0
1	17935	37.91	0
1	17985	38.01	0
1	18033	38.11	0
1	18081	38.21	0
1	18129	38.31	0
1	18177	38.41	0
1	18225	38.51	0
1	18273	38.61	0
1	18321	38.71	0
1	18369	38.81	0
1	18417	38.91	0
1	18467	39.01	0
1	18515	39.11	0
1	18563	39.21	0
1	18611	39.31	0
1	18659	39.41	0
1	18707	39.51	0
1	18755	39.61	0
1	18803	39.71	0
1	18851	39.81	0
1	18899	39.91	0
1	18949	40.01	0
1	18997	40.11	0
1	19045	40.21	0
1	19093	40.31	0
1	19141	40.41	0
1	19189	40.51	0
1	19237	40.61	0
1	19285	40.71	0
1	19333	40.81	0
1	19381	40.91	0
1	19431	41.01	0
1	19479	41.11	0
1	19527	41.21	0
1	19575	41.31	0
1	19623	41.41	0
1	19671	41.51	0
1	19719	41.61	0
1	19767	41.71	0
1	19815	41.81	0
1	19863	41.91	0
1	19913	42.01	0
1	19961	42.11	0
1	20009	42.21	0
1	20057	42.31	0
1	20105	42.41	0
1	20153	42.51	0
1	20201	42.61	0
1	20249	42.71	0
1	20297	42.81	0
1	20345	42.91	0
1	20395	43.01	0
1	20443	43.11	0
1	20491	43.21	0
1	20539	43.31	0
1	20587	43.41	0
1	20635	43.51	0
1	20683	43.61	0
1	20731	43.71	0
1	20779	43.81	0
1	20827	43.91	0
1	20877	44.01	0
1	20925	44.11	0
1	20973	44.21	0
1	21021	44.31	0
1	21069	44.41	0
1	21117	44.51	0
1	21165	44.61	0
1	21213	44.71	0
1	21261	44.81	0
1	21309	44.91	0
1	21359	45.01	0
1	21407	45.11	0
1	21455	45.21	0
1	21503	45.31	0
1	21551	45.41	0
1	21599	45.51	0
1	21647	45.61	0
1	21695	45.71	0
1	21743	45.81	0
1	21791	45.91	0
1	21841	46.01	0
1	21889	46.11	0
1	21937	46.21	0
1	21985	46.31	0
1	22033	46.41	0
1	22081	46.51	0
1	22129	46.61	0
1	22177	46.71	0
1	22225	46.81	0
1	22273	46.91	0
1	22323	47.01	0
1	22371	47.11	0
1	22419	47.21	0
1	22467	47.31	0
1	22515	47.41	0
1	22563	47.51	0
1	22611	47.61	0
1	22659	47.71	0
1	22707	47.81	0
1	22755	47.91	0
1	22805	48.01	0
1	22853	48.11	0
1	22901	48.21	0
1	22949	48.31	0
1	22997	48.41	0
1	23045	48.51	0
1	23093	48.61	0
1	23141	48.71	0
1	23189	48.81	0
1	23237	48.91	0
1	23287	49.01	0
1	23335	49.11	0
1	23383	49.21	0
1	23431	49.31	0
1	23479	49.41	0
1	23527	49.51	0
1	23575	49.61	0
1	23623	49.71	0
1	23671	49.81	0
1	23719	49.91	0
1	23769	50.01	0
1	23817	50.11	0
1	23865	50.21	0
1	23913	50.31	0
1	23961	50.41	0
1	24009	50.51	0
1	24057	50.61	0
1	24105	50.71	0
1	24153	50.81	0
1	24201	50.91	0
1	24251	51.01	0
1	24299	51.11	0
1	24347	51.21	0
1	24395	51.31	0
1	24443	51.41	0
1	24491	51.51	0
1	24539	51.61	0
1	24587	51.71	0
1	24635	51.81	0
1	24683	51.91	0
1	24733	52.01	0
1	24781	52.11	0
1	24829	52.21	0
1	24877	52.31	0
1	24925	52.41	0
1	24973	52.51	0
1	25021	52.61	0
1	25069	52.71	0
1	25117	52.81	0
1	25165	52.91	0
1	25215	53.01	0
1	25263	53.11	0
1	25311	53.21	0
1	25359	53.31	0
1	25407	53.41	0
1	25455	53.51	0
1	25503	53.61	0
1	25551	53.71	0
1	25599	53.81	0
1	25647	53.91	0
1	25697	54.01	0
1	25745	54.11	0
1	25793	54.21	0
1	25841	54.31	0
1	25889	54.41	0
1	25937	54.51	0
1	25985	54.61	0
1	26033	54.71	0
1	26081	54.81	0
1	26129	54.91	0
1	26179	55.01	0
1	26227	55.11	0
1	26275	55.21	0
1	26323	55.31	0
1	26371	55.41	0
1	26419	55.51	0
1	26467	55.61	0
1	26515	55.71	0
1	26563	55.81	0
1	26611	55.91	0
1	26661	56.01	0
1	26709	56.11	0
1	26757	56.21	0
1	26805	56.31	0
1	26853	56.41	0
1	26901	56.51	0
1	26949	56.61	0
1	26997	56.71	0
1	27045	56.81	0
1	27093	56.91	0
1	27143	57.01	0
1	27191	57.11	0
1	27239	57.21	0
1	27287	57.31	0
1	27335	57.41	0
1	27383	57.51	0
1	27431	57.61	0
1	27479	57.71	0
1	27527	57.81	0
1	27575	57.91	0
1	27625	58.01	0
1	27673	58.11	0
1	27721	58.21	0
1	27769	58.31	0
1	27817	58.41	0
1	27865	58.51	0
1	27913	58.61	0
1	27961	58.71	0
1	28009	58.81	0
1	28057	58.91	0
1	28107	59.01	0
1	28155	59.11	0
1	28203	59.21	0
1	28251	59.31	0
1	28299	59.41	0
1	28347	59.51	0
1	28395	59.61	0
1	28443	59.71	0
1	28491	59.81	0
1	28539	59.91	0
1	28589	60.01	0
1	28637	60.11	0
1	28685	60.21	0
1	28733	60.31	0
1	28781	60.41	0
1	28829	60.51	0
1	28877	60.61	0
1	28925	60.71	0
1	28973	60.81	0
1	29021	60.91	0
1	29071	61.01	0
1	29119	61.11	0
1	29167	61.21	0
1	29215	61.31	0
1	29263	61.41	0
1	29311	61.51	0
1	29359	61.61	0
1	29407	61.71	0
1	29455	61.81	0
1	29503	61.91	0
1	29553	62.01	0
1	29601	62.11	0
1	29649	62.21	0
1	29697	62.31	0
1	29745	62.41	0
1	29793	62.51	0
1	29841	62.61	0
1	29889	62.71	0
1	29937	62.81	0
1	29985	62.91	0
1	30035	63.01	0
1	30083	63.11	0
1	30131	63.21	0
1	30179	63.31	0
1	30227	63.41	0
1	30275	63.51	0
1	30323	63.61	0
1	30371	63.71	0
1	30419	63.81	0
1	30467	63.91	0
1	30517	64.01	0
1	30565	64.11	0
1	30613	64.21	0
1	30661	64.31	0
1	30709	64.41	0
1	30757	64.51	0
1	30805	64.61	0
1	30853	64.71	0
1	30901	64.81	0
1	30949	64.91	0
1	30999	65.01	0
1	31047	65.11	0
1	31095	65.21	0
1	31143	65.31	0
1	31191	65.41	0
1	31239	65.51	0
1	31287	65.61	0
1	31335	65.71	0
1	31383	65.81	0
1	31431	65.91	0
1	31481	66.01	0
1	31529	66.11	0
1	31577	66.21	0
1	31625	66.31	0
1	31673	66.41	0
1	31721	66.51	0
1	31769	66.61	0
1	31817	66.71	0
1	31865	66.81	0
1	31913	66.91	0
1	31963	67.01	0
1	32011	67.11	0
1	32059	67.21	0
1	32107	67.31	0
1	32155	67.41	0
1	32203	67.51	0
1	32251	67.61	0
1	32299	67.71	0
1	32347	67.81	0
1	32395	67.91	0
1	32445	68.01	0
1	32493	68.11	0
1	32541	68.21	0
1	32589	68.31	0
1	32637	68.41	0
1	32685	68.51	0
1	32733	68.61	0
1	32781	68.71	0
1	32829	68.81	0
1	32877	68.91	0
1	32927	69.01	0
1	32975	69.11	0
1	33023	69.21	0
1	33071	69.31	0
1	33119	69.41	0
1	33167	69.51	0
1	33215	69.61	0
1	33263	69.71	0
1	33311	69.81	0
1	33359	69.91	0
1	33409	70.01	0
1	33457	70.11	0
1	33505	70.21	0
1	33553	70.31	0
1	33601	70.41	0
1	33649	70.51	0
1	33697	70.61	0
1	33745	70.71	0
1	33793	70.81	0
1	33841	70.91	0
1	33891	71.01	0
1	33939	71.11	0
1	33987	71.21	0
1	34035	71.31	0
1	34083	71.41	0
1	34131	71.51	0
1	34179	71.61	0
1	34227	71.71	0
1	34275	71.81	0
1	34323	71.91	0
1	34373	72.01	0
1	34421	72.11	0
1	34469	72.21	0
1	34517	72.31	0
1	34565	72.41	0
1	34613	72.51	0
1	34661	72.61	0
1	34709	72.71	0
1	34757	72.81	0
1	34805	72.91	0
1	34855	73.01	0
1	34903	73.11	0
1	34951	73.21	0
1	34999	73.31	0
1	35047	73.41	0
1	35095	73.51	0
1	35143	73.61	0
1	35191	73.71	0
1	35239	73.81	0
1	35287	73.91	0
1	35337	74.01	0
1	35385	74.11	0
1	35433	74.21	0
1	35481	74.31	0
1	35529	74.41	0
1	35577	74.51	0
1	35625	74.61	0
1	35673	74.71	0
1	35721	74.81	0
1	35769	74.91	0
1	35819	75.01	0
1	35867	75.11	0
1	35915	75.21	0
1	35963	75.31	0
1	36011	75.41	0
1	36059	75.51	0
1	36107	75.61	0
1	36155	75.71	0
1	36203	75.81	0
1	36251	75.91	0
1	36301	76.01	0
1	36349	76.11	0
1	36397	76.21	0
1	36445	76.31	0
1	36493	76.41	0
1	36541	76.51	0
1	36589	76.61	0
1	36637	76.71	0
1	36685	76.81	0
1	36733	76.91	0
1	36783	77.01	0
1	36831	77.11	0
1	36879	77.21	0
1	36927	77.31	0
1	36975	77.41	0
1	37023	77.51	0
1	37071	77.61	0
1	37119	77.71	0
1	37167	77.81	0
1	37215	77.91	0
1	37265	78.01	0
1	37313	78.11	0
1	37361	78.21	0
1	37409	78.31	0
1	37457	78.41	0
1	37505	78.51	0
1	37553	78.61	0
1	37601	78.71	0
1	37649	78.81	0
1	37697	78.91	0
1	37747	79.01	0
1	37795	79.11	0
1	37843	79.21	0
1	37891	79.31	0
1	37939	79.41	0
1	37987	79.51	0
1	38035	79.61	0
1	38083	79.71	0
1	38131	79.81	0
1	38179	79.91	0
1	38229	80.01	0
1	38277	80.11	0
1	38325	80.21	0
1	38373	80.31	0
1	38421	80.41	0
1	38469	80.51	0
1	38517	80.61	0
1	38565	80.71	0
1	38613	80.81	0
1	38661	80.91	0
1	38711	81.01	0
1	38759	81.11	0
1	38807	81.21	0
1	38855	81.31	0
1	38903	81.41	0
1	38951	81.51	0
1	38999	81.61	0
1	39047	81.71	0
1	39095	81.81	0
1	39143	81.91	0
1	39193	82.01	0
1	39241	82.11	0
1	39289	82.21	0
1	39337	82.31	0
1	39385	82.41	0
1	39433	82.51	0
1	39481	82.61	0
1	39529	82.71	0
1	39577	82.81	0
1	39625	82.91	0
1	39675	83.01	0
1	39723	83.11	0
1	39771	83.21	0
1	39819	83.31	0
1	39867	83.41	0
1	39915	83.51	0
1	39963	83.61	0
1	40011	83.71	0
1	40059	83.81	0
1	40107	83.91	0
1	40157	84.01	0
1	40205	84.11	0
1	40253	84.21	0
1	40301	84.31	0
1	40349	84.41	0
1	40397	84.51	0
1	40445	84.61	0
1	40493	84.71	0
1	40541	84.81	0
1	40589	84.91	0
1	40639	85.01	0
1	40687	85.11	0
1	40735	85.21	0
1	40783	85.31	0
1	40831	85.41	0
1	40879	85.51	0
1	40927	85.61	0
1	40975	85.71	0
1	41023	85.81	0
1	41071	85.91	0
1	41121	86.01	0
1	41169	86.11	0
1	41217	86.21	0
1	41265	86.31	0
1	41313	86.41	0
1	41361	86.51	0
1	41409	86.61	0
1	41457	86.71	0
1	41505	86.81	0
1	41553	86.91	0
1	41603	87.01	0
1	41651	87.11	0
1	41699	87.21	0
1	41747	87.31	0
1	41795	87.41	0
1	41843	87.51	0
1	41891	87.61	0
1	41939	87.71	0
1	41987	87.81	0
1	42035	87.91	0
1	42085	88.01	0
1	42133	88.11	0
1	42181	88.21	0
1	42229	88.31	0
1	42277	88.41	0
1	42325	88.51	0
1	42373	88.61	0
1	42421	88.71	0
1	42469	88.81	0
1	42517	88.91	0
1	42567	89.01	0
1	42615	89.11	0
1	42663	89.21	0
1	42711	89.31	0
1	42759	89.41	0
1	42807	89.51	0
1	42855	89.61	0
1	42903	89.71	0
1	42951	89.81	0
1	42999	89.91	0
1	43049	90.01	0
1	43097	90.11	0
1	43145	90.21	0
1	43193	90.31	0
1	43241	90.41	0
1	43289	90.51	0
1	43337	90.61	0
1	43385	90.71	0
1	43433	90.81	0
1	43481	90.91	0
1	43531	91.01	0
1	43579	91.11	0
1	43627	91.21	0
1	43675	91.31	0
1	43723	91.41	0
1	43771	91.51	0
1	43819	91.61	0
1	43867	91.71	0
1	43915	91.81	0
1	43963	91.91	0
1	44013	92.01	0
1	44061	92.11	0
1	44109	92.21	0
1	44157	92.31	0
1	44205	92.41	0
1	44253	92.51	0
1	44301	92.61	0
1	44349	92.71	0
1	44397	92.81	0
1	44445	92.91	0
1	44495	93.01	0
1	44543	93.11	0
1	44591	93.21	0
1	44639	93.31	0
1	44687	93.41	0
1	44735	93.51	0
1	44783	93.61	0
1	44831	93.71	0
1	44879	93.81	0
1	44927	93.91	0
1	44977	94.01	0
1	45025	94.11	0
1	45073	94.21	0
1	45121	94.31	0
1	45169	94.41	0
1	45217	94.51	0
1	45265	94.61	0
1	45313	94.71	0
1	45361	94.81	0
1	45409	94.91	0
1	45459	95.01	0
1	45507	95.11	0
1	45555	95.21	0
1	45603	95.31	0
1	45651	95.41	0
1	45699	95.51	0
1	45747	95.61	0
1	45795	95.71	0
1	45843	95.81	0
1	45891	95.91	0
1	45941	96.01	0
1	45989	96.11	0
1	46037	96.21	0
1	46085	96.31	0
1	46133	96.41	0
1	46181	96.51	0
1	46229	96.61	0
1	46277	96.71	0
1	46325	96.81	0
1	46373	96.91	0
1	46423	97.01	0
1	46471	97.11	0
1	46519	97.21	0
1	46567	97.31	0
1	46615	97.41	0
1	46663	97.51	0
1	46711	97.61	0
1	46759	97.71	0
1	46807	97.81	0
1	46855	97.91	0
1	46905	98.01	0
1	46953	98.11	0
1	47001	98.21	0
1	47049	98.31	0
1	47097	98.41	0
1	47145	98.51	0
1	47193	98.61	0
1	47241	98.71	0
1	47289	98.81	0
1	47337	98.91	0
1	47387	99.01	0.447305
1	47435	99.11	0.457262
1	47483	99.21	0.472841
1	47531	99.31	0.492701
1	47579	99.41	0.51567
1	47627	99.51	0.540727
1	47675	99.61	0.567001
1	47723	99.71	0.593749
1	47771	99.81	0.620351
1	47819	99.91	0.646298
2	113	1.11	0
2	161	1.21	0
2	209	1.31	0
2	257	1.41	0
2	305	1.51	0
2	353	1.61	0
2	401	1.71	0
2	449	1.81	0
2	497	1.91	0
2	547	2.01	0
2	595	2.11	0
2	643	2.21	0
2	691	2.31	0
2	739	2.41	0
2	787	2.51	0
2	835	2.61	0
2	883	2.71	0
2	931	2.81	0
2	979	2.91	0
2	1029	3.01	0
2	1077	3.11	0
2	1125	3.21	0
2	1173	3.31	0
2	1221	3.41	0
2	1269	3.51	0
2	1317	3.61	0
2	1365	3.71	0
2	1413	3.81	0
2	1461	3.91	0
2	1511	4.01	0
2	1559	4.11	0
2	1607	4.21	0
2	1655	4.31	0
2	1703	4.41	0
2	1751	4.51	0
2	1799	4.61	0
2	1847	4.71	0
2	1895	4.81	0
2	1943	4.91	0
2	1993	5.01	0
2	2041	5.11	0
2	2089	5.21	0
2	2137	5.31	0
2	2185	5.41	0
2	2233	5.51	0
2	2281	5.61	0
2	2329	5.71	0
2	2377	5.81	0
2	2425	5.91	0
2	2475	6.01	0
2	2523	6.11	0
2	2571	6.21	0
2	2619	6.31	0
2	2667	6.41	0
2	2715	6.51	0
2	2763	6.61	0
2	2811	6.71	0
2	2859	6.81	0
2	2907	6.91	0
2	2957	7.01	0
2	3005	7.11	0
2	3053	7.21	0
2	3101	7.31	0
2	3149	7.41	0
2	3197	7.51	0
2	3245	7.61	0
2	3293	7.71	0
2	3341	7.81	0
2	3389	7.91	0
2	3439	8.01	0
2	3487	8.11	0
2	3535	8.21	0
2	3583	8.31	0
2	3631	8.41	0
2	3679	8.51	0
2	3727	8.61	0
2	3775	8.71	0
2	3823	8.81	0
2	3871	8.91	0
2	3921	9.01	0
2	3969	9.11	0
2	4017	9.21	0
2	4065	9.31	0
2	4113	9.41	0
2	4161	9.51	0
2	4209	9.61	0
2	4257	9.71	0
2	4305	9.81	0
2	4353	9.91	0
2	4489	10.01	0
2	4537	10.11	0
2	4585	10.21	0
2	4633	10.31	0
2	4681	10.41	0
2	4729	10.51	0
2	4777	10.61	0
2	4825	10.71	0
2	4873	10.81	0
2	4921	10.91	0
2	4971	11.01	0
2	5019	11.11	0
2	5067	11.21	0
2	5115	11.31	0
2	5163	11.41	0
2	5211	11.51	0
2	5259	11.61	0
2	5307	11.71	0
2	5355	11.81	0
2	5403	11.91	0
2	5453	12.01	0
2	5501	12.11	0
2	5549	12.21	0
2	5597	12.31	0
2	5645	12.41	0
2	5693	12.51	0
2	5741	12.61	0
2	5789	12.71	0
2	5837	12.81	0
2	5885	12.91	0
2	5935	13.01	0
2	5983	13.11	0
2	6031	13.21	0
2	6079	13.31	0
2	6127	13.41	0
2	6175	13.51	0
2	6223	13.61	0
2	6271	13.71	0
2	6319	13.81	0
2	6367	13.91	0
2	6417	14.01	0
2	6465	14.11	0
2	6513	14.21	0
2	6561	14.31	0
2	6609	14.41	0
2	6657	14.51	0
2	6705	14.61	0
2	6753	14.71	0
2	6801	14.81	0
2	6849	14.91	0
2	6899	15.01	0
2	6947	15.11	0
2	6995	15.21	0
2	7043	15.31	0
2	7091	15.41	0
2	7139	15.51	0
2	7187	15.61	0
2	7235	15.71	0
2	7283	15.81	0
2	7331	15.91	0
2	7381	16.01	0
2	7429	16.11	0
2	7477	16.21	0
2	7525	16.31	0
2	7573	16.41	0
2	7621	16.51	0
2	7669	16.61	0
2	7717	16.71	0
2	7765	16.81	0
2	7813	16.91	0
2	7863	17.01	0
2	7911	17.11	0
2	7959	17.21	0
2	8007	17.31	0
2	8055	17.41	0
2	8103	17.51	0
2	8151	17.61	0
2	8199	17.71	0
2	8247	17.81	0
2	8295	17.91	0
2	8345	18.01	0
2	8393	18.11	0
2	8441	18.21	0
2	8489	18.31	0
2	8537	18.41	0
2	8585	18.51	0
2	8633	18.61	0
2	8681	18.71	0
2	8729	18.81	0
2	8777	18.91	0
2	8827	19.01	0
2	8875	19.11	0
2	8923	19.21	0
2	8971	19.31	0
2	9019	19.41	0
2	9067	19.51	0
2	9115	19.61	0
2	9163	19.71	0
2	9211	19.81	0
2	9259	19.91	0
2	9309	20.01	0
2	9357	20.11	0
2	9405	20.21	0
2	9453	20.31	0
2	9501	20.41	0
2	9549	20.51	0
2	9597	20.61	0
2	9645	20.71	0
2	9693	20.81	0
2	9741	20.91	0
2	9791	21.01	0
2	9839	21.11	0
2	9887	21.21	0
2	9935	21.31	0
2	9983	21.41	0
2	10031	21.51	0
2	10079	21.61	0
2	10127	21.71	0
2	10175	21.81	0
2	10223	21.91	0
2	10273	22.01	0
2	10321	22.11	0
2	10369	22.21	0
2	10417	22.31	0
2	10465	22.41	0
2	10513	22.51	0
2	10561	22.61	0
2	10609	22.71	0
2	10657	22.81	0
2	10705	22.91	0
2	10755	23.01	0
2	10803	23.11	0
2	10851	23.21	0
2	10899	23.31	0
2	10947	23.41	0
2	10995	23.51	0
2	11043	23.61	0
2	11091	23.71	0
2	11139	23.81	0
2	11187	23.91	0
2	11237	24.01	0
2	11285	24.11	0
2	11333	24.21	0
2	11381	24.31	0
2	11429	24.41	0
2	11477	24.51	0
2	11525	24.61	0
2	11573	24.71	0
2	11621	24.81	0
2	11669	24.91	0
2	11719	25.01	0
2	11767	25.11	0
2	11815	25.21	0
2	11863	25.31	0
2	11911	25.41	0
2	11959	25.51	0
2	12007	25.61	0
2	12055	25.71	0
2	12103	25.81	0
2	12151	25.91	0
2	12201	26.01	0
2	12249	26.11	0
2	12297	26.21	0
2	12345	26.31	0
2	12393	26.41	0
2	12441	26.51	0
2	12489	26.61	0
2	12537	26.71	0
2	12585	26.81	0
2	12633	26.91	0
2	12683	27.01	0
2	12731	27.11	0
2	12779	27.21	0
2	12827	27.31	0
2	12875	27.41	0
2	12923	27.51	0
2	12971	27.61	0
2	13019	27.71	0
2	13067	27.81	0
2	13115	27.91	0
2	13165	28.01	0
2	13213	28.11	0
2	13261	28.21	0
2	13309	28.31	0
2	13357	28.41	0
2	13405	28.51	0
2	13453	28.61	0
2	13501	28.71	0
2	13549	28.81	0
2	13597	28.91	0
2	13647	29.01	0
2	13695	29.11	0
2	13743	29.21	0
2	13791	29.31	0
2	13839	29.41	0
2	13887	29.51	0
2	13935	29.61	0
2	13983	29.71	0
2	14031	29.81	0
2	14079	29.91	0
2	14129	30.01	0
2	14177	30.11	0
2	14225	30.21	0
2	14273	30.31	0
2	14321	30.41	0
2	14369	30.51	0
2	14417	30.61	0
2	14465	30.71	0
2	14513	30.81	0
2	14561	30.91	0
2	14611	31.01	0
2	14659	31.11	0
2	14707	31.21	0
2	14755	31.31	0
2	14803	31.41	0
2	14851	31.51	0
2	14899	31.61	0
2	14947	31.71	0
2	14995	31.81	0
2	15043	31.91	0
2	15093	32.01	0
2	15141	32.11	0
2	15189	32.21	0
2	15237	32.31	0
2	15285	32.41	0
2	15333	32.51	0
2	15381	32.61	0
2	15429	32.71	0
2	15477	32.81	0
2	15525	32.91	0
2	15575	33.01	0
2	15623	33.11	0
2	15671	33.21	0
2	15719	33.31	0
2	15767	33.41	0
2	15815	33.51	0
2	15863	33.61	0
2	15911	33.71	0
2	15959	33.81	0
2	16007	33.91	0
2	16057	34.01	0
2	16105	34.11	0
2	16153	34.21	0
2	16201	34.31	0
2	16249	34.41	0
2	16297	34.51	0
2	16345	34.61	0
2	16393	34.71	0
2	16441	34.81	0
2	16489	34.91	0
2	16539	35.01	0
2	16587	35.11	0
2	16635	35.21	0
2	16683	35.31	0
2	16731	35.41	0
2	16779	35.51	0
2	16827	35.61	0
2	16875	35.71	0
2	16923	35.81	0
2	16971	35.91	0
2	17021	36.01	0
2	17069	36.11	0
2	17117	36.21	0
2	17165	36.31	0
2	17213	36.41	0
2	17261	36.51	0
2	17309	36.61	0
2	17357	36.71	0
2	17405	36.81	0
2	17453	36.91	0
2	17503	37.01	0
2	17551	37.11	0
2	17599	37.21	0
2	17647	37.31	0
2	17695	37.41	0
2	17743	37.51	0
2	17791	37.61	0
2	17839	37.71	0
2	17887	37.81	0
2	17935	37.91	0
2	17985	38.01	0
2	18033	38.11	0
2	18081	38.21	0
2	18129	38.31	0
2	18177	38.41	0
2	18225	38.51	0
2	18273	38.61	0
2	18321	38.71	0
2	18369	38.81	0
2	18417	38.91	0
2	18467	39.01	0
2	18515	39.11	0
2	18563	39.21	0
2	18611	39.31	0
2	18659	39.41	0
2	18707	39.51	0
2	18755	39.61	0
2	18803	39.71	0
2	18851	39.81	0
2	18899	39.91	0
2	18949	40.01	0
2	18997	40.11	0
2	19045	40.21	0
2	19093	40.31	0
2	19141	40.41	0
2	19189	40.51	0
2	19237	40.61	0
2	19285	40.71	0
2	19333	40.81	0
2	19381	40.91	0
2	19431	41.01	0
2	19479	41.11	0
2	19527	41.21	0
2	19575	41.31	0
2	19623	41.41	0
2	19671	41.51	0
2	19719	41.61	0
2	19767	41.71	0
2	19815	41.81	0
2	19863	41.91	0
2	19913	42.01	0
2	19961	42.11	0
2	20009	42.21	0
2	20057	42.31	0
2	20105	42.41	0
2	20153	42.51	0
2	20201	42.61	0
2	20249	42.71	0
2	20297	42.81	0
2	20345	42.91	0
2	20395	43.01	0
2	20443	43.11	0
2	20491	43.21	0
2	20539	43.31	0
2	20587	43.41	0
2	20635	43.51	0
2	20683	43.61	0
2	20731	43.71	0
2	20779	43.81	0
2	20827	43.91	0
2	20877	44.01	0
2	20925	44.11	0
2	20973	44.21	0
2	21021	44.31	0
2	21069	44.41	0
2	21117	44.51	0
2	21165	44.61	0
2	21213	44.71	0
2	21261	44.81	0
2	21309	44.91	0
2	21359	45.01	0
2	21407	45.11	0
2	21455	45.21	0
2	21503	45.31	0
2	21551	45.41	0
2	21599	45.51	0
2	21647	45.61	0
2	21695	45.71	0
2	21743	45.81	0
2	21791	45.91	0
2	21841	46.01	0
2	21889	46.11	0
2	21937	46.21	0
2	21985	46.31	0
2	22033	46.41	0
2	22081	46.51	0
2	22129	46.61	0
2	22177	46.71	0
2	22225	46.81	0
2	22273	46.91	0
2	22323	47.01	0
2	22371	47.11	0
2	22419	47.21	0
2	22467	47.31	0
2	22515	47.41	0
2	22563	47.51	0
2	22611	47.61	0
2	22659	47.71	0
2	22707	47.81	0
2	22755	47.91	0
2	22805	48.01	0
2	22853	48.11	0
2	22901	48.21	0
2	22949	48.31	0
2	22997	48.41	0
2	23045	48.51	0
2	23093	48.61	0
2	23141	48.71	0
2	23189	48.81	0
2	23237	48.91	0
2	23287	49.01	0
2	23335	49.11	0
2	23383	49.21	0
2	23431	49.31	0
2	23479	49.41	0
2	23527	49.51	0
2	23575	49.61	0
2	23623	49.71	0
2	23671	49.81	0
2	23719	49.91	0
2	23769	50.01	0
2	23817	50.11	0
2	23865	50.21	0
2	23913	50.31	0
2	23961	50.41	0
2	24009	50.51	0
2	24057	50.61	0
2	24105	50.71	0
2	24153	50.81	0
2	24201	50.91	0
2	24251	51.01	0
2	24299	51.11	0
2	24347	51.21	0
2	24395	51.31	0
2	24443	51.41	0
2	24491	51.51	0
2	24539	51.61	0
2	24587	51.71	0
2	24635	51.81	0
2	24683	51.91	0
2	24733	52.01	0
2	24781	52.11	0
2	24829	52.21	0
2	24877	52.31	0
2	24925	52.41	0
2	24973	52.51	0
2	25021	52.61	0
2	25069	52.71	0
2	25117	52.81	0
2	25165	52.91	0
2	25215	53.01	0
2	25263	53.11	0
2	25311	53.21	0
2	25359	53.31	0
2	25407	53.41	0
2	25455	53.51	0
2	25503	53.61	0
2	25551	53.71	0
2	25599	53.81	0
2	25647	53.91	0
2	25697	54.01	0
2	25745	54.11	0
2	25793	54.21	0
2	25841	54.31	0
2	25889	54.41	0
2	25937	54.51	0
2	25985	54.61	0
2	26033	54.71	0
2	26081	54.81	0
2	26129	54.91	0
2	26179	55.01	0
2	26227	55.11	0
2	26275	55.21	0
2	26323	55.31	0
2	26371	55.41	0
2	26419	55.51	0
2	26467	55.61	0
2	26515	55.71	0
2	26563	55.81	0
2	26611	55.91	0
2	26661	56.01	0
2	26709	56.11	0
2	26757	56.21	0
2	26805	56.31	0
2	26853	56.41	0
2	26901	56.51	0
2	26949	56.61	0
2	26997	56.71	0
2	27045	56.81	0
2	27093	56.91	0
2	27143	57.01	0
2	27191	57.11	0
2	27239	57.21	0
2	27287	57.31	0
2	27335	57.41	0
2	27383	57.51	0
2	27431	57.61	0
2	27479	57.71	0
2	27527	57.81	0
2	27575	57.91	0
2	27625	58.01	0
2	27673	58.11	0
2	27721	58.21	0
2	27769	58.31	0
2	27817	58.41	0
2	27865	58.51	0
2	27913	58.61	0
2	27961	58.71	0
2	28009	58.81	0
2	28057	58.91	0
2	28107	59.01	0
2	28155	59.11	0
2	28203	59.21	0
2	28251	59.31	0
2	28299	59.41	0
2	28347	59.51	0
2	28395	59.61	0
2	28443	59.71	0
2	28491	59.81	0
2	28539	59.91	0
2	28589	60.01	0
2	28637	60.11	0
2	28685	60.21	0
2	28733	60.31	0
2	28781	60.41	0
2	28829	60.51	0
2	28877	60.61	0
2	28925	60.71	0
2	28973	60.81	0
2	29021	60.91	0
2	29071	61.01	0
2	29119	61.11	0
2	29167	61.21	0
2	29215	61.31	0
2	29263	61.41	0
2	29311	61.51	0
2	29359	61.61	0
2	29407	61.71	0
2	29455	61.81	0
2	29503	61.91	0
2	29553	62.01	0
2	29601	62.11	0
2	29649	62.21	0
2	29697	62.31	0
2	29745	62.41	0
2	29793	62.51	0
2	29841	62.61	0
2	29889	62.71	0
2	29937	62.81	0
2	29985	62.91	0
2	30035	63.01	0
2	30083	63.11	0
2	30131	63.21	0
2	30179	63.31	0
2	30227	63.41	0
2	30275	63.51	0
2	30323	63.61	0
2	30371	63.71	0
2	30419	63.81	0
2	30467	63.91	0
2	30517	64.01	0
2	30565	64.11	0
2	30613	64.21	0
2	30661	64.31	0
2	30709	64.41	0
2	30757	64.51	0
2	30805	64.61	0
2	30853	64.71	0
2	30901	64.81	0
2	30949	64.91	0
2	30999	65.01	0
2	31047	65.11	0
2	31095	65.21	0
2	31143	65.31	0
2	31191	65.41	0
2	31239	65.51	0
2	31287	65.61	0
2	31335	65.71	0
2	31383	65.81	0
2	31431	65.91	0
2	31481	66.01	0
2	31529	66.11	0
2	31577	66.21	0
2	31625	66.31	0
2	31673	66.41	0
2	31721	66.51	0
2	31769	66.61	0
2	31817	66.71	0
2	31865	66.81	0
2	31913	66.91	0
2	31963	67.01	0
2	32011	67.11	0
2	32059	67.21	0
2	32107	67.31	0
2	32155	67.41	0
2	32203	67.51	0
2	32251	67.61	0
2	32299	67.71	0
2	32347	67.81	0
2	32395	67.91	0
2	32445	68.01	0
2	32493	68.11	0
2	32541	68.21	0
2	32589	68.31	0
2	32637	68.41	0
2	32685	68.51	0
2	32733	68.61	0
2	32781	68.71	0
2	32829	68.81	0
2	32877	68.91	0
2	32927	69.01	0
2	32975	69.11	0
2	33023	69.21	0
2	33071	69.31	0
2	33119	69.41	0
2	33167	69.51	0
2	33215	69.61	0
2	33263	69.71	0
2	33311	69.81	0
2	33359	69.91	0
2	33409	70.01	0
2	33457	70.11	0
2	33505	70.21	0
2	33553	70.31	0
2	33601	70.41	0
2	33649	70.51	0
2	33697	70.61	0
2	33745	70.71	0
2	33793	70.81	0
2	33841	70.91	0
2	33891	71.01	0
2	33939	71.11	0
2	33987	71.21	0
2	34035	71.31	0
2	34083	71.41	0
2	34131	71.51	0
2	34179	71.61	0
2	34227	71.71	0
2	34275	71.81	0
2	34323	71.91	0
2	34373	72.01	0
2	34421	72.11	0
2	34469	72.21	0
2	34517	72.31	0
2	34565	72.41	0
2	34613	72.51	0
2	34661	72.61	0
2	34709	72.71	0
2	34757	72.81	0
2	34805	72.91	0
2	34855	73.01	0
2	34903	73.11	0
2	34951	73.21	0
2	34999	73.31	0
2	35047	73.41	0
2	35095	73.51	0
2	35143	73.61	0
2	35191	73.71	0
2	35239	73.81	0
2	35287	73.91	0
2	35337	74.01	0
2	35385	74.11	0
2	35433	74.21	0
2	35481	74.31	0
2	35529	74.41	0
2	35577	74.51	0
2	35625	74.61	0
2	35673	74.71	0
2	35721	74.81	0
2	35769	74.91	0
2	35819	75.01	0
2	35867	75.11	0
2	35915	75.21	0
2	35963	75.31	0
2	36011	75.41	0
2	36059	75.51	0
2	36107	75.61	0
2	36155	75.71	0
2	36203	75.81	0
2	36251	75.91	0
2	36301	76.01	0
2	36349	76.11	0
2	36397	76.21	0
2	36445	76.31	0
2	36493	76.41	0
2	36541	76.51	0
2	36589	76.61	0
2	36637	76.71	0
2	36685	76.81	0
2	36733	76.91	0
2	36783	77.01	0
2	36831	77.11	0
2	36879	77.21	0
2	36927	77.31	0
2	36975	77.41	0
2	37023	77.51	0
2	37071	77.61	0
2	37119	77.71	0
2	37167	77.81	0
2	37215	77.91	0
2	37265	78.01	0
2	37313	78.11	0
2	37361	78.21	0
2	37409	78.31	0
2	37457	78.41	0
2	37505	78.51	0
2	37553	78.61	0
2	37601	78.71	0
2	37649	78.81	0
2	37697	78.91	0
2	37747	79.01	0
2	37795	79.11	0
2	37843	79.21	0
2	37891	79.31	0
2	37939	79.41	0
2	37987	79.51	0
2	38035	79.61	0
2	38083	79.71	0
2	38131	79.81	0
2	38179	79.91	0
2	38229	80.01	0
2	38277	80.11	0
2	38325	80.21	0
2	38373	80.31	0
2	38421	80.41	0
2	38469	80.51	0
2	38517	80.61	0
2	38565	80.71	0
2	38613	80.81	0
2	38661	80.91	0
2	38711	81.01	0
2	38759	81.11	0
2	38807	81.21	0
2	38855	81.31	0
2	38903	81.41	0
2	38951	81.51	0
2	38999	81.61	0
2	39047	81.71	0
2	39095	81.81	0
2	39143	81.91	0
2	39193	82.01	0
2	39241	82.11	0
2	39289	82.21	0
2	39337	82.31	0
2	39385	82.41	0
2	39433	82.51	0
2	39481	82.61	0
2	39529	82.71	0
2	39577	82.81	0
2	39625	82.91	0
2	39675	83.01	0
2	39723	83.11	0
2	39771	83.21	0
2	39819	83.31	0
2	39867	83.41	0
2	39915	83.51	0
2	39963	83.61	0
2	40011	83.71	0
2	40059	83.81	0
2	40107	83.91	0
2	40157	84.01	0
2	40205	84.11	0
2	40253	84.21	0
2	40301	84.31	0
2	40349	84.41	0
2	40397	84.51	0
2	40445	84.61	0
2	40493	84.71	0
2	40541	84.81	0
2	40589	84.91	0
2	40639	85.01	0
2	40687	85.11	0
2	40735	85.21	0
2	40783	85.31	0
2	40831	85.41	0
2	40879	85.51	0
2	40927	85.61	0
2	40975	85.71	0
2	41023	85.81	0
2	41071	85.91	0
2	41121	86.01	0
2	41169	86.11	0
2	41217	86.21	0
2	41265	86.31	0
2	41313	86.41	0
2	41361	86.51	0
2	41409	86.61	0
2	41457	86.71	0
2	41505	86.81	0
2	41553	86.91	0
2	41603	87.01	0
2	41651	87.11	0
2	41699	87.21	0
2	41747	87.31	0
2	41795	87.41	0
2	41843	87.51	0
2	41891	87.61	0
2	41939	87.71	0
2	41987	87.81	0
2	42035	87.91	0
2	42085	88.01	0
2	42133	88.11	0
2	42181	88.21	0
2	42229	88.31	0
2	42277	88.41	0
2	42325	88.51	0
2	42373	88.61	0
2	42421	88.71	0
2	42469	88.81	0
2	42517	88.91	0
2	42567	89.01	0
2	42615	89.11	0
2	42663	89.21	0
2	42711	89.31	0
2	42759	89.41	0
2	42807	89.51	0
2	42855	89.61	0
2	42903	89.71	0
2	42951	89.81	0
2	42999	89.91	0
2	43049	90.01	0
2	43097	90.11	0
2	43145	90.21	0
2	43193	90.31	0
2	43241	90.41	0
2	43289	90.51	0
2	43337	90.61	0
2	43385	90.71	0
2	43433	90.81	0
2	43481	90.91	0
2	43531	91.01	0
2	43579	91.11	0
2	43627	91.21	0
2	43675	91.31	0
2	43723	91.41	0
2	43771	91.51	0
2	43819	91.61	0
2	43867	91.71	0
2	43915	91.81	0
2	43963	91.91	0
2	44013	92.01	0
2	44061	92.11	0
2	44109	92.21	0
2	44157	92.31	0
2	44205	92.41	0
2	44253	92.51	0
2	44301	92.61	0
2	44349	92.71	0
2	44397	92.81	0
2	44445	92.91	0
2	44495	93.01	0
2	44543	93.11	0
2	44591	93.21	0
2	44639	93.31	0
2	44687	93.41	0
2	44735	93.51	0
2	44783	93.61	0
2	44831	93.71	0
2	44879	93.81	0
2	44927	93.91	0
2	44977	94.01	0
2	45025	94.11	0
2	45073	94.21	0
2	45121	94.31	0
2	45169	94.41	0
2	45217	94.51	0
2	45265	94.61	0
2	45313	94.71	0
2	45361	94.81	0
2	45409	94.91	0
2	45459	95.01	0
2	45507	95.11	0
2	45555	95.21	0
2	45603	95.31	0
2	45651	95.41	0
2	45699	95.51	0
2	45747	95.61	0
2	45795	95.71	0
2	45843	95.81	0
2	45891	95.91	0
2	45941	96.01	0
2	45989	96.11	0
2	46037	96.21	0
2	46085	96.31	0
2	46133	96.41	0
2	46181	96.51	0
2	46229	96.61	0
2	46277	96.71	0
2	46325	96.81	0
2	46373	96.91	0
2	46423	97.01	0
2	46471	97.11	0
2	46519	97.21	0
2	46567	97.31	0
2	46615	97.41	0
2	46663	97.51	0
2	46711	97.61	0
2	46759	97.71	0
2	46807	97.81	0
2	46855	97.91	0
2	46905	98.01	0
2	46953	98.11	0
2	47001	98.21	0
2	47049	98.31	0
2	47097	98.41	0
2	47145	98.51	0
2	47193	98.61	0
2	47241	98.71	0
2	47289	98.81	0
2	47337	98.91	0
2	47387	99.01	0
2	47435	99.11	0
2	47483	99.21	0
2	47531	99.31	0
2	47579	99.41	0
2	47627	99.51	0
2	47675	99.61	0
2	47723	99.71	0
2	47771	99.81	0
2	47819	99.91	0
3	113	1.11	-0.000716383
3	161	1.21	-0.00136341
3	209	1.31	-0.00186974
3	257	1.41	-0.00225157
3	305	1.51	-0.00252443
3	353	1.61	-0.00270298
3	401	1.71	-0.00280098
3	449	1.81	-0.00283113
3	497	1.91	-0.00280509
3	547	2.01	-0.00273342
3	595	2.11	-0.00262559
3	643	2.21	-0.00249005
3	691	2.31	-0.00233419
3	739	2.41	-0.00216447
3	787	2.51	-0.00198642
3	835	2.61	-0.00180472
3	883	2.71	-0.0016233
3	931	2.81	-0.00144536
3	979	2.91	-0.00127346
3	1029	3.01	-0.0011096
3	1077	3.11	-0.000955278
3	1125	3.21	-0.000811546
3	1173	3.31	-0.00067908
3	1221	3.41	-0.000558232
3	1269	3.51	-0.000449082
3	1317	3.61	-0.000351487
3	1365	3.71	-0.00026512
3	1413	3.81	-0.000189514
3	1461	3.91	-0.000124092
3	1511	4.01	-6.81972e-05
3	1559	4.11	-2.11209e-05
3	1607	4.21	1.78769e-05
3	1655	4.31	4.9548e-05
3	1703	4.41	7.46407e-05
3	1751	4.51	9.38867e-05
3	1799	4.61	0.000107991
3	1847	4.71	0.000117625
3	1895	4.81	0.000123418
3	1943	4.91	0.000125957
3	1993	5.01	0.000125781
3	2041	5.11	0.00012338
3	2089	5.21	0.000119198
3	2137	5.31	0.000113629
3	2185	5.41	0.000107022
3	2233	5.51	9.96832e-05
3	2281	5.61	9.18747e-05
3	2329	5.71	8.38211e-05
3	2377	5.81	7.57109e-05
3	2425	5.91	6.76999e-05
3	2475	6.01	5.99137e-05
3	2523	6.11	5.24518e-05
3	2571	6.21	4.53896e-05
3	2619	6.31	3.87821e-05
3	2667	6.41	3.2666e-05
3	2715	6.51	2.70628e-05
3	2763	6.61	2.19809e-05
3	2811	6.71	1.74176e-05
3	2859	6.81	1.33618e-05
3	2907	6.91	9.79494e-06
3	2957	7.01	6.6932e-06
3	3005	7.11	4.02864e-06
3	3053	7.21	1.77051e-06
3	3101	7.31	-1.13691e-07
3	3149	7.41	-1.65736e-06
3	3197	7.51	-2.89397e-06
3	3245	7.61	-3.85652e-06
3	3293	7.71	-4.57698e-06
3	3341	7.81	-5.08591e-06
3	3389	7.91	-5.41219e-06
3	3439	8.01	-5.58279e-06
3	3487	8.11	-5.6226e-06
3	3535	8.21	-5.55442e-06
3	3583	8.31	-5.39886e-06
3	3631	8.41	-5.17441e-06
3	3679	8.51	-4.89748e-06
3	3727	8.61	-4.58246e-06
3	3775	8.71	-4.24184e-06
3	3823	8.81	-3.88634e-06
3	3871	8.91	-3.52499e-06
3	3921	9.01	-3.16534e-06
3	3969	9.11	-2.81353e-06
3	4017	9.21	-2.47446e-06
3	4065	9.31	-2.15192e-06
3	4113	9.41	-1.84873e-06
3	4161	9.51	-1.56685e-06
3	4209	9.61	-1.30751e-06
3	4257	9.71	-1.0713e-06
3	4305	9.81	-8.58321e-07
3	4353	9.91	-6.68206e-07
3	4489	10.01	-5.0026e-07
3	4537	10.11	-3.53514e-07
3	4585	10.21	-2.2679e-07
3	4633	10.31	-1.18765e-07
3	4681	10.41	-2.80163e-08
3	4729	10.51	4.6931e-08
3	4777	10.61	1.07573e-07
3	4825	10.71	1.55391e-07
3	4873	10.81	1.91831e-07
3	4921	10.91	2.18284e-07
3	4971	11.01	2.3607e-07
3	5019	11.11	2.46427e-07
3	5067	11.21	2.50502e-07
3	5115	11.31	2.49353e-07
3	5163	11.41	2.43938e-07
3	5211	11.51	2.3512e-07
3	5259	11.61	2.23669e-07
3	5307	11.71	2.10264e-07
3	5355	11.81	1.95496e-07
3	5403	11.91	1.79874e-07
3	5453	12.01	1.63833e-07
3	5501	12.11	1.47736e-07
3	5549	12.21	1.3188e-07
3	5597	12.31	1.16508e-07
3	5645	12.41	1.01807e-07
3	5693	12.51	8.79222e-08
3	5741	12.61	7.49541e-08
3	5789	12.71	6.29711e-08
3	5837	12.81	5.20114e-08
3	5885	12.91	4.20883e-08
3	5935	13.01	3.3193e-08
3	5983	13.11	2.53003e-08
3	6031	13.21	1.83718e-08
3	6079	13.31	1.23581e-08
3	6127	13.41	7.20348e-09
3	6175	13.51	2.84537e-09
3	6223	13.61	-7.80886e-10
3	6271	13.71	-3.74136e-09
3	6319	13.81	-6.10285e-09
3	6367	13.91	-7.93072e-09
3	6417	14.01	-9.28821e-09
3	6465	14.11	-1.0235e-08
3	6513	14.21	-1.08283e-08
3	6561	14.31	-1.11211e-08
3	6609	14.41	-1.11612e-08
3	6657	14.51	-1.09946e-08
3	6705	14.61	-1.06599e-08
3	6753	14.71	-1.01945e-08
3	6801	14.81	-9.62999e-09
3	6849	14.91	-8.99405e-09
3	6899	15.01	-8.31086e-09
3	6947	15.11	-7.60103e-09
3	6995	15.21	-6.88338e-09
3	7043	15.31	-6.17071e-09
3	7091	15.41	-5.47544e-09
3	7139	15.51	-4.80682e-09
3	7187	15.61	-4.17266e-09
3	7235	15.71	-3.57687e-09
3	7283	15.81	-3.02443e-09
3	7331	15.91	-2.51674e-09
3	7381	16.01	-2.05489e-09
3	7429	16.11	-1.63958e-09
3	7477	16.21	-1.26903e-09
3	7525	16.31	-9.42535e-10
3	7573	16.41	-6.57963e-10
3	7621	16.51	-4.1247e-10
3	7669	16.61	-2.04636e-10
3	7717	16.71	-2.91323e-11
3	7765	16.81	1.14753e-10
3	7813	16.91	2.30926e-10
3	7863	17.01	3.22231e-10
3	7911	17.11	3.91154e-10
3	7959	17.21	4.40892e-10
3	8007	17.31	4.73577e-10
3	8055	17.41	4.92051e-10
3	8103	17.51	4.98446e-10
3	8151	17.61	4.94893e-10
3	8199	17.71	4.82814e-10
3	8247	17.81	4.6434e-10
3	8295	17.91	4.40892e-10
3	8345	18.01	4.13536e-10
3	8393	18.11	3.83693e-10
3	8441	18.21	3.51719e-10
3	8489	18.31	3.19744e-10
3	8537	18.41	2.8777e-10
3	8585	18.51	2.55795e-10
3	8633	18.61	2.25953e-10
3	8681	18.71	1.97531e-10
3	8729	18.81	1.6982e-10
3	8777	18.91	1.44951e-10
3	8827	19.01	1.21503e-10
3	8875	19.11	1.00187e-10
3	8923	19.21	8.10019e-11
3	8971	19.31	6.32383e-11
3	9019	19.41	4.86722e-11
3	9067	19.51	3.44613e-11
3	9115	19.61	2.34479e-11
3	9163	19.71	1.27898e-11
3	9211	19.81	4.9738e-12
3	9259	19.91	-2.13163e-12
3	9309	20.01	-8.17124e-12
3	9357	20.11	-1.1724e-11
3	9405	20.21	-1.52767e-11
3	9453	20.31	-1.88294e-11
3	9501	20.41	-2.02505e-11
3	9549	20.51	-2.02505e-11
3	9597	20.61	-2.02505e-11
3	9645	20.71	-2.02505e-11
3	9693	20.81	-2.02505e-11
3	9741	20.91	-2.02505e-11
3	9791	21.01	-2.02505e-11
3	9839	21.11	-2.02505e-11
3	9887	21.21	-2.02505e-11
3	9935	21.31	-1.88294e-11
3	9983	21.41	-1.7053e-11
3	10031	21.51	-1.52767e-11
3	10079	21.61	-1.38556e-11
3	10127	21.71	-1.24345e-11
3	10175	21.81	-1.13687e-11
3	10223	21.91	-1.03029e-11
3	10273	22.01	-9.23706e-12
3	10321	22.11	-8.52651e-12
3	10369	22.21	-7.4607e-12
3	10417	22.31	-6.75016e-12
3	10465	22.41	-6.03961e-12
3	10513	22.51	-5.68434e-12
3	10561	22.61	-4.9738e-12
3	10609	22.71	-4.61853e-12
3	10657	22.81	-4.26326e-12
3	10705	22.91	-3.90799e-12
3	10755	23.01	-3.55271e-12
3	10803	23.11	-3.19744e-12
3	10851	23.21	-2.84217e-12
3	10899	23.31	-2.4869e-12
3	10947	23.41	-2.13163e-12
3	10995	23.51	-2.13163e-12
3	11043	23.61	-1.77636e-12
3	11091	23.71	-1.77636e-12
3	11139	23.81	-1.42109e-12
3	11187	23.91	-1.42109e-12
3	11237	24.01	-1.06581e-12
3	11285	24.11	-1.06581e-12
3	11333	24.21	-1.06581e-12
3	11381	24.31	-1.06581e-12
3	11429	24.41	-7.10543e-13
3	11477	24.51	-7.10543e-13
3	11525	24.61	-7.10543e-13
3	11573	24.71	-7.10543e-13
3	11621	24.81	-7.10543e-13
3	11669	24.91	-3.55271e-13
3	11719	25.01	-3.55271e-13
3	11767	25.11	-3.55271e-13
3	11815	25.21	-3.55271e-13
3	11863	25.31	-3.55271e-13
3	11911	25.41	-3.55271e-13
3	11959	25.51	-3.55271e-13
3	12007	25.61	-3.55271e-13
3	12055	25.71	-3.55271e-13
3	12103	25.81	-3.55271e-13
3	12151	25.91	0
3	12201	26.01	0
3	12249	26.11	0
3	12297	26.21	0
3	12345	26.31	0
3	12393	26.41	0
3	12441	26.51	0
3	12489	26.61	0
3	12537	26.71	0
3	12585	26.81	0
3	12633	26.91	0
3	12683	27.01	0
3	12731	27.11	0
3	12779	27.21	0
3	12827	27.31	0
3	12875	27.41	0
3	12923	27.51	0
3	12971	27.61	0
3	13019	27.71	0
3	13067	27.81	0
3	13115	27.91	0
3	13165	28.01	0
3	13213	28.11	0
3	13261	28.21	0
3	13309	28.31	0
3	13357	28.41	0
3	13405	28.51	0
3	13453	28.61	0
3	13501	28.71	0
3	13549	28.81	0
3	13597	28.91	0
3	13647	29.01	0
3	13695	29.11	0
3	13743	29.21	0
3	13791	29.31	0
3	13839	29.41	0
3	13887	29.51	0
3	13935	29.61	0
3	13983	29.71	0
3	14031	29.81	0
3	14079	29.91	0
3	14129	30.01	0
3	14177	30.11	0
3	14225	30.21	0
3	14273	30.31	0
3	14321	30.41	0
3	14369	30.51	0
3	14417	30.61	0
3	14465	30.71	0
3	14513	30.81	0
3	14561	30.91	0
3	14611	31.01	0
3	14659	31.11	0
3	14707	31.21	0
3	14755	31.31	0
3	14803	31.41	0
3	14851	31.51	0
3	14899	31.61	0
3	14947	31.71	0
3	14995	31.81	0
3	15043	31.91	0
3	15093	32.01	0
3	15141	32.11	0
3	15189	32.21	0
3	15237	32.31	0
3	15285	32.41	0
3	15333	32.51	0
3	15381	32.61	0
3	15429	32.71	0
3	15477	32.81	0
3	15525	32.91	0
3	15575	33.01	0
3	15623	33.11	0
3	15671	33.21	0
3	15719	33.31	0
3	15767	33.41	0
3	15815	33.51	0
3	15863	33.61	0
3	15911	33.71	0
3	15959	33.81	0
3	16007	33.91	0
3	16057	34.01	0
3	16105	34.11	0
3	16153	34.21	0
3	16201	34.31	0
3	16249	34.41	0
3	16297	34.51	0
3	16345	34.61	0
3	16393	34.71	0
3	16441	34.81	0
3	16489	34.91	0
3	16539	35.01	0
3	16587	35.11	0
3	16635	35.21	0
3	16683	35.31	0
3	16731	35.41	0
3	16779	35.51	0
3	16827	35.61	0
3	16875	35.71	0
3	16923	35.81	0
3	16971	35.91	0
3	17021	36.01	0
3	17069	36.11	0
3	17117	36.21	0
3	17165	36.31	0
3	17213	36.41	0
3	17261	36.51	0
3	17309	36.61	0
3	17357	36.71	0
3	17405	36.81	0
3	17453	36.91	0
3	17503	37.01	0
3	17551	37.11	0
3	17599	37.21	0
3	17647	37.31	0
3	17695	37.41	0
3	17743	37.51	0
3	17791	37.61	0
3	17839	37.71	0
3	17887	37.81	0
3	17935	37.91	0
3	17985	38.01	0
3	18033	38.11	0
3	18081	38.21	0
3	18129	38.31	0
3	18177	38.41	0
3	18225	38.51	0
3	18273	38.61	0
3	18321	38.71	0
3	18369	38.81	0
3	18417	38.91	0
3	18467	39.01	0
3	18515	39.11	0
3	18563	39.21	0
3	18611	39.31	0
3	18659	39.41	0
3	18707	39.51	0
3	18755	39.61	0
3	18803	39.71	0
3	18851	39.81	0
3	18899	39.91	0
3	18949	40.01	0
3	18997	40.11	0
3	19045	40.21	0
3	19093	40.31	0
3	19141	40.41	0
3	19189	40.51	0
3	19237	40.61	0
3	19285	40.71	0
3	19333	40.81	0
3	19381	40.91	0
3	19431	41.01	0
3	19479	41.11	0
3	19527	41.21	0
3	19575	41.31	0
3	19623	41.41	0
3	19671	41.51	0
3	19719	41.61	0
3	19767	41.71	0
3	19815	41.81	0
3	19863	41.91	0
3	19913	42.01	0
3	19961	42.11	0
3	20009	42.21	0
3	20057	42.31	0
3	20105	42.41	0
3	20153	42.51	0
3	20201	42.61	0
3	20249	42.71	0
3	20297	42.81	0
3	20345	42.91	0
3	20395	43.01	0
3	20443	43.11	0
3	20491	43.21	0
3	20539	43.31	0
3	20587	43.41	0
3	20635	43.51	0
3	20683	43.61	0
3	20731	43.71	0
3	20779	43.81	0
3	20827	43.91	0
3	20877	44.01	0
3	20925	44.11	0
3	20973	44.21	0
3	21021	44.31	0
3	21069	44.41	0
3	21117	44.51	0
3	21165	44.61	0
3	21213	44.71	0
3	21261	44.81	0
3	21309	44.91	0
3	21359	45.01	0
3	21407	45.11	0
3	21455	45.21	0
3	21503	45.31	0
3	21551	45.41	0
3	21599	45.51	0
3	21647	45.61	0
3	21695	45.71	0
3	21743	45.81	0
3	21791	45.91	0
3	21841	46.01	0
3	21889	46.11	0
3	21937	46.21	0
3	21985	46.31	0
3	22033	46.41	0
3	22081	46.51	0
3	22129	46.61	0
3	22177	46.71	0
3	22225	46.81	0
3	22273	46.91	0
3	22323	47.01	0
3	22371	47.11	0
3	22419	47.21	0
3	22467	47.31	0
3	22515	47.41	0
3	22563	47.51	0
3	22611	47.61	0
3	22659	47.71	0
3	22707	47.81	0
3	22755	47.91	0
3	22805	48.01	0
3	22853	48.11	0
3	22901	48.21	0
3	22949	48.31	0
3	22997	48.41	0
3	23045	48.51	0
3	23093	48.61	0
3	23141	48.71	0
3	23189	48.81	0
3	23237	48.91	0
3	23287	49.01	0
3	23335	49.11	0
3	23383	49.21	0
3	23431	49.31	0
3	23479	49.41	0
3	23527	49.51	0
3	23575	49.61	0
3	23623	49.71	0
3	23671	49.81	0
3	23719	49.91	0
3	23769	50.01	0
3	23817	50.11	0
3	23865	50.21	0
3	23913	50.31	0
3	23961	50.41	0
3	24009	50.51	0
3	24057	50.61	0
3	24105	50.71	0
3	24153	50.81	0
3	24201	50.91	0
3	24251	51.01	0
3	24299	51.11	0
3	24347	51.21	0
3	24395	51.31	0
3	24443	51.41	0
3	24491	51.51	0
3	24539	51.61	0
3	24587	51.71	0
3	24635	51.81	0
3	24683	51.91	0
3	24733	52.01	0
3	24781	52.11	0
3	24829	52.21	0
3	24877	52.31	0
3	24925	52.41	0
3	24973	52.51	0
3	25021	52.61	0
3	25069	52.71	0
3	25117	52.81	0
3	25165	52.91	0
3	25215	53.01	0
3	25263	53.11	0
3	25311	53.21	0
3	25359	53.31	0
3	25407	53.41	0
3	25455	53.51	0
3	25503	53.61	0
3	25551	53.71	0
3	25599	53.81	0
3	25647	53.91	0
3	25697	54.01	0
3	25745	54.11	0
3	25793	54.21	0
3	25841	54.31	0
3	25889	54.41	0
3	25937	54.51	0
3	25985	54.61	0
3	26033	54.71	0
3	26081	54.81	0
3	26129	54.91	0
3	26179	55.01	0
3	26227	55.11	0
3	26275	55.21	0
3	26323	55.31	0
3	26371	55.41	0
3	26419	55.51	0
3	26467	55.61	0
3	26515	55.71	0
3	26563	55.81	0
3	26611	55.91	0
3	26661	56.01	0
3	26709	56.11	0
3	26757	56.21	0
3	26805	56.31	0
3	26853	56.41	0
3	26901	56.51	0
3	26949	56.61	0
3	26997	56.71	0
3	27045	56.81	0
3	27093	56.91	0
3	27143	57.01	0
3	27191	57.11	0
3	27239	57.21	0
3	27287	57.31	0
3	27335	57.41	0
3	27383	57.51	0
3	27431	57.61	0
3	27479	57.71	0
3	27527	57.81	0
3	27575	57.91	0
3	27625	58.01	0
3	27673	58.11	0
3	27721	58.21	0
3	27769	58.31	0
3	27817	58.41	0
3	27865	58.51	0
3	27913	58.61	0
3	27961	58.71	0
3	28009	58.81	0
3	28057	58.91	0
3	28107	59.01	0
3	28155	59.11	0
3	28203	59.21	0
3	28251	59.31	0
3	28299	59.41	0
3	28347	59.51	0
3	28395	59.61	0
3	28443	59.71	0
3	28491	59.81	0
3	28539	59.91	0
3	28589	60.01	0
3	28637	60.11	0
3	28685	60.21	0
3	28733	60.31	0
3	28781	60.41	0
3	28829	60.51	0
3	28877	60.61	0
3	28925	60.71	0
3	28973	60.81	0
3	29021	60.91	0
3	29071	61.01	0
3	29119	61.11	0
3	29167	61.21	0
3	29215	61.31	0
3	29263	61.41	0
3	29311	61.51	0
3	29359	61.61	0
3	29407	61.71	0
3	29455	61.81	0
3	29503	61.91	0
3	29553	62.01	0
3	29601	62.11	0
3	29649	62.21	0
3	29697	62.31	0
3	29745	62.41	0
3	29793	62.51	0
3	29841	62.61	0
3	29889	62.71	0
3	29937	62.81	0
3	29985	62.91	0
3	30035	63.01	0
3	30083	63.11	0
3	30131	63.21	0
3	30179	63.31	0
3	30227	63.41	0
3	30275	63.51	0
3	30323	63.61	0
3	30371	63.71	0
3	30419	63.81	0
3	30467	63.91	0
3	30517	64.01	0
3	30565	64.11	0
3	30613	64.21	0
3	30661	64.31	0
3	30709	64.41	0
3	30757	64.51	0
3	30805	64.61	0
3	30853	64.71	0
3	30901	64.81	0
3	30949	64.91	0
3	30999	65.01	0
3	31047	65.11	0
3	31095	65.21	0
3	31143	65.31	0
3	31191	65.41	0
3	31239	65.51	0
3	31287	65.61	0
3	31335	65.71	0
3	31383	65.81	0
3	31431	65.91	0
3	31481	66.01	0
3	31529	66.11	0
3	31577	66.21	0
3	31625	66.31	0
3	31673	66.41	0
3	31721	66.51	0
3	31769	66.61	0
3	31817	66.71	0
3	31865	66.81	0
3	31913	66.91	0
3	31963	67.01	0
3	32011	67.11	0
3	32059	67.21	0
3	32107	67.31	0
3	32155	67.41	0
3	32203	67.51	0
3	32251	67.61	0
3	32299	67.71	0
3	32347	67.81	0
3	32395	67.91	0
3	32445	68.01	0
3	32493	68.11	0
3	32541	68.21	0
3	32589	68.31	0
3	32637	68.41	0
3	32685	68.51	0
3	32733	68.61	0
3	32781	68.71	0
3	32829	68.81	0
3	32877	68.91	0
3	32927	69.01	0
3	32975	69.11	0
3	33023	69.21	0
3	33071	69.31	0
3	33119	69.41	0
3	33167	69.51	0
3	33215	69.61	0
3	33263	69.71	0
3	33311	69.81	0
3	33359	69.91	0
3	33409	70.01	0
3	33457	70.11	0
3	33505	70.21	0
3	33553	70.31	0
3	33601	70.41	0
3	33649	70.51	0
3	33697	70.61	0
3	33745	70.71	0
3	33793	70.81	0
3	33841	70.91	0
3	33891	71.01	0
3	33939	71.11	0
3	33987	71.21	0
3	34035	71.31	0
3	34083	71.41	0
3	34131	71.51	0
3	34179	71.61	0
3	34227	71.71	0
3	34275	71.81	0
3	34323	71.91	0
3	34373	72.01	0
3	34421	72.11	0
3	34469	72.21	0
3	34517	72.31	0
3	34565	72.41	0
3	34613	72.51	0
3	34661	72.61	0
3	34709	72.71	0
3	34757	72.81	0
3	34805	72.91	0
3	34855	73.01	0
3	34903	73.11	0
3	34951	73.21	0
3	34999	73.31	0
3	35047	73.41	0
3	35095	73.51	0
3	35143	73.61	0
3	35191	73.71	0
3	35239	73.81	0
3	35287	73.91	0
3	35337	74.01	0
3	35385	74.11	0
3	35433	74.21	0
3	35481	74.31	0
3	35529	74.41	0
3	35577	74.51	0
3	35625	74.61	0
3	35673	74.71	0
3	35721	74.81	0
3	35769	74.91	0
3	35819	75.01	0
3	35867	75.11	0
3	35915	75.21	0
3	35963	75.31	0
3	36011	75.41	0
3	36059	75.51	0
3	36107	75.61	0
3	36155	75.71	0
3	36203	75.81	0
3	36251	75.91	0
3	36301	76.01	0
3	36349	76.11	0
3	36397	76.21	0
3	36445	76.31	0
3	36493	76.41	0
3	36541	76.51	0
3	36589	76.61	0
3	36637	76.71	0
3	36685	76.81	0
3	36733	76.91	0
3	36783	77.01	0
3	36831	77.11	0
3	36879	77.21	0
3	36927	77.31	0
3	36975	77.41	0
3	37023	77.51	0
3	37071	77.61	0
3	37119	77.71	0
3	37167	77.81	0
3	37215	77.91	0
3	37265	78.01	0
3	37313	78.11	0
3	37361	78.21	0
3	37409	78.31	0
3	37457	78.41	0
3	37505	78.51	0
3	37553	78.61	0
3	37601	78.71	0
3	37649	78.81	0
3	37697	78.91	0
3	37747	79.01	0
3	37795	79.11	0
3	37843	79.21	0
3	37891	79.31	0
3	37939	79.41	0
3	37987	79.51	0
3	38035	79.61	0
3	38083	79.71	0
3	38131	79.81	0
3	38179	79.91	0
3	38229	80.01	0
3	38277	80.11	0
3	38325	80.21	0
3	38373	80.31	0
3	38421	80.41	0
3	38469	80.51	0
3	38517	80.61	0
3	38565	80.71	0
3	38613	80.81	0
3	38661	80.91	0
3	38711	81.01	0
3	38759	81.11	0
3	38807	81.21	0
3	38855	81.31	0
3	38903	81.41	0
3	38951	81.51	0
3	38999	81.61	0
3	39047	81.71	0
3	39095	81.81	0
3	39143	81.91	0
3	39193	82.01	0
3	39241	82.11	0
3	39289	82.21	0
3	39337	82.31	0
3	39385	82.41	0
3	39433	82.51	0
3	39481	82.61	0
3	39529	82.71	0
3	39577	82.81	0
3	39625	82.91	0
3	39675	83.01	0
3	39723	83.11	0
3	39771	83.21	0
3	39819	83.31	0
3	39867	83.41	0
3	39915	83.51	0
3	39963	83.61	0
3	40011	83.71	0
3	40059	83.81	0
3	40107	83.91	0
3	40157	84.01	0
3	40205	84.11	0
3	40253	84.21	0
3	40301	84.31	0
3	40349	84.41	0
3	40397	84.51	0
3	40445	84.61	0
3	40493	84.71	0
3	40541	84.81	0
3	40589	84.91	0
3	40639	85.01	0
3	40687	85.11	0
3	40735	85.21	0
3	40783	85.31	0
3	40831	85.41	0
3	40879	85.51	0
3	40927	85.61	0
3	40975	85.71	0
3	41023	85.81	0
3	41071	85.91	0
3	41121	86.01	0
3	41169	86.11	0
3	41217	86.21	0
3	41265	86.31	0
3	41313	86.41	0
3	41361	86.51	0
3	41409	86.61	0
3	41457	86.71	0
3	41505	86.81	0
3	41553	86.91	0
3	41603	87.01	0
3	41651	87.11	0
3	41699	87.21	0
3	41747	87.31	0
3	41795	87.41	0
3	41843	87.51	0
3	41891	87.61	0
3	41939	87.71	0
3	41987	87.81	0
3	42035	87.91	0
3	42085	88.01	0
3	42133	88.11	0
3	42181	88.21	0
3	42229	88.31	0
3	42277	88.41	0
3	42325	88.51	0
3	42373	88.61	0
3	42421	88.71	0
3	42469	88.81	0
3	42517	88.91	0
3	42567	89.01	0
3	42615	89.11	0
3	42663	89.21	0
3	42711	89.31	0
3	42759	89.41	0
3	42807	89.51	0
3	42855	89.61	0
3	42903	89.71	0
3	42951	89.81	0
3	42999	89.91	0
3	43049	90.01	0
3	43097	90.11	0
3	43145	90.21	0
3	43193	90.31	0
3	43241	90.41	0
3	43289	90.51	0
3	43337	90.61	0
3	43385	90.71	0
3	43433	90.81	0
3	43481	90.91	0
3	43531	91.01	0
3	43579	91.11	0
3	43627	91.21	0
3	43675	91.31	0
3	43723	91.41	0
3	43771	91.51	0
3	43819	91.61	0
3	43867	91.71	0
3	43915	91.81	0
3	43963	91.91	0
3	44013	92.01	0
3	44061	92.11	0
3	44109	92.21	0
3	44157	92.31	0
3	44205	92.41	0
3	44253	92.51	0
3	44301	92.61	0
3	44349	92.71	0
3	44397	92.81	0
3	44445	92.91	0
3	44495	93.01	0
3	44543	93.11	0
3	44591	93.21	0
3	44639	93.31	0
3	44687	93.41	0
3	44735	93.51	0
3	44783	93.61	0
3	44831	93.71	0
3	44879	93.81	0
3	44927	93.91	0
3	44977	94.01	0
3	45025	94.11	0
3	45073	94.21	0
3	45121	94.31	0
3	45169	94.41	0
3	45217	94.51	0
3	45265	94.61	0
3	45313	94.71	0
3	45361	94.81	0
3	45409	94.91	0
3	45459	95.01	0
3	45507	95.11	0
3	45555	95.21	0
3	45603	95.31	0
3	45651	95.41	0
3	45699	95.51	0
3	45747	95.61	0
3	45795	95.71	0
3	45843	95.81	0
3	45891	95.91	0
3	45941	96.01	0
3	45989	96.11	0
3	46037	96.21	0
3	46085	96.31	0
3	46133	96.41	0
3	46181	96.51	0
3	46229	96.61	0
3	46277	96.71	0
3	46325	96.81	0
3	46373	96.91	0
3	46423	97.01	0
3	46471	97.11	0
3	46519	97.21	0
3	46567	97.31	0
3	46615	97.41	0
3	46663	97.51	0
3	46711	97.61	0
3	46759	97.71	0
3	46807	97.81	0
3	46855	97.91	0
3	46905	98.01	0
3	46953	98.11	0
3	47001	98.21	0
3	47049	98.31	0
3	47097	98.41	0
3	47145	98.51	0
3	47193	98.61	0
3	47241	98.71	0
3	47289	98.81	0
3	47337	98.91	0
3	47387	99.01	-0.0629665
3	47435	99.11	-0.12723
3	47483	99.21	-0.177135
3	47531	99.31	-0.214403
3	47579	99.41	-0.24065
3	47627	99.51	-0.257383
3	47675	99.61	-0.265993
3	47723	99.71	-0.267757
3	47771	99.81	-0.263835
3	47819	99.91	-0.255275
4	113	1.11	-0.00437036
4	161	1.21	-0.00426837
4	209	1.31	-0.00410815
4	257	1.41	-0.00390303
4	305	1.51	-0.00366476
4	353	1.61	-0.00340356
4	401	1.71	-0.00312825
4	449	1.81	-0.00284628
4	497	1.91	-0.00256392
4	547	2.01	-0.0022863
4	595	2.11	-0.00201755
4	643	2.21	-0.00176089
4	691	2.31	-0.00151876
4	739	2.41	-0.00129289
4	787	2.51	-0.00108441
4	835	2.61	-0.00089393
4	883	2.71	-0.000721638
4	931	2.81	-0.000567355
4	979	2.91	-0.000430614
4	1029	3.01	-0.000310715
4	1077	3.11	-0.000206783
4	1125	3.21	-0.000117814
4	1173	3.31	-4.27149e-05
4	1221	3.41	1.96584e-05
4	1269	3.51	7.04736e-05
4	1317	3.61	0.000110896
4	1365	3.71	0.000142067
4	1413	3.81	0.00016509
4	1461	3.91	0.000181016
4	1511	4.01	0.000190834
4	1559	4.11	0.000195466
4	1607	4.21	0.00019576
4	1655	4.31	0.000192489
4	1703	4.41	0.000186354
4	1751	4.51	0.000177979
4	1799	4.61	0.000167916
4	1847	4.71	0.000156649
4	1895	4.81	0.000144597
4	1943	4.91	0.000132116
4	1993	5.01	0.000119508
4	2041	5.11	0.000107021
4	2089	5.21	9.48587e-05
4	2137	5.31	8.31796e-05
4	2185	5.41	7.21068e-05
4	2233	5.51	6.17299e-05
4	2281	5.61	5.21101e-05
4	2329	5.71	4.32839e-05
4	2377	5.81	3.52669e-05
4	2425	5.91	2.80577e-05
4	2475	6.01	2.16404e-05
4	2523	6.11	1.59878e-05
4	2571	6.21	1.1064e-05
4	2619	6.31	6.82631e-06
4	2667	6.41	3.22748e-06
4	2715	6.51	2.17307e-07
4	2763	6.61	-2.25598e-06
4	2811	6.71	-4.24448e-06
4	2859	6.81	-5.79961e-06
4	2907	6.91	-6.97134e-06
4	2957	7.01	-7.80753e-06
4	3005	7.11	-8.35346e-06
4	3053	7.21	-8.65149e-06
4	3101	7.31	-8.7408e-06
4	3149	7.41	-8.6573e-06
4	3197	7.51	-8.43352e-06
4	3245	7.61	-8.09868e-06
4	3293	7.71	-7.67874e-06
4	3341	7.81	-7.19651e-06
4	3389	7.91	-6.67185e-06
4	3439	8.01	-6.12177e-06
4	3487	8.11	-5.56072e-06
4	3535	8.21	-5.00073e-06
4	3583	8.31	-4.45164e-06
4	3631	8.41	-3.92136e-06
4	3679	8.51	-3.41601e-06
4	3727	8.61	-2.94018e-06
4	3775	8.71	-2.4971e-06
4	3823	8.81	-2.08883e-06
4	3871	8.91	-1.71644e-06
4	3921	9.01	-1.38016e-06
4	3969	9.11	-1.07955e-06
4	4017	9.21	-8.13576e-07
4	4065	9.31	-5.80794e-07
4	4113	9.41	-3.79414e-07
4	4161	9.51	-2.07408e-07
4	4209	9.61	-6.25825e-08
4	4257	9.71	5.73472e-08
4	4305	9.81	1.54703e-07
4	4353	9.91	2.31794e-07
4	4489	10.01	2.90877e-07
4	4537	10.11	3.3413e-07
4	4585	10.21	3.63618e-07
4	4633	10.31	3.81288e-07
4	4681	10.41	3.88944e-07
4	4729	10.51	3.88249e-07
4	4777	10.61	3.80715e-07
4	4825	10.71	3.67706e-07
4	4873	10.81	3.50439e-07
4	4921	10.91	3.29989e-07
4	4971	11.01	3.07294e-07
4	5019	11.11	2.83164e-07
4	5067	11.21	2.58291e-07
4	5115	11.31	2.33253e-07
4	5163	11.41	2.0853e-07
4	5211	11.51	1.84509e-07
4	5259	11.61	1.61493e-07
4	5307	11.71	1.39716e-07
4	5355	11.81	1.19345e-07
4	5403	11.91	1.00493e-07
4	5453	12.01	8.32259e-08
4	5501	12.11	6.75676e-08
4	5549	12.21	5.35106e-08
4	5597	12.31	4.10193e-08
4	5645	12.41	3.00361e-08
4	5693	12.51	2.04874e-08
4	5741	12.61	1.22867e-08
4	5789	12.71	5.33902e-09
4	5837	12.81	-4.56524e-10
4	5885	12.91	-5.20259e-09
4	5935	13.01	-9.00258e-09
4	5983	13.11	-1.19588e-08
4	6031	13.21	-1.41693e-08
4	6079	13.31	-1.57286e-08
4	6127	13.41	-1.67255e-08
4	6175	13.51	-1.72435e-08
4	6223	13.61	-1.73589e-08
4	6271	13.71	-1.71426e-08
4	6319	13.81	-1.66573e-08
4	6367	13.91	-1.59606e-08
4	6417	14.01	-1.51029e-08
4	6465	14.11	-1.41284e-08
4	6513	14.21	-1.30754e-08
4	6561	14.31	-1.19773e-08
4	6609	14.41	-1.08614e-08
4	6657	14.51	-9.75113e-09
4	6705	14.61	-8.66542e-09
4	6753	14.71	-7.61951e-09
4	6801	14.81	-6.62475e-09
4	6849	14.91	-5.69003e-09
4	6899	15.01	-4.82103e-09
4	6947	15.11	-4.02167e-09
4	6995	15.21	-3.29372e-09
4	7043	15.31	-2.63753e-09
4	7091	15.41	-2.05205e-09
4	7139	15.51	-1.53477e-09
4	7187	15.61	-1.08287e-09
4	7235	15.71	-6.92779e-10
4	7283	15.81	-3.606e-10
4	7331	15.91	-8.13571e-11
4	7381	16.01	1.49214e-10
4	7429	16.11	3.35731e-10
4	7477	16.21	4.82459e-10
4	7525	16.31	5.94369e-10
4	7573	16.41	6.75726e-10
4	7621	16.51	7.30083e-10
4	7669	16.61	7.61702e-10
4	7717	16.71	7.73781e-10
4	7765	16.81	7.70228e-10
4	7813	16.91	7.53175e-10
4	7863	17.01	7.25819e-10
4	7911	17.11	6.90292e-10
4	7959	17.21	6.48726e-10
4	8007	17.31	6.03251e-10
4	8055	17.41	5.54934e-10
4	8103	17.51	5.05196e-10
4	8151	17.61	4.55458e-10
4	8199	17.71	4.0643e-10
4	8247	17.81	3.58824e-10
4	8295	17.91	3.13349e-10
4	8345	18.01	2.70717e-10
4	8393	18.11	2.30571e-10
4	8441	18.21	1.93623e-10
4	8489	18.31	1.59872e-10
4	8537	18.41	1.29319e-10
4	8585	18.51	1.01963e-10
4	8633	18.61	7.78044e-11
4	8681	18.71	5.64881e-11
4	8729	18.81	3.8014e-11
4	8777	18.91	2.20268e-11
4	8827	19.01	8.88178e-12
4	8875	19.11	-2.4869e-12
4	8923	19.21	-1.13687e-11
4	8971	19.31	-1.88294e-11
4	9019	19.41	-2.45137e-11
4	9067	19.51	-2.8777e-11
4	9115	19.61	-3.16192e-11
4	9163	19.71	-3.33955e-11
4	9211	19.81	-3.44613e-11
4	9259	19.91	-3.44613e-11
4	9309	20.01	-3.41061e-11
4	9357	20.11	-3.30402e-11
4	9405	20.21	-3.16192e-11
4	9453	20.31	-3.01981e-11
4	9501	20.41	-2.80664e-11
4	9549	20.51	-2.59348e-11
4	9597	20.61	-2.41585e-11
4	9645	20.71	-2.20268e-11
4	9693	20.81	-1.98952e-11
4	9741	20.91	-1.77636e-11
4	9791	21.01	-1.59872e-11
4	9839	21.11	-1.38556e-11
4	9887	21.21	-1.1724e-11
4	9935	21.31	-9.9476e-12
4	9983	21.41	-8.17124e-12
4	10031	21.51	-6.39488e-12
4	10079	21.61	-4.9738e-12
4	10127	21.71	-3.55271e-12
4	10175	21.81	-2.4869e-12
4	10223	21.91	-1.42109e-12
4	10273	22.01	-3.55271e-13
4	10321	22.11	3.55271e-13
4	10369	22.21	1.42109e-12
4	10417	22.31	2.13163e-12
4	10465	22.41	2.84217e-12
4	10513	22.51	3.19744e-12
4	10561	22.61	3.90799e-12
4	10609	22.71	4.26326e-12
4	10657	22.81	4.61853e-12
4	10705	22.91	4.9738e-12
4	10755	23.01	5.32907e-12
4	10803	23.11	5.68434e-12
4	10851	23.21	6.03961e-12
4	10899	23.31	6.39488e-12
4	10947	23.41	6.75016e-12
4	10995	23.51	6.75016e-12
4	11043	23.61	7.10543e-12
4	11091	23.71	7.10543e-12
4	11139	23.81	7.4607e-12
4	11187	23.91	7.4607e-12
4	11237	24.01	7.81597e-12
4	11285	24.11	7.81597e-12
4	11333	24.21	7.81597e-12
4	11381	24.31	7.81597e-12
4	11429	24.41	8.17124e-12
4	11477	24.51	8.17124e-12
4	11525	24.61	8.17124e-12
4	11573	24.71	8.17124e-12
4	11621	24.81	8.17124e-12
4	11669	24.91	8.52651e-12
4	11719	25.01	8.52651e-12
4	11767	25.11	8.52651e-12
4	11815	25.21	8.52651e-12
4	11863	25.31	8.52651e-12
4	11911	25.41	8.52651e-12
4	11959	25.51	8.52651e-12
4	12007	25.61	8.52651e-12
4	12055	25.71	8.52651e-12
4	12103	25.81	8.52651e-12
4	12151	25.91	8.88178e-12
4	12201	26.01	8.88178e-12
4	12249	26.11	8.88178e-12
4	12297	26.21	8.88178e-12
4	12345	26.31	8.88178e-12
4	12393	26.41	8.88178e-12
4	12441	26.51	8.88178e-12
4	12489	26.61	8.88178e-12
4	12537	26.71	8.88178e-12
4	12585	26.81	8.88178e-12
4	12633	26.91	8.88178e-12
4	12683	27.01	8.88178e-12
4	12731	27.11	8.88178e-12
4	12779	27.21	8.88178e-12
4	12827	27.31	8.88178e-12
4	12875	27.41	8.88178e-12
4	12923	27.51	8.88178e-12
4	12971	27.61	8.88178e-12
4	13019	27.71	8.88178e-12
4	13067	27.81	8.88178e-12
4	13115	27.91	8.88178e-12
4	13165	28.01	8.88178e-12
4	13213	28.11	8.88178e-12
4	13261	28.21	8.88178e-12
4	13309	28.31	8.88178e-12
4	13357	28.41	8.88178e-12
4	13405	28.51	8.88178e-12
4	13453	28.61	8.88178e-12
4	13501	28.71	8.88178e-12
4	13549	28.81	8.88178e-12
4	13597	28.91	8.88178e-12
4	13647	29.01	8.88178e-12
4	13695	29.11	8.88178e-12
4	13743	29.21	8.88178e-12
[...]
19	28871	60.560289787176	1
19	28919	60.66028689633	1
19	28967	60.760284005774	1
19	29015	60.860281115508	1
19	29063	60.960291225533	1
19	29113	61.060288335848	1
19	29161	61.160285446454	1
19	29209	61.26028255735	1
19	29257	61.360279668537	1
19	29305	61.460289780015	1
19	29353	61.560286891783	1
19	29401	61.660284003842	1
19	29449	61.760281116192	1
19	29497	61.860291228832	1
19	29545	61.960288341763	1
19	29595	62.060285454985	1
19	29643	62.160282568498	1
19	29691	62.260279682302	1
19	29739	62.360289796396	1
19	29787	62.460286910782	1
19	29835	62.560284025458	1
19	29883	62.660281140426	1
19	29931	62.760291255684	1
19	29979	62.860288371234	1
19	30027	62.960285487074	1
19	30077	63.060282603206	1
19	30125	63.160279719629	1
19	30173	63.260289836343	1
19	30221	63.360286953348	1
19	30269	63.460284070644	1
19	30317	63.560281188232	1
19	30365	63.66029130611	1
19	30413	63.76028842428	1
19	30461	63.860285542741	1
19	30509	63.960282661493	1
19	30559	64.060279780537	1
19	30607	64.160289899872	1
19	30655	64.260287019498	1
19	30703	64.360284139416	1
19	30751	64.460281259626	1
19	30799	64.560291380127	1
19	30847	64.660288500919	1
19	30895	64.760285622003	1
19	30943	64.860282743379	1
19	30991	64.960279865046	1
19	31041	65.060289987004	1
19	31089	65.160287109254	1
19	31137	65.260284231796	1
19	31185	65.36028135463	1
19	31233	65.460291477756	1
19	31281	65.560288601173	1
19	31329	65.660285724881	1
19	31377	65.760282848881	1
19	31425	65.860279973173	1
19	31473	65.960290097757	1
19	31523	66.060287222633	1
19	31571	66.160284347801	1
19	31619	66.260281473261	1
19	31667	66.360291599013	1
19	31715	66.460288725057	1
19	31763	66.560285851393	1
19	31811	66.66028297802	1
19	31859	66.760280104939	1
19	31907	66.86029023215	1
19	31955	66.960287359653	1
19	32005	67.060284487448	1
19	32053	67.160281615536	1
19	32101	67.260278743916	1
19	32149	67.360288872588	1
19	32197	67.460286001552	1
19	32245	67.560283130808	1
19	32293	67.660280260356	1
19	32341	67.760290390196	1
19	32389	67.860287520328	1
19	32437	67.960284650752	1
19	32487	68.060281781468	1
19	32535	68.160278912476	1
19	32583	68.260289043777	1
19	32631	68.360286175371	1
19	32679	68.460283307257	1
19	32727	68.560280439435	1
19	32775	68.660290571905	1
19	32823	68.760287704667	1
19	32871	68.860284837722	1
19	32919	68.96028197107	1
19	32969	69.06027910471	1
19	33017	69.160289238642	1
19	33065	69.260286372866	1
19	33113	69.360283507384	1
19	33161	69.460280642194	1
19	33209	69.560290777296	1
19	33257	69.66028791269	1
19	33305	69.760285048378	1
19	33353	69.860282184358	1
19	33401	69.96027932063	1
19	33451	70.060289457195	1
19	33499	70.160286594053	1
19	33547	70.260283731203	1
19	33595	70.360280868645	1
19	33643	70.460291006381	1
19	33691	70.560288144409	1
19	33739	70.660285282729	1
19	33787	70.760282421343	1
19	33835	70.860279560249	1
19	33883	70.960289699448	1
19	33933	71.06028683894	1
19	33981	71.160283978724	1
19	34029	71.260281118802	1
19	34077	71.360291259172	1
19	34125	71.460288399834	1
19	34173	71.56028554079	1
19	34221	71.660282682038	1
19	34269	71.76027982358	1
19	34317	71.860289965414	1
19	34365	71.960287107542	1
19	34415	72.060284249962	1
19	34463	72.160281392675	1
19	34511	72.260291535681	1
19	34559	72.360288678979	1
19	34607	72.460285822571	1
19	34655	72.560282966455	1
19	34703	72.660280110633	1
19	34751	72.760290255103	1
19	34799	72.860287399867	1
19	34847	72.960284544923	1
19	34897	73.060281690273	1
19	34945	73.160278835915	1
19	34993	73.260288981851	1
19	35041	73.360286128081	1
19	35089	73.460283274603	1
19	35137	73.560280421419	1
19	35185	73.660290568527	1
19	35233	73.760287715929	1
19	35281	73.860284863623	1
19	35329	73.960282011611	1
19	35379	74.060279159893	1
19	35427	74.160289308467	1
19	35475	74.260286457335	1
19	35523	74.360283606495	1
19	35571	74.460280755949	1
19	35619	74.560290905697	1
19	35667	74.660288055737	1
19	35715	74.760285206071	1
19	35763	74.860282356697	1
19	35811	74.960279507617	1
19	35861	75.060289658831	1
19	35909	75.160286810337	1
19	35957	75.260283962137	1
19	36005	75.360281114231	1
19	36053	75.460291266617	1
19	36101	75.560288419297	1
19	36149	75.660285572271	1
19	36197	75.760282725539	1
19	36245	75.860279879099	1
19	36293	75.960290032953	1
19	36343	76.060287187101	1
19	36391	76.160284341541	1
19	36439	76.260281496275	1
19	36487	76.360278651303	1
19	36535	76.460288806625	1
19	36583	76.560285962239	1
19	36631	76.660283118147	1
19	36679	76.760280274349	1
19	36727	76.860290430845	1
19	36775	76.960287587633	1
19	36825	77.060284744715	1
19	36873	77.160281902091	1
19	36921	77.260279059761	1
19	36969	77.360289217723	1
19	37017	77.460286375979	1
19	37065	77.560283534529	1
19	37113	77.660280693373	1
19	37161	77.760290852511	1
19	37209	77.860288011941	1
19	37257	77.960285171665	1
19	37307	78.060282331683	1
19	37355	78.160279491995	1
19	37403	78.260289652601	1
19	37451	78.360286813501	1
19	37499	78.460283974693	1
19	37547	78.560281136179	1
19	37595	78.660291297959	1
19	37643	78.760288460033	1
19	37691	78.860285622401	1
19	37739	78.960282785063	1
19	37789	79.060279948019	1
19	37837	79.160290111268	1
19	37885	79.26028727481	1
19	37933	79.360284438646	1
19	37981	79.460281602776	1
19	38029	79.5602787672	1
19	38077	79.660288931918	1
19	38125	79.76028609693	1
19	38173	79.860283262236	1
19	38221	79.960280427836	1
19	38271	80.06029059373	1
19	38319	80.160287759917	1
19	38367	80.260284926398	1
19	38415	80.360282093172	1
19	38463	80.46027926024	1
19	38511	80.560289427602	1
19	38559	80.660286595258	1
19	38607	80.760283763208	1
19	38655	80.860280931452	1
19	38703	80.96029109999	1
19	38753	81.060288268822	1
19	38801	81.160285437948	1
19	38849	81.260282607368	1
19	38897	81.360279777082	1
19	38945	81.46028994709	1
19	38993	81.560287117392	1
19	39041	81.660284287988	1
19	39089	81.760281458878	1
19	39137	81.860291630062	1
19	39185	81.96028880154	1
19	39235	82.060285973312	1
19	39283	82.160283145378	1
19	39331	82.260280317738	1
19	39379	82.360290490392	1
19	39427	82.46028766334	1
19	39475	82.560284836582	1
19	39523	82.660282010118	1
19	39571	82.760279183948	1
19	39619	82.860289358072	1
19	39667	82.96028653249	1
19	39717	83.060283707202	1
19	39765	83.160280882208	1
19	39813	83.260291057509	1
19	39861	83.360288233104	1
19	39909	83.460285408994	1
19	39957	83.560282585178	1
19	40005	83.660279761656	1
19	40053	83.760289938428	1
19	40101	83.860287115494	1
19	40149	83.960284292854	1
19	40199	84.060281470508	1
19	40247	84.160291648456	1
19	40295	84.260288826698	1
19	40343	84.360286005234	1
19	40391	84.460283184065	1
19	40439	84.560280363191	1
19	40487	84.660290542611	1
19	40535	84.760287722325	1
19	40583	84.860284902333	1
19	40631	84.960282082635	1
19	40681	85.060279263231	1
19	40729	85.160289444121	1
19	40777	85.260286625306	1
19	40825	85.360283806786	1
19	40873	85.46028098856	1
19	40921	85.560291170628	1
19	40969	85.66028835299	1
19	41017	85.760285535646	1
19	41065	85.860282718596	1
19	41113	85.960279901841	1
19	41163	86.060290085381	1
19	41211	86.160287269215	1
19	41259	86.260284453343	1
19	41307	86.360281637765	1
19	41355	86.460278822481	1
19	41403	86.560289007492	1
19	41451	86.660286192798	1
19	41499	86.760283378398	1
19	41547	86.860280564292	1
19	41595	86.96029075048	1
19	41645	87.060287936963	1
19	41693	87.160285123741	1
19	41741	87.260282310813	1
19	41789	87.360279498179	1
19	41837	87.460289685839	1
19	41885	87.560286873794	1
19	41933	87.660284062044	1
19	41981	87.760281250588	1
19	42029	87.860291439426	1
19	42077	87.960288628559	1
19	42127	88.060285817987	1
19	42175	88.160283007709	1
19	42223	88.260280197725	1
19	42271	88.360290388035	1
19	42319	88.460287578641	1
19	42367	88.560284769541	1
19	42415	88.660281960735	1
19	42463	88.760279152223	1
19	42511	88.860289344007	1
19	42559	88.960286536085	1
19	42609	89.060283728457	1
19	42657	89.160280921123	1
19	42705	89.260291114085	1
19	42753	89.360288307341	1
19	42801	89.460285500891	1
19	42849	89.560282694736	1
19	42897	89.660279888876	1
19	42945	89.76029008331	1
19	42993	89.860287278038	1
19	43041	89.960284473062	1
19	43091	90.06028166838	1
19	43139	90.160278863992	1
19	43187	90.260289059899	1
19	43235	90.360286256101	1
19	43283	90.460283452597	1
19	43331	90.560280649387	1
19	43379	90.660290846473	1
19	43427	90.760288043853	1
19	43475	90.860285241527	1
19	43523	90.960282439497	1
19	43573	91.060279637761	1
19	43621	91.160289836319	1
19	43669	91.260287035173	1
19	43717	91.360284234321	1
19	43765	91.460281433763	1
19	43813	91.5602916335	1
19	43861	91.660288833532	1
19	43909	91.760286033858	1
19	43957	91.860283234479	1
19	44005	91.960280435395	1
19	44055	92.060290636605	1
19	44103	92.160287838111	1
19	44151	92.260285039911	1
19	44199	92.360282242005	1
19	44247	92.460279444395	1
19	44295	92.560289647079	1
19	44343	92.660286850058	1
19	44391	92.760284053332	1
19	44439	92.8602812569	1
19	44487	92.960291460763	1
19	44537	93.060288664921	1
19	44585	93.160285869373	1
19	44633	93.260283074121	1
19	44681	93.360280279163	1
19	44729	93.460290484499	1
19	44777	93.560287690131	1
19	44825	93.660284896057	1
19	44873	93.760282102278	1
19	44921	93.860279308794	1
19	44969	93.960289515604	1
19	45019	94.06028672271	1
19	45067	94.16028393011	1
19	45115	94.260281137805	1
19	45163	94.360291345795	1
19	45211	94.460288554079	1
19	45259	94.560285762659	1
19	45307	94.660282971533	1
19	45355	94.760280180702	1
19	45403	94.860290390166	1
19	45451	94.960287599924	1
19	45501	95.060284809978	1
19	45549	95.160282020326	1
19	45597	95.26027923097	1
19	45645	95.360289441908	1
19	45693	95.460286653141	1
19	45741	95.560283864669	1
19	45789	95.660281076491	1
19	45837	95.760291288609	1
19	45885	95.860288501021	1
19	45933	95.960285713729	1
19	45983	96.060282926731	1
19	46031	96.160280140028	1
19	46079	96.26029035362	1
19	46127	96.360287567507	1
19	46175	96.460284781689	1
19	46223	96.560281996165	1
19	46271	96.660279210937	1
19	46319	96.760289426003	1
19	46367	96.860286641365	1
19	46415	96.960283857021	1
19	46465	97.060281072973	1
19	46513	97.160291289219	1
19	46561	97.26028850576	1
19	46609	97.360285722596	1
19	46657	97.460282939727	1
19	46705	97.560280157153	1
19	46753	97.660290374874	1
19	46801	97.76028759289	1
19	46849	97.860284811201	1
19	46897	97.960282029807	1
19	46947	98.060279248707	1
19	46995	98.160289467903	1
19	47043	98.260286687393	1
19	47091	98.360283907179	1
19	47139	98.460281127259	1
19	47187	98.560291347635	1
19	47235	98.660288568305	1
19	47283	98.760285789271	1
19	47331	98.860283010531	1
19	47379	98.96028023099	1
19	47429	99.060290451747	1
19	47477	99.160287672808	1
19	47525	99.260284894184	1
19	47573	99.360282115886	1
19	47621	99.460279337929	1
19	47669	99.56028956033	1
19	47717	99.660286783107	1
19	47765	99.760284006278	1
19	47813	99.860281229859	1
19	47861	99.960291453869	1
20	544	2	0
20	1026	3	0
20	1508	4	0
20	1990	5	0
20	2472	6	0
20	2954	7	0
20	3436	8	0
20	3918	9	0
20	4401	10	0
20	4968	11	0
20	5450	12	0
20	5932	13	0
20	6414	14	0
20	6896	15	0
20	7378	16	0
20	7860	17	0
20	8342	18	0
20	8824	19	0
20	9306	20	0
20	9788	21	0
20	10270	22	0
20	10752	23	0
20	11234	24	0
20	11716	25	0
20	12198	26	0
20	12680	27	0
20	13162	28	0
20	13644	29	0
20	14126	30	0
20	14608	31	0
20	15090	32	0
20	15572	33	0
20	16054	34	0
20	16536	35	0
20	17018	36	0
20	17500	37	0
20	17982	38	0
20	18464	39	0
20	18946	40	0
20	19428	41	0
20	19910	42	0
20	20392	43	0
20	20874	44	0
20	21356	45	0
20	21838	46	0
20	22320	47	0
20	22802	48	0
20	23284	49	0
20	23766	50	0
20	24248	51	0
20	24730	52	0
20	25212	53	0
20	25694	54	0
20	26176	55	0
20	26658	56	0
20	27140	57	0
20	27622	58	0
20	28104	59	0
20	28586	60	0
20	29068	61	0
20	29550	62	0
20	30032	63	0
20	30514	64	0
20	30996	65	0
20	31478	66	0
20	31960	67	0
20	32442	68	0
20	32924	69	0
20	33406	70	0
20	33888	71	0
20	34370	72	0
20	34852	73	0
20	35334	74	0
20	35816	75	0
20	36298	76	0
20	36780	77	0
20	37262	78	0
20	37744	79	0
20	38226	80	0
20	38708	81	0
20	39190	82	0
20	39672	83	0
20	40154	84	0
20	40636	85	0
20	41118	86	0
20	41600	87	0
20	42082	88	0
20	42564	89	0
20	43046	90	0
20	43528	91	0
20	44010	92	0
20	44492	93	0
20	44974	94	0
20	45456	95	0
20	45938	96	0
20	46420	97	0
20	46902	98	0
20	47384	99	0
20	47866	100	0
21	544	2	0.005625
21	1026	3	0.00625
21	1508	4	0.00625
21	1990	5	0.00625
21	2472	6	0.00625
21	2954	7	0.00625
21	3436	8	0.00625
21	3918	9	0.00625
21	4401	10	0.00625
21	4968	11	0.006588040024
21	5450	12	0.00625
21	5932	13	0.00625
21	6414	14	0.00625
21	6896	15	0.00625
21	7378	16	0.00625
21	7860	17	0.00625
21	8342	18	0.00625
21	8824	19	0.00625
21	9306	20	0.00625
21	9788	21	0.00625
21	10270	22	0.00625
21	10752	23	0.00625
21	11234	24	0.00625
21	11716	25	0.00625
21	12198	26	0.00625
21	12680	27	0.00625
21	13162	28	0.00625
21	13644	29	0.00625
21	14126	30	0.00625
21	14608	31	0.00625
21	15090	32	0.00625
21	15572	33	0.00625
21	16054	34	0.00625
21	16536	35	0.00625
21	17018	36	0.00625
21	17500	37	0.00625
21	17982	38	0.00625
21	18464	39	0.00625
21	18946	40	0.00625
21	19428	41	0.00625
21	19910	42	0.00625
21	20392	43	0.00625
21	20874	44	0.00625
21	21356	45	0.00625
21	21838	46	0.00625
21	22320	47	0.00625
21	22802	48	0.00625
21	23284	49	0.00625
21	23766	50	0.00625
21	24248	51	0.00625
21	24730	52	0.00625
21	25212	53	0.00625
21	25694	54	0.00625
21	26176	55	0.00625
21	26658	56	0.00625
21	27140	57	0.00625
21	27622	58	0.00625
21	28104	59	0.00625
21	28586	60	0.00625
21	29068	61	0.00625
21	29550	62	0.00625
21	30032	63	0.00625
21	30514	64	0.00625
21	30996	65	0.00625
21	31478	66	0.00625
21	31960	67	0.00625
21	32442	68	0.00625
21	32924	69	0.00625
21	33406	70	0.00625
21	33888	71	0.00625
21	34370	72	0.00625
21	34852	73	0.00625
21	35334	74	0.00625
21	35816	75	0.00625
21	36298	76	0.00625
21	36780	77	0.00625
21	37262	78	0.00625
21	37744	79	0.00625
21	38226	80	0.00625
21	38708	81	0.00625
21	39190	82	0.00625
21	39672	83	0.00625
21	40154	84	0.00625
21	40636	85	0.00625
21	41118	86	0.00625
21	41600	87	0.00625
21	42082	88	0.00625
21	42564	89	0.00625
21	43046	90	0.00625
21	43528	91	0.00625
21	44010	92	0.00625
21	44492	93	0.00625
21	44974	94	0.00625
21	45456	95	0.00625
21	45938	96	0.00625
21	46420	97	0.00625
21	46902	98	0.00625
21	47384	99	0.00625
21	47866	100	0.00625
22	544	2	0
22	1026	3	0
22	1508	4	0
22	1990	5	0
22	2472	6	0
22	2954	7	0
22	3436	8	0
22	3918	9	0
22	4401	10	0
22	4968	11	0
22	5450	12	0
22	5932	13	0
22	6414	14	0
22	6896	15	0
22	7378	16	0
22	7860	17	0
22	8342	18	0
22	8824	19	0
22	9306	20	0
22	9788	21	0
22	10270	22	0
22	10752	23	0
22	11234	24	0
22	11716	25	0
22	12198	26	0
22	12680	27	0
22	13162	28	0
22	13644	29	0
22	14126	30	0
22	14608	31	0
22	15090	32	0
22	15572	33	0
22	16054	34	0
22	16536	35	0
22	17018	36	0
22	17500	37	0
22	17982	38	0
22	18464	39	0
22	18946	40	0
22	19428	41	0
22	19910	42	0
22	20392	43	0
22	20874	44	0
22	21356	45	0
22	21838	46	0
22	22320	47	0
22	22802	48	0
22	23284	49	0
22	23766	50	0
22	24248	51	0
22	24730	52	0
22	25212	53	0
22	25694	54	0
22	26176	55	0
22	26658	56	0
22	27140	57	0
22	27622	58	0
22	28104	59	0
22	28586	60	0
22	29068	61	0
22	29550	62	0
22	30032	63	0
22	30514	64	0
22	30996	65	0
22	31478	66	0
22	31960	67	0
22	32442	68	0
22	32924	69	0
22	33406	70	0
22	33888	71	0
22	34370	72	0
22	34852	73	0
22	35334	74	0
22	35816	75	0
22	36298	76	0
22	36780	77	0
22	37262	78	0
22	37744	79	0
22	38226	80	0
22	38708	81	0
22	39190	82	0
22	39672	83	0
22	40154	84	0
22	40636	85	0
22	41118	86	0
22	41600	87	0
22	42082	88	0
22	42564	89	0
22	43046	90	0
22	43528	91	0
22	44010	92	0
22	44492	93	0
22	44974	94	0
22	45456	95	0
22	45938	96	0
22	46420	97	0
22	46902	98	0
22	47384	99	0
22	47866	100	0
23	545	2	1
23	1027	3	1
23	1509	4	1
23	1991	5	1
23	2473	6	1
23	2955	7	1
23	3437	8	1
23	3919	9	1
23	4402	10	1
23	4969	11	1
23	5451	12	1
23	5933	13	1
23	6415	14	1
23	6897	15	1
23	7379	16	1
23	7861	17	1
23	8343	18	1
23	8825	19	1
23	9307	20	1
23	9789	21	1
23	10271	22	1
23	10753	23	1
23	11235	24	1
23	11717	25	1
23	12199	26	1
23	12681	27	1
23	13163	28	1
23	13645	29	1
23	14127	30	1
23	14609	31	1
23	15091	32	1
23	15573	33	1
23	16055	34	1
23	16537	35	1
23	17019	36	1
23	17501	37	1
23	17983	38	1
23	18465	39	1
23	18947	40	1
23	19429	41	1
23	19911	42	1
23	20393	43	1
23	20875	44	1
23	21357	45	1
23	21839	46	1
23	22321	47	1
23	22803	48	1
23	23285	49	1
23	23767	50	1
23	24249	51	1
23	24731	52	1
23	25213	53	1
23	25695	54	1
23	26177	55	1
23	26659	56	1
23	27141	57	1
23	27623	58	1
23	28105	59	1
23	28587	60	1
23	29069	61	1
23	29551	62	1
23	30033	63	1
23	30515	64	1
23	30997	65	1
23	31479	66	1
23	31961	67	1
23	32443	68	1
23	32925	69	1
23	33407	70	1
23	33889	71	1
23	34371	72	1
23	34853	73	1
23	35335	74	1
23	35817	75	1
23	36299	76	1
23	36781	77	1
23	37263	78	1
23	37745	79	1
23	38227	80	1
23	38709	81	1
23	39191	82	1
23	39673	83	1
23	40155	84	1
23	40637	85	1
23	41119	86	1
23	41601	87	1
23	42083	88	1
23	42565	89	1
23	43047	90	1
23	43529	91	1
23	44011	92	1
23	44493	93	1
23	44975	94	1
23	45457	95	1
23	45939	96	1
23	46421	97	1
23	46903	98	1
23	47385	99	1
23	47867	100	1
24	545	2	0.005625
24	1027	3	0.00625
24	1509	4	0.00625
24	1991	5	0.00625
24	2473	6	0.00625
24	2955	7	0.00625
24	3437	8	0.00625
24	3919	9	0.00625
24	4402	10	0.00625
24	4969	11	0.006587040024
24	5451	12	0.00625
24	5933	13	0.00625
24	6415	14	0.00625
24	6897	15	0.00625
24	7379	16	0.00625
24	7861	17	0.00625
24	8343	18	0.00625
24	8825	19	0.00625
24	9307	20	0.00625
24	9789	21	0.00625
24	10271	22	0.00625
24	10753	23	0.00625
24	11235	24	0.00625
24	11717	25	0.00625
24	12199	26	0.00625
24	12681	27	0.00625
24	13163	28	0.00625
24	13645	29	0.00625
24	14127	30	0.00625
24	14609	31	0.00625
24	15091	32	0.00625
24	15573	33	0.00625
24	16055	34	0.00625
24	16537	35	0.00625
24	17019	36	0.00625
24	17501	37	0.00625
24	17983	38	0.00625
24	18465	39	0.00625
24	18947	40	0.00625
24	19429	41	0.00625
24	19911	42	0.00625
24	20393	43	0.00625
24	20875	44	0.00625
24	21357	45	0.00625
24	21839	46	0.00625
24	22321	47	0.00625
24	22803	48	0.00625
24	23285	49	0.00625
24	23767	50	0.00625
24	24249	51	0.00625
24	24731	52	0.00625
24	25213	53	0.00625
24	25695	54	0.00625
24	26177	55	0.00625
24	26659	56	0.00625
24	27141	57	0.00625
24	27623	58	0.00625
24	28105	59	0.00625
24	28587	60	0.00625
24	29069	61	0.00625
24	29551	62	0.00625
24	30033	63	0.00625
24	30515	64	0.00625
24	30997	65	0.00625
24	31479	66	0.00625
24	31961	67	0.00625
24	32443	68	0.00625
24	32925	69	0.00625
24	33407	70	0.00625
24	33889	71	0.00625
24	34371	72	0.00625
24	34853	73	0.00625
24	35335	74	0.00625
24	35817	75	0.00625
24	36299	76	0.00625
24	36781	77	0.00625
24	37263	78	0.00625
24	37745	79	0.00625
24	38227	80	0.00625
24	38709	81	0.00625
24	39191	82	0.00625
24	39673	83	0.00625
24	40155	84	0.00625
24	40637	85	0.00625
24	41119	86	0.00625
24	41601	87	0.00625
24	42083	88	0.00625
24	42565	89	0.00625
24	43047	90	0.00625
24	43529	91	0.00625
24	44011	92	0.00625
24	44493	93	0.00625
24	44975	94	0.00625
24	45457	95	0.00625
24	45939	96	0.00625
24	46421	97	0.00625
24	46903	98	0.00625
24	47385	99	0.00625
24	47867	100	0.00625
25	545	2	0
25	1027	3	0
25	1509	4	0
25	1991	5	0
25	2473	6	0
25	2955	7	0
25	3437	8	0
25	3919	9	0
25	4402	10	0
25	4969	11	0
25	5451	12	0
25	5933	13	0
25	6415	14	0
25	6897	15	0
25	7379	16	0
25	7861	17	0
25	8343	18	0
25	8825	19	0
25	9307	20	0
25	9789	21	0
25	10271	22	0
25	10753	23	0
25	11235	24	0
25	11717	25	0
25	12199	26	0
25	12681	27	0
25	13163	28	0
25	13645	29	0
25	14127	30	0
25	14609	31	0
25	15091	32	0
25	15573	33	0
25	16055	34	0
25	16537	35	0
25	17019	36	0
25	17501	37	0
25	17983	38	0
25	18465	39	0
25	18947	40	0
25	19429	41	0
25	19911	42	0
25	20393	43	0
25	20875	44	0
25	21357	45	0
25	21839	46	0
25	22321	47	0
25	22803	48	0
25	23285	49	0
25	23767	50	0
25	24249	51	0
25	24731	52	0
25	25213	53	0
25	25695	54	0
25	26177	55	0
25	26659	56	0
25	27141	57	0
25	27623	58	0
25	28105	59	0
25	28587	60	0
25	29069	61	0
25	29551	62	0
25	30033	63	0
25	30515	64	0
25	30997	65	0
25	31479	66	0
25	31961	67	0
25	32443	68	0
25	32925	69	0
25	33407	70	0
25	33889	71	0
25	34371	72	0
25	34853	73	0
25	35335	74	0
25	35817	75	0
25	36299	76	0
25	36781	77	0
25	37263	78	0
25	37745	79	0
25	38227	80	0
25	38709	81	0
25	39191	82	0
25	39673	83	0
25	40155	84	0
25	40637	85	0
25	41119	86	0
25	41601	87	0
25	42083	88	0
25	42565	89	0
25	43047	90	0
25	43529	91	0
25	44011	92	0
25	44493	93	0
25	44975	94	0
25	45457	95	0
25	45939	96	0
25	46421	97	0
25	46903	98	0
25	47385	99	0
25	47867	100	0

