version 3
run BreakRanksNoGui-804-20240710-17:47:56-276448
attr configname BreakRanksNoGui
attr datetime 20240710-17:47:56
attr datetimef 20240710-174756
attr experiment BreakRanksNoGui
attr inifile omnetpp.ini
attr iterationvars "$nCars=6, $platoonSize=6, $nLanes=1, $ploegH=0.5, $controller=1, $headway=0.1, $leaderHeadway=1.2, $leaderSpeed=130, $breakRanksSafetyDistance=2, $minSpeed=120, $maxSpeed=140, $beaconInterval=0.1, $priority=4, $packetSize=200, $sController=\"CACC\", $0=2, $1=0"
attr iterationvarsd nCars=6/platoonSize=6/nLanes=1/ploegH=0.5/controller=1/headway=0.1/leaderHeadway=1.2/leaderSpeed=130/breakRanksSafetyDistance=2/minSpeed=120/maxSpeed=140/beaconInterval=0.1/priority=4/packetSize=200/sController=CACC/2/0
attr iterationvarsf nCars=6,platoonSize=6,nLanes=1,ploegH=0.5,controller=1,headway=0.1,leaderHeadway=1.2,leaderSpeed=130,breakRanksSafetyDistance=2,minSpeed=120,maxSpeed=140,beaconInterval=0.1,priority=4,packetSize=200,sController=CACC,2,0-
attr measurement "$nCars=6, $platoonSize=6, $nLanes=1, $ploegH=0.5, $controller=1, $headway=0.1, $leaderHeadway=1.2, $leaderSpeed=130, $breakRanksSafetyDistance=2, $minSpeed=120, $maxSpeed=140, $beaconInterval=0.1, $priority=4, $packetSize=200, $sController=\"CACC\", $0=2, $1=0"
attr network Highway
attr processid 276448
attr repetition 4
attr replication #4
attr resultdir results
attr runnumber 804
attr seedset 4
itervar beaconInterval 0.1
itervar breakRanksSafetyDistance 2
itervar controller 1
itervar headway 0.1
itervar leaderHeadway 1.2
itervar leaderSpeed 130
itervar maxSpeed 140
itervar minSpeed 120
itervar nCars 6
itervar nLanes 1
itervar packetSize 200
itervar platoonSize 6
itervar ploegH 0.5
itervar priority 4
itervar sController "\"CACC\""
config image-path ../../../veins/images
config repeat 10
config extends BreakRanks
config *.manager.command "\"sumo\""
config *.manager.ignoreGuiCommands true
config output-vector-file "results/BreakRanks_1_0.1_130_2_6 /result_4.vec"
config output-scalar-file "results/BreakRanks_1_0.1_130_2_6 /result_4.sca"
config extends Platooning
config *.node[*].scenario_type "\"BreakRanksScenario\""
config *.manager.command "\"sumo-gui\""
config *.node[*].scenario_type "\"SimpleScenario\""
config cmdenv-express-mode true
config cmdenv-autoflush true
config cmdenv-status-frequency 15s
config num-rngs 6
config network Highway
config debug-on-errors true
config print-undisposed true
config *.playgroundSizeX 65000m
config *.playgroundSizeY 25000m
config *.playgroundSizeZ 50m
config sim-time-limit "100 s"
config *.annotations.draw false
config *.obstacles.debug false
config *.world.useTorus false
config *.world.use2D false
config *.manager.updateInterval 0.01s
config *.manager.host "\"localhost\""
config *.manager.moduleType "\"org.car2x.plexe.PlatoonCar\""
config *.manager.moduleName "\"node\""
config *.manager.moduleDisplayString "\"\""
config *.manager.autoShutdown true
config *.manager.margin 25
config *.connectionManager.sendDirect true
config *.connectionManager.maxInterfDist 2600m
config *.connectionManager.drawMaxIntfDist false
config *.**.nic.mac1609_4.useServiceChannel false
config *.**.nic.mac1609_4.txPower 100mW
config *.**.nic.mac1609_4.bitrate 6Mbps
config *.**.nic.mac1609_4.useAcks true
config *.**.nic.mac1609_4.ackErrorRate 0.0
config *.**.nic.mac1609_4.frameErrorRate 0.0
config *.**.nic.phy80211p.minPowerLevel -94dBm
config *.**.nic.phy80211p.maxTXPower 100mW
config *.**.nic.phy80211p.useNoiseFloor true
config *.**.nic.phy80211p.noiseFloor -95dBm
config *.**.nic.phy80211p.decider "xmldoc(\"config.xml\")"
config *.**.nic.phy80211p.analogueModels "xmldoc(\"config.xml\")"
config *.**.nic.phy80211p.usePropagationDelay true
config *.node[*].mobility.x 0
config *.node[*].mobility.y 0
config *.node[*].mobility.z 1.895
config seed-set 4
config **.seed 4
config *.node[*].prot.rng-0 2
config *.node[*].appl.rng-0 3
config *.node[*].scenario.rng-0 4
config **.traffic.rng-0 5
config *.manager.configFile "\"./sumocfg/freeway.sumo.cfg\""
config *.manager.launchConfig "xmldoc(\"./sumocfg/freeway.launchd.xml\")"
config **.numberOfCars 6
config **.numberOfCarsPerPlatoon 6
config **.numberOfLanes 1
config *.node[*].helper_type "\"PositionHelper\""
config *.node[*].scenario.caccC1 0.5
config *.node[*].scenario.caccXi 1
config *.node[*].scenario.caccOmegaN "0.2 Hz"
config *.node[*].scenario.caccSpacing "2 m"
config *.node[*].scenario.engineTau "0.5 s"
config *.node[*].scenario.ploegH 0.5s
config *.node[*].scenario.ploegKp 0.2
config *.node[*].scenario.ploegKd 0.7
config *.node[*].scenario.useRealisticEngine false
config *.node[*].scenario.useControllerAcceleration true
config *.node[*].scenario.nLanes 1
config **.numericController 1
config **.headway 0.1s
config *.node[*].scenario.accHeadway 0.1s
config *.node[*].scenario.leaderHeadway 1.2s
config *.node[*].scenario.leaderSpeed 130kmph
config *.node[*].appl_type "\"SimplePlatooningApp\""
config *.node[*].appl.*.scalar-recording true
config *.node[*].appl.*.vector-recording true
config *.node[0].appl.breakRanksSafetyDistance 2m
config *.node[*].appl.minSpeed 120kmph
config *.node[*].appl.maxSpeed 140kmph
config *.node[*].protocol_type "\"SimplePlatooningBeaconing\""
config *.node[*].prot.*.scalar-recording true
config *.node[*].prot.*.vector-recording true
config *.node[*].prot.beaconingInterval 0.1s
config *.node[*].prot.priority 4
config *.node[*].prot.packetSize 200
config **.traffic_type "\"PlatoonsTrafficManager\""
config **.traffic.platoonInsertTime "1 s"
config **.traffic.platoonInsertSpeed 130kmph
config **.traffic.nCars 6
config **.traffic.platoonSize 6
config **.traffic.nLanes 1
config **.traffic.platooningVType "\"vtypeauto\""
config **.traffic.controller "\"CACC\""
config **.traffic.platoonInsertDistance 2m
config **.traffic.platoonInsertHeadway 0s
config **.traffic.platoonLeaderHeadway 1.2s
config **.scalar-recording false
config **.vector-recording false

vector 0 Highway.node[0].appl distance ETV
vector 1 Highway.node[0].appl relativeSpeed ETV
vector 2 Highway.node[0].appl nodeId ETV
vector 3 Highway.node[0].appl acceleration ETV
vector 4 Highway.node[0].appl controllerAcceleration ETV
vector 5 Highway.node[0].appl speed ETV
vector 6 Highway.node[0].appl posx ETV
vector 7 Highway.node[0].appl posy ETV
vector 8 Highway.node[1].appl distance ETV
vector 9 Highway.node[1].appl relativeSpeed ETV
vector 10 Highway.node[1].appl nodeId ETV
vector 11 Highway.node[1].appl acceleration ETV
vector 12 Highway.node[1].appl controllerAcceleration ETV
vector 13 Highway.node[1].appl speed ETV
vector 14 Highway.node[1].appl posx ETV
vector 15 Highway.node[1].appl posy ETV
vector 16 Highway.node[2].appl distance ETV
vector 17 Highway.node[2].appl relativeSpeed ETV
vector 18 Highway.node[2].appl nodeId ETV
vector 19 Highway.node[2].appl acceleration ETV
vector 20 Highway.node[2].appl controllerAcceleration ETV
vector 21 Highway.node[2].appl speed ETV
vector 22 Highway.node[2].appl posx ETV
vector 23 Highway.node[2].appl posy ETV
vector 24 Highway.node[3].appl distance ETV
vector 25 Highway.node[3].appl relativeSpeed ETV
vector 26 Highway.node[3].appl nodeId ETV
vector 27 Highway.node[3].appl acceleration ETV
vector 28 Highway.node[3].appl controllerAcceleration ETV
vector 29 Highway.node[3].appl speed ETV
vector 30 Highway.node[3].appl posx ETV
vector 31 Highway.node[3].appl posy ETV
vector 32 Highway.node[4].appl distance ETV
vector 33 Highway.node[4].appl relativeSpeed ETV
vector 34 Highway.node[4].appl nodeId ETV
vector 35 Highway.node[4].appl acceleration ETV
vector 36 Highway.node[4].appl controllerAcceleration ETV
vector 37 Highway.node[4].appl speed ETV
vector 38 Highway.node[4].appl posx ETV
vector 39 Highway.node[4].appl posy ETV
vector 40 Highway.node[5].appl distance ETV
vector 41 Highway.node[5].appl relativeSpeed ETV
vector 42 Highway.node[5].appl nodeId ETV
vector 43 Highway.node[5].appl acceleration ETV
vector 44 Highway.node[5].appl controllerAcceleration ETV
vector 45 Highway.node[5].appl speed ETV
vector 46 Highway.node[5].appl posx ETV
vector 47 Highway.node[5].appl posy ETV
vector 48 Highway.node[4].prot frontDelay ETV
vector 49 Highway.node[4].prot frontDelayId ETV
vector 50 Highway.node[1].prot leaderDelay ETV
vector 51 Highway.node[1].prot leaderDelayId ETV
vector 52 Highway.node[1].prot frontDelay ETV
vector 53 Highway.node[1].prot frontDelayId ETV
vector 54 Highway.node[2].prot leaderDelay ETV
vector 55 Highway.node[2].prot leaderDelayId ETV
vector 56 Highway.node[3].prot leaderDelay ETV
vector 57 Highway.node[3].prot leaderDelayId ETV
vector 58 Highway.node[4].prot leaderDelay ETV
vector 59 Highway.node[4].prot leaderDelayId ETV
vector 60 Highway.node[5].prot leaderDelay ETV
vector 61 Highway.node[5].prot leaderDelayId ETV
vector 62 Highway.node[3].prot frontDelay ETV
vector 63 Highway.node[3].prot frontDelayId ETV
vector 64 Highway.node[2].prot frontDelay ETV
vector 65 Highway.node[2].prot frontDelayId ETV
vector 66 Highway.node[5].prot frontDelay ETV
vector 67 Highway.node[5].prot frontDelayId ETV
vector 68 Highway.node[0].prot nodeId ETV
vector 69 Highway.node[0].prot busyTime ETV
vector 70 Highway.node[0].prot collisions ETV
vector 71 Highway.node[1].prot nodeId ETV
vector 72 Highway.node[1].prot busyTime ETV
vector 73 Highway.node[1].prot collisions ETV
vector 74 Highway.node[2].prot nodeId ETV
vector 75 Highway.node[2].prot busyTime ETV
vector 76 Highway.node[2].prot collisions ETV
vector 77 Highway.node[3].prot nodeId ETV
vector 78 Highway.node[3].prot busyTime ETV
vector 79 Highway.node[3].prot collisions ETV
vector 80 Highway.node[4].prot nodeId ETV
vector 81 Highway.node[4].prot busyTime ETV
vector 82 Highway.node[4].prot collisions ETV
vector 83 Highway.node[5].prot nodeId ETV
vector 84 Highway.node[5].prot busyTime ETV
vector 85 Highway.node[5].prot collisions ETV
0	113	1.11	-1
0	429	1.21	-1
0	745	1.31	-1
0	1061	1.41	-1
0	1377	1.51	-1
0	1693	1.61	-1
0	2009	1.71	-1
0	2325	1.81	-1
0	2641	1.91	-1
0	2963	2.01	-1
0	3279	2.11	-1
0	3595	2.21	-1
0	3911	2.31	-1
0	4227	2.41	-1
0	4543	2.51	-1
0	4859	2.61	-1
0	5175	2.71	-1
0	5491	2.81	-1
0	5807	2.91	-1
0	6129	3.01	-1
0	6445	3.11	-1
0	6761	3.21	-1
0	7077	3.31	-1
0	7393	3.41	-1
0	7709	3.51	-1
0	8025	3.61	-1
0	8341	3.71	-1
0	8657	3.81	-1
0	8973	3.91	-1
0	9295	4.01	-1
0	9611	4.11	-1
0	9927	4.21	-1
0	10243	4.31	-1
0	10559	4.41	-1
0	10875	4.51	-1
0	11191	4.61	-1
0	11507	4.71	-1
0	11823	4.81	-1
0	12139	4.91	-1
0	12461	5.01	-1
0	12777	5.11	-1
0	13093	5.21	-1
0	13409	5.31	-1
0	13725	5.41	-1
0	14041	5.51	-1
0	14357	5.61	-1
0	14673	5.71	-1
0	14989	5.81	-1
0	15305	5.91	-1
0	15627	6.01	-1
0	15943	6.11	-1
0	16259	6.21	-1
0	16575	6.31	-1
0	16891	6.41	-1
0	17207	6.51	-1
0	17523	6.61	-1
0	17839	6.71	-1
0	18155	6.81	-1
0	18471	6.91	-1
0	18793	7.01	-1
0	19109	7.11	-1
0	19425	7.21	-1
0	19741	7.31	-1
0	20057	7.41	-1
0	20373	7.51	-1
0	20689	7.61	-1
0	21005	7.71	-1
0	21321	7.81	-1
0	21637	7.91	-1
0	21959	8.01	-1
0	22275	8.11	-1
0	22591	8.21	-1
0	22907	8.31	-1
0	23223	8.41	-1
0	23539	8.51	-1
0	23855	8.61	-1
0	24171	8.71	-1
0	24487	8.81	-1
0	24803	8.91	-1
0	25125	9.01	-1
0	25441	9.11	-1
0	25757	9.21	-1
0	26073	9.31	-1
0	26389	9.41	-1
0	26705	9.51	-1
0	27021	9.61	-1
0	27337	9.71	-1
0	27653	9.81	-1
0	27969	9.91	-1
0	29285	10.01	-1
0	29601	10.11	-1
0	29917	10.21	-1
0	30233	10.31	-1
0	30549	10.41	-1
0	30865	10.51	-1
0	31181	10.61	-1
0	31497	10.71	-1
0	31813	10.81	-1
0	32129	10.91	-1
0	32451	11.01	-1
0	32767	11.11	-1
0	33083	11.21	-1
0	33399	11.31	-1
0	33715	11.41	-1
0	34031	11.51	-1
0	34347	11.61	-1
0	34663	11.71	-1
0	34979	11.81	-1
0	35295	11.91	-1
0	35617	12.01	-1
0	35933	12.11	-1
0	36249	12.21	-1
0	36565	12.31	-1
0	36881	12.41	-1
0	37197	12.51	-1
0	37513	12.61	-1
0	37829	12.71	-1
0	38145	12.81	-1
0	38461	12.91	-1
0	38783	13.01	-1
0	39099	13.11	-1
0	39415	13.21	-1
0	39731	13.31	-1
0	40047	13.41	-1
0	40363	13.51	-1
0	40679	13.61	-1
0	40995	13.71	-1
0	41311	13.81	-1
0	41627	13.91	-1
0	41949	14.01	-1
0	42265	14.11	-1
0	42581	14.21	-1
0	42897	14.31	-1
0	43213	14.41	-1
0	43529	14.51	-1
0	43845	14.61	-1
0	44161	14.71	-1
0	44477	14.81	-1
0	44793	14.91	-1
0	45115	15.01	-1
0	45431	15.11	-1
0	45747	15.21	-1
0	46063	15.31	-1
0	46379	15.41	-1
0	46695	15.51	-1
0	47011	15.61	-1
0	47327	15.71	-1
0	47643	15.81	-1
0	47959	15.91	-1
0	48281	16.01	-1
0	48597	16.11	-1
0	48913	16.21	-1
0	49229	16.31	-1
0	49545	16.41	-1
0	49861	16.51	-1
0	50177	16.61	-1
0	50493	16.71	-1
0	50809	16.81	-1
0	51125	16.91	-1
0	51447	17.01	-1
0	51763	17.11	-1
0	52079	17.21	-1
0	52395	17.31	-1
0	52711	17.41	-1
0	53027	17.51	-1
0	53343	17.61	-1
0	53659	17.71	-1
0	53975	17.81	-1
0	54291	17.91	-1
0	54613	18.01	-1
0	54929	18.11	-1
0	55245	18.21	-1
0	55561	18.31	-1
0	55877	18.41	-1
0	56193	18.51	-1
0	56509	18.61	-1
0	56825	18.71	-1
0	57141	18.81	-1
0	57457	18.91	-1
0	57779	19.01	-1
0	58095	19.11	-1
0	58411	19.21	-1
0	58727	19.31	-1
0	59043	19.41	-1
0	59359	19.51	-1
0	59675	19.61	-1
0	59991	19.71	-1
0	60307	19.81	-1
0	60623	19.91	-1
0	60945	20.01	-1
0	61261	20.11	-1
0	61577	20.21	-1
0	61893	20.31	-1
0	62209	20.41	-1
0	62525	20.51	-1
0	62841	20.61	-1
0	63157	20.71	-1
0	63473	20.81	-1
0	63789	20.91	-1
0	64111	21.01	-1
0	64427	21.11	-1
0	64743	21.21	-1
0	65059	21.31	-1
0	65375	21.41	-1
0	65691	21.51	-1
0	66007	21.61	-1
0	66323	21.71	-1
0	66639	21.81	-1
0	66955	21.91	-1
0	67277	22.01	-1
0	67593	22.11	-1
0	67909	22.21	-1
0	68225	22.31	-1
0	68541	22.41	-1
0	68857	22.51	-1
0	69173	22.61	-1
0	69489	22.71	-1
0	69805	22.81	-1
0	70121	22.91	-1
0	70443	23.01	-1
0	70759	23.11	-1
0	71075	23.21	-1
0	71391	23.31	-1
0	71707	23.41	-1
0	72023	23.51	-1
0	72339	23.61	-1
0	72655	23.71	-1
0	72971	23.81	-1
0	73287	23.91	-1
0	73609	24.01	-1
0	73925	24.11	-1
0	74241	24.21	-1
0	74557	24.31	-1
0	74873	24.41	-1
0	75189	24.51	-1
0	75505	24.61	-1
0	75821	24.71	-1
0	76137	24.81	-1
0	76453	24.91	-1
0	76775	25.01	-1
0	77091	25.11	-1
0	77407	25.21	-1
0	77723	25.31	-1
0	78039	25.41	-1
0	78355	25.51	-1
0	78671	25.61	-1
0	78987	25.71	-1
0	79303	25.81	-1
0	79619	25.91	-1
0	79941	26.01	-1
0	80257	26.11	-1
0	80573	26.21	-1
0	80889	26.31	-1
0	81205	26.41	-1
0	81521	26.51	-1
0	81837	26.61	-1
0	82153	26.71	-1
0	82469	26.81	-1
0	82785	26.91	-1
0	83107	27.01	-1
0	83423	27.11	-1
0	83739	27.21	-1
0	84055	27.31	-1
0	84371	27.41	-1
0	84687	27.51	-1
0	85003	27.61	-1
0	85319	27.71	-1
0	85635	27.81	-1
0	85951	27.91	-1
0	86273	28.01	-1
0	86589	28.11	-1
0	86905	28.21	-1
0	87221	28.31	-1
0	87537	28.41	-1
0	87853	28.51	-1
0	88169	28.61	-1
0	88485	28.71	-1
0	88801	28.81	-1
0	89117	28.91	-1
0	89439	29.01	-1
0	89755	29.11	-1
0	90071	29.21	-1
0	90387	29.31	-1
0	90703	29.41	-1
0	91019	29.51	-1
0	91335	29.61	-1
0	91651	29.71	-1
0	91967	29.81	-1
0	92283	29.91	-1
0	92605	30.01	-1
0	92921	30.11	-1
0	93237	30.21	-1
0	93553	30.31	-1
0	93869	30.41	-1
0	94185	30.51	-1
0	94501	30.61	-1
0	94817	30.71	-1
0	95133	30.81	-1
0	95449	30.91	-1
0	95771	31.01	-1
0	96087	31.11	-1
0	96403	31.21	-1
0	96719	31.31	-1
0	97035	31.41	-1
0	97351	31.51	-1
0	97667	31.61	-1
0	97983	31.71	-1
0	98299	31.81	-1
0	98615	31.91	-1
0	98937	32.01	-1
0	99253	32.11	-1
0	99569	32.21	-1
0	99885	32.31	-1
0	100201	32.41	-1
0	100517	32.51	-1
0	100833	32.61	-1
0	101149	32.71	-1
0	101465	32.81	-1
0	101781	32.91	-1
0	102103	33.01	-1
0	102419	33.11	-1
0	102735	33.21	-1
0	103051	33.31	-1
0	103367	33.41	-1
0	103683	33.51	-1
0	103999	33.61	-1
0	104315	33.71	-1
0	104631	33.81	-1
0	104947	33.91	-1
0	105269	34.01	-1
0	105585	34.11	-1
0	105901	34.21	-1
0	106217	34.31	-1
0	106533	34.41	-1
0	106849	34.51	-1
0	107165	34.61	-1
0	107481	34.71	-1
0	107797	34.81	-1
0	108113	34.91	-1
0	108435	35.01	-1
0	108751	35.11	-1
0	109067	35.21	-1
0	109383	35.31	-1
0	109699	35.41	-1
0	110015	35.51	-1
0	110331	35.61	-1
0	110647	35.71	-1
0	110963	35.81	-1
0	111279	35.91	-1
0	111601	36.01	-1
0	111917	36.11	-1
0	112233	36.21	-1
0	112549	36.31	-1
0	112865	36.41	-1
0	113181	36.51	-1
0	113497	36.61	-1
0	113813	36.71	-1
0	114129	36.81	-1
0	114445	36.91	-1
0	114767	37.01	-1
0	115083	37.11	-1
0	115399	37.21	-1
0	115715	37.31	-1
0	116031	37.41	-1
0	116347	37.51	-1
0	116663	37.61	-1
0	116979	37.71	-1
0	117295	37.81	-1
0	117611	37.91	-1
0	117933	38.01	-1
0	118249	38.11	-1
0	118565	38.21	-1
0	118881	38.31	-1
0	119197	38.41	-1
0	119513	38.51	-1
0	119829	38.61	-1
0	120145	38.71	-1
0	120461	38.81	-1
0	120777	38.91	-1
0	121099	39.01	-1
0	121415	39.11	-1
0	121731	39.21	-1
0	122047	39.31	-1
0	122363	39.41	-1
0	122679	39.51	-1
0	122995	39.61	-1
0	123311	39.71	-1
0	123627	39.81	-1
0	123943	39.91	-1
0	124265	40.01	-1
0	124581	40.11	-1
0	124897	40.21	-1
0	125213	40.31	-1
0	125529	40.41	-1
0	125845	40.51	-1
0	126161	40.61	-1
0	126477	40.71	-1
0	126793	40.81	-1
0	127109	40.91	-1
0	127431	41.01	-1
0	127747	41.11	-1
0	128063	41.21	-1
0	128379	41.31	-1
0	128695	41.41	-1
0	129011	41.51	-1
0	129327	41.61	-1
0	129643	41.71	-1
0	129959	41.81	-1
0	130275	41.91	-1
0	130597	42.01	-1
0	130913	42.11	-1
0	131229	42.21	-1
0	131545	42.31	-1
0	131861	42.41	-1
0	132177	42.51	-1
0	132493	42.61	-1
0	132809	42.71	-1
0	133125	42.81	-1
0	133441	42.91	-1
0	133763	43.01	-1
0	134079	43.11	-1
0	134395	43.21	-1
0	134711	43.31	-1
0	135027	43.41	-1
0	135343	43.51	-1
0	135659	43.61	-1
0	135975	43.71	-1
0	136291	43.81	-1
0	136607	43.91	-1
0	136929	44.01	-1
0	137245	44.11	-1
0	137561	44.21	-1
0	137877	44.31	-1
0	138193	44.41	-1
0	138509	44.51	-1
0	138825	44.61	-1
0	139141	44.71	-1
0	139457	44.81	-1
0	139773	44.91	-1
0	140095	45.01	-1
0	140411	45.11	-1
0	140727	45.21	-1
0	141043	45.31	-1
0	141359	45.41	-1
0	141675	45.51	-1
0	141991	45.61	-1
0	142307	45.71	-1
0	142623	45.81	-1
0	142939	45.91	-1
0	143261	46.01	-1
0	143577	46.11	-1
0	143893	46.21	-1
0	144209	46.31	-1
0	144525	46.41	-1
0	144841	46.51	-1
0	145157	46.61	-1
0	145473	46.71	-1
0	145789	46.81	-1
0	146105	46.91	-1
0	146427	47.01	-1
0	146743	47.11	-1
0	147059	47.21	-1
0	147375	47.31	-1
0	147691	47.41	-1
0	148007	47.51	-1
0	148323	47.61	-1
0	148639	47.71	-1
0	148955	47.81	-1
0	149271	47.91	-1
0	149593	48.01	-1
0	149909	48.11	-1
0	150225	48.21	-1
0	150541	48.31	-1
0	150857	48.41	-1
0	151173	48.51	-1
0	151489	48.61	-1
0	151805	48.71	-1
0	152121	48.81	-1
0	152437	48.91	-1
0	152759	49.01	-1
0	153075	49.11	-1
0	153391	49.21	-1
0	153707	49.31	-1
0	154023	49.41	-1
0	154339	49.51	-1
0	154655	49.61	-1
0	154971	49.71	-1
0	155287	49.81	-1
0	155603	49.91	-1
0	155925	50.01	-1
0	156241	50.11	-1
0	156557	50.21	-1
0	156873	50.31	-1
0	157189	50.41	-1
0	157505	50.51	-1
0	157821	50.61	-1
0	158137	50.71	-1
0	158453	50.81	-1
0	158769	50.91	-1
0	159091	51.01	-1
0	159407	51.11	-1
0	159723	51.21	-1
0	160039	51.31	-1
0	160355	51.41	-1
0	160671	51.51	-1
0	160987	51.61	-1
0	161303	51.71	-1
0	161619	51.81	-1
0	161935	51.91	-1
0	162257	52.01	-1
0	162573	52.11	-1
0	162889	52.21	-1
0	163205	52.31	-1
0	163521	52.41	-1
0	163837	52.51	-1
0	164153	52.61	-1
0	164469	52.71	-1
0	164785	52.81	-1
0	165101	52.91	-1
0	165423	53.01	-1
0	165739	53.11	-1
0	166055	53.21	-1
0	166371	53.31	-1
0	166687	53.41	-1
0	167003	53.51	-1
0	167319	53.61	-1
0	167635	53.71	-1
0	167951	53.81	-1
0	168267	53.91	-1
0	168589	54.01	-1
0	168905	54.11	-1
0	169221	54.21	-1
0	169537	54.31	-1
0	169853	54.41	-1
0	170169	54.51	-1
0	170485	54.61	-1
0	170801	54.71	-1
0	171117	54.81	-1
0	171433	54.91	-1
0	171755	55.01	-1
0	172071	55.11	-1
0	172387	55.21	-1
0	172703	55.31	-1
0	173019	55.41	-1
0	173335	55.51	-1
0	173651	55.61	-1
0	173967	55.71	-1
0	174283	55.81	-1
0	174599	55.91	-1
0	174921	56.01	-1
0	175237	56.11	-1
0	175553	56.21	-1
0	175869	56.31	-1
0	176185	56.41	-1
0	176501	56.51	-1
0	176817	56.61	-1
0	177133	56.71	-1
0	177449	56.81	-1
0	177765	56.91	-1
0	178087	57.01	-1
0	178403	57.11	-1
0	178719	57.21	-1
0	179035	57.31	-1
0	179351	57.41	-1
0	179667	57.51	-1
0	179983	57.61	-1
0	180299	57.71	-1
0	180615	57.81	-1
0	180931	57.91	-1
0	181253	58.01	-1
0	181569	58.11	-1
0	181885	58.21	-1
0	182201	58.31	-1
0	182517	58.41	-1
0	182833	58.51	-1
0	183149	58.61	-1
0	183465	58.71	-1
0	183781	58.81	-1
0	184097	58.91	-1
0	184419	59.01	-1
0	184735	59.11	-1
0	185051	59.21	-1
0	185367	59.31	-1
0	185683	59.41	-1
0	185999	59.51	-1
0	186315	59.61	-1
0	186631	59.71	-1
0	186947	59.81	-1
0	187263	59.91	-1
0	187585	60.01	-1
0	187901	60.11	-1
0	188217	60.21	-1
0	188533	60.31	-1
0	188849	60.41	-1
0	189165	60.51	-1
0	189481	60.61	-1
0	189797	60.71	-1
0	190113	60.81	-1
0	190429	60.91	-1
0	190751	61.01	-1
0	191067	61.11	-1
0	191383	61.21	-1
0	191699	61.31	-1
0	192015	61.41	-1
0	192331	61.51	-1
0	192647	61.61	-1
0	192963	61.71	-1
0	193279	61.81	-1
0	193595	61.91	-1
0	193917	62.01	-1
0	194233	62.11	-1
0	194549	62.21	-1
0	194865	62.31	-1
0	195181	62.41	-1
0	195497	62.51	-1
0	195813	62.61	-1
0	196129	62.71	-1
0	196445	62.81	-1
0	196761	62.91	-1
0	197083	63.01	-1
0	197399	63.11	-1
0	197715	63.21	-1
0	198031	63.31	-1
0	198347	63.41	-1
0	198663	63.51	-1
0	198979	63.61	-1
0	199295	63.71	-1
0	199611	63.81	-1
0	199927	63.91	-1
0	200249	64.01	-1
0	200565	64.11	-1
0	200881	64.21	-1
0	201197	64.31	-1
0	201513	64.41	-1
0	201829	64.51	-1
0	202145	64.61	-1
0	202461	64.71	-1
0	202777	64.81	-1
0	203093	64.91	-1
0	203415	65.01	-1
0	203731	65.11	-1
0	204047	65.21	-1
0	204363	65.31	-1
0	204679	65.41	-1
0	204995	65.51	-1
0	205311	65.61	-1
0	205627	65.71	-1
0	205943	65.81	-1
0	206259	65.91	-1
0	206581	66.01	-1
0	206897	66.11	-1
0	207213	66.21	-1
0	207529	66.31	-1
0	207845	66.41	-1
0	208161	66.51	-1
0	208477	66.61	-1
0	208793	66.71	-1
0	209109	66.81	-1
0	209425	66.91	-1
0	209747	67.01	-1
0	210063	67.11	-1
0	210379	67.21	-1
0	210695	67.31	-1
0	211011	67.41	-1
0	211327	67.51	-1
0	211643	67.61	-1
0	211959	67.71	-1
0	212275	67.81	-1
0	212591	67.91	-1
0	212913	68.01	-1
0	213229	68.11	-1
0	213545	68.21	-1
0	213861	68.31	-1
0	214177	68.41	-1
0	214493	68.51	-1
0	214809	68.61	-1
0	215125	68.71	-1
0	215441	68.81	-1
0	215757	68.91	-1
0	216079	69.01	-1
0	216395	69.11	-1
0	216711	69.21	-1
0	217027	69.31	-1
0	217343	69.41	-1
0	217659	69.51	-1
0	217975	69.61	-1
0	218291	69.71	-1
0	218607	69.81	-1
0	218923	69.91	-1
0	219245	70.01	-1
0	219561	70.11	-1
0	219877	70.21	-1
0	220193	70.31	-1
0	220509	70.41	-1
0	220825	70.51	-1
0	221141	70.61	-1
0	221457	70.71	-1
0	221773	70.81	-1
0	222089	70.91	-1
0	222411	71.01	-1
0	222727	71.11	-1
0	223043	71.21	-1
0	223359	71.31	-1
0	223675	71.41	-1
0	223991	71.51	-1
0	224307	71.61	-1
0	224623	71.71	-1
0	224939	71.81	-1
0	225255	71.91	-1
0	225577	72.01	-1
0	225893	72.11	-1
0	226209	72.21	-1
0	226525	72.31	-1
0	226841	72.41	-1
0	227157	72.51	-1
0	227473	72.61	-1
0	227789	72.71	-1
0	228105	72.81	-1
0	228421	72.91	-1
0	228743	73.01	-1
0	229059	73.11	-1
0	229375	73.21	-1
0	229691	73.31	-1
0	230007	73.41	-1
0	230323	73.51	-1
0	230639	73.61	-1
0	230955	73.71	-1
0	231271	73.81	-1
0	231587	73.91	-1
0	231909	74.01	-1
0	232225	74.11	-1
0	232541	74.21	-1
0	232857	74.31	-1
0	233173	74.41	-1
0	233489	74.51	-1
0	233805	74.61	-1
0	234121	74.71	-1
0	234437	74.81	-1
0	234753	74.91	-1
0	235075	75.01	-1
0	235391	75.11	-1
0	235707	75.21	-1
0	236023	75.31	-1
0	236339	75.41	-1
0	236655	75.51	-1
0	236971	75.61	-1
0	237287	75.71	-1
0	237603	75.81	-1
0	237919	75.91	-1
0	238241	76.01	-1
0	238557	76.11	-1
0	238873	76.21	-1
0	239189	76.31	-1
0	239505	76.41	-1
0	239821	76.51	-1
0	240137	76.61	-1
0	240453	76.71	-1
0	240769	76.81	-1
0	241085	76.91	-1
0	241407	77.01	-1
0	241723	77.11	-1
0	242039	77.21	-1
0	242355	77.31	-1
0	242671	77.41	-1
0	242987	77.51	-1
0	243303	77.61	-1
0	243619	77.71	-1
0	243935	77.81	-1
0	244251	77.91	-1
0	244573	78.01	-1
0	244889	78.11	-1
0	245205	78.21	-1
0	245521	78.31	-1
0	245837	78.41	-1
0	246153	78.51	-1
0	246469	78.61	-1
0	246785	78.71	-1
0	247101	78.81	-1
0	247417	78.91	-1
0	247739	79.01	-1
0	248055	79.11	-1
0	248371	79.21	-1
0	248687	79.31	-1
0	249003	79.41	-1
0	249319	79.51	-1
0	249635	79.61	-1
0	249951	79.71	-1
0	250267	79.81	-1
0	250583	79.91	-1
0	250905	80.01	-1
0	251221	80.11	-1
0	251537	80.21	-1
0	251853	80.31	-1
0	252169	80.41	-1
0	252485	80.51	-1
0	252801	80.61	-1
0	253117	80.71	-1
0	253433	80.81	-1
0	253749	80.91	-1
0	254071	81.01	-1
0	254387	81.11	-1
0	254703	81.21	-1
0	255019	81.31	-1
0	255335	81.41	-1
0	255651	81.51	-1
0	255967	81.61	-1
0	256283	81.71	-1
0	256599	81.81	-1
0	256915	81.91	-1
0	257237	82.01	-1
0	257553	82.11	-1
0	257869	82.21	-1
0	258185	82.31	-1
0	258501	82.41	-1
0	258817	82.51	-1
0	259133	82.61	-1
0	259449	82.71	-1
0	259765	82.81	-1
0	260081	82.91	-1
0	260403	83.01	-1
0	260719	83.11	-1
0	261035	83.21	-1
0	261351	83.31	-1
0	261667	83.41	-1
0	261983	83.51	-1
0	262299	83.61	-1
0	262615	83.71	-1
0	262931	83.81	-1
0	263247	83.91	-1
0	263569	84.01	-1
0	263885	84.11	-1
0	264201	84.21	-1
0	264517	84.31	-1
0	264833	84.41	-1
0	265149	84.51	-1
0	265465	84.61	-1
0	265781	84.71	-1
0	266097	84.81	-1
0	266413	84.91	-1
0	266735	85.01	-1
0	267051	85.11	-1
0	267367	85.21	-1
0	267683	85.31	-1
0	267999	85.41	-1
0	268315	85.51	-1
0	268631	85.61	-1
0	268947	85.71	-1
0	269263	85.81	-1
0	269579	85.91	-1
0	269901	86.01	-1
0	270217	86.11	-1
0	270533	86.21	-1
0	270849	86.31	-1
0	271165	86.41	-1
0	271481	86.51	-1
0	271797	86.61	-1
0	272113	86.71	-1
0	272429	86.81	-1
0	272745	86.91	-1
0	273067	87.01	-1
0	273383	87.11	-1
0	273699	87.21	-1
0	274015	87.31	-1
0	274331	87.41	-1
0	274647	87.51	-1
0	274963	87.61	-1
0	275279	87.71	-1
0	275595	87.81	-1
0	275911	87.91	-1
0	276233	88.01	-1
0	276549	88.11	-1
0	276865	88.21	-1
0	277181	88.31	-1
0	277497	88.41	-1
0	277813	88.51	-1
0	278129	88.61	-1
0	278445	88.71	-1
0	278761	88.81	-1
0	279077	88.91	-1
0	279399	89.01	-1
0	279715	89.11	-1
0	280031	89.21	-1
0	280347	89.31	-1
0	280663	89.41	-1
0	280979	89.51	-1
0	281295	89.61	-1
0	281611	89.71	-1
0	281927	89.81	-1
0	282243	89.91	-1
0	282565	90.01	-1
0	282881	90.11	-1
0	283197	90.21	-1
0	283513	90.31	-1
0	283829	90.41	-1
0	284145	90.51	-1
0	284461	90.61	-1
0	284777	90.71	-1
0	285093	90.81	-1
0	285409	90.91	-1
0	285731	91.01	-1
0	286047	91.11	-1
0	286363	91.21	-1
0	286679	91.31	-1
0	286995	91.41	-1
0	287311	91.51	-1
0	287627	91.61	-1
0	287943	91.71	-1
0	288259	91.81	-1
0	288575	91.91	-1
0	288897	92.01	-1
0	289213	92.11	-1
0	289529	92.21	-1
0	289845	92.31	-1
0	290161	92.41	-1
0	290477	92.51	-1
0	290793	92.61	-1
0	291109	92.71	-1
0	291425	92.81	-1
0	291741	92.91	-1
0	292063	93.01	-1
0	292379	93.11	-1
0	292695	93.21	-1
0	293011	93.31	-1
0	293327	93.41	-1
0	293643	93.51	-1
0	293959	93.61	-1
0	294275	93.71	-1
0	294591	93.81	-1
0	294907	93.91	-1
0	295229	94.01	-1
0	295545	94.11	-1
0	295861	94.21	-1
0	296177	94.31	-1
0	296493	94.41	-1
0	296809	94.51	-1
0	297125	94.61	-1
0	297441	94.71	-1
0	297757	94.81	-1
0	298073	94.91	-1
0	298395	95.01	-1
0	298711	95.11	-1
0	299027	95.21	-1
0	299343	95.31	-1
0	299659	95.41	-1
0	299975	95.51	-1
0	300291	95.61	-1
0	300607	95.71	-1
0	300923	95.81	-1
0	301239	95.91	-1
0	301561	96.01	-1
0	301877	96.11	-1
0	302193	96.21	-1
0	302509	96.31	-1
0	302825	96.41	-1
0	303141	96.51	-1
0	303457	96.61	-1
0	303773	96.71	-1
0	304089	96.81	-1
0	304405	96.91	-1
0	304727	97.01	-1
0	305043	97.11	-1
0	305359	97.21	-1
0	305675	97.31	-1
0	305991	97.41	-1
0	306307	97.51	-1
0	306623	97.61	-1
0	306939	97.71	-1
0	307255	97.81	-1
0	307571	97.91	-1
0	307893	98.01	-1
0	308209	98.11	-1
0	308525	98.21	-1
0	308841	98.31	-1
0	309157	98.41	-1
0	309473	98.51	-1
0	309789	98.61	-1
0	310105	98.71	-1
0	310421	98.81	-1
0	310737	98.91	-1
0	311059	99.01	-1
0	311375	99.11	-1
0	311691	99.21	-1
0	312007	99.31	-1
0	312323	99.41	-1
0	312639	99.51	-1
0	312955	99.61	-1
0	313271	99.71	-1
0	313587	99.81	-1
0	313903	99.91	-1
1	113	1.11	0
1	429	1.21	0
1	745	1.31	0
1	1061	1.41	0
1	1377	1.51	0
1	1693	1.61	0
1	2009	1.71	0
1	2325	1.81	0
1	2641	1.91	0
1	2963	2.01	0
1	3279	2.11	0
1	3595	2.21	0
1	3911	2.31	0
1	4227	2.41	0
1	4543	2.51	0
1	4859	2.61	0
1	5175	2.71	0
1	5491	2.81	0
1	5807	2.91	0
1	6129	3.01	0
1	6445	3.11	0
1	6761	3.21	0
1	7077	3.31	0
1	7393	3.41	0
1	7709	3.51	0
1	8025	3.61	0
1	8341	3.71	0
1	8657	3.81	0
1	8973	3.91	0
1	9295	4.01	0
1	9611	4.11	0
1	9927	4.21	0
1	10243	4.31	0
1	10559	4.41	0
1	10875	4.51	0
1	11191	4.61	0
1	11507	4.71	0
1	11823	4.81	0
1	12139	4.91	0
1	12461	5.01	0
1	12777	5.11	0
1	13093	5.21	0
1	13409	5.31	0
1	13725	5.41	0
1	14041	5.51	0
1	14357	5.61	0
1	14673	5.71	0
1	14989	5.81	0
1	15305	5.91	0
1	15627	6.01	0
1	15943	6.11	0
1	16259	6.21	0
1	16575	6.31	0
1	16891	6.41	0
1	17207	6.51	0
1	17523	6.61	0
1	17839	6.71	0
1	18155	6.81	0
1	18471	6.91	0
1	18793	7.01	0
1	19109	7.11	0
1	19425	7.21	0
1	19741	7.31	0
1	20057	7.41	0
1	20373	7.51	0
1	20689	7.61	0
1	21005	7.71	0
1	21321	7.81	0
1	21637	7.91	0
1	21959	8.01	0
1	22275	8.11	0
1	22591	8.21	0
1	22907	8.31	0
1	23223	8.41	0
1	23539	8.51	0
1	23855	8.61	0
1	24171	8.71	0
1	24487	8.81	0
1	24803	8.91	0
1	25125	9.01	0
1	25441	9.11	0
1	25757	9.21	0
1	26073	9.31	0
1	26389	9.41	0
1	26705	9.51	0
1	27021	9.61	0
1	27337	9.71	0
1	27653	9.81	0
1	27969	9.91	0
1	29285	10.01	0
1	29601	10.11	0
1	29917	10.21	0
1	30233	10.31	0
1	30549	10.41	0
1	30865	10.51	0
1	31181	10.61	0
1	31497	10.71	0
1	31813	10.81	0
1	32129	10.91	0
1	32451	11.01	0
1	32767	11.11	0
1	33083	11.21	0
1	33399	11.31	0
1	33715	11.41	0
1	34031	11.51	0
1	34347	11.61	0
1	34663	11.71	0
1	34979	11.81	0
1	35295	11.91	0
1	35617	12.01	0
1	35933	12.11	0
1	36249	12.21	0
1	36565	12.31	0
1	36881	12.41	0
1	37197	12.51	0
1	37513	12.61	0
1	37829	12.71	0
1	38145	12.81	0
1	38461	12.91	0
1	38783	13.01	0
1	39099	13.11	0
1	39415	13.21	0
1	39731	13.31	0
1	40047	13.41	0
1	40363	13.51	0
1	40679	13.61	0
1	40995	13.71	0
1	41311	13.81	0
1	41627	13.91	0
1	41949	14.01	0
1	42265	14.11	0
1	42581	14.21	0
1	42897	14.31	0
1	43213	14.41	0
1	43529	14.51	0
1	43845	14.61	0
1	44161	14.71	0
1	44477	14.81	0
1	44793	14.91	0
1	45115	15.01	0
1	45431	15.11	0
1	45747	15.21	0
1	46063	15.31	0
1	46379	15.41	0
1	46695	15.51	0
1	47011	15.61	0
1	47327	15.71	0
1	47643	15.81	0
1	47959	15.91	0
1	48281	16.01	0
1	48597	16.11	0
1	48913	16.21	0
1	49229	16.31	0
1	49545	16.41	0
1	49861	16.51	0
1	50177	16.61	0
1	50493	16.71	0
1	50809	16.81	0
1	51125	16.91	0
1	51447	17.01	0
1	51763	17.11	0
1	52079	17.21	0
1	52395	17.31	0
1	52711	17.41	0
1	53027	17.51	0
1	53343	17.61	0
1	53659	17.71	0
1	53975	17.81	0
1	54291	17.91	0
1	54613	18.01	0
1	54929	18.11	0
1	55245	18.21	0
1	55561	18.31	0
1	55877	18.41	0
1	56193	18.51	0
1	56509	18.61	0
1	56825	18.71	0
1	57141	18.81	0
1	57457	18.91	0
1	57779	19.01	0
1	58095	19.11	0
1	58411	19.21	0
1	58727	19.31	0
1	59043	19.41	0
1	59359	19.51	0
1	59675	19.61	0
1	59991	19.71	0
1	60307	19.81	0
1	60623	19.91	0
1	60945	20.01	0
1	61261	20.11	0
1	61577	20.21	0
1	61893	20.31	0
1	62209	20.41	0
1	62525	20.51	0
1	62841	20.61	0
1	63157	20.71	0
1	63473	20.81	0
1	63789	20.91	0
1	64111	21.01	0
1	64427	21.11	0
1	64743	21.21	0
1	65059	21.31	0
1	65375	21.41	0
1	65691	21.51	0
1	66007	21.61	0
1	66323	21.71	0
1	66639	21.81	0
1	66955	21.91	0
1	67277	22.01	0
1	67593	22.11	0
1	67909	22.21	0
1	68225	22.31	0
1	68541	22.41	0
1	68857	22.51	0
1	69173	22.61	0
1	69489	22.71	0
1	69805	22.81	0
1	70121	22.91	0
1	70443	23.01	0
1	70759	23.11	0
1	71075	23.21	0
1	71391	23.31	0
1	71707	23.41	0
1	72023	23.51	0
1	72339	23.61	0
1	72655	23.71	0
1	72971	23.81	0
1	73287	23.91	0
1	73609	24.01	0
1	73925	24.11	0
1	74241	24.21	0
1	74557	24.31	0
1	74873	24.41	0
1	75189	24.51	0
1	75505	24.61	0
1	75821	24.71	0
1	76137	24.81	0
1	76453	24.91	0
1	76775	25.01	0
1	77091	25.11	0
1	77407	25.21	0
1	77723	25.31	0
1	78039	25.41	0
1	78355	25.51	0
1	78671	25.61	0
1	78987	25.71	0
1	79303	25.81	0
1	79619	25.91	0
1	79941	26.01	0
1	80257	26.11	0
1	80573	26.21	0
1	80889	26.31	0
1	81205	26.41	0
1	81521	26.51	0
1	81837	26.61	0
1	82153	26.71	0
1	82469	26.81	0
1	82785	26.91	0
1	83107	27.01	0
1	83423	27.11	0
1	83739	27.21	0
1	84055	27.31	0
1	84371	27.41	0
1	84687	27.51	0
1	85003	27.61	0
1	85319	27.71	0
1	85635	27.81	0
1	85951	27.91	0
1	86273	28.01	0
1	86589	28.11	0
1	86905	28.21	0
1	87221	28.31	0
1	87537	28.41	0
1	87853	28.51	0
1	88169	28.61	0
1	88485	28.71	0
1	88801	28.81	0
1	89117	28.91	0
1	89439	29.01	0
1	89755	29.11	0
1	90071	29.21	0
1	90387	29.31	0
1	90703	29.41	0
1	91019	29.51	0
1	91335	29.61	0
1	91651	29.71	0
1	91967	29.81	0
1	92283	29.91	0
1	92605	30.01	0
1	92921	30.11	0
1	93237	30.21	0
1	93553	30.31	0
1	93869	30.41	0
1	94185	30.51	0
1	94501	30.61	0
1	94817	30.71	0
1	95133	30.81	0
1	95449	30.91	0
1	95771	31.01	0
1	96087	31.11	0
1	96403	31.21	0
1	96719	31.31	0
1	97035	31.41	0
1	97351	31.51	0
1	97667	31.61	0
1	97983	31.71	0
1	98299	31.81	0
1	98615	31.91	0
1	98937	32.01	0
1	99253	32.11	0
1	99569	32.21	0
1	99885	32.31	0
1	100201	32.41	0
1	100517	32.51	0
1	100833	32.61	0
1	101149	32.71	0
1	101465	32.81	0
1	101781	32.91	0
1	102103	33.01	0
1	102419	33.11	0
1	102735	33.21	0
1	103051	33.31	0
1	103367	33.41	0
1	103683	33.51	0
1	103999	33.61	0
1	104315	33.71	0
1	104631	33.81	0
1	104947	33.91	0
1	105269	34.01	0
1	105585	34.11	0
1	105901	34.21	0
1	106217	34.31	0
1	106533	34.41	0
1	106849	34.51	0
1	107165	34.61	0
1	107481	34.71	0
1	107797	34.81	0
1	108113	34.91	0
1	108435	35.01	0
1	108751	35.11	0
1	109067	35.21	0
1	109383	35.31	0
1	109699	35.41	0
1	110015	35.51	0
1	110331	35.61	0
1	110647	35.71	0
1	110963	35.81	0
1	111279	35.91	0
1	111601	36.01	0
1	111917	36.11	0
1	112233	36.21	0
1	112549	36.31	0
1	112865	36.41	0
1	113181	36.51	0
1	113497	36.61	0
1	113813	36.71	0
1	114129	36.81	0
1	114445	36.91	0
1	114767	37.01	0
1	115083	37.11	0
1	115399	37.21	0
1	115715	37.31	0
1	116031	37.41	0
1	116347	37.51	0
1	116663	37.61	0
1	116979	37.71	0
1	117295	37.81	0
1	117611	37.91	0
1	117933	38.01	0
1	118249	38.11	0
1	118565	38.21	0
1	118881	38.31	0
1	119197	38.41	0
1	119513	38.51	0
1	119829	38.61	0
1	120145	38.71	0
1	120461	38.81	0
1	120777	38.91	0
1	121099	39.01	0
1	121415	39.11	0
1	121731	39.21	0
1	122047	39.31	0
1	122363	39.41	0
1	122679	39.51	0
1	122995	39.61	0
1	123311	39.71	0
1	123627	39.81	0
1	123943	39.91	0
1	124265	40.01	0
1	124581	40.11	0
1	124897	40.21	0
1	125213	40.31	0
1	125529	40.41	0
1	125845	40.51	0
1	126161	40.61	0
1	126477	40.71	0
1	126793	40.81	0
1	127109	40.91	0
1	127431	41.01	0
1	127747	41.11	0
1	128063	41.21	0
1	128379	41.31	0
1	128695	41.41	0
1	129011	41.51	0
1	129327	41.61	0
1	129643	41.71	0
1	129959	41.81	0
1	130275	41.91	0
1	130597	42.01	0
1	130913	42.11	0
1	131229	42.21	0
1	131545	42.31	0
1	131861	42.41	0
1	132177	42.51	0
1	132493	42.61	0
1	132809	42.71	0
1	133125	42.81	0
1	133441	42.91	0
1	133763	43.01	0
1	134079	43.11	0
1	134395	43.21	0
1	134711	43.31	0
1	135027	43.41	0
1	135343	43.51	0
1	135659	43.61	0
1	135975	43.71	0
1	136291	43.81	0
1	136607	43.91	0
1	136929	44.01	0
1	137245	44.11	0
1	137561	44.21	0
1	137877	44.31	0
1	138193	44.41	0
1	138509	44.51	0
1	138825	44.61	0
1	139141	44.71	0
1	139457	44.81	0
1	139773	44.91	0
1	140095	45.01	0
1	140411	45.11	0
1	140727	45.21	0
1	141043	45.31	0
1	141359	45.41	0
1	141675	45.51	0
1	141991	45.61	0
1	142307	45.71	0
1	142623	45.81	0
1	142939	45.91	0
1	143261	46.01	0
1	143577	46.11	0
1	143893	46.21	0
1	144209	46.31	0
1	144525	46.41	0
1	144841	46.51	0
1	145157	46.61	0
1	145473	46.71	0
1	145789	46.81	0
1	146105	46.91	0
1	146427	47.01	0
1	146743	47.11	0
1	147059	47.21	0
1	147375	47.31	0
1	147691	47.41	0
1	148007	47.51	0
1	148323	47.61	0
1	148639	47.71	0
1	148955	47.81	0
1	149271	47.91	0
1	149593	48.01	0
1	149909	48.11	0
1	150225	48.21	0
1	150541	48.31	0
1	150857	48.41	0
1	151173	48.51	0
1	151489	48.61	0
1	151805	48.71	0
1	152121	48.81	0
1	152437	48.91	0
1	152759	49.01	0
1	153075	49.11	0
1	153391	49.21	0
1	153707	49.31	0
1	154023	49.41	0
1	154339	49.51	0
1	154655	49.61	0
1	154971	49.71	0
1	155287	49.81	0
1	155603	49.91	0
1	155925	50.01	0
1	156241	50.11	0
1	156557	50.21	0
1	156873	50.31	0
1	157189	50.41	0
1	157505	50.51	0
1	157821	50.61	0
1	158137	50.71	0
1	158453	50.81	0
1	158769	50.91	0
1	159091	51.01	0
1	159407	51.11	0
1	159723	51.21	0
1	160039	51.31	0
1	160355	51.41	0
1	160671	51.51	0
1	160987	51.61	0
1	161303	51.71	0
1	161619	51.81	0
1	161935	51.91	0
1	162257	52.01	0
1	162573	52.11	0
1	162889	52.21	0
1	163205	52.31	0
1	163521	52.41	0
1	163837	52.51	0
1	164153	52.61	0
1	164469	52.71	0
1	164785	52.81	0
1	165101	52.91	0
1	165423	53.01	0
1	165739	53.11	0
1	166055	53.21	0
1	166371	53.31	0
1	166687	53.41	0
1	167003	53.51	0
1	167319	53.61	0
1	167635	53.71	0
1	167951	53.81	0
1	168267	53.91	0
1	168589	54.01	0
1	168905	54.11	0
1	169221	54.21	0
1	169537	54.31	0
1	169853	54.41	0
1	170169	54.51	0
1	170485	54.61	0
1	170801	54.71	0
1	171117	54.81	0
1	171433	54.91	0
1	171755	55.01	0
1	172071	55.11	0
1	172387	55.21	0
1	172703	55.31	0
1	173019	55.41	0
1	173335	55.51	0
1	173651	55.61	0
1	173967	55.71	0
1	174283	55.81	0
1	174599	55.91	0
1	174921	56.01	0
1	175237	56.11	0
1	175553	56.21	0
1	175869	56.31	0
1	176185	56.41	0
1	176501	56.51	0
1	176817	56.61	0
1	177133	56.71	0
1	177449	56.81	0
1	177765	56.91	0
1	178087	57.01	0
1	178403	57.11	0
1	178719	57.21	0
1	179035	57.31	0
1	179351	57.41	0
1	179667	57.51	0
1	179983	57.61	0
1	180299	57.71	0
1	180615	57.81	0
1	180931	57.91	0
1	181253	58.01	0
1	181569	58.11	0
1	181885	58.21	0
1	182201	58.31	0
1	182517	58.41	0
1	182833	58.51	0
1	183149	58.61	0
1	183465	58.71	0
1	183781	58.81	0
1	184097	58.91	0
1	184419	59.01	0
1	184735	59.11	0
1	185051	59.21	0
1	185367	59.31	0
1	185683	59.41	0
1	185999	59.51	0
1	186315	59.61	0
1	186631	59.71	0
1	186947	59.81	0
1	187263	59.91	0
1	187585	60.01	0
1	187901	60.11	0
1	188217	60.21	0
1	188533	60.31	0
1	188849	60.41	0
1	189165	60.51	0
1	189481	60.61	0
1	189797	60.71	0
1	190113	60.81	0
1	190429	60.91	0
1	190751	61.01	0
1	191067	61.11	0
1	191383	61.21	0
1	191699	61.31	0
1	192015	61.41	0
1	192331	61.51	0
1	192647	61.61	0
1	192963	61.71	0
1	193279	61.81	0
1	193595	61.91	0
1	193917	62.01	0
1	194233	62.11	0
1	194549	62.21	0
1	194865	62.31	0
1	195181	62.41	0
1	195497	62.51	0
1	195813	62.61	0
1	196129	62.71	0
1	196445	62.81	0
1	196761	62.91	0
1	197083	63.01	0
1	197399	63.11	0
1	197715	63.21	0
1	198031	63.31	0
1	198347	63.41	0
1	198663	63.51	0
1	198979	63.61	0
1	199295	63.71	0
1	199611	63.81	0
1	199927	63.91	0
1	200249	64.01	0
1	200565	64.11	0
1	200881	64.21	0
1	201197	64.31	0
1	201513	64.41	0
1	201829	64.51	0
1	202145	64.61	0
1	202461	64.71	0
1	202777	64.81	0
1	203093	64.91	0
1	203415	65.01	0
1	203731	65.11	0
1	204047	65.21	0
1	204363	65.31	0
1	204679	65.41	0
1	204995	65.51	0
1	205311	65.61	0
1	205627	65.71	0
1	205943	65.81	0
1	206259	65.91	0
1	206581	66.01	0
1	206897	66.11	0
1	207213	66.21	0
1	207529	66.31	0
1	207845	66.41	0
1	208161	66.51	0
1	208477	66.61	0
1	208793	66.71	0
1	209109	66.81	0
1	209425	66.91	0
1	209747	67.01	0
1	210063	67.11	0
1	210379	67.21	0
1	210695	67.31	0
1	211011	67.41	0
1	211327	67.51	0
1	211643	67.61	0
1	211959	67.71	0
1	212275	67.81	0
1	212591	67.91	0
1	212913	68.01	0
1	213229	68.11	0
1	213545	68.21	0
1	213861	68.31	0
1	214177	68.41	0
1	214493	68.51	0
1	214809	68.61	0
1	215125	68.71	0
1	215441	68.81	0
1	215757	68.91	0
1	216079	69.01	0
1	216395	69.11	0
1	216711	69.21	0
1	217027	69.31	0
1	217343	69.41	0
1	217659	69.51	0
1	217975	69.61	0
1	218291	69.71	0
1	218607	69.81	0
1	218923	69.91	0
1	219245	70.01	0
1	219561	70.11	0
1	219877	70.21	0
1	220193	70.31	0
1	220509	70.41	0
1	220825	70.51	0
1	221141	70.61	0
1	221457	70.71	0
1	221773	70.81	0
1	222089	70.91	0
1	222411	71.01	0
1	222727	71.11	0
1	223043	71.21	0
1	223359	71.31	0
1	223675	71.41	0
1	223991	71.51	0
1	224307	71.61	0
1	224623	71.71	0
1	224939	71.81	0
1	225255	71.91	0
1	225577	72.01	0
1	225893	72.11	0
1	226209	72.21	0
1	226525	72.31	0
1	226841	72.41	0
1	227157	72.51	0
1	227473	72.61	0
1	227789	72.71	0
1	228105	72.81	0
1	228421	72.91	0
1	228743	73.01	0
1	229059	73.11	0
1	229375	73.21	0
1	229691	73.31	0
1	230007	73.41	0
1	230323	73.51	0
1	230639	73.61	0
1	230955	73.71	0
1	231271	73.81	0
1	231587	73.91	0
1	231909	74.01	0
1	232225	74.11	0
1	232541	74.21	0
1	232857	74.31	0
1	233173	74.41	0
1	233489	74.51	0
1	233805	74.61	0
1	234121	74.71	0
1	234437	74.81	0
1	234753	74.91	0
1	235075	75.01	0
1	235391	75.11	0
1	235707	75.21	0
1	236023	75.31	0
1	236339	75.41	0
1	236655	75.51	0
1	236971	75.61	0
1	237287	75.71	0
1	237603	75.81	0
1	237919	75.91	0
1	238241	76.01	0
1	238557	76.11	0
1	238873	76.21	0
1	239189	76.31	0
1	239505	76.41	0
1	239821	76.51	0
1	240137	76.61	0
1	240453	76.71	0
1	240769	76.81	0
1	241085	76.91	0
1	241407	77.01	0
1	241723	77.11	0
1	242039	77.21	0
1	242355	77.31	0
1	242671	77.41	0
1	242987	77.51	0
1	243303	77.61	0
1	243619	77.71	0
1	243935	77.81	0
1	244251	77.91	0
1	244573	78.01	0
1	244889	78.11	0
1	245205	78.21	0
1	245521	78.31	0
1	245837	78.41	0
1	246153	78.51	0
1	246469	78.61	0
1	246785	78.71	0
1	247101	78.81	0
1	247417	78.91	0
1	247739	79.01	0
1	248055	79.11	0
1	248371	79.21	0
1	248687	79.31	0
1	249003	79.41	0
1	249319	79.51	0
1	249635	79.61	0
1	249951	79.71	0
1	250267	79.81	0
1	250583	79.91	0
1	250905	80.01	0
1	251221	80.11	0
1	251537	80.21	0
1	251853	80.31	0
1	252169	80.41	0
1	252485	80.51	0
1	252801	80.61	0
1	253117	80.71	0
1	253433	80.81	0
1	253749	80.91	0
1	254071	81.01	0
1	254387	81.11	0
1	254703	81.21	0
1	255019	81.31	0
1	255335	81.41	0
1	255651	81.51	0
1	255967	81.61	0
1	256283	81.71	0
1	256599	81.81	0
1	256915	81.91	0
1	257237	82.01	0
1	257553	82.11	0
1	257869	82.21	0
1	258185	82.31	0
1	258501	82.41	0
1	258817	82.51	0
1	259133	82.61	0
1	259449	82.71	0
1	259765	82.81	0
1	260081	82.91	0
1	260403	83.01	0
1	260719	83.11	0
1	261035	83.21	0
1	261351	83.31	0
1	261667	83.41	0
1	261983	83.51	0
1	262299	83.61	0
1	262615	83.71	0
1	262931	83.81	0
1	263247	83.91	0
1	263569	84.01	0
1	263885	84.11	0
1	264201	84.21	0
1	264517	84.31	0
1	264833	84.41	0
1	265149	84.51	0
1	265465	84.61	0
1	265781	84.71	0
1	266097	84.81	0
1	266413	84.91	0
1	266735	85.01	0
1	267051	85.11	0
1	267367	85.21	0
1	267683	85.31	0
1	267999	85.41	0
1	268315	85.51	0
1	268631	85.61	0
1	268947	85.71	0
1	269263	85.81	0
1	269579	85.91	0
1	269901	86.01	0
1	270217	86.11	0
1	270533	86.21	0
1	270849	86.31	0
1	271165	86.41	0
1	271481	86.51	0
1	271797	86.61	0
1	272113	86.71	0
1	272429	86.81	0
1	272745	86.91	0
1	273067	87.01	0
1	273383	87.11	0
1	273699	87.21	0
1	274015	87.31	0
1	274331	87.41	0
1	274647	87.51	0
1	274963	87.61	0
1	275279	87.71	0
1	275595	87.81	0
1	275911	87.91	0
1	276233	88.01	0
1	276549	88.11	0
1	276865	88.21	0
1	277181	88.31	0
1	277497	88.41	0
1	277813	88.51	0
1	278129	88.61	0
1	278445	88.71	0
1	278761	88.81	0
1	279077	88.91	0
1	279399	89.01	0
1	279715	89.11	0
1	280031	89.21	0
1	280347	89.31	0
1	280663	89.41	0
1	280979	89.51	0
1	281295	89.61	0
1	281611	89.71	0
1	281927	89.81	0
1	282243	89.91	0
1	282565	90.01	0
1	282881	90.11	0
1	283197	90.21	0
1	283513	90.31	0
1	283829	90.41	0
1	284145	90.51	0
1	284461	90.61	0
1	284777	90.71	0
1	285093	90.81	0
1	285409	90.91	0
1	285731	91.01	0
1	286047	91.11	0
1	286363	91.21	0
1	286679	91.31	0
1	286995	91.41	0
1	287311	91.51	0
1	287627	91.61	0
1	287943	91.71	0
1	288259	91.81	0
1	288575	91.91	0
1	288897	92.01	0
1	289213	92.11	0
1	289529	92.21	0
1	289845	92.31	0
1	290161	92.41	0
1	290477	92.51	0
1	290793	92.61	0
1	291109	92.71	0
1	291425	92.81	0
1	291741	92.91	0
1	292063	93.01	0
1	292379	93.11	0
1	292695	93.21	0
1	293011	93.31	0
1	293327	93.41	0
1	293643	93.51	0
1	293959	93.61	0
1	294275	93.71	0
1	294591	93.81	0
1	294907	93.91	0
1	295229	94.01	0
1	295545	94.11	0
1	295861	94.21	0
1	296177	94.31	0
1	296493	94.41	0
1	296809	94.51	0
1	297125	94.61	0
1	297441	94.71	0
1	297757	94.81	0
1	298073	94.91	0
1	298395	95.01	0
1	298711	95.11	0
1	299027	95.21	0
1	299343	95.31	0
1	299659	95.41	0
1	299975	95.51	0
1	300291	95.61	0
1	300607	95.71	0
1	300923	95.81	0
1	301239	95.91	0
1	301561	96.01	0
1	301877	96.11	0
1	302193	96.21	0
1	302509	96.31	0
1	302825	96.41	0
1	303141	96.51	0
1	303457	96.61	0
1	303773	96.71	0
1	304089	96.81	0
1	304405	96.91	0
1	304727	97.01	0
1	305043	97.11	0
1	305359	97.21	0
1	305675	97.31	0
1	305991	97.41	0
1	306307	97.51	0
1	306623	97.61	0
1	306939	97.71	0
1	307255	97.81	0
1	307571	97.91	0
1	307893	98.01	0
1	308209	98.11	0
1	308525	98.21	0
1	308841	98.31	0
1	309157	98.41	0
1	309473	98.51	0
1	309789	98.61	0
1	310105	98.71	0
1	310421	98.81	0
1	310737	98.91	0
1	311059	99.01	0
1	311375	99.11	0
1	311691	99.21	0
1	312007	99.31	0
1	312323	99.41	0
1	312639	99.51	0
1	312955	99.61	0
1	313271	99.71	0
1	313587	99.81	0
1	313903	99.91	0
2	113	1.11	0
2	429	1.21	0
2	745	1.31	0
2	1061	1.41	0
2	1377	1.51	0
2	1693	1.61	0
2	2009	1.71	0
2	2325	1.81	0
2	2641	1.91	0
2	2963	2.01	0
2	3279	2.11	0
2	3595	2.21	0
2	3911	2.31	0
2	4227	2.41	0
2	4543	2.51	0
2	4859	2.61	0
2	5175	2.71	0
2	5491	2.81	0
2	5807	2.91	0
2	6129	3.01	0
2	6445	3.11	0
2	6761	3.21	0
2	7077	3.31	0
2	7393	3.41	0
2	7709	3.51	0
2	8025	3.61	0
2	8341	3.71	0
2	8657	3.81	0
2	8973	3.91	0
2	9295	4.01	0
2	9611	4.11	0
2	9927	4.21	0
2	10243	4.31	0
2	10559	4.41	0
2	10875	4.51	0
2	11191	4.61	0
2	11507	4.71	0
2	11823	4.81	0
2	12139	4.91	0
2	12461	5.01	0
2	12777	5.11	0
2	13093	5.21	0
2	13409	5.31	0
2	13725	5.41	0
2	14041	5.51	0
2	14357	5.61	0
2	14673	5.71	0
2	14989	5.81	0
2	15305	5.91	0
2	15627	6.01	0
2	15943	6.11	0
2	16259	6.21	0
2	16575	6.31	0
2	16891	6.41	0
2	17207	6.51	0
2	17523	6.61	0
2	17839	6.71	0
2	18155	6.81	0
2	18471	6.91	0
2	18793	7.01	0
2	19109	7.11	0
2	19425	7.21	0
2	19741	7.31	0
2	20057	7.41	0
2	20373	7.51	0
2	20689	7.61	0
2	21005	7.71	0
2	21321	7.81	0
2	21637	7.91	0
2	21959	8.01	0
2	22275	8.11	0
2	22591	8.21	0
2	22907	8.31	0
2	23223	8.41	0
2	23539	8.51	0
2	23855	8.61	0
2	24171	8.71	0
2	24487	8.81	0
2	24803	8.91	0
2	25125	9.01	0
2	25441	9.11	0
2	25757	9.21	0
2	26073	9.31	0
2	26389	9.41	0
2	26705	9.51	0
2	27021	9.61	0
2	27337	9.71	0
2	27653	9.81	0
2	27969	9.91	0
2	29285	10.01	0
2	29601	10.11	0
2	29917	10.21	0
2	30233	10.31	0
2	30549	10.41	0
2	30865	10.51	0
2	31181	10.61	0
2	31497	10.71	0
2	31813	10.81	0
2	32129	10.91	0
2	32451	11.01	0
2	32767	11.11	0
2	33083	11.21	0
2	33399	11.31	0
2	33715	11.41	0
2	34031	11.51	0
2	34347	11.61	0
2	34663	11.71	0
2	34979	11.81	0
2	35295	11.91	0
2	35617	12.01	0
2	35933	12.11	0
2	36249	12.21	0
2	36565	12.31	0
2	36881	12.41	0
2	37197	12.51	0
2	37513	12.61	0
2	37829	12.71	0
2	38145	12.81	0
2	38461	12.91	0
2	38783	13.01	0
2	39099	13.11	0
2	39415	13.21	0
2	39731	13.31	0
2	40047	13.41	0
2	40363	13.51	0
2	40679	13.61	0
2	40995	13.71	0
2	41311	13.81	0
2	41627	13.91	0
2	41949	14.01	0
2	42265	14.11	0
2	42581	14.21	0
2	42897	14.31	0
2	43213	14.41	0
2	43529	14.51	0
2	43845	14.61	0
2	44161	14.71	0
2	44477	14.81	0
2	44793	14.91	0
2	45115	15.01	0
2	45431	15.11	0
2	45747	15.21	0
2	46063	15.31	0
2	46379	15.41	0
2	46695	15.51	0
2	47011	15.61	0
2	47327	15.71	0
2	47643	15.81	0
2	47959	15.91	0
2	48281	16.01	0
2	48597	16.11	0
2	48913	16.21	0
2	49229	16.31	0
2	49545	16.41	0
2	49861	16.51	0
2	50177	16.61	0
2	50493	16.71	0
2	50809	16.81	0
2	51125	16.91	0
2	51447	17.01	0
2	51763	17.11	0
2	52079	17.21	0
2	52395	17.31	0
2	52711	17.41	0
2	53027	17.51	0
2	53343	17.61	0
2	53659	17.71	0
2	53975	17.81	0
2	54291	17.91	0
2	54613	18.01	0
2	54929	18.11	0
2	55245	18.21	0
2	55561	18.31	0
2	55877	18.41	0
2	56193	18.51	0
2	56509	18.61	0
2	56825	18.71	0
2	57141	18.81	0
2	57457	18.91	0
2	57779	19.01	0
2	58095	19.11	0
2	58411	19.21	0
2	58727	19.31	0
2	59043	19.41	0
2	59359	19.51	0
2	59675	19.61	0
2	59991	19.71	0
2	60307	19.81	0
2	60623	19.91	0
2	60945	20.01	0
2	61261	20.11	0
2	61577	20.21	0
2	61893	20.31	0
2	62209	20.41	0
2	62525	20.51	0
2	62841	20.61	0
2	63157	20.71	0
2	63473	20.81	0
2	63789	20.91	0
2	64111	21.01	0
2	64427	21.11	0
2	64743	21.21	0
2	65059	21.31	0
2	65375	21.41	0
2	65691	21.51	0
2	66007	21.61	0
2	66323	21.71	0
2	66639	21.81	0
2	66955	21.91	0
2	67277	22.01	0
2	67593	22.11	0
2	67909	22.21	0
2	68225	22.31	0
2	68541	22.41	0
2	68857	22.51	0
2	69173	22.61	0
2	69489	22.71	0
2	69805	22.81	0
2	70121	22.91	0
2	70443	23.01	0
2	70759	23.11	0
2	71075	23.21	0
2	71391	23.31	0
2	71707	23.41	0
2	72023	23.51	0
2	72339	23.61	0
2	72655	23.71	0
2	72971	23.81	0
2	73287	23.91	0
2	73609	24.01	0
2	73925	24.11	0
2	74241	24.21	0
2	74557	24.31	0
2	74873	24.41	0
2	75189	24.51	0
2	75505	24.61	0
2	75821	24.71	0
2	76137	24.81	0
2	76453	24.91	0
2	76775	25.01	0
2	77091	25.11	0
2	77407	25.21	0
2	77723	25.31	0
2	78039	25.41	0
2	78355	25.51	0
2	78671	25.61	0
2	78987	25.71	0
2	79303	25.81	0
2	79619	25.91	0
2	79941	26.01	0
2	80257	26.11	0
2	80573	26.21	0
2	80889	26.31	0
2	81205	26.41	0
2	81521	26.51	0
2	81837	26.61	0
2	82153	26.71	0
2	82469	26.81	0
2	82785	26.91	0
2	83107	27.01	0
2	83423	27.11	0
2	83739	27.21	0
2	84055	27.31	0
2	84371	27.41	0
2	84687	27.51	0
2	85003	27.61	0
2	85319	27.71	0
2	85635	27.81	0
2	85951	27.91	0
2	86273	28.01	0
2	86589	28.11	0
2	86905	28.21	0
2	87221	28.31	0
2	87537	28.41	0
2	87853	28.51	0
2	88169	28.61	0
2	88485	28.71	0
2	88801	28.81	0
2	89117	28.91	0
2	89439	29.01	0
2	89755	29.11	0
2	90071	29.21	0
2	90387	29.31	0
2	90703	29.41	0
2	91019	29.51	0
2	91335	29.61	0
2	91651	29.71	0
2	91967	29.81	0
2	92283	29.91	0
2	92605	30.01	0
2	92921	30.11	0
2	93237	30.21	0
2	93553	30.31	0
2	93869	30.41	0
2	94185	30.51	0
2	94501	30.61	0
2	94817	30.71	0
2	95133	30.81	0
2	95449	30.91	0
2	95771	31.01	0
2	96087	31.11	0
2	96403	31.21	0
2	96719	31.31	0
2	97035	31.41	0
2	97351	31.51	0
2	97667	31.61	0
2	97983	31.71	0
2	98299	31.81	0
2	98615	31.91	0
2	98937	32.01	0
2	99253	32.11	0
2	99569	32.21	0
2	99885	32.31	0
2	100201	32.41	0
2	100517	32.51	0
2	100833	32.61	0
2	101149	32.71	0
2	101465	32.81	0
2	101781	32.91	0
2	102103	33.01	0
2	102419	33.11	0
2	102735	33.21	0
2	103051	33.31	0
2	103367	33.41	0
2	103683	33.51	0
2	103999	33.61	0
2	104315	33.71	0
2	104631	33.81	0
2	104947	33.91	0
2	105269	34.01	0
2	105585	34.11	0
2	105901	34.21	0
2	106217	34.31	0
2	106533	34.41	0
2	106849	34.51	0
2	107165	34.61	0
2	107481	34.71	0
2	107797	34.81	0
2	108113	34.91	0
2	108435	35.01	0
2	108751	35.11	0
2	109067	35.21	0
2	109383	35.31	0
2	109699	35.41	0
2	110015	35.51	0
2	110331	35.61	0
2	110647	35.71	0
2	110963	35.81	0
2	111279	35.91	0
2	111601	36.01	0
2	111917	36.11	0
2	112233	36.21	0
2	112549	36.31	0
2	112865	36.41	0
2	113181	36.51	0
2	113497	36.61	0
2	113813	36.71	0
2	114129	36.81	0
2	114445	36.91	0
2	114767	37.01	0
2	115083	37.11	0
2	115399	37.21	0
2	115715	37.31	0
2	116031	37.41	0
2	116347	37.51	0
2	116663	37.61	0
2	116979	37.71	0
2	117295	37.81	0
2	117611	37.91	0
2	117933	38.01	0
2	118249	38.11	0
2	118565	38.21	0
2	118881	38.31	0
2	119197	38.41	0
2	119513	38.51	0
2	119829	38.61	0
2	120145	38.71	0
2	120461	38.81	0
2	120777	38.91	0
2	121099	39.01	0
2	121415	39.11	0
2	121731	39.21	0
2	122047	39.31	0
2	122363	39.41	0
2	122679	39.51	0
2	122995	39.61	0
2	123311	39.71	0
2	123627	39.81	0
2	123943	39.91	0
2	124265	40.01	0
2	124581	40.11	0
2	124897	40.21	0
2	125213	40.31	0
2	125529	40.41	0
2	125845	40.51	0
2	126161	40.61	0
2	126477	40.71	0
2	126793	40.81	0
2	127109	40.91	0
2	127431	41.01	0
2	127747	41.11	0
2	128063	41.21	0
2	128379	41.31	0
2	128695	41.41	0
2	129011	41.51	0
2	129327	41.61	0
2	129643	41.71	0
2	129959	41.81	0
2	130275	41.91	0
2	130597	42.01	0
2	130913	42.11	0
2	131229	42.21	0
2	131545	42.31	0
2	131861	42.41	0
2	132177	42.51	0
2	132493	42.61	0
2	132809	42.71	0
2	133125	42.81	0
2	133441	42.91	0
2	133763	43.01	0
2	134079	43.11	0
2	134395	43.21	0
2	134711	43.31	0
2	135027	43.41	0
2	135343	43.51	0
2	135659	43.61	0
2	135975	43.71	0
2	136291	43.81	0
2	136607	43.91	0
2	136929	44.01	0
2	137245	44.11	0
2	137561	44.21	0
2	137877	44.31	0
2	138193	44.41	0
2	138509	44.51	0
2	138825	44.61	0
2	139141	44.71	0
2	139457	44.81	0
2	139773	44.91	0
2	140095	45.01	0
2	140411	45.11	0
2	140727	45.21	0
2	141043	45.31	0
2	141359	45.41	0
2	141675	45.51	0
2	141991	45.61	0
2	142307	45.71	0
2	142623	45.81	0
2	142939	45.91	0
2	143261	46.01	0
2	143577	46.11	0
2	143893	46.21	0
2	144209	46.31	0
2	144525	46.41	0
2	144841	46.51	0
2	145157	46.61	0
2	145473	46.71	0
2	145789	46.81	0
2	146105	46.91	0
2	146427	47.01	0
2	146743	47.11	0
2	147059	47.21	0
2	147375	47.31	0
2	147691	47.41	0
2	148007	47.51	0
2	148323	47.61	0
2	148639	47.71	0
2	148955	47.81	0
2	149271	47.91	0
2	149593	48.01	0
2	149909	48.11	0
2	150225	48.21	0
2	150541	48.31	0
2	150857	48.41	0
2	151173	48.51	0
2	151489	48.61	0
2	151805	48.71	0
2	152121	48.81	0
2	152437	48.91	0
2	152759	49.01	0
2	153075	49.11	0
2	153391	49.21	0
2	153707	49.31	0
2	154023	49.41	0
2	154339	49.51	0
2	154655	49.61	0
2	154971	49.71	0
2	155287	49.81	0
2	155603	49.91	0
2	155925	50.01	0
2	156241	50.11	0
2	156557	50.21	0
2	156873	50.31	0
2	157189	50.41	0
2	157505	50.51	0
2	157821	50.61	0
2	158137	50.71	0
2	158453	50.81	0
2	158769	50.91	0
2	159091	51.01	0
2	159407	51.11	0
2	159723	51.21	0
2	160039	51.31	0
2	160355	51.41	0
2	160671	51.51	0
2	160987	51.61	0
2	161303	51.71	0
2	161619	51.81	0
2	161935	51.91	0
2	162257	52.01	0
2	162573	52.11	0
2	162889	52.21	0
2	163205	52.31	0
2	163521	52.41	0
2	163837	52.51	0
2	164153	52.61	0
2	164469	52.71	0
2	164785	52.81	0
2	165101	52.91	0
2	165423	53.01	0
2	165739	53.11	0
2	166055	53.21	0
2	166371	53.31	0
2	166687	53.41	0
2	167003	53.51	0
2	167319	53.61	0
2	167635	53.71	0
2	167951	53.81	0
2	168267	53.91	0
2	168589	54.01	0
2	168905	54.11	0
2	169221	54.21	0
2	169537	54.31	0
2	169853	54.41	0
2	170169	54.51	0
2	170485	54.61	0
2	170801	54.71	0
2	171117	54.81	0
2	171433	54.91	0
2	171755	55.01	0
2	172071	55.11	0
2	172387	55.21	0
2	172703	55.31	0
2	173019	55.41	0
2	173335	55.51	0
2	173651	55.61	0
2	173967	55.71	0
2	174283	55.81	0
2	174599	55.91	0
2	174921	56.01	0
2	175237	56.11	0
2	175553	56.21	0
2	175869	56.31	0
2	176185	56.41	0
2	176501	56.51	0
2	176817	56.61	0
2	177133	56.71	0
2	177449	56.81	0
2	177765	56.91	0
2	178087	57.01	0
2	178403	57.11	0
2	178719	57.21	0
2	179035	57.31	0
2	179351	57.41	0
2	179667	57.51	0
2	179983	57.61	0
2	180299	57.71	0
2	180615	57.81	0
2	180931	57.91	0
2	181253	58.01	0
2	181569	58.11	0
2	181885	58.21	0
2	182201	58.31	0
2	182517	58.41	0
2	182833	58.51	0
2	183149	58.61	0
2	183465	58.71	0
2	183781	58.81	0
2	184097	58.91	0
2	184419	59.01	0
2	184735	59.11	0
2	185051	59.21	0
2	185367	59.31	0
2	185683	59.41	0
2	185999	59.51	0
2	186315	59.61	0
2	186631	59.71	0
2	186947	59.81	0
2	187263	59.91	0
2	187585	60.01	0
2	187901	60.11	0
2	188217	60.21	0
2	188533	60.31	0
2	188849	60.41	0
2	189165	60.51	0
2	189481	60.61	0
2	189797	60.71	0
2	190113	60.81	0
2	190429	60.91	0
2	190751	61.01	0
2	191067	61.11	0
2	191383	61.21	0
2	191699	61.31	0
2	192015	61.41	0
2	192331	61.51	0
2	192647	61.61	0
2	192963	61.71	0
2	193279	61.81	0
2	193595	61.91	0
2	193917	62.01	0
2	194233	62.11	0
2	194549	62.21	0
2	194865	62.31	0
2	195181	62.41	0
2	195497	62.51	0
2	195813	62.61	0
2	196129	62.71	0
2	196445	62.81	0
2	196761	62.91	0
2	197083	63.01	0
2	197399	63.11	0
2	197715	63.21	0
2	198031	63.31	0
2	198347	63.41	0
2	198663	63.51	0
2	198979	63.61	0
2	199295	63.71	0
2	199611	63.81	0
2	199927	63.91	0
2	200249	64.01	0
2	200565	64.11	0
2	200881	64.21	0
2	201197	64.31	0
2	201513	64.41	0
2	201829	64.51	0
2	202145	64.61	0
2	202461	64.71	0
2	202777	64.81	0
2	203093	64.91	0
2	203415	65.01	0
2	203731	65.11	0
2	204047	65.21	0
2	204363	65.31	0
2	204679	65.41	0
2	204995	65.51	0
2	205311	65.61	0
2	205627	65.71	0
2	205943	65.81	0
2	206259	65.91	0
2	206581	66.01	0
2	206897	66.11	0
2	207213	66.21	0
2	207529	66.31	0
2	207845	66.41	0
2	208161	66.51	0
2	208477	66.61	0
2	208793	66.71	0
2	209109	66.81	0
2	209425	66.91	0
2	209747	67.01	0
2	210063	67.11	0
2	210379	67.21	0
2	210695	67.31	0
2	211011	67.41	0
2	211327	67.51	0
2	211643	67.61	0
2	211959	67.71	0
2	212275	67.81	0
2	212591	67.91	0
2	212913	68.01	0
2	213229	68.11	0
2	213545	68.21	0
2	213861	68.31	0
2	214177	68.41	0
2	214493	68.51	0
2	214809	68.61	0
2	215125	68.71	0
2	215441	68.81	0
2	215757	68.91	0
2	216079	69.01	0
2	216395	69.11	0
2	216711	69.21	0
2	217027	69.31	0
2	217343	69.41	0
2	217659	69.51	0
2	217975	69.61	0
2	218291	69.71	0
2	218607	69.81	0
2	218923	69.91	0
2	219245	70.01	0
2	219561	70.11	0
2	219877	70.21	0
2	220193	70.31	0
2	220509	70.41	0
2	220825	70.51	0
2	221141	70.61	0
2	221457	70.71	0
2	221773	70.81	0
2	222089	70.91	0
2	222411	71.01	0
2	222727	71.11	0
2	223043	71.21	0
2	223359	71.31	0
2	223675	71.41	0
2	223991	71.51	0
2	224307	71.61	0
2	224623	71.71	0
2	224939	71.81	0
2	225255	71.91	0
2	225577	72.01	0
2	225893	72.11	0
2	226209	72.21	0
2	226525	72.31	0
2	226841	72.41	0
2	227157	72.51	0
2	227473	72.61	0
2	227789	72.71	0
2	228105	72.81	0
2	228421	72.91	0
2	228743	73.01	0
2	229059	73.11	0
2	229375	73.21	0
2	229691	73.31	0
2	230007	73.41	0
2	230323	73.51	0
2	230639	73.61	0
2	230955	73.71	0
2	231271	73.81	0
2	231587	73.91	0
2	231909	74.01	0
2	232225	74.11	0
2	232541	74.21	0
2	232857	74.31	0
2	233173	74.41	0
2	233489	74.51	0
2	233805	74.61	0
2	234121	74.71	0
2	234437	74.81	0
2	234753	74.91	0
2	235075	75.01	0
2	235391	75.11	0
2	235707	75.21	0
2	236023	75.31	0
2	236339	75.41	0
2	236655	75.51	0
2	236971	75.61	0
2	237287	75.71	0
2	237603	75.81	0
2	237919	75.91	0
2	238241	76.01	0
2	238557	76.11	0
2	238873	76.21	0
2	239189	76.31	0
2	239505	76.41	0
2	239821	76.51	0
2	240137	76.61	0
2	240453	76.71	0
2	240769	76.81	0
2	241085	76.91	0
2	241407	77.01	0
2	241723	77.11	0
2	242039	77.21	0
2	242355	77.31	0
2	242671	77.41	0
2	242987	77.51	0
2	243303	77.61	0
2	243619	77.71	0
2	243935	77.81	0
2	244251	77.91	0
2	244573	78.01	0
2	244889	78.11	0
2	245205	78.21	0
2	245521	78.31	0
2	245837	78.41	0
2	246153	78.51	0
2	246469	78.61	0
2	246785	78.71	0
2	247101	78.81	0
2	247417	78.91	0
2	247739	79.01	0
2	248055	79.11	0
2	248371	79.21	0
2	248687	79.31	0
2	249003	79.41	0
2	249319	79.51	0
2	249635	79.61	0
2	249951	79.71	0
2	250267	79.81	0
2	250583	79.91	0
2	250905	80.01	0
2	251221	80.11	0
2	251537	80.21	0
2	251853	80.31	0
2	252169	80.41	0
2	252485	80.51	0
2	252801	80.61	0
2	253117	80.71	0
2	253433	80.81	0
2	253749	80.91	0
2	254071	81.01	0
2	254387	81.11	0
2	254703	81.21	0
2	255019	81.31	0
2	255335	81.41	0
2	255651	81.51	0
2	255967	81.61	0
2	256283	81.71	0
2	256599	81.81	0
2	256915	81.91	0
2	257237	82.01	0
2	257553	82.11	0
2	257869	82.21	0
2	258185	82.31	0
2	258501	82.41	0
2	258817	82.51	0
2	259133	82.61	0
2	259449	82.71	0
2	259765	82.81	0
2	260081	82.91	0
2	260403	83.01	0
2	260719	83.11	0
2	261035	83.21	0
2	261351	83.31	0
2	261667	83.41	0
2	261983	83.51	0
2	262299	83.61	0
2	262615	83.71	0
2	262931	83.81	0
2	263247	83.91	0
2	263569	84.01	0
2	263885	84.11	0
2	264201	84.21	0
2	264517	84.31	0
2	264833	84.41	0
2	265149	84.51	0
2	265465	84.61	0
2	265781	84.71	0
2	266097	84.81	0
2	266413	84.91	0
2	266735	85.01	0
2	267051	85.11	0
2	267367	85.21	0
2	267683	85.31	0
2	267999	85.41	0
2	268315	85.51	0
2	268631	85.61	0
2	268947	85.71	0
2	269263	85.81	0
2	269579	85.91	0
2	269901	86.01	0
2	270217	86.11	0
2	270533	86.21	0
2	270849	86.31	0
2	271165	86.41	0
2	271481	86.51	0
2	271797	86.61	0
2	272113	86.71	0
2	272429	86.81	0
2	272745	86.91	0
2	273067	87.01	0
2	273383	87.11	0
2	273699	87.21	0
2	274015	87.31	0
2	274331	87.41	0
2	274647	87.51	0
2	274963	87.61	0
2	275279	87.71	0
2	275595	87.81	0
2	275911	87.91	0
2	276233	88.01	0
2	276549	88.11	0
2	276865	88.21	0
2	277181	88.31	0
2	277497	88.41	0
2	277813	88.51	0
2	278129	88.61	0
2	278445	88.71	0
2	278761	88.81	0
2	279077	88.91	0
2	279399	89.01	0
2	279715	89.11	0
2	280031	89.21	0
2	280347	89.31	0
2	280663	89.41	0
2	280979	89.51	0
2	281295	89.61	0
2	281611	89.71	0
2	281927	89.81	0
2	282243	89.91	0
2	282565	90.01	0
2	282881	90.11	0
2	283197	90.21	0
2	283513	90.31	0
2	283829	90.41	0
2	284145	90.51	0
2	284461	90.61	0
2	284777	90.71	0
2	285093	90.81	0
2	285409	90.91	0
2	285731	91.01	0
2	286047	91.11	0
2	286363	91.21	0
2	286679	91.31	0
2	286995	91.41	0
2	287311	91.51	0
2	287627	91.61	0
2	287943	91.71	0
2	288259	91.81	0
2	288575	91.91	0
2	288897	92.01	0
2	289213	92.11	0
2	289529	92.21	0
2	289845	92.31	0
2	290161	92.41	0
2	290477	92.51	0
2	290793	92.61	0
2	291109	92.71	0
2	291425	92.81	0
2	291741	92.91	0
2	292063	93.01	0
2	292379	93.11	0
2	292695	93.21	0
2	293011	93.31	0
2	293327	93.41	0
2	293643	93.51	0
2	293959	93.61	0
2	294275	93.71	0
2	294591	93.81	0
2	294907	93.91	0
2	295229	94.01	0
2	295545	94.11	0
2	295861	94.21	0
2	296177	94.31	0
2	296493	94.41	0
2	296809	94.51	0
2	297125	94.61	0
2	297441	94.71	0
2	297757	94.81	0
2	298073	94.91	0
2	298395	95.01	0
2	298711	95.11	0
2	299027	95.21	0
2	299343	95.31	0
2	299659	95.41	0
2	299975	95.51	0
2	300291	95.61	0
2	300607	95.71	0
2	300923	95.81	0
2	301239	95.91	0
2	301561	96.01	0
2	301877	96.11	0
2	302193	96.21	0
2	302509	96.31	0
2	302825	96.41	0
2	303141	96.51	0
2	303457	96.61	0
2	303773	96.71	0
2	304089	96.81	0
2	304405	96.91	0
2	304727	97.01	0
2	305043	97.11	0
2	305359	97.21	0
2	305675	97.31	0
2	305991	97.41	0
2	306307	97.51	0
2	306623	97.61	0
2	306939	97.71	0
2	307255	97.81	0
2	307571	97.91	0
2	307893	98.01	0
2	308209	98.11	0
2	308525	98.21	0
2	308841	98.31	0
2	309157	98.41	0
2	309473	98.51	0
2	309789	98.61	0
2	310105	98.71	0
2	310421	98.81	0
2	310737	98.91	0
2	311059	99.01	0
2	311375	99.11	0
2	311691	99.21	0
2	312007	99.31	0
2	312323	99.41	0
2	312639	99.51	0
2	312955	99.61	0
2	313271	99.71	0
2	313587	99.81	0
2	313903	99.91	0
3	113	1.11	0.000179096
3	429	1.21	0.000340852
3	745	1.31	0.000467435
3	1061	1.41	0.000562893
3	1377	1.51	0.000631106
3	1693	1.61	0.000675745
3	2009	1.71	0.000700245
3	2325	1.81	0.000707784
3	2641	1.91	0.000701273
3	2963	2.01	0.000683354
3	3279	2.11	0.000656398
3	3595	2.21	0.000622512
3	3911	2.31	0.000583548
3	4227	2.41	0.000541117
3	4543	2.51	0.000496604
3	4859	2.61	0.000451181
3	5175	2.71	0.000405825
3	5491	2.81	0.00036134
3	5807	2.91	0.000318365
3	6129	3.01	0.0002774
3	6445	3.11	0.00023882
3	6761	3.21	0.000202887
3	7077	3.31	0.00016977
3	7393	3.41	0.000139558
3	7709	3.51	0.000112271
3	8025	3.61	8.78717e-05
3	8341	3.71	6.628e-05
3	8657	3.81	4.73785e-05
3	8973	3.91	3.1023e-05
3	9295	4.01	1.70493e-05
3	9611	4.11	5.28023e-06
3	9927	4.21	-4.46922e-06
3	10243	4.31	-1.2387e-05
3	10559	4.41	-1.86602e-05
3	10875	4.51	-2.34717e-05
3	11191	4.61	-2.69978e-05
3	11507	4.71	-2.94062e-05
3	11823	4.81	-3.08545e-05
3	12139	4.91	-3.14892e-05
3	12461	5.01	-3.14451e-05
3	12777	5.11	-3.0845e-05
3	13093	5.21	-2.97994e-05
3	13409	5.31	-2.84072e-05
3	13725	5.41	-2.67556e-05
3	14041	5.51	-2.49208e-05
3	14357	5.61	-2.29687e-05
3	14673	5.71	-2.09553e-05
3	14989	5.81	-1.89277e-05
3	15305	5.91	-1.6925e-05
3	15627	6.01	-1.49784e-05
3	15943	6.11	-1.31129e-05
3	16259	6.21	-1.13474e-05
3	16575	6.31	-9.69553e-06
3	16891	6.41	-8.16651e-06
3	17207	6.51	-6.76571e-06
3	17523	6.61	-5.49522e-06
3	17839	6.71	-4.35441e-06
3	18155	6.81	-3.34045e-06
3	18471	6.91	-2.44874e-06
3	18793	7.01	-1.6733e-06
3	19109	7.11	-1.00716e-06
3	19425	7.21	-4.42628e-07
3	19741	7.31	2.84224e-08
3	20057	7.41	4.14339e-07
3	20373	7.51	7.23492e-07
3	20689	7.61	9.6413e-07
3	21005	7.71	1.14424e-06
3	21321	7.81	1.27148e-06
3	21637	7.91	1.35305e-06
3	21959	8.01	1.3957e-06
3	22275	8.11	1.40565e-06
3	22591	8.21	1.3886e-06
3	22907	8.31	1.34971e-06
3	23223	8.41	1.2936e-06
3	23539	8.51	1.22437e-06
3	23855	8.61	1.14561e-06
3	24171	8.71	1.06046e-06
3	24487	8.81	9.71582e-07
3	24803	8.91	8.81246e-07
3	25125	9.01	7.91334e-07
3	25441	9.11	7.03381e-07
3	25757	9.21	6.18613e-07
3	26073	9.31	5.37979e-07
3	26389	9.41	4.62183e-07
3	26705	9.51	3.91714e-07
3	27021	9.61	3.26878e-07
3	27337	9.71	2.67827e-07
3	27653	9.81	2.14581e-07
3	27969	9.91	1.67052e-07
3	29285	10.01	1.25066e-07
3	29601	10.11	8.83794e-08
3	29917	10.21	5.66978e-08
3	30233	10.31	2.96922e-08
3	30549	10.41	7.00453e-09
3	30865	10.51	-1.17325e-08
3	31181	10.61	-2.68933e-08
3	31497	10.71	-3.88482e-08
3	31813	10.81	-4.79581e-08
3	32129	10.91	-5.45704e-08
3	32451	11.01	-5.90177e-08
3	32767	11.11	-6.16069e-08
3	33083	11.21	-6.26265e-08
3	33399	11.31	-6.23395e-08
3	33715	11.41	-6.09859e-08
3	34031	11.51	-5.87811e-08
3	34347	11.61	-5.59183e-08
3	34663	11.71	-5.25674e-08
3	34979	11.81	-4.88761e-08
3	35295	11.91	-4.4971e-08
3	35617	12.01	-4.09599e-08
3	35933	12.11	-3.69354e-08
3	36249	12.21	-3.29713e-08
3	36565	12.31	-2.9128e-08
3	36881	12.41	-2.54531e-08
3	37197	12.51	-2.19821e-08
3	37513	12.61	-1.87399e-08
3	37829	12.71	-1.57428e-08
3	38145	12.81	-1.30029e-08
3	38461	12.91	-1.05217e-08
3	38783	13.01	-8.29772e-09
3	39099	13.11	-6.32454e-09
3	39415	13.21	-4.59224e-09
3	39731	13.31	-3.08802e-09
3	40047	13.41	-1.79838e-09
3	40363	13.51	-7.08411e-10
3	40679	13.61	1.98241e-10
3	40995	13.71	9.37916e-10
3	41311	13.81	1.52767e-09
3	41627	13.91	1.98384e-09
3	41949	14.01	2.32276e-09
3	42265	14.11	2.55937e-09
3	42581	14.21	2.70788e-09
3	42897	14.31	2.78249e-09
3	43213	14.41	2.79243e-09
3	43529	14.51	2.7498e-09
3	43845	14.61	2.66525e-09
3	44161	14.71	2.54872e-09
3	44477	14.81	2.40803e-09
3	44793	14.91	2.24887e-09
3	45115	15.01	2.07763e-09
3	45431	15.11	1.89999e-09
3	45747	15.21	1.72236e-09
3	46063	15.31	1.54472e-09
3	46379	15.41	1.37064e-09
3	46695	15.51	1.20295e-09
3	47011	15.61	1.04379e-09
3	47327	15.71	8.94573e-10
3	47643	15.81	7.56017e-10
3	47959	15.91	6.29541e-10
3	48281	16.01	5.13012e-10
3	48597	16.11	4.09273e-10
3	48913	16.21	3.16902e-10
3	49229	16.31	2.3519e-10
3	49545	16.41	1.63425e-10
3	49861	16.51	1.02318e-10
3	50177	16.61	4.9738e-11
3	50493	16.71	5.68434e-12
3	50809	16.81	-3.05533e-11
3	51125	16.91	-5.8975e-11
3	51447	17.01	-8.10019e-11
3	51763	17.11	-9.80549e-11
3	52079	17.21	-1.11555e-10
3	52395	17.31	-1.18661e-10
3	52711	17.41	-1.23634e-10
3	53027	17.51	-1.23634e-10
3	53343	17.61	-1.23634e-10
3	53659	17.71	-1.21503e-10
3	53975	17.81	-1.14397e-10
3	54291	17.91	-1.07292e-10
3	54613	18.01	-1.00187e-10
3	54929	18.11	-9.30811e-11
3	55245	18.21	-8.59757e-11
3	55561	18.31	-7.88702e-11
3	55877	18.41	-7.17648e-11
3	56193	18.51	-6.46594e-11
3	56509	18.61	-5.7554e-11
3	56825	18.71	-5.04485e-11
3	57141	18.81	-4.33431e-11
3	57457	18.91	-3.62377e-11
3	57779	19.01	-2.91323e-11
3	58095	19.11	-2.20268e-11
3	58411	19.21	-1.7053e-11
3	58727	19.31	-1.49214e-11
3	59043	19.41	-1.35003e-11
3	59359	19.51	-1.27898e-11
3	59675	19.61	-1.13687e-11
3	59991	19.71	-9.9476e-12
3	60307	19.81	-9.23706e-12
3	60623	19.91	-8.52651e-12
3	60945	20.01	-7.81597e-12
3	61261	20.11	-7.10543e-12
3	61577	20.21	-6.39488e-12
3	61893	20.31	-5.68434e-12
3	62209	20.41	-4.9738e-12
3	62525	20.51	-4.26326e-12
3	62841	20.61	-4.26326e-12
3	63157	20.71	-3.55271e-12
3	63473	20.81	-3.55271e-12
3	63789	20.91	-2.84217e-12
3	64111	21.01	-2.84217e-12
3	64427	21.11	-2.84217e-12
3	64743	21.21	-2.13163e-12
3	65059	21.31	-2.13163e-12
3	65375	21.41	-2.13163e-12
3	65691	21.51	-1.42109e-12
3	66007	21.61	-1.42109e-12
3	66323	21.71	-1.42109e-12
3	66639	21.81	-1.42109e-12
3	66955	21.91	-1.42109e-12
3	67277	22.01	-7.10543e-13
3	67593	22.11	-7.10543e-13
3	67909	22.21	-7.10543e-13
3	68225	22.31	-7.10543e-13
3	68541	22.41	-7.10543e-13
3	68857	22.51	-7.10543e-13
3	69173	22.61	-7.10543e-13
3	69489	22.71	-7.10543e-13
3	69805	22.81	-7.10543e-13
3	70121	22.91	-7.10543e-13
3	70443	23.01	0
3	70759	23.11	0
3	71075	23.21	0
3	71391	23.31	0
3	71707	23.41	0
3	72023	23.51	0
3	72339	23.61	0
3	72655	23.71	0
3	72971	23.81	0
3	73287	23.91	0
3	73609	24.01	0
3	73925	24.11	0
3	74241	24.21	0
3	74557	24.31	0
3	74873	24.41	0
3	75189	24.51	0
3	75505	24.61	0
3	75821	24.71	0
3	76137	24.81	0
3	76453	24.91	0
3	76775	25.01	0
3	77091	25.11	0
3	77407	25.21	0
3	77723	25.31	0
3	78039	25.41	0
3	78355	25.51	0
3	78671	25.61	0
3	78987	25.71	0
3	79303	25.81	0
3	79619	25.91	0
3	79941	26.01	0
3	80257	26.11	0
3	80573	26.21	0
3	80889	26.31	0
3	81205	26.41	0
3	81521	26.51	0
3	81837	26.61	0
3	82153	26.71	0
3	82469	26.81	0
3	82785	26.91	0
3	83107	27.01	0
3	83423	27.11	0
3	83739	27.21	0
3	84055	27.31	0
3	84371	27.41	0
3	84687	27.51	0
3	85003	27.61	0
3	85319	27.71	0
3	85635	27.81	0
3	85951	27.91	0
3	86273	28.01	0
3	86589	28.11	0
3	86905	28.21	0
3	87221	28.31	0
3	87537	28.41	0
3	87853	28.51	0
3	88169	28.61	0
3	88485	28.71	0
3	88801	28.81	0
3	89117	28.91	0
3	89439	29.01	0
3	89755	29.11	0
3	90071	29.21	0
3	90387	29.31	0
3	90703	29.41	0
3	91019	29.51	0
3	91335	29.61	0
3	91651	29.71	0
3	91967	29.81	0
3	92283	29.91	0
3	92605	30.01	0
3	92921	30.11	0
3	93237	30.21	0
3	93553	30.31	0
3	93869	30.41	0
3	94185	30.51	0
3	94501	30.61	0
3	94817	30.71	0
3	95133	30.81	0
3	95449	30.91	0
3	95771	31.01	0
3	96087	31.11	0
3	96403	31.21	0
3	96719	31.31	0
3	97035	31.41	0
3	97351	31.51	0
3	97667	31.61	0
3	97983	31.71	0
3	98299	31.81	0
3	98615	31.91	0
3	98937	32.01	0
3	99253	32.11	0
3	99569	32.21	0
3	99885	32.31	0
3	100201	32.41	0
3	100517	32.51	0
3	100833	32.61	0
3	101149	32.71	0
3	101465	32.81	0
3	101781	32.91	0
3	102103	33.01	0
3	102419	33.11	0
3	102735	33.21	0
3	103051	33.31	0
3	103367	33.41	0
3	103683	33.51	0
3	103999	33.61	0
3	104315	33.71	0
3	104631	33.81	0
3	104947	33.91	0
3	105269	34.01	0
3	105585	34.11	0
3	105901	34.21	0
3	106217	34.31	0
3	106533	34.41	0
3	106849	34.51	0
3	107165	34.61	0
3	107481	34.71	0
3	107797	34.81	0
3	108113	34.91	0
3	108435	35.01	0
3	108751	35.11	0
3	109067	35.21	0
3	109383	35.31	0
3	109699	35.41	0
3	110015	35.51	0
3	110331	35.61	0
3	110647	35.71	0
3	110963	35.81	0
3	111279	35.91	0
3	111601	36.01	0
3	111917	36.11	0
3	112233	36.21	0
3	112549	36.31	0
3	112865	36.41	0
3	113181	36.51	0
3	113497	36.61	0
3	113813	36.71	0
3	114129	36.81	0
3	114445	36.91	0
3	114767	37.01	0
3	115083	37.11	0
3	115399	37.21	0
3	115715	37.31	0
3	116031	37.41	0
3	116347	37.51	0
3	116663	37.61	0
3	116979	37.71	0
3	117295	37.81	0
3	117611	37.91	0
3	117933	38.01	0
3	118249	38.11	0
3	118565	38.21	0
3	118881	38.31	0
3	119197	38.41	0
3	119513	38.51	0
3	119829	38.61	0
3	120145	38.71	0
3	120461	38.81	0
3	120777	38.91	0
3	121099	39.01	0
3	121415	39.11	0
3	121731	39.21	0
3	122047	39.31	0
3	122363	39.41	0
3	122679	39.51	0
3	122995	39.61	0
3	123311	39.71	0
3	123627	39.81	0
3	123943	39.91	0
3	124265	40.01	0
3	124581	40.11	0
3	124897	40.21	0
3	125213	40.31	0
3	125529	40.41	0
3	125845	40.51	0
3	126161	40.61	0
3	126477	40.71	0
3	126793	40.81	0
3	127109	40.91	0
3	127431	41.01	0
3	127747	41.11	0
3	128063	41.21	0
3	128379	41.31	0
3	128695	41.41	0
3	129011	41.51	0
3	129327	41.61	0
3	129643	41.71	0
3	129959	41.81	0
3	130275	41.91	0
3	130597	42.01	0
3	130913	42.11	0
3	131229	42.21	0
3	131545	42.31	0
3	131861	42.41	0
3	132177	42.51	0
3	132493	42.61	0
3	132809	42.71	0
3	133125	42.81	0
3	133441	42.91	0
3	133763	43.01	0
3	134079	43.11	0
3	134395	43.21	0
3	134711	43.31	0
3	135027	43.41	0
3	135343	43.51	0
3	135659	43.61	0
3	135975	43.71	0
3	136291	43.81	0
3	136607	43.91	0
3	136929	44.01	0
3	137245	44.11	0
3	137561	44.21	0
3	137877	44.31	0
3	138193	44.41	0
3	138509	44.51	0
3	138825	44.61	0
3	139141	44.71	0
3	139457	44.81	0
3	139773	44.91	0
3	140095	45.01	0
3	140411	45.11	0
3	140727	45.21	0
3	141043	45.31	0
3	141359	45.41	0
3	141675	45.51	0
3	141991	45.61	0
3	142307	45.71	0
3	142623	45.81	0
3	142939	45.91	0
3	143261	46.01	0
3	143577	46.11	0
3	143893	46.21	0
3	144209	46.31	0
3	144525	46.41	0
3	144841	46.51	0
3	145157	46.61	0
3	145473	46.71	0
3	145789	46.81	0
3	146105	46.91	0
3	146427	47.01	0
3	146743	47.11	0
3	147059	47.21	0
3	147375	47.31	0
3	147691	47.41	0
3	148007	47.51	0
3	148323	47.61	0
3	148639	47.71	0
3	148955	47.81	0
3	149271	47.91	0
3	149593	48.01	0
3	149909	48.11	0
3	150225	48.21	0
3	150541	48.31	0
3	150857	48.41	0
3	151173	48.51	0
3	151489	48.61	0
3	151805	48.71	0
3	152121	48.81	0
3	152437	48.91	0
3	152759	49.01	0
3	153075	49.11	0
3	153391	49.21	0
3	153707	49.31	0
3	154023	49.41	0
3	154339	49.51	0
3	154655	49.61	0
3	154971	49.71	0
3	155287	49.81	0
3	155603	49.91	0
3	155925	50.01	0
3	156241	50.11	0
3	156557	50.21	0
3	156873	50.31	0
3	157189	50.41	0
3	157505	50.51	0
3	157821	50.61	0
3	158137	50.71	0
3	158453	50.81	0
3	158769	50.91	0
3	159091	51.01	0
3	159407	51.11	0
3	159723	51.21	0
3	160039	51.31	0
3	160355	51.41	0
3	160671	51.51	0
3	160987	51.61	0
3	161303	51.71	0
3	161619	51.81	0
3	161935	51.91	0
3	162257	52.01	0
3	162573	52.11	0
3	162889	52.21	0
3	163205	52.31	0
3	163521	52.41	0
3	163837	52.51	0
3	164153	52.61	0
3	164469	52.71	0
3	164785	52.81	0
3	165101	52.91	0
3	165423	53.01	0
3	165739	53.11	0
3	166055	53.21	0
3	166371	53.31	0
3	166687	53.41	0
3	167003	53.51	0
3	167319	53.61	0
3	167635	53.71	0
3	167951	53.81	0
3	168267	53.91	0
3	168589	54.01	0
3	168905	54.11	0
3	169221	54.21	0
3	169537	54.31	0
3	169853	54.41	0
3	170169	54.51	0
3	170485	54.61	0
3	170801	54.71	0
3	171117	54.81	0
3	171433	54.91	0
3	171755	55.01	0
3	172071	55.11	0
3	172387	55.21	0
3	172703	55.31	0
3	173019	55.41	0
3	173335	55.51	0
3	173651	55.61	0
3	173967	55.71	0
3	174283	55.81	0
3	174599	55.91	0
3	174921	56.01	0
3	175237	56.11	0
3	175553	56.21	0
3	175869	56.31	0
3	176185	56.41	0
3	176501	56.51	0
3	176817	56.61	0
3	177133	56.71	0
3	177449	56.81	0
3	177765	56.91	0
3	178087	57.01	0
3	178403	57.11	0
3	178719	57.21	0
3	179035	57.31	0
3	179351	57.41	0
3	179667	57.51	0
3	179983	57.61	0
3	180299	57.71	0
3	180615	57.81	0
3	180931	57.91	0
3	181253	58.01	0
3	181569	58.11	0
3	181885	58.21	0
3	182201	58.31	0
3	182517	58.41	0
3	182833	58.51	0
3	183149	58.61	0
3	183465	58.71	0
3	183781	58.81	0
3	184097	58.91	0
3	184419	59.01	0
3	184735	59.11	0
3	185051	59.21	0
3	185367	59.31	0
3	185683	59.41	0
3	185999	59.51	0
3	186315	59.61	0
3	186631	59.71	0
3	186947	59.81	0
3	187263	59.91	0
3	187585	60.01	0
3	187901	60.11	0
3	188217	60.21	0
3	188533	60.31	0
3	188849	60.41	0
3	189165	60.51	0
3	189481	60.61	0
3	189797	60.71	0
3	190113	60.81	0
3	190429	60.91	0
3	190751	61.01	0
3	191067	61.11	0
3	191383	61.21	0
3	191699	61.31	0
3	192015	61.41	0
3	192331	61.51	0
3	192647	61.61	0
3	192963	61.71	0
3	193279	61.81	0
3	193595	61.91	0
3	193917	62.01	0
3	194233	62.11	0
3	194549	62.21	0
3	194865	62.31	0
3	195181	62.41	0
3	195497	62.51	0
3	195813	62.61	0
3	196129	62.71	0
3	196445	62.81	0
3	196761	62.91	0
3	197083	63.01	0
3	197399	63.11	0
3	197715	63.21	0
3	198031	63.31	0
3	198347	63.41	0
3	198663	63.51	0
3	198979	63.61	0
3	199295	63.71	0
3	199611	63.81	0
3	199927	63.91	0
3	200249	64.01	0
3	200565	64.11	0
3	200881	64.21	0
3	201197	64.31	0
3	201513	64.41	0
3	201829	64.51	0
3	202145	64.61	0
3	202461	64.71	0
3	202777	64.81	0
3	203093	64.91	0
3	203415	65.01	0
3	203731	65.11	0
3	204047	65.21	0
3	204363	65.31	0
3	204679	65.41	0
3	204995	65.51	0
3	205311	65.61	0
3	205627	65.71	0
3	205943	65.81	0
3	206259	65.91	0
3	206581	66.01	0
3	206897	66.11	0
3	207213	66.21	0
3	207529	66.31	0
3	207845	66.41	0
3	208161	66.51	0
3	208477	66.61	0
3	208793	66.71	0
3	209109	66.81	0
3	209425	66.91	0
3	209747	67.01	0
3	210063	67.11	0
3	210379	67.21	0
3	210695	67.31	0
3	211011	67.41	0
3	211327	67.51	0
3	211643	67.61	0
3	211959	67.71	0
3	212275	67.81	0
3	212591	67.91	0
3	212913	68.01	0
3	213229	68.11	0
3	213545	68.21	0
3	213861	68.31	0
3	214177	68.41	0
3	214493	68.51	0
3	214809	68.61	0
3	215125	68.71	0
3	215441	68.81	0
3	215757	68.91	0
3	216079	69.01	0
3	216395	69.11	0
3	216711	69.21	0
3	217027	69.31	0
3	217343	69.41	0
3	217659	69.51	0
3	217975	69.61	0
3	218291	69.71	0
3	218607	69.81	0
3	218923	69.91	0
3	219245	70.01	0
3	219561	70.11	0
3	219877	70.21	0
3	220193	70.31	0
3	220509	70.41	0
3	220825	70.51	0
3	221141	70.61	0
3	221457	70.71	0
3	221773	70.81	0
3	222089	70.91	0
3	222411	71.01	0
3	222727	71.11	0
3	223043	71.21	0
3	223359	71.31	0
3	223675	71.41	0
3	223991	71.51	0
3	224307	71.61	0
3	224623	71.71	0
3	224939	71.81	0
3	225255	71.91	0
3	225577	72.01	0
3	225893	72.11	0
3	226209	72.21	0
3	226525	72.31	0
3	226841	72.41	0
3	227157	72.51	0
3	227473	72.61	0
3	227789	72.71	0
3	228105	72.81	0
3	228421	72.91	0
3	228743	73.01	0
3	229059	73.11	0
3	229375	73.21	0
3	229691	73.31	0
3	230007	73.41	0
3	230323	73.51	0
3	230639	73.61	0
3	230955	73.71	0
3	231271	73.81	0
3	231587	73.91	0
3	231909	74.01	0
3	232225	74.11	0
3	232541	74.21	0
3	232857	74.31	0
3	233173	74.41	0
3	233489	74.51	0
3	233805	74.61	0
3	234121	74.71	0
3	234437	74.81	0
3	234753	74.91	0
3	235075	75.01	0
3	235391	75.11	0
3	235707	75.21	0
3	236023	75.31	0
3	236339	75.41	0
3	236655	75.51	0
3	236971	75.61	0
3	237287	75.71	0
3	237603	75.81	0
3	237919	75.91	0
3	238241	76.01	0
3	238557	76.11	0
3	238873	76.21	0
3	239189	76.31	0
3	239505	76.41	0
3	239821	76.51	0
3	240137	76.61	0
3	240453	76.71	0
3	240769	76.81	0
3	241085	76.91	0
3	241407	77.01	0
3	241723	77.11	0
3	242039	77.21	0
3	242355	77.31	0
3	242671	77.41	0
3	242987	77.51	0
3	243303	77.61	0
3	243619	77.71	0
3	243935	77.81	0
3	244251	77.91	0
3	244573	78.01	0
3	244889	78.11	0
3	245205	78.21	0
3	245521	78.31	0
3	245837	78.41	0
3	246153	78.51	0
3	246469	78.61	0
3	246785	78.71	0
3	247101	78.81	0
3	247417	78.91	0
3	247739	79.01	0
3	248055	79.11	0
3	248371	79.21	0
3	248687	79.31	0
3	249003	79.41	0
3	249319	79.51	0
3	249635	79.61	0
3	249951	79.71	0
3	250267	79.81	0
3	250583	79.91	0
3	250905	80.01	0
3	251221	80.11	0
3	251537	80.21	0
3	251853	80.31	0
3	252169	80.41	0
3	252485	80.51	0
3	252801	80.61	0
3	253117	80.71	0
3	253433	80.81	0
3	253749	80.91	0
3	254071	81.01	0
3	254387	81.11	0
3	254703	81.21	0
3	255019	81.31	0
3	255335	81.41	0
3	255651	81.51	0
3	255967	81.61	0
3	256283	81.71	0
3	256599	81.81	0
3	256915	81.91	0
3	257237	82.01	0
3	257553	82.11	0
3	257869	82.21	0
3	258185	82.31	0
3	258501	82.41	0
3	258817	82.51	0
3	259133	82.61	0
3	259449	82.71	0
3	259765	82.81	0
3	260081	82.91	0
3	260403	83.01	0
3	260719	83.11	0
3	261035	83.21	0
3	261351	83.31	0
3	261667	83.41	0
3	261983	83.51	0
3	262299	83.61	0
3	262615	83.71	0
3	262931	83.81	0
3	263247	83.91	0
3	263569	84.01	0
3	263885	84.11	0
3	264201	84.21	0
3	264517	84.31	0
3	264833	84.41	0
3	265149	84.51	0
3	265465	84.61	0
3	265781	84.71	0
3	266097	84.81	0
3	266413	84.91	0
3	266735	85.01	0
3	267051	85.11	0
3	267367	85.21	0
3	267683	85.31	0
3	267999	85.41	0
3	268315	85.51	0
3	268631	85.61	0
3	268947	85.71	0
3	269263	85.81	0
3	269579	85.91	0
3	269901	86.01	0
3	270217	86.11	0
3	270533	86.21	0
3	270849	86.31	0
3	271165	86.41	0
3	271481	86.51	0
3	271797	86.61	0
3	272113	86.71	0
3	272429	86.81	0
3	272745	86.91	0
3	273067	87.01	0
3	273383	87.11	0
3	273699	87.21	0
3	274015	87.31	0
3	274331	87.41	0
3	274647	87.51	0
3	274963	87.61	0
3	275279	87.71	0
3	275595	87.81	0
3	275911	87.91	0
3	276233	88.01	0
3	276549	88.11	0
3	276865	88.21	0
3	277181	88.31	0
3	277497	88.41	0
3	277813	88.51	0
3	278129	88.61	0
3	278445	88.71	0
3	278761	88.81	0
3	279077	88.91	0
3	279399	89.01	0
3	279715	89.11	0
3	280031	89.21	0
3	280347	89.31	0
3	280663	89.41	0
3	280979	89.51	0
3	281295	89.61	0
3	281611	89.71	0
3	281927	89.81	0
3	282243	89.91	0
3	282565	90.01	0
3	282881	90.11	0
3	283197	90.21	0
3	283513	90.31	0
3	283829	90.41	0
3	284145	90.51	0
3	284461	90.61	0
3	284777	90.71	0
3	285093	90.81	0
3	285409	90.91	0
3	285731	91.01	0
3	286047	91.11	0
3	286363	91.21	0
3	286679	91.31	0
3	286995	91.41	0
3	287311	91.51	0
3	287627	91.61	0
3	287943	91.71	0
3	288259	91.81	0
3	288575	91.91	0
3	288897	92.01	0
3	289213	92.11	0
3	289529	92.21	0
3	289845	92.31	0
3	290161	92.41	0
3	290477	92.51	0
3	290793	92.61	0
3	291109	92.71	0
3	291425	92.81	0
3	291741	92.91	0
3	292063	93.01	0
3	292379	93.11	0
3	292695	93.21	0
3	293011	93.31	0
3	293327	93.41	0
3	293643	93.51	0
3	293959	93.61	0
3	294275	93.71	0
3	294591	93.81	0
3	294907	93.91	0
3	295229	94.01	0
3	295545	94.11	0
3	295861	94.21	0
3	296177	94.31	0
3	296493	94.41	0
3	296809	94.51	0
3	297125	94.61	0
3	297441	94.71	0
3	297757	94.81	0
3	298073	94.91	0
3	298395	95.01	0
3	298711	95.11	0
3	299027	95.21	0
3	299343	95.31	0
3	299659	95.41	0
3	299975	95.51	0
3	300291	95.61	0
3	300607	95.71	0
3	300923	95.81	0
3	301239	95.91	0
3	301561	96.01	0
3	301877	96.11	0
3	302193	96.21	0
3	302509	96.31	0
3	302825	96.41	0
3	303141	96.51	0
3	303457	96.61	0
3	303773	96.71	0
3	304089	96.81	0
3	304405	96.91	0
3	304727	97.01	0
3	305043	97.11	0
3	305359	97.21	0
3	305675	97.31	0
3	305991	97.41	0
3	306307	97.51	0
3	306623	97.61	0
3	306939	97.71	0
3	307255	97.81	0
3	307571	97.91	0
3	307893	98.01	0
3	308209	98.11	0
3	308525	98.21	0
3	308841	98.31	0
3	309157	98.41	0
3	309473	98.51	0
3	309789	98.61	0
3	310105	98.71	0
3	310421	98.81	0
3	310737	98.91	0
3	311059	99.01	0
3	311375	99.11	0
3	311691	99.21	0
3	312007	99.31	0
3	312323	99.41	0
3	312639	99.51	0
3	312955	99.61	0
3	313271	99.71	0
3	313587	99.81	0
3	313903	99.91	0
4	113	1.11	0.00109259
4	429	1.21	0.00106709
4	745	1.31	0.00102704
4	1061	1.41	0.000975759
4	1377	1.51	0.00091619
4	1693	1.61	0.000850891
4	2009	1.71	0.000782061
4	2325	1.81	0.00071157
4	2641	1.91	0.00064098
4	2963	2.01	0.000571575
4	3279	2.11	0.000504387
4	3595	2.21	0.000440223
4	3911	2.31	0.000379691
4	4227	2.41	0.000323223
4	4543	2.51	0.000271102
4	4859	2.61	0.000223482
4	5175	2.71	0.000180409
4	5491	2.81	0.000141839
4	5807	2.91	0.000107653
4	6129	3.01	7.76787e-05
4	6445	3.11	5.16957e-05
4	6761	3.21	2.94534e-05
4	7077	3.31	1.06787e-05
4	7393	3.41	-4.91459e-06
4	7709	3.51	-1.76184e-05
4	8025	3.61	-2.7724e-05
4	8341	3.71	-3.55168e-05
4	8657	3.81	-4.12726e-05
4	8973	3.91	-4.52541e-05
4	9295	4.01	-4.77086e-05
4	9611	4.11	-4.88665e-05
4	9927	4.21	-4.89399e-05
4	10243	4.31	-4.81224e-05
4	10559	4.41	-4.65886e-05
4	10875	4.51	-4.44947e-05
4	11191	4.61	-4.1979e-05
4	11507	4.71	-3.91623e-05
4	11823	4.81	-3.61492e-05
4	12139	4.91	-3.3029e-05
4	12461	5.01	-2.9877e-05
4	12777	5.11	-2.67554e-05
4	13093	5.21	-2.37147e-05
4	13409	5.31	-2.07949e-05
4	13725	5.41	-1.80267e-05
4	14041	5.51	-1.54325e-05
4	14357	5.61	-1.30275e-05
4	14673	5.71	-1.0821e-05
4	14989	5.81	-8.81673e-06
4	15305	5.91	-7.01443e-06
4	15627	6.01	-5.4101e-06
4	15943	6.11	-3.99696e-06
4	16259	6.21	-2.766e-06
4	16575	6.31	-1.70658e-06
4	16891	6.41	-8.06872e-07
4	17207	6.51	-5.43281e-08
4	17523	6.61	5.63994e-07
[...]
73	263563	84	0
73	266729	85	0
73	269895	86	0
73	273061	87	0
73	276227	88	0
73	279393	89	0
73	282559	90	0
73	285725	91	0
73	288891	92	0
73	292057	93	0
73	295223	94	0
73	298389	95	0
73	301555	96	0
73	304721	97	0
73	307887	98	0
73	311053	99	0
73	314219	100	0
74	2958	2	2
74	6124	3	2
74	9290	4	2
74	12456	5	2
74	15622	6	2
74	18788	7	2
74	21954	8	2
74	25120	9	2
74	28287	10	2
74	32446	11	2
74	35612	12	2
74	38778	13	2
74	41944	14	2
74	45110	15	2
74	48276	16	2
74	51442	17	2
74	54608	18	2
74	57774	19	2
74	60940	20	2
74	64106	21	2
74	67272	22	2
74	70438	23	2
74	73604	24	2
74	76770	25	2
74	79936	26	2
74	83102	27	2
74	86268	28	2
74	89434	29	2
74	92600	30	2
74	95766	31	2
74	98932	32	2
74	102098	33	2
74	105264	34	2
74	108430	35	2
74	111596	36	2
74	114762	37	2
74	117928	38	2
74	121094	39	2
74	124260	40	2
74	127426	41	2
74	130592	42	2
74	133758	43	2
74	136924	44	2
74	140090	45	2
74	143256	46	2
74	146422	47	2
74	149588	48	2
74	152754	49	2
74	155920	50	2
74	159086	51	2
74	162252	52	2
74	165418	53	2
74	168584	54	2
74	171750	55	2
74	174916	56	2
74	178082	57	2
74	181248	58	2
74	184414	59	2
74	187580	60	2
74	190746	61	2
74	193912	62	2
74	197078	63	2
74	200244	64	2
74	203410	65	2
74	206576	66	2
74	209742	67	2
74	212908	68	2
74	216074	69	2
74	219240	70	2
74	222406	71	2
74	225572	72	2
74	228738	73	2
74	231904	74	2
74	235070	75	2
74	238236	76	2
74	241402	77	2
74	244568	78	2
74	247734	79	2
74	250900	80	2
74	254066	81	2
74	257232	82	2
74	260398	83	2
74	263564	84	2
74	266730	85	2
74	269896	86	2
74	273062	87	2
74	276228	88	2
74	279394	89	2
74	282560	90	2
74	285726	91	2
74	288892	92	2
74	292058	93	2
74	295224	94	2
74	298390	95	2
74	301556	96	2
74	304722	97	2
74	307888	98	2
74	311054	99	2
74	314220	100	2
75	2958	2	0.016857
75	6124	3	0.01873
75	9290	4	0.01873
75	12456	5	0.01873
75	15622	6	0.01873
75	18788	7	0.01873
75	21954	8	0.01873
75	25120	9	0.01873
75	28287	10	0.01873
75	32446	11	0.020249080058
75	35612	12	0.01873
75	38778	13	0.01873
75	41944	14	0.01873
75	45110	15	0.01873
75	48276	16	0.01873
75	51442	17	0.01873
75	54608	18	0.01873
75	57774	19	0.01873
75	60940	20	0.01873
75	64106	21	0.01873
75	67272	22	0.01873
75	70438	23	0.01873
75	73604	24	0.01873
75	76770	25	0.01873
75	79936	26	0.01873
75	83102	27	0.01873
75	86268	28	0.01873
75	89434	29	0.01873
75	92600	30	0.01873
75	95766	31	0.01873
75	98932	32	0.01873
75	102098	33	0.01873
75	105264	34	0.01873
75	108430	35	0.01873
75	111596	36	0.01873
75	114762	37	0.01873
75	117928	38	0.01873
75	121094	39	0.01873
75	124260	40	0.01873
75	127426	41	0.01873
75	130592	42	0.01873
75	133758	43	0.01873
75	136924	44	0.01873
75	140090	45	0.01873
75	143256	46	0.01873
75	146422	47	0.01873
75	149588	48	0.01873
75	152754	49	0.01873
75	155920	50	0.01873
75	159086	51	0.01873
75	162252	52	0.01873
75	165418	53	0.01873
75	168584	54	0.01873
75	171750	55	0.01873
75	174916	56	0.01873
75	178082	57	0.01873
75	181248	58	0.01873
75	184414	59	0.01873
75	187580	60	0.01873
75	190746	61	0.01873
75	193912	62	0.01873
75	197078	63	0.01873
75	200244	64	0.01873
75	203410	65	0.01873
75	206576	66	0.01873
75	209742	67	0.01873
75	212908	68	0.01873
75	216074	69	0.01873
75	219240	70	0.01873
75	222406	71	0.01873
75	225572	72	0.01873
75	228738	73	0.01873
75	231904	74	0.01873
75	235070	75	0.01873
75	238236	76	0.01873
75	241402	77	0.01873
75	244568	78	0.01873
75	247734	79	0.01873
75	250900	80	0.01873
75	254066	81	0.01873
75	257232	82	0.01873
75	260398	83	0.01873
75	263564	84	0.01873
75	266730	85	0.01873
75	269896	86	0.01873
75	273062	87	0.01873
75	276228	88	0.01873
75	279394	89	0.01873
75	282560	90	0.01873
75	285726	91	0.01873
75	288892	92	0.01873
75	292058	93	0.01873
75	295224	94	0.01873
75	298390	95	0.01873
75	301556	96	0.01873
75	304722	97	0.01873
75	307888	98	0.01873
75	311054	99	0.01873
75	314220	100	0.01873
76	2958	2	0
76	6124	3	0
76	9290	4	0
76	12456	5	0
76	15622	6	0
76	18788	7	0
76	21954	8	0
76	25120	9	0
76	28287	10	0
76	32446	11	0
76	35612	12	0
76	38778	13	0
76	41944	14	0
76	45110	15	0
76	48276	16	0
76	51442	17	0
76	54608	18	0
76	57774	19	0
76	60940	20	0
76	64106	21	0
76	67272	22	0
76	70438	23	0
76	73604	24	0
76	76770	25	0
76	79936	26	0
76	83102	27	0
76	86268	28	0
76	89434	29	0
76	92600	30	0
76	95766	31	0
76	98932	32	0
76	102098	33	0
76	105264	34	0
76	108430	35	0
76	111596	36	0
76	114762	37	0
76	117928	38	0
76	121094	39	0
76	124260	40	0
76	127426	41	0
76	130592	42	0
76	133758	43	0
76	136924	44	0
76	140090	45	0
76	143256	46	0
76	146422	47	0
76	149588	48	0
76	152754	49	0
76	155920	50	0
76	159086	51	0
76	162252	52	0
76	165418	53	0
76	168584	54	0
76	171750	55	0
76	174916	56	0
76	178082	57	0
76	181248	58	0
76	184414	59	0
76	187580	60	0
76	190746	61	0
76	193912	62	0
76	197078	63	0
76	200244	64	0
76	203410	65	0
76	206576	66	0
76	209742	67	0
76	212908	68	0
76	216074	69	0
76	219240	70	0
76	222406	71	0
76	225572	72	0
76	228738	73	0
76	231904	74	0
76	235070	75	0
76	238236	76	0
76	241402	77	0
76	244568	78	0
76	247734	79	0
76	250900	80	0
76	254066	81	0
76	257232	82	0
76	260398	83	0
76	263564	84	0
76	266730	85	0
76	269896	86	0
76	273062	87	0
76	276228	88	0
76	279394	89	0
76	282560	90	0
76	285726	91	0
76	288892	92	0
76	292058	93	0
76	295224	94	0
76	298390	95	0
76	301556	96	0
76	304722	97	0
76	307888	98	0
76	311054	99	0
76	314220	100	0
77	2959	2	3
77	6125	3	3
77	9291	4	3
77	12457	5	3
77	15623	6	3
77	18789	7	3
77	21955	8	3
77	25121	9	3
77	28288	10	3
77	32447	11	3
77	35613	12	3
77	38779	13	3
77	41945	14	3
77	45111	15	3
77	48277	16	3
77	51443	17	3
77	54609	18	3
77	57775	19	3
77	60941	20	3
77	64107	21	3
77	67273	22	3
77	70439	23	3
77	73605	24	3
77	76771	25	3
77	79937	26	3
77	83103	27	3
77	86269	28	3
77	89435	29	3
77	92601	30	3
77	95767	31	3
77	98933	32	3
77	102099	33	3
77	105265	34	3
77	108431	35	3
77	111597	36	3
77	114763	37	3
77	117929	38	3
77	121095	39	3
77	124261	40	3
77	127427	41	3
77	130593	42	3
77	133759	43	3
77	136925	44	3
77	140091	45	3
77	143257	46	3
77	146423	47	3
77	149589	48	3
77	152755	49	3
77	155921	50	3
77	159087	51	3
77	162253	52	3
77	165419	53	3
77	168585	54	3
77	171751	55	3
77	174917	56	3
77	178083	57	3
77	181249	58	3
77	184415	59	3
77	187581	60	3
77	190747	61	3
77	193913	62	3
77	197079	63	3
77	200245	64	3
77	203411	65	3
77	206577	66	3
77	209743	67	3
77	212909	68	3
77	216075	69	3
77	219241	70	3
77	222407	71	3
77	225573	72	3
77	228739	73	3
77	231905	74	3
77	235071	75	3
77	238237	76	3
77	241403	77	3
77	244569	78	3
77	247735	79	3
77	250901	80	3
77	254067	81	3
77	257233	82	3
77	260399	83	3
77	263565	84	3
77	266731	85	3
77	269897	86	3
77	273063	87	3
77	276229	88	3
77	279395	89	3
77	282561	90	3
77	285727	91	3
77	288893	92	3
77	292059	93	3
77	295225	94	3
77	298391	95	3
77	301557	96	3
77	304723	97	3
77	307889	98	3
77	311055	99	3
77	314221	100	3
78	2959	2	0.016857
78	6125	3	0.01873
78	9291	4	0.01873
78	12457	5	0.01873
78	15623	6	0.01873
78	18789	7	0.01873
78	21955	8	0.01873
78	25121	9	0.01873
78	28288	10	0.01873
78	32447	11	0.020249120086
78	35613	12	0.01873
78	38779	13	0.01873
78	41945	14	0.01873
78	45111	15	0.01873
78	48277	16	0.01873
78	51443	17	0.01873
78	54609	18	0.01873
78	57775	19	0.01873
78	60941	20	0.01873
78	64107	21	0.01873
78	67273	22	0.01873
78	70439	23	0.01873
78	73605	24	0.01873
78	76771	25	0.01873
78	79937	26	0.01873
78	83103	27	0.01873
78	86269	28	0.01873
78	89435	29	0.01873
78	92601	30	0.01873
78	95767	31	0.01873
78	98933	32	0.01873
78	102099	33	0.01873
78	105265	34	0.01873
78	108431	35	0.01873
78	111597	36	0.01873
78	114763	37	0.01873
78	117929	38	0.01873
78	121095	39	0.01873
78	124261	40	0.01873
78	127427	41	0.01873
78	130593	42	0.01873
78	133759	43	0.01873
78	136925	44	0.01873
78	140091	45	0.01873
78	143257	46	0.01873
78	146423	47	0.01873
78	149589	48	0.01873
78	152755	49	0.01873
78	155921	50	0.01873
78	159087	51	0.01873
78	162253	52	0.01873
78	165419	53	0.01873
78	168585	54	0.01873
78	171751	55	0.01873
78	174917	56	0.01873
78	178083	57	0.01873
78	181249	58	0.01873
78	184415	59	0.01873
78	187581	60	0.01873
78	190747	61	0.01873
78	193913	62	0.01873
78	197079	63	0.01873
78	200245	64	0.01873
78	203411	65	0.01873
78	206577	66	0.01873
78	209743	67	0.01873
78	212909	68	0.01873
78	216075	69	0.01873
78	219241	70	0.01873
78	222407	71	0.01873
78	225573	72	0.01873
78	228739	73	0.01873
78	231905	74	0.01873
78	235071	75	0.01873
78	238237	76	0.01873
78	241403	77	0.01873
78	244569	78	0.01873
78	247735	79	0.01873
78	250901	80	0.01873
78	254067	81	0.01873
78	257233	82	0.01873
78	260399	83	0.01873
78	263565	84	0.01873
78	266731	85	0.01873
78	269897	86	0.01873
78	273063	87	0.01873
78	276229	88	0.01873
78	279395	89	0.01873
78	282561	90	0.01873
78	285727	91	0.01873
78	288893	92	0.01873
78	292059	93	0.01873
78	295225	94	0.01873
78	298391	95	0.01873
78	301557	96	0.01873
78	304723	97	0.01873
78	307889	98	0.01873
78	311055	99	0.01873
78	314221	100	0.01873
79	2959	2	0
79	6125	3	0
79	9291	4	0
79	12457	5	0
79	15623	6	0
79	18789	7	0
79	21955	8	0
79	25121	9	0
79	28288	10	0
79	32447	11	0
79	35613	12	0
79	38779	13	0
79	41945	14	0
79	45111	15	0
79	48277	16	0
79	51443	17	0
79	54609	18	0
79	57775	19	0
79	60941	20	0
79	64107	21	0
79	67273	22	0
79	70439	23	0
79	73605	24	0
79	76771	25	0
79	79937	26	0
79	83103	27	0
79	86269	28	0
79	89435	29	0
79	92601	30	0
79	95767	31	0
79	98933	32	0
79	102099	33	0
79	105265	34	0
79	108431	35	0
79	111597	36	0
79	114763	37	0
79	117929	38	0
79	121095	39	0
79	124261	40	0
79	127427	41	0
79	130593	42	0
79	133759	43	0
79	136925	44	0
79	140091	45	0
79	143257	46	0
79	146423	47	0
79	149589	48	0
79	152755	49	0
79	155921	50	0
79	159087	51	0
79	162253	52	0
79	165419	53	0
79	168585	54	0
79	171751	55	0
79	174917	56	0
79	178083	57	0
79	181249	58	0
79	184415	59	0
79	187581	60	0
79	190747	61	0
79	193913	62	0
79	197079	63	0
79	200245	64	0
79	203411	65	0
79	206577	66	0
79	209743	67	0
79	212909	68	0
79	216075	69	0
79	219241	70	0
79	222407	71	0
79	225573	72	0
79	228739	73	0
79	231905	74	0
79	235071	75	0
79	238237	76	0
79	241403	77	0
79	244569	78	0
79	247735	79	0
79	250901	80	0
79	254067	81	0
79	257233	82	0
79	260399	83	0
79	263565	84	0
79	266731	85	0
79	269897	86	0
79	273063	87	0
79	276229	88	0
79	279395	89	0
79	282561	90	0
79	285727	91	0
79	288893	92	0
79	292059	93	0
79	295225	94	0
79	298391	95	0
79	301557	96	0
79	304723	97	0
79	307889	98	0
79	311055	99	0
79	314221	100	0
80	2960	2	4
80	6126	3	4
80	9292	4	4
80	12458	5	4
80	15624	6	4
80	18790	7	4
80	21956	8	4
80	25122	9	4
80	28289	10	4
80	32448	11	4
80	35614	12	4
80	38780	13	4
80	41946	14	4
80	45112	15	4
80	48278	16	4
80	51444	17	4
80	54610	18	4
80	57776	19	4
80	60942	20	4
80	64108	21	4
80	67274	22	4
80	70440	23	4
80	73606	24	4
80	76772	25	4
80	79938	26	4
80	83104	27	4
80	86270	28	4
80	89436	29	4
80	92602	30	4
80	95768	31	4
80	98934	32	4
80	102100	33	4
80	105266	34	4
80	108432	35	4
80	111598	36	4
80	114764	37	4
80	117930	38	4
80	121096	39	4
80	124262	40	4
80	127428	41	4
80	130594	42	4
80	133760	43	4
80	136926	44	4
80	140092	45	4
80	143258	46	4
80	146424	47	4
80	149590	48	4
80	152756	49	4
80	155922	50	4
80	159088	51	4
80	162254	52	4
80	165420	53	4
80	168586	54	4
80	171752	55	4
80	174918	56	4
80	178084	57	4
80	181250	58	4
80	184416	59	4
80	187582	60	4
80	190748	61	4
80	193914	62	4
80	197080	63	4
80	200246	64	4
80	203412	65	4
80	206578	66	4
80	209744	67	4
80	212910	68	4
80	216076	69	4
80	219242	70	4
80	222408	71	4
80	225574	72	4
80	228740	73	4
80	231906	74	4
80	235072	75	4
80	238238	76	4
80	241404	77	4
80	244570	78	4
80	247736	79	4
80	250902	80	4
80	254068	81	4
80	257234	82	4
80	260400	83	4
80	263566	84	4
80	266732	85	4
80	269898	86	4
80	273064	87	4
80	276230	88	4
80	279396	89	4
80	282562	90	4
80	285728	91	4
80	288894	92	4
80	292060	93	4
80	295226	94	4
80	298392	95	4
80	301558	96	4
80	304724	97	4
80	307890	98	4
80	311056	99	4
80	314222	100	4
81	2960	2	0.016857
81	6126	3	0.01873
81	9292	4	0.01873
81	12458	5	0.01873
81	15624	6	0.01873
81	18790	7	0.01873
81	21956	8	0.01873
81	25122	9	0.01873
81	28289	10	0.01873
81	32448	11	0.020154160114
81	35614	12	0.01873
81	38780	13	0.01873
81	41946	14	0.01873
81	45112	15	0.01873
81	48278	16	0.01873
81	51444	17	0.01873
81	54610	18	0.01873
81	57776	19	0.01873
81	60942	20	0.01873
81	64108	21	0.01873
81	67274	22	0.01873
81	70440	23	0.01873
81	73606	24	0.01873
81	76772	25	0.01873
81	79938	26	0.01873
81	83104	27	0.01873
81	86270	28	0.01873
81	89436	29	0.01873
81	92602	30	0.01873
81	95768	31	0.01873
81	98934	32	0.01873
81	102100	33	0.01873
81	105266	34	0.01873
81	108432	35	0.01873
81	111598	36	0.01873
81	114764	37	0.01873
81	117930	38	0.01873
81	121096	39	0.01873
81	124262	40	0.01873
81	127428	41	0.01873
81	130594	42	0.01873
81	133760	43	0.01873
81	136926	44	0.01873
81	140092	45	0.01873
81	143258	46	0.01873
81	146424	47	0.01873
81	149590	48	0.01873
81	152756	49	0.01873
81	155922	50	0.01873
81	159088	51	0.01873
81	162254	52	0.01873
81	165420	53	0.01873
81	168586	54	0.01873
81	171752	55	0.01873
81	174918	56	0.01873
81	178084	57	0.01873
81	181250	58	0.01873
81	184416	59	0.01873
81	187582	60	0.01873
81	190748	61	0.01873
81	193914	62	0.01873
81	197080	63	0.01873
81	200246	64	0.01873
81	203412	65	0.01873
81	206578	66	0.01873
81	209744	67	0.01873
81	212910	68	0.01873
81	216076	69	0.01873
81	219242	70	0.01873
81	222408	71	0.01873
81	225574	72	0.01873
81	228740	73	0.01873
81	231906	74	0.01873
81	235072	75	0.01873
81	238238	76	0.01873
81	241404	77	0.01873
81	244570	78	0.01873
81	247736	79	0.01873
81	250902	80	0.01873
81	254068	81	0.01873
81	257234	82	0.01873
81	260400	83	0.01873
81	263566	84	0.01873
81	266732	85	0.01873
81	269898	86	0.01873
81	273064	87	0.01873
81	276230	88	0.01873
81	279396	89	0.01873
81	282562	90	0.01873
81	285728	91	0.01873
81	288894	92	0.01873
81	292060	93	0.01873
81	295226	94	0.01873
81	298392	95	0.01873
81	301558	96	0.01873
81	304724	97	0.01873
81	307890	98	0.01873
81	311056	99	0.01873
81	314222	100	0.01873
82	2960	2	0
82	6126	3	0
82	9292	4	0
82	12458	5	0
82	15624	6	0
82	18790	7	0
82	21956	8	0
82	25122	9	0
82	28289	10	0
82	32448	11	0
82	35614	12	0
82	38780	13	0
82	41946	14	0
82	45112	15	0
82	48278	16	0
82	51444	17	0
82	54610	18	0
82	57776	19	0
82	60942	20	0
82	64108	21	0
82	67274	22	0
82	70440	23	0
82	73606	24	0
82	76772	25	0
82	79938	26	0
82	83104	27	0
82	86270	28	0
82	89436	29	0
82	92602	30	0
82	95768	31	0
82	98934	32	0
82	102100	33	0
82	105266	34	0
82	108432	35	0
82	111598	36	0
82	114764	37	0
82	117930	38	0
82	121096	39	0
82	124262	40	0
82	127428	41	0
82	130594	42	0
82	133760	43	0
82	136926	44	0
82	140092	45	0
82	143258	46	0
82	146424	47	0
82	149590	48	0
82	152756	49	0
82	155922	50	0
82	159088	51	0
82	162254	52	0
82	165420	53	0
82	168586	54	0
82	171752	55	0
82	174918	56	0
82	178084	57	0
82	181250	58	0
82	184416	59	0
82	187582	60	0
82	190748	61	0
82	193914	62	0
82	197080	63	0
82	200246	64	0
82	203412	65	0
82	206578	66	0
82	209744	67	0
82	212910	68	0
82	216076	69	0
82	219242	70	0
82	222408	71	0
82	225574	72	0
82	228740	73	0
82	231906	74	0
82	235072	75	0
82	238238	76	0
82	241404	77	0
82	244570	78	0
82	247736	79	0
82	250902	80	0
82	254068	81	0
82	257234	82	0
82	260400	83	0
82	263566	84	0
82	266732	85	0
82	269898	86	0
82	273064	87	0
82	276230	88	0
82	279396	89	0
82	282562	90	0
82	285728	91	0
82	288894	92	0
82	292060	93	0
82	295226	94	0
82	298392	95	0
82	301558	96	0
82	304724	97	0
82	307890	98	0
82	311056	99	0
82	314222	100	0
83	2961	2	5
83	6127	3	5
83	9293	4	5
83	12459	5	5
83	15625	6	5
83	18791	7	5
83	21957	8	5
83	25123	9	5
83	28290	10	5
83	32449	11	5
83	35615	12	5
83	38781	13	5
83	41947	14	5
83	45113	15	5
83	48279	16	5
83	51445	17	5
83	54611	18	5
83	57777	19	5
83	60943	20	5
83	64109	21	5
83	67275	22	5
83	70441	23	5
83	73607	24	5
83	76773	25	5
83	79939	26	5
83	83105	27	5
83	86271	28	5
83	89437	29	5
83	92603	30	5
83	95769	31	5
83	98935	32	5
83	102101	33	5
83	105267	34	5
83	108433	35	5
83	111599	36	5
83	114765	37	5
83	117931	38	5
83	121097	39	5
83	124263	40	5
83	127429	41	5
83	130595	42	5
83	133761	43	5
83	136927	44	5
83	140093	45	5
83	143259	46	5
83	146425	47	5
83	149591	48	5
83	152757	49	5
83	155923	50	5
83	159089	51	5
83	162255	52	5
83	165421	53	5
83	168587	54	5
83	171753	55	5
83	174919	56	5
83	178085	57	5
83	181251	58	5
83	184417	59	5
83	187583	60	5
83	190749	61	5
83	193915	62	5
83	197081	63	5
83	200247	64	5
83	203413	65	5
83	206579	66	5
83	209745	67	5
83	212911	68	5
83	216077	69	5
83	219243	70	5
83	222409	71	5
83	225575	72	5
83	228741	73	5
83	231907	74	5
83	235073	75	5
83	238239	76	5
83	241405	77	5
83	244571	78	5
83	247737	79	5
83	250903	80	5
83	254069	81	5
83	257235	82	5
83	260401	83	5
83	263567	84	5
83	266733	85	5
83	269899	86	5
83	273065	87	5
83	276231	88	5
83	279397	89	5
83	282563	90	5
83	285729	91	5
83	288895	92	5
83	292061	93	5
83	295227	94	5
83	298393	95	5
83	301559	96	5
83	304725	97	5
83	307891	98	5
83	311057	99	5
83	314223	100	5
84	2961	2	0.016857
84	6127	3	0.01873
84	9293	4	0.01873
84	12459	5	0.01873
84	15625	6	0.01873
84	18791	7	0.01873
84	21957	8	0.01873
84	25123	9	0.01873
84	28290	10	0.01873
84	32449	11	0.020154200142
84	35615	12	0.01873
84	38781	13	0.01873
84	41947	14	0.01873
84	45113	15	0.01873
84	48279	16	0.01873
84	51445	17	0.01873
84	54611	18	0.01873
84	57777	19	0.01873
84	60943	20	0.01873
84	64109	21	0.01873
84	67275	22	0.01873
84	70441	23	0.01873
84	73607	24	0.01873
84	76773	25	0.01873
84	79939	26	0.01873
84	83105	27	0.01873
84	86271	28	0.01873
84	89437	29	0.01873
84	92603	30	0.01873
84	95769	31	0.01873
84	98935	32	0.01873
84	102101	33	0.01873
84	105267	34	0.01873
84	108433	35	0.01873
84	111599	36	0.01873
84	114765	37	0.01873
84	117931	38	0.01873
84	121097	39	0.01873
84	124263	40	0.01873
84	127429	41	0.01873
84	130595	42	0.01873
84	133761	43	0.01873
84	136927	44	0.01873
84	140093	45	0.01873
84	143259	46	0.01873
84	146425	47	0.01873
84	149591	48	0.01873
84	152757	49	0.01873
84	155923	50	0.01873
84	159089	51	0.01873
84	162255	52	0.01873
84	165421	53	0.01873
84	168587	54	0.01873
84	171753	55	0.01873
84	174919	56	0.01873
84	178085	57	0.01873
84	181251	58	0.01873
84	184417	59	0.01873
84	187583	60	0.01873
84	190749	61	0.01873
84	193915	62	0.01873
84	197081	63	0.01873
84	200247	64	0.01873
84	203413	65	0.01873
84	206579	66	0.01873
84	209745	67	0.01873
84	212911	68	0.01873
84	216077	69	0.01873
84	219243	70	0.01873
84	222409	71	0.01873
84	225575	72	0.01873
84	228741	73	0.01873
84	231907	74	0.01873
84	235073	75	0.01873
84	238239	76	0.01873
84	241405	77	0.01873
84	244571	78	0.01873
84	247737	79	0.01873
84	250903	80	0.01873
84	254069	81	0.01873
84	257235	82	0.01873
84	260401	83	0.01873
84	263567	84	0.01873
84	266733	85	0.01873
84	269899	86	0.01873
84	273065	87	0.01873
84	276231	88	0.01873
84	279397	89	0.01873
84	282563	90	0.01873
84	285729	91	0.01873
84	288895	92	0.01873
84	292061	93	0.01873
84	295227	94	0.01873
84	298393	95	0.01873
84	301559	96	0.01873
84	304725	97	0.01873
84	307891	98	0.01873
84	311057	99	0.01873
84	314223	100	0.01873
85	2961	2	0
85	6127	3	0
85	9293	4	0
85	12459	5	0
85	15625	6	0
85	18791	7	0
85	21957	8	0
85	25123	9	0
85	28290	10	0
85	32449	11	0
85	35615	12	0
85	38781	13	0
85	41947	14	0
85	45113	15	0
85	48279	16	0
85	51445	17	0
85	54611	18	0
85	57777	19	0
85	60943	20	0
85	64109	21	0
85	67275	22	0
85	70441	23	0
85	73607	24	0
85	76773	25	0
85	79939	26	0
85	83105	27	0
85	86271	28	0
85	89437	29	0
85	92603	30	0
85	95769	31	0
85	98935	32	0
85	102101	33	0
85	105267	34	0
85	108433	35	0
85	111599	36	0
85	114765	37	0
85	117931	38	0
85	121097	39	0
85	124263	40	0
85	127429	41	0
85	130595	42	0
85	133761	43	0
85	136927	44	0
85	140093	45	0
85	143259	46	0
85	146425	47	0
85	149591	48	0
85	152757	49	0
85	155923	50	0
85	159089	51	0
85	162255	52	0
85	165421	53	0
85	168587	54	0
85	171753	55	0
85	174919	56	0
85	178085	57	0
85	181251	58	0
85	184417	59	0
85	187583	60	0
85	190749	61	0
85	193915	62	0
85	197081	63	0
85	200247	64	0
85	203413	65	0
85	206579	66	0
85	209745	67	0
85	212911	68	0
85	216077	69	0
85	219243	70	0
85	222409	71	0
85	225575	72	0
85	228741	73	0
85	231907	74	0
85	235073	75	0
85	238239	76	0
85	241405	77	0
85	244571	78	0
85	247737	79	0
85	250903	80	0
85	254069	81	0
85	257235	82	0
85	260401	83	0
85	263567	84	0
85	266733	85	0
85	269899	86	0
85	273065	87	0
85	276231	88	0
85	279397	89	0
85	282563	90	0
85	285729	91	0
85	288895	92	0
85	292061	93	0
85	295227	94	0
85	298393	95	0
85	301559	96	0
85	304725	97	0
85	307891	98	0
85	311057	99	0
85	314223	100	0

