version 3
run BreakRanksNoGui-806-20240710-17:48:14-276473
attr configname BreakRanksNoGui
attr datetime 20240710-17:48:14
attr datetimef 20240710-174814
attr experiment BreakRanksNoGui
attr inifile omnetpp.ini
attr iterationvars "$nCars=6, $platoonSize=6, $nLanes=1, $ploegH=0.5, $controller=1, $headway=0.1, $leaderHeadway=1.2, $leaderSpeed=130, $breakRanksSafetyDistance=2, $minSpeed=120, $maxSpeed=140, $beaconInterval=0.1, $priority=4, $packetSize=200, $sController=\"CACC\", $0=2, $1=0"
attr iterationvarsd nCars=6/platoonSize=6/nLanes=1/ploegH=0.5/controller=1/headway=0.1/leaderHeadway=1.2/leaderSpeed=130/breakRanksSafetyDistance=2/minSpeed=120/maxSpeed=140/beaconInterval=0.1/priority=4/packetSize=200/sController=CACC/2/0
attr iterationvarsf nCars=6,platoonSize=6,nLanes=1,ploegH=0.5,controller=1,headway=0.1,leaderHeadway=1.2,leaderSpeed=130,breakRanksSafetyDistance=2,minSpeed=120,maxSpeed=140,beaconInterval=0.1,priority=4,packetSize=200,sController=CACC,2,0-
attr measurement "$nCars=6, $platoonSize=6, $nLanes=1, $ploegH=0.5, $controller=1, $headway=0.1, $leaderHeadway=1.2, $leaderSpeed=130, $breakRanksSafetyDistance=2, $minSpeed=120, $maxSpeed=140, $beaconInterval=0.1, $priority=4, $packetSize=200, $sController=\"CACC\", $0=2, $1=0"
attr network Highway
attr processid 276473
attr repetition 6
attr replication #6
attr resultdir results
attr runnumber 806
attr seedset 6
itervar beaconInterval 0.1
itervar breakRanksSafetyDistance 2
itervar controller 1
itervar headway 0.1
itervar leaderHeadway 1.2
itervar leaderSpeed 130
itervar maxSpeed 140
itervar minSpeed 120
itervar nCars 6
itervar nLanes 1
itervar packetSize 200
itervar platoonSize 6
itervar ploegH 0.5
itervar priority 4
itervar sController "\"CACC\""
config image-path ../../../veins/images
config repeat 10
config extends BreakRanks
config *.manager.command "\"sumo\""
config *.manager.ignoreGuiCommands true
config output-vector-file "results/BreakRanks_1_0.1_130_2_6 /result_6.vec"
config output-scalar-file "results/BreakRanks_1_0.1_130_2_6 /result_6.sca"
config extends Platooning
config *.node[*].scenario_type "\"BreakRanksScenario\""
config *.manager.command "\"sumo-gui\""
config *.node[*].scenario_type "\"SimpleScenario\""
config cmdenv-express-mode true
config cmdenv-autoflush true
config cmdenv-status-frequency 15s
config num-rngs 6
config network Highway
config debug-on-errors true
config print-undisposed true
config *.playgroundSizeX 65000m
config *.playgroundSizeY 25000m
config *.playgroundSizeZ 50m
config sim-time-limit "100 s"
config *.annotations.draw false
config *.obstacles.debug false
config *.world.useTorus false
config *.world.use2D false
config *.manager.updateInterval 0.01s
config *.manager.host "\"localhost\""
config *.manager.moduleType "\"org.car2x.plexe.PlatoonCar\""
config *.manager.moduleName "\"node\""
config *.manager.moduleDisplayString "\"\""
config *.manager.autoShutdown true
config *.manager.margin 25
config *.connectionManager.sendDirect true
config *.connectionManager.maxInterfDist 2600m
config *.connectionManager.drawMaxIntfDist false
config *.**.nic.mac1609_4.useServiceChannel false
config *.**.nic.mac1609_4.txPower 100mW
config *.**.nic.mac1609_4.bitrate 6Mbps
config *.**.nic.mac1609_4.useAcks true
config *.**.nic.mac1609_4.ackErrorRate 0.0
config *.**.nic.mac1609_4.frameErrorRate 0.0
config *.**.nic.phy80211p.minPowerLevel -94dBm
config *.**.nic.phy80211p.maxTXPower 100mW
config *.**.nic.phy80211p.useNoiseFloor true
config *.**.nic.phy80211p.noiseFloor -95dBm
config *.**.nic.phy80211p.decider "xmldoc(\"config.xml\")"
config *.**.nic.phy80211p.analogueModels "xmldoc(\"config.xml\")"
config *.**.nic.phy80211p.usePropagationDelay true
config *.node[*].mobility.x 0
config *.node[*].mobility.y 0
config *.node[*].mobility.z 1.895
config seed-set 6
config **.seed 6
config *.node[*].prot.rng-0 2
config *.node[*].appl.rng-0 3
config *.node[*].scenario.rng-0 4
config **.traffic.rng-0 5
config *.manager.configFile "\"./sumocfg/freeway.sumo.cfg\""
config *.manager.launchConfig "xmldoc(\"./sumocfg/freeway.launchd.xml\")"
config **.numberOfCars 6
config **.numberOfCarsPerPlatoon 6
config **.numberOfLanes 1
config *.node[*].helper_type "\"PositionHelper\""
config *.node[*].scenario.caccC1 0.5
config *.node[*].scenario.caccXi 1
config *.node[*].scenario.caccOmegaN "0.2 Hz"
config *.node[*].scenario.caccSpacing "2 m"
config *.node[*].scenario.engineTau "0.5 s"
config *.node[*].scenario.ploegH 0.5s
config *.node[*].scenario.ploegKp 0.2
config *.node[*].scenario.ploegKd 0.7
config *.node[*].scenario.useRealisticEngine false
config *.node[*].scenario.useControllerAcceleration true
config *.node[*].scenario.nLanes 1
config **.numericController 1
config **.headway 0.1s
config *.node[*].scenario.accHeadway 0.1s
config *.node[*].scenario.leaderHeadway 1.2s
config *.node[*].scenario.leaderSpeed 130kmph
config *.node[*].appl_type "\"SimplePlatooningApp\""
config *.node[*].appl.*.scalar-recording true
config *.node[*].appl.*.vector-recording true
config *.node[0].appl.breakRanksSafetyDistance 2m
config *.node[*].appl.minSpeed 120kmph
config *.node[*].appl.maxSpeed 140kmph
config *.node[*].protocol_type "\"SimplePlatooningBeaconing\""
config *.node[*].prot.*.scalar-recording true
config *.node[*].prot.*.vector-recording true
config *.node[*].prot.beaconingInterval 0.1s
config *.node[*].prot.priority 4
config *.node[*].prot.packetSize 200
config **.traffic_type "\"PlatoonsTrafficManager\""
config **.traffic.platoonInsertTime "1 s"
config **.traffic.platoonInsertSpeed 130kmph
config **.traffic.nCars 6
config **.traffic.platoonSize 6
config **.traffic.nLanes 1
config **.traffic.platooningVType "\"vtypeauto\""
config **.traffic.controller "\"CACC\""
config **.traffic.platoonInsertDistance 2m
config **.traffic.platoonInsertHeadway 0s
config **.traffic.platoonLeaderHeadway 1.2s
config **.scalar-recording false
config **.vector-recording false

vector 0 Highway.node[0].appl distance ETV
vector 1 Highway.node[0].appl relativeSpeed ETV
vector 2 Highway.node[0].appl nodeId ETV
vector 3 Highway.node[0].appl acceleration ETV
vector 4 Highway.node[0].appl controllerAcceleration ETV
vector 5 Highway.node[0].appl speed ETV
vector 6 Highway.node[0].appl posx ETV
vector 7 Highway.node[0].appl posy ETV
vector 8 Highway.node[1].appl distance ETV
vector 9 Highway.node[1].appl relativeSpeed ETV
vector 10 Highway.node[1].appl nodeId ETV
vector 11 Highway.node[1].appl acceleration ETV
vector 12 Highway.node[1].appl controllerAcceleration ETV
vector 13 Highway.node[1].appl speed ETV
vector 14 Highway.node[1].appl posx ETV
vector 15 Highway.node[1].appl posy ETV
vector 16 Highway.node[2].appl distance ETV
vector 17 Highway.node[2].appl relativeSpeed ETV
vector 18 Highway.node[2].appl nodeId ETV
vector 19 Highway.node[2].appl acceleration ETV
vector 20 Highway.node[2].appl controllerAcceleration ETV
vector 21 Highway.node[2].appl speed ETV
vector 22 Highway.node[2].appl posx ETV
vector 23 Highway.node[2].appl posy ETV
vector 24 Highway.node[3].appl distance ETV
vector 25 Highway.node[3].appl relativeSpeed ETV
vector 26 Highway.node[3].appl nodeId ETV
vector 27 Highway.node[3].appl acceleration ETV
vector 28 Highway.node[3].appl controllerAcceleration ETV
vector 29 Highway.node[3].appl speed ETV
vector 30 Highway.node[3].appl posx ETV
vector 31 Highway.node[3].appl posy ETV
vector 32 Highway.node[4].appl distance ETV
vector 33 Highway.node[4].appl relativeSpeed ETV
vector 34 Highway.node[4].appl nodeId ETV
vector 35 Highway.node[4].appl acceleration ETV
vector 36 Highway.node[4].appl controllerAcceleration ETV
vector 37 Highway.node[4].appl speed ETV
vector 38 Highway.node[4].appl posx ETV
vector 39 Highway.node[4].appl posy ETV
vector 40 Highway.node[5].appl distance ETV
vector 41 Highway.node[5].appl relativeSpeed ETV
vector 42 Highway.node[5].appl nodeId ETV
vector 43 Highway.node[5].appl acceleration ETV
vector 44 Highway.node[5].appl controllerAcceleration ETV
vector 45 Highway.node[5].appl speed ETV
vector 46 Highway.node[5].appl posx ETV
vector 47 Highway.node[5].appl posy ETV
vector 48 Highway.node[1].prot leaderDelay ETV
vector 49 Highway.node[1].prot leaderDelayId ETV
vector 50 Highway.node[1].prot frontDelay ETV
vector 51 Highway.node[1].prot frontDelayId ETV
vector 52 Highway.node[2].prot leaderDelay ETV
vector 53 Highway.node[2].prot leaderDelayId ETV
vector 54 Highway.node[3].prot leaderDelay ETV
vector 55 Highway.node[3].prot leaderDelayId ETV
vector 56 Highway.node[4].prot leaderDelay ETV
vector 57 Highway.node[4].prot leaderDelayId ETV
vector 58 Highway.node[5].prot leaderDelay ETV
vector 59 Highway.node[5].prot leaderDelayId ETV
vector 60 Highway.node[3].prot frontDelay ETV
vector 61 Highway.node[3].prot frontDelayId ETV
vector 62 Highway.node[2].prot frontDelay ETV
vector 63 Highway.node[2].prot frontDelayId ETV
vector 64 Highway.node[4].prot frontDelay ETV
vector 65 Highway.node[4].prot frontDelayId ETV
vector 66 Highway.node[5].prot frontDelay ETV
vector 67 Highway.node[5].prot frontDelayId ETV
vector 68 Highway.node[0].prot nodeId ETV
vector 69 Highway.node[0].prot busyTime ETV
vector 70 Highway.node[0].prot collisions ETV
vector 71 Highway.node[1].prot nodeId ETV
vector 72 Highway.node[1].prot busyTime ETV
vector 73 Highway.node[1].prot collisions ETV
vector 74 Highway.node[2].prot nodeId ETV
vector 75 Highway.node[2].prot busyTime ETV
vector 76 Highway.node[2].prot collisions ETV
vector 77 Highway.node[3].prot nodeId ETV
vector 78 Highway.node[3].prot busyTime ETV
vector 79 Highway.node[3].prot collisions ETV
vector 80 Highway.node[4].prot nodeId ETV
vector 81 Highway.node[4].prot busyTime ETV
vector 82 Highway.node[4].prot collisions ETV
vector 83 Highway.node[5].prot nodeId ETV
vector 84 Highway.node[5].prot busyTime ETV
vector 85 Highway.node[5].prot collisions ETV
0	113	1.11	-1
0	429	1.21	-1
0	745	1.31	-1
0	1061	1.41	-1
0	1377	1.51	-1
0	1693	1.61	-1
0	2009	1.71	-1
0	2325	1.81	-1
0	2641	1.91	-1
0	2963	2.01	-1
0	3279	2.11	-1
0	3595	2.21	-1
0	3911	2.31	-1
0	4227	2.41	-1
0	4543	2.51	-1
0	4859	2.61	-1
0	5175	2.71	-1
0	5491	2.81	-1
0	5807	2.91	-1
0	6129	3.01	-1
0	6445	3.11	-1
0	6761	3.21	-1
0	7077	3.31	-1
0	7393	3.41	-1
0	7709	3.51	-1
0	8025	3.61	-1
0	8341	3.71	-1
0	8657	3.81	-1
0	8973	3.91	-1
0	9295	4.01	-1
0	9611	4.11	-1
0	9927	4.21	-1
0	10243	4.31	-1
0	10559	4.41	-1
0	10875	4.51	-1
0	11191	4.61	-1
0	11507	4.71	-1
0	11823	4.81	-1
0	12139	4.91	-1
0	12461	5.01	-1
0	12777	5.11	-1
0	13093	5.21	-1
0	13409	5.31	-1
0	13725	5.41	-1
0	14041	5.51	-1
0	14357	5.61	-1
0	14673	5.71	-1
0	14989	5.81	-1
0	15305	5.91	-1
0	15627	6.01	-1
0	15943	6.11	-1
0	16259	6.21	-1
0	16575	6.31	-1
0	16891	6.41	-1
0	17207	6.51	-1
0	17523	6.61	-1
0	17839	6.71	-1
0	18155	6.81	-1
0	18471	6.91	-1
0	18793	7.01	-1
0	19109	7.11	-1
0	19425	7.21	-1
0	19741	7.31	-1
0	20057	7.41	-1
0	20373	7.51	-1
0	20689	7.61	-1
0	21005	7.71	-1
0	21321	7.81	-1
0	21637	7.91	-1
0	21959	8.01	-1
0	22275	8.11	-1
0	22591	8.21	-1
0	22907	8.31	-1
0	23223	8.41	-1
0	23539	8.51	-1
0	23855	8.61	-1
0	24171	8.71	-1
0	24487	8.81	-1
0	24803	8.91	-1
0	25125	9.01	-1
0	25441	9.11	-1
0	25757	9.21	-1
0	26073	9.31	-1
0	26389	9.41	-1
0	26705	9.51	-1
0	27021	9.61	-1
0	27337	9.71	-1
0	27653	9.81	-1
0	27969	9.91	-1
0	29308	10.01	-1
0	29624	10.11	-1
0	29940	10.21	-1
0	30256	10.31	-1
0	30572	10.41	-1
0	30888	10.51	-1
0	31204	10.61	-1
0	31520	10.71	-1
0	31836	10.81	-1
0	32152	10.91	-1
0	32474	11.01	-1
0	32790	11.11	-1
0	33106	11.21	-1
0	33422	11.31	-1
0	33738	11.41	-1
0	34054	11.51	-1
0	34370	11.61	-1
0	34686	11.71	-1
0	35002	11.81	-1
0	35318	11.91	-1
0	35640	12.01	-1
0	35956	12.11	-1
0	36272	12.21	-1
0	36588	12.31	-1
0	36904	12.41	-1
0	37220	12.51	-1
0	37536	12.61	-1
0	37852	12.71	-1
0	38168	12.81	-1
0	38484	12.91	-1
0	38806	13.01	-1
0	39122	13.11	-1
0	39438	13.21	-1
0	39754	13.31	-1
0	40070	13.41	-1
0	40386	13.51	-1
0	40702	13.61	-1
0	41018	13.71	-1
0	41334	13.81	-1
0	41650	13.91	-1
0	41972	14.01	-1
0	42288	14.11	-1
0	42604	14.21	-1
0	42920	14.31	-1
0	43236	14.41	-1
0	43552	14.51	-1
0	43868	14.61	-1
0	44184	14.71	-1
0	44500	14.81	-1
0	44816	14.91	-1
0	45138	15.01	-1
0	45454	15.11	-1
0	45770	15.21	-1
0	46086	15.31	-1
0	46402	15.41	-1
0	46718	15.51	-1
0	47034	15.61	-1
0	47350	15.71	-1
0	47666	15.81	-1
0	47982	15.91	-1
0	48304	16.01	-1
0	48620	16.11	-1
0	48936	16.21	-1
0	49252	16.31	-1
0	49568	16.41	-1
0	49884	16.51	-1
0	50200	16.61	-1
0	50516	16.71	-1
0	50832	16.81	-1
0	51148	16.91	-1
0	51470	17.01	-1
0	51786	17.11	-1
0	52102	17.21	-1
0	52418	17.31	-1
0	52734	17.41	-1
0	53050	17.51	-1
0	53366	17.61	-1
0	53682	17.71	-1
0	53998	17.81	-1
0	54314	17.91	-1
0	54636	18.01	-1
0	54952	18.11	-1
0	55268	18.21	-1
0	55584	18.31	-1
0	55900	18.41	-1
0	56216	18.51	-1
0	56532	18.61	-1
0	56848	18.71	-1
0	57164	18.81	-1
0	57480	18.91	-1
0	57802	19.01	-1
0	58118	19.11	-1
0	58434	19.21	-1
0	58750	19.31	-1
0	59066	19.41	-1
0	59382	19.51	-1
0	59698	19.61	-1
0	60014	19.71	-1
0	60330	19.81	-1
0	60646	19.91	-1
0	60968	20.01	-1
0	61284	20.11	-1
0	61600	20.21	-1
0	61916	20.31	-1
0	62232	20.41	-1
0	62548	20.51	-1
0	62864	20.61	-1
0	63180	20.71	-1
0	63496	20.81	-1
0	63812	20.91	-1
0	64134	21.01	-1
0	64450	21.11	-1
0	64766	21.21	-1
0	65082	21.31	-1
0	65398	21.41	-1
0	65714	21.51	-1
0	66030	21.61	-1
0	66346	21.71	-1
0	66662	21.81	-1
0	66978	21.91	-1
0	67300	22.01	-1
0	67616	22.11	-1
0	67932	22.21	-1
0	68248	22.31	-1
0	68564	22.41	-1
0	68880	22.51	-1
0	69196	22.61	-1
0	69512	22.71	-1
0	69828	22.81	-1
0	70144	22.91	-1
0	70466	23.01	-1
0	70782	23.11	-1
0	71098	23.21	-1
0	71414	23.31	-1
0	71730	23.41	-1
0	72046	23.51	-1
0	72362	23.61	-1
0	72678	23.71	-1
0	72994	23.81	-1
0	73310	23.91	-1
0	73632	24.01	-1
0	73948	24.11	-1
0	74264	24.21	-1
0	74580	24.31	-1
0	74896	24.41	-1
0	75212	24.51	-1
0	75528	24.61	-1
0	75844	24.71	-1
0	76160	24.81	-1
0	76476	24.91	-1
0	76798	25.01	-1
0	77114	25.11	-1
0	77430	25.21	-1
0	77746	25.31	-1
0	78062	25.41	-1
0	78378	25.51	-1
0	78694	25.61	-1
0	79010	25.71	-1
0	79326	25.81	-1
0	79642	25.91	-1
0	79964	26.01	-1
0	80280	26.11	-1
0	80596	26.21	-1
0	80912	26.31	-1
0	81228	26.41	-1
0	81544	26.51	-1
0	81860	26.61	-1
0	82176	26.71	-1
0	82492	26.81	-1
0	82808	26.91	-1
0	83130	27.01	-1
0	83446	27.11	-1
0	83762	27.21	-1
0	84078	27.31	-1
0	84394	27.41	-1
0	84710	27.51	-1
0	85026	27.61	-1
0	85342	27.71	-1
0	85658	27.81	-1
0	85974	27.91	-1
0	86296	28.01	-1
0	86612	28.11	-1
0	86928	28.21	-1
0	87244	28.31	-1
0	87560	28.41	-1
0	87876	28.51	-1
0	88192	28.61	-1
0	88508	28.71	-1
0	88824	28.81	-1
0	89140	28.91	-1
0	89462	29.01	-1
0	89778	29.11	-1
0	90094	29.21	-1
0	90410	29.31	-1
0	90726	29.41	-1
0	91042	29.51	-1
0	91358	29.61	-1
0	91674	29.71	-1
0	91990	29.81	-1
0	92306	29.91	-1
0	92628	30.01	-1
0	92944	30.11	-1
0	93260	30.21	-1
0	93576	30.31	-1
0	93892	30.41	-1
0	94208	30.51	-1
0	94524	30.61	-1
0	94840	30.71	-1
0	95156	30.81	-1
0	95472	30.91	-1
0	95794	31.01	-1
0	96110	31.11	-1
0	96426	31.21	-1
0	96742	31.31	-1
0	97058	31.41	-1
0	97374	31.51	-1
0	97690	31.61	-1
0	98006	31.71	-1
0	98322	31.81	-1
0	98638	31.91	-1
0	98960	32.01	-1
0	99276	32.11	-1
0	99592	32.21	-1
0	99908	32.31	-1
0	100224	32.41	-1
0	100540	32.51	-1
0	100856	32.61	-1
0	101172	32.71	-1
0	101488	32.81	-1
0	101804	32.91	-1
0	102126	33.01	-1
0	102442	33.11	-1
0	102758	33.21	-1
0	103074	33.31	-1
0	103390	33.41	-1
0	103706	33.51	-1
0	104022	33.61	-1
0	104338	33.71	-1
0	104654	33.81	-1
0	104970	33.91	-1
0	105292	34.01	-1
0	105608	34.11	-1
0	105924	34.21	-1
0	106240	34.31	-1
0	106556	34.41	-1
0	106872	34.51	-1
0	107188	34.61	-1
0	107504	34.71	-1
0	107820	34.81	-1
0	108136	34.91	-1
0	108458	35.01	-1
0	108774	35.11	-1
0	109090	35.21	-1
0	109406	35.31	-1
0	109722	35.41	-1
0	110038	35.51	-1
0	110354	35.61	-1
0	110670	35.71	-1
0	110986	35.81	-1
0	111302	35.91	-1
0	111624	36.01	-1
0	111940	36.11	-1
0	112256	36.21	-1
0	112572	36.31	-1
0	112888	36.41	-1
0	113204	36.51	-1
0	113520	36.61	-1
0	113836	36.71	-1
0	114152	36.81	-1
0	114468	36.91	-1
0	114790	37.01	-1
0	115106	37.11	-1
0	115422	37.21	-1
0	115738	37.31	-1
0	116054	37.41	-1
0	116370	37.51	-1
0	116686	37.61	-1
0	117002	37.71	-1
0	117318	37.81	-1
0	117634	37.91	-1
0	117956	38.01	-1
0	118272	38.11	-1
0	118588	38.21	-1
0	118904	38.31	-1
0	119220	38.41	-1
0	119536	38.51	-1
0	119852	38.61	-1
0	120168	38.71	-1
0	120484	38.81	-1
0	120800	38.91	-1
0	121122	39.01	-1
0	121438	39.11	-1
0	121754	39.21	-1
0	122070	39.31	-1
0	122386	39.41	-1
0	122702	39.51	-1
0	123018	39.61	-1
0	123334	39.71	-1
0	123650	39.81	-1
0	123966	39.91	-1
0	124288	40.01	-1
0	124604	40.11	-1
0	124920	40.21	-1
0	125236	40.31	-1
0	125552	40.41	-1
0	125868	40.51	-1
0	126184	40.61	-1
0	126500	40.71	-1
0	126816	40.81	-1
0	127132	40.91	-1
0	127454	41.01	-1
0	127770	41.11	-1
0	128086	41.21	-1
0	128402	41.31	-1
0	128718	41.41	-1
0	129034	41.51	-1
0	129350	41.61	-1
0	129666	41.71	-1
0	129982	41.81	-1
0	130298	41.91	-1
0	130620	42.01	-1
0	130936	42.11	-1
0	131252	42.21	-1
0	131568	42.31	-1
0	131884	42.41	-1
0	132200	42.51	-1
0	132516	42.61	-1
0	132832	42.71	-1
0	133148	42.81	-1
0	133464	42.91	-1
0	133786	43.01	-1
0	134102	43.11	-1
0	134418	43.21	-1
0	134734	43.31	-1
0	135050	43.41	-1
0	135366	43.51	-1
0	135682	43.61	-1
0	135998	43.71	-1
0	136314	43.81	-1
0	136630	43.91	-1
0	136952	44.01	-1
0	137268	44.11	-1
0	137584	44.21	-1
0	137900	44.31	-1
0	138216	44.41	-1
0	138532	44.51	-1
0	138848	44.61	-1
0	139164	44.71	-1
0	139480	44.81	-1
0	139796	44.91	-1
0	140118	45.01	-1
0	140434	45.11	-1
0	140750	45.21	-1
0	141066	45.31	-1
0	141382	45.41	-1
0	141698	45.51	-1
0	142014	45.61	-1
0	142330	45.71	-1
0	142646	45.81	-1
0	142962	45.91	-1
0	143284	46.01	-1
0	143600	46.11	-1
0	143916	46.21	-1
0	144232	46.31	-1
0	144548	46.41	-1
0	144864	46.51	-1
0	145180	46.61	-1
0	145496	46.71	-1
0	145812	46.81	-1
0	146128	46.91	-1
0	146450	47.01	-1
0	146766	47.11	-1
0	147082	47.21	-1
0	147398	47.31	-1
0	147714	47.41	-1
0	148030	47.51	-1
0	148346	47.61	-1
0	148662	47.71	-1
0	148978	47.81	-1
0	149294	47.91	-1
0	149616	48.01	-1
0	149932	48.11	-1
0	150248	48.21	-1
0	150564	48.31	-1
0	150880	48.41	-1
0	151196	48.51	-1
0	151512	48.61	-1
0	151828	48.71	-1
0	152144	48.81	-1
0	152460	48.91	-1
0	152782	49.01	-1
0	153098	49.11	-1
0	153414	49.21	-1
0	153730	49.31	-1
0	154046	49.41	-1
0	154362	49.51	-1
0	154678	49.61	-1
0	154994	49.71	-1
0	155310	49.81	-1
0	155626	49.91	-1
0	155948	50.01	-1
0	156264	50.11	-1
0	156580	50.21	-1
0	156896	50.31	-1
0	157212	50.41	-1
0	157528	50.51	-1
0	157844	50.61	-1
0	158160	50.71	-1
0	158476	50.81	-1
0	158792	50.91	-1
0	159114	51.01	-1
0	159430	51.11	-1
0	159746	51.21	-1
0	160062	51.31	-1
0	160378	51.41	-1
0	160694	51.51	-1
0	161010	51.61	-1
0	161326	51.71	-1
0	161642	51.81	-1
0	161958	51.91	-1
0	162280	52.01	-1
0	162596	52.11	-1
0	162912	52.21	-1
0	163228	52.31	-1
0	163544	52.41	-1
0	163860	52.51	-1
0	164176	52.61	-1
0	164492	52.71	-1
0	164808	52.81	-1
0	165124	52.91	-1
0	165446	53.01	-1
0	165762	53.11	-1
0	166078	53.21	-1
0	166394	53.31	-1
0	166710	53.41	-1
0	167026	53.51	-1
0	167342	53.61	-1
0	167658	53.71	-1
0	167974	53.81	-1
0	168290	53.91	-1
0	168612	54.01	-1
0	168928	54.11	-1
0	169244	54.21	-1
0	169560	54.31	-1
0	169876	54.41	-1
0	170192	54.51	-1
0	170508	54.61	-1
0	170824	54.71	-1
0	171140	54.81	-1
0	171456	54.91	-1
0	171778	55.01	-1
0	172094	55.11	-1
0	172410	55.21	-1
0	172726	55.31	-1
0	173042	55.41	-1
0	173358	55.51	-1
0	173674	55.61	-1
0	173990	55.71	-1
0	174306	55.81	-1
0	174622	55.91	-1
0	174944	56.01	-1
0	175260	56.11	-1
0	175576	56.21	-1
0	175892	56.31	-1
0	176208	56.41	-1
0	176524	56.51	-1
0	176840	56.61	-1
0	177156	56.71	-1
0	177472	56.81	-1
0	177788	56.91	-1
0	178110	57.01	-1
0	178426	57.11	-1
0	178742	57.21	-1
0	179058	57.31	-1
0	179374	57.41	-1
0	179690	57.51	-1
0	180006	57.61	-1
0	180322	57.71	-1
0	180638	57.81	-1
0	180954	57.91	-1
0	181276	58.01	-1
0	181592	58.11	-1
0	181908	58.21	-1
0	182224	58.31	-1
0	182540	58.41	-1
0	182856	58.51	-1
0	183172	58.61	-1
0	183488	58.71	-1
0	183804	58.81	-1
0	184120	58.91	32.5376
0	184442	59.01	32.6268
0	184758	59.11	32.7168
0	185074	59.21	32.8079
0	185390	59.31	32.9006
0	185706	59.41	32.995
0	186022	59.51	33.0912
0	186338	59.61	33.1892
0	186654	59.71	33.2892
0	186970	59.81	33.391
0	187286	59.91	33.4945
0	187608	60.01	33.5997
0	187924	60.11	33.7064
0	188240	60.21	33.8145
0	188556	60.31	33.9237
0	188872	60.41	34.034
0	189188	60.51	34.1451
0	189504	60.61	34.2569
0	189820	60.71	34.3692
0	190136	60.81	34.4818
0	190452	60.91	34.5946
0	190774	61.01	34.7075
0	191090	61.11	34.8203
0	191406	61.21	34.9328
0	191722	61.31	35.045
0	192038	61.41	35.1567
0	192354	61.51	35.2678
0	192670	61.61	35.3783
0	192986	61.71	35.4881
0	193302	61.81	35.597
0	193618	61.91	35.7052
0	193940	62.01	35.8124
0	194256	62.11	35.9186
0	194572	62.21	36.0239
0	194888	62.31	36.1282
0	195204	62.41	36.2315
0	195520	62.51	36.3337
0	195836	62.61	36.4348
0	196152	62.71	36.5349
0	196468	62.81	36.6339
0	196784	62.91	36.7319
0	197106	63.01	36.8288
0	197422	63.11	36.9247
0	197738	63.21	37.0198
0	198054	63.31	37.1139
0	198370	63.41	37.2072
0	198686	63.51	37.2998
0	199002	63.61	37.3917
0	199318	63.71	37.4829
0	199634	63.81	37.5737
0	199950	63.91	37.6639
0	200272	64.01	37.7538
0	200588	64.11	37.8432
0	200904	64.21	37.9324
0	201220	64.31	38.0213
0	201536	64.41	38.11
0	201852	64.51	38.1986
0	202168	64.61	38.287
0	202484	64.71	38.3753
0	202800	64.81	38.4635
0	203116	64.91	38.5517
0	203438	65.01	38.6398
0	203754	65.11	38.728
0	204070	65.21	38.8162
0	204386	65.31	38.9043
0	204702	65.41	38.9925
0	205018	65.51	39.0808
0	205334	65.61	39.1691
0	205650	65.71	39.2574
0	205966	65.81	39.3458
0	206282	65.91	39.4342
0	206604	66.01	39.5226
0	206920	66.11	39.6111
0	207236	66.21	39.6997
0	207552	66.31	39.7883
0	207868	66.41	39.8769
0	208184	66.51	39.9656
0	208500	66.61	40.0543
0	208816	66.71	40.1431
0	209132	66.81	40.2319
0	209448	66.91	40.3207
0	209770	67.01	40.4095
0	210086	67.11	40.4983
0	210402	67.21	40.5872
0	210718	67.31	40.676
0	211034	67.41	40.7649
0	211350	67.51	40.8538
0	211666	67.61	40.9427
0	211982	67.71	41.0316
0	212298	67.81	41.1205
0	212614	67.91	41.2095
0	212936	68.01	41.2984
0	213252	68.11	41.3873
0	213568	68.21	41.4762
0	213884	68.31	41.5652
0	214200	68.41	41.6541
0	214516	68.51	41.743
0	214832	68.61	41.8319
0	215148	68.71	41.9208
0	215464	68.81	42.0098
0	215780	68.91	42.0987
0	216102	69.01	42.1876
0	216418	69.11	42.2765
0	216734	69.21	42.3654
0	217050	69.31	42.4543
0	217366	69.41	42.5432
0	217682	69.51	42.6321
0	217998	69.61	42.721
0	218314	69.71	42.8099
0	218630	69.81	42.8988
0	218946	69.91	42.9877
0	219268	70.01	43.0766
0	219584	70.11	43.1655
0	219900	70.21	43.2544
0	220216	70.31	43.3433
0	220532	70.41	43.4322
0	220848	70.51	43.5211
0	221164	70.61	43.6099
0	221480	70.71	43.6988
0	221796	70.81	43.7877
0	222112	70.91	43.8766
0	222434	71.01	43.9655
0	222750	71.11	44.0544
0	223066	71.21	44.1433
0	223382	71.31	44.2322
0	223698	71.41	44.3211
0	224014	71.51	44.4099
0	224330	71.61	44.4988
0	224646	71.71	44.5877
0	224962	71.81	44.6766
0	225278	71.91	44.7655
0	225600	72.01	44.8544
0	225916	72.11	44.9433
0	226232	72.21	45.0322
0	226548	72.31	45.1211
0	226864	72.41	45.2099
0	227180	72.51	45.2988
0	227496	72.61	45.3877
0	227812	72.71	45.4766
0	228128	72.81	45.5655
0	228444	72.91	45.6544
0	228766	73.01	45.7433
0	229082	73.11	45.8322
0	229398	73.21	45.9211
0	229714	73.31	46.0099
0	230030	73.41	46.0988
0	230346	73.51	46.1877
0	230662	73.61	46.2766
0	230978	73.71	46.3655
0	231294	73.81	46.4544
0	231610	73.91	46.5433
0	231932	74.01	46.6322
0	232248	74.11	46.7211
0	232564	74.21	46.81
0	232880	74.31	46.8988
0	233196	74.41	46.9877
0	233512	74.51	47.0766
0	233828	74.61	47.1655
0	234144	74.71	47.2544
0	234460	74.81	47.3433
0	234776	74.91	47.4322
0	235098	75.01	47.5211
0	235414	75.11	47.61
0	235730	75.21	47.6989
0	236046	75.31	47.7877
0	236362	75.41	47.8766
0	236678	75.51	47.9655
0	236994	75.61	48.0544
0	237310	75.71	48.1433
0	237626	75.81	48.2322
0	237942	75.91	48.3211
0	238264	76.01	48.41
0	238580	76.11	48.4989
0	238896	76.21	48.5878
0	239212	76.31	48.6766
0	239528	76.41	48.7655
0	239844	76.51	48.8544
0	240160	76.61	48.9433
0	240476	76.71	49.0322
0	240792	76.81	49.1211
0	241108	76.91	49.21
0	241430	77.01	49.2989
0	241746	77.11	49.3878
0	242062	77.21	49.4767
0	242378	77.31	49.5655
0	242694	77.41	49.6544
0	243010	77.51	49.7433
0	243326	77.61	49.8322
0	243642	77.71	49.9211
0	243958	77.81	50.01
0	244274	77.91	50.0989
0	244596	78.01	50.1878
0	244912	78.11	50.2767
0	245228	78.21	50.3656
0	245544	78.31	50.4544
0	245860	78.41	50.5433
0	246176	78.51	50.6322
0	246492	78.61	50.7211
0	246808	78.71	50.81
0	247124	78.81	50.8989
0	247440	78.91	50.9878
0	247762	79.01	51.0767
0	248078	79.11	51.1656
0	248394	79.21	51.2545
0	248710	79.31	51.3433
0	249026	79.41	51.4322
0	249342	79.51	51.5211
0	249658	79.61	51.61
0	249974	79.71	51.6989
0	250290	79.81	51.7878
0	250606	79.91	51.8767
0	250928	80.01	51.9656
0	251244	80.11	52.0545
0	251560	80.21	52.1434
0	251876	80.31	52.2322
0	252192	80.41	52.3211
0	252508	80.51	52.41
0	252824	80.61	52.4989
0	253140	80.71	52.5878
0	253456	80.81	52.6767
0	253772	80.91	52.7656
0	254094	81.01	52.8545
0	254410	81.11	52.9434
0	254726	81.21	53.0323
0	255042	81.31	53.1211
0	255358	81.41	53.21
0	255674	81.51	53.2989
0	255990	81.61	53.3878
0	256306	81.71	53.4767
0	256622	81.81	53.5656
0	256938	81.91	53.6545
0	257260	82.01	53.7434
0	257576	82.11	53.8323
0	257892	82.21	53.9212
0	258208	82.31	54.01
0	258524	82.41	54.0989
0	258840	82.51	54.1878
0	259156	82.61	54.2767
0	259472	82.71	54.3656
0	259788	82.81	54.4545
0	260104	82.91	54.5434
0	260426	83.01	54.6323
0	260742	83.11	54.7212
0	261058	83.21	54.8101
0	261374	83.31	54.8989
0	261690	83.41	54.9878
0	262006	83.51	55.0767
0	262322	83.61	55.1656
0	262638	83.71	55.2545
0	262954	83.81	55.3434
0	263270	83.91	55.4323
0	263592	84.01	55.5212
0	263908	84.11	55.6101
0	264224	84.21	55.699
0	264540	84.31	55.7878
0	264856	84.41	55.8767
0	265172	84.51	55.9656
0	265488	84.61	56.0545
0	265804	84.71	56.1434
0	266120	84.81	56.2323
0	266436	84.91	56.3212
0	266758	85.01	56.4101
0	267074	85.11	56.499
0	267390	85.21	56.5879
0	267706	85.31	56.6767
0	268022	85.41	56.7656
0	268338	85.51	56.8545
0	268654	85.61	56.9434
0	268970	85.71	57.0323
0	269286	85.81	57.1212
0	269602	85.91	57.2101
0	269924	86.01	57.299
0	270240	86.11	57.3879
0	270556	86.21	57.4768
0	270872	86.31	57.5656
0	271188	86.41	57.6545
0	271504	86.51	57.7434
0	271820	86.61	57.8323
0	272136	86.71	57.9212
0	272452	86.81	58.0101
0	272768	86.91	58.099
0	273090	87.01	58.1879
0	273406	87.11	58.2768
0	273722	87.21	58.3657
0	274038	87.31	58.4545
0	274354	87.41	58.5434
0	274670	87.51	58.6323
0	274986	87.61	58.7212
0	275302	87.71	58.8101
0	275618	87.81	58.899
0	275934	87.91	58.9879
0	276256	88.01	59.0768
0	276572	88.11	59.1653
0	276888	88.21	59.2532
0	277204	88.31	59.3399
0	277520	88.41	59.4252
0	277836	88.51	59.5091
0	278152	88.61	59.5913
0	278468	88.71	59.6719
0	278784	88.81	59.7508
0	279100	88.91	59.8281
0	279422	89.01	59.904
0	279738	89.11	59.9784
0	280054	89.21	60.0516
0	280370	89.31	60.1237
0	280686	89.41	60.1949
0	281002	89.51	60.2653
0	281318	89.61	60.335
0	281634	89.71	60.4043
0	281950	89.81	60.4733
0	282266	89.91	60.5421
0	282588	90.01	60.611
0	282904	90.11	60.6799
0	283220	90.21	60.7492
0	283536	90.31	60.8188
0	283852	90.41	60.889
0	284168	90.51	60.9597
0	284484	90.61	61.0311
0	284800	90.71	61.1033
0	285116	90.81	61.1763
0	285432	90.91	61.2502
0	285754	91.01	61.325
0	286070	91.11	61.4008
0	286386	91.21	61.4777
0	286702	91.31	61.5556
0	287018	91.41	61.6345
0	287334	91.51	61.7146
0	287650	91.61	61.7956
0	287966	91.71	61.8776
0	288282	91.81	61.9605
0	288598	91.91	62.0443
0	288920	92.01	62.1289
0	289236	92.11	62.2142
0	289552	92.21	62.3002
0	289868	92.31	62.3868
0	290184	92.41	62.474
0	290500	92.51	62.5616
0	290816	92.61	62.6496
0	291132	92.71	62.7379
0	291448	92.81	62.8266
0	291764	92.91	62.9155
0	292086	93.01	63.0046
0	292402	93.11	63.0938
0	292718	93.21	63.1832
0	293034	93.31	63.2727
0	293350	93.41	63.3623
0	293666	93.51	63.4519
0	293982	93.61	63.5415
0	294298	93.71	63.6311
0	294614	93.81	63.7207
0	294930	93.91	63.8103
0	295252	94.01	63.8999
0	295568	94.11	63.9894
0	295884	94.21	64.0789
0	296200	94.31	64.1684
0	296516	94.41	64.2578
0	296832	94.51	64.3471
0	297148	94.61	64.4364
0	297464	94.71	64.5257
0	297780	94.81	64.6149
0	298096	94.91	64.7041
0	298418	95.01	64.7932
0	298734	95.11	64.8823
0	299050	95.21	64.9713
0	299366	95.31	65.0604
0	299682	95.41	65.1494
0	299998	95.51	65.2384
0	300314	95.61	65.3273
0	300630	95.71	65.4163
0	300946	95.81	65.5052
0	301262	95.91	65.5941
0	301584	96.01	65.683
0	301900	96.11	65.7719
0	302216	96.21	65.8607
0	302532	96.31	65.9496
0	302848	96.41	66.0385
0	303164	96.51	66.1273
0	303480	96.61	66.2162
0	303796	96.71	66.305
0	304112	96.81	66.3939
0	304428	96.91	66.4828
0	304750	97.01	66.5716
0	305066	97.11	66.6605
0	305382	97.21	66.7493
0	305698	97.31	66.8382
0	306014	97.41	66.9271
0	306330	97.51	67.0159
0	306646	97.61	67.1048
0	306962	97.71	67.1937
0	307278	97.81	67.2825
0	307594	97.91	67.3714
0	307916	98.01	67.4603
0	308232	98.11	67.5492
0	308548	98.21	67.6381
0	308864	98.31	67.7269
0	309180	98.41	67.8158
0	309496	98.51	67.9047
0	309812	98.61	67.9936
0	310128	98.71	68.0825
0	310444	98.81	68.1714
0	310760	98.91	68.2603
0	311082	99.01	68.3491
0	311398	99.11	68.438
0	311714	99.21	68.5269
0	312030	99.31	68.6158
0	312346	99.41	68.7047
0	312662	99.51	68.7936
0	312978	99.61	68.8825
0	313294	99.71	68.9714
0	313610	99.81	69.0603
0	313926	99.91	69.1492
1	113	1.11	0
1	429	1.21	0
1	745	1.31	0
1	1061	1.41	0
1	1377	1.51	0
1	1693	1.61	0
1	2009	1.71	0
1	2325	1.81	0
1	2641	1.91	0
1	2963	2.01	0
1	3279	2.11	0
1	3595	2.21	0
1	3911	2.31	0
1	4227	2.41	0
1	4543	2.51	0
1	4859	2.61	0
1	5175	2.71	0
1	5491	2.81	0
1	5807	2.91	0
1	6129	3.01	0
1	6445	3.11	0
1	6761	3.21	0
1	7077	3.31	0
1	7393	3.41	0
1	7709	3.51	0
1	8025	3.61	0
1	8341	3.71	0
1	8657	3.81	0
1	8973	3.91	0
1	9295	4.01	0
1	9611	4.11	0
1	9927	4.21	0
1	10243	4.31	0
1	10559	4.41	0
1	10875	4.51	0
1	11191	4.61	0
1	11507	4.71	0
1	11823	4.81	0
1	12139	4.91	0
1	12461	5.01	0
1	12777	5.11	0
1	13093	5.21	0
1	13409	5.31	0
1	13725	5.41	0
1	14041	5.51	0
1	14357	5.61	0
1	14673	5.71	0
1	14989	5.81	0
1	15305	5.91	0
1	15627	6.01	0
1	15943	6.11	0
1	16259	6.21	0
1	16575	6.31	0
1	16891	6.41	0
1	17207	6.51	0
1	17523	6.61	0
1	17839	6.71	0
1	18155	6.81	0
1	18471	6.91	0
1	18793	7.01	0
1	19109	7.11	0
1	19425	7.21	0
1	19741	7.31	0
1	20057	7.41	0
1	20373	7.51	0
1	20689	7.61	0
1	21005	7.71	0
1	21321	7.81	0
1	21637	7.91	0
1	21959	8.01	0
1	22275	8.11	0
1	22591	8.21	0
1	22907	8.31	0
1	23223	8.41	0
1	23539	8.51	0
1	23855	8.61	0
1	24171	8.71	0
1	24487	8.81	0
1	24803	8.91	0
1	25125	9.01	0
1	25441	9.11	0
1	25757	9.21	0
1	26073	9.31	0
1	26389	9.41	0
1	26705	9.51	0
1	27021	9.61	0
1	27337	9.71	0
1	27653	9.81	0
1	27969	9.91	0
1	29308	10.01	0
1	29624	10.11	0
1	29940	10.21	0
1	30256	10.31	0
1	30572	10.41	0
1	30888	10.51	0
1	31204	10.61	0
1	31520	10.71	0
1	31836	10.81	0
1	32152	10.91	0
1	32474	11.01	0
1	32790	11.11	0
1	33106	11.21	0
1	33422	11.31	0
1	33738	11.41	0
1	34054	11.51	0
1	34370	11.61	0
1	34686	11.71	0
1	35002	11.81	0
1	35318	11.91	0
1	35640	12.01	0
1	35956	12.11	0
1	36272	12.21	0
1	36588	12.31	0
1	36904	12.41	0
1	37220	12.51	0
1	37536	12.61	0
1	37852	12.71	0
1	38168	12.81	0
1	38484	12.91	0
1	38806	13.01	0
1	39122	13.11	0
1	39438	13.21	0
1	39754	13.31	0
1	40070	13.41	0
1	40386	13.51	0
1	40702	13.61	0
1	41018	13.71	0
1	41334	13.81	0
1	41650	13.91	0
1	41972	14.01	0
1	42288	14.11	0
1	42604	14.21	0
1	42920	14.31	0
1	43236	14.41	0
1	43552	14.51	0
1	43868	14.61	0
1	44184	14.71	0
1	44500	14.81	0
1	44816	14.91	0
1	45138	15.01	0
1	45454	15.11	0
1	45770	15.21	0
1	46086	15.31	0
1	46402	15.41	0
1	46718	15.51	0
1	47034	15.61	0
1	47350	15.71	0
1	47666	15.81	0
1	47982	15.91	0
1	48304	16.01	0
1	48620	16.11	0
1	48936	16.21	0
1	49252	16.31	0
1	49568	16.41	0
1	49884	16.51	0
1	50200	16.61	0
1	50516	16.71	0
1	50832	16.81	0
1	51148	16.91	0
1	51470	17.01	0
1	51786	17.11	0
1	52102	17.21	0
1	52418	17.31	0
1	52734	17.41	0
1	53050	17.51	0
1	53366	17.61	0
1	53682	17.71	0
1	53998	17.81	0
1	54314	17.91	0
1	54636	18.01	0
1	54952	18.11	0
1	55268	18.21	0
1	55584	18.31	0
1	55900	18.41	0
1	56216	18.51	0
1	56532	18.61	0
1	56848	18.71	0
1	57164	18.81	0
1	57480	18.91	0
1	57802	19.01	0
1	58118	19.11	0
1	58434	19.21	0
1	58750	19.31	0
1	59066	19.41	0
1	59382	19.51	0
1	59698	19.61	0
1	60014	19.71	0
1	60330	19.81	0
1	60646	19.91	0
1	60968	20.01	0
1	61284	20.11	0
1	61600	20.21	0
1	61916	20.31	0
1	62232	20.41	0
1	62548	20.51	0
1	62864	20.61	0
1	63180	20.71	0
1	63496	20.81	0
1	63812	20.91	0
1	64134	21.01	0
1	64450	21.11	0
1	64766	21.21	0
1	65082	21.31	0
1	65398	21.41	0
1	65714	21.51	0
1	66030	21.61	0
1	66346	21.71	0
1	66662	21.81	0
1	66978	21.91	0
1	67300	22.01	0
1	67616	22.11	0
1	67932	22.21	0
1	68248	22.31	0
1	68564	22.41	0
1	68880	22.51	0
1	69196	22.61	0
1	69512	22.71	0
1	69828	22.81	0
1	70144	22.91	0
1	70466	23.01	0
1	70782	23.11	0
1	71098	23.21	0
1	71414	23.31	0
1	71730	23.41	0
1	72046	23.51	0
1	72362	23.61	0
1	72678	23.71	0
1	72994	23.81	0
1	73310	23.91	0
1	73632	24.01	0
1	73948	24.11	0
1	74264	24.21	0
1	74580	24.31	0
1	74896	24.41	0
1	75212	24.51	0
1	75528	24.61	0
1	75844	24.71	0
1	76160	24.81	0
1	76476	24.91	0
1	76798	25.01	0
1	77114	25.11	0
1	77430	25.21	0
1	77746	25.31	0
1	78062	25.41	0
1	78378	25.51	0
1	78694	25.61	0
1	79010	25.71	0
1	79326	25.81	0
1	79642	25.91	0
1	79964	26.01	0
1	80280	26.11	0
1	80596	26.21	0
1	80912	26.31	0
1	81228	26.41	0
1	81544	26.51	0
1	81860	26.61	0
1	82176	26.71	0
1	82492	26.81	0
1	82808	26.91	0
1	83130	27.01	0
1	83446	27.11	0
1	83762	27.21	0
1	84078	27.31	0
1	84394	27.41	0
1	84710	27.51	0
1	85026	27.61	0
1	85342	27.71	0
1	85658	27.81	0
1	85974	27.91	0
1	86296	28.01	0
1	86612	28.11	0
1	86928	28.21	0
1	87244	28.31	0
1	87560	28.41	0
1	87876	28.51	0
1	88192	28.61	0
1	88508	28.71	0
1	88824	28.81	0
1	89140	28.91	0
1	89462	29.01	0
1	89778	29.11	0
1	90094	29.21	0
1	90410	29.31	0
1	90726	29.41	0
1	91042	29.51	0
1	91358	29.61	0
1	91674	29.71	0
1	91990	29.81	0
1	92306	29.91	0
1	92628	30.01	0
1	92944	30.11	0
1	93260	30.21	0
1	93576	30.31	0
1	93892	30.41	0
1	94208	30.51	0
1	94524	30.61	0
1	94840	30.71	0
1	95156	30.81	0
1	95472	30.91	0
1	95794	31.01	0
1	96110	31.11	0
1	96426	31.21	0
1	96742	31.31	0
1	97058	31.41	0
1	97374	31.51	0
1	97690	31.61	0
1	98006	31.71	0
1	98322	31.81	0
1	98638	31.91	0
1	98960	32.01	0
1	99276	32.11	0
1	99592	32.21	0
1	99908	32.31	0
1	100224	32.41	0
1	100540	32.51	0
1	100856	32.61	0
1	101172	32.71	0
1	101488	32.81	0
1	101804	32.91	0
1	102126	33.01	0
1	102442	33.11	0
1	102758	33.21	0
1	103074	33.31	0
1	103390	33.41	0
1	103706	33.51	0
1	104022	33.61	0
1	104338	33.71	0
1	104654	33.81	0
1	104970	33.91	0
1	105292	34.01	0
1	105608	34.11	0
1	105924	34.21	0
1	106240	34.31	0
1	106556	34.41	0
1	106872	34.51	0
1	107188	34.61	0
1	107504	34.71	0
1	107820	34.81	0
1	108136	34.91	0
1	108458	35.01	0
1	108774	35.11	0
1	109090	35.21	0
1	109406	35.31	0
1	109722	35.41	0
1	110038	35.51	0
1	110354	35.61	0
1	110670	35.71	0
1	110986	35.81	0
1	111302	35.91	0
1	111624	36.01	0
1	111940	36.11	0
1	112256	36.21	0
1	112572	36.31	0
1	112888	36.41	0
1	113204	36.51	0
1	113520	36.61	0
1	113836	36.71	0
1	114152	36.81	0
1	114468	36.91	0
1	114790	37.01	0
1	115106	37.11	0
1	115422	37.21	0
1	115738	37.31	0
1	116054	37.41	0
1	116370	37.51	0
1	116686	37.61	0
1	117002	37.71	0
1	117318	37.81	0
1	117634	37.91	0
1	117956	38.01	0
1	118272	38.11	0
1	118588	38.21	0
1	118904	38.31	0
1	119220	38.41	0
1	119536	38.51	0
1	119852	38.61	0
1	120168	38.71	0
1	120484	38.81	0
1	120800	38.91	0
1	121122	39.01	0
1	121438	39.11	0
1	121754	39.21	0
1	122070	39.31	0
1	122386	39.41	0
1	122702	39.51	0
1	123018	39.61	0
1	123334	39.71	0
1	123650	39.81	0
1	123966	39.91	0
1	124288	40.01	0
1	124604	40.11	0
1	124920	40.21	0
1	125236	40.31	0
1	125552	40.41	0
1	125868	40.51	0
1	126184	40.61	0
1	126500	40.71	0
1	126816	40.81	0
1	127132	40.91	0
1	127454	41.01	0
1	127770	41.11	0
1	128086	41.21	0
1	128402	41.31	0
1	128718	41.41	0
1	129034	41.51	0
1	129350	41.61	0
1	129666	41.71	0
1	129982	41.81	0
1	130298	41.91	0
1	130620	42.01	0
1	130936	42.11	0
1	131252	42.21	0
1	131568	42.31	0
1	131884	42.41	0
1	132200	42.51	0
1	132516	42.61	0
1	132832	42.71	0
1	133148	42.81	0
1	133464	42.91	0
1	133786	43.01	0
1	134102	43.11	0
1	134418	43.21	0
1	134734	43.31	0
1	135050	43.41	0
1	135366	43.51	0
1	135682	43.61	0
1	135998	43.71	0
1	136314	43.81	0
1	136630	43.91	0
1	136952	44.01	0
1	137268	44.11	0
1	137584	44.21	0
1	137900	44.31	0
1	138216	44.41	0
1	138532	44.51	0
1	138848	44.61	0
1	139164	44.71	0
1	139480	44.81	0
1	139796	44.91	0
1	140118	45.01	0
1	140434	45.11	0
1	140750	45.21	0
1	141066	45.31	0
1	141382	45.41	0
1	141698	45.51	0
1	142014	45.61	0
1	142330	45.71	0
1	142646	45.81	0
1	142962	45.91	0
1	143284	46.01	0
1	143600	46.11	0
1	143916	46.21	0
1	144232	46.31	0
1	144548	46.41	0
1	144864	46.51	0
1	145180	46.61	0
1	145496	46.71	0
1	145812	46.81	0
1	146128	46.91	0
1	146450	47.01	0
1	146766	47.11	0
1	147082	47.21	0
1	147398	47.31	0
1	147714	47.41	0
1	148030	47.51	0
1	148346	47.61	0
1	148662	47.71	0
1	148978	47.81	0
1	149294	47.91	0
1	149616	48.01	0
1	149932	48.11	0
1	150248	48.21	0
1	150564	48.31	0
1	150880	48.41	0
1	151196	48.51	0
1	151512	48.61	0
1	151828	48.71	0
1	152144	48.81	0
1	152460	48.91	0
1	152782	49.01	0
1	153098	49.11	0
1	153414	49.21	0
1	153730	49.31	0
1	154046	49.41	0
1	154362	49.51	0
1	154678	49.61	0
1	154994	49.71	0
1	155310	49.81	0
1	155626	49.91	0
1	155948	50.01	0
1	156264	50.11	0
1	156580	50.21	0
1	156896	50.31	0
1	157212	50.41	0
1	157528	50.51	0
1	157844	50.61	0
1	158160	50.71	0
1	158476	50.81	0
1	158792	50.91	0
1	159114	51.01	0
1	159430	51.11	0
1	159746	51.21	0
1	160062	51.31	0
1	160378	51.41	0
1	160694	51.51	0
1	161010	51.61	0
1	161326	51.71	0
1	161642	51.81	0
1	161958	51.91	0
1	162280	52.01	0
1	162596	52.11	0
1	162912	52.21	0
1	163228	52.31	0
1	163544	52.41	0
1	163860	52.51	0
1	164176	52.61	0
1	164492	52.71	0
1	164808	52.81	0
1	165124	52.91	0
1	165446	53.01	0
1	165762	53.11	0
1	166078	53.21	0
1	166394	53.31	0
1	166710	53.41	0
1	167026	53.51	0
1	167342	53.61	0
1	167658	53.71	0
1	167974	53.81	0
1	168290	53.91	0
1	168612	54.01	0
1	168928	54.11	0
1	169244	54.21	0
1	169560	54.31	0
1	169876	54.41	0
1	170192	54.51	0
1	170508	54.61	0
1	170824	54.71	0
1	171140	54.81	0
1	171456	54.91	0
1	171778	55.01	0
1	172094	55.11	0
1	172410	55.21	0
1	172726	55.31	0
1	173042	55.41	0
1	173358	55.51	0
1	173674	55.61	0
1	173990	55.71	0
1	174306	55.81	0
1	174622	55.91	0
1	174944	56.01	0
1	175260	56.11	0
1	175576	56.21	0
1	175892	56.31	0
1	176208	56.41	0
1	176524	56.51	0
1	176840	56.61	0
1	177156	56.71	0
1	177472	56.81	0
1	177788	56.91	0
1	178110	57.01	0
1	178426	57.11	0
1	178742	57.21	0
1	179058	57.31	0
1	179374	57.41	0
1	179690	57.51	0
1	180006	57.61	0
1	180322	57.71	0
1	180638	57.81	0
1	180954	57.91	0
1	181276	58.01	0
1	181592	58.11	0
1	181908	58.21	0
1	182224	58.31	0
1	182540	58.41	0
1	182856	58.51	0
1	183172	58.61	0
1	183488	58.71	0
1	183804	58.81	0
1	184120	58.91	0.88953
1	184442	59.01	0.89504
1	184758	59.11	0.905161
1	185074	59.21	0.918761
1	185390	59.31	0.934851
1	185706	59.41	0.952576
1	186022	59.51	0.971205
1	186338	59.61	0.990118
1	186654	59.71	1.0088
1	186970	59.81	1.02684
1	187286	59.91	1.04388
1	187608	60.01	1.05968
1	187924	60.11	1.07403
1	188240	60.21	1.08679
1	188556	60.31	1.09787
1	188872	60.41	1.10723
1	189188	60.51	1.11485
1	189504	60.61	1.12076
1	189820	60.71	1.12499
1	190136	60.81	1.1276
1	190452	60.91	1.12868
1	190774	61.01	1.12832
1	191090	61.11	1.1266
1	191406	61.21	1.12364
1	191722	61.31	1.11954
1	192038	61.41	1.1144
1	192354	61.51	1.10833
1	192670	61.61	1.10144
1	192986	61.71	1.09381
1	193302	61.81	1.08555
1	193618	61.91	1.07675
1	193940	62.01	1.06749
1	194256	62.11	1.05784
1	194572	62.21	1.04788
1	194888	62.31	1.03767
1	195204	62.41	1.02728
1	195520	62.51	1.01675
1	195836	62.61	1.00614
1	196152	62.71	0.995483
1	196468	62.81	0.984851
1	196784	62.91	0.974408
1	197106	63.01	0.964307
1	197422	63.11	0.954668
1	197738	63.21	0.945581
1	198054	63.31	0.937111
1	198370	63.41	0.929297
1	198686	63.51	0.922162
1	199002	63.61	0.915713
1	199318	63.71	0.909941
1	199634	63.81	0.904829
1	199950	63.91	0.90035
1	200272	64.01	0.89647
1	200588	64.11	0.893151
1	200904	64.21	0.890352
1	201220	64.31	0.88803
1	201536	64.41	0.886141
1	201852	64.51	0.88464
1	202168	64.61	0.883486
1	202484	64.71	0.882636
1	202800	64.81	0.882051
1	203116	64.91	0.881694
1	203438	65.01	0.881531
1	203754	65.11	0.881528
1	204070	65.21	0.881659
1	204386	65.31	0.881896
1	204702	65.41	0.882216
1	205018	65.51	0.882598
1	205334	65.61	0.883025
1	205650	65.71	0.883481
1	205966	65.81	0.883951
1	206282	65.91	0.884426
1	206604	66.01	0.884896
1	206920	66.11	0.885354
1	207236	66.21	0.885792
1	207552	66.31	0.886208
1	207868	66.41	0.886597
1	208184	66.51	0.886958
1	208500	66.61	0.887289
1	208816	66.71	0.887589
1	209132	66.81	0.887859
1	209448	66.91	0.888099
1	209770	67.01	0.88831
1	210086	67.11	0.888494
1	210402	67.21	0.888652
1	210718	67.31	0.888786
1	211034	67.41	0.888898
1	211350	67.51	0.88899
1	211666	67.61	0.889064
1	211982	67.71	0.889122
1	212298	67.81	0.889165
1	212614	67.91	0.889196
1	212936	68.01	0.889216
1	213252	68.11	0.889226
1	213568	68.21	0.889229
1	213884	68.31	0.889226
1	214200	68.41	0.889217
1	214516	68.51	0.889204
1	214832	68.61	0.889188
1	215148	68.71	0.88917
1	215464	68.81	0.88915
1	215780	68.91	0.889129
1	216102	69.01	0.889108
1	216418	69.11	0.889087
1	216734	69.21	0.889066
1	217050	69.31	0.889047
1	217366	69.41	0.889028
1	217682	69.51	0.88901
1	217998	69.61	0.888993
1	218314	69.71	0.888978
1	218630	69.81	0.888964
1	218946	69.91	0.888951
1	219268	70.01	0.88894
1	219584	70.11	0.88893
1	219900	70.21	0.888921
1	220216	70.31	0.888914
1	220532	70.41	0.888907
1	220848	70.51	0.888902
1	221164	70.61	0.888898
1	221480	70.71	0.888894
1	221796	70.81	0.888891
1	222112	70.91	0.888889
1	222434	71.01	0.888887
1	222750	71.11	0.888886
1	223066	71.21	0.888886
1	223382	71.31	0.888885
1	223698	71.41	0.888885
1	224014	71.51	0.888886
1	224330	71.61	0.888886
1	224646	71.71	0.888887
1	224962	71.81	0.888888
1	225278	71.91	0.888888
1	225600	72.01	0.888889
1	225916	72.11	0.88889
1	226232	72.21	0.888891
1	226548	72.31	0.888892
1	226864	72.41	0.888893
1	227180	72.51	0.888894
1	227496	72.61	0.888895
1	227812	72.71	0.888896
1	228128	72.81	0.888896
1	228444	72.91	0.888897
1	228766	73.01	0.888897
1	229082	73.11	0.888898
1	229398	73.21	0.888898
1	229714	73.31	0.888899
1	230030	73.41	0.888899
1	230346	73.51	0.8889
1	230662	73.61	0.8889
1	230978	73.71	0.8889
1	231294	73.81	0.8889
1	231610	73.91	0.8889
1	231932	74.01	0.8889
1	232248	74.11	0.888901
1	232564	74.21	0.888901
1	232880	74.31	0.888901
1	233196	74.41	0.888901
1	233512	74.51	0.888901
1	233828	74.61	0.888901
1	234144	74.71	0.888901
1	234460	74.81	0.888901
1	234776	74.91	0.888901
1	235098	75.01	0.888901
1	235414	75.11	0.8889
1	235730	75.21	0.8889
1	236046	75.31	0.8889
1	236362	75.41	0.8889
1	236678	75.51	0.8889
1	236994	75.61	0.8889
1	237310	75.71	0.8889
1	237626	75.81	0.8889
1	237942	75.91	0.8889
1	238264	76.01	0.8889
1	238580	76.11	0.8889
1	238896	76.21	0.8889
1	239212	76.31	0.8889
1	239528	76.41	0.8889
1	239844	76.51	0.8889
1	240160	76.61	0.8889
1	240476	76.71	0.8889
1	240792	76.81	0.8889
1	241108	76.91	0.8889
1	241430	77.01	0.8889
1	241746	77.11	0.8889
1	242062	77.21	0.8889
1	242378	77.31	0.8889
1	242694	77.41	0.8889
1	243010	77.51	0.8889
1	243326	77.61	0.8889
1	243642	77.71	0.8889
1	243958	77.81	0.8889
1	244274	77.91	0.8889
1	244596	78.01	0.8889
1	244912	78.11	0.8889
1	245228	78.21	0.8889
1	245544	78.31	0.8889
1	245860	78.41	0.8889
1	246176	78.51	0.8889
1	246492	78.61	0.8889
1	246808	78.71	0.8889
1	247124	78.81	0.8889
1	247440	78.91	0.8889
1	247762	79.01	0.8889
1	248078	79.11	0.8889
1	248394	79.21	0.8889
1	248710	79.31	0.8889
1	249026	79.41	0.8889
1	249342	79.51	0.8889
1	249658	79.61	0.8889
1	249974	79.71	0.8889
1	250290	79.81	0.8889
1	250606	79.91	0.8889
1	250928	80.01	0.8889
1	251244	80.11	0.8889
1	251560	80.21	0.8889
1	251876	80.31	0.8889
1	252192	80.41	0.8889
1	252508	80.51	0.8889
1	252824	80.61	0.8889
1	253140	80.71	0.8889
1	253456	80.81	0.8889
1	253772	80.91	0.8889
1	254094	81.01	0.8889
1	254410	81.11	0.8889
1	254726	81.21	0.8889
1	255042	81.31	0.8889
1	255358	81.41	0.8889
1	255674	81.51	0.8889
1	255990	81.61	0.8889
1	256306	81.71	0.8889
1	256622	81.81	0.8889
1	256938	81.91	0.8889
1	257260	82.01	0.8889
1	257576	82.11	0.8889
1	257892	82.21	0.8889
1	258208	82.31	0.8889
1	258524	82.41	0.8889
1	258840	82.51	0.8889
1	259156	82.61	0.8889
1	259472	82.71	0.8889
1	259788	82.81	0.8889
1	260104	82.91	0.8889
1	260426	83.01	0.8889
1	260742	83.11	0.8889
1	261058	83.21	0.8889
1	261374	83.31	0.8889
1	261690	83.41	0.8889
1	262006	83.51	0.8889
1	262322	83.61	0.8889
1	262638	83.71	0.8889
1	262954	83.81	0.8889
1	263270	83.91	0.8889
1	263592	84.01	0.8889
1	263908	84.11	0.8889
1	264224	84.21	0.8889
1	264540	84.31	0.8889
1	264856	84.41	0.8889
1	265172	84.51	0.8889
1	265488	84.61	0.8889
1	265804	84.71	0.8889
1	266120	84.81	0.8889
1	266436	84.91	0.8889
1	266758	85.01	0.8889
1	267074	85.11	0.8889
1	267390	85.21	0.8889
1	267706	85.31	0.8889
1	268022	85.41	0.8889
1	268338	85.51	0.8889
1	268654	85.61	0.8889
1	268970	85.71	0.8889
1	269286	85.81	0.8889
1	269602	85.91	0.8889
1	269924	86.01	0.8889
1	270240	86.11	0.8889
1	270556	86.21	0.8889
1	270872	86.31	0.8889
1	271188	86.41	0.8889
1	271504	86.51	0.8889
1	271820	86.61	0.8889
1	272136	86.71	0.8889
1	272452	86.81	0.8889
1	272768	86.91	0.8889
1	273090	87.01	0.8889
1	273406	87.11	0.8889
1	273722	87.21	0.8889
1	274038	87.31	0.8889
1	274354	87.41	0.8889
1	274670	87.51	0.8889
1	274986	87.61	0.8889
1	275302	87.71	0.8889
1	275618	87.81	0.8889
1	275934	87.91	0.8889
1	276256	88.01	0.888054
1	276572	88.11	0.882632
1	276888	88.21	0.873198
1	277204	88.31	0.860782
1	277520	88.41	0.84628
1	277836	88.51	0.830465
1	278152	88.61	0.813994
1	278468	88.71	0.79742
1	278784	88.81	0.781202
1	279100	88.91	0.765711
1	279422	89.01	0.751243
1	279738	89.11	0.738025
1	280054	89.21	0.726226
1	280370	89.31	0.71596
1	280686	89.41	0.707298
1	281002	89.51	0.700275
1	281318	89.61	0.694889
1	281634	89.71	0.691115
1	281950	89.81	0.688906
1	282266	89.91	0.688196
1	282588	90.01	0.688908
1	282904	90.11	0.690953
1	283220	90.21	0.694237
1	283536	90.31	0.698661
1	283852	90.41	0.704125
1	284168	90.51	0.710528
1	284484	90.61	0.717771
1	284800	90.71	0.725756
1	285116	90.81	0.734392
1	285432	90.91	0.74359
1	285754	91.01	0.753267
1	286070	91.11	0.763345
1	286386	91.21	0.773752
1	286702	91.31	0.784346
1	287018	91.41	0.794913
1	287334	91.51	0.805267
1	287650	91.61	0.815262
1	287966	91.71	0.824781
1	288282	91.81	0.83374
1	288598	91.91	0.842079
1	288920	92.01	0.84976
1	289236	92.11	0.856763
1	289552	92.21	0.863084
1	289868	92.31	0.868733
1	290184	92.41	0.873728
1	290500	92.51	0.878098
1	290816	92.61	0.881877
1	291132	92.71	0.885103
1	291448	92.81	0.887818
1	291764	92.91	0.890064
1	292086	93.01	0.891886
1	292402	93.11	0.893327
1	292718	93.21	0.894429
1	293034	93.31	0.895235
1	293350	93.41	0.895782
1	293666	93.51	0.896107
1	293982	93.61	0.896245
1	294298	93.71	0.896226
1	294614	93.81	0.896079
1	294930	93.91	0.89583
1	295252	94.01	0.895501
1	295568	94.11	0.895113
1	295884	94.21	0.894683
1	296200	94.31	0.894227
1	296516	94.41	0.893757
1	296832	94.51	0.893285
1	297148	94.61	0.892818
1	297464	94.71	0.892365
1	297780	94.81	0.891932
1	298096	94.91	0.891522
1	298418	95.01	0.891138
1	298734	95.11	0.890784
1	299050	95.21	0.890459
1	299366	95.31	0.890164
1	299682	95.41	0.8899
1	299998	95.51	0.889666
1	300314	95.61	0.889459
1	300630	95.71	0.88928
1	300946	95.81	0.889126
1	301262	95.91	0.888996
1	301584	96.01	0.888887
1	301900	96.11	0.888799
1	302216	96.21	0.888728
1	302532	96.31	0.888672
1	302848	96.41	0.888631
1	303164	96.51	0.888602
1	303480	96.61	0.888584
1	303796	96.71	0.888574
1	304112	96.81	0.888572
1	304428	96.91	0.888577
1	304750	97.01	0.888586
1	305066	97.11	0.888599
1	305382	97.21	0.888616
1	305698	97.31	0.888634
1	306014	97.41	0.888654
1	306330	97.51	0.888675
1	306646	97.61	0.888696
1	306962	97.71	0.888717
1	307278	97.81	0.888737
1	307594	97.91	0.888757
1	307916	98.01	0.888776
1	308232	98.11	0.888793
1	308548	98.21	0.88881
1	308864	98.31	0.888825
1	309180	98.41	0.888838
1	309496	98.51	0.888851
1	309812	98.61	0.888862
1	310128	98.71	0.888871
1	310444	98.81	0.88888
1	310760	98.91	0.888887
1	311082	99.01	0.888893
1	311398	99.11	0.888899
1	311714	99.21	0.888903
1	312030	99.31	0.888906
1	312346	99.41	0.888909
1	312662	99.51	0.888911
1	312978	99.61	0.888913
1	313294	99.71	0.888914
1	313610	99.81	0.888914
1	313926	99.91	0.888915
2	113	1.11	0
2	429	1.21	0
2	745	1.31	0
2	1061	1.41	0
2	1377	1.51	0
2	1693	1.61	0
2	2009	1.71	0
2	2325	1.81	0
2	2641	1.91	0
2	2963	2.01	0
2	3279	2.11	0
2	3595	2.21	0
2	3911	2.31	0
2	4227	2.41	0
2	4543	2.51	0
2	4859	2.61	0
2	5175	2.71	0
2	5491	2.81	0
2	5807	2.91	0
2	6129	3.01	0
2	6445	3.11	0
2	6761	3.21	0
2	7077	3.31	0
2	7393	3.41	0
2	7709	3.51	0
2	8025	3.61	0
2	8341	3.71	0
2	8657	3.81	0
2	8973	3.91	0
2	9295	4.01	0
2	9611	4.11	0
2	9927	4.21	0
2	10243	4.31	0
2	10559	4.41	0
2	10875	4.51	0
2	11191	4.61	0
2	11507	4.71	0
2	11823	4.81	0
2	12139	4.91	0
2	12461	5.01	0
2	12777	5.11	0
2	13093	5.21	0
2	13409	5.31	0
2	13725	5.41	0
2	14041	5.51	0
2	14357	5.61	0
2	14673	5.71	0
2	14989	5.81	0
2	15305	5.91	0
2	15627	6.01	0
2	15943	6.11	0
2	16259	6.21	0
2	16575	6.31	0
2	16891	6.41	0
2	17207	6.51	0
2	17523	6.61	0
2	17839	6.71	0
2	18155	6.81	0
2	18471	6.91	0
2	18793	7.01	0
2	19109	7.11	0
2	19425	7.21	0
2	19741	7.31	0
2	20057	7.41	0
2	20373	7.51	0
2	20689	7.61	0
2	21005	7.71	0
2	21321	7.81	0
2	21637	7.91	0
2	21959	8.01	0
2	22275	8.11	0
2	22591	8.21	0
2	22907	8.31	0
2	23223	8.41	0
2	23539	8.51	0
2	23855	8.61	0
2	24171	8.71	0
2	24487	8.81	0
2	24803	8.91	0
2	25125	9.01	0
2	25441	9.11	0
2	25757	9.21	0
2	26073	9.31	0
2	26389	9.41	0
2	26705	9.51	0
2	27021	9.61	0
2	27337	9.71	0
2	27653	9.81	0
2	27969	9.91	0
2	29308	10.01	0
2	29624	10.11	0
2	29940	10.21	0
2	30256	10.31	0
2	30572	10.41	0
2	30888	10.51	0
2	31204	10.61	0
2	31520	10.71	0
2	31836	10.81	0
2	32152	10.91	0
2	32474	11.01	0
2	32790	11.11	0
2	33106	11.21	0
2	33422	11.31	0
2	33738	11.41	0
2	34054	11.51	0
2	34370	11.61	0
2	34686	11.71	0
2	35002	11.81	0
2	35318	11.91	0
2	35640	12.01	0
2	35956	12.11	0
2	36272	12.21	0
2	36588	12.31	0
2	36904	12.41	0
2	37220	12.51	0
2	37536	12.61	0
2	37852	12.71	0
2	38168	12.81	0
2	38484	12.91	0
2	38806	13.01	0
2	39122	13.11	0
2	39438	13.21	0
2	39754	13.31	0
2	40070	13.41	0
2	40386	13.51	0
2	40702	13.61	0
2	41018	13.71	0
2	41334	13.81	0
2	41650	13.91	0
2	41972	14.01	0
2	42288	14.11	0
2	42604	14.21	0
2	42920	14.31	0
2	43236	14.41	0
2	43552	14.51	0
2	43868	14.61	0
2	44184	14.71	0
2	44500	14.81	0
2	44816	14.91	0
2	45138	15.01	0
2	45454	15.11	0
2	45770	15.21	0
2	46086	15.31	0
2	46402	15.41	0
2	46718	15.51	0
2	47034	15.61	0
2	47350	15.71	0
2	47666	15.81	0
2	47982	15.91	0
2	48304	16.01	0
2	48620	16.11	0
2	48936	16.21	0
2	49252	16.31	0
2	49568	16.41	0
2	49884	16.51	0
2	50200	16.61	0
2	50516	16.71	0
2	50832	16.81	0
2	51148	16.91	0
2	51470	17.01	0
2	51786	17.11	0
2	52102	17.21	0
2	52418	17.31	0
2	52734	17.41	0
2	53050	17.51	0
2	53366	17.61	0
2	53682	17.71	0
2	53998	17.81	0
2	54314	17.91	0
2	54636	18.01	0
2	54952	18.11	0
2	55268	18.21	0
2	55584	18.31	0
2	55900	18.41	0
2	56216	18.51	0
2	56532	18.61	0
2	56848	18.71	0
2	57164	18.81	0
2	57480	18.91	0
2	57802	19.01	0
2	58118	19.11	0
2	58434	19.21	0
2	58750	19.31	0
2	59066	19.41	0
2	59382	19.51	0
2	59698	19.61	0
2	60014	19.71	0
2	60330	19.81	0
2	60646	19.91	0
2	60968	20.01	0
2	61284	20.11	0
2	61600	20.21	0
2	61916	20.31	0
2	62232	20.41	0
2	62548	20.51	0
2	62864	20.61	0
2	63180	20.71	0
2	63496	20.81	0
2	63812	20.91	0
2	64134	21.01	0
2	64450	21.11	0
2	64766	21.21	0
2	65082	21.31	0
2	65398	21.41	0
2	65714	21.51	0
2	66030	21.61	0
2	66346	21.71	0
2	66662	21.81	0
2	66978	21.91	0
2	67300	22.01	0
2	67616	22.11	0
2	67932	22.21	0
2	68248	22.31	0
2	68564	22.41	0
2	68880	22.51	0
2	69196	22.61	0
2	69512	22.71	0
2	69828	22.81	0
2	70144	22.91	0
2	70466	23.01	0
2	70782	23.11	0
2	71098	23.21	0
2	71414	23.31	0
2	71730	23.41	0
2	72046	23.51	0
2	72362	23.61	0
2	72678	23.71	0
2	72994	23.81	0
2	73310	23.91	0
2	73632	24.01	0
2	73948	24.11	0
2	74264	24.21	0
2	74580	24.31	0
2	74896	24.41	0
2	75212	24.51	0
2	75528	24.61	0
2	75844	24.71	0
2	76160	24.81	0
2	76476	24.91	0
2	76798	25.01	0
2	77114	25.11	0
2	77430	25.21	0
2	77746	25.31	0
2	78062	25.41	0
2	78378	25.51	0
2	78694	25.61	0
2	79010	25.71	0
2	79326	25.81	0
2	79642	25.91	0
2	79964	26.01	0
2	80280	26.11	0
2	80596	26.21	0
2	80912	26.31	0
2	81228	26.41	0
2	81544	26.51	0
2	81860	26.61	0
2	82176	26.71	0
2	82492	26.81	0
2	82808	26.91	0
2	83130	27.01	0
2	83446	27.11	0
2	83762	27.21	0
2	84078	27.31	0
2	84394	27.41	0
2	84710	27.51	0
2	85026	27.61	0
2	85342	27.71	0
2	85658	27.81	0
2	85974	27.91	0
2	86296	28.01	0
2	86612	28.11	0
2	86928	28.21	0
2	87244	28.31	0
2	87560	28.41	0
2	87876	28.51	0
2	88192	28.61	0
2	88508	28.71	0
2	88824	28.81	0
2	89140	28.91	0
2	89462	29.01	0
2	89778	29.11	0
2	90094	29.21	0
2	90410	29.31	0
2	90726	29.41	0
2	91042	29.51	0
2	91358	29.61	0
2	91674	29.71	0
2	91990	29.81	0
2	92306	29.91	0
2	92628	30.01	0
2	92944	30.11	0
2	93260	30.21	0
2	93576	30.31	0
2	93892	30.41	0
2	94208	30.51	0
2	94524	30.61	0
2	94840	30.71	0
2	95156	30.81	0
2	95472	30.91	0
2	95794	31.01	0
2	96110	31.11	0
2	96426	31.21	0
2	96742	31.31	0
2	97058	31.41	0
2	97374	31.51	0
2	97690	31.61	0
2	98006	31.71	0
2	98322	31.81	0
2	98638	31.91	0
2	98960	32.01	0
2	99276	32.11	0
2	99592	32.21	0
2	99908	32.31	0
2	100224	32.41	0
2	100540	32.51	0
2	100856	32.61	0
2	101172	32.71	0
2	101488	32.81	0
2	101804	32.91	0
2	102126	33.01	0
2	102442	33.11	0
2	102758	33.21	0
2	103074	33.31	0
2	103390	33.41	0
2	103706	33.51	0
2	104022	33.61	0
2	104338	33.71	0
2	104654	33.81	0
2	104970	33.91	0
2	105292	34.01	0
2	105608	34.11	0
2	105924	34.21	0
2	106240	34.31	0
2	106556	34.41	0
2	106872	34.51	0
2	107188	34.61	0
2	107504	34.71	0
2	107820	34.81	0
2	108136	34.91	0
2	108458	35.01	0
2	108774	35.11	0
2	109090	35.21	0
2	109406	35.31	0
2	109722	35.41	0
2	110038	35.51	0
2	110354	35.61	0
2	110670	35.71	0
2	110986	35.81	0
2	111302	35.91	0
2	111624	36.01	0
2	111940	36.11	0
2	112256	36.21	0
2	112572	36.31	0
2	112888	36.41	0
2	113204	36.51	0
2	113520	36.61	0
2	113836	36.71	0
2	114152	36.81	0
2	114468	36.91	0
2	114790	37.01	0
2	115106	37.11	0
2	115422	37.21	0
2	115738	37.31	0
2	116054	37.41	0
2	116370	37.51	0
2	116686	37.61	0
2	117002	37.71	0
2	117318	37.81	0
2	117634	37.91	0
2	117956	38.01	0
2	118272	38.11	0
2	118588	38.21	0
2	118904	38.31	0
2	119220	38.41	0
2	119536	38.51	0
2	119852	38.61	0
2	120168	38.71	0
2	120484	38.81	0
2	120800	38.91	0
2	121122	39.01	0
2	121438	39.11	0
2	121754	39.21	0
2	122070	39.31	0
2	122386	39.41	0
2	122702	39.51	0
2	123018	39.61	0
2	123334	39.71	0
2	123650	39.81	0
2	123966	39.91	0
2	124288	40.01	0
2	124604	40.11	0
2	124920	40.21	0
2	125236	40.31	0
2	125552	40.41	0
2	125868	40.51	0
2	126184	40.61	0
2	126500	40.71	0
2	126816	40.81	0
2	127132	40.91	0
2	127454	41.01	0
2	127770	41.11	0
2	128086	41.21	0
2	128402	41.31	0
2	128718	41.41	0
2	129034	41.51	0
2	129350	41.61	0
2	129666	41.71	0
2	129982	41.81	0
2	130298	41.91	0
2	130620	42.01	0
2	130936	42.11	0
2	131252	42.21	0
2	131568	42.31	0
2	131884	42.41	0
2	132200	42.51	0
2	132516	42.61	0
2	132832	42.71	0
2	133148	42.81	0
2	133464	42.91	0
2	133786	43.01	0
2	134102	43.11	0
2	134418	43.21	0
2	134734	43.31	0
2	135050	43.41	0
2	135366	43.51	0
2	135682	43.61	0
2	135998	43.71	0
2	136314	43.81	0
2	136630	43.91	0
2	136952	44.01	0
2	137268	44.11	0
2	137584	44.21	0
2	137900	44.31	0
2	138216	44.41	0
2	138532	44.51	0
2	138848	44.61	0
2	139164	44.71	0
2	139480	44.81	0
2	139796	44.91	0
2	140118	45.01	0
2	140434	45.11	0
2	140750	45.21	0
2	141066	45.31	0
2	141382	45.41	0
2	141698	45.51	0
2	142014	45.61	0
2	142330	45.71	0
2	142646	45.81	0
2	142962	45.91	0
2	143284	46.01	0
2	143600	46.11	0
2	143916	46.21	0
2	144232	46.31	0
2	144548	46.41	0
2	144864	46.51	0
2	145180	46.61	0
2	145496	46.71	0
2	145812	46.81	0
2	146128	46.91	0
2	146450	47.01	0
2	146766	47.11	0
2	147082	47.21	0
2	147398	47.31	0
2	147714	47.41	0
2	148030	47.51	0
2	148346	47.61	0
2	148662	47.71	0
2	148978	47.81	0
2	149294	47.91	0
2	149616	48.01	0
2	149932	48.11	0
2	150248	48.21	0
2	150564	48.31	0
2	150880	48.41	0
2	151196	48.51	0
2	151512	48.61	0
2	151828	48.71	0
2	152144	48.81	0
2	152460	48.91	0
2	152782	49.01	0
2	153098	49.11	0
2	153414	49.21	0
2	153730	49.31	0
2	154046	49.41	0
2	154362	49.51	0
2	154678	49.61	0
2	154994	49.71	0
2	155310	49.81	0
2	155626	49.91	0
2	155948	50.01	0
2	156264	50.11	0
2	156580	50.21	0
2	156896	50.31	0
2	157212	50.41	0
2	157528	50.51	0
2	157844	50.61	0
2	158160	50.71	0
2	158476	50.81	0
2	158792	50.91	0
2	159114	51.01	0
2	159430	51.11	0
2	159746	51.21	0
2	160062	51.31	0
2	160378	51.41	0
2	160694	51.51	0
2	161010	51.61	0
2	161326	51.71	0
2	161642	51.81	0
2	161958	51.91	0
2	162280	52.01	0
2	162596	52.11	0
2	162912	52.21	0
2	163228	52.31	0
2	163544	52.41	0
2	163860	52.51	0
2	164176	52.61	0
2	164492	52.71	0
2	164808	52.81	0
2	165124	52.91	0
2	165446	53.01	0
2	165762	53.11	0
2	166078	53.21	0
2	166394	53.31	0
2	166710	53.41	0
2	167026	53.51	0
2	167342	53.61	0
2	167658	53.71	0
2	167974	53.81	0
2	168290	53.91	0
2	168612	54.01	0
2	168928	54.11	0
2	169244	54.21	0
2	169560	54.31	0
2	169876	54.41	0
2	170192	54.51	0
2	170508	54.61	0
2	170824	54.71	0
2	171140	54.81	0
2	171456	54.91	0
2	171778	55.01	0
2	172094	55.11	0
2	172410	55.21	0
2	172726	55.31	0
2	173042	55.41	0
2	173358	55.51	0
2	173674	55.61	0
2	173990	55.71	0
2	174306	55.81	0
2	174622	55.91	0
2	174944	56.01	0
2	175260	56.11	0
2	175576	56.21	0
2	175892	56.31	0
2	176208	56.41	0
2	176524	56.51	0
2	176840	56.61	0
2	177156	56.71	0
2	177472	56.81	0
2	177788	56.91	0
2	178110	57.01	0
2	178426	57.11	0
2	178742	57.21	0
2	179058	57.31	0
2	179374	57.41	0
2	179690	57.51	0
2	180006	57.61	0
2	180322	57.71	0
2	180638	57.81	0
2	180954	57.91	0
2	181276	58.01	0
2	181592	58.11	0
2	181908	58.21	0
2	182224	58.31	0
2	182540	58.41	0
2	182856	58.51	0
2	183172	58.61	0
2	183488	58.71	0
2	183804	58.81	0
2	184120	58.91	0
2	184442	59.01	0
2	184758	59.11	0
2	185074	59.21	0
2	185390	59.31	0
2	185706	59.41	0
2	186022	59.51	0
2	186338	59.61	0
2	186654	59.71	0
2	186970	59.81	0
2	187286	59.91	0
2	187608	60.01	0
2	187924	60.11	0
2	188240	60.21	0
2	188556	60.31	0
2	188872	60.41	0
2	189188	60.51	0
2	189504	60.61	0
2	189820	60.71	0
2	190136	60.81	0
2	190452	60.91	0
2	190774	61.01	0
2	191090	61.11	0
2	191406	61.21	0
2	191722	61.31	0
2	192038	61.41	0
2	192354	61.51	0
2	192670	61.61	0
2	192986	61.71	0
2	193302	61.81	0
2	193618	61.91	0
2	193940	62.01	0
2	194256	62.11	0
2	194572	62.21	0
2	194888	62.31	0
2	195204	62.41	0
2	195520	62.51	0
2	195836	62.61	0
2	196152	62.71	0
2	196468	62.81	0
2	196784	62.91	0
2	197106	63.01	0
2	197422	63.11	0
2	197738	63.21	0
2	198054	63.31	0
2	198370	63.41	0
2	198686	63.51	0
2	199002	63.61	0
2	199318	63.71	0
2	199634	63.81	0
2	199950	63.91	0
2	200272	64.01	0
2	200588	64.11	0
2	200904	64.21	0
2	201220	64.31	0
2	201536	64.41	0
2	201852	64.51	0
2	202168	64.61	0
2	202484	64.71	0
2	202800	64.81	0
2	203116	64.91	0
2	203438	65.01	0
2	203754	65.11	0
2	204070	65.21	0
2	204386	65.31	0
2	204702	65.41	0
2	205018	65.51	0
2	205334	65.61	0
2	205650	65.71	0
2	205966	65.81	0
2	206282	65.91	0
2	206604	66.01	0
2	206920	66.11	0
2	207236	66.21	0
2	207552	66.31	0
2	207868	66.41	0
2	208184	66.51	0
2	208500	66.61	0
2	208816	66.71	0
2	209132	66.81	0
2	209448	66.91	0
2	209770	67.01	0
2	210086	67.11	0
2	210402	67.21	0
2	210718	67.31	0
2	211034	67.41	0
2	211350	67.51	0
2	211666	67.61	0
2	211982	67.71	0
2	212298	67.81	0
2	212614	67.91	0
2	212936	68.01	0
2	213252	68.11	0
2	213568	68.21	0
2	213884	68.31	0
2	214200	68.41	0
2	214516	68.51	0
2	214832	68.61	0
2	215148	68.71	0
2	215464	68.81	0
2	215780	68.91	0
2	216102	69.01	0
2	216418	69.11	0
2	216734	69.21	0
2	217050	69.31	0
2	217366	69.41	0
2	217682	69.51	0
2	217998	69.61	0
2	218314	69.71	0
2	218630	69.81	0
2	218946	69.91	0
2	219268	70.01	0
2	219584	70.11	0
2	219900	70.21	0
2	220216	70.31	0
2	220532	70.41	0
2	220848	70.51	0
2	221164	70.61	0
2	221480	70.71	0
2	221796	70.81	0
2	222112	70.91	0
2	222434	71.01	0
2	222750	71.11	0
2	223066	71.21	0
2	223382	71.31	0
2	223698	71.41	0
2	224014	71.51	0
2	224330	71.61	0
2	224646	71.71	0
2	224962	71.81	0
2	225278	71.91	0
2	225600	72.01	0
2	225916	72.11	0
2	226232	72.21	0
2	226548	72.31	0
2	226864	72.41	0
2	227180	72.51	0
2	227496	72.61	0
2	227812	72.71	0
2	228128	72.81	0
2	228444	72.91	0
2	228766	73.01	0
2	229082	73.11	0
2	229398	73.21	0
2	229714	73.31	0
2	230030	73.41	0
2	230346	73.51	0
2	230662	73.61	0
2	230978	73.71	0
2	231294	73.81	0
2	231610	73.91	0
2	231932	74.01	0
2	232248	74.11	0
2	232564	74.21	0
2	232880	74.31	0
2	233196	74.41	0
2	233512	74.51	0
2	233828	74.61	0
2	234144	74.71	0
2	234460	74.81	0
2	234776	74.91	0
2	235098	75.01	0
2	235414	75.11	0
2	235730	75.21	0
2	236046	75.31	0
2	236362	75.41	0
2	236678	75.51	0
2	236994	75.61	0
2	237310	75.71	0
2	237626	75.81	0
2	237942	75.91	0
2	238264	76.01	0
2	238580	76.11	0
2	238896	76.21	0
2	239212	76.31	0
2	239528	76.41	0
2	239844	76.51	0
2	240160	76.61	0
2	240476	76.71	0
2	240792	76.81	0
2	241108	76.91	0
2	241430	77.01	0
2	241746	77.11	0
2	242062	77.21	0
2	242378	77.31	0
2	242694	77.41	0
2	243010	77.51	0
2	243326	77.61	0
2	243642	77.71	0
2	243958	77.81	0
2	244274	77.91	0
2	244596	78.01	0
2	244912	78.11	0
2	245228	78.21	0
2	245544	78.31	0
2	245860	78.41	0
2	246176	78.51	0
2	246492	78.61	0
2	246808	78.71	0
2	247124	78.81	0
2	247440	78.91	0
2	247762	79.01	0
2	248078	79.11	0
2	248394	79.21	0
2	248710	79.31	0
2	249026	79.41	0
2	249342	79.51	0
2	249658	79.61	0
2	249974	79.71	0
2	250290	79.81	0
2	250606	79.91	0
2	250928	80.01	0
2	251244	80.11	0
2	251560	80.21	0
2	251876	80.31	0
2	252192	80.41	0
2	252508	80.51	0
2	252824	80.61	0
2	253140	80.71	0
2	253456	80.81	0
2	253772	80.91	0
2	254094	81.01	0
2	254410	81.11	0
2	254726	81.21	0
2	255042	81.31	0
2	255358	81.41	0
2	255674	81.51	0
2	255990	81.61	0
2	256306	81.71	0
2	256622	81.81	0
2	256938	81.91	0
2	257260	82.01	0
2	257576	82.11	0
2	257892	82.21	0
2	258208	82.31	0
2	258524	82.41	0
2	258840	82.51	0
2	259156	82.61	0
2	259472	82.71	0
2	259788	82.81	0
2	260104	82.91	0
2	260426	83.01	0
2	260742	83.11	0
2	261058	83.21	0
2	261374	83.31	0
2	261690	83.41	0
2	262006	83.51	0
2	262322	83.61	0
2	262638	83.71	0
2	262954	83.81	0
2	263270	83.91	0
2	263592	84.01	0
2	263908	84.11	0
2	264224	84.21	0
2	264540	84.31	0
2	264856	84.41	0
2	265172	84.51	0
2	265488	84.61	0
2	265804	84.71	0
2	266120	84.81	0
2	266436	84.91	0
2	266758	85.01	0
2	267074	85.11	0
2	267390	85.21	0
2	267706	85.31	0
2	268022	85.41	0
2	268338	85.51	0
2	268654	85.61	0
2	268970	85.71	0
2	269286	85.81	0
2	269602	85.91	0
2	269924	86.01	0
2	270240	86.11	0
2	270556	86.21	0
2	270872	86.31	0
2	271188	86.41	0
2	271504	86.51	0
2	271820	86.61	0
2	272136	86.71	0
2	272452	86.81	0
2	272768	86.91	0
2	273090	87.01	0
2	273406	87.11	0
2	273722	87.21	0
2	274038	87.31	0
2	274354	87.41	0
2	274670	87.51	0
2	274986	87.61	0
2	275302	87.71	0
2	275618	87.81	0
2	275934	87.91	0
2	276256	88.01	0
2	276572	88.11	0
2	276888	88.21	0
2	277204	88.31	0
2	277520	88.41	0
2	277836	88.51	0
2	278152	88.61	0
2	278468	88.71	0
2	278784	88.81	0
2	279100	88.91	0
2	279422	89.01	0
2	279738	89.11	0
2	280054	89.21	0
2	280370	89.31	0
2	280686	89.41	0
2	281002	89.51	0
2	281318	89.61	0
2	281634	89.71	0
2	281950	89.81	0
2	282266	89.91	0
2	282588	90.01	0
2	282904	90.11	0
2	283220	90.21	0
2	283536	90.31	0
2	283852	90.41	0
2	284168	90.51	0
2	284484	90.61	0
2	284800	90.71	0
2	285116	90.81	0
2	285432	90.91	0
2	285754	91.01	0
2	286070	91.11	0
2	286386	91.21	0
2	286702	91.31	0
2	287018	91.41	0
2	287334	91.51	0
2	287650	91.61	0
2	287966	91.71	0
2	288282	91.81	0
2	288598	91.91	0
2	288920	92.01	0
2	289236	92.11	0
2	289552	92.21	0
2	289868	92.31	0
2	290184	92.41	0
2	290500	92.51	0
2	290816	92.61	0
2	291132	92.71	0
2	291448	92.81	0
2	291764	92.91	0
2	292086	93.01	0
2	292402	93.11	0
2	292718	93.21	0
2	293034	93.31	0
2	293350	93.41	0
2	293666	93.51	0
2	293982	93.61	0
2	294298	93.71	0
2	294614	93.81	0
2	294930	93.91	0
2	295252	94.01	0
2	295568	94.11	0
2	295884	94.21	0
2	296200	94.31	0
2	296516	94.41	0
2	296832	94.51	0
2	297148	94.61	0
2	297464	94.71	0
2	297780	94.81	0
2	298096	94.91	0
2	298418	95.01	0
2	298734	95.11	0
2	299050	95.21	0
2	299366	95.31	0
2	299682	95.41	0
2	299998	95.51	0
2	300314	95.61	0
2	300630	95.71	0
2	300946	95.81	0
2	301262	95.91	0
2	301584	96.01	0
2	301900	96.11	0
2	302216	96.21	0
2	302532	96.31	0
2	302848	96.41	0
2	303164	96.51	0
2	303480	96.61	0
2	303796	96.71	0
2	304112	96.81	0
2	304428	96.91	0
2	304750	97.01	0
2	305066	97.11	0
2	305382	97.21	0
2	305698	97.31	0
2	306014	97.41	0
2	306330	97.51	0
2	306646	97.61	0
2	306962	97.71	0
2	307278	97.81	0
2	307594	97.91	0
2	307916	98.01	0
2	308232	98.11	0
2	308548	98.21	0
2	308864	98.31	0
2	309180	98.41	0
2	309496	98.51	0
2	309812	98.61	0
2	310128	98.71	0
2	310444	98.81	0
2	310760	98.91	0
2	311082	99.01	0
2	311398	99.11	0
2	311714	99.21	0
2	312030	99.31	0
2	312346	99.41	0
2	312662	99.51	0
2	312978	99.61	0
2	313294	99.71	0
2	313610	99.81	0
2	313926	99.91	0
3	113	1.11	0.000179096
3	429	1.21	0.000340852
3	745	1.31	0.000467435
3	1061	1.41	0.000562893
3	1377	1.51	0.000631106
3	1693	1.61	0.000675745
3	2009	1.71	0.000700245
3	2325	1.81	0.000707784
3	2641	1.91	0.000701273
3	2963	2.01	0.000683354
3	3279	2.11	0.000656398
3	3595	2.21	0.000622512
3	3911	2.31	0.000583548
3	4227	2.41	0.000541117
3	4543	2.51	0.000496604
3	4859	2.61	0.000451181
3	5175	2.71	0.000405825
3	5491	2.81	0.00036134
3	5807	2.91	0.000318365
3	6129	3.01	0.0002774
3	6445	3.11	0.00023882
3	6761	3.21	0.000202887
3	7077	3.31	0.00016977
3	7393	3.41	0.000139558
3	7709	3.51	0.000112271
3	8025	3.61	8.78717e-05
3	8341	3.71	6.628e-05
3	8657	3.81	4.73785e-05
3	8973	3.91	3.1023e-05
3	9295	4.01	1.70493e-05
3	9611	4.11	5.28023e-06
3	9927	4.21	-4.46922e-06
3	10243	4.31	-1.2387e-05
3	10559	4.41	-1.86602e-05
3	10875	4.51	-2.34717e-05
3	11191	4.61	-2.69978e-05
3	11507	4.71	-2.94062e-05
3	11823	4.81	-3.08545e-05
3	12139	4.91	-3.14892e-05
3	12461	5.01	-3.14451e-05
3	12777	5.11	-3.0845e-05
3	13093	5.21	-2.97994e-05
3	13409	5.31	-2.84072e-05
3	13725	5.41	-2.67556e-05
3	14041	5.51	-2.49208e-05
3	14357	5.61	-2.29687e-05
3	14673	5.71	-2.09553e-05
3	14989	5.81	-1.89277e-05
3	15305	5.91	-1.6925e-05
3	15627	6.01	-1.49784e-05
3	15943	6.11	-1.31129e-05
3	16259	6.21	-1.13474e-05
3	16575	6.31	-9.69553e-06
3	16891	6.41	-8.16651e-06
3	17207	6.51	-6.76571e-06
3	17523	6.61	-5.49522e-06
3	17839	6.71	-4.35441e-06
3	18155	6.81	-3.34045e-06
3	18471	6.91	-2.44874e-06
3	18793	7.01	-1.6733e-06
3	19109	7.11	-1.00716e-06
3	19425	7.21	-4.42628e-07
3	19741	7.31	2.84224e-08
3	20057	7.41	4.14339e-07
3	20373	7.51	7.23492e-07
3	20689	7.61	9.6413e-07
3	21005	7.71	1.14424e-06
3	21321	7.81	1.27148e-06
3	21637	7.91	1.35305e-06
3	21959	8.01	1.3957e-06
3	22275	8.11	1.40565e-06
3	22591	8.21	1.3886e-06
3	22907	8.31	1.34971e-06
3	23223	8.41	1.2936e-06
3	23539	8.51	1.22437e-06
3	23855	8.61	1.14561e-06
3	24171	8.71	1.06046e-06
3	24487	8.81	9.71582e-07
3	24803	8.91	8.81246e-07
3	25125	9.01	7.91334e-07
3	25441	9.11	7.03381e-07
3	25757	9.21	6.18613e-07
3	26073	9.31	5.37979e-07
3	26389	9.41	4.62183e-07
3	26705	9.51	3.91714e-07
3	27021	9.61	3.26878e-07
3	27337	9.71	2.67827e-07
3	27653	9.81	2.14581e-07
3	27969	9.91	1.67052e-07
3	29308	10.01	1.25066e-07
3	29624	10.11	8.83794e-08
3	29940	10.21	5.66978e-08
3	30256	10.31	2.96922e-08
3	30572	10.41	7.00453e-09
3	30888	10.51	-1.17325e-08
3	31204	10.61	-2.68933e-08
3	31520	10.71	-3.88482e-08
3	31836	10.81	-4.79581e-08
3	32152	10.91	-5.45704e-08
3	32474	11.01	-5.90177e-08
3	32790	11.11	-6.16069e-08
3	33106	11.21	-6.26265e-08
3	33422	11.31	-6.23395e-08
3	33738	11.41	-6.09859e-08
3	34054	11.51	-5.87811e-08
3	34370	11.61	-5.59183e-08
3	34686	11.71	-5.25674e-08
3	35002	11.81	-4.88761e-08
3	35318	11.91	-4.4971e-08
3	35640	12.01	-4.09599e-08
3	35956	12.11	-3.69354e-08
3	36272	12.21	-3.29713e-08
3	36588	12.31	-2.9128e-08
3	36904	12.41	-2.54531e-08
3	37220	12.51	-2.19821e-08
3	37536	12.61	-1.87399e-08
3	37852	12.71	-1.57428e-08
3	38168	12.81	-1.30029e-08
3	38484	12.91	-1.05217e-08
3	38806	13.01	-8.29772e-09
3	39122	13.11	-6.32454e-09
3	39438	13.21	-4.59224e-09
3	39754	13.31	-3.08802e-09
3	40070	13.41	-1.79838e-09
3	40386	13.51	-7.08411e-10
3	40702	13.61	1.98241e-10
3	41018	13.71	9.37916e-10
3	41334	13.81	1.52767e-09
3	41650	13.91	1.98384e-09
3	41972	14.01	2.32276e-09
3	42288	14.11	2.55937e-09
3	42604	14.21	2.70788e-09
3	42920	14.31	2.78249e-09
3	43236	14.41	2.79243e-09
3	43552	14.51	2.7498e-09
3	43868	14.61	2.66525e-09
3	44184	14.71	2.54872e-09
3	44500	14.81	2.40803e-09
3	44816	14.91	2.24887e-09
3	45138	15.01	2.07763e-09
3	45454	15.11	1.89999e-09
3	45770	15.21	1.72236e-09
3	46086	15.31	1.54472e-09
3	46402	15.41	1.37064e-09
3	46718	15.51	1.20295e-09
3	47034	15.61	1.04379e-09
3	47350	15.71	8.94573e-10
3	47666	15.81	7.56017e-10
3	47982	15.91	6.29541e-10
3	48304	16.01	5.13012e-10
3	48620	16.11	4.09273e-10
3	48936	16.21	3.16902e-10
3	49252	16.31	2.3519e-10
3	49568	16.41	1.63425e-10
3	49884	16.51	1.02318e-10
3	50200	16.61	4.9738e-11
3	50516	16.71	5.68434e-12
3	50832	16.81	-3.05533e-11
3	51148	16.91	-5.8975e-11
3	51470	17.01	-8.10019e-11
3	51786	17.11	-9.80549e-11
3	52102	17.21	-1.11555e-10
3	52418	17.31	-1.18661e-10
3	52734	17.41	-1.23634e-10
3	53050	17.51	-1.23634e-10
3	53366	17.61	-1.23634e-10
3	53682	17.71	-1.21503e-10
3	53998	17.81	-1.14397e-10
3	54314	17.91	-1.07292e-10
3	54636	18.01	-1.00187e-10
3	54952	18.11	-9.30811e-11
3	55268	18.21	-8.59757e-11
3	55584	18.31	-7.88702e-11
3	55900	18.41	-7.17648e-11
3	56216	18.51	-6.46594e-11
3	56532	18.61	-5.7554e-11
3	56848	18.71	-5.04485e-11
3	57164	18.81	-4.33431e-11
3	57480	18.91	-3.62377e-11
3	57802	19.01	-2.91323e-11
3	58118	19.11	-2.20268e-11
3	58434	19.21	-1.7053e-11
3	58750	19.31	-1.49214e-11
3	59066	19.41	-1.35003e-11
3	59382	19.51	-1.27898e-11
3	59698	19.61	-1.13687e-11
3	60014	19.71	-9.9476e-12
3	60330	19.81	-9.23706e-12
3	60646	19.91	-8.52651e-12
3	60968	20.01	-7.81597e-12
3	61284	20.11	-7.10543e-12
3	61600	20.21	-6.39488e-12
3	61916	20.31	-5.68434e-12
3	62232	20.41	-4.9738e-12
3	62548	20.51	-4.26326e-12
3	62864	20.61	-4.26326e-12
3	63180	20.71	-3.55271e-12
3	63496	20.81	-3.55271e-12
3	63812	20.91	-2.84217e-12
3	64134	21.01	-2.84217e-12
3	64450	21.11	-2.84217e-12
3	64766	21.21	-2.13163e-12
3	65082	21.31	-2.13163e-12
3	65398	21.41	-2.13163e-12
3	65714	21.51	-1.42109e-12
3	66030	21.61	-1.42109e-12
3	66346	21.71	-1.42109e-12
3	66662	21.81	-1.42109e-12
3	66978	21.91	-1.42109e-12
3	67300	22.01	-7.10543e-13
3	67616	22.11	-7.10543e-13
3	67932	22.21	-7.10543e-13
3	68248	22.31	-7.10543e-13
3	68564	22.41	-7.10543e-13
3	68880	22.51	-7.10543e-13
3	69196	22.61	-7.10543e-13
3	69512	22.71	-7.10543e-13
3	69828	22.81	-7.10543e-13
3	70144	22.91	-7.10543e-13
3	70466	23.01	0
3	70782	23.11	0
3	71098	23.21	0
3	71414	23.31	0
3	71730	23.41	0
3	72046	23.51	0
3	72362	23.61	0
3	72678	23.71	0
3	72994	23.81	0
3	73310	23.91	0
3	73632	24.01	0
3	73948	24.11	0
3	74264	24.21	0
3	74580	24.31	0
3	74896	24.41	0
3	75212	24.51	0
3	75528	24.61	0
3	75844	24.71	0
3	76160	24.81	0
3	76476	24.91	0
3	76798	25.01	0
3	77114	25.11	0
3	77430	25.21	0
3	77746	25.31	0
3	78062	25.41	0
3	78378	25.51	0
3	78694	25.61	0
3	79010	25.71	0
3	79326	25.81	0
3	79642	25.91	0
3	79964	26.01	0
3	80280	26.11	0
3	80596	26.21	0
3	80912	26.31	0
3	81228	26.41	0
3	81544	26.51	0
3	81860	26.61	0
3	82176	26.71	0
3	82492	26.81	0
3	82808	26.91	0
3	83130	27.01	0
3	83446	27.11	0
3	83762	27.21	0
3	84078	27.31	0
3	84394	27.41	0
3	84710	27.51	0
3	85026	27.61	0
3	85342	27.71	0
3	85658	27.81	0
3	85974	27.91	0
3	86296	28.01	0
3	86612	28.11	0
3	86928	28.21	0
3	87244	28.31	0
3	87560	28.41	0
3	87876	28.51	0
3	88192	28.61	0
3	88508	28.71	0
3	88824	28.81	0
3	89140	28.91	0
3	89462	29.01	0
3	89778	29.11	0
3	90094	29.21	0
3	90410	29.31	0
3	90726	29.41	0
3	91042	29.51	0
3	91358	29.61	0
3	91674	29.71	0
3	91990	29.81	0
3	92306	29.91	0
3	92628	30.01	0
3	92944	30.11	0
3	93260	30.21	0
3	93576	30.31	0
3	93892	30.41	0
3	94208	30.51	0
3	94524	30.61	0
3	94840	30.71	0
3	95156	30.81	0
3	95472	30.91	0
3	95794	31.01	0
3	96110	31.11	0
3	96426	31.21	0
3	96742	31.31	0
3	97058	31.41	0
3	97374	31.51	0
3	97690	31.61	0
3	98006	31.71	0
3	98322	31.81	0
3	98638	31.91	0
3	98960	32.01	0
3	99276	32.11	0
3	99592	32.21	0
3	99908	32.31	0
3	100224	32.41	0
3	100540	32.51	0
3	100856	32.61	0
3	101172	32.71	0
3	101488	32.81	0
3	101804	32.91	0
3	102126	33.01	0
3	102442	33.11	0
3	102758	33.21	0
3	103074	33.31	0
3	103390	33.41	0
3	103706	33.51	0
3	104022	33.61	0
3	104338	33.71	0
3	104654	33.81	0
3	104970	33.91	0
3	105292	34.01	0
3	105608	34.11	0
3	105924	34.21	0
3	106240	34.31	0
3	106556	34.41	0
3	106872	34.51	0
3	107188	34.61	0
3	107504	34.71	0
3	107820	34.81	0
3	108136	34.91	0
3	108458	35.01	0
3	108774	35.11	0
3	109090	35.21	0
3	109406	35.31	0
3	109722	35.41	0
3	110038	35.51	0
3	110354	35.61	0
3	110670	35.71	0
3	110986	35.81	0
3	111302	35.91	0
3	111624	36.01	0
3	111940	36.11	0
3	112256	36.21	0
3	112572	36.31	0
3	112888	36.41	0
3	113204	36.51	0
3	113520	36.61	0
3	113836	36.71	0
3	114152	36.81	0
3	114468	36.91	0
3	114790	37.01	0
3	115106	37.11	0
3	115422	37.21	0
3	115738	37.31	0
3	116054	37.41	0
3	116370	37.51	0
3	116686	37.61	0
3	117002	37.71	0
3	117318	37.81	0
3	117634	37.91	0
3	117956	38.01	0
3	118272	38.11	0
3	118588	38.21	0
3	118904	38.31	0
3	119220	38.41	0
3	119536	38.51	0
3	119852	38.61	0
3	120168	38.71	0
3	120484	38.81	0
3	120800	38.91	0
3	121122	39.01	0
3	121438	39.11	0
3	121754	39.21	0
3	122070	39.31	0
3	122386	39.41	0
3	122702	39.51	0
3	123018	39.61	0
3	123334	39.71	0
3	123650	39.81	0
3	123966	39.91	0
3	124288	40.01	0
3	124604	40.11	0
3	124920	40.21	0
3	125236	40.31	0
3	125552	40.41	0
3	125868	40.51	0
3	126184	40.61	0
3	126500	40.71	0
3	126816	40.81	0
3	127132	40.91	0
3	127454	41.01	0
3	127770	41.11	0
3	128086	41.21	0
3	128402	41.31	0
3	128718	41.41	0
3	129034	41.51	0
3	129350	41.61	0
3	129666	41.71	0
3	129982	41.81	0
3	130298	41.91	0
3	130620	42.01	0
3	130936	42.11	0
3	131252	42.21	0
3	131568	42.31	0
3	131884	42.41	0
3	132200	42.51	0
3	132516	42.61	0
3	132832	42.71	0
3	133148	42.81	0
3	133464	42.91	0
3	133786	43.01	0
3	134102	43.11	0
3	134418	43.21	0
3	134734	43.31	0
3	135050	43.41	0
3	135366	43.51	0
3	135682	43.61	0
3	135998	43.71	0
3	136314	43.81	0
3	136630	43.91	0
3	136952	44.01	0
3	137268	44.11	0
3	137584	44.21	0
3	137900	44.31	0
3	138216	44.41	0
3	138532	44.51	0
3	138848	44.61	0
3	139164	44.71	0
3	139480	44.81	0
3	139796	44.91	0
3	140118	45.01	0
3	140434	45.11	0
3	140750	45.21	0
3	141066	45.31	0
3	141382	45.41	0
3	141698	45.51	0
3	142014	45.61	0
3	142330	45.71	0
3	142646	45.81	0
3	142962	45.91	0
3	143284	46.01	0
3	143600	46.11	0
3	143916	46.21	0
3	144232	46.31	0
3	144548	46.41	0
3	144864	46.51	0
3	145180	46.61	0
3	145496	46.71	0
3	145812	46.81	0
3	146128	46.91	0
3	146450	47.01	0
3	146766	47.11	0
3	147082	47.21	0
3	147398	47.31	0
3	147714	47.41	0
3	148030	47.51	0
3	148346	47.61	0
3	148662	47.71	0
3	148978	47.81	0
3	149294	47.91	0
3	149616	48.01	0
3	149932	48.11	0
3	150248	48.21	0
3	150564	48.31	0
3	150880	48.41	0
3	151196	48.51	0
3	151512	48.61	0
3	151828	48.71	0
3	152144	48.81	0
3	152460	48.91	0
3	152782	49.01	0
3	153098	49.11	0
3	153414	49.21	0
3	153730	49.31	0
3	154046	49.41	0
3	154362	49.51	0
3	154678	49.61	0
3	154994	49.71	0
3	155310	49.81	0
3	155626	49.91	0
3	155948	50.01	0
3	156264	50.11	0
3	156580	50.21	0
3	156896	50.31	0
3	157212	50.41	0
3	157528	50.51	0
3	157844	50.61	0
3	158160	50.71	0
3	158476	50.81	0
3	158792	50.91	0
3	159114	51.01	0
3	159430	51.11	0
3	159746	51.21	0
3	160062	51.31	0
3	160378	51.41	0
3	160694	51.51	0
3	161010	51.61	0
3	161326	51.71	0
3	161642	51.81	0
3	161958	51.91	0
3	162280	52.01	0
3	162596	52.11	0
3	162912	52.21	0
3	163228	52.31	0
3	163544	52.41	0
3	163860	52.51	0
3	164176	52.61	0
3	164492	52.71	0
3	164808	52.81	0
3	165124	52.91	0
3	165446	53.01	0
3	165762	53.11	0
3	166078	53.21	0
3	166394	53.31	0
3	166710	53.41	0
3	167026	53.51	0
3	167342	53.61	0
3	167658	53.71	0
3	167974	53.81	0
3	168290	53.91	0
3	168612	54.01	0
3	168928	54.11	0
3	169244	54.21	0
3	169560	54.31	0
3	169876	54.41	0
3	170192	54.51	0
3	170508	54.61	0
3	170824	54.71	0
3	171140	54.81	0
3	171456	54.91	0
3	171778	55.01	0
3	172094	55.11	0
3	172410	55.21	0
3	172726	55.31	0
3	173042	55.41	0
3	173358	55.51	0
3	173674	55.61	0
3	173990	55.71	0
3	174306	55.81	0
3	174622	55.91	0
3	174944	56.01	0
3	175260	56.11	0
3	175576	56.21	0
3	175892	56.31	0
3	176208	56.41	0
3	176524	56.51	0
3	176840	56.61	0
3	177156	56.71	0
3	177472	56.81	0
3	177788	56.91	0
3	178110	57.01	0
3	178426	57.11	0
3	178742	57.21	0
3	179058	57.31	0
3	179374	57.41	0
3	179690	57.51	0
3	180006	57.61	0
3	180322	57.71	0
3	180638	57.81	0
3	180954	57.91	0
3	181276	58.01	0
3	181592	58.11	0
3	181908	58.21	0
3	182224	58.31	0
3	182540	58.41	0
3	182856	58.51	0
3	183172	58.61	0
3	183488	58.71	0
3	183804	58.81	0
3	184120	58.91	-0.0249209
3	184442	59.01	-0.0778455
3	184758	59.11	-0.118621
3	185074	59.21	-0.148732
3	185390	59.31	-0.16957
3	185706	59.41	-0.182429
3	186022	59.51	-0.188501
3	186338	59.61	-0.188875
3	186654	59.71	-0.184541
3	186970	59.81	-0.176389
3	187286	59.91	-0.165214
3	187608	60.01	-0.151722
3	187924	60.11	-0.13653
3	188240	60.21	-0.120177
3	188556	60.31	-0.103126
3	188872	60.41	-0.0857715
3	189188	60.51	-0.0684443
3	189504	60.61	-0.0514181
3	189820	60.71	-0.034915
3	190136	60.81	-0.0191109
3	190452	60.91	-0.00414079
3	190774	61.01	0.00989621
3	191090	61.11	0.0229323
3	191406	61.21	0.0349265
3	191722	61.31	0.0458608
3	192038	61.41	0.0557366
3	192354	61.51	0.064571
3	192670	61.61	0.0723943
3	192986	61.71	0.0792468
3	193302	61.81	0.0851768
3	193618	61.91	0.0902385
3	193940	62.01	0.0944901
3	194256	62.11	0.097992
3	194572	62.21	0.100806
3	194888	62.31	0.102994
3	195204	62.41	0.104616
3	195520	62.51	0.105731
3	195836	62.61	0.106396
3	196152	62.71	0.106665
3	196468	62.81	0.105758
3	196784	62.91	0.103117
3	197106	63.01	0.099101
3	197422	63.11	0.0940292
3	197738	63.21	0.088182
3	198054	63.31	0.0818036
3	198370	63.41	0.0751039
3	198686	63.51	0.0682608
3	199002	63.61	0.0614227
3	199318	63.71	0.0547114
3	199634	63.81	0.0482246
3	199950	63.91	0.0420381
3	200272	64.01	0.0362091
3	200588	64.11	0.0307778
3	200904	64.21	0.0257702
3	201220	64.31	0.0212001
3	201536	64.41	0.0170707
3	201852	64.51	0.013377
3	202168	64.61	0.010107
3	202484	64.71	0.00724313
3	202800	64.81	0.00476387
3	203116	64.91	0.00264456
3	203438	65.01	0.000858555
3	203754	65.11	-0.000621989
3	204070	65.21	-0.00182539
3	204386	65.31	-0.00277987
3	204702	65.41	-0.00351301
3	205018	65.51	-0.00405143
3	205334	65.61	-0.00442045
3	205650	65.71	-0.0046439
3	205966	65.81	-0.00474391
3	206282	65.91	-0.00474087
3	206604	66.01	-0.00465334
3	206920	66.11	-0.00449808
3	207236	66.21	-0.00429003
3	207552	66.31	-0.00404241
3	207868	66.41	-0.00376678
3	208184	66.51	-0.0034731
3	208500	66.61	-0.00316989
3	208816	66.71	-0.00286429
3	209132	66.81	-0.00256223
3	209448	66.91	-0.00226847
3	209770	67.01	-0.0019868
3	210086	67.11	-0.0017201
3	210402	67.21	-0.00147046
3	210718	67.31	-0.0012393
3	211034	67.41	-0.00102743
3	211350	67.51	-0.000835201
3	211666	67.61	-0.000662525
3	211982	67.71	-0.000508988
3	212298	67.81	-0.000373905
3	212614	67.91	-0.000256384
3	212936	68.01	-0.000155377
3	213252	68.11	-6.97288e-05
3	213568	68.21	1.78289e-06
3	213884	68.31	6.04154e-05
3	214200	68.41	0.000107431
3	214516	68.51	0.000144073
3	214832	68.61	0.000171548
3	215148	68.71	0.000191011
3	215464	68.81	0.000203551
3	215780	68.91	0.000210187
3	216102	69.01	0.000211861
3	216418	69.11	0.000209435
3	216734	69.21	0.000203688
3	217050	69.31	0.00019532
3	217366	69.41	0.000184952
3	217682	69.51	0.00017313
3	217998	69.61	0.000160326
3	218314	69.71	0.000146947
3	218630	69.81	0.000133336
3	218946	69.91	0.000119778
3	219268	70.01	0.000106508
3	219584	70.11	9.37119e-05
3	219900	70.21	8.15336e-05
3	220216	70.31	7.00807e-05
3	220532	70.41	5.94284e-05
3	220848	70.51	4.9624e-05
3	221164	70.61	4.06908e-05
3	221480	70.71	3.26327e-05
3	221796	70.81	2.5437e-05
3	222112	70.91	1.90777e-05
3	222434	71.01	1.35187e-05
3	222750	71.11	8.71595e-06
3	223066	71.21	4.61968e-06
3	223382	71.31	1.17645e-06
3	223698	71.41	-1.6693e-06
3	224014	71.51	-3.97386e-06
3	224330	71.61	-5.79313e-06
3	224646	71.71	-7.18166e-06
3	224962	71.81	-8.19193e-06
3	225278	71.91	-8.87378e-06
3	225600	72.01	-9.27397e-06
3	225916	72.11	-9.43592e-06
3	226232	72.21	-9.39955e-06
3	226548	72.31	-9.20111e-06
3	226864	72.41	-8.8733e-06
3	227180	72.51	-8.44523e-06
3	227496	72.61	-7.94259e-06
3	227812	72.71	-7.38779e-06
3	228128	72.81	-6.80016e-06
3	228444	72.91	-6.19613e-06
3	228766	73.01	-5.58948e-06
3	229082	73.11	-4.99156e-06
3	229398	73.21	-4.41154e-06
3	229714	73.31	-3.85659e-06
3	230030	73.41	-3.33217e-06
[...]
75	120936	39	0.018730022444
75	124102	40	0.018729806724
75	127268	41	0.018729592176
75	130434	42	0.018729378616
75	133600	43	0.018729165841
75	136766	44	0.018728953631
75	139932	45	0.018728741713
75	143098	46	0.018741529743
75	146264	47	0.018728317218
75	149430	48	0.018728103387
75	152596	49	0.018727887072
75	155762	50	0.018727666481
75	158928	51	0.018727439228
75	162094	52	0.018740203157
75	165260	53	0.018726957858
75	168426	54	0.018726704948
75	171592	55	0.018726446811
75	174758	56	0.018739185368
75	177924	57	0.018725921896
75	181090	58	0.018725661866
75	184256	59	0.018738400101
75	187422	60	0.018725140474
75	190588	61	0.018724881606
75	193754	62	0.018737620959
75	196920	63	0.018724352413
75	200086	64	0.018737078903
75	203252	65	0.018723806134
75	206418	66	0.018736536829
75	209584	67	0.018723269772
75	212750	68	0.018736003199
75	215916	69	0.018722736395
75	219082	70	0.018735469374
75	222248	71	0.0187222023
75	225414	72	0.018734935246
75	228580	73	0.018734668232
75	231746	74	0.018721401244
75	234912	75	0.01873413427
75	238078	76	0.018733867319
75	241244	77	0.018720600381
75	244410	78	0.018733333461
75	247576	79	0.018733066548
75	250742	80	0.018732799651
75	253908	81	0.018732532769
75	257074	82	0.018719265893
75	260240	83	0.018731999031
75	263406	84	0.018731732176
75	266572	85	0.018731465328
75	269738	86	0.018731198488
75	272904	87	0.018730931654
75	276070	88	0.01873066507
75	279236	89	0.018730404087
75	282402	90	0.018730137164
75	285568	91	0.018729870213
75	288734	92	0.018729603243
75	291900	93	0.018729336285
75	295066	94	0.018729069355
75	298232	95	0.018728802435
75	301398	96	0.018728535525
75	304564	97	0.01872826862
75	307730	98	0.018728001719
75	310896	99	0.018740734822
75	314062	100	0.018727467932
76	2777	2	0
76	5943	3	0
76	9109	4	0
76	12275	5	0
76	15441	6	0
76	18607	7	0
76	21773	8	0
76	24939	9	0
76	28106	10	0
76	32288	11	0
76	35454	12	0
76	38620	13	0
76	41786	14	0
76	44952	15	0
76	48118	16	0
76	51284	17	0
76	54450	18	0
76	57616	19	0
76	60782	20	0
76	63948	21	0
76	67114	22	0
76	70280	23	0
76	73446	24	0
76	76612	25	0
76	79778	26	0
76	82944	27	0
76	86110	28	0
76	89276	29	0
76	92442	30	0
76	95608	31	0
76	98774	32	0
76	101940	33	0
76	105106	34	0
76	108272	35	0
76	111438	36	0
76	114604	37	0
76	117770	38	0
76	120936	39	0
76	124102	40	0
76	127268	41	0
76	130434	42	0
76	133600	43	0
76	136766	44	0
76	139932	45	0
76	143098	46	0
76	146264	47	0
76	149430	48	0
76	152596	49	0
76	155762	50	0
76	158928	51	0
76	162094	52	0
76	165260	53	0
76	168426	54	0
76	171592	55	0
76	174758	56	0
76	177924	57	0
76	181090	58	0
76	184256	59	0
76	187422	60	0
76	190588	61	0
76	193754	62	0
76	196920	63	0
76	200086	64	0
76	203252	65	0
76	206418	66	0
76	209584	67	0
76	212750	68	0
76	215916	69	0
76	219082	70	0
76	222248	71	0
76	225414	72	0
76	228580	73	0
76	231746	74	0
76	234912	75	0
76	238078	76	0
76	241244	77	0
76	244410	78	0
76	247576	79	0
76	250742	80	0
76	253908	81	0
76	257074	82	0
76	260240	83	0
76	263406	84	0
76	266572	85	0
76	269738	86	0
76	272904	87	0
76	276070	88	0
76	279236	89	0
76	282402	90	0
76	285568	91	0
76	288734	92	0
76	291900	93	0
76	295066	94	0
76	298232	95	0
76	301398	96	0
76	304564	97	0
76	307730	98	0
76	310896	99	0
76	314062	100	0
77	2778	2	3
77	5944	3	3
77	9110	4	3
77	12276	5	3
77	15442	6	3
77	18608	7	3
77	21774	8	3
77	24940	9	3
77	28107	10	3
77	32289	11	3
77	35455	12	3
77	38621	13	3
77	41787	14	3
77	44953	15	3
77	48119	16	3
77	51285	17	3
77	54451	18	3
77	57617	19	3
77	60783	20	3
77	63949	21	3
77	67115	22	3
77	70281	23	3
77	73447	24	3
77	76613	25	3
77	79779	26	3
77	82945	27	3
77	86111	28	3
77	89277	29	3
77	92443	30	3
77	95609	31	3
77	98775	32	3
77	101941	33	3
77	105107	34	3
77	108273	35	3
77	111439	36	3
77	114605	37	3
77	117771	38	3
77	120937	39	3
77	124103	40	3
77	127269	41	3
77	130435	42	3
77	133601	43	3
77	136767	44	3
77	139933	45	3
77	143099	46	3
77	146265	47	3
77	149431	48	3
77	152597	49	3
77	155763	50	3
77	158929	51	3
77	162095	52	3
77	165261	53	3
77	168427	54	3
77	171593	55	3
77	174759	56	3
77	177925	57	3
77	181091	58	3
77	184257	59	3
77	187423	60	3
77	190589	61	3
77	193755	62	3
77	196921	63	3
77	200087	64	3
77	203253	65	3
77	206419	66	3
77	209585	67	3
77	212751	68	3
77	215917	69	3
77	219083	70	3
77	222249	71	3
77	225415	72	3
77	228581	73	3
77	231747	74	3
77	234913	75	3
77	238079	76	3
77	241245	77	3
77	244411	78	3
77	247577	79	3
77	250743	80	3
77	253909	81	3
77	257075	82	3
77	260241	83	3
77	263407	84	3
77	266573	85	3
77	269739	86	3
77	272905	87	3
77	276071	88	3
77	279237	89	3
77	282403	90	3
77	285569	91	3
77	288735	92	3
77	291901	93	3
77	295067	94	3
77	298233	95	3
77	301399	96	3
77	304565	97	3
77	307731	98	3
77	310897	99	3
77	314063	100	3
78	2778	2	0.015844298121
78	5944	3	0.01873679776
78	9110	4	0.018723797758
78	12276	5	0.018736797745
78	15442	6	0.01872379774
78	18608	7	0.01873679774
78	21774	8	0.01872379774
78	24940	9	0.01873679774
78	28107	10	0.01872379774
78	32289	11	0.020218710514
78	35455	12	0.018723401129
78	38621	13	0.018735809874
78	41787	14	0.018722355512
78	44953	15	0.018735068072
78	48119	16	0.01873492741
78	51285	17	0.018721847776
78	54451	18	0.01873475467
78	57617	19	0.01872161636
78	60783	20	0.018734428961
78	63949	21	0.018734205773
78	67115	22	0.018720962991
78	70281	23	0.018733711749
78	73447	24	0.018733458156
78	76613	25	0.01873323626
78	79779	26	0.018720014511
78	82945	27	0.018732763969
78	86111	28	0.018732517504
78	89277	29	0.018732274949
78	92443	30	0.018732036074
78	95609	31	0.018731800609
78	98775	32	0.018718568287
78	101941	33	0.018731338847
78	105107	34	0.018731112025
78	108273	35	0.018730887594
78	111439	36	0.018730668198
78	114605	37	0.018730452065
78	117771	38	0.018730233361
78	120937	39	0.0187300162
78	124103	40	0.018729800404
78	127269	41	0.018729585788
78	130435	42	0.018729372166
78	133601	43	0.018729159334
78	136767	44	0.018728947074
78	139933	45	0.01872873511
78	143099	46	0.018741523098
78	146265	47	0.018728310534
78	149431	48	0.01872809667
78	152597	49	0.018727880322
78	155763	50	0.018727659704
78	158929	51	0.018727432426
78	162095	52	0.018740196332
78	165261	53	0.018726951011
78	168427	54	0.018726698083
78	171593	55	0.018726439929
78	174759	56	0.01873917847
78	177925	57	0.018725914984
78	181091	58	0.018725654942
78	184257	59	0.018738392901
78	187423	60	0.018725133557
78	190589	61	0.018724874908
78	193755	62	0.018737614588
78	196921	63	0.018724346133
78	200087	64	0.018737072426
78	203253	65	0.018723799363
78	206419	66	0.018736529867
78	209585	67	0.01872326275
78	212751	68	0.018735996179
78	215917	69	0.018722729388
78	219083	70	0.01873546237
78	222249	71	0.018722195293
78	225415	72	0.018734928236
78	228581	73	0.018734661217
78	231747	74	0.018721394226
78	234913	75	0.018734127251
78	238079	76	0.018733860298
78	241245	77	0.018720593357
78	244411	78	0.018733326435
78	247577	79	0.018733059522
78	250743	80	0.018732792622
78	253909	81	0.018732525739
78	257075	82	0.018719258862
78	260241	83	0.018731991999
78	263407	84	0.018731725143
78	266573	85	0.018731458295
78	269739	86	0.018731191452
78	272905	87	0.018730924619
78	276071	88	0.018730657975
78	279237	89	0.018730397051
78	282403	90	0.018730130128
78	285569	91	0.018729863175
78	288735	92	0.018729596206
78	291901	93	0.018729329247
78	295067	94	0.018729062317
78	298233	95	0.018728795396
78	301399	96	0.018728528486
78	304565	97	0.018728261581
78	307731	98	0.018727994679
78	310897	99	0.018740727783
78	314063	100	0.018727460891
79	2778	2	0
79	5944	3	0
79	9110	4	0
79	12276	5	0
79	15442	6	0
79	18608	7	0
79	21774	8	0
79	24940	9	0
79	28107	10	0
79	32289	11	0
79	35455	12	0
79	38621	13	0
79	41787	14	0
79	44953	15	0
79	48119	16	0
79	51285	17	0
79	54451	18	0
79	57617	19	0
79	60783	20	0
79	63949	21	0
79	67115	22	0
79	70281	23	0
79	73447	24	0
79	76613	25	0
79	79779	26	0
79	82945	27	0
79	86111	28	0
79	89277	29	0
79	92443	30	0
79	95609	31	0
79	98775	32	0
79	101941	33	0
79	105107	34	0
79	108273	35	0
79	111439	36	0
79	114605	37	0
79	117771	38	0
79	120937	39	0
79	124103	40	0
79	127269	41	0
79	130435	42	0
79	133601	43	0
79	136767	44	0
79	139933	45	0
79	143099	46	0
79	146265	47	0
79	149431	48	0
79	152597	49	0
79	155763	50	0
79	158929	51	0
79	162095	52	0
79	165261	53	0
79	168427	54	0
79	171593	55	0
79	174759	56	0
79	177925	57	0
79	181091	58	0
79	184257	59	0
79	187423	60	0
79	190589	61	0
79	193755	62	0
79	196921	63	0
79	200087	64	0
79	203253	65	0
79	206419	66	0
79	209585	67	0
79	212751	68	0
79	215917	69	0
79	219083	70	0
79	222249	71	0
79	225415	72	0
79	228581	73	0
79	231747	74	0
79	234913	75	0
79	238079	76	0
79	241245	77	0
79	244411	78	0
79	247577	79	0
79	250743	80	0
79	253909	81	0
79	257075	82	0
79	260241	83	0
79	263407	84	0
79	266573	85	0
79	269739	86	0
79	272905	87	0
79	276071	88	0
79	279237	89	0
79	282403	90	0
79	285569	91	0
79	288735	92	0
79	291901	93	0
79	295067	94	0
79	298233	95	0
79	301399	96	0
79	304565	97	0
79	307731	98	0
79	310897	99	0
79	314063	100	0
80	2779	2	4
80	5945	3	4
80	9111	4	4
80	12277	5	4
80	15443	6	4
80	18609	7	4
80	21775	8	4
80	24941	9	4
80	28108	10	4
80	32290	11	4
80	35456	12	4
80	38622	13	4
80	41788	14	4
80	44954	15	4
80	48120	16	4
80	51286	17	4
80	54452	18	4
80	57618	19	4
80	60784	20	4
80	63950	21	4
80	67116	22	4
80	70282	23	4
80	73448	24	4
80	76614	25	4
80	79780	26	4
80	82946	27	4
80	86112	28	4
80	89278	29	4
80	92444	30	4
80	95610	31	4
80	98776	32	4
80	101942	33	4
80	105108	34	4
80	108274	35	4
80	111440	36	4
80	114606	37	4
80	117772	38	4
80	120938	39	4
80	124104	40	4
80	127270	41	4
80	130436	42	4
80	133602	43	4
80	136768	44	4
80	139934	45	4
80	143100	46	4
80	146266	47	4
80	149432	48	4
80	152598	49	4
80	155764	50	4
80	158930	51	4
80	162096	52	4
80	165262	53	4
80	168428	54	4
80	171594	55	4
80	174760	56	4
80	177926	57	4
80	181092	58	4
80	184258	59	4
80	187424	60	4
80	190590	61	4
80	193756	62	4
80	196922	63	4
80	200088	64	4
80	203254	65	4
80	206420	66	4
80	209586	67	4
80	212752	68	4
80	215918	69	4
80	219084	70	4
80	222250	71	4
80	225416	72	4
80	228582	73	4
80	231748	74	4
80	234914	75	4
80	238080	76	4
80	241246	77	4
80	244412	78	4
80	247578	79	4
80	250744	80	4
80	253910	81	4
80	257076	82	4
80	260242	83	4
80	263408	84	4
80	266574	85	4
80	269740	86	4
80	272906	87	4
80	276072	88	4
80	279238	89	4
80	282404	90	4
80	285570	91	4
80	288736	92	4
80	291902	93	4
80	295068	94	4
80	298234	95	4
80	301400	96	4
80	304566	97	4
80	307732	98	4
80	310898	99	4
80	314064	100	4
81	2779	2	0.015844318135
81	5945	3	0.01873679776
81	9111	4	0.018723797758
81	12277	5	0.018736797745
81	15443	6	0.01872379774
81	18609	7	0.01873679774
81	21775	8	0.01872379774
81	24941	9	0.01873679774
81	28108	10	0.01872379774
81	32290	11	0.020218750569
81	35456	12	0.018723404138
81	38622	13	0.018735807417
81	41788	14	0.018722352177
81	44954	15	0.018735064941
81	48120	16	0.018734923733
81	51286	17	0.018721844398
81	54452	18	0.018734754267
81	57618	19	0.018721617851
81	60784	20	0.018734431279
81	63950	21	0.018734208477
81	67116	22	0.0187209659
81	70282	23	0.018733714778
81	73448	24	0.018733461262
81	76614	25	0.018733238536
81	79780	26	0.018720017795
81	82946	27	0.018732767262
81	86112	28	0.018732520804
81	89278	29	0.018732278255
81	92444	30	0.018732039384
81	95610	31	0.018731803923
81	98776	32	0.018718571604
81	101942	33	0.018731342165
81	105108	34	0.018731115346
81	108274	35	0.018730890916
81	111440	36	0.018730671909
81	114606	37	0.018730455371
81	117772	38	0.01873023667
81	120938	39	0.01873001951
81	124104	40	0.018729803718
81	127270	41	0.018729589103
81	130436	42	0.018729375482
81	133602	43	0.018729162652
81	136768	44	0.018728950393
81	139934	45	0.018728738431
81	143100	46	0.018741526418
81	146266	47	0.018728313857
81	149432	48	0.018728099993
81	152598	49	0.018727883647
81	155764	50	0.018727663028
81	158930	51	0.018727435751
81	162096	52	0.018740199658
81	165262	53	0.018726954337
81	168428	54	0.018726701411
81	171594	55	0.018726443256
81	174760	56	0.018739181798
81	177926	57	0.018725918311
81	181092	58	0.018725657777
81	184258	59	0.018738396011
81	187424	60	0.018725136584
81	190590	61	0.018724878139
81	193756	62	0.018737617925
81	196922	63	0.018724349484
81	200088	64	0.018737075768
81	203254	65	0.0187238027
81	206420	66	0.018736533203
81	209586	67	0.018723266085
81	212752	68	0.018735999515
81	215918	69	0.018722732724
81	219084	70	0.018735465706
81	222250	71	0.018722198629
81	225416	72	0.018734931572
81	228582	73	0.018734664553
81	231748	74	0.018721397563
81	234914	75	0.018734130587
81	238080	76	0.018733863634
81	241246	77	0.018720596693
81	244412	78	0.018733329771
81	247578	79	0.018733062858
81	250744	80	0.018732795958
81	253910	81	0.018732529075
81	257076	82	0.018719262198
81	260242	83	0.018731995335
81	263408	84	0.018731728479
81	266574	85	0.018731461631
81	269740	86	0.018731194788
81	272906	87	0.018730927955
81	276072	88	0.018730661331
81	279238	89	0.018730400387
81	282404	90	0.018730133463
81	285570	91	0.018729866511
81	288736	92	0.018729599541
81	291902	93	0.018729332583
81	295068	94	0.018729065652
81	298234	95	0.018728798732
81	301400	96	0.018728531822
81	304566	97	0.018728264917
81	307732	98	0.018727998015
81	310898	99	0.018740731118
81	314064	100	0.018727464227
82	2779	2	0
82	5945	3	0
82	9111	4	0
82	12277	5	0
82	15443	6	0
82	18609	7	0
82	21775	8	0
82	24941	9	0
82	28108	10	0
82	32290	11	0
82	35456	12	0
82	38622	13	0
82	41788	14	0
82	44954	15	0
82	48120	16	0
82	51286	17	0
82	54452	18	0
82	57618	19	0
82	60784	20	0
82	63950	21	0
82	67116	22	0
82	70282	23	0
82	73448	24	0
82	76614	25	0
82	79780	26	0
82	82946	27	0
82	86112	28	0
82	89278	29	0
82	92444	30	0
82	95610	31	0
82	98776	32	0
82	101942	33	0
82	105108	34	0
82	108274	35	0
82	111440	36	0
82	114606	37	0
82	117772	38	0
82	120938	39	0
82	124104	40	0
82	127270	41	0
82	130436	42	0
82	133602	43	0
82	136768	44	0
82	139934	45	0
82	143100	46	0
82	146266	47	0
82	149432	48	0
82	152598	49	0
82	155764	50	0
82	158930	51	0
82	162096	52	0
82	165262	53	0
82	168428	54	0
82	171594	55	0
82	174760	56	0
82	177926	57	0
82	181092	58	0
82	184258	59	0
82	187424	60	0
82	190590	61	0
82	193756	62	0
82	196922	63	0
82	200088	64	0
82	203254	65	0
82	206420	66	0
82	209586	67	0
82	212752	68	0
82	215918	69	0
82	219084	70	0
82	222250	71	0
82	225416	72	0
82	228582	73	0
82	231748	74	0
82	234914	75	0
82	238080	76	0
82	241246	77	0
82	244412	78	0
82	247578	79	0
82	250744	80	0
82	253910	81	0
82	257076	82	0
82	260242	83	0
82	263408	84	0
82	266574	85	0
82	269740	86	0
82	272906	87	0
82	276072	88	0
82	279238	89	0
82	282404	90	0
82	285570	91	0
82	288736	92	0
82	291902	93	0
82	295068	94	0
82	298234	95	0
82	301400	96	0
82	304566	97	0
82	307732	98	0
82	310898	99	0
82	314064	100	0
83	2780	2	5
83	5946	3	5
83	9112	4	5
83	12278	5	5
83	15444	6	5
83	18610	7	5
83	21776	8	5
83	24942	9	5
83	28109	10	5
83	32291	11	5
83	35457	12	5
83	38623	13	5
83	41789	14	5
83	44955	15	5
83	48121	16	5
83	51287	17	5
83	54453	18	5
83	57619	19	5
83	60785	20	5
83	63951	21	5
83	67117	22	5
83	70283	23	5
83	73449	24	5
83	76615	25	5
83	79781	26	5
83	82947	27	5
83	86113	28	5
83	89279	29	5
83	92445	30	5
83	95611	31	5
83	98777	32	5
83	101943	33	5
83	105109	34	5
83	108275	35	5
83	111441	36	5
83	114607	37	5
83	117773	38	5
83	120939	39	5
83	124105	40	5
83	127271	41	5
83	130437	42	5
83	133603	43	5
83	136769	44	5
83	139935	45	5
83	143101	46	5
83	146267	47	5
83	149433	48	5
83	152599	49	5
83	155765	50	5
83	158931	51	5
83	162097	52	5
83	165263	53	5
83	168429	54	5
83	171595	55	5
83	174761	56	5
83	177927	57	5
83	181093	58	5
83	184259	59	5
83	187425	60	5
83	190591	61	5
83	193757	62	5
83	196923	63	5
83	200089	64	5
83	203255	65	5
83	206421	66	5
83	209587	67	5
83	212753	68	5
83	215919	69	5
83	219085	70	5
83	222251	71	5
83	225417	72	5
83	228583	73	5
83	231749	74	5
83	234915	75	5
83	238081	76	5
83	241247	77	5
83	244413	78	5
83	247579	79	5
83	250745	80	5
83	253911	81	5
83	257077	82	5
83	260243	83	5
83	263409	84	5
83	266575	85	5
83	269741	86	5
83	272907	87	5
83	276073	88	5
83	279239	89	5
83	282405	90	5
83	285571	91	5
83	288737	92	5
83	291903	93	5
83	295069	94	5
83	298235	95	5
83	301401	96	5
83	304567	97	5
83	307733	98	5
83	310899	99	5
83	314065	100	5
84	2780	2	0.015845338149
84	5946	3	0.01873679776
84	9112	4	0.018723797758
84	12278	5	0.018736797745
84	15444	6	0.01872379774
84	18610	7	0.01873679774
84	21776	8	0.01872379774
84	24942	9	0.01873679774
84	28109	10	0.01872379774
84	32291	11	0.020158710542
84	35457	12	0.018723405796
84	38623	13	0.018735803861
84	41789	14	0.01872234865
84	44955	15	0.018735062096
84	48121	16	0.018734923655
84	51287	17	0.018721850265
84	54453	18	0.018734762998
84	57619	19	0.018721627287
84	60785	20	0.01873444092
84	63951	21	0.01873421823
84	67117	22	0.018720975731
84	70283	23	0.018733724658
84	73449	24	0.018733471173
84	76615	25	0.018733247825
84	79781	26	0.018720027802
84	82947	27	0.018732777269
84	86113	28	0.018732530811
84	89279	29	0.018732288262
84	92445	30	0.018732049391
84	95611	31	0.01873181393
84	98777	32	0.01871858161
84	101943	33	0.018731352172
84	105109	34	0.018731125353
84	108275	35	0.018730900923
84	111441	36	0.018730682213
84	114607	37	0.018730465364
84	117773	38	0.018730246664
84	120939	39	0.018730029506
84	124105	40	0.018729813714
84	127271	41	0.0187295991
84	130437	42	0.01872938548
84	133603	43	0.018729172651
84	136769	44	0.018728960392
84	139935	45	0.01872874843
84	143101	46	0.018741536419
84	146267	47	0.018728323857
84	149433	48	0.018728109994
84	152599	49	0.018727893648
84	155765	50	0.01872767303
84	158931	51	0.018727445753
84	162097	52	0.01874020966
84	165263	53	0.01872696434
84	168429	54	0.018726711413
84	171595	55	0.018726453259
84	174761	56	0.018739191801
84	177927	57	0.018725928315
84	181093	58	0.018725668274
84	184259	59	0.018738405916
84	187425	60	0.018725146897
84	190591	61	0.018724888248
84	193757	62	0.018737627928
84	196923	63	0.018724359474
84	200089	64	0.018737085766
84	203255	65	0.018723812704
84	206421	66	0.018736543208
84	209587	67	0.01872327609
84	212753	68	0.01873600952
84	215919	69	0.018722742729
84	219085	70	0.018735475711
84	222251	71	0.018722208634
84	225417	72	0.018734941577
84	228583	73	0.018734674558
84	231749	74	0.018721407568
84	234915	75	0.018734140592
84	238081	76	0.018733873639
84	241247	77	0.018720606698
84	244413	78	0.018733339777
84	247579	79	0.018733072863
84	250745	80	0.018732805964
84	253911	81	0.01873253908
84	257077	82	0.018719272204
84	260243	83	0.01873200534
84	263409	84	0.018731738485
84	266575	85	0.018731471636
84	269741	86	0.018731204794
84	272907	87	0.018730937961
84	276073	88	0.018730671253
84	279239	89	0.018730410394
84	282405	90	0.01873014347
84	285571	91	0.018729876518
84	288737	92	0.018729609548
84	291903	93	0.01872934259
84	295069	94	0.018729075659
84	298235	95	0.018728808739
84	301401	96	0.018728541829
84	304567	97	0.018728274923
84	307733	98	0.018728008022
84	310899	99	0.018740741125
84	314065	100	0.018727474234
85	2780	2	0
85	5946	3	0
85	9112	4	0
85	12278	5	0
85	15444	6	0
85	18610	7	0
85	21776	8	0
85	24942	9	0
85	28109	10	0
85	32291	11	0
85	35457	12	0
85	38623	13	0
85	41789	14	0
85	44955	15	0
85	48121	16	0
85	51287	17	0
85	54453	18	0
85	57619	19	0
85	60785	20	0
85	63951	21	0
85	67117	22	0
85	70283	23	0
85	73449	24	0
85	76615	25	0
85	79781	26	0
85	82947	27	0
85	86113	28	0
85	89279	29	0
85	92445	30	0
85	95611	31	0
85	98777	32	0
85	101943	33	0
85	105109	34	0
85	108275	35	0
85	111441	36	0
85	114607	37	0
85	117773	38	0
85	120939	39	0
85	124105	40	0
85	127271	41	0
85	130437	42	0
85	133603	43	0
85	136769	44	0
85	139935	45	0
85	143101	46	0
85	146267	47	0
85	149433	48	0
85	152599	49	0
85	155765	50	0
85	158931	51	0
85	162097	52	0
85	165263	53	0
85	168429	54	0
85	171595	55	0
85	174761	56	0
85	177927	57	0
85	181093	58	0
85	184259	59	0
85	187425	60	0
85	190591	61	0
85	193757	62	0
85	196923	63	0
85	200089	64	0
85	203255	65	0
85	206421	66	0
85	209587	67	0
85	212753	68	0
85	215919	69	0
85	219085	70	0
85	222251	71	0
85	225417	72	0
85	228583	73	0
85	231749	74	0
85	234915	75	0
85	238081	76	0
85	241247	77	0
85	244413	78	0
85	247579	79	0
85	250745	80	0
85	253911	81	0
85	257077	82	0
85	260243	83	0
85	263409	84	0
85	266575	85	0
85	269741	86	0
85	272907	87	0
85	276073	88	0
85	279239	89	0
85	282405	90	0
85	285571	91	0
85	288737	92	0
85	291903	93	0
85	295069	94	0
85	298235	95	0
85	301401	96	0
85	304567	97	0
85	307733	98	0
85	310899	99	0
85	314065	100	0

