version 3
run BreakRanksNoGui-803-20240710-17:47:48-276438
attr configname BreakRanksNoGui
attr datetime 20240710-17:47:48
attr datetimef 20240710-174748
attr experiment BreakRanksNoGui
attr inifile omnetpp.ini
attr iterationvars "$nCars=6, $platoonSize=6, $nLanes=1, $ploegH=0.5, $controller=1, $headway=0.1, $leaderHeadway=1.2, $leaderSpeed=130, $breakRanksSafetyDistance=2, $minSpeed=120, $maxSpeed=140, $beaconInterval=0.1, $priority=4, $packetSize=200, $sController=\"CACC\", $0=2, $1=0"
attr iterationvarsd nCars=6/platoonSize=6/nLanes=1/ploegH=0.5/controller=1/headway=0.1/leaderHeadway=1.2/leaderSpeed=130/breakRanksSafetyDistance=2/minSpeed=120/maxSpeed=140/beaconInterval=0.1/priority=4/packetSize=200/sController=CACC/2/0
attr iterationvarsf nCars=6,platoonSize=6,nLanes=1,ploegH=0.5,controller=1,headway=0.1,leaderHeadway=1.2,leaderSpeed=130,breakRanksSafetyDistance=2,minSpeed=120,maxSpeed=140,beaconInterval=0.1,priority=4,packetSize=200,sController=CACC,2,0-
attr measurement "$nCars=6, $platoonSize=6, $nLanes=1, $ploegH=0.5, $controller=1, $headway=0.1, $leaderHeadway=1.2, $leaderSpeed=130, $breakRanksSafetyDistance=2, $minSpeed=120, $maxSpeed=140, $beaconInterval=0.1, $priority=4, $packetSize=200, $sController=\"CACC\", $0=2, $1=0"
attr network Highway
attr processid 276438
attr repetition 3
attr replication #3
attr resultdir results
attr runnumber 803
attr seedset 3
itervar beaconInterval 0.1
itervar breakRanksSafetyDistance 2
itervar controller 1
itervar headway 0.1
itervar leaderHeadway 1.2
itervar leaderSpeed 130
itervar maxSpeed 140
itervar minSpeed 120
itervar nCars 6
itervar nLanes 1
itervar packetSize 200
itervar platoonSize 6
itervar ploegH 0.5
itervar priority 4
itervar sController "\"CACC\""
config image-path ../../../veins/images
config repeat 10
config extends BreakRanks
config *.manager.command "\"sumo\""
config *.manager.ignoreGuiCommands true
config output-vector-file "results/BreakRanks_1_0.1_130_2_6 /result_3.vec"
config output-scalar-file "results/BreakRanks_1_0.1_130_2_6 /result_3.sca"
config extends Platooning
config *.node[*].scenario_type "\"BreakRanksScenario\""
config *.manager.command "\"sumo-gui\""
config *.node[*].scenario_type "\"SimpleScenario\""
config cmdenv-express-mode true
config cmdenv-autoflush true
config cmdenv-status-frequency 15s
config num-rngs 6
config network Highway
config debug-on-errors true
config print-undisposed true
config *.playgroundSizeX 65000m
config *.playgroundSizeY 25000m
config *.playgroundSizeZ 50m
config sim-time-limit "100 s"
config *.annotations.draw false
config *.obstacles.debug false
config *.world.useTorus false
config *.world.use2D false
config *.manager.updateInterval 0.01s
config *.manager.host "\"localhost\""
config *.manager.moduleType "\"org.car2x.plexe.PlatoonCar\""
config *.manager.moduleName "\"node\""
config *.manager.moduleDisplayString "\"\""
config *.manager.autoShutdown true
config *.manager.margin 25
config *.connectionManager.sendDirect true
config *.connectionManager.maxInterfDist 2600m
config *.connectionManager.drawMaxIntfDist false
config *.**.nic.mac1609_4.useServiceChannel false
config *.**.nic.mac1609_4.txPower 100mW
config *.**.nic.mac1609_4.bitrate 6Mbps
config *.**.nic.mac1609_4.useAcks true
config *.**.nic.mac1609_4.ackErrorRate 0.0
config *.**.nic.mac1609_4.frameErrorRate 0.0
config *.**.nic.phy80211p.minPowerLevel -94dBm
config *.**.nic.phy80211p.maxTXPower 100mW
config *.**.nic.phy80211p.useNoiseFloor true
config *.**.nic.phy80211p.noiseFloor -95dBm
config *.**.nic.phy80211p.decider "xmldoc(\"config.xml\")"
config *.**.nic.phy80211p.analogueModels "xmldoc(\"config.xml\")"
config *.**.nic.phy80211p.usePropagationDelay true
config *.node[*].mobility.x 0
config *.node[*].mobility.y 0
config *.node[*].mobility.z 1.895
config seed-set 3
config **.seed 3
config *.node[*].prot.rng-0 2
config *.node[*].appl.rng-0 3
config *.node[*].scenario.rng-0 4
config **.traffic.rng-0 5
config *.manager.configFile "\"./sumocfg/freeway.sumo.cfg\""
config *.manager.launchConfig "xmldoc(\"./sumocfg/freeway.launchd.xml\")"
config **.numberOfCars 6
config **.numberOfCarsPerPlatoon 6
config **.numberOfLanes 1
config *.node[*].helper_type "\"PositionHelper\""
config *.node[*].scenario.caccC1 0.5
config *.node[*].scenario.caccXi 1
config *.node[*].scenario.caccOmegaN "0.2 Hz"
config *.node[*].scenario.caccSpacing "2 m"
config *.node[*].scenario.engineTau "0.5 s"
config *.node[*].scenario.ploegH 0.5s
config *.node[*].scenario.ploegKp 0.2
config *.node[*].scenario.ploegKd 0.7
config *.node[*].scenario.useRealisticEngine false
config *.node[*].scenario.useControllerAcceleration true
config *.node[*].scenario.nLanes 1
config **.numericController 1
config **.headway 0.1s
config *.node[*].scenario.accHeadway 0.1s
config *.node[*].scenario.leaderHeadway 1.2s
config *.node[*].scenario.leaderSpeed 130kmph
config *.node[*].appl_type "\"SimplePlatooningApp\""
config *.node[*].appl.*.scalar-recording true
config *.node[*].appl.*.vector-recording true
config *.node[0].appl.breakRanksSafetyDistance 2m
config *.node[*].appl.minSpeed 120kmph
config *.node[*].appl.maxSpeed 140kmph
config *.node[*].protocol_type "\"SimplePlatooningBeaconing\""
config *.node[*].prot.*.scalar-recording true
config *.node[*].prot.*.vector-recording true
config *.node[*].prot.beaconingInterval 0.1s
config *.node[*].prot.priority 4
config *.node[*].prot.packetSize 200
config **.traffic_type "\"PlatoonsTrafficManager\""
config **.traffic.platoonInsertTime "1 s"
config **.traffic.platoonInsertSpeed 130kmph
config **.traffic.nCars 6
config **.traffic.platoonSize 6
config **.traffic.nLanes 1
config **.traffic.platooningVType "\"vtypeauto\""
config **.traffic.controller "\"CACC\""
config **.traffic.platoonInsertDistance 2m
config **.traffic.platoonInsertHeadway 0s
config **.traffic.platoonLeaderHeadway 1.2s
config **.scalar-recording false
config **.vector-recording false

vector 0 Highway.node[0].appl distance ETV
vector 1 Highway.node[0].appl relativeSpeed ETV
vector 2 Highway.node[0].appl nodeId ETV
vector 3 Highway.node[0].appl acceleration ETV
vector 4 Highway.node[0].appl controllerAcceleration ETV
vector 5 Highway.node[0].appl speed ETV
vector 6 Highway.node[0].appl posx ETV
vector 7 Highway.node[0].appl posy ETV
vector 8 Highway.node[1].appl distance ETV
vector 9 Highway.node[1].appl relativeSpeed ETV
vector 10 Highway.node[1].appl nodeId ETV
vector 11 Highway.node[1].appl acceleration ETV
vector 12 Highway.node[1].appl controllerAcceleration ETV
vector 13 Highway.node[1].appl speed ETV
vector 14 Highway.node[1].appl posx ETV
vector 15 Highway.node[1].appl posy ETV
vector 16 Highway.node[2].appl distance ETV
vector 17 Highway.node[2].appl relativeSpeed ETV
vector 18 Highway.node[2].appl nodeId ETV
vector 19 Highway.node[2].appl acceleration ETV
vector 20 Highway.node[2].appl controllerAcceleration ETV
vector 21 Highway.node[2].appl speed ETV
vector 22 Highway.node[2].appl posx ETV
vector 23 Highway.node[2].appl posy ETV
vector 24 Highway.node[3].appl distance ETV
vector 25 Highway.node[3].appl relativeSpeed ETV
vector 26 Highway.node[3].appl nodeId ETV
vector 27 Highway.node[3].appl acceleration ETV
vector 28 Highway.node[3].appl controllerAcceleration ETV
vector 29 Highway.node[3].appl speed ETV
vector 30 Highway.node[3].appl posx ETV
vector 31 Highway.node[3].appl posy ETV
vector 32 Highway.node[4].appl distance ETV
vector 33 Highway.node[4].appl relativeSpeed ETV
vector 34 Highway.node[4].appl nodeId ETV
vector 35 Highway.node[4].appl acceleration ETV
vector 36 Highway.node[4].appl controllerAcceleration ETV
vector 37 Highway.node[4].appl speed ETV
vector 38 Highway.node[4].appl posx ETV
vector 39 Highway.node[4].appl posy ETV
vector 40 Highway.node[5].appl distance ETV
vector 41 Highway.node[5].appl relativeSpeed ETV
vector 42 Highway.node[5].appl nodeId ETV
vector 43 Highway.node[5].appl acceleration ETV
vector 44 Highway.node[5].appl controllerAcceleration ETV
vector 45 Highway.node[5].appl speed ETV
vector 46 Highway.node[5].appl posx ETV
vector 47 Highway.node[5].appl posy ETV
vector 48 Highway.node[1].prot leaderDelay ETV
vector 49 Highway.node[1].prot leaderDelayId ETV
vector 50 Highway.node[1].prot frontDelay ETV
vector 51 Highway.node[1].prot frontDelayId ETV
vector 52 Highway.node[2].prot leaderDelay ETV
vector 53 Highway.node[2].prot leaderDelayId ETV
vector 54 Highway.node[3].prot leaderDelay ETV
vector 55 Highway.node[3].prot leaderDelayId ETV
vector 56 Highway.node[4].prot leaderDelay ETV
vector 57 Highway.node[4].prot leaderDelayId ETV
vector 58 Highway.node[5].prot leaderDelay ETV
vector 59 Highway.node[5].prot leaderDelayId ETV
vector 60 Highway.node[2].prot frontDelay ETV
vector 61 Highway.node[2].prot frontDelayId ETV
vector 62 Highway.node[5].prot frontDelay ETV
vector 63 Highway.node[5].prot frontDelayId ETV
vector 64 Highway.node[3].prot frontDelay ETV
vector 65 Highway.node[3].prot frontDelayId ETV
vector 66 Highway.node[4].prot frontDelay ETV
vector 67 Highway.node[4].prot frontDelayId ETV
vector 68 Highway.node[0].prot nodeId ETV
vector 69 Highway.node[0].prot busyTime ETV
vector 70 Highway.node[0].prot collisions ETV
vector 71 Highway.node[1].prot nodeId ETV
vector 72 Highway.node[1].prot busyTime ETV
vector 73 Highway.node[1].prot collisions ETV
vector 74 Highway.node[2].prot nodeId ETV
vector 75 Highway.node[2].prot busyTime ETV
vector 76 Highway.node[2].prot collisions ETV
vector 77 Highway.node[3].prot nodeId ETV
vector 78 Highway.node[3].prot busyTime ETV
vector 79 Highway.node[3].prot collisions ETV
vector 80 Highway.node[4].prot nodeId ETV
vector 81 Highway.node[4].prot busyTime ETV
vector 82 Highway.node[4].prot collisions ETV
vector 83 Highway.node[5].prot nodeId ETV
vector 84 Highway.node[5].prot busyTime ETV
vector 85 Highway.node[5].prot collisions ETV
0	113	1.11	-1
0	429	1.21	-1
0	745	1.31	-1
0	1061	1.41	-1
0	1377	1.51	-1
0	1693	1.61	-1
0	2009	1.71	-1
0	2325	1.81	-1
0	2641	1.91	-1
0	2963	2.01	-1
0	3279	2.11	-1
0	3595	2.21	-1
0	3911	2.31	-1
0	4227	2.41	-1
0	4543	2.51	-1
0	4859	2.61	-1
0	5175	2.71	-1
0	5491	2.81	-1
0	5807	2.91	-1
0	6129	3.01	-1
0	6445	3.11	-1
0	6761	3.21	-1
0	7077	3.31	-1
0	7393	3.41	-1
0	7709	3.51	-1
0	8025	3.61	-1
0	8341	3.71	-1
0	8657	3.81	-1
0	8973	3.91	-1
0	9295	4.01	-1
0	9611	4.11	-1
0	9927	4.21	-1
0	10243	4.31	-1
0	10559	4.41	-1
0	10875	4.51	-1
0	11191	4.61	-1
0	11507	4.71	-1
0	11823	4.81	-1
0	12139	4.91	-1
0	12461	5.01	-1
0	12777	5.11	-1
0	13093	5.21	-1
0	13409	5.31	-1
0	13725	5.41	-1
0	14041	5.51	-1
0	14357	5.61	-1
0	14673	5.71	-1
0	14989	5.81	-1
0	15305	5.91	-1
0	15627	6.01	-1
0	15943	6.11	-1
0	16259	6.21	-1
0	16575	6.31	-1
0	16891	6.41	-1
0	17207	6.51	-1
0	17523	6.61	-1
0	17839	6.71	-1
0	18155	6.81	-1
0	18471	6.91	-1
0	18793	7.01	-1
0	19109	7.11	-1
0	19425	7.21	-1
0	19741	7.31	-1
0	20057	7.41	-1
0	20373	7.51	-1
0	20689	7.61	-1
0	21005	7.71	-1
0	21321	7.81	-1
0	21637	7.91	-1
0	21959	8.01	-1
0	22275	8.11	-1
0	22591	8.21	-1
0	22907	8.31	-1
0	23223	8.41	-1
0	23539	8.51	-1
0	23855	8.61	-1
0	24171	8.71	-1
0	24487	8.81	-1
0	24803	8.91	-1
0	25125	9.01	-1
0	25441	9.11	-1
0	25757	9.21	-1
0	26073	9.31	-1
0	26389	9.41	-1
0	26705	9.51	-1
0	27021	9.61	-1
0	27337	9.71	-1
0	27653	9.81	-1
0	27969	9.91	-1
0	29223	10.01	-1
0	29539	10.11	-1
0	29855	10.21	-1
0	30171	10.31	-1
0	30487	10.41	-1
0	30803	10.51	-1
0	31119	10.61	-1
0	31435	10.71	-1
0	31751	10.81	-1
0	32067	10.91	-1
0	32389	11.01	-1
0	32705	11.11	-1
0	33021	11.21	-1
0	33337	11.31	-1
0	33653	11.41	-1
0	33969	11.51	-1
0	34285	11.61	-1
0	34601	11.71	-1
0	34917	11.81	-1
0	35233	11.91	-1
0	35555	12.01	-1
0	35871	12.11	-1
0	36187	12.21	-1
0	36503	12.31	-1
0	36819	12.41	-1
0	37135	12.51	-1
0	37451	12.61	-1
0	37767	12.71	-1
0	38083	12.81	-1
0	38399	12.91	-1
0	38721	13.01	-1
0	39037	13.11	-1
0	39353	13.21	-1
0	39669	13.31	-1
0	39985	13.41	-1
0	40301	13.51	-1
0	40617	13.61	-1
0	40933	13.71	-1
0	41249	13.81	-1
0	41565	13.91	-1
0	41887	14.01	-1
0	42203	14.11	-1
0	42519	14.21	-1
0	42835	14.31	-1
0	43151	14.41	-1
0	43467	14.51	-1
0	43783	14.61	-1
0	44099	14.71	-1
0	44415	14.81	-1
0	44731	14.91	-1
0	45053	15.01	-1
0	45369	15.11	-1
0	45685	15.21	-1
0	46001	15.31	-1
0	46317	15.41	-1
0	46633	15.51	-1
0	46949	15.61	-1
0	47265	15.71	-1
0	47581	15.81	-1
0	47897	15.91	-1
0	48219	16.01	-1
0	48535	16.11	-1
0	48851	16.21	-1
0	49167	16.31	-1
0	49483	16.41	-1
0	49799	16.51	-1
0	50115	16.61	-1
0	50431	16.71	-1
0	50747	16.81	-1
0	51063	16.91	-1
0	51385	17.01	-1
0	51701	17.11	-1
0	52017	17.21	-1
0	52333	17.31	-1
0	52649	17.41	-1
0	52965	17.51	-1
0	53281	17.61	-1
0	53597	17.71	-1
0	53913	17.81	-1
0	54229	17.91	-1
0	54551	18.01	-1
0	54867	18.11	-1
0	55183	18.21	-1
0	55499	18.31	-1
0	55815	18.41	-1
0	56131	18.51	-1
0	56447	18.61	-1
0	56763	18.71	-1
0	57079	18.81	-1
0	57395	18.91	-1
0	57717	19.01	-1
0	58033	19.11	-1
0	58349	19.21	-1
0	58665	19.31	-1
0	58981	19.41	-1
0	59297	19.51	-1
0	59613	19.61	-1
0	59929	19.71	-1
0	60245	19.81	-1
0	60561	19.91	-1
0	60883	20.01	-1
0	61199	20.11	-1
0	61515	20.21	-1
0	61831	20.31	-1
0	62147	20.41	-1
0	62463	20.51	-1
0	62779	20.61	-1
0	63095	20.71	-1
0	63411	20.81	-1
0	63727	20.91	-1
0	64049	21.01	-1
0	64365	21.11	-1
0	64681	21.21	-1
0	64997	21.31	-1
0	65313	21.41	-1
0	65629	21.51	-1
0	65945	21.61	-1
0	66261	21.71	-1
0	66577	21.81	-1
0	66893	21.91	-1
0	67215	22.01	-1
0	67531	22.11	-1
0	67847	22.21	-1
0	68163	22.31	-1
0	68479	22.41	-1
0	68795	22.51	-1
0	69111	22.61	-1
0	69427	22.71	-1
0	69743	22.81	-1
0	70059	22.91	-1
0	70381	23.01	-1
0	70697	23.11	-1
0	71013	23.21	-1
0	71329	23.31	-1
0	71645	23.41	-1
0	71961	23.51	-1
0	72277	23.61	-1
0	72593	23.71	-1
0	72909	23.81	-1
0	73225	23.91	-1
0	73547	24.01	-1
0	73863	24.11	-1
0	74179	24.21	-1
0	74495	24.31	-1
0	74811	24.41	-1
0	75127	24.51	-1
0	75443	24.61	-1
0	75759	24.71	-1
0	76075	24.81	-1
0	76391	24.91	-1
0	76713	25.01	-1
0	77029	25.11	-1
0	77345	25.21	-1
0	77661	25.31	-1
0	77977	25.41	-1
0	78293	25.51	-1
0	78609	25.61	-1
0	78925	25.71	-1
0	79241	25.81	-1
0	79557	25.91	-1
0	79879	26.01	-1
0	80195	26.11	-1
0	80511	26.21	-1
0	80827	26.31	-1
0	81143	26.41	-1
0	81459	26.51	-1
0	81775	26.61	-1
0	82091	26.71	-1
0	82407	26.81	-1
0	82723	26.91	-1
0	83045	27.01	-1
0	83361	27.11	-1
0	83677	27.21	-1
0	83993	27.31	-1
0	84309	27.41	-1
0	84625	27.51	-1
0	84941	27.61	-1
0	85257	27.71	-1
0	85573	27.81	-1
0	85889	27.91	-1
0	86211	28.01	-1
0	86527	28.11	-1
0	86843	28.21	-1
0	87159	28.31	-1
0	87475	28.41	-1
0	87791	28.51	-1
0	88107	28.61	-1
0	88423	28.71	-1
0	88739	28.81	-1
0	89055	28.91	-1
0	89377	29.01	-1
0	89693	29.11	-1
0	90009	29.21	-1
0	90325	29.31	-1
0	90641	29.41	-1
0	90957	29.51	-1
0	91273	29.61	-1
0	91589	29.71	-1
0	91905	29.81	-1
0	92221	29.91	-1
0	92543	30.01	-1
0	92859	30.11	-1
0	93175	30.21	-1
0	93491	30.31	-1
0	93807	30.41	-1
0	94123	30.51	-1
0	94439	30.61	-1
0	94755	30.71	-1
0	95071	30.81	-1
0	95387	30.91	-1
0	95709	31.01	-1
0	96025	31.11	-1
0	96341	31.21	-1
0	96657	31.31	-1
0	96973	31.41	-1
0	97289	31.51	-1
0	97605	31.61	-1
0	97921	31.71	-1
0	98237	31.81	-1
0	98553	31.91	-1
0	98875	32.01	-1
0	99191	32.11	-1
0	99507	32.21	-1
0	99823	32.31	-1
0	100139	32.41	-1
0	100455	32.51	-1
0	100771	32.61	-1
0	101087	32.71	-1
0	101403	32.81	-1
0	101719	32.91	-1
0	102041	33.01	-1
0	102357	33.11	-1
0	102673	33.21	-1
0	102989	33.31	-1
0	103305	33.41	-1
0	103621	33.51	-1
0	103937	33.61	-1
0	104253	33.71	-1
0	104569	33.81	-1
0	104885	33.91	-1
0	105207	34.01	-1
0	105523	34.11	-1
0	105839	34.21	-1
0	106155	34.31	-1
0	106471	34.41	-1
0	106787	34.51	-1
0	107103	34.61	-1
0	107419	34.71	-1
0	107735	34.81	-1
0	108051	34.91	-1
0	108373	35.01	-1
0	108689	35.11	-1
0	109005	35.21	-1
0	109321	35.31	-1
0	109637	35.41	-1
0	109953	35.51	-1
0	110269	35.61	-1
0	110585	35.71	-1
0	110901	35.81	-1
0	111217	35.91	-1
0	111539	36.01	-1
0	111855	36.11	-1
0	112171	36.21	-1
0	112487	36.31	-1
0	112803	36.41	-1
0	113119	36.51	-1
0	113435	36.61	-1
0	113751	36.71	-1
0	114067	36.81	-1
0	114383	36.91	-1
0	114705	37.01	-1
0	115021	37.11	-1
0	115337	37.21	-1
0	115653	37.31	-1
0	115969	37.41	-1
0	116285	37.51	-1
0	116601	37.61	-1
0	116917	37.71	-1
0	117233	37.81	-1
0	117549	37.91	-1
0	117871	38.01	-1
0	118187	38.11	-1
0	118503	38.21	-1
0	118819	38.31	-1
0	119135	38.41	-1
0	119451	38.51	-1
0	119767	38.61	-1
0	120083	38.71	-1
0	120399	38.81	-1
0	120715	38.91	-1
0	121037	39.01	-1
0	121353	39.11	-1
0	121669	39.21	-1
0	121985	39.31	-1
0	122301	39.41	-1
0	122617	39.51	-1
0	122933	39.61	-1
0	123249	39.71	-1
0	123565	39.81	-1
0	123881	39.91	-1
0	124203	40.01	-1
0	124519	40.11	-1
0	124835	40.21	-1
0	125151	40.31	-1
0	125467	40.41	-1
0	125783	40.51	-1
0	126099	40.61	-1
0	126415	40.71	-1
0	126731	40.81	-1
0	127047	40.91	-1
0	127369	41.01	-1
0	127685	41.11	-1
0	128001	41.21	-1
0	128317	41.31	-1
0	128633	41.41	-1
0	128949	41.51	-1
0	129265	41.61	-1
0	129581	41.71	-1
0	129897	41.81	-1
0	130213	41.91	-1
0	130535	42.01	-1
0	130851	42.11	-1
0	131167	42.21	-1
0	131483	42.31	-1
0	131799	42.41	-1
0	132115	42.51	-1
0	132431	42.61	-1
0	132747	42.71	-1
0	133063	42.81	-1
0	133379	42.91	-1
0	133701	43.01	-1
0	134017	43.11	-1
0	134333	43.21	-1
0	134649	43.31	-1
0	134965	43.41	-1
0	135281	43.51	-1
0	135597	43.61	-1
0	135913	43.71	-1
0	136229	43.81	-1
0	136545	43.91	-1
0	136867	44.01	-1
0	137183	44.11	-1
0	137499	44.21	-1
0	137815	44.31	-1
0	138131	44.41	-1
0	138447	44.51	-1
0	138763	44.61	-1
0	139079	44.71	-1
0	139395	44.81	-1
0	139711	44.91	-1
0	140033	45.01	-1
0	140349	45.11	-1
0	140665	45.21	-1
0	140981	45.31	-1
0	141297	45.41	-1
0	141613	45.51	-1
0	141929	45.61	-1
0	142245	45.71	-1
0	142561	45.81	-1
0	142877	45.91	-1
0	143199	46.01	-1
0	143515	46.11	-1
0	143831	46.21	-1
0	144147	46.31	-1
0	144463	46.41	-1
0	144779	46.51	-1
0	145095	46.61	-1
0	145411	46.71	-1
0	145727	46.81	-1
0	146043	46.91	-1
0	146365	47.01	-1
0	146681	47.11	-1
0	146997	47.21	-1
0	147313	47.31	-1
0	147629	47.41	-1
0	147945	47.51	-1
0	148261	47.61	-1
0	148577	47.71	-1
0	148893	47.81	-1
0	149209	47.91	-1
0	149531	48.01	-1
0	149847	48.11	-1
0	150163	48.21	-1
0	150479	48.31	-1
0	150795	48.41	-1
0	151111	48.51	-1
0	151427	48.61	-1
0	151743	48.71	-1
0	152059	48.81	-1
0	152375	48.91	-1
0	152697	49.01	-1
0	153013	49.11	-1
0	153329	49.21	-1
0	153645	49.31	-1
0	153961	49.41	-1
0	154277	49.51	-1
0	154593	49.61	-1
0	154909	49.71	-1
0	155225	49.81	-1
0	155541	49.91	-1
0	155863	50.01	-1
0	156179	50.11	-1
0	156495	50.21	-1
0	156811	50.31	-1
0	157127	50.41	-1
0	157443	50.51	-1
0	157759	50.61	-1
0	158075	50.71	-1
0	158391	50.81	-1
0	158707	50.91	-1
0	159029	51.01	-1
0	159345	51.11	-1
0	159661	51.21	-1
0	159977	51.31	-1
0	160293	51.41	-1
0	160609	51.51	-1
0	160925	51.61	-1
0	161241	51.71	-1
0	161557	51.81	-1
0	161873	51.91	-1
0	162195	52.01	-1
0	162511	52.11	-1
0	162827	52.21	-1
0	163143	52.31	-1
0	163459	52.41	-1
0	163775	52.51	-1
0	164091	52.61	-1
0	164407	52.71	-1
0	164723	52.81	-1
0	165039	52.91	-1
0	165361	53.01	-1
0	165677	53.11	-1
0	165993	53.21	-1
0	166309	53.31	-1
0	166625	53.41	-1
0	166941	53.51	-1
0	167257	53.61	-1
0	167573	53.71	-1
0	167889	53.81	-1
0	168205	53.91	-1
0	168527	54.01	-1
0	168843	54.11	-1
0	169159	54.21	-1
0	169475	54.31	-1
0	169791	54.41	-1
0	170107	54.51	-1
0	170423	54.61	-1
0	170739	54.71	-1
0	171055	54.81	-1
0	171371	54.91	-1
0	171693	55.01	-1
0	172009	55.11	-1
0	172325	55.21	-1
0	172641	55.31	-1
0	172957	55.41	-1
0	173273	55.51	-1
0	173589	55.61	-1
0	173905	55.71	-1
0	174221	55.81	-1
0	174537	55.91	-1
0	174859	56.01	-1
0	175175	56.11	-1
0	175491	56.21	-1
0	175807	56.31	-1
0	176123	56.41	-1
0	176439	56.51	-1
0	176755	56.61	-1
0	177071	56.71	-1
0	177387	56.81	-1
0	177703	56.91	-1
0	178025	57.01	-1
0	178341	57.11	-1
0	178657	57.21	-1
0	178973	57.31	-1
0	179289	57.41	-1
0	179605	57.51	-1
0	179921	57.61	-1
0	180237	57.71	-1
0	180553	57.81	-1
0	180869	57.91	-1
0	181191	58.01	-1
0	181507	58.11	-1
0	181823	58.21	-1
0	182139	58.31	-1
0	182455	58.41	-1
0	182771	58.51	-1
0	183087	58.61	-1
0	183403	58.71	-1
0	183719	58.81	-1
0	184035	58.91	-1
0	184357	59.01	-1
0	184673	59.11	-1
0	184989	59.21	-1
0	185305	59.31	-1
0	185621	59.41	-1
0	185937	59.51	-1
0	186253	59.61	-1
0	186569	59.71	-1
0	186885	59.81	-1
0	187201	59.91	-1
0	187523	60.01	-1
0	187839	60.11	-1
0	188155	60.21	-1
0	188471	60.31	-1
0	188787	60.41	-1
0	189103	60.51	-1
0	189419	60.61	-1
0	189735	60.71	-1
0	190051	60.81	-1
0	190367	60.91	-1
0	190689	61.01	-1
0	191005	61.11	-1
0	191321	61.21	-1
0	191637	61.31	-1
0	191953	61.41	-1
0	192269	61.51	-1
0	192585	61.61	-1
0	192901	61.71	-1
0	193217	61.81	-1
0	193533	61.91	-1
0	193855	62.01	-1
0	194171	62.11	-1
0	194487	62.21	-1
0	194803	62.31	-1
0	195119	62.41	-1
0	195435	62.51	-1
0	195751	62.61	-1
0	196067	62.71	-1
0	196383	62.81	-1
0	196699	62.91	-1
0	197021	63.01	-1
0	197337	63.11	-1
0	197653	63.21	-1
0	197969	63.31	-1
0	198285	63.41	-1
0	198601	63.51	-1
0	198917	63.61	-1
0	199233	63.71	-1
0	199549	63.81	-1
0	199865	63.91	-1
0	200187	64.01	-1
0	200503	64.11	-1
0	200819	64.21	-1
0	201135	64.31	-1
0	201451	64.41	-1
0	201767	64.51	-1
0	202083	64.61	-1
0	202399	64.71	-1
0	202715	64.81	-1
0	203031	64.91	-1
0	203353	65.01	-1
0	203669	65.11	-1
0	203985	65.21	-1
0	204301	65.31	-1
0	204617	65.41	-1
0	204933	65.51	-1
0	205249	65.61	-1
0	205565	65.71	-1
0	205881	65.81	-1
0	206197	65.91	-1
0	206519	66.01	-1
0	206835	66.11	-1
0	207151	66.21	-1
0	207467	66.31	-1
0	207783	66.41	-1
0	208099	66.51	-1
0	208415	66.61	-1
0	208731	66.71	-1
0	209047	66.81	-1
0	209363	66.91	-1
0	209685	67.01	-1
0	210001	67.11	-1
0	210317	67.21	-1
0	210633	67.31	-1
0	210949	67.41	-1
0	211265	67.51	-1
0	211581	67.61	-1
0	211897	67.71	-1
0	212213	67.81	-1
0	212529	67.91	-1
0	212851	68.01	-1
0	213167	68.11	-1
0	213483	68.21	-1
0	213799	68.31	-1
0	214115	68.41	-1
0	214431	68.51	-1
0	214747	68.61	-1
0	215063	68.71	-1
0	215379	68.81	-1
0	215695	68.91	-1
0	216017	69.01	-1
0	216333	69.11	-1
0	216649	69.21	-1
0	216965	69.31	-1
0	217281	69.41	-1
0	217597	69.51	-1
0	217913	69.61	-1
0	218229	69.71	-1
0	218545	69.81	-1
0	218861	69.91	-1
0	219183	70.01	-1
0	219499	70.11	-1
0	219815	70.21	-1
0	220131	70.31	-1
0	220447	70.41	-1
0	220763	70.51	-1
0	221079	70.61	-1
0	221395	70.71	-1
0	221711	70.81	-1
0	222027	70.91	-1
0	222349	71.01	-1
0	222665	71.11	-1
0	222981	71.21	-1
0	223297	71.31	-1
0	223613	71.41	-1
0	223929	71.51	-1
0	224245	71.61	-1
0	224561	71.71	-1
0	224877	71.81	-1
0	225193	71.91	-1
0	225515	72.01	-1
0	225831	72.11	-1
0	226147	72.21	-1
0	226463	72.31	-1
0	226779	72.41	-1
0	227095	72.51	-1
0	227411	72.61	-1
0	227727	72.71	-1
0	228043	72.81	-1
0	228359	72.91	-1
0	228681	73.01	-1
0	228997	73.11	-1
0	229313	73.21	-1
0	229629	73.31	-1
0	229945	73.41	-1
0	230261	73.51	-1
0	230577	73.61	-1
0	230893	73.71	-1
0	231209	73.81	-1
0	231525	73.91	-1
0	231847	74.01	-1
0	232163	74.11	-1
0	232479	74.21	-1
0	232795	74.31	-1
0	233111	74.41	-1
0	233427	74.51	-1
0	233743	74.61	-1
0	234059	74.71	-1
0	234375	74.81	-1
0	234691	74.91	-1
0	235013	75.01	-1
0	235329	75.11	-1
0	235645	75.21	-1
0	235961	75.31	-1
0	236277	75.41	-1
0	236593	75.51	-1
0	236909	75.61	-1
0	237225	75.71	-1
0	237541	75.81	-1
0	237857	75.91	-1
0	238179	76.01	-1
0	238495	76.11	-1
0	238811	76.21	-1
0	239127	76.31	-1
0	239443	76.41	-1
0	239759	76.51	-1
0	240075	76.61	-1
0	240391	76.71	-1
0	240707	76.81	-1
0	241023	76.91	-1
0	241345	77.01	-1
0	241661	77.11	-1
0	241977	77.21	-1
0	242293	77.31	-1
0	242609	77.41	-1
0	242925	77.51	-1
0	243241	77.61	-1
0	243557	77.71	-1
0	243873	77.81	-1
0	244189	77.91	-1
0	244511	78.01	-1
0	244827	78.11	-1
0	245143	78.21	-1
0	245459	78.31	-1
0	245775	78.41	-1
0	246091	78.51	-1
0	246407	78.61	-1
0	246723	78.71	-1
0	247039	78.81	-1
0	247355	78.91	-1
0	247677	79.01	-1
0	247993	79.11	-1
0	248309	79.21	-1
0	248625	79.31	-1
0	248941	79.41	-1
0	249257	79.51	-1
0	249573	79.61	-1
0	249889	79.71	-1
0	250205	79.81	-1
0	250521	79.91	-1
0	250843	80.01	-1
0	251159	80.11	-1
0	251475	80.21	-1
0	251791	80.31	-1
0	252107	80.41	-1
0	252423	80.51	-1
0	252739	80.61	-1
0	253055	80.71	-1
0	253371	80.81	-1
0	253687	80.91	-1
0	254009	81.01	-1
0	254325	81.11	-1
0	254641	81.21	-1
0	254957	81.31	-1
0	255273	81.41	-1
0	255589	81.51	-1
0	255905	81.61	-1
0	256221	81.71	-1
0	256537	81.81	-1
0	256853	81.91	-1
0	257175	82.01	-1
0	257491	82.11	-1
0	257807	82.21	-1
0	258123	82.31	-1
0	258439	82.41	-1
0	258755	82.51	-1
0	259071	82.61	-1
0	259387	82.71	-1
0	259703	82.81	-1
0	260019	82.91	-1
0	260341	83.01	-1
0	260657	83.11	-1
0	260973	83.21	-1
0	261289	83.31	-1
0	261605	83.41	-1
0	261921	83.51	-1
0	262237	83.61	-1
0	262553	83.71	-1
0	262869	83.81	-1
0	263185	83.91	-1
0	263507	84.01	-1
0	263823	84.11	-1
0	264139	84.21	-1
0	264455	84.31	-1
0	264771	84.41	-1
0	265087	84.51	-1
0	265403	84.61	-1
0	265719	84.71	-1
0	266035	84.81	-1
0	266351	84.91	-1
0	266673	85.01	-1
0	266989	85.11	-1
0	267305	85.21	-1
0	267621	85.31	-1
0	267937	85.41	-1
0	268253	85.51	-1
0	268569	85.61	-1
0	268885	85.71	-1
0	269201	85.81	-1
0	269517	85.91	-1
0	269839	86.01	-1
0	270155	86.11	-1
0	270471	86.21	-1
0	270787	86.31	-1
0	271103	86.41	-1
0	271419	86.51	-1
0	271735	86.61	-1
0	272051	86.71	-1
0	272367	86.81	-1
0	272683	86.91	-1
0	273005	87.01	-1
0	273321	87.11	-1
0	273637	87.21	-1
0	273953	87.31	-1
0	274269	87.41	-1
0	274585	87.51	-1
0	274901	87.61	-1
0	275217	87.71	-1
0	275533	87.81	-1
0	275849	87.91	-1
0	276171	88.01	-1
0	276487	88.11	-1
0	276803	88.21	-1
0	277119	88.31	-1
0	277435	88.41	-1
0	277751	88.51	-1
0	278067	88.61	-1
0	278383	88.71	-1
0	278699	88.81	-1
0	279015	88.91	-1
0	279337	89.01	-1
0	279653	89.11	-1
0	279969	89.21	-1
0	280285	89.31	-1
0	280601	89.41	-1
0	280917	89.51	-1
0	281233	89.61	-1
0	281549	89.71	-1
0	281865	89.81	-1
0	282181	89.91	-1
0	282503	90.01	-1
0	282819	90.11	-1
0	283135	90.21	-1
0	283451	90.31	-1
0	283767	90.41	-1
0	284083	90.51	-1
0	284399	90.61	-1
0	284715	90.71	-1
0	285031	90.81	-1
0	285347	90.91	-1
0	285669	91.01	-1
0	285985	91.11	-1
0	286301	91.21	-1
0	286617	91.31	-1
0	286933	91.41	-1
0	287249	91.51	-1
0	287565	91.61	-1
0	287881	91.71	-1
0	288197	91.81	-1
0	288513	91.91	-1
0	288835	92.01	-1
0	289151	92.11	-1
0	289467	92.21	-1
0	289783	92.31	-1
0	290099	92.41	-1
0	290415	92.51	-1
0	290731	92.61	-1
0	291047	92.71	-1
0	291363	92.81	-1
0	291679	92.91	-1
0	292001	93.01	-1
0	292317	93.11	-1
0	292633	93.21	-1
0	292949	93.31	-1
0	293265	93.41	-1
0	293581	93.51	-1
0	293897	93.61	-1
0	294213	93.71	-1
0	294529	93.81	-1
0	294845	93.91	-1
0	295167	94.01	-1
0	295483	94.11	-1
0	295799	94.21	-1
0	296115	94.31	-1
0	296431	94.41	-1
0	296747	94.51	-1
0	297063	94.61	-1
0	297379	94.71	-1
0	297695	94.81	-1
0	298011	94.91	-1
0	298333	95.01	-1
0	298649	95.11	-1
0	298965	95.21	-1
0	299281	95.31	-1
0	299597	95.41	-1
0	299913	95.51	-1
0	300229	95.61	-1
0	300545	95.71	-1
0	300861	95.81	-1
0	301177	95.91	-1
0	301499	96.01	-1
0	301815	96.11	-1
0	302131	96.21	-1
0	302447	96.31	-1
0	302763	96.41	-1
0	303079	96.51	-1
0	303395	96.61	-1
0	303711	96.71	-1
0	304027	96.81	-1
0	304343	96.91	-1
0	304665	97.01	-1
0	304981	97.11	-1
0	305297	97.21	-1
0	305613	97.31	-1
0	305929	97.41	-1
0	306245	97.51	-1
0	306561	97.61	-1
0	306877	97.71	-1
0	307193	97.81	-1
0	307509	97.91	-1
0	307831	98.01	-1
0	308147	98.11	-1
0	308463	98.21	-1
0	308779	98.31	-1
0	309095	98.41	-1
0	309411	98.51	-1
0	309727	98.61	-1
0	310043	98.71	-1
0	310359	98.81	-1
0	310675	98.91	-1
0	310997	99.01	-1
0	311313	99.11	-1
0	311629	99.21	-1
0	311945	99.31	-1
0	312261	99.41	-1
0	312577	99.51	-1
0	312893	99.61	-1
0	313209	99.71	-1
0	313525	99.81	-1
0	313841	99.91	-1
1	113	1.11	0
1	429	1.21	0
1	745	1.31	0
1	1061	1.41	0
1	1377	1.51	0
1	1693	1.61	0
1	2009	1.71	0
1	2325	1.81	0
1	2641	1.91	0
1	2963	2.01	0
1	3279	2.11	0
1	3595	2.21	0
1	3911	2.31	0
1	4227	2.41	0
1	4543	2.51	0
1	4859	2.61	0
1	5175	2.71	0
1	5491	2.81	0
1	5807	2.91	0
1	6129	3.01	0
1	6445	3.11	0
1	6761	3.21	0
1	7077	3.31	0
1	7393	3.41	0
1	7709	3.51	0
1	8025	3.61	0
1	8341	3.71	0
1	8657	3.81	0
1	8973	3.91	0
1	9295	4.01	0
1	9611	4.11	0
1	9927	4.21	0
1	10243	4.31	0
1	10559	4.41	0
1	10875	4.51	0
1	11191	4.61	0
1	11507	4.71	0
1	11823	4.81	0
1	12139	4.91	0
1	12461	5.01	0
1	12777	5.11	0
1	13093	5.21	0
1	13409	5.31	0
1	13725	5.41	0
1	14041	5.51	0
1	14357	5.61	0
1	14673	5.71	0
1	14989	5.81	0
1	15305	5.91	0
1	15627	6.01	0
1	15943	6.11	0
1	16259	6.21	0
1	16575	6.31	0
1	16891	6.41	0
1	17207	6.51	0
1	17523	6.61	0
1	17839	6.71	0
1	18155	6.81	0
1	18471	6.91	0
1	18793	7.01	0
1	19109	7.11	0
1	19425	7.21	0
1	19741	7.31	0
1	20057	7.41	0
1	20373	7.51	0
1	20689	7.61	0
1	21005	7.71	0
1	21321	7.81	0
1	21637	7.91	0
1	21959	8.01	0
1	22275	8.11	0
1	22591	8.21	0
1	22907	8.31	0
1	23223	8.41	0
1	23539	8.51	0
1	23855	8.61	0
1	24171	8.71	0
1	24487	8.81	0
1	24803	8.91	0
1	25125	9.01	0
1	25441	9.11	0
1	25757	9.21	0
1	26073	9.31	0
1	26389	9.41	0
1	26705	9.51	0
1	27021	9.61	0
1	27337	9.71	0
1	27653	9.81	0
1	27969	9.91	0
1	29223	10.01	0
1	29539	10.11	0
1	29855	10.21	0
1	30171	10.31	0
1	30487	10.41	0
1	30803	10.51	0
1	31119	10.61	0
1	31435	10.71	0
1	31751	10.81	0
1	32067	10.91	0
1	32389	11.01	0
1	32705	11.11	0
1	33021	11.21	0
1	33337	11.31	0
1	33653	11.41	0
1	33969	11.51	0
1	34285	11.61	0
1	34601	11.71	0
1	34917	11.81	0
1	35233	11.91	0
1	35555	12.01	0
1	35871	12.11	0
1	36187	12.21	0
1	36503	12.31	0
1	36819	12.41	0
1	37135	12.51	0
1	37451	12.61	0
1	37767	12.71	0
1	38083	12.81	0
1	38399	12.91	0
1	38721	13.01	0
1	39037	13.11	0
1	39353	13.21	0
1	39669	13.31	0
1	39985	13.41	0
1	40301	13.51	0
1	40617	13.61	0
1	40933	13.71	0
1	41249	13.81	0
1	41565	13.91	0
1	41887	14.01	0
1	42203	14.11	0
1	42519	14.21	0
1	42835	14.31	0
1	43151	14.41	0
1	43467	14.51	0
1	43783	14.61	0
1	44099	14.71	0
1	44415	14.81	0
1	44731	14.91	0
1	45053	15.01	0
1	45369	15.11	0
1	45685	15.21	0
1	46001	15.31	0
1	46317	15.41	0
1	46633	15.51	0
1	46949	15.61	0
1	47265	15.71	0
1	47581	15.81	0
1	47897	15.91	0
1	48219	16.01	0
1	48535	16.11	0
1	48851	16.21	0
1	49167	16.31	0
1	49483	16.41	0
1	49799	16.51	0
1	50115	16.61	0
1	50431	16.71	0
1	50747	16.81	0
1	51063	16.91	0
1	51385	17.01	0
1	51701	17.11	0
1	52017	17.21	0
1	52333	17.31	0
1	52649	17.41	0
1	52965	17.51	0
1	53281	17.61	0
1	53597	17.71	0
1	53913	17.81	0
1	54229	17.91	0
1	54551	18.01	0
1	54867	18.11	0
1	55183	18.21	0
1	55499	18.31	0
1	55815	18.41	0
1	56131	18.51	0
1	56447	18.61	0
1	56763	18.71	0
1	57079	18.81	0
1	57395	18.91	0
1	57717	19.01	0
1	58033	19.11	0
1	58349	19.21	0
1	58665	19.31	0
1	58981	19.41	0
1	59297	19.51	0
1	59613	19.61	0
1	59929	19.71	0
1	60245	19.81	0
1	60561	19.91	0
1	60883	20.01	0
1	61199	20.11	0
1	61515	20.21	0
1	61831	20.31	0
1	62147	20.41	0
1	62463	20.51	0
1	62779	20.61	0
1	63095	20.71	0
1	63411	20.81	0
1	63727	20.91	0
1	64049	21.01	0
1	64365	21.11	0
1	64681	21.21	0
1	64997	21.31	0
1	65313	21.41	0
1	65629	21.51	0
1	65945	21.61	0
1	66261	21.71	0
1	66577	21.81	0
1	66893	21.91	0
1	67215	22.01	0
1	67531	22.11	0
1	67847	22.21	0
1	68163	22.31	0
1	68479	22.41	0
1	68795	22.51	0
1	69111	22.61	0
1	69427	22.71	0
1	69743	22.81	0
1	70059	22.91	0
1	70381	23.01	0
1	70697	23.11	0
1	71013	23.21	0
1	71329	23.31	0
1	71645	23.41	0
1	71961	23.51	0
1	72277	23.61	0
1	72593	23.71	0
1	72909	23.81	0
1	73225	23.91	0
1	73547	24.01	0
1	73863	24.11	0
1	74179	24.21	0
1	74495	24.31	0
1	74811	24.41	0
1	75127	24.51	0
1	75443	24.61	0
1	75759	24.71	0
1	76075	24.81	0
1	76391	24.91	0
1	76713	25.01	0
1	77029	25.11	0
1	77345	25.21	0
1	77661	25.31	0
1	77977	25.41	0
1	78293	25.51	0
1	78609	25.61	0
1	78925	25.71	0
1	79241	25.81	0
1	79557	25.91	0
1	79879	26.01	0
1	80195	26.11	0
1	80511	26.21	0
1	80827	26.31	0
1	81143	26.41	0
1	81459	26.51	0
1	81775	26.61	0
1	82091	26.71	0
1	82407	26.81	0
1	82723	26.91	0
1	83045	27.01	0
1	83361	27.11	0
1	83677	27.21	0
1	83993	27.31	0
1	84309	27.41	0
1	84625	27.51	0
1	84941	27.61	0
1	85257	27.71	0
1	85573	27.81	0
1	85889	27.91	0
1	86211	28.01	0
1	86527	28.11	0
1	86843	28.21	0
1	87159	28.31	0
1	87475	28.41	0
1	87791	28.51	0
1	88107	28.61	0
1	88423	28.71	0
1	88739	28.81	0
1	89055	28.91	0
1	89377	29.01	0
1	89693	29.11	0
1	90009	29.21	0
1	90325	29.31	0
1	90641	29.41	0
1	90957	29.51	0
1	91273	29.61	0
1	91589	29.71	0
1	91905	29.81	0
1	92221	29.91	0
1	92543	30.01	0
1	92859	30.11	0
1	93175	30.21	0
1	93491	30.31	0
1	93807	30.41	0
1	94123	30.51	0
1	94439	30.61	0
1	94755	30.71	0
1	95071	30.81	0
1	95387	30.91	0
1	95709	31.01	0
1	96025	31.11	0
1	96341	31.21	0
1	96657	31.31	0
1	96973	31.41	0
1	97289	31.51	0
1	97605	31.61	0
1	97921	31.71	0
1	98237	31.81	0
1	98553	31.91	0
1	98875	32.01	0
1	99191	32.11	0
1	99507	32.21	0
1	99823	32.31	0
1	100139	32.41	0
1	100455	32.51	0
1	100771	32.61	0
1	101087	32.71	0
1	101403	32.81	0
1	101719	32.91	0
1	102041	33.01	0
1	102357	33.11	0
1	102673	33.21	0
1	102989	33.31	0
1	103305	33.41	0
1	103621	33.51	0
1	103937	33.61	0
1	104253	33.71	0
1	104569	33.81	0
1	104885	33.91	0
1	105207	34.01	0
1	105523	34.11	0
1	105839	34.21	0
1	106155	34.31	0
1	106471	34.41	0
1	106787	34.51	0
1	107103	34.61	0
1	107419	34.71	0
1	107735	34.81	0
1	108051	34.91	0
1	108373	35.01	0
1	108689	35.11	0
1	109005	35.21	0
1	109321	35.31	0
1	109637	35.41	0
1	109953	35.51	0
1	110269	35.61	0
1	110585	35.71	0
1	110901	35.81	0
1	111217	35.91	0
1	111539	36.01	0
1	111855	36.11	0
1	112171	36.21	0
1	112487	36.31	0
1	112803	36.41	0
1	113119	36.51	0
1	113435	36.61	0
1	113751	36.71	0
1	114067	36.81	0
1	114383	36.91	0
1	114705	37.01	0
1	115021	37.11	0
1	115337	37.21	0
1	115653	37.31	0
1	115969	37.41	0
1	116285	37.51	0
1	116601	37.61	0
1	116917	37.71	0
1	117233	37.81	0
1	117549	37.91	0
1	117871	38.01	0
1	118187	38.11	0
1	118503	38.21	0
1	118819	38.31	0
1	119135	38.41	0
1	119451	38.51	0
1	119767	38.61	0
1	120083	38.71	0
1	120399	38.81	0
1	120715	38.91	0
1	121037	39.01	0
1	121353	39.11	0
1	121669	39.21	0
1	121985	39.31	0
1	122301	39.41	0
1	122617	39.51	0
1	122933	39.61	0
1	123249	39.71	0
1	123565	39.81	0
1	123881	39.91	0
1	124203	40.01	0
1	124519	40.11	0
1	124835	40.21	0
1	125151	40.31	0
1	125467	40.41	0
1	125783	40.51	0
1	126099	40.61	0
1	126415	40.71	0
1	126731	40.81	0
1	127047	40.91	0
1	127369	41.01	0
1	127685	41.11	0
1	128001	41.21	0
1	128317	41.31	0
1	128633	41.41	0
1	128949	41.51	0
1	129265	41.61	0
1	129581	41.71	0
1	129897	41.81	0
1	130213	41.91	0
1	130535	42.01	0
1	130851	42.11	0
1	131167	42.21	0
1	131483	42.31	0
1	131799	42.41	0
1	132115	42.51	0
1	132431	42.61	0
1	132747	42.71	0
1	133063	42.81	0
1	133379	42.91	0
1	133701	43.01	0
1	134017	43.11	0
1	134333	43.21	0
1	134649	43.31	0
1	134965	43.41	0
1	135281	43.51	0
1	135597	43.61	0
1	135913	43.71	0
1	136229	43.81	0
1	136545	43.91	0
1	136867	44.01	0
1	137183	44.11	0
1	137499	44.21	0
1	137815	44.31	0
1	138131	44.41	0
1	138447	44.51	0
1	138763	44.61	0
1	139079	44.71	0
1	139395	44.81	0
1	139711	44.91	0
1	140033	45.01	0
1	140349	45.11	0
1	140665	45.21	0
1	140981	45.31	0
1	141297	45.41	0
1	141613	45.51	0
1	141929	45.61	0
1	142245	45.71	0
1	142561	45.81	0
1	142877	45.91	0
1	143199	46.01	0
1	143515	46.11	0
1	143831	46.21	0
1	144147	46.31	0
1	144463	46.41	0
1	144779	46.51	0
1	145095	46.61	0
1	145411	46.71	0
1	145727	46.81	0
1	146043	46.91	0
1	146365	47.01	0
1	146681	47.11	0
1	146997	47.21	0
1	147313	47.31	0
1	147629	47.41	0
1	147945	47.51	0
1	148261	47.61	0
1	148577	47.71	0
1	148893	47.81	0
1	149209	47.91	0
1	149531	48.01	0
1	149847	48.11	0
1	150163	48.21	0
1	150479	48.31	0
1	150795	48.41	0
1	151111	48.51	0
1	151427	48.61	0
1	151743	48.71	0
1	152059	48.81	0
1	152375	48.91	0
1	152697	49.01	0
1	153013	49.11	0
1	153329	49.21	0
1	153645	49.31	0
1	153961	49.41	0
1	154277	49.51	0
1	154593	49.61	0
1	154909	49.71	0
1	155225	49.81	0
1	155541	49.91	0
1	155863	50.01	0
1	156179	50.11	0
1	156495	50.21	0
1	156811	50.31	0
1	157127	50.41	0
1	157443	50.51	0
1	157759	50.61	0
1	158075	50.71	0
1	158391	50.81	0
1	158707	50.91	0
1	159029	51.01	0
1	159345	51.11	0
1	159661	51.21	0
1	159977	51.31	0
1	160293	51.41	0
1	160609	51.51	0
1	160925	51.61	0
1	161241	51.71	0
1	161557	51.81	0
1	161873	51.91	0
1	162195	52.01	0
1	162511	52.11	0
1	162827	52.21	0
1	163143	52.31	0
1	163459	52.41	0
1	163775	52.51	0
1	164091	52.61	0
1	164407	52.71	0
1	164723	52.81	0
1	165039	52.91	0
1	165361	53.01	0
1	165677	53.11	0
1	165993	53.21	0
1	166309	53.31	0
1	166625	53.41	0
1	166941	53.51	0
1	167257	53.61	0
1	167573	53.71	0
1	167889	53.81	0
1	168205	53.91	0
1	168527	54.01	0
1	168843	54.11	0
1	169159	54.21	0
1	169475	54.31	0
1	169791	54.41	0
1	170107	54.51	0
1	170423	54.61	0
1	170739	54.71	0
1	171055	54.81	0
1	171371	54.91	0
1	171693	55.01	0
1	172009	55.11	0
1	172325	55.21	0
1	172641	55.31	0
1	172957	55.41	0
1	173273	55.51	0
1	173589	55.61	0
1	173905	55.71	0
1	174221	55.81	0
1	174537	55.91	0
1	174859	56.01	0
1	175175	56.11	0
1	175491	56.21	0
1	175807	56.31	0
1	176123	56.41	0
1	176439	56.51	0
1	176755	56.61	0
1	177071	56.71	0
1	177387	56.81	0
1	177703	56.91	0
1	178025	57.01	0
1	178341	57.11	0
1	178657	57.21	0
1	178973	57.31	0
1	179289	57.41	0
1	179605	57.51	0
1	179921	57.61	0
1	180237	57.71	0
1	180553	57.81	0
1	180869	57.91	0
1	181191	58.01	0
1	181507	58.11	0
1	181823	58.21	0
1	182139	58.31	0
1	182455	58.41	0
1	182771	58.51	0
1	183087	58.61	0
1	183403	58.71	0
1	183719	58.81	0
1	184035	58.91	0
1	184357	59.01	0
1	184673	59.11	0
1	184989	59.21	0
1	185305	59.31	0
1	185621	59.41	0
1	185937	59.51	0
1	186253	59.61	0
1	186569	59.71	0
1	186885	59.81	0
1	187201	59.91	0
1	187523	60.01	0
1	187839	60.11	0
1	188155	60.21	0
1	188471	60.31	0
1	188787	60.41	0
1	189103	60.51	0
1	189419	60.61	0
1	189735	60.71	0
1	190051	60.81	0
1	190367	60.91	0
1	190689	61.01	0
1	191005	61.11	0
1	191321	61.21	0
1	191637	61.31	0
1	191953	61.41	0
1	192269	61.51	0
1	192585	61.61	0
1	192901	61.71	0
1	193217	61.81	0
1	193533	61.91	0
1	193855	62.01	0
1	194171	62.11	0
1	194487	62.21	0
1	194803	62.31	0
1	195119	62.41	0
1	195435	62.51	0
1	195751	62.61	0
1	196067	62.71	0
1	196383	62.81	0
1	196699	62.91	0
1	197021	63.01	0
1	197337	63.11	0
1	197653	63.21	0
1	197969	63.31	0
1	198285	63.41	0
1	198601	63.51	0
1	198917	63.61	0
1	199233	63.71	0
1	199549	63.81	0
1	199865	63.91	0
1	200187	64.01	0
1	200503	64.11	0
1	200819	64.21	0
1	201135	64.31	0
1	201451	64.41	0
1	201767	64.51	0
1	202083	64.61	0
1	202399	64.71	0
1	202715	64.81	0
1	203031	64.91	0
1	203353	65.01	0
1	203669	65.11	0
1	203985	65.21	0
1	204301	65.31	0
1	204617	65.41	0
1	204933	65.51	0
1	205249	65.61	0
1	205565	65.71	0
1	205881	65.81	0
1	206197	65.91	0
1	206519	66.01	0
1	206835	66.11	0
1	207151	66.21	0
1	207467	66.31	0
1	207783	66.41	0
1	208099	66.51	0
1	208415	66.61	0
1	208731	66.71	0
1	209047	66.81	0
1	209363	66.91	0
1	209685	67.01	0
1	210001	67.11	0
1	210317	67.21	0
1	210633	67.31	0
1	210949	67.41	0
1	211265	67.51	0
1	211581	67.61	0
1	211897	67.71	0
1	212213	67.81	0
1	212529	67.91	0
1	212851	68.01	0
1	213167	68.11	0
1	213483	68.21	0
1	213799	68.31	0
1	214115	68.41	0
1	214431	68.51	0
1	214747	68.61	0
1	215063	68.71	0
1	215379	68.81	0
1	215695	68.91	0
1	216017	69.01	0
1	216333	69.11	0
1	216649	69.21	0
1	216965	69.31	0
1	217281	69.41	0
1	217597	69.51	0
1	217913	69.61	0
1	218229	69.71	0
1	218545	69.81	0
1	218861	69.91	0
1	219183	70.01	0
1	219499	70.11	0
1	219815	70.21	0
1	220131	70.31	0
1	220447	70.41	0
1	220763	70.51	0
1	221079	70.61	0
1	221395	70.71	0
1	221711	70.81	0
1	222027	70.91	0
1	222349	71.01	0
1	222665	71.11	0
1	222981	71.21	0
1	223297	71.31	0
1	223613	71.41	0
1	223929	71.51	0
1	224245	71.61	0
1	224561	71.71	0
1	224877	71.81	0
1	225193	71.91	0
1	225515	72.01	0
1	225831	72.11	0
1	226147	72.21	0
1	226463	72.31	0
1	226779	72.41	0
1	227095	72.51	0
1	227411	72.61	0
1	227727	72.71	0
1	228043	72.81	0
1	228359	72.91	0
1	228681	73.01	0
1	228997	73.11	0
1	229313	73.21	0
1	229629	73.31	0
1	229945	73.41	0
1	230261	73.51	0
1	230577	73.61	0
1	230893	73.71	0
1	231209	73.81	0
1	231525	73.91	0
1	231847	74.01	0
1	232163	74.11	0
1	232479	74.21	0
1	232795	74.31	0
1	233111	74.41	0
1	233427	74.51	0
1	233743	74.61	0
1	234059	74.71	0
1	234375	74.81	0
1	234691	74.91	0
1	235013	75.01	0
1	235329	75.11	0
1	235645	75.21	0
1	235961	75.31	0
1	236277	75.41	0
1	236593	75.51	0
1	236909	75.61	0
1	237225	75.71	0
1	237541	75.81	0
1	237857	75.91	0
1	238179	76.01	0
1	238495	76.11	0
1	238811	76.21	0
1	239127	76.31	0
1	239443	76.41	0
1	239759	76.51	0
1	240075	76.61	0
1	240391	76.71	0
1	240707	76.81	0
1	241023	76.91	0
1	241345	77.01	0
1	241661	77.11	0
1	241977	77.21	0
1	242293	77.31	0
1	242609	77.41	0
1	242925	77.51	0
1	243241	77.61	0
1	243557	77.71	0
1	243873	77.81	0
1	244189	77.91	0
1	244511	78.01	0
1	244827	78.11	0
1	245143	78.21	0
1	245459	78.31	0
1	245775	78.41	0
1	246091	78.51	0
1	246407	78.61	0
1	246723	78.71	0
1	247039	78.81	0
1	247355	78.91	0
1	247677	79.01	0
1	247993	79.11	0
1	248309	79.21	0
1	248625	79.31	0
1	248941	79.41	0
1	249257	79.51	0
1	249573	79.61	0
1	249889	79.71	0
1	250205	79.81	0
1	250521	79.91	0
1	250843	80.01	0
1	251159	80.11	0
1	251475	80.21	0
1	251791	80.31	0
1	252107	80.41	0
1	252423	80.51	0
1	252739	80.61	0
1	253055	80.71	0
1	253371	80.81	0
1	253687	80.91	0
1	254009	81.01	0
1	254325	81.11	0
1	254641	81.21	0
1	254957	81.31	0
1	255273	81.41	0
1	255589	81.51	0
1	255905	81.61	0
1	256221	81.71	0
1	256537	81.81	0
1	256853	81.91	0
1	257175	82.01	0
1	257491	82.11	0
1	257807	82.21	0
1	258123	82.31	0
1	258439	82.41	0
1	258755	82.51	0
1	259071	82.61	0
1	259387	82.71	0
1	259703	82.81	0
1	260019	82.91	0
1	260341	83.01	0
1	260657	83.11	0
1	260973	83.21	0
1	261289	83.31	0
1	261605	83.41	0
1	261921	83.51	0
1	262237	83.61	0
1	262553	83.71	0
1	262869	83.81	0
1	263185	83.91	0
1	263507	84.01	0
1	263823	84.11	0
1	264139	84.21	0
1	264455	84.31	0
1	264771	84.41	0
1	265087	84.51	0
1	265403	84.61	0
1	265719	84.71	0
1	266035	84.81	0
1	266351	84.91	0
1	266673	85.01	0
1	266989	85.11	0
1	267305	85.21	0
1	267621	85.31	0
1	267937	85.41	0
1	268253	85.51	0
1	268569	85.61	0
1	268885	85.71	0
1	269201	85.81	0
1	269517	85.91	0
1	269839	86.01	0
1	270155	86.11	0
1	270471	86.21	0
1	270787	86.31	0
1	271103	86.41	0
1	271419	86.51	0
1	271735	86.61	0
1	272051	86.71	0
1	272367	86.81	0
1	272683	86.91	0
1	273005	87.01	0
1	273321	87.11	0
1	273637	87.21	0
1	273953	87.31	0
1	274269	87.41	0
1	274585	87.51	0
1	274901	87.61	0
1	275217	87.71	0
1	275533	87.81	0
1	275849	87.91	0
1	276171	88.01	0
1	276487	88.11	0
1	276803	88.21	0
1	277119	88.31	0
1	277435	88.41	0
1	277751	88.51	0
1	278067	88.61	0
1	278383	88.71	0
1	278699	88.81	0
1	279015	88.91	0
1	279337	89.01	0
1	279653	89.11	0
1	279969	89.21	0
1	280285	89.31	0
1	280601	89.41	0
1	280917	89.51	0
1	281233	89.61	0
1	281549	89.71	0
1	281865	89.81	0
1	282181	89.91	0
1	282503	90.01	0
1	282819	90.11	0
1	283135	90.21	0
1	283451	90.31	0
1	283767	90.41	0
1	284083	90.51	0
1	284399	90.61	0
1	284715	90.71	0
1	285031	90.81	0
1	285347	90.91	0
1	285669	91.01	0
1	285985	91.11	0
1	286301	91.21	0
1	286617	91.31	0
1	286933	91.41	0
1	287249	91.51	0
1	287565	91.61	0
1	287881	91.71	0
1	288197	91.81	0
1	288513	91.91	0
1	288835	92.01	0
1	289151	92.11	0
1	289467	92.21	0
1	289783	92.31	0
1	290099	92.41	0
1	290415	92.51	0
1	290731	92.61	0
1	291047	92.71	0
1	291363	92.81	0
1	291679	92.91	0
1	292001	93.01	0
1	292317	93.11	0
1	292633	93.21	0
1	292949	93.31	0
1	293265	93.41	0
1	293581	93.51	0
1	293897	93.61	0
1	294213	93.71	0
1	294529	93.81	0
1	294845	93.91	0
1	295167	94.01	0
1	295483	94.11	0
1	295799	94.21	0
1	296115	94.31	0
1	296431	94.41	0
1	296747	94.51	0
1	297063	94.61	0
1	297379	94.71	0
1	297695	94.81	0
1	298011	94.91	0
1	298333	95.01	0
1	298649	95.11	0
1	298965	95.21	0
1	299281	95.31	0
1	299597	95.41	0
1	299913	95.51	0
1	300229	95.61	0
1	300545	95.71	0
1	300861	95.81	0
1	301177	95.91	0
1	301499	96.01	0
1	301815	96.11	0
1	302131	96.21	0
1	302447	96.31	0
1	302763	96.41	0
1	303079	96.51	0
1	303395	96.61	0
1	303711	96.71	0
1	304027	96.81	0
1	304343	96.91	0
1	304665	97.01	0
1	304981	97.11	0
1	305297	97.21	0
1	305613	97.31	0
1	305929	97.41	0
1	306245	97.51	0
1	306561	97.61	0
1	306877	97.71	0
1	307193	97.81	0
1	307509	97.91	0
1	307831	98.01	0
1	308147	98.11	0
1	308463	98.21	0
1	308779	98.31	0
1	309095	98.41	0
1	309411	98.51	0
1	309727	98.61	0
1	310043	98.71	0
1	310359	98.81	0
1	310675	98.91	0
1	310997	99.01	0
1	311313	99.11	0
1	311629	99.21	0
1	311945	99.31	0
1	312261	99.41	0
1	312577	99.51	0
1	312893	99.61	0
1	313209	99.71	0
1	313525	99.81	0
1	313841	99.91	0
2	113	1.11	0
2	429	1.21	0
2	745	1.31	0
2	1061	1.41	0
2	1377	1.51	0
2	1693	1.61	0
2	2009	1.71	0
2	2325	1.81	0
2	2641	1.91	0
2	2963	2.01	0
2	3279	2.11	0
2	3595	2.21	0
2	3911	2.31	0
2	4227	2.41	0
2	4543	2.51	0
2	4859	2.61	0
2	5175	2.71	0
2	5491	2.81	0
2	5807	2.91	0
2	6129	3.01	0
2	6445	3.11	0
2	6761	3.21	0
2	7077	3.31	0
2	7393	3.41	0
2	7709	3.51	0
2	8025	3.61	0
2	8341	3.71	0
2	8657	3.81	0
2	8973	3.91	0
2	9295	4.01	0
2	9611	4.11	0
2	9927	4.21	0
2	10243	4.31	0
2	10559	4.41	0
2	10875	4.51	0
2	11191	4.61	0
2	11507	4.71	0
2	11823	4.81	0
2	12139	4.91	0
2	12461	5.01	0
2	12777	5.11	0
2	13093	5.21	0
2	13409	5.31	0
2	13725	5.41	0
2	14041	5.51	0
2	14357	5.61	0
2	14673	5.71	0
2	14989	5.81	0
2	15305	5.91	0
2	15627	6.01	0
2	15943	6.11	0
2	16259	6.21	0
2	16575	6.31	0
2	16891	6.41	0
2	17207	6.51	0
2	17523	6.61	0
2	17839	6.71	0
2	18155	6.81	0
2	18471	6.91	0
2	18793	7.01	0
2	19109	7.11	0
2	19425	7.21	0
2	19741	7.31	0
2	20057	7.41	0
2	20373	7.51	0
2	20689	7.61	0
2	21005	7.71	0
2	21321	7.81	0
2	21637	7.91	0
2	21959	8.01	0
2	22275	8.11	0
2	22591	8.21	0
2	22907	8.31	0
2	23223	8.41	0
2	23539	8.51	0
2	23855	8.61	0
2	24171	8.71	0
2	24487	8.81	0
2	24803	8.91	0
2	25125	9.01	0
2	25441	9.11	0
2	25757	9.21	0
2	26073	9.31	0
2	26389	9.41	0
2	26705	9.51	0
2	27021	9.61	0
2	27337	9.71	0
2	27653	9.81	0
2	27969	9.91	0
2	29223	10.01	0
2	29539	10.11	0
2	29855	10.21	0
2	30171	10.31	0
2	30487	10.41	0
2	30803	10.51	0
2	31119	10.61	0
2	31435	10.71	0
2	31751	10.81	0
2	32067	10.91	0
2	32389	11.01	0
2	32705	11.11	0
2	33021	11.21	0
2	33337	11.31	0
2	33653	11.41	0
2	33969	11.51	0
2	34285	11.61	0
2	34601	11.71	0
2	34917	11.81	0
2	35233	11.91	0
2	35555	12.01	0
2	35871	12.11	0
2	36187	12.21	0
2	36503	12.31	0
2	36819	12.41	0
2	37135	12.51	0
2	37451	12.61	0
2	37767	12.71	0
2	38083	12.81	0
2	38399	12.91	0
2	38721	13.01	0
2	39037	13.11	0
2	39353	13.21	0
2	39669	13.31	0
2	39985	13.41	0
2	40301	13.51	0
2	40617	13.61	0
2	40933	13.71	0
2	41249	13.81	0
2	41565	13.91	0
2	41887	14.01	0
2	42203	14.11	0
2	42519	14.21	0
2	42835	14.31	0
2	43151	14.41	0
2	43467	14.51	0
2	43783	14.61	0
2	44099	14.71	0
2	44415	14.81	0
2	44731	14.91	0
2	45053	15.01	0
2	45369	15.11	0
2	45685	15.21	0
2	46001	15.31	0
2	46317	15.41	0
2	46633	15.51	0
2	46949	15.61	0
2	47265	15.71	0
2	47581	15.81	0
2	47897	15.91	0
2	48219	16.01	0
2	48535	16.11	0
2	48851	16.21	0
2	49167	16.31	0
2	49483	16.41	0
2	49799	16.51	0
2	50115	16.61	0
2	50431	16.71	0
2	50747	16.81	0
2	51063	16.91	0
2	51385	17.01	0
2	51701	17.11	0
2	52017	17.21	0
2	52333	17.31	0
2	52649	17.41	0
2	52965	17.51	0
2	53281	17.61	0
2	53597	17.71	0
2	53913	17.81	0
2	54229	17.91	0
2	54551	18.01	0
2	54867	18.11	0
2	55183	18.21	0
2	55499	18.31	0
2	55815	18.41	0
2	56131	18.51	0
2	56447	18.61	0
2	56763	18.71	0
2	57079	18.81	0
2	57395	18.91	0
2	57717	19.01	0
2	58033	19.11	0
2	58349	19.21	0
2	58665	19.31	0
2	58981	19.41	0
2	59297	19.51	0
2	59613	19.61	0
2	59929	19.71	0
2	60245	19.81	0
2	60561	19.91	0
2	60883	20.01	0
2	61199	20.11	0
2	61515	20.21	0
2	61831	20.31	0
2	62147	20.41	0
2	62463	20.51	0
2	62779	20.61	0
2	63095	20.71	0
2	63411	20.81	0
2	63727	20.91	0
2	64049	21.01	0
2	64365	21.11	0
2	64681	21.21	0
2	64997	21.31	0
2	65313	21.41	0
2	65629	21.51	0
2	65945	21.61	0
2	66261	21.71	0
2	66577	21.81	0
2	66893	21.91	0
2	67215	22.01	0
2	67531	22.11	0
2	67847	22.21	0
2	68163	22.31	0
2	68479	22.41	0
2	68795	22.51	0
2	69111	22.61	0
2	69427	22.71	0
2	69743	22.81	0
2	70059	22.91	0
2	70381	23.01	0
2	70697	23.11	0
2	71013	23.21	0
2	71329	23.31	0
2	71645	23.41	0
2	71961	23.51	0
2	72277	23.61	0
2	72593	23.71	0
2	72909	23.81	0
2	73225	23.91	0
2	73547	24.01	0
2	73863	24.11	0
2	74179	24.21	0
2	74495	24.31	0
2	74811	24.41	0
2	75127	24.51	0
2	75443	24.61	0
2	75759	24.71	0
2	76075	24.81	0
2	76391	24.91	0
2	76713	25.01	0
2	77029	25.11	0
2	77345	25.21	0
2	77661	25.31	0
2	77977	25.41	0
2	78293	25.51	0
2	78609	25.61	0
2	78925	25.71	0
2	79241	25.81	0
2	79557	25.91	0
2	79879	26.01	0
2	80195	26.11	0
2	80511	26.21	0
2	80827	26.31	0
2	81143	26.41	0
2	81459	26.51	0
2	81775	26.61	0
2	82091	26.71	0
2	82407	26.81	0
2	82723	26.91	0
2	83045	27.01	0
2	83361	27.11	0
2	83677	27.21	0
2	83993	27.31	0
2	84309	27.41	0
2	84625	27.51	0
2	84941	27.61	0
2	85257	27.71	0
2	85573	27.81	0
2	85889	27.91	0
2	86211	28.01	0
2	86527	28.11	0
2	86843	28.21	0
2	87159	28.31	0
2	87475	28.41	0
2	87791	28.51	0
2	88107	28.61	0
2	88423	28.71	0
2	88739	28.81	0
2	89055	28.91	0
2	89377	29.01	0
2	89693	29.11	0
2	90009	29.21	0
2	90325	29.31	0
2	90641	29.41	0
2	90957	29.51	0
2	91273	29.61	0
2	91589	29.71	0
2	91905	29.81	0
2	92221	29.91	0
2	92543	30.01	0
2	92859	30.11	0
2	93175	30.21	0
2	93491	30.31	0
2	93807	30.41	0
2	94123	30.51	0
2	94439	30.61	0
2	94755	30.71	0
2	95071	30.81	0
2	95387	30.91	0
2	95709	31.01	0
2	96025	31.11	0
2	96341	31.21	0
2	96657	31.31	0
2	96973	31.41	0
2	97289	31.51	0
2	97605	31.61	0
2	97921	31.71	0
2	98237	31.81	0
2	98553	31.91	0
2	98875	32.01	0
2	99191	32.11	0
2	99507	32.21	0
2	99823	32.31	0
2	100139	32.41	0
2	100455	32.51	0
2	100771	32.61	0
2	101087	32.71	0
2	101403	32.81	0
2	101719	32.91	0
2	102041	33.01	0
2	102357	33.11	0
2	102673	33.21	0
2	102989	33.31	0
2	103305	33.41	0
2	103621	33.51	0
2	103937	33.61	0
2	104253	33.71	0
2	104569	33.81	0
2	104885	33.91	0
2	105207	34.01	0
2	105523	34.11	0
2	105839	34.21	0
2	106155	34.31	0
2	106471	34.41	0
2	106787	34.51	0
2	107103	34.61	0
2	107419	34.71	0
2	107735	34.81	0
2	108051	34.91	0
2	108373	35.01	0
2	108689	35.11	0
2	109005	35.21	0
2	109321	35.31	0
2	109637	35.41	0
2	109953	35.51	0
2	110269	35.61	0
2	110585	35.71	0
2	110901	35.81	0
2	111217	35.91	0
2	111539	36.01	0
2	111855	36.11	0
2	112171	36.21	0
2	112487	36.31	0
2	112803	36.41	0
2	113119	36.51	0
2	113435	36.61	0
2	113751	36.71	0
2	114067	36.81	0
2	114383	36.91	0
2	114705	37.01	0
2	115021	37.11	0
2	115337	37.21	0
2	115653	37.31	0
2	115969	37.41	0
2	116285	37.51	0
2	116601	37.61	0
2	116917	37.71	0
2	117233	37.81	0
2	117549	37.91	0
2	117871	38.01	0
2	118187	38.11	0
2	118503	38.21	0
2	118819	38.31	0
2	119135	38.41	0
2	119451	38.51	0
2	119767	38.61	0
2	120083	38.71	0
2	120399	38.81	0
2	120715	38.91	0
2	121037	39.01	0
2	121353	39.11	0
2	121669	39.21	0
2	121985	39.31	0
2	122301	39.41	0
2	122617	39.51	0
2	122933	39.61	0
2	123249	39.71	0
2	123565	39.81	0
2	123881	39.91	0
2	124203	40.01	0
2	124519	40.11	0
2	124835	40.21	0
2	125151	40.31	0
2	125467	40.41	0
2	125783	40.51	0
2	126099	40.61	0
2	126415	40.71	0
2	126731	40.81	0
2	127047	40.91	0
2	127369	41.01	0
2	127685	41.11	0
2	128001	41.21	0
2	128317	41.31	0
2	128633	41.41	0
2	128949	41.51	0
2	129265	41.61	0
2	129581	41.71	0
2	129897	41.81	0
2	130213	41.91	0
2	130535	42.01	0
2	130851	42.11	0
2	131167	42.21	0
2	131483	42.31	0
2	131799	42.41	0
2	132115	42.51	0
2	132431	42.61	0
2	132747	42.71	0
2	133063	42.81	0
2	133379	42.91	0
2	133701	43.01	0
2	134017	43.11	0
2	134333	43.21	0
2	134649	43.31	0
2	134965	43.41	0
2	135281	43.51	0
2	135597	43.61	0
2	135913	43.71	0
2	136229	43.81	0
2	136545	43.91	0
2	136867	44.01	0
2	137183	44.11	0
2	137499	44.21	0
2	137815	44.31	0
2	138131	44.41	0
2	138447	44.51	0
2	138763	44.61	0
2	139079	44.71	0
2	139395	44.81	0
2	139711	44.91	0
2	140033	45.01	0
2	140349	45.11	0
2	140665	45.21	0
2	140981	45.31	0
2	141297	45.41	0
2	141613	45.51	0
2	141929	45.61	0
2	142245	45.71	0
2	142561	45.81	0
2	142877	45.91	0
2	143199	46.01	0
2	143515	46.11	0
2	143831	46.21	0
2	144147	46.31	0
2	144463	46.41	0
2	144779	46.51	0
2	145095	46.61	0
2	145411	46.71	0
2	145727	46.81	0
2	146043	46.91	0
2	146365	47.01	0
2	146681	47.11	0
2	146997	47.21	0
2	147313	47.31	0
2	147629	47.41	0
2	147945	47.51	0
2	148261	47.61	0
2	148577	47.71	0
2	148893	47.81	0
2	149209	47.91	0
2	149531	48.01	0
2	149847	48.11	0
2	150163	48.21	0
2	150479	48.31	0
2	150795	48.41	0
2	151111	48.51	0
2	151427	48.61	0
2	151743	48.71	0
2	152059	48.81	0
2	152375	48.91	0
2	152697	49.01	0
2	153013	49.11	0
2	153329	49.21	0
2	153645	49.31	0
2	153961	49.41	0
2	154277	49.51	0
2	154593	49.61	0
2	154909	49.71	0
2	155225	49.81	0
2	155541	49.91	0
2	155863	50.01	0
2	156179	50.11	0
2	156495	50.21	0
2	156811	50.31	0
2	157127	50.41	0
2	157443	50.51	0
2	157759	50.61	0
2	158075	50.71	0
2	158391	50.81	0
2	158707	50.91	0
2	159029	51.01	0
2	159345	51.11	0
2	159661	51.21	0
2	159977	51.31	0
2	160293	51.41	0
2	160609	51.51	0
2	160925	51.61	0
2	161241	51.71	0
2	161557	51.81	0
2	161873	51.91	0
2	162195	52.01	0
2	162511	52.11	0
2	162827	52.21	0
2	163143	52.31	0
2	163459	52.41	0
2	163775	52.51	0
2	164091	52.61	0
2	164407	52.71	0
2	164723	52.81	0
2	165039	52.91	0
2	165361	53.01	0
2	165677	53.11	0
2	165993	53.21	0
2	166309	53.31	0
2	166625	53.41	0
2	166941	53.51	0
2	167257	53.61	0
2	167573	53.71	0
2	167889	53.81	0
2	168205	53.91	0
2	168527	54.01	0
2	168843	54.11	0
2	169159	54.21	0
2	169475	54.31	0
2	169791	54.41	0
2	170107	54.51	0
2	170423	54.61	0
2	170739	54.71	0
2	171055	54.81	0
2	171371	54.91	0
2	171693	55.01	0
2	172009	55.11	0
2	172325	55.21	0
2	172641	55.31	0
2	172957	55.41	0
2	173273	55.51	0
2	173589	55.61	0
2	173905	55.71	0
2	174221	55.81	0
2	174537	55.91	0
2	174859	56.01	0
2	175175	56.11	0
2	175491	56.21	0
2	175807	56.31	0
2	176123	56.41	0
2	176439	56.51	0
2	176755	56.61	0
2	177071	56.71	0
2	177387	56.81	0
2	177703	56.91	0
2	178025	57.01	0
2	178341	57.11	0
2	178657	57.21	0
2	178973	57.31	0
2	179289	57.41	0
2	179605	57.51	0
2	179921	57.61	0
2	180237	57.71	0
2	180553	57.81	0
2	180869	57.91	0
2	181191	58.01	0
2	181507	58.11	0
2	181823	58.21	0
2	182139	58.31	0
2	182455	58.41	0
2	182771	58.51	0
2	183087	58.61	0
2	183403	58.71	0
2	183719	58.81	0
2	184035	58.91	0
2	184357	59.01	0
2	184673	59.11	0
2	184989	59.21	0
2	185305	59.31	0
2	185621	59.41	0
2	185937	59.51	0
2	186253	59.61	0
2	186569	59.71	0
2	186885	59.81	0
2	187201	59.91	0
2	187523	60.01	0
2	187839	60.11	0
2	188155	60.21	0
2	188471	60.31	0
2	188787	60.41	0
2	189103	60.51	0
2	189419	60.61	0
2	189735	60.71	0
2	190051	60.81	0
2	190367	60.91	0
2	190689	61.01	0
2	191005	61.11	0
2	191321	61.21	0
2	191637	61.31	0
2	191953	61.41	0
2	192269	61.51	0
2	192585	61.61	0
2	192901	61.71	0
2	193217	61.81	0
2	193533	61.91	0
2	193855	62.01	0
2	194171	62.11	0
2	194487	62.21	0
2	194803	62.31	0
2	195119	62.41	0
2	195435	62.51	0
2	195751	62.61	0
2	196067	62.71	0
2	196383	62.81	0
2	196699	62.91	0
2	197021	63.01	0
2	197337	63.11	0
2	197653	63.21	0
2	197969	63.31	0
2	198285	63.41	0
2	198601	63.51	0
2	198917	63.61	0
2	199233	63.71	0
2	199549	63.81	0
2	199865	63.91	0
2	200187	64.01	0
2	200503	64.11	0
2	200819	64.21	0
2	201135	64.31	0
2	201451	64.41	0
2	201767	64.51	0
2	202083	64.61	0
2	202399	64.71	0
2	202715	64.81	0
2	203031	64.91	0
2	203353	65.01	0
2	203669	65.11	0
2	203985	65.21	0
2	204301	65.31	0
2	204617	65.41	0
2	204933	65.51	0
2	205249	65.61	0
2	205565	65.71	0
2	205881	65.81	0
2	206197	65.91	0
2	206519	66.01	0
2	206835	66.11	0
2	207151	66.21	0
2	207467	66.31	0
2	207783	66.41	0
2	208099	66.51	0
2	208415	66.61	0
2	208731	66.71	0
2	209047	66.81	0
2	209363	66.91	0
2	209685	67.01	0
2	210001	67.11	0
2	210317	67.21	0
2	210633	67.31	0
2	210949	67.41	0
2	211265	67.51	0
2	211581	67.61	0
2	211897	67.71	0
2	212213	67.81	0
2	212529	67.91	0
2	212851	68.01	0
2	213167	68.11	0
2	213483	68.21	0
2	213799	68.31	0
2	214115	68.41	0
2	214431	68.51	0
2	214747	68.61	0
2	215063	68.71	0
2	215379	68.81	0
2	215695	68.91	0
2	216017	69.01	0
2	216333	69.11	0
2	216649	69.21	0
2	216965	69.31	0
2	217281	69.41	0
2	217597	69.51	0
2	217913	69.61	0
2	218229	69.71	0
2	218545	69.81	0
2	218861	69.91	0
2	219183	70.01	0
2	219499	70.11	0
2	219815	70.21	0
2	220131	70.31	0
2	220447	70.41	0
2	220763	70.51	0
2	221079	70.61	0
2	221395	70.71	0
2	221711	70.81	0
2	222027	70.91	0
2	222349	71.01	0
2	222665	71.11	0
2	222981	71.21	0
2	223297	71.31	0
2	223613	71.41	0
2	223929	71.51	0
2	224245	71.61	0
2	224561	71.71	0
2	224877	71.81	0
2	225193	71.91	0
2	225515	72.01	0
2	225831	72.11	0
2	226147	72.21	0
2	226463	72.31	0
2	226779	72.41	0
2	227095	72.51	0
2	227411	72.61	0
2	227727	72.71	0
2	228043	72.81	0
2	228359	72.91	0
2	228681	73.01	0
2	228997	73.11	0
2	229313	73.21	0
2	229629	73.31	0
2	229945	73.41	0
2	230261	73.51	0
2	230577	73.61	0
2	230893	73.71	0
2	231209	73.81	0
2	231525	73.91	0
2	231847	74.01	0
2	232163	74.11	0
2	232479	74.21	0
2	232795	74.31	0
2	233111	74.41	0
2	233427	74.51	0
2	233743	74.61	0
2	234059	74.71	0
2	234375	74.81	0
2	234691	74.91	0
2	235013	75.01	0
2	235329	75.11	0
2	235645	75.21	0
2	235961	75.31	0
2	236277	75.41	0
2	236593	75.51	0
2	236909	75.61	0
2	237225	75.71	0
2	237541	75.81	0
2	237857	75.91	0
2	238179	76.01	0
2	238495	76.11	0
2	238811	76.21	0
2	239127	76.31	0
2	239443	76.41	0
2	239759	76.51	0
2	240075	76.61	0
2	240391	76.71	0
2	240707	76.81	0
2	241023	76.91	0
2	241345	77.01	0
2	241661	77.11	0
2	241977	77.21	0
2	242293	77.31	0
2	242609	77.41	0
2	242925	77.51	0
2	243241	77.61	0
2	243557	77.71	0
2	243873	77.81	0
2	244189	77.91	0
2	244511	78.01	0
2	244827	78.11	0
2	245143	78.21	0
2	245459	78.31	0
2	245775	78.41	0
2	246091	78.51	0
2	246407	78.61	0
2	246723	78.71	0
2	247039	78.81	0
2	247355	78.91	0
2	247677	79.01	0
2	247993	79.11	0
2	248309	79.21	0
2	248625	79.31	0
2	248941	79.41	0
2	249257	79.51	0
2	249573	79.61	0
2	249889	79.71	0
2	250205	79.81	0
2	250521	79.91	0
2	250843	80.01	0
2	251159	80.11	0
2	251475	80.21	0
2	251791	80.31	0
2	252107	80.41	0
2	252423	80.51	0
2	252739	80.61	0
2	253055	80.71	0
2	253371	80.81	0
2	253687	80.91	0
2	254009	81.01	0
2	254325	81.11	0
2	254641	81.21	0
2	254957	81.31	0
2	255273	81.41	0
2	255589	81.51	0
2	255905	81.61	0
2	256221	81.71	0
2	256537	81.81	0
2	256853	81.91	0
2	257175	82.01	0
2	257491	82.11	0
2	257807	82.21	0
2	258123	82.31	0
2	258439	82.41	0
2	258755	82.51	0
2	259071	82.61	0
2	259387	82.71	0
2	259703	82.81	0
2	260019	82.91	0
2	260341	83.01	0
2	260657	83.11	0
2	260973	83.21	0
2	261289	83.31	0
2	261605	83.41	0
2	261921	83.51	0
2	262237	83.61	0
2	262553	83.71	0
2	262869	83.81	0
2	263185	83.91	0
2	263507	84.01	0
2	263823	84.11	0
2	264139	84.21	0
2	264455	84.31	0
2	264771	84.41	0
2	265087	84.51	0
2	265403	84.61	0
2	265719	84.71	0
2	266035	84.81	0
2	266351	84.91	0
2	266673	85.01	0
2	266989	85.11	0
2	267305	85.21	0
2	267621	85.31	0
2	267937	85.41	0
2	268253	85.51	0
2	268569	85.61	0
2	268885	85.71	0
2	269201	85.81	0
2	269517	85.91	0
2	269839	86.01	0
2	270155	86.11	0
2	270471	86.21	0
2	270787	86.31	0
2	271103	86.41	0
2	271419	86.51	0
2	271735	86.61	0
2	272051	86.71	0
2	272367	86.81	0
2	272683	86.91	0
2	273005	87.01	0
2	273321	87.11	0
2	273637	87.21	0
2	273953	87.31	0
2	274269	87.41	0
2	274585	87.51	0
2	274901	87.61	0
2	275217	87.71	0
2	275533	87.81	0
2	275849	87.91	0
2	276171	88.01	0
2	276487	88.11	0
2	276803	88.21	0
2	277119	88.31	0
2	277435	88.41	0
2	277751	88.51	0
2	278067	88.61	0
2	278383	88.71	0
2	278699	88.81	0
2	279015	88.91	0
2	279337	89.01	0
2	279653	89.11	0
2	279969	89.21	0
2	280285	89.31	0
2	280601	89.41	0
2	280917	89.51	0
2	281233	89.61	0
2	281549	89.71	0
2	281865	89.81	0
2	282181	89.91	0
2	282503	90.01	0
2	282819	90.11	0
2	283135	90.21	0
2	283451	90.31	0
2	283767	90.41	0
2	284083	90.51	0
2	284399	90.61	0
2	284715	90.71	0
2	285031	90.81	0
2	285347	90.91	0
2	285669	91.01	0
2	285985	91.11	0
2	286301	91.21	0
2	286617	91.31	0
2	286933	91.41	0
2	287249	91.51	0
2	287565	91.61	0
2	287881	91.71	0
2	288197	91.81	0
2	288513	91.91	0
2	288835	92.01	0
2	289151	92.11	0
2	289467	92.21	0
2	289783	92.31	0
2	290099	92.41	0
2	290415	92.51	0
2	290731	92.61	0
2	291047	92.71	0
2	291363	92.81	0
2	291679	92.91	0
2	292001	93.01	0
2	292317	93.11	0
2	292633	93.21	0
2	292949	93.31	0
2	293265	93.41	0
2	293581	93.51	0
2	293897	93.61	0
2	294213	93.71	0
2	294529	93.81	0
2	294845	93.91	0
2	295167	94.01	0
2	295483	94.11	0
2	295799	94.21	0
2	296115	94.31	0
2	296431	94.41	0
2	296747	94.51	0
2	297063	94.61	0
2	297379	94.71	0
2	297695	94.81	0
2	298011	94.91	0
2	298333	95.01	0
2	298649	95.11	0
2	298965	95.21	0
2	299281	95.31	0
2	299597	95.41	0
2	299913	95.51	0
2	300229	95.61	0
2	300545	95.71	0
2	300861	95.81	0
2	301177	95.91	0
2	301499	96.01	0
2	301815	96.11	0
2	302131	96.21	0
2	302447	96.31	0
2	302763	96.41	0
2	303079	96.51	0
2	303395	96.61	0
2	303711	96.71	0
2	304027	96.81	0
2	304343	96.91	0
2	304665	97.01	0
2	304981	97.11	0
2	305297	97.21	0
2	305613	97.31	0
2	305929	97.41	0
2	306245	97.51	0
2	306561	97.61	0
2	306877	97.71	0
2	307193	97.81	0
2	307509	97.91	0
2	307831	98.01	0
2	308147	98.11	0
2	308463	98.21	0
2	308779	98.31	0
2	309095	98.41	0
2	309411	98.51	0
2	309727	98.61	0
2	310043	98.71	0
2	310359	98.81	0
2	310675	98.91	0
2	310997	99.01	0
2	311313	99.11	0
2	311629	99.21	0
2	311945	99.31	0
2	312261	99.41	0
2	312577	99.51	0
2	312893	99.61	0
2	313209	99.71	0
2	313525	99.81	0
2	313841	99.91	0
3	113	1.11	0.000179096
3	429	1.21	0.000340852
3	745	1.31	0.000467435
3	1061	1.41	0.000562893
3	1377	1.51	0.000631106
3	1693	1.61	0.000675745
3	2009	1.71	0.000700245
3	2325	1.81	0.000707784
3	2641	1.91	0.000701273
3	2963	2.01	0.000683354
3	3279	2.11	0.000656398
3	3595	2.21	0.000622512
3	3911	2.31	0.000583548
3	4227	2.41	0.000541117
3	4543	2.51	0.000496604
3	4859	2.61	0.000451181
3	5175	2.71	0.000405825
3	5491	2.81	0.00036134
3	5807	2.91	0.000318365
3	6129	3.01	0.0002774
3	6445	3.11	0.00023882
3	6761	3.21	0.000202887
3	7077	3.31	0.00016977
3	7393	3.41	0.000139558
3	7709	3.51	0.000112271
3	8025	3.61	8.78717e-05
3	8341	3.71	6.628e-05
3	8657	3.81	4.73785e-05
3	8973	3.91	3.1023e-05
3	9295	4.01	1.70493e-05
3	9611	4.11	5.28023e-06
3	9927	4.21	-4.46922e-06
3	10243	4.31	-1.2387e-05
3	10559	4.41	-1.86602e-05
3	10875	4.51	-2.34717e-05
3	11191	4.61	-2.69978e-05
3	11507	4.71	-2.94062e-05
3	11823	4.81	-3.08545e-05
3	12139	4.91	-3.14892e-05
3	12461	5.01	-3.14451e-05
3	12777	5.11	-3.0845e-05
3	13093	5.21	-2.97994e-05
3	13409	5.31	-2.84072e-05
3	13725	5.41	-2.67556e-05
3	14041	5.51	-2.49208e-05
3	14357	5.61	-2.29687e-05
3	14673	5.71	-2.09553e-05
3	14989	5.81	-1.89277e-05
3	15305	5.91	-1.6925e-05
3	15627	6.01	-1.49784e-05
3	15943	6.11	-1.31129e-05
3	16259	6.21	-1.13474e-05
3	16575	6.31	-9.69553e-06
3	16891	6.41	-8.16651e-06
3	17207	6.51	-6.76571e-06
3	17523	6.61	-5.49522e-06
3	17839	6.71	-4.35441e-06
3	18155	6.81	-3.34045e-06
3	18471	6.91	-2.44874e-06
3	18793	7.01	-1.6733e-06
3	19109	7.11	-1.00716e-06
3	19425	7.21	-4.42628e-07
3	19741	7.31	2.84224e-08
3	20057	7.41	4.14339e-07
3	20373	7.51	7.23492e-07
3	20689	7.61	9.6413e-07
3	21005	7.71	1.14424e-06
3	21321	7.81	1.27148e-06
3	21637	7.91	1.35305e-06
3	21959	8.01	1.3957e-06
3	22275	8.11	1.40565e-06
3	22591	8.21	1.3886e-06
3	22907	8.31	1.34971e-06
3	23223	8.41	1.2936e-06
3	23539	8.51	1.22437e-06
3	23855	8.61	1.14561e-06
3	24171	8.71	1.06046e-06
3	24487	8.81	9.71582e-07
3	24803	8.91	8.81246e-07
3	25125	9.01	7.91334e-07
3	25441	9.11	7.03381e-07
3	25757	9.21	6.18613e-07
3	26073	9.31	5.37979e-07
3	26389	9.41	4.62183e-07
3	26705	9.51	3.91714e-07
3	27021	9.61	3.26878e-07
3	27337	9.71	2.67827e-07
3	27653	9.81	2.14581e-07
3	27969	9.91	1.67052e-07
3	29223	10.01	1.25066e-07
3	29539	10.11	8.83794e-08
3	29855	10.21	5.66978e-08
3	30171	10.31	2.96922e-08
3	30487	10.41	7.00453e-09
3	30803	10.51	-1.17325e-08
3	31119	10.61	-2.68933e-08
3	31435	10.71	-3.88482e-08
3	31751	10.81	-4.79581e-08
3	32067	10.91	-5.45704e-08
3	32389	11.01	-5.90177e-08
3	32705	11.11	-6.16069e-08
3	33021	11.21	-6.26265e-08
3	33337	11.31	-6.23395e-08
3	33653	11.41	-6.09859e-08
3	33969	11.51	-5.87811e-08
3	34285	11.61	-5.59183e-08
3	34601	11.71	-5.25674e-08
3	34917	11.81	-4.88761e-08
3	35233	11.91	-4.4971e-08
3	35555	12.01	-4.09599e-08
3	35871	12.11	-3.69354e-08
3	36187	12.21	-3.29713e-08
3	36503	12.31	-2.9128e-08
3	36819	12.41	-2.54531e-08
3	37135	12.51	-2.19821e-08
3	37451	12.61	-1.87399e-08
3	37767	12.71	-1.57428e-08
3	38083	12.81	-1.30029e-08
3	38399	12.91	-1.05217e-08
3	38721	13.01	-8.29772e-09
3	39037	13.11	-6.32454e-09
3	39353	13.21	-4.59224e-09
3	39669	13.31	-3.08802e-09
3	39985	13.41	-1.79838e-09
3	40301	13.51	-7.08411e-10
3	40617	13.61	1.98241e-10
3	40933	13.71	9.37916e-10
3	41249	13.81	1.52767e-09
3	41565	13.91	1.98384e-09
3	41887	14.01	2.32276e-09
3	42203	14.11	2.55937e-09
3	42519	14.21	2.70788e-09
3	42835	14.31	2.78249e-09
3	43151	14.41	2.79243e-09
3	43467	14.51	2.7498e-09
3	43783	14.61	2.66525e-09
3	44099	14.71	2.54872e-09
3	44415	14.81	2.40803e-09
3	44731	14.91	2.24887e-09
3	45053	15.01	2.07763e-09
3	45369	15.11	1.89999e-09
3	45685	15.21	1.72236e-09
3	46001	15.31	1.54472e-09
3	46317	15.41	1.37064e-09
3	46633	15.51	1.20295e-09
3	46949	15.61	1.04379e-09
3	47265	15.71	8.94573e-10
3	47581	15.81	7.56017e-10
3	47897	15.91	6.29541e-10
3	48219	16.01	5.13012e-10
3	48535	16.11	4.09273e-10
3	48851	16.21	3.16902e-10
3	49167	16.31	2.3519e-10
3	49483	16.41	1.63425e-10
3	49799	16.51	1.02318e-10
3	50115	16.61	4.9738e-11
3	50431	16.71	5.68434e-12
3	50747	16.81	-3.05533e-11
3	51063	16.91	-5.8975e-11
3	51385	17.01	-8.10019e-11
3	51701	17.11	-9.80549e-11
3	52017	17.21	-1.11555e-10
3	52333	17.31	-1.18661e-10
3	52649	17.41	-1.23634e-10
3	52965	17.51	-1.23634e-10
3	53281	17.61	-1.23634e-10
3	53597	17.71	-1.21503e-10
3	53913	17.81	-1.14397e-10
3	54229	17.91	-1.07292e-10
3	54551	18.01	-1.00187e-10
3	54867	18.11	-9.30811e-11
3	55183	18.21	-8.59757e-11
3	55499	18.31	-7.88702e-11
3	55815	18.41	-7.17648e-11
3	56131	18.51	-6.46594e-11
3	56447	18.61	-5.7554e-11
3	56763	18.71	-5.04485e-11
3	57079	18.81	-4.33431e-11
3	57395	18.91	-3.62377e-11
3	57717	19.01	-2.91323e-11
3	58033	19.11	-2.20268e-11
3	58349	19.21	-1.7053e-11
3	58665	19.31	-1.49214e-11
3	58981	19.41	-1.35003e-11
3	59297	19.51	-1.27898e-11
3	59613	19.61	-1.13687e-11
3	59929	19.71	-9.9476e-12
3	60245	19.81	-9.23706e-12
3	60561	19.91	-8.52651e-12
3	60883	20.01	-7.81597e-12
3	61199	20.11	-7.10543e-12
3	61515	20.21	-6.39488e-12
3	61831	20.31	-5.68434e-12
3	62147	20.41	-4.9738e-12
3	62463	20.51	-4.26326e-12
3	62779	20.61	-4.26326e-12
3	63095	20.71	-3.55271e-12
3	63411	20.81	-3.55271e-12
3	63727	20.91	-2.84217e-12
3	64049	21.01	-2.84217e-12
3	64365	21.11	-2.84217e-12
3	64681	21.21	-2.13163e-12
3	64997	21.31	-2.13163e-12
3	65313	21.41	-2.13163e-12
3	65629	21.51	-1.42109e-12
3	65945	21.61	-1.42109e-12
3	66261	21.71	-1.42109e-12
3	66577	21.81	-1.42109e-12
3	66893	21.91	-1.42109e-12
3	67215	22.01	-7.10543e-13
3	67531	22.11	-7.10543e-13
3	67847	22.21	-7.10543e-13
3	68163	22.31	-7.10543e-13
3	68479	22.41	-7.10543e-13
3	68795	22.51	-7.10543e-13
3	69111	22.61	-7.10543e-13
3	69427	22.71	-7.10543e-13
3	69743	22.81	-7.10543e-13
3	70059	22.91	-7.10543e-13
3	70381	23.01	0
3	70697	23.11	0
3	71013	23.21	0
3	71329	23.31	0
3	71645	23.41	0
3	71961	23.51	0
3	72277	23.61	0
3	72593	23.71	0
3	72909	23.81	0
3	73225	23.91	0
3	73547	24.01	0
3	73863	24.11	0
3	74179	24.21	0
3	74495	24.31	0
3	74811	24.41	0
3	75127	24.51	0
3	75443	24.61	0
3	75759	24.71	0
3	76075	24.81	0
3	76391	24.91	0
3	76713	25.01	0
3	77029	25.11	0
3	77345	25.21	0
3	77661	25.31	0
3	77977	25.41	0
3	78293	25.51	0
3	78609	25.61	0
3	78925	25.71	0
3	79241	25.81	0
3	79557	25.91	0
3	79879	26.01	0
3	80195	26.11	0
3	80511	26.21	0
3	80827	26.31	0
3	81143	26.41	0
3	81459	26.51	0
3	81775	26.61	0
3	82091	26.71	0
3	82407	26.81	0
3	82723	26.91	0
3	83045	27.01	0
3	83361	27.11	0
3	83677	27.21	0
3	83993	27.31	0
3	84309	27.41	0
3	84625	27.51	0
3	84941	27.61	0
3	85257	27.71	0
3	85573	27.81	0
3	85889	27.91	0
3	86211	28.01	0
3	86527	28.11	0
3	86843	28.21	0
3	87159	28.31	0
3	87475	28.41	0
3	87791	28.51	0
3	88107	28.61	0
3	88423	28.71	0
3	88739	28.81	0
3	89055	28.91	0
3	89377	29.01	0
3	89693	29.11	0
3	90009	29.21	0
3	90325	29.31	0
3	90641	29.41	0
3	90957	29.51	0
3	91273	29.61	0
3	91589	29.71	0
3	91905	29.81	0
3	92221	29.91	0
3	92543	30.01	0
3	92859	30.11	0
3	93175	30.21	0
3	93491	30.31	0
3	93807	30.41	0
3	94123	30.51	0
3	94439	30.61	0
3	94755	30.71	0
3	95071	30.81	0
3	95387	30.91	0
3	95709	31.01	0
3	96025	31.11	0
3	96341	31.21	0
3	96657	31.31	0
3	96973	31.41	0
3	97289	31.51	0
3	97605	31.61	0
3	97921	31.71	0
3	98237	31.81	0
3	98553	31.91	0
3	98875	32.01	0
3	99191	32.11	0
3	99507	32.21	0
3	99823	32.31	0
3	100139	32.41	0
3	100455	32.51	0
3	100771	32.61	0
3	101087	32.71	0
3	101403	32.81	0
3	101719	32.91	0
3	102041	33.01	0
3	102357	33.11	0
3	102673	33.21	0
3	102989	33.31	0
3	103305	33.41	0
3	103621	33.51	0
3	103937	33.61	0
3	104253	33.71	0
3	104569	33.81	0
3	104885	33.91	0
3	105207	34.01	0
3	105523	34.11	0
3	105839	34.21	0
3	106155	34.31	0
3	106471	34.41	0
3	106787	34.51	0
3	107103	34.61	0
3	107419	34.71	0
3	107735	34.81	0
3	108051	34.91	0
3	108373	35.01	0
3	108689	35.11	0
3	109005	35.21	0
3	109321	35.31	0
3	109637	35.41	0
3	109953	35.51	0
3	110269	35.61	0
3	110585	35.71	0
3	110901	35.81	0
3	111217	35.91	0
3	111539	36.01	0
3	111855	36.11	0
3	112171	36.21	0
3	112487	36.31	0
3	112803	36.41	0
3	113119	36.51	0
3	113435	36.61	0
3	113751	36.71	0
3	114067	36.81	0
3	114383	36.91	0
3	114705	37.01	0
3	115021	37.11	0
3	115337	37.21	0
3	115653	37.31	0
3	115969	37.41	0
3	116285	37.51	0
3	116601	37.61	0
3	116917	37.71	0
3	117233	37.81	0
3	117549	37.91	0
3	117871	38.01	0
3	118187	38.11	0
3	118503	38.21	0
3	118819	38.31	0
3	119135	38.41	0
3	119451	38.51	0
3	119767	38.61	0
3	120083	38.71	0
3	120399	38.81	0
3	120715	38.91	0
3	121037	39.01	0
3	121353	39.11	0
3	121669	39.21	0
3	121985	39.31	0
3	122301	39.41	0
3	122617	39.51	0
3	122933	39.61	0
3	123249	39.71	0
3	123565	39.81	0
3	123881	39.91	0
3	124203	40.01	0
3	124519	40.11	0
3	124835	40.21	0
3	125151	40.31	0
3	125467	40.41	0
3	125783	40.51	0
3	126099	40.61	0
3	126415	40.71	0
3	126731	40.81	0
3	127047	40.91	0
3	127369	41.01	0
3	127685	41.11	0
3	128001	41.21	0
3	128317	41.31	0
3	128633	41.41	0
3	128949	41.51	0
3	129265	41.61	0
3	129581	41.71	0
3	129897	41.81	0
3	130213	41.91	0
3	130535	42.01	0
3	130851	42.11	0
3	131167	42.21	0
3	131483	42.31	0
3	131799	42.41	0
3	132115	42.51	0
3	132431	42.61	0
3	132747	42.71	0
3	133063	42.81	0
3	133379	42.91	0
3	133701	43.01	0
3	134017	43.11	0
3	134333	43.21	0
3	134649	43.31	0
3	134965	43.41	0
3	135281	43.51	0
3	135597	43.61	0
3	135913	43.71	0
3	136229	43.81	0
3	136545	43.91	0
3	136867	44.01	0
3	137183	44.11	0
3	137499	44.21	0
3	137815	44.31	0
3	138131	44.41	0
3	138447	44.51	0
3	138763	44.61	0
3	139079	44.71	0
3	139395	44.81	0
3	139711	44.91	0
3	140033	45.01	0
3	140349	45.11	0
3	140665	45.21	0
3	140981	45.31	0
3	141297	45.41	0
3	141613	45.51	0
3	141929	45.61	0
3	142245	45.71	0
3	142561	45.81	0
3	142877	45.91	0
3	143199	46.01	0
3	143515	46.11	0
3	143831	46.21	0
3	144147	46.31	0
3	144463	46.41	0
3	144779	46.51	0
3	145095	46.61	0
3	145411	46.71	0
3	145727	46.81	0
3	146043	46.91	0
3	146365	47.01	0
3	146681	47.11	0
3	146997	47.21	0
3	147313	47.31	0
3	147629	47.41	0
3	147945	47.51	0
3	148261	47.61	0
3	148577	47.71	0
3	148893	47.81	0
3	149209	47.91	0
3	149531	48.01	0
3	149847	48.11	0
3	150163	48.21	0
3	150479	48.31	0
3	150795	48.41	0
3	151111	48.51	0
3	151427	48.61	0
3	151743	48.71	0
3	152059	48.81	0
3	152375	48.91	0
3	152697	49.01	0
3	153013	49.11	0
3	153329	49.21	0
3	153645	49.31	0
3	153961	49.41	0
3	154277	49.51	0
3	154593	49.61	0
3	154909	49.71	0
3	155225	49.81	0
3	155541	49.91	0
3	155863	50.01	0
3	156179	50.11	0
3	156495	50.21	0
3	156811	50.31	0
3	157127	50.41	0
3	157443	50.51	0
3	157759	50.61	0
3	158075	50.71	0
3	158391	50.81	0
3	158707	50.91	0
3	159029	51.01	0
3	159345	51.11	0
3	159661	51.21	0
3	159977	51.31	0
3	160293	51.41	0
3	160609	51.51	0
3	160925	51.61	0
3	161241	51.71	0
3	161557	51.81	0
3	161873	51.91	0
3	162195	52.01	0
3	162511	52.11	0
3	162827	52.21	0
3	163143	52.31	0
3	163459	52.41	0
3	163775	52.51	0
3	164091	52.61	0
3	164407	52.71	0
3	164723	52.81	0
3	165039	52.91	0
3	165361	53.01	0
3	165677	53.11	0
3	165993	53.21	0
3	166309	53.31	0
3	166625	53.41	0
3	166941	53.51	0
3	167257	53.61	0
3	167573	53.71	0
3	167889	53.81	0
3	168205	53.91	0
3	168527	54.01	0
3	168843	54.11	0
3	169159	54.21	0
3	169475	54.31	0
3	169791	54.41	0
3	170107	54.51	0
3	170423	54.61	0
3	170739	54.71	0
3	171055	54.81	0
3	171371	54.91	0
3	171693	55.01	0
3	172009	55.11	0
3	172325	55.21	0
3	172641	55.31	0
3	172957	55.41	0
3	173273	55.51	0
3	173589	55.61	0
3	173905	55.71	0
3	174221	55.81	0
3	174537	55.91	0
3	174859	56.01	0
3	175175	56.11	0
3	175491	56.21	0
3	175807	56.31	0
3	176123	56.41	0
3	176439	56.51	0
3	176755	56.61	0
3	177071	56.71	0
3	177387	56.81	0
3	177703	56.91	0
3	178025	57.01	0
3	178341	57.11	0
3	178657	57.21	0
3	178973	57.31	0
3	179289	57.41	0
3	179605	57.51	0
3	179921	57.61	0
3	180237	57.71	0
3	180553	57.81	0
3	180869	57.91	0
3	181191	58.01	0
3	181507	58.11	0
3	181823	58.21	0
3	182139	58.31	0
3	182455	58.41	0
3	182771	58.51	0
3	183087	58.61	0
3	183403	58.71	0
3	183719	58.81	0
3	184035	58.91	0
3	184357	59.01	0
3	184673	59.11	0
3	184989	59.21	0
3	185305	59.31	0
3	185621	59.41	0
3	185937	59.51	0
3	186253	59.61	0
3	186569	59.71	0
3	186885	59.81	0
3	187201	59.91	0
3	187523	60.01	0
3	187839	60.11	0
3	188155	60.21	0
3	188471	60.31	0
3	188787	60.41	0
3	189103	60.51	0
3	189419	60.61	0
3	189735	60.71	0
3	190051	60.81	0
3	190367	60.91	0
3	190689	61.01	0
3	191005	61.11	0
3	191321	61.21	0
3	191637	61.31	0
3	191953	61.41	0
3	192269	61.51	0
3	192585	61.61	0
3	192901	61.71	0
3	193217	61.81	0
3	193533	61.91	0
3	193855	62.01	0
3	194171	62.11	0
3	194487	62.21	0
3	194803	62.31	0
3	195119	62.41	0
3	195435	62.51	0
3	195751	62.61	0
3	196067	62.71	0
3	196383	62.81	0
3	196699	62.91	0
3	197021	63.01	0
3	197337	63.11	0
3	197653	63.21	0
3	197969	63.31	0
3	198285	63.41	0
3	198601	63.51	0
3	198917	63.61	0
3	199233	63.71	0
3	199549	63.81	0
3	199865	63.91	0
3	200187	64.01	0
3	200503	64.11	0
3	200819	64.21	0
3	201135	64.31	0
3	201451	64.41	0
3	201767	64.51	0
3	202083	64.61	0
3	202399	64.71	0
3	202715	64.81	0
3	203031	64.91	0
3	203353	65.01	0
3	203669	65.11	0
3	203985	65.21	0
3	204301	65.31	0
3	204617	65.41	0
3	204933	65.51	0
3	205249	65.61	0
3	205565	65.71	0
3	205881	65.81	0
3	206197	65.91	0
3	206519	66.01	0
3	206835	66.11	0
3	207151	66.21	0
3	207467	66.31	0
3	207783	66.41	0
3	208099	66.51	0
3	208415	66.61	0
3	208731	66.71	0
3	209047	66.81	0
3	209363	66.91	0
3	209685	67.01	0
3	210001	67.11	0
3	210317	67.21	0
3	210633	67.31	0
3	210949	67.41	0
3	211265	67.51	0
3	211581	67.61	0
3	211897	67.71	0
3	212213	67.81	0
3	212529	67.91	0
3	212851	68.01	0
3	213167	68.11	0
3	213483	68.21	0
3	213799	68.31	0
3	214115	68.41	0
3	214431	68.51	0
3	214747	68.61	0
3	215063	68.71	0
3	215379	68.81	0
3	215695	68.91	0
3	216017	69.01	0
3	216333	69.11	0
3	216649	69.21	0
3	216965	69.31	0
3	217281	69.41	0
3	217597	69.51	0
3	217913	69.61	0
3	218229	69.71	0
3	218545	69.81	0
3	218861	69.91	0
3	219183	70.01	0
3	219499	70.11	0
3	219815	70.21	0
3	220131	70.31	0
3	220447	70.41	0
3	220763	70.51	0
3	221079	70.61	0
3	221395	70.71	0
3	221711	70.81	0
3	222027	70.91	0
3	222349	71.01	0
3	222665	71.11	0
3	222981	71.21	0
3	223297	71.31	0
3	223613	71.41	0
3	223929	71.51	0
3	224245	71.61	0
3	224561	71.71	0
3	224877	71.81	0
3	225193	71.91	0
3	225515	72.01	0
3	225831	72.11	0
3	226147	72.21	0
3	226463	72.31	0
3	226779	72.41	0
3	227095	72.51	0
3	227411	72.61	0
3	227727	72.71	0
3	228043	72.81	0
3	228359	72.91	0
3	228681	73.01	0
3	228997	73.11	0
3	229313	73.21	0
3	229629	73.31	0
3	229945	73.41	0
3	230261	73.51	0
3	230577	73.61	0
3	230893	73.71	0
3	231209	73.81	0
3	231525	73.91	0
3	231847	74.01	0
3	232163	74.11	0
3	232479	74.21	0
3	232795	74.31	0
3	233111	74.41	0
3	233427	74.51	0
3	233743	74.61	0
3	234059	74.71	0
3	234375	74.81	0
3	234691	74.91	0
3	235013	75.01	0
3	235329	75.11	0
3	235645	75.21	0
3	235961	75.31	0
3	236277	75.41	0
3	236593	75.51	0
3	236909	75.61	0
3	237225	75.71	0
3	237541	75.81	0
3	237857	75.91	0
3	238179	76.01	0
3	238495	76.11	0
3	238811	76.21	0
3	239127	76.31	0
3	239443	76.41	0
3	239759	76.51	0
3	240075	76.61	0
3	240391	76.71	0
3	240707	76.81	0
3	241023	76.91	0
3	241345	77.01	0
3	241661	77.11	0
3	241977	77.21	0
3	242293	77.31	0
3	242609	77.41	0
3	242925	77.51	0
3	243241	77.61	0
3	243557	77.71	0
3	243873	77.81	0
3	244189	77.91	0
3	244511	78.01	0
3	244827	78.11	0
3	245143	78.21	0
3	245459	78.31	0
3	245775	78.41	0
3	246091	78.51	0
3	246407	78.61	0
3	246723	78.71	0
3	247039	78.81	0
3	247355	78.91	0
3	247677	79.01	0
3	247993	79.11	0
3	248309	79.21	0
3	248625	79.31	0
3	248941	79.41	0
3	249257	79.51	0
3	249573	79.61	0
3	249889	79.71	0
3	250205	79.81	0
3	250521	79.91	0
3	250843	80.01	0
3	251159	80.11	0
3	251475	80.21	0
3	251791	80.31	0
3	252107	80.41	0
3	252423	80.51	0
3	252739	80.61	0
3	253055	80.71	0
3	253371	80.81	0
3	253687	80.91	0
3	254009	81.01	0
3	254325	81.11	0
3	254641	81.21	0
3	254957	81.31	0
3	255273	81.41	0
3	255589	81.51	0
3	255905	81.61	0
3	256221	81.71	0
3	256537	81.81	0
3	256853	81.91	0
3	257175	82.01	0
3	257491	82.11	0
3	257807	82.21	0
3	258123	82.31	0
3	258439	82.41	0
3	258755	82.51	0
3	259071	82.61	0
3	259387	82.71	0
3	259703	82.81	0
3	260019	82.91	0
3	260341	83.01	0
3	260657	83.11	0
3	260973	83.21	0
3	261289	83.31	0
3	261605	83.41	0
3	261921	83.51	0
3	262237	83.61	0
3	262553	83.71	0
3	262869	83.81	0
3	263185	83.91	0
3	263507	84.01	0
3	263823	84.11	0
3	264139	84.21	0
3	264455	84.31	0
3	264771	84.41	0
3	265087	84.51	0
3	265403	84.61	0
3	265719	84.71	0
3	266035	84.81	0
3	266351	84.91	0
3	266673	85.01	0
3	266989	85.11	0
3	267305	85.21	0
3	267621	85.31	0
3	267937	85.41	0
3	268253	85.51	0
3	268569	85.61	0
3	268885	85.71	0
3	269201	85.81	0
3	269517	85.91	0
3	269839	86.01	0
3	270155	86.11	0
3	270471	86.21	0
3	270787	86.31	0
3	271103	86.41	0
3	271419	86.51	0
3	271735	86.61	0
3	272051	86.71	0
3	272367	86.81	0
3	272683	86.91	0
3	273005	87.01	0
3	273321	87.11	0
3	273637	87.21	0
3	273953	87.31	0
3	274269	87.41	0
3	274585	87.51	0
3	274901	87.61	0
3	275217	87.71	0
3	275533	87.81	0
3	275849	87.91	0
3	276171	88.01	0
3	276487	88.11	0
3	276803	88.21	0
3	277119	88.31	0
3	277435	88.41	0
3	277751	88.51	0
3	278067	88.61	0
3	278383	88.71	0
3	278699	88.81	0
3	279015	88.91	0
3	279337	89.01	0
3	279653	89.11	0
3	279969	89.21	0
3	280285	89.31	0
3	280601	89.41	0
3	280917	89.51	0
3	281233	89.61	0
3	281549	89.71	0
3	281865	89.81	0
3	282181	89.91	0
3	282503	90.01	0
3	282819	90.11	0
3	283135	90.21	0
3	283451	90.31	0
3	283767	90.41	0
3	284083	90.51	0
3	284399	90.61	0
3	284715	90.71	0
3	285031	90.81	0
3	285347	90.91	0
3	285669	91.01	0
3	285985	91.11	0
3	286301	91.21	0
3	286617	91.31	0
3	286933	91.41	0
3	287249	91.51	0
3	287565	91.61	0
3	287881	91.71	0
3	288197	91.81	0
3	288513	91.91	0
3	288835	92.01	0
3	289151	92.11	0
3	289467	92.21	0
3	289783	92.31	0
3	290099	92.41	0
3	290415	92.51	0
3	290731	92.61	0
3	291047	92.71	0
3	291363	92.81	0
3	291679	92.91	0
3	292001	93.01	0
3	292317	93.11	0
3	292633	93.21	0
3	292949	93.31	0
3	293265	93.41	0
3	293581	93.51	0
3	293897	93.61	0
3	294213	93.71	0
3	294529	93.81	0
3	294845	93.91	0
3	295167	94.01	0
3	295483	94.11	0
3	295799	94.21	0
3	296115	94.31	0
3	296431	94.41	0
3	296747	94.51	0
3	297063	94.61	0
3	297379	94.71	0
3	297695	94.81	0
3	298011	94.91	0
3	298333	95.01	0
3	298649	95.11	0
3	298965	95.21	0
3	299281	95.31	0
3	299597	95.41	0
3	299913	95.51	0
3	300229	95.61	0
3	300545	95.71	0
3	300861	95.81	0
3	301177	95.91	0
3	301499	96.01	0
3	301815	96.11	0
3	302131	96.21	0
3	302447	96.31	0
3	302763	96.41	0
3	303079	96.51	0
3	303395	96.61	0
3	303711	96.71	0
3	304027	96.81	0
3	304343	96.91	0
3	304665	97.01	0
3	304981	97.11	0
3	305297	97.21	0
3	305613	97.31	0
3	305929	97.41	0
3	306245	97.51	0
3	306561	97.61	0
3	306877	97.71	0
3	307193	97.81	0
3	307509	97.91	0
3	307831	98.01	0
3	308147	98.11	0
3	308463	98.21	0
3	308779	98.31	0
3	309095	98.41	0
3	309411	98.51	0
3	309727	98.61	0
3	310043	98.71	0
3	310359	98.81	0
3	310675	98.91	0
3	310997	99.01	0
3	311313	99.11	0
3	311629	99.21	0
3	311945	99.31	0
3	312261	99.41	0
3	312577	99.51	0
3	312893	99.61	0
3	313209	99.71	0
3	313525	99.81	0
3	313841	99.91	0
4	113	1.11	0.00109259
4	429	1.21	0.00106709
4	745	1.31	0.00102704
4	1061	1.41	0.000975759
4	1377	1.51	0.00091619
4	1693	1.61	0.000850891
4	2009	1.71	0.000782061
4	2325	1.81	0.00071157
4	2641	1.91	0.00064098
4	2963	2.01	0.000571575
4	3279	2.11	0.000504387
4	3595	2.21	0.000440223
4	3911	2.31	0.000379691
4	4227	2.41	0.000323223
4	4543	2.51	0.000271102
4	4859	2.61	0.000223482
4	5175	2.71	0.000180409
4	5491	2.81	0.000141839
4	5807	2.91	0.000107653
4	6129	3.01	7.76787e-05
4	6445	3.11	5.16957e-05
4	6761	3.21	2.94534e-05
4	7077	3.31	1.06787e-05
4	7393	3.41	-4.91459e-06
4	7709	3.51	-1.76184e-05
4	8025	3.61	-2.7724e-05
4	8341	3.71	-3.55168e-05
4	8657	3.81	-4.12726e-05
4	8973	3.91	-4.52541e-05
4	9295	4.01	-4.77086e-05
4	9611	4.11	-4.88665e-05
4	9927	4.21	-4.89399e-05
4	10243	4.31	-4.81224e-05
4	10559	4.41	-4.65886e-05
4	10875	4.51	-4.44947e-05
4	11191	4.61	-4.1979e-05
4	11507	4.71	-3.91623e-05
4	11823	4.81	-3.61492e-05
4	12139	4.91	-3.3029e-05
4	12461	5.01	-2.9877e-05
4	12777	5.11	-2.67554e-05
4	13093	5.21	-2.37147e-05
4	13409	5.31	-2.07949e-05
4	13725	5.41	-1.80267e-05
4	14041	5.51	-1.54325e-05
4	14357	5.61	-1.30275e-05
4	14673	5.71	-1.0821e-05
4	14989	5.81	-8.81673e-06
4	15305	5.91	-7.01443e-06
4	15627	6.01	-5.4101e-06
4	15943	6.11	-3.99696e-06
4	16259	6.21	-2.766e-06
4	16575	6.31	-1.70658e-06
4	16891	6.41	-8.06872e-07
4	17207	6.51	-5.43281e-08
4	17523	6.61	5.63994e-07
[...]
75	120898	39	0.018718393835
75	124064	40	0.01873117621
75	127230	41	0.018730959341
75	130396	42	0.018730743184
75	133562	43	0.018730527681
75	136728	44	0.018730312777
75	139894	45	0.018730098423
75	143060	46	0.018729884574
75	146226	47	0.018729671176
75	149392	48	0.01872945819
75	152558	49	0.018729245576
75	155724	50	0.018729033301
75	158890	51	0.018728821324
75	162056	52	0.018741609623
75	165222	53	0.018728398164
75	168388	54	0.018728186918
75	171554	55	0.018727975869
75	174720	56	0.018727764985
75	177886	57	0.018727554255
75	181052	58	0.018740343655
75	184218	59	0.018727133169
75	187384	60	0.018726922784
75	190550	61	0.018726712483
75	193716	62	0.018739502252
75	196882	63	0.018726292074
75	200048	64	0.018726081958
75	203214	65	0.018725871873
75	206380	66	0.018738661819
75	209546	67	0.018725451786
75	212712	68	0.018725241772
75	215878	69	0.018738031766
75	219044	70	0.018724821764
75	222210	71	0.018737611745
75	225376	72	0.018724401724
75	228542	73	0.018737191688
75	231708	74	0.018723981633
75	234874	75	0.018723771556
75	238040	76	0.018736561448
75	241206	77	0.018723351314
75	244372	78	0.018736141144
75	247538	79	0.018735930938
75	250704	80	0.018722720694
75	253870	81	0.018735510404
75	257036	82	0.018722300072
75	260202	83	0.018735089697
75	263368	84	0.018734879271
75	266534	85	0.018721668796
75	269700	86	0.018734458271
75	272866	87	0.018721247687
75	276032	88	0.018734037058
75	279198	89	0.018733826363
75	282364	90	0.018733615621
75	285530	91	0.018720404815
75	288696	92	0.018733193957
75	291862	93	0.018732983035
75	295028	94	0.018732772056
75	298194	95	0.018719561013
75	301360	96	0.018732349913
75	304526	97	0.018732138752
75	307692	98	0.018731927527
75	310858	99	0.018731716243
75	314024	100	0.018731504897
76	2824	2	0
76	5990	3	0
76	9156	4	0
76	12322	5	0
76	15488	6	0
76	18654	7	0
76	21820	8	0
76	24986	9	0
76	28153	10	0
76	32250	11	0
76	35416	12	0
76	38582	13	0
76	41748	14	0
76	44914	15	0
76	48080	16	0
76	51246	17	0
76	54412	18	0
76	57578	19	0
76	60744	20	0
76	63910	21	0
76	67076	22	0
76	70242	23	0
76	73408	24	0
76	76574	25	0
76	79740	26	0
76	82906	27	0
76	86072	28	0
76	89238	29	0
76	92404	30	0
76	95570	31	0
76	98736	32	0
76	101902	33	0
76	105068	34	0
76	108234	35	0
76	111400	36	0
76	114566	37	0
76	117732	38	0
76	120898	39	0
76	124064	40	0
76	127230	41	0
76	130396	42	0
76	133562	43	0
76	136728	44	0
76	139894	45	0
76	143060	46	0
76	146226	47	0
76	149392	48	0
76	152558	49	0
76	155724	50	0
76	158890	51	0
76	162056	52	0
76	165222	53	0
76	168388	54	0
76	171554	55	0
76	174720	56	0
76	177886	57	0
76	181052	58	0
76	184218	59	0
76	187384	60	0
76	190550	61	0
76	193716	62	0
76	196882	63	0
76	200048	64	0
76	203214	65	0
76	206380	66	0
76	209546	67	0
76	212712	68	0
76	215878	69	0
76	219044	70	0
76	222210	71	0
76	225376	72	0
76	228542	73	0
76	231708	74	0
76	234874	75	0
76	238040	76	0
76	241206	77	0
76	244372	78	0
76	247538	79	0
76	250704	80	0
76	253870	81	0
76	257036	82	0
76	260202	83	0
76	263368	84	0
76	266534	85	0
76	269700	86	0
76	272866	87	0
76	276032	88	0
76	279198	89	0
76	282364	90	0
76	285530	91	0
76	288696	92	0
76	291862	93	0
76	295028	94	0
76	298194	95	0
76	301360	96	0
76	304526	97	0
76	307692	98	0
76	310858	99	0
76	314024	100	0
77	2825	2	3
77	5991	3	3
77	9157	4	3
77	12323	5	3
77	15489	6	3
77	18655	7	3
77	21821	8	3
77	24987	9	3
77	28154	10	3
77	32251	11	3
77	35417	12	3
77	38583	13	3
77	41749	14	3
77	44915	15	3
77	48081	16	3
77	51247	17	3
77	54413	18	3
77	57579	19	3
77	60745	20	3
77	63911	21	3
77	67077	22	3
77	70243	23	3
77	73409	24	3
77	76575	25	3
77	79741	26	3
77	82907	27	3
77	86073	28	3
77	89239	29	3
77	92405	30	3
77	95571	31	3
77	98737	32	3
77	101903	33	3
77	105069	34	3
77	108235	35	3
77	111401	36	3
77	114567	37	3
77	117733	38	3
77	120899	39	3
77	124065	40	3
77	127231	41	3
77	130397	42	3
77	133563	43	3
77	136729	44	3
77	139895	45	3
77	143061	46	3
77	146227	47	3
77	149393	48	3
77	152559	49	3
77	155725	50	3
77	158891	51	3
77	162057	52	3
77	165223	53	3
77	168389	54	3
77	171555	55	3
77	174721	56	3
77	177887	57	3
77	181053	58	3
77	184219	59	3
77	187385	60	3
77	190551	61	3
77	193717	62	3
77	196883	63	3
77	200049	64	3
77	203215	65	3
77	206381	66	3
77	209547	67	3
77	212713	68	3
77	215879	69	3
77	219045	70	3
77	222211	71	3
77	225377	72	3
77	228543	73	3
77	231709	74	3
77	234875	75	3
77	238041	76	3
77	241207	77	3
77	244373	78	3
77	247539	79	3
77	250705	80	3
77	253871	81	3
77	257037	82	3
77	260203	83	3
77	263369	84	3
77	266535	85	3
77	269701	86	3
77	272867	87	3
77	276033	88	3
77	279199	89	3
77	282365	90	3
77	285531	91	3
77	288697	92	3
77	291863	93	3
77	295029	94	3
77	298195	95	3
77	301361	96	3
77	304527	97	3
77	307693	98	3
77	310859	99	3
77	314025	100	3
78	2825	2	0.016032618334
78	5991	3	0.01873719804
78	9157	4	0.018724198031
78	12323	5	0.01873719802
78	15489	6	0.01872419802
78	18655	7	0.01873719802
78	21821	8	0.01872419802
78	24987	9	0.01873719802
78	28154	10	0.01872419802
78	32251	11	0.020101182396
78	35417	12	0.018736862496
78	38583	13	0.018723410093
78	41749	14	0.018736148988
78	44915	15	0.018722992545
78	48081	16	0.018735894861
78	51247	17	0.018735793384
78	54413	18	0.018722665287
78	57579	19	0.018735511603
78	60745	20	0.018722338432
78	63911	21	0.018735151099
78	67077	22	0.018734953425
78	70243	23	0.018721748128
78	73409	24	0.018734587639
78	76575	25	0.018721489276
78	79741	26	0.018734241218
78	82907	27	0.018734013895
78	86073	28	0.018733792197
78	89239	29	0.018720569568
78	92405	30	0.018733346576
78	95571	31	0.018733156566
78	98737	32	0.018732940401
78	101903	33	0.01871971656
78	105069	34	0.018732493589
78	108235	35	0.018732271547
78	111401	36	0.018732050456
78	114567	37	0.0187318312
78	117733	38	0.018731612103
78	120899	39	0.018718393641
78	124065	40	0.018731176002
78	127231	41	0.01873095912
78	130397	42	0.01873074295
78	133563	43	0.018730527435
78	136729	44	0.018730312522
78	139895	45	0.018730098158
78	143061	46	0.018729884301
78	146227	47	0.018729670895
78	149393	48	0.018729457902
78	152559	49	0.018729245282
78	155725	50	0.018729033001
78	158891	51	0.018728821018
78	162057	52	0.018741609313
78	165223	53	0.01872839785
78	168389	54	0.018728186599
78	171555	55	0.018727975547
78	174721	56	0.01872776466
78	177887	57	0.018727553926
78	181053	58	0.018740343324
78	184219	59	0.018727132835
78	187385	60	0.018726922448
78	190551	61	0.018726712145
78	193717	62	0.018739501912
78	196883	63	0.018726291732
78	200049	64	0.018726081615
78	203215	65	0.018725871528
78	206381	66	0.018738661472
78	209547	67	0.018725451439
78	212713	68	0.018725241423
78	215879	69	0.018738031416
78	219045	70	0.018724821413
78	222211	71	0.018737611394
78	225377	72	0.018724401371
78	228543	73	0.018737191335
78	231709	74	0.018723981279
78	234875	75	0.018723771201
78	238041	76	0.018736561093
78	241207	77	0.018723350958
78	244373	78	0.018736140788
78	247539	79	0.018735930581
78	250705	80	0.018722720337
78	253871	81	0.018735510046
78	257037	82	0.018722299714
78	260203	83	0.018735089339
78	263369	84	0.018734878912
78	266535	85	0.018721668437
78	269701	86	0.018734457911
78	272867	87	0.018721247328
78	276033	88	0.018734036698
78	279199	89	0.018733826002
78	282365	90	0.018733615261
78	285531	91	0.018720404454
78	288697	92	0.018733193596
78	291863	93	0.018732982674
78	295029	94	0.018732771695
78	298195	95	0.018719560651
78	301361	96	0.018732349552
78	304527	97	0.01873213839
78	307693	98	0.018731927165
78	310859	99	0.018731715881
78	314025	100	0.018731504534
79	2825	2	0
79	5991	3	0
79	9157	4	0
79	12323	5	0
79	15489	6	0
79	18655	7	0
79	21821	8	0
79	24987	9	0
79	28154	10	0
79	32251	11	0
79	35417	12	0
79	38583	13	0
79	41749	14	0
79	44915	15	0
79	48081	16	0
79	51247	17	0
79	54413	18	0
79	57579	19	0
79	60745	20	0
79	63911	21	0
79	67077	22	0
79	70243	23	0
79	73409	24	0
79	76575	25	0
79	79741	26	0
79	82907	27	0
79	86073	28	0
79	89239	29	0
79	92405	30	0
79	95571	31	0
79	98737	32	0
79	101903	33	0
79	105069	34	0
79	108235	35	0
79	111401	36	0
79	114567	37	0
79	117733	38	0
79	120899	39	0
79	124065	40	0
79	127231	41	0
79	130397	42	0
79	133563	43	0
79	136729	44	0
79	139895	45	0
79	143061	46	0
79	146227	47	0
79	149393	48	0
79	152559	49	0
79	155725	50	0
79	158891	51	0
79	162057	52	0
79	165223	53	0
79	168389	54	0
79	171555	55	0
79	174721	56	0
79	177887	57	0
79	181053	58	0
79	184219	59	0
79	187385	60	0
79	190551	61	0
79	193717	62	0
79	196883	63	0
79	200049	64	0
79	203215	65	0
79	206381	66	0
79	209547	67	0
79	212713	68	0
79	215879	69	0
79	219045	70	0
79	222211	71	0
79	225377	72	0
79	228543	73	0
79	231709	74	0
79	234875	75	0
79	238041	76	0
79	241207	77	0
79	244373	78	0
79	247539	79	0
79	250705	80	0
79	253871	81	0
79	257037	82	0
79	260203	83	0
79	263369	84	0
79	266535	85	0
79	269701	86	0
79	272867	87	0
79	276033	88	0
79	279199	89	0
79	282365	90	0
79	285531	91	0
79	288697	92	0
79	291863	93	0
79	295029	94	0
79	298195	95	0
79	301361	96	0
79	304527	97	0
79	307693	98	0
79	310859	99	0
79	314025	100	0
80	2826	2	4
80	5992	3	4
80	9158	4	4
80	12324	5	4
80	15490	6	4
80	18656	7	4
80	21822	8	4
80	24988	9	4
80	28155	10	4
80	32252	11	4
80	35418	12	4
80	38584	13	4
80	41750	14	4
80	44916	15	4
80	48082	16	4
80	51248	17	4
80	54414	18	4
80	57580	19	4
80	60746	20	4
80	63912	21	4
80	67078	22	4
80	70244	23	4
80	73410	24	4
80	76576	25	4
80	79742	26	4
80	82908	27	4
80	86074	28	4
80	89240	29	4
80	92406	30	4
80	95572	31	4
80	98738	32	4
80	101904	33	4
80	105070	34	4
80	108236	35	4
80	111402	36	4
80	114568	37	4
80	117734	38	4
80	120900	39	4
80	124066	40	4
80	127232	41	4
80	130398	42	4
80	133564	43	4
80	136730	44	4
80	139896	45	4
80	143062	46	4
80	146228	47	4
80	149394	48	4
80	152560	49	4
80	155726	50	4
80	158892	51	4
80	162058	52	4
80	165224	53	4
80	168390	54	4
80	171556	55	4
80	174722	56	4
80	177888	57	4
80	181054	58	4
80	184220	59	4
80	187386	60	4
80	190552	61	4
80	193718	62	4
80	196884	63	4
80	200050	64	4
80	203216	65	4
80	206382	66	4
80	209548	67	4
80	212714	68	4
80	215880	69	4
80	219046	70	4
80	222212	71	4
80	225378	72	4
80	228544	73	4
80	231710	74	4
80	234876	75	4
80	238042	76	4
80	241208	77	4
80	244374	78	4
80	247540	79	4
80	250706	80	4
80	253872	81	4
80	257038	82	4
80	260204	83	4
80	263370	84	4
80	266536	85	4
80	269702	86	4
80	272868	87	4
80	276034	88	4
80	279200	89	4
80	282366	90	4
80	285532	91	4
80	288698	92	4
80	291864	93	4
80	295030	94	4
80	298196	95	4
80	301362	96	4
80	304528	97	4
80	307694	98	4
80	310860	99	4
80	314026	100	4
81	2826	2	0.01603359832
81	5992	3	0.01873719804
81	9158	4	0.018724198031
81	12324	5	0.01873719802
81	15490	6	0.01872419802
81	18656	7	0.01873719802
81	21822	8	0.01872419802
81	24988	9	0.01873719802
81	28155	10	0.01872419802
81	32252	11	0.020101222397
81	35418	12	0.01873685682
81	38584	13	0.018723414146
81	41750	14	0.018736151658
81	44916	15	0.018722993022
81	48082	16	0.018735892455
81	51248	17	0.018735789389
81	54414	18	0.018722660617
81	57580	19	0.018735506534
81	60746	20	0.018722332977
81	63912	21	0.018735145243
81	67078	22	0.018734947184
81	70244	23	0.018721741532
81	73410	24	0.018734580721
81	76576	25	0.018721482065
81	79742	26	0.018734231101
81	82908	27	0.018734006341
81	86074	28	0.018733784411
81	89240	29	0.018720561571
81	92406	30	0.01873333839
81	95572	31	0.018733151356
81	98738	32	0.018732931717
81	101904	33	0.01871970775
81	105070	34	0.018732484664
81	108236	35	0.018732262518
81	111402	36	0.018732041332
81	114568	37	0.018731822285
81	117734	38	0.018731602804
81	120900	39	0.018718384274
81	124066	40	0.018731166573
81	127232	41	0.018730949633
81	130398	42	0.018730733413
81	133564	43	0.018730517852
81	136730	44	0.018730302897
81	139896	45	0.018730088495
81	143062	46	0.018729874605
81	146228	47	0.018729661167
81	149394	48	0.018729448147
81	152560	49	0.018729235501
81	155726	50	0.018729023197
81	158892	51	0.018728811195
81	162058	52	0.01874159947
81	165224	53	0.01872838799
81	168390	54	0.018728176724
81	171556	55	0.018727965658
81	174722	56	0.018727754759
81	177888	57	0.018727544014
81	181054	58	0.018740333401
81	184220	59	0.018727122904
81	187386	60	0.018726912508
81	190552	61	0.018726702197
81	193718	62	0.018739491958
81	196884	63	0.018726281772
81	200050	64	0.018726071648
81	203216	65	0.018725861558
81	206382	66	0.018738651497
81	209548	67	0.018725441459
81	212714	68	0.01872523144
81	215880	69	0.01873802143
81	219046	70	0.018724811424
81	222212	71	0.018737601402
81	225378	72	0.018724391377
81	228544	73	0.018737181339
81	231710	74	0.01872397128
81	234876	75	0.018723761202
81	238042	76	0.018736551091
81	241208	77	0.018723340955
81	244374	78	0.018736130784
81	247540	79	0.018735920576
81	250706	80	0.01872271033
81	253872	81	0.018735500039
81	257038	82	0.018722289706
81	260204	83	0.01873507933
81	263370	84	0.018734868903
81	266536	85	0.018721658427
81	269702	86	0.018734447901
81	272868	87	0.018721237316
81	276034	88	0.018734026687
81	279200	89	0.018733815991
81	282366	90	0.018733605249
81	285532	91	0.018720394442
81	288698	92	0.018733183584
81	291864	93	0.018732972661
81	295030	94	0.018732761682
81	298196	95	0.018719550638
81	301362	96	0.018732339539
81	304528	97	0.018732128377
81	307694	98	0.018731917152
81	310860	99	0.018731705867
81	314026	100	0.018731494522
82	2826	2	0
82	5992	3	0
82	9158	4	0
82	12324	5	0
82	15490	6	0
82	18656	7	0
82	21822	8	0
82	24988	9	0
82	28155	10	0
82	32252	11	0
82	35418	12	0
82	38584	13	0
82	41750	14	0
82	44916	15	0
82	48082	16	0
82	51248	17	0
82	54414	18	0
82	57580	19	0
82	60746	20	0
82	63912	21	0
82	67078	22	0
82	70244	23	0
82	73410	24	0
82	76576	25	0
82	79742	26	0
82	82908	27	0
82	86074	28	0
82	89240	29	0
82	92406	30	0
82	95572	31	0
82	98738	32	0
82	101904	33	0
82	105070	34	0
82	108236	35	0
82	111402	36	0
82	114568	37	0
82	117734	38	0
82	120900	39	0
82	124066	40	0
82	127232	41	0
82	130398	42	0
82	133564	43	0
82	136730	44	0
82	139896	45	0
82	143062	46	0
82	146228	47	0
82	149394	48	0
82	152560	49	0
82	155726	50	0
82	158892	51	0
82	162058	52	0
82	165224	53	0
82	168390	54	0
82	171556	55	0
82	174722	56	0
82	177888	57	0
82	181054	58	0
82	184220	59	0
82	187386	60	0
82	190552	61	0
82	193718	62	0
82	196884	63	0
82	200050	64	0
82	203216	65	0
82	206382	66	0
82	209548	67	0
82	212714	68	0
82	215880	69	0
82	219046	70	0
82	222212	71	0
82	225378	72	0
82	228544	73	0
82	231710	74	0
82	234876	75	0
82	238042	76	0
82	241208	77	0
82	244374	78	0
82	247540	79	0
82	250706	80	0
82	253872	81	0
82	257038	82	0
82	260204	83	0
82	263370	84	0
82	266536	85	0
82	269702	86	0
82	272868	87	0
82	276034	88	0
82	279200	89	0
82	282366	90	0
82	285532	91	0
82	288698	92	0
82	291864	93	0
82	295030	94	0
82	298196	95	0
82	301362	96	0
82	304528	97	0
82	307694	98	0
82	310860	99	0
82	314026	100	0
83	2827	2	5
83	5993	3	5
83	9159	4	5
83	12325	5	5
83	15491	6	5
83	18657	7	5
83	21823	8	5
83	24989	9	5
83	28156	10	5
83	32253	11	5
83	35419	12	5
83	38585	13	5
83	41751	14	5
83	44917	15	5
83	48083	16	5
83	51249	17	5
83	54415	18	5
83	57581	19	5
83	60747	20	5
83	63913	21	5
83	67079	22	5
83	70245	23	5
83	73411	24	5
83	76577	25	5
83	79743	26	5
83	82909	27	5
83	86075	28	5
83	89241	29	5
83	92407	30	5
83	95573	31	5
83	98739	32	5
83	101905	33	5
83	105071	34	5
83	108237	35	5
83	111403	36	5
83	114569	37	5
83	117735	38	5
83	120901	39	5
83	124067	40	5
83	127233	41	5
83	130399	42	5
83	133565	43	5
83	136731	44	5
83	139897	45	5
83	143063	46	5
83	146229	47	5
83	149395	48	5
83	152561	49	5
83	155727	50	5
83	158893	51	5
83	162059	52	5
83	165225	53	5
83	168391	54	5
83	171557	55	5
83	174723	56	5
83	177889	57	5
83	181055	58	5
83	184221	59	5
83	187387	60	5
83	190553	61	5
83	193719	62	5
83	196885	63	5
83	200051	64	5
83	203217	65	5
83	206383	66	5
83	209549	67	5
83	212715	68	5
83	215881	69	5
83	219047	70	5
83	222213	71	5
83	225379	72	5
83	228545	73	5
83	231711	74	5
83	234877	75	5
83	238043	76	5
83	241209	77	5
83	244375	78	5
83	247541	79	5
83	250707	80	5
83	253873	81	5
83	257039	82	5
83	260205	83	5
83	263371	84	5
83	266537	85	5
83	269703	86	5
83	272869	87	5
83	276035	88	5
83	279201	89	5
83	282367	90	5
83	285533	91	5
83	288699	92	5
83	291865	93	5
83	295031	94	5
83	298197	95	5
83	301363	96	5
83	304529	97	5
83	307695	98	5
83	310861	99	5
83	314027	100	5
84	2827	2	0.016032578306
84	5993	3	0.01873719804
84	9159	4	0.018724198031
84	12325	5	0.01873719802
84	15491	6	0.01872419802
84	18657	7	0.01873719802
84	21823	8	0.01872419802
84	24989	9	0.01873719802
84	28156	10	0.01872419802
84	32253	11	0.020101262424
84	35419	12	0.018736854797
84	38585	13	0.018723418095
84	41751	14	0.018736156686
84	44917	15	0.018722999963
84	48083	16	0.018735900802
84	51249	17	0.018735797924
84	54415	18	0.018722668905
84	57581	19	0.018735514567
84	60747	20	0.018722340821
84	63913	21	0.018735152939
84	67079	22	0.018734954766
84	70245	23	0.018721749038
84	73411	24	0.018734598759
84	76577	25	0.018721489814
84	79743	26	0.018734241429
84	82909	27	0.01873401386
84	86075	28	0.018733791991
84	89241	29	0.018720569256
84	92407	30	0.018733346208
84	95573	31	0.018733156182
84	98739	32	0.018732940027
84	101905	33	0.018719716216
84	105071	34	0.018732493288
84	108237	35	0.018732271296
84	111403	36	0.018732050257
84	114569	37	0.018731831058
84	117735	38	0.018731612013
84	120901	39	0.018718393606
84	124067	40	0.018731176016
84	127233	41	0.018730959181
84	130399	42	0.018730743056
84	133565	43	0.018730527583
84	136731	44	0.018730312708
84	139897	45	0.018730098379
84	143063	46	0.018729884553
84	146229	47	0.018729671177
84	149395	48	0.01872945821
84	152561	49	0.018729245614
84	155727	50	0.018729033354
84	158893	51	0.018728821391
84	162059	52	0.018741609703
84	165225	53	0.018728398255
84	168391	54	0.018728187018
84	171557	55	0.018727975977
84	174723	56	0.0187277651
84	177889	57	0.018727554377
84	181055	58	0.018740343781
84	184221	59	0.0187271333
84	187387	60	0.018726922918
84	190553	61	0.018726712619
84	193719	62	0.01873950239
84	196885	63	0.018726292213
84	200051	64	0.018726082098
84	203217	65	0.018725872012
84	206383	66	0.018738661958
84	209549	67	0.018725451925
84	212715	68	0.018725241908
84	215881	69	0.018738031901
84	219047	70	0.018724821896
84	222213	71	0.018737611875
84	225379	72	0.018724401851
84	228545	73	0.018737191812
84	231711	74	0.018723981754
84	234877	75	0.018723771672
84	238043	76	0.018736561561
84	241209	77	0.018723351423
84	244375	78	0.018736141248
84	247541	79	0.018735931038
84	250707	80	0.018722720789
84	253873	81	0.018735510494
84	257039	82	0.018722300157
84	260205	83	0.018735089777
84	263371	84	0.018734879345
84	266537	85	0.018721668866
84	269703	86	0.018734458334
84	272869	87	0.018721247745
84	276035	88	0.018734037111
84	279201	89	0.018733826409
84	282367	90	0.018733615662
84	285533	91	0.01872040485
84	288699	92	0.018733193985
84	291865	93	0.018732983058
84	295031	94	0.018732772073
84	298197	95	0.018719561023
84	301363	96	0.018732349918
84	304529	97	0.01873213875
84	307695	98	0.018731927519
84	310861	99	0.018731716229
84	314027	100	0.018731504877
85	2827	2	0
85	5993	3	0
85	9159	4	0
85	12325	5	0
85	15491	6	0
85	18657	7	0
85	21823	8	0
85	24989	9	0
85	28156	10	0
85	32253	11	0
85	35419	12	0
85	38585	13	0
85	41751	14	0
85	44917	15	0
85	48083	16	0
85	51249	17	0
85	54415	18	0
85	57581	19	0
85	60747	20	0
85	63913	21	0
85	67079	22	0
85	70245	23	0
85	73411	24	0
85	76577	25	0
85	79743	26	0
85	82909	27	0
85	86075	28	0
85	89241	29	0
85	92407	30	0
85	95573	31	0
85	98739	32	0
85	101905	33	0
85	105071	34	0
85	108237	35	0
85	111403	36	0
85	114569	37	0
85	117735	38	0
85	120901	39	0
85	124067	40	0
85	127233	41	0
85	130399	42	0
85	133565	43	0
85	136731	44	0
85	139897	45	0
85	143063	46	0
85	146229	47	0
85	149395	48	0
85	152561	49	0
85	155727	50	0
85	158893	51	0
85	162059	52	0
85	165225	53	0
85	168391	54	0
85	171557	55	0
85	174723	56	0
85	177889	57	0
85	181055	58	0
85	184221	59	0
85	187387	60	0
85	190553	61	0
85	193719	62	0
85	196885	63	0
85	200051	64	0
85	203217	65	0
85	206383	66	0
85	209549	67	0
85	212715	68	0
85	215881	69	0
85	219047	70	0
85	222213	71	0
85	225379	72	0
85	228545	73	0
85	231711	74	0
85	234877	75	0
85	238043	76	0
85	241209	77	0
85	244375	78	0
85	247541	79	0
85	250707	80	0
85	253873	81	0
85	257039	82	0
85	260205	83	0
85	263371	84	0
85	266537	85	0
85	269703	86	0
85	272869	87	0
85	276035	88	0
85	279201	89	0
85	282367	90	0
85	285533	91	0
85	288699	92	0
85	291865	93	0
85	295031	94	0
85	298197	95	0
85	301363	96	0
85	304529	97	0
85	307695	98	0
85	310861	99	0
85	314027	100	0

