version 3
run BreakRanksNoGui-800-20240710-17:47:21-276407
attr configname BreakRanksNoGui
attr datetime 20240710-17:47:21
attr datetimef 20240710-174721
attr experiment BreakRanksNoGui
attr inifile omnetpp.ini
attr iterationvars "$nCars=6, $platoonSize=6, $nLanes=1, $ploegH=0.5, $controller=1, $headway=0.1, $leaderHeadway=1.2, $leaderSpeed=130, $breakRanksSafetyDistance=2, $minSpeed=120, $maxSpeed=140, $beaconInterval=0.1, $priority=4, $packetSize=200, $sController=\"CACC\", $0=2, $1=0"
attr iterationvarsd nCars=6/platoonSize=6/nLanes=1/ploegH=0.5/controller=1/headway=0.1/leaderHeadway=1.2/leaderSpeed=130/breakRanksSafetyDistance=2/minSpeed=120/maxSpeed=140/beaconInterval=0.1/priority=4/packetSize=200/sController=CACC/2/0
attr iterationvarsf nCars=6,platoonSize=6,nLanes=1,ploegH=0.5,controller=1,headway=0.1,leaderHeadway=1.2,leaderSpeed=130,breakRanksSafetyDistance=2,minSpeed=120,maxSpeed=140,beaconInterval=0.1,priority=4,packetSize=200,sController=CACC,2,0-
attr measurement "$nCars=6, $platoonSize=6, $nLanes=1, $ploegH=0.5, $controller=1, $headway=0.1, $leaderHeadway=1.2, $leaderSpeed=130, $breakRanksSafetyDistance=2, $minSpeed=120, $maxSpeed=140, $beaconInterval=0.1, $priority=4, $packetSize=200, $sController=\"CACC\", $0=2, $1=0"
attr network Highway
attr processid 276407
attr repetition 0
attr replication #0
attr resultdir results
attr runnumber 800
attr seedset 0
itervar beaconInterval 0.1
itervar breakRanksSafetyDistance 2
itervar controller 1
itervar headway 0.1
itervar leaderHeadway 1.2
itervar leaderSpeed 130
itervar maxSpeed 140
itervar minSpeed 120
itervar nCars 6
itervar nLanes 1
itervar packetSize 200
itervar platoonSize 6
itervar ploegH 0.5
itervar priority 4
itervar sController "\"CACC\""
config image-path ../../../veins/images
config repeat 10
config extends BreakRanks
config *.manager.command "\"sumo\""
config *.manager.ignoreGuiCommands true
config output-vector-file "results/BreakRanks_1_0.1_130_2_6 /result_0.vec"
config output-scalar-file "results/BreakRanks_1_0.1_130_2_6 /result_0.sca"
config extends Platooning
config *.node[*].scenario_type "\"BreakRanksScenario\""
config *.manager.command "\"sumo-gui\""
config *.node[*].scenario_type "\"SimpleScenario\""
config cmdenv-express-mode true
config cmdenv-autoflush true
config cmdenv-status-frequency 15s
config num-rngs 6
config network Highway
config debug-on-errors true
config print-undisposed true
config *.playgroundSizeX 65000m
config *.playgroundSizeY 25000m
config *.playgroundSizeZ 50m
config sim-time-limit "100 s"
config *.annotations.draw false
config *.obstacles.debug false
config *.world.useTorus false
config *.world.use2D false
config *.manager.updateInterval 0.01s
config *.manager.host "\"localhost\""
config *.manager.moduleType "\"org.car2x.plexe.PlatoonCar\""
config *.manager.moduleName "\"node\""
config *.manager.moduleDisplayString "\"\""
config *.manager.autoShutdown true
config *.manager.margin 25
config *.connectionManager.sendDirect true
config *.connectionManager.maxInterfDist 2600m
config *.connectionManager.drawMaxIntfDist false
config *.**.nic.mac1609_4.useServiceChannel false
config *.**.nic.mac1609_4.txPower 100mW
config *.**.nic.mac1609_4.bitrate 6Mbps
config *.**.nic.mac1609_4.useAcks true
config *.**.nic.mac1609_4.ackErrorRate 0.0
config *.**.nic.mac1609_4.frameErrorRate 0.0
config *.**.nic.phy80211p.minPowerLevel -94dBm
config *.**.nic.phy80211p.maxTXPower 100mW
config *.**.nic.phy80211p.useNoiseFloor true
config *.**.nic.phy80211p.noiseFloor -95dBm
config *.**.nic.phy80211p.decider "xmldoc(\"config.xml\")"
config *.**.nic.phy80211p.analogueModels "xmldoc(\"config.xml\")"
config *.**.nic.phy80211p.usePropagationDelay true
config *.node[*].mobility.x 0
config *.node[*].mobility.y 0
config *.node[*].mobility.z 1.895
config seed-set 0
config **.seed 0
config *.node[*].prot.rng-0 2
config *.node[*].appl.rng-0 3
config *.node[*].scenario.rng-0 4
config **.traffic.rng-0 5
config *.manager.configFile "\"./sumocfg/freeway.sumo.cfg\""
config *.manager.launchConfig "xmldoc(\"./sumocfg/freeway.launchd.xml\")"
config **.numberOfCars 6
config **.numberOfCarsPerPlatoon 6
config **.numberOfLanes 1
config *.node[*].helper_type "\"PositionHelper\""
config *.node[*].scenario.caccC1 0.5
config *.node[*].scenario.caccXi 1
config *.node[*].scenario.caccOmegaN "0.2 Hz"
config *.node[*].scenario.caccSpacing "2 m"
config *.node[*].scenario.engineTau "0.5 s"
config *.node[*].scenario.ploegH 0.5s
config *.node[*].scenario.ploegKp 0.2
config *.node[*].scenario.ploegKd 0.7
config *.node[*].scenario.useRealisticEngine false
config *.node[*].scenario.useControllerAcceleration true
config *.node[*].scenario.nLanes 1
config **.numericController 1
config **.headway 0.1s
config *.node[*].scenario.accHeadway 0.1s
config *.node[*].scenario.leaderHeadway 1.2s
config *.node[*].scenario.leaderSpeed 130kmph
config *.node[*].appl_type "\"SimplePlatooningApp\""
config *.node[*].appl.*.scalar-recording true
config *.node[*].appl.*.vector-recording true
config *.node[0].appl.breakRanksSafetyDistance 2m
config *.node[*].appl.minSpeed 120kmph
config *.node[*].appl.maxSpeed 140kmph
config *.node[*].protocol_type "\"SimplePlatooningBeaconing\""
config *.node[*].prot.*.scalar-recording true
config *.node[*].prot.*.vector-recording true
config *.node[*].prot.beaconingInterval 0.1s
config *.node[*].prot.priority 4
config *.node[*].prot.packetSize 200
config **.traffic_type "\"PlatoonsTrafficManager\""
config **.traffic.platoonInsertTime "1 s"
config **.traffic.platoonInsertSpeed 130kmph
config **.traffic.nCars 6
config **.traffic.platoonSize 6
config **.traffic.nLanes 1
config **.traffic.platooningVType "\"vtypeauto\""
config **.traffic.controller "\"CACC\""
config **.traffic.platoonInsertDistance 2m
config **.traffic.platoonInsertHeadway 0s
config **.traffic.platoonLeaderHeadway 1.2s
config **.scalar-recording false
config **.vector-recording false

vector 0 Highway.node[0].appl distance ETV
vector 1 Highway.node[0].appl relativeSpeed ETV
vector 2 Highway.node[0].appl nodeId ETV
vector 3 Highway.node[0].appl acceleration ETV
vector 4 Highway.node[0].appl controllerAcceleration ETV
vector 5 Highway.node[0].appl speed ETV
vector 6 Highway.node[0].appl posx ETV
vector 7 Highway.node[0].appl posy ETV
vector 8 Highway.node[1].appl distance ETV
vector 9 Highway.node[1].appl relativeSpeed ETV
vector 10 Highway.node[1].appl nodeId ETV
vector 11 Highway.node[1].appl acceleration ETV
vector 12 Highway.node[1].appl controllerAcceleration ETV
vector 13 Highway.node[1].appl speed ETV
vector 14 Highway.node[1].appl posx ETV
vector 15 Highway.node[1].appl posy ETV
vector 16 Highway.node[2].appl distance ETV
vector 17 Highway.node[2].appl relativeSpeed ETV
vector 18 Highway.node[2].appl nodeId ETV
vector 19 Highway.node[2].appl acceleration ETV
vector 20 Highway.node[2].appl controllerAcceleration ETV
vector 21 Highway.node[2].appl speed ETV
vector 22 Highway.node[2].appl posx ETV
vector 23 Highway.node[2].appl posy ETV
vector 24 Highway.node[3].appl distance ETV
vector 25 Highway.node[3].appl relativeSpeed ETV
vector 26 Highway.node[3].appl nodeId ETV
vector 27 Highway.node[3].appl acceleration ETV
vector 28 Highway.node[3].appl controllerAcceleration ETV
vector 29 Highway.node[3].appl speed ETV
vector 30 Highway.node[3].appl posx ETV
vector 31 Highway.node[3].appl posy ETV
vector 32 Highway.node[4].appl distance ETV
vector 33 Highway.node[4].appl relativeSpeed ETV
vector 34 Highway.node[4].appl nodeId ETV
vector 35 Highway.node[4].appl acceleration ETV
vector 36 Highway.node[4].appl controllerAcceleration ETV
vector 37 Highway.node[4].appl speed ETV
vector 38 Highway.node[4].appl posx ETV
vector 39 Highway.node[4].appl posy ETV
vector 40 Highway.node[5].appl distance ETV
vector 41 Highway.node[5].appl relativeSpeed ETV
vector 42 Highway.node[5].appl nodeId ETV
vector 43 Highway.node[5].appl acceleration ETV
vector 44 Highway.node[5].appl controllerAcceleration ETV
vector 45 Highway.node[5].appl speed ETV
vector 46 Highway.node[5].appl posx ETV
vector 47 Highway.node[5].appl posy ETV
vector 48 Highway.node[3].prot frontDelay ETV
vector 49 Highway.node[3].prot frontDelayId ETV
vector 50 Highway.node[2].prot frontDelay ETV
vector 51 Highway.node[2].prot frontDelayId ETV
vector 52 Highway.node[1].prot leaderDelay ETV
vector 53 Highway.node[1].prot leaderDelayId ETV
vector 54 Highway.node[1].prot frontDelay ETV
vector 55 Highway.node[1].prot frontDelayId ETV
vector 56 Highway.node[2].prot leaderDelay ETV
vector 57 Highway.node[2].prot leaderDelayId ETV
vector 58 Highway.node[3].prot leaderDelay ETV
vector 59 Highway.node[3].prot leaderDelayId ETV
vector 60 Highway.node[4].prot leaderDelay ETV
vector 61 Highway.node[4].prot leaderDelayId ETV
vector 62 Highway.node[5].prot leaderDelay ETV
vector 63 Highway.node[5].prot leaderDelayId ETV
vector 64 Highway.node[5].prot frontDelay ETV
vector 65 Highway.node[5].prot frontDelayId ETV
vector 66 Highway.node[4].prot frontDelay ETV
vector 67 Highway.node[4].prot frontDelayId ETV
vector 68 Highway.node[0].prot nodeId ETV
vector 69 Highway.node[0].prot busyTime ETV
vector 70 Highway.node[0].prot collisions ETV
vector 71 Highway.node[1].prot nodeId ETV
vector 72 Highway.node[1].prot busyTime ETV
vector 73 Highway.node[1].prot collisions ETV
vector 74 Highway.node[2].prot nodeId ETV
vector 75 Highway.node[2].prot busyTime ETV
vector 76 Highway.node[2].prot collisions ETV
vector 77 Highway.node[3].prot nodeId ETV
vector 78 Highway.node[3].prot busyTime ETV
vector 79 Highway.node[3].prot collisions ETV
vector 80 Highway.node[4].prot nodeId ETV
vector 81 Highway.node[4].prot busyTime ETV
vector 82 Highway.node[4].prot collisions ETV
vector 83 Highway.node[5].prot nodeId ETV
vector 84 Highway.node[5].prot busyTime ETV
vector 85 Highway.node[5].prot collisions ETV
0	113	1.11	-1
0	429	1.21	-1
0	745	1.31	-1
0	1061	1.41	-1
0	1377	1.51	-1
0	1693	1.61	-1
0	2009	1.71	-1
0	2325	1.81	-1
0	2641	1.91	-1
0	2963	2.01	-1
0	3279	2.11	-1
0	3595	2.21	-1
0	3911	2.31	-1
0	4227	2.41	-1
0	4543	2.51	-1
0	4859	2.61	-1
0	5175	2.71	-1
0	5491	2.81	-1
0	5807	2.91	-1
0	6129	3.01	-1
0	6445	3.11	-1
0	6761	3.21	-1
0	7077	3.31	-1
0	7393	3.41	-1
0	7709	3.51	-1
0	8025	3.61	-1
0	8341	3.71	-1
0	8657	3.81	-1
0	8973	3.91	-1
0	9295	4.01	-1
0	9611	4.11	-1
0	9927	4.21	-1
0	10243	4.31	-1
0	10559	4.41	-1
0	10875	4.51	-1
0	11191	4.61	-1
0	11507	4.71	-1
0	11823	4.81	-1
0	12139	4.91	-1
0	12461	5.01	-1
0	12777	5.11	-1
0	13093	5.21	-1
0	13409	5.31	-1
0	13725	5.41	-1
0	14041	5.51	-1
0	14357	5.61	-1
0	14673	5.71	-1
0	14989	5.81	-1
0	15305	5.91	-1
0	15627	6.01	-1
0	15943	6.11	-1
0	16259	6.21	-1
0	16575	6.31	-1
0	16891	6.41	-1
0	17207	6.51	-1
0	17523	6.61	-1
0	17839	6.71	-1
0	18155	6.81	-1
0	18471	6.91	-1
0	18793	7.01	-1
0	19109	7.11	-1
0	19425	7.21	-1
0	19741	7.31	-1
0	20057	7.41	-1
0	20373	7.51	-1
0	20689	7.61	-1
0	21005	7.71	-1
0	21321	7.81	-1
0	21637	7.91	-1
0	21959	8.01	-1
0	22275	8.11	-1
0	22591	8.21	-1
0	22907	8.31	-1
0	23223	8.41	-1
0	23539	8.51	-1
0	23855	8.61	-1
0	24171	8.71	-1
0	24487	8.81	-1
0	24803	8.91	-1
0	25125	9.01	-1
0	25441	9.11	-1
0	25757	9.21	-1
0	26073	9.31	-1
0	26389	9.41	-1
0	26705	9.51	-1
0	27021	9.61	-1
0	27337	9.71	-1
0	27653	9.81	-1
0	27969	9.91	-1
0	29223	10.01	-1
0	29539	10.11	-1
0	29855	10.21	-1
0	30171	10.31	-1
0	30487	10.41	-1
0	30803	10.51	-1
0	31119	10.61	-1
0	31435	10.71	-1
0	31751	10.81	-1
0	32067	10.91	-1
0	32389	11.01	-1
0	32705	11.11	-1
0	33021	11.21	-1
0	33337	11.31	-1
0	33653	11.41	-1
0	33969	11.51	-1
0	34285	11.61	-1
0	34601	11.71	-1
0	34917	11.81	-1
0	35233	11.91	-1
0	35555	12.01	-1
0	35871	12.11	-1
0	36187	12.21	-1
0	36503	12.31	-1
0	36819	12.41	-1
0	37135	12.51	-1
0	37451	12.61	-1
0	37767	12.71	-1
0	38083	12.81	-1
0	38399	12.91	-1
0	38721	13.01	-1
0	39037	13.11	-1
0	39353	13.21	-1
0	39669	13.31	-1
0	39985	13.41	-1
0	40301	13.51	-1
0	40617	13.61	-1
0	40933	13.71	-1
0	41249	13.81	-1
0	41565	13.91	-1
0	41887	14.01	-1
0	42203	14.11	-1
0	42519	14.21	-1
0	42835	14.31	-1
0	43151	14.41	-1
0	43467	14.51	-1
0	43783	14.61	-1
0	44099	14.71	-1
0	44415	14.81	-1
0	44731	14.91	-1
0	45053	15.01	-1
0	45369	15.11	-1
0	45685	15.21	-1
0	46001	15.31	-1
0	46317	15.41	-1
0	46633	15.51	-1
0	46949	15.61	-1
0	47265	15.71	-1
0	47581	15.81	-1
0	47897	15.91	-1
0	48219	16.01	-1
0	48535	16.11	-1
0	48851	16.21	-1
0	49167	16.31	-1
0	49483	16.41	-1
0	49799	16.51	-1
0	50115	16.61	-1
0	50431	16.71	-1
0	50747	16.81	-1
0	51063	16.91	-1
0	51385	17.01	-1
0	51701	17.11	-1
0	52017	17.21	-1
0	52333	17.31	-1
0	52649	17.41	-1
0	52965	17.51	-1
0	53281	17.61	-1
0	53597	17.71	-1
0	53913	17.81	-1
0	54229	17.91	-1
0	54551	18.01	-1
0	54867	18.11	-1
0	55183	18.21	-1
0	55499	18.31	-1
0	55815	18.41	-1
0	56131	18.51	-1
0	56447	18.61	-1
0	56763	18.71	-1
0	57079	18.81	-1
0	57395	18.91	-1
0	57717	19.01	-1
0	58033	19.11	-1
0	58349	19.21	-1
0	58665	19.31	-1
0	58981	19.41	-1
0	59297	19.51	-1
0	59613	19.61	-1
0	59929	19.71	-1
0	60245	19.81	-1
0	60561	19.91	-1
0	60883	20.01	-1
0	61199	20.11	-1
0	61515	20.21	-1
0	61831	20.31	-1
0	62147	20.41	-1
0	62463	20.51	-1
0	62779	20.61	-1
0	63095	20.71	-1
0	63411	20.81	-1
0	63727	20.91	-1
0	64049	21.01	-1
0	64365	21.11	-1
0	64681	21.21	-1
0	64997	21.31	-1
0	65313	21.41	-1
0	65629	21.51	-1
0	65945	21.61	-1
0	66261	21.71	-1
0	66577	21.81	-1
0	66893	21.91	-1
0	67215	22.01	-1
0	67531	22.11	-1
0	67847	22.21	-1
0	68163	22.31	-1
0	68479	22.41	-1
0	68795	22.51	-1
0	69111	22.61	-1
0	69427	22.71	-1
0	69743	22.81	-1
0	70059	22.91	-1
0	70381	23.01	-1
0	70697	23.11	-1
0	71013	23.21	-1
0	71329	23.31	-1
0	71645	23.41	-1
0	71961	23.51	-1
0	72277	23.61	-1
0	72593	23.71	-1
0	72909	23.81	-1
0	73225	23.91	-1
0	73547	24.01	-1
0	73863	24.11	-1
0	74179	24.21	-1
0	74495	24.31	-1
0	74811	24.41	-1
0	75127	24.51	-1
0	75443	24.61	-1
0	75759	24.71	-1
0	76075	24.81	-1
0	76391	24.91	-1
0	76713	25.01	-1
0	77029	25.11	-1
0	77345	25.21	-1
0	77661	25.31	-1
0	77977	25.41	-1
0	78293	25.51	-1
0	78609	25.61	-1
0	78925	25.71	-1
0	79241	25.81	-1
0	79557	25.91	-1
0	79879	26.01	-1
0	80195	26.11	-1
0	80511	26.21	-1
0	80827	26.31	-1
0	81143	26.41	-1
0	81459	26.51	-1
0	81775	26.61	-1
0	82091	26.71	-1
0	82407	26.81	-1
0	82723	26.91	-1
0	83045	27.01	-1
0	83361	27.11	-1
0	83677	27.21	-1
0	83993	27.31	-1
0	84309	27.41	-1
0	84625	27.51	-1
0	84941	27.61	-1
0	85257	27.71	-1
0	85573	27.81	-1
0	85889	27.91	-1
0	86211	28.01	-1
0	86527	28.11	-1
0	86843	28.21	-1
0	87159	28.31	-1
0	87475	28.41	-1
0	87791	28.51	-1
0	88107	28.61	-1
0	88423	28.71	-1
0	88739	28.81	-1
0	89055	28.91	-1
0	89377	29.01	-1
0	89693	29.11	-1
0	90009	29.21	-1
0	90325	29.31	-1
0	90641	29.41	-1
0	90957	29.51	-1
0	91273	29.61	-1
0	91589	29.71	-1
0	91905	29.81	-1
0	92221	29.91	-1
0	92543	30.01	-1
0	92859	30.11	-1
0	93175	30.21	-1
0	93491	30.31	-1
0	93807	30.41	-1
0	94123	30.51	-1
0	94439	30.61	-1
0	94755	30.71	-1
0	95071	30.81	-1
0	95387	30.91	-1
0	95709	31.01	-1
0	96025	31.11	-1
0	96341	31.21	-1
0	96657	31.31	-1
0	96973	31.41	-1
0	97289	31.51	-1
0	97605	31.61	-1
0	97921	31.71	-1
0	98237	31.81	-1
0	98553	31.91	-1
0	98875	32.01	-1
0	99191	32.11	-1
0	99507	32.21	-1
0	99823	32.31	-1
0	100139	32.41	-1
0	100455	32.51	-1
0	100771	32.61	-1
0	101087	32.71	-1
0	101403	32.81	-1
0	101719	32.91	-1
0	102041	33.01	-1
0	102357	33.11	-1
0	102673	33.21	-1
0	102989	33.31	-1
0	103305	33.41	-1
0	103621	33.51	-1
0	103937	33.61	-1
0	104253	33.71	-1
0	104569	33.81	-1
0	104885	33.91	-1
0	105207	34.01	-1
0	105523	34.11	-1
0	105839	34.21	-1
0	106155	34.31	-1
0	106471	34.41	-1
0	106787	34.51	-1
0	107103	34.61	-1
0	107419	34.71	-1
0	107735	34.81	-1
0	108051	34.91	-1
0	108373	35.01	-1
0	108689	35.11	-1
0	109005	35.21	-1
0	109321	35.31	-1
0	109637	35.41	-1
0	109953	35.51	-1
0	110269	35.61	-1
0	110585	35.71	-1
0	110901	35.81	-1
0	111217	35.91	-1
0	111539	36.01	-1
0	111855	36.11	-1
0	112171	36.21	-1
0	112487	36.31	-1
0	112803	36.41	-1
0	113119	36.51	-1
0	113435	36.61	-1
0	113751	36.71	-1
0	114067	36.81	-1
0	114383	36.91	-1
0	114705	37.01	-1
0	115021	37.11	-1
0	115337	37.21	-1
0	115653	37.31	-1
0	115969	37.41	-1
0	116285	37.51	-1
0	116601	37.61	-1
0	116917	37.71	-1
0	117233	37.81	-1
0	117549	37.91	-1
0	117871	38.01	-1
0	118187	38.11	-1
0	118503	38.21	-1
0	118819	38.31	-1
0	119135	38.41	-1
0	119451	38.51	-1
0	119767	38.61	-1
0	120083	38.71	-1
0	120399	38.81	-1
0	120715	38.91	-1
0	121037	39.01	-1
0	121353	39.11	-1
0	121669	39.21	-1
0	121985	39.31	-1
0	122301	39.41	-1
0	122617	39.51	-1
0	122933	39.61	-1
0	123249	39.71	-1
0	123565	39.81	-1
0	123881	39.91	-1
0	124203	40.01	-1
0	124519	40.11	-1
0	124835	40.21	-1
0	125151	40.31	-1
0	125467	40.41	-1
0	125783	40.51	-1
0	126099	40.61	-1
0	126415	40.71	-1
0	126731	40.81	-1
0	127047	40.91	-1
0	127369	41.01	-1
0	127685	41.11	-1
0	128001	41.21	-1
0	128317	41.31	-1
0	128633	41.41	-1
0	128949	41.51	-1
0	129265	41.61	-1
0	129581	41.71	-1
0	129897	41.81	-1
0	130213	41.91	-1
0	130535	42.01	-1
0	130851	42.11	-1
0	131167	42.21	-1
0	131483	42.31	-1
0	131799	42.41	-1
0	132115	42.51	-1
0	132431	42.61	-1
0	132747	42.71	-1
0	133063	42.81	-1
0	133379	42.91	-1
0	133701	43.01	-1
0	134017	43.11	-1
0	134333	43.21	-1
0	134649	43.31	-1
0	134965	43.41	-1
0	135281	43.51	-1
0	135597	43.61	-1
0	135913	43.71	-1
0	136229	43.81	-1
0	136545	43.91	-1
0	136867	44.01	-1
0	137183	44.11	-1
0	137499	44.21	-1
0	137815	44.31	-1
0	138131	44.41	-1
0	138447	44.51	-1
0	138763	44.61	-1
0	139079	44.71	-1
0	139395	44.81	-1
0	139711	44.91	-1
0	140033	45.01	-1
0	140349	45.11	-1
0	140665	45.21	-1
0	140981	45.31	-1
0	141297	45.41	-1
0	141613	45.51	-1
0	141929	45.61	-1
0	142245	45.71	-1
0	142561	45.81	-1
0	142877	45.91	-1
0	143199	46.01	-1
0	143515	46.11	-1
0	143831	46.21	-1
0	144147	46.31	-1
0	144463	46.41	-1
0	144779	46.51	-1
0	145095	46.61	-1
0	145411	46.71	-1
0	145727	46.81	-1
0	146043	46.91	-1
0	146365	47.01	-1
0	146681	47.11	-1
0	146997	47.21	-1
0	147313	47.31	-1
0	147629	47.41	-1
0	147945	47.51	-1
0	148261	47.61	-1
0	148577	47.71	-1
0	148893	47.81	-1
0	149209	47.91	-1
0	149531	48.01	-1
0	149847	48.11	-1
0	150163	48.21	-1
0	150479	48.31	-1
0	150795	48.41	-1
0	151111	48.51	-1
0	151427	48.61	-1
0	151743	48.71	-1
0	152059	48.81	-1
0	152375	48.91	-1
0	152697	49.01	-1
0	153013	49.11	-1
0	153329	49.21	-1
0	153645	49.31	-1
0	153961	49.41	-1
0	154277	49.51	-1
0	154593	49.61	-1
0	154909	49.71	-1
0	155225	49.81	-1
0	155541	49.91	-1
0	155863	50.01	-1
0	156179	50.11	-1
0	156495	50.21	-1
0	156811	50.31	-1
0	157127	50.41	-1
0	157443	50.51	-1
0	157759	50.61	-1
0	158075	50.71	-1
0	158391	50.81	-1
0	158707	50.91	-1
0	159029	51.01	-1
0	159345	51.11	-1
0	159661	51.21	-1
0	159977	51.31	-1
0	160293	51.41	-1
0	160609	51.51	-1
0	160925	51.61	-1
0	161241	51.71	-1
0	161557	51.81	-1
0	161873	51.91	-1
0	162195	52.01	-1
0	162511	52.11	-1
0	162827	52.21	-1
0	163143	52.31	-1
0	163459	52.41	-1
0	163775	52.51	-1
0	164091	52.61	-1
0	164407	52.71	-1
0	164723	52.81	-1
0	165039	52.91	-1
0	165361	53.01	-1
0	165677	53.11	-1
0	165993	53.21	-1
0	166309	53.31	-1
0	166625	53.41	-1
0	166941	53.51	-1
0	167257	53.61	-1
0	167573	53.71	-1
0	167889	53.81	-1
0	168205	53.91	-1
0	168527	54.01	-1
0	168843	54.11	-1
0	169159	54.21	-1
0	169475	54.31	-1
0	169791	54.41	-1
0	170107	54.51	-1
0	170423	54.61	-1
0	170739	54.71	-1
0	171055	54.81	-1
0	171371	54.91	-1
0	171693	55.01	-1
0	172009	55.11	-1
0	172325	55.21	-1
0	172641	55.31	-1
0	172957	55.41	-1
0	173273	55.51	-1
0	173589	55.61	-1
0	173905	55.71	-1
0	174221	55.81	-1
0	174537	55.91	-1
0	174859	56.01	-1
0	175175	56.11	-1
0	175491	56.21	-1
0	175807	56.31	-1
0	176123	56.41	-1
0	176439	56.51	-1
0	176755	56.61	-1
0	177071	56.71	-1
0	177387	56.81	-1
0	177703	56.91	-1
0	178025	57.01	-1
0	178341	57.11	-1
0	178657	57.21	-1
0	178973	57.31	-1
0	179289	57.41	-1
0	179605	57.51	-1
0	179921	57.61	-1
0	180237	57.71	-1
0	180553	57.81	-1
0	180869	57.91	-1
0	181191	58.01	-1
0	181507	58.11	-1
0	181823	58.21	-1
0	182139	58.31	-1
0	182455	58.41	-1
0	182771	58.51	-1
0	183087	58.61	-1
0	183403	58.71	-1
0	183719	58.81	-1
0	184035	58.91	-1
0	184357	59.01	-1
0	184673	59.11	-1
0	184989	59.21	-1
0	185305	59.31	-1
0	185621	59.41	-1
0	185937	59.51	-1
0	186253	59.61	-1
0	186569	59.71	-1
0	186885	59.81	-1
0	187201	59.91	-1
0	187523	60.01	-1
0	187839	60.11	-1
0	188155	60.21	-1
0	188471	60.31	-1
0	188787	60.41	-1
0	189103	60.51	-1
0	189419	60.61	-1
0	189735	60.71	-1
0	190051	60.81	-1
0	190367	60.91	-1
0	190689	61.01	-1
0	191005	61.11	-1
0	191321	61.21	-1
0	191637	61.31	-1
0	191953	61.41	-1
0	192269	61.51	-1
0	192585	61.61	-1
0	192901	61.71	-1
0	193217	61.81	-1
0	193533	61.91	-1
0	193855	62.01	-1
0	194171	62.11	-1
0	194487	62.21	-1
0	194803	62.31	-1
0	195119	62.41	-1
0	195435	62.51	-1
0	195751	62.61	-1
0	196067	62.71	-1
0	196383	62.81	-1
0	196699	62.91	-1
0	197021	63.01	-1
0	197337	63.11	-1
0	197653	63.21	-1
0	197969	63.31	-1
0	198285	63.41	-1
0	198601	63.51	-1
0	198917	63.61	-1
0	199233	63.71	-1
0	199549	63.81	-1
0	199865	63.91	-1
0	200187	64.01	-1
0	200503	64.11	-1
0	200819	64.21	-1
0	201135	64.31	-1
0	201451	64.41	-1
0	201767	64.51	-1
0	202083	64.61	-1
0	202399	64.71	-1
0	202715	64.81	-1
0	203031	64.91	-1
0	203353	65.01	-1
0	203669	65.11	-1
0	203985	65.21	-1
0	204301	65.31	-1
0	204617	65.41	-1
0	204933	65.51	-1
0	205249	65.61	-1
0	205565	65.71	-1
0	205881	65.81	-1
0	206197	65.91	-1
0	206519	66.01	-1
0	206835	66.11	-1
0	207151	66.21	-1
0	207467	66.31	-1
0	207783	66.41	-1
0	208099	66.51	-1
0	208415	66.61	-1
0	208731	66.71	-1
0	209047	66.81	-1
0	209363	66.91	-1
0	209685	67.01	-1
0	210001	67.11	-1
0	210317	67.21	-1
0	210633	67.31	-1
0	210949	67.41	-1
0	211265	67.51	-1
0	211581	67.61	-1
0	211897	67.71	-1
0	212213	67.81	-1
0	212529	67.91	-1
0	212851	68.01	-1
0	213167	68.11	-1
0	213483	68.21	-1
0	213799	68.31	-1
0	214115	68.41	-1
0	214431	68.51	-1
0	214747	68.61	-1
0	215063	68.71	-1
0	215379	68.81	-1
0	215695	68.91	-1
0	216017	69.01	-1
0	216333	69.11	-1
0	216649	69.21	-1
0	216965	69.31	-1
0	217281	69.41	-1
0	217597	69.51	-1
0	217913	69.61	-1
0	218229	69.71	-1
0	218545	69.81	-1
0	218861	69.91	-1
0	219183	70.01	-1
0	219499	70.11	-1
0	219815	70.21	-1
0	220131	70.31	-1
0	220447	70.41	-1
0	220763	70.51	-1
0	221079	70.61	-1
0	221395	70.71	-1
0	221711	70.81	-1
0	222027	70.91	-1
0	222349	71.01	-1
0	222665	71.11	-1
0	222981	71.21	-1
0	223297	71.31	-1
0	223613	71.41	-1
0	223929	71.51	-1
0	224245	71.61	-1
0	224561	71.71	-1
0	224877	71.81	-1
0	225193	71.91	-1
0	225515	72.01	-1
0	225831	72.11	-1
0	226147	72.21	-1
0	226463	72.31	-1
0	226779	72.41	-1
0	227095	72.51	-1
0	227411	72.61	-1
0	227727	72.71	-1
0	228043	72.81	-1
0	228359	72.91	-1
0	228681	73.01	-1
0	228997	73.11	-1
0	229313	73.21	-1
0	229629	73.31	-1
0	229945	73.41	-1
0	230261	73.51	-1
0	230577	73.61	-1
0	230893	73.71	-1
0	231209	73.81	-1
0	231525	73.91	-1
0	231847	74.01	-1
0	232163	74.11	-1
0	232479	74.21	-1
0	232795	74.31	-1
0	233111	74.41	-1
0	233427	74.51	-1
0	233743	74.61	-1
0	234059	74.71	-1
0	234375	74.81	-1
0	234691	74.91	-1
0	235013	75.01	-1
0	235329	75.11	-1
0	235645	75.21	-1
0	235961	75.31	-1
0	236277	75.41	-1
0	236593	75.51	-1
0	236909	75.61	-1
0	237225	75.71	-1
0	237541	75.81	-1
0	237857	75.91	-1
0	238179	76.01	-1
0	238495	76.11	-1
0	238811	76.21	-1
0	239127	76.31	-1
0	239443	76.41	-1
0	239759	76.51	-1
0	240075	76.61	-1
0	240391	76.71	-1
0	240707	76.81	-1
0	241023	76.91	-1
0	241345	77.01	-1
0	241661	77.11	-1
0	241977	77.21	-1
0	242293	77.31	-1
0	242609	77.41	-1
0	242925	77.51	-1
0	243241	77.61	-1
0	243557	77.71	-1
0	243873	77.81	-1
0	244189	77.91	-1
0	244511	78.01	-1
0	244827	78.11	-1
0	245143	78.21	-1
0	245459	78.31	-1
0	245775	78.41	-1
0	246091	78.51	-1
0	246407	78.61	-1
0	246723	78.71	-1
0	247039	78.81	-1
0	247355	78.91	-1
0	247677	79.01	-1
0	247993	79.11	-1
0	248309	79.21	-1
0	248625	79.31	-1
0	248941	79.41	-1
0	249257	79.51	-1
0	249573	79.61	-1
0	249889	79.71	-1
0	250205	79.81	-1
0	250521	79.91	-1
0	250843	80.01	-1
0	251159	80.11	-1
0	251475	80.21	-1
0	251791	80.31	-1
0	252107	80.41	-1
0	252423	80.51	-1
0	252739	80.61	-1
0	253055	80.71	-1
0	253371	80.81	-1
0	253687	80.91	-1
0	254009	81.01	-1
0	254325	81.11	-1
0	254641	81.21	-1
0	254957	81.31	-1
0	255273	81.41	-1
0	255589	81.51	-1
0	255905	81.61	-1
0	256221	81.71	-1
0	256537	81.81	-1
0	256853	81.91	-1
0	257175	82.01	-1
0	257491	82.11	-1
0	257807	82.21	-1
0	258123	82.31	-1
0	258439	82.41	-1
0	258755	82.51	-1
0	259071	82.61	-1
0	259387	82.71	-1
0	259703	82.81	-1
0	260019	82.91	-1
0	260341	83.01	-1
0	260657	83.11	-1
0	260973	83.21	-1
0	261289	83.31	-1
0	261605	83.41	-1
0	261921	83.51	-1
0	262237	83.61	-1
0	262553	83.71	-1
0	262869	83.81	-1
0	263185	83.91	-1
0	263507	84.01	-1
0	263823	84.11	-1
0	264139	84.21	-1
0	264455	84.31	-1
0	264771	84.41	-1
0	265087	84.51	-1
0	265403	84.61	-1
0	265719	84.71	-1
0	266035	84.81	-1
0	266351	84.91	-1
0	266673	85.01	-1
0	266989	85.11	-1
0	267305	85.21	-1
0	267621	85.31	-1
0	267937	85.41	-1
0	268253	85.51	-1
0	268569	85.61	-1
0	268885	85.71	-1
0	269201	85.81	-1
0	269517	85.91	-1
0	269839	86.01	-1
0	270155	86.11	-1
0	270471	86.21	-1
0	270787	86.31	-1
0	271103	86.41	-1
0	271419	86.51	-1
0	271735	86.61	-1
0	272051	86.71	-1
0	272367	86.81	-1
0	272683	86.91	-1
0	273005	87.01	-1
0	273321	87.11	-1
0	273637	87.21	-1
0	273953	87.31	-1
0	274269	87.41	-1
0	274585	87.51	-1
0	274901	87.61	-1
0	275217	87.71	-1
0	275533	87.81	-1
0	275849	87.91	-1
0	276171	88.01	-1
0	276487	88.11	-1
0	276803	88.21	-1
0	277119	88.31	-1
0	277435	88.41	-1
0	277751	88.51	-1
0	278067	88.61	-1
0	278383	88.71	-1
0	278699	88.81	-1
0	279015	88.91	-1
0	279337	89.01	-1
0	279653	89.11	-1
0	279969	89.21	-1
0	280285	89.31	-1
0	280601	89.41	-1
0	280917	89.51	-1
0	281233	89.61	-1
0	281549	89.71	-1
0	281865	89.81	-1
0	282181	89.91	-1
0	282503	90.01	-1
0	282819	90.11	-1
0	283135	90.21	-1
0	283451	90.31	-1
0	283767	90.41	-1
0	284083	90.51	-1
0	284399	90.61	-1
0	284715	90.71	-1
0	285031	90.81	-1
0	285347	90.91	-1
0	285669	91.01	-1
0	285985	91.11	-1
0	286301	91.21	-1
0	286617	91.31	-1
0	286933	91.41	-1
0	287249	91.51	-1
0	287565	91.61	-1
0	287881	91.71	-1
0	288197	91.81	-1
0	288513	91.91	-1
0	288835	92.01	-1
0	289151	92.11	-1
0	289467	92.21	-1
0	289783	92.31	-1
0	290099	92.41	-1
0	290415	92.51	-1
0	290731	92.61	-1
0	291047	92.71	-1
0	291363	92.81	-1
0	291679	92.91	-1
0	292001	93.01	-1
0	292317	93.11	-1
0	292633	93.21	-1
0	292949	93.31	-1
0	293265	93.41	-1
0	293581	93.51	-1
0	293897	93.61	-1
0	294213	93.71	-1
0	294529	93.81	-1
0	294845	93.91	-1
0	295167	94.01	-1
0	295483	94.11	-1
0	295799	94.21	-1
0	296115	94.31	-1
0	296431	94.41	-1
0	296747	94.51	-1
0	297063	94.61	-1
0	297379	94.71	-1
0	297695	94.81	-1
0	298011	94.91	-1
0	298333	95.01	-1
0	298649	95.11	-1
0	298965	95.21	-1
0	299281	95.31	-1
0	299597	95.41	-1
0	299913	95.51	-1
0	300229	95.61	-1
0	300545	95.71	-1
0	300861	95.81	-1
0	301177	95.91	-1
0	301499	96.01	-1
0	301815	96.11	-1
0	302131	96.21	-1
0	302447	96.31	-1
0	302763	96.41	-1
0	303079	96.51	-1
0	303395	96.61	-1
0	303711	96.71	-1
0	304027	96.81	-1
0	304343	96.91	-1
0	304665	97.01	-1
0	304981	97.11	-1
0	305297	97.21	-1
0	305613	97.31	-1
0	305929	97.41	-1
0	306245	97.51	-1
0	306561	97.61	-1
0	306877	97.71	-1
0	307193	97.81	-1
0	307509	97.91	-1
0	307831	98.01	-1
0	308147	98.11	-1
0	308463	98.21	-1
0	308779	98.31	-1
0	309095	98.41	-1
0	309411	98.51	-1
0	309727	98.61	-1
0	310043	98.71	-1
0	310359	98.81	-1
0	310675	98.91	-1
0	310997	99.01	-1
0	311313	99.11	-1
0	311629	99.21	-1
0	311945	99.31	-1
0	312261	99.41	-1
0	312577	99.51	-1
0	312893	99.61	-1
0	313209	99.71	-1
0	313525	99.81	-1
0	313841	99.91	-1
1	113	1.11	0
1	429	1.21	0
1	745	1.31	0
1	1061	1.41	0
1	1377	1.51	0
1	1693	1.61	0
1	2009	1.71	0
1	2325	1.81	0
1	2641	1.91	0
1	2963	2.01	0
1	3279	2.11	0
1	3595	2.21	0
1	3911	2.31	0
1	4227	2.41	0
1	4543	2.51	0
1	4859	2.61	0
1	5175	2.71	0
1	5491	2.81	0
1	5807	2.91	0
1	6129	3.01	0
1	6445	3.11	0
1	6761	3.21	0
1	7077	3.31	0
1	7393	3.41	0
1	7709	3.51	0
1	8025	3.61	0
1	8341	3.71	0
1	8657	3.81	0
1	8973	3.91	0
1	9295	4.01	0
1	9611	4.11	0
1	9927	4.21	0
1	10243	4.31	0
1	10559	4.41	0
1	10875	4.51	0
1	11191	4.61	0
1	11507	4.71	0
1	11823	4.81	0
1	12139	4.91	0
1	12461	5.01	0
1	12777	5.11	0
1	13093	5.21	0
1	13409	5.31	0
1	13725	5.41	0
1	14041	5.51	0
1	14357	5.61	0
1	14673	5.71	0
1	14989	5.81	0
1	15305	5.91	0
1	15627	6.01	0
1	15943	6.11	0
1	16259	6.21	0
1	16575	6.31	0
1	16891	6.41	0
1	17207	6.51	0
1	17523	6.61	0
1	17839	6.71	0
1	18155	6.81	0
1	18471	6.91	0
1	18793	7.01	0
1	19109	7.11	0
1	19425	7.21	0
1	19741	7.31	0
1	20057	7.41	0
1	20373	7.51	0
1	20689	7.61	0
1	21005	7.71	0
1	21321	7.81	0
1	21637	7.91	0
1	21959	8.01	0
1	22275	8.11	0
1	22591	8.21	0
1	22907	8.31	0
1	23223	8.41	0
1	23539	8.51	0
1	23855	8.61	0
1	24171	8.71	0
1	24487	8.81	0
1	24803	8.91	0
1	25125	9.01	0
1	25441	9.11	0
1	25757	9.21	0
1	26073	9.31	0
1	26389	9.41	0
1	26705	9.51	0
1	27021	9.61	0
1	27337	9.71	0
1	27653	9.81	0
1	27969	9.91	0
1	29223	10.01	0
1	29539	10.11	0
1	29855	10.21	0
1	30171	10.31	0
1	30487	10.41	0
1	30803	10.51	0
1	31119	10.61	0
1	31435	10.71	0
1	31751	10.81	0
1	32067	10.91	0
1	32389	11.01	0
1	32705	11.11	0
1	33021	11.21	0
1	33337	11.31	0
1	33653	11.41	0
1	33969	11.51	0
1	34285	11.61	0
1	34601	11.71	0
1	34917	11.81	0
1	35233	11.91	0
1	35555	12.01	0
1	35871	12.11	0
1	36187	12.21	0
1	36503	12.31	0
1	36819	12.41	0
1	37135	12.51	0
1	37451	12.61	0
1	37767	12.71	0
1	38083	12.81	0
1	38399	12.91	0
1	38721	13.01	0
1	39037	13.11	0
1	39353	13.21	0
1	39669	13.31	0
1	39985	13.41	0
1	40301	13.51	0
1	40617	13.61	0
1	40933	13.71	0
1	41249	13.81	0
1	41565	13.91	0
1	41887	14.01	0
1	42203	14.11	0
1	42519	14.21	0
1	42835	14.31	0
1	43151	14.41	0
1	43467	14.51	0
1	43783	14.61	0
1	44099	14.71	0
1	44415	14.81	0
1	44731	14.91	0
1	45053	15.01	0
1	45369	15.11	0
1	45685	15.21	0
1	46001	15.31	0
1	46317	15.41	0
1	46633	15.51	0
1	46949	15.61	0
1	47265	15.71	0
1	47581	15.81	0
1	47897	15.91	0
1	48219	16.01	0
1	48535	16.11	0
1	48851	16.21	0
1	49167	16.31	0
1	49483	16.41	0
1	49799	16.51	0
1	50115	16.61	0
1	50431	16.71	0
1	50747	16.81	0
1	51063	16.91	0
1	51385	17.01	0
1	51701	17.11	0
1	52017	17.21	0
1	52333	17.31	0
1	52649	17.41	0
1	52965	17.51	0
1	53281	17.61	0
1	53597	17.71	0
1	53913	17.81	0
1	54229	17.91	0
1	54551	18.01	0
1	54867	18.11	0
1	55183	18.21	0
1	55499	18.31	0
1	55815	18.41	0
1	56131	18.51	0
1	56447	18.61	0
1	56763	18.71	0
1	57079	18.81	0
1	57395	18.91	0
1	57717	19.01	0
1	58033	19.11	0
1	58349	19.21	0
1	58665	19.31	0
1	58981	19.41	0
1	59297	19.51	0
1	59613	19.61	0
1	59929	19.71	0
1	60245	19.81	0
1	60561	19.91	0
1	60883	20.01	0
1	61199	20.11	0
1	61515	20.21	0
1	61831	20.31	0
1	62147	20.41	0
1	62463	20.51	0
1	62779	20.61	0
1	63095	20.71	0
1	63411	20.81	0
1	63727	20.91	0
1	64049	21.01	0
1	64365	21.11	0
1	64681	21.21	0
1	64997	21.31	0
1	65313	21.41	0
1	65629	21.51	0
1	65945	21.61	0
1	66261	21.71	0
1	66577	21.81	0
1	66893	21.91	0
1	67215	22.01	0
1	67531	22.11	0
1	67847	22.21	0
1	68163	22.31	0
1	68479	22.41	0
1	68795	22.51	0
1	69111	22.61	0
1	69427	22.71	0
1	69743	22.81	0
1	70059	22.91	0
1	70381	23.01	0
1	70697	23.11	0
1	71013	23.21	0
1	71329	23.31	0
1	71645	23.41	0
1	71961	23.51	0
1	72277	23.61	0
1	72593	23.71	0
1	72909	23.81	0
1	73225	23.91	0
1	73547	24.01	0
1	73863	24.11	0
1	74179	24.21	0
1	74495	24.31	0
1	74811	24.41	0
1	75127	24.51	0
1	75443	24.61	0
1	75759	24.71	0
1	76075	24.81	0
1	76391	24.91	0
1	76713	25.01	0
1	77029	25.11	0
1	77345	25.21	0
1	77661	25.31	0
1	77977	25.41	0
1	78293	25.51	0
1	78609	25.61	0
1	78925	25.71	0
1	79241	25.81	0
1	79557	25.91	0
1	79879	26.01	0
1	80195	26.11	0
1	80511	26.21	0
1	80827	26.31	0
1	81143	26.41	0
1	81459	26.51	0
1	81775	26.61	0
1	82091	26.71	0
1	82407	26.81	0
1	82723	26.91	0
1	83045	27.01	0
1	83361	27.11	0
1	83677	27.21	0
1	83993	27.31	0
1	84309	27.41	0
1	84625	27.51	0
1	84941	27.61	0
1	85257	27.71	0
1	85573	27.81	0
1	85889	27.91	0
1	86211	28.01	0
1	86527	28.11	0
1	86843	28.21	0
1	87159	28.31	0
1	87475	28.41	0
1	87791	28.51	0
1	88107	28.61	0
1	88423	28.71	0
1	88739	28.81	0
1	89055	28.91	0
1	89377	29.01	0
1	89693	29.11	0
1	90009	29.21	0
1	90325	29.31	0
1	90641	29.41	0
1	90957	29.51	0
1	91273	29.61	0
1	91589	29.71	0
1	91905	29.81	0
1	92221	29.91	0
1	92543	30.01	0
1	92859	30.11	0
1	93175	30.21	0
1	93491	30.31	0
1	93807	30.41	0
1	94123	30.51	0
1	94439	30.61	0
1	94755	30.71	0
1	95071	30.81	0
1	95387	30.91	0
1	95709	31.01	0
1	96025	31.11	0
1	96341	31.21	0
1	96657	31.31	0
1	96973	31.41	0
1	97289	31.51	0
1	97605	31.61	0
1	97921	31.71	0
1	98237	31.81	0
1	98553	31.91	0
1	98875	32.01	0
1	99191	32.11	0
1	99507	32.21	0
1	99823	32.31	0
1	100139	32.41	0
1	100455	32.51	0
1	100771	32.61	0
1	101087	32.71	0
1	101403	32.81	0
1	101719	32.91	0
1	102041	33.01	0
1	102357	33.11	0
1	102673	33.21	0
1	102989	33.31	0
1	103305	33.41	0
1	103621	33.51	0
1	103937	33.61	0
1	104253	33.71	0
1	104569	33.81	0
1	104885	33.91	0
1	105207	34.01	0
1	105523	34.11	0
1	105839	34.21	0
1	106155	34.31	0
1	106471	34.41	0
1	106787	34.51	0
1	107103	34.61	0
1	107419	34.71	0
1	107735	34.81	0
1	108051	34.91	0
1	108373	35.01	0
1	108689	35.11	0
1	109005	35.21	0
1	109321	35.31	0
1	109637	35.41	0
1	109953	35.51	0
1	110269	35.61	0
1	110585	35.71	0
1	110901	35.81	0
1	111217	35.91	0
1	111539	36.01	0
1	111855	36.11	0
1	112171	36.21	0
1	112487	36.31	0
1	112803	36.41	0
1	113119	36.51	0
1	113435	36.61	0
1	113751	36.71	0
1	114067	36.81	0
1	114383	36.91	0
1	114705	37.01	0
1	115021	37.11	0
1	115337	37.21	0
1	115653	37.31	0
1	115969	37.41	0
1	116285	37.51	0
1	116601	37.61	0
1	116917	37.71	0
1	117233	37.81	0
1	117549	37.91	0
1	117871	38.01	0
1	118187	38.11	0
1	118503	38.21	0
1	118819	38.31	0
1	119135	38.41	0
1	119451	38.51	0
1	119767	38.61	0
1	120083	38.71	0
1	120399	38.81	0
1	120715	38.91	0
1	121037	39.01	0
1	121353	39.11	0
1	121669	39.21	0
1	121985	39.31	0
1	122301	39.41	0
1	122617	39.51	0
1	122933	39.61	0
1	123249	39.71	0
1	123565	39.81	0
1	123881	39.91	0
1	124203	40.01	0
1	124519	40.11	0
1	124835	40.21	0
1	125151	40.31	0
1	125467	40.41	0
1	125783	40.51	0
1	126099	40.61	0
1	126415	40.71	0
1	126731	40.81	0
1	127047	40.91	0
1	127369	41.01	0
1	127685	41.11	0
1	128001	41.21	0
1	128317	41.31	0
1	128633	41.41	0
1	128949	41.51	0
1	129265	41.61	0
1	129581	41.71	0
1	129897	41.81	0
1	130213	41.91	0
1	130535	42.01	0
1	130851	42.11	0
1	131167	42.21	0
1	131483	42.31	0
1	131799	42.41	0
1	132115	42.51	0
1	132431	42.61	0
1	132747	42.71	0
1	133063	42.81	0
1	133379	42.91	0
1	133701	43.01	0
1	134017	43.11	0
1	134333	43.21	0
1	134649	43.31	0
1	134965	43.41	0
1	135281	43.51	0
1	135597	43.61	0
1	135913	43.71	0
1	136229	43.81	0
1	136545	43.91	0
1	136867	44.01	0
1	137183	44.11	0
1	137499	44.21	0
1	137815	44.31	0
1	138131	44.41	0
1	138447	44.51	0
1	138763	44.61	0
1	139079	44.71	0
1	139395	44.81	0
1	139711	44.91	0
1	140033	45.01	0
1	140349	45.11	0
1	140665	45.21	0
1	140981	45.31	0
1	141297	45.41	0
1	141613	45.51	0
1	141929	45.61	0
1	142245	45.71	0
1	142561	45.81	0
1	142877	45.91	0
1	143199	46.01	0
1	143515	46.11	0
1	143831	46.21	0
1	144147	46.31	0
1	144463	46.41	0
1	144779	46.51	0
1	145095	46.61	0
1	145411	46.71	0
1	145727	46.81	0
1	146043	46.91	0
1	146365	47.01	0
1	146681	47.11	0
1	146997	47.21	0
1	147313	47.31	0
1	147629	47.41	0
1	147945	47.51	0
1	148261	47.61	0
1	148577	47.71	0
1	148893	47.81	0
1	149209	47.91	0
1	149531	48.01	0
1	149847	48.11	0
1	150163	48.21	0
1	150479	48.31	0
1	150795	48.41	0
1	151111	48.51	0
1	151427	48.61	0
1	151743	48.71	0
1	152059	48.81	0
1	152375	48.91	0
1	152697	49.01	0
1	153013	49.11	0
1	153329	49.21	0
1	153645	49.31	0
1	153961	49.41	0
1	154277	49.51	0
1	154593	49.61	0
1	154909	49.71	0
1	155225	49.81	0
1	155541	49.91	0
1	155863	50.01	0
1	156179	50.11	0
1	156495	50.21	0
1	156811	50.31	0
1	157127	50.41	0
1	157443	50.51	0
1	157759	50.61	0
1	158075	50.71	0
1	158391	50.81	0
1	158707	50.91	0
1	159029	51.01	0
1	159345	51.11	0
1	159661	51.21	0
1	159977	51.31	0
1	160293	51.41	0
1	160609	51.51	0
1	160925	51.61	0
1	161241	51.71	0
1	161557	51.81	0
1	161873	51.91	0
1	162195	52.01	0
1	162511	52.11	0
1	162827	52.21	0
1	163143	52.31	0
1	163459	52.41	0
1	163775	52.51	0
1	164091	52.61	0
1	164407	52.71	0
1	164723	52.81	0
1	165039	52.91	0
1	165361	53.01	0
1	165677	53.11	0
1	165993	53.21	0
1	166309	53.31	0
1	166625	53.41	0
1	166941	53.51	0
1	167257	53.61	0
1	167573	53.71	0
1	167889	53.81	0
1	168205	53.91	0
1	168527	54.01	0
1	168843	54.11	0
1	169159	54.21	0
1	169475	54.31	0
1	169791	54.41	0
1	170107	54.51	0
1	170423	54.61	0
1	170739	54.71	0
1	171055	54.81	0
1	171371	54.91	0
1	171693	55.01	0
1	172009	55.11	0
1	172325	55.21	0
1	172641	55.31	0
1	172957	55.41	0
1	173273	55.51	0
1	173589	55.61	0
1	173905	55.71	0
1	174221	55.81	0
1	174537	55.91	0
1	174859	56.01	0
1	175175	56.11	0
1	175491	56.21	0
1	175807	56.31	0
1	176123	56.41	0
1	176439	56.51	0
1	176755	56.61	0
1	177071	56.71	0
1	177387	56.81	0
1	177703	56.91	0
1	178025	57.01	0
1	178341	57.11	0
1	178657	57.21	0
1	178973	57.31	0
1	179289	57.41	0
1	179605	57.51	0
1	179921	57.61	0
1	180237	57.71	0
1	180553	57.81	0
1	180869	57.91	0
1	181191	58.01	0
1	181507	58.11	0
1	181823	58.21	0
1	182139	58.31	0
1	182455	58.41	0
1	182771	58.51	0
1	183087	58.61	0
1	183403	58.71	0
1	183719	58.81	0
1	184035	58.91	0
1	184357	59.01	0
1	184673	59.11	0
1	184989	59.21	0
1	185305	59.31	0
1	185621	59.41	0
1	185937	59.51	0
1	186253	59.61	0
1	186569	59.71	0
1	186885	59.81	0
1	187201	59.91	0
1	187523	60.01	0
1	187839	60.11	0
1	188155	60.21	0
1	188471	60.31	0
1	188787	60.41	0
1	189103	60.51	0
1	189419	60.61	0
1	189735	60.71	0
1	190051	60.81	0
1	190367	60.91	0
1	190689	61.01	0
1	191005	61.11	0
1	191321	61.21	0
1	191637	61.31	0
1	191953	61.41	0
1	192269	61.51	0
1	192585	61.61	0
1	192901	61.71	0
1	193217	61.81	0
1	193533	61.91	0
1	193855	62.01	0
1	194171	62.11	0
1	194487	62.21	0
1	194803	62.31	0
1	195119	62.41	0
1	195435	62.51	0
1	195751	62.61	0
1	196067	62.71	0
1	196383	62.81	0
1	196699	62.91	0
1	197021	63.01	0
1	197337	63.11	0
1	197653	63.21	0
1	197969	63.31	0
1	198285	63.41	0
1	198601	63.51	0
1	198917	63.61	0
1	199233	63.71	0
1	199549	63.81	0
1	199865	63.91	0
1	200187	64.01	0
1	200503	64.11	0
1	200819	64.21	0
1	201135	64.31	0
1	201451	64.41	0
1	201767	64.51	0
1	202083	64.61	0
1	202399	64.71	0
1	202715	64.81	0
1	203031	64.91	0
1	203353	65.01	0
1	203669	65.11	0
1	203985	65.21	0
1	204301	65.31	0
1	204617	65.41	0
1	204933	65.51	0
1	205249	65.61	0
1	205565	65.71	0
1	205881	65.81	0
1	206197	65.91	0
1	206519	66.01	0
1	206835	66.11	0
1	207151	66.21	0
1	207467	66.31	0
1	207783	66.41	0
1	208099	66.51	0
1	208415	66.61	0
1	208731	66.71	0
1	209047	66.81	0
1	209363	66.91	0
1	209685	67.01	0
1	210001	67.11	0
1	210317	67.21	0
1	210633	67.31	0
1	210949	67.41	0
1	211265	67.51	0
1	211581	67.61	0
1	211897	67.71	0
1	212213	67.81	0
1	212529	67.91	0
1	212851	68.01	0
1	213167	68.11	0
1	213483	68.21	0
1	213799	68.31	0
1	214115	68.41	0
1	214431	68.51	0
1	214747	68.61	0
1	215063	68.71	0
1	215379	68.81	0
1	215695	68.91	0
1	216017	69.01	0
1	216333	69.11	0
1	216649	69.21	0
1	216965	69.31	0
1	217281	69.41	0
1	217597	69.51	0
1	217913	69.61	0
1	218229	69.71	0
1	218545	69.81	0
1	218861	69.91	0
1	219183	70.01	0
1	219499	70.11	0
1	219815	70.21	0
1	220131	70.31	0
1	220447	70.41	0
1	220763	70.51	0
1	221079	70.61	0
1	221395	70.71	0
1	221711	70.81	0
1	222027	70.91	0
1	222349	71.01	0
1	222665	71.11	0
1	222981	71.21	0
1	223297	71.31	0
1	223613	71.41	0
1	223929	71.51	0
1	224245	71.61	0
1	224561	71.71	0
1	224877	71.81	0
1	225193	71.91	0
1	225515	72.01	0
1	225831	72.11	0
1	226147	72.21	0
1	226463	72.31	0
1	226779	72.41	0
1	227095	72.51	0
1	227411	72.61	0
1	227727	72.71	0
1	228043	72.81	0
1	228359	72.91	0
1	228681	73.01	0
1	228997	73.11	0
1	229313	73.21	0
1	229629	73.31	0
1	229945	73.41	0
1	230261	73.51	0
1	230577	73.61	0
1	230893	73.71	0
1	231209	73.81	0
1	231525	73.91	0
1	231847	74.01	0
1	232163	74.11	0
1	232479	74.21	0
1	232795	74.31	0
1	233111	74.41	0
1	233427	74.51	0
1	233743	74.61	0
1	234059	74.71	0
1	234375	74.81	0
1	234691	74.91	0
1	235013	75.01	0
1	235329	75.11	0
1	235645	75.21	0
1	235961	75.31	0
1	236277	75.41	0
1	236593	75.51	0
1	236909	75.61	0
1	237225	75.71	0
1	237541	75.81	0
1	237857	75.91	0
1	238179	76.01	0
1	238495	76.11	0
1	238811	76.21	0
1	239127	76.31	0
1	239443	76.41	0
1	239759	76.51	0
1	240075	76.61	0
1	240391	76.71	0
1	240707	76.81	0
1	241023	76.91	0
1	241345	77.01	0
1	241661	77.11	0
1	241977	77.21	0
1	242293	77.31	0
1	242609	77.41	0
1	242925	77.51	0
1	243241	77.61	0
1	243557	77.71	0
1	243873	77.81	0
1	244189	77.91	0
1	244511	78.01	0
1	244827	78.11	0
1	245143	78.21	0
1	245459	78.31	0
1	245775	78.41	0
1	246091	78.51	0
1	246407	78.61	0
1	246723	78.71	0
1	247039	78.81	0
1	247355	78.91	0
1	247677	79.01	0
1	247993	79.11	0
1	248309	79.21	0
1	248625	79.31	0
1	248941	79.41	0
1	249257	79.51	0
1	249573	79.61	0
1	249889	79.71	0
1	250205	79.81	0
1	250521	79.91	0
1	250843	80.01	0
1	251159	80.11	0
1	251475	80.21	0
1	251791	80.31	0
1	252107	80.41	0
1	252423	80.51	0
1	252739	80.61	0
1	253055	80.71	0
1	253371	80.81	0
1	253687	80.91	0
1	254009	81.01	0
1	254325	81.11	0
1	254641	81.21	0
1	254957	81.31	0
1	255273	81.41	0
1	255589	81.51	0
1	255905	81.61	0
1	256221	81.71	0
1	256537	81.81	0
1	256853	81.91	0
1	257175	82.01	0
1	257491	82.11	0
1	257807	82.21	0
1	258123	82.31	0
1	258439	82.41	0
1	258755	82.51	0
1	259071	82.61	0
1	259387	82.71	0
1	259703	82.81	0
1	260019	82.91	0
1	260341	83.01	0
1	260657	83.11	0
1	260973	83.21	0
1	261289	83.31	0
1	261605	83.41	0
1	261921	83.51	0
1	262237	83.61	0
1	262553	83.71	0
1	262869	83.81	0
1	263185	83.91	0
1	263507	84.01	0
1	263823	84.11	0
1	264139	84.21	0
1	264455	84.31	0
1	264771	84.41	0
1	265087	84.51	0
1	265403	84.61	0
1	265719	84.71	0
1	266035	84.81	0
1	266351	84.91	0
1	266673	85.01	0
1	266989	85.11	0
1	267305	85.21	0
1	267621	85.31	0
1	267937	85.41	0
1	268253	85.51	0
1	268569	85.61	0
1	268885	85.71	0
1	269201	85.81	0
1	269517	85.91	0
1	269839	86.01	0
1	270155	86.11	0
1	270471	86.21	0
1	270787	86.31	0
1	271103	86.41	0
1	271419	86.51	0
1	271735	86.61	0
1	272051	86.71	0
1	272367	86.81	0
1	272683	86.91	0
1	273005	87.01	0
1	273321	87.11	0
1	273637	87.21	0
1	273953	87.31	0
1	274269	87.41	0
1	274585	87.51	0
1	274901	87.61	0
1	275217	87.71	0
1	275533	87.81	0
1	275849	87.91	0
1	276171	88.01	0
1	276487	88.11	0
1	276803	88.21	0
1	277119	88.31	0
1	277435	88.41	0
1	277751	88.51	0
1	278067	88.61	0
1	278383	88.71	0
1	278699	88.81	0
1	279015	88.91	0
1	279337	89.01	0
1	279653	89.11	0
1	279969	89.21	0
1	280285	89.31	0
1	280601	89.41	0
1	280917	89.51	0
1	281233	89.61	0
1	281549	89.71	0
1	281865	89.81	0
1	282181	89.91	0
1	282503	90.01	0
1	282819	90.11	0
1	283135	90.21	0
1	283451	90.31	0
1	283767	90.41	0
1	284083	90.51	0
1	284399	90.61	0
1	284715	90.71	0
1	285031	90.81	0
1	285347	90.91	0
1	285669	91.01	0
1	285985	91.11	0
1	286301	91.21	0
1	286617	91.31	0
1	286933	91.41	0
1	287249	91.51	0
1	287565	91.61	0
1	287881	91.71	0
1	288197	91.81	0
1	288513	91.91	0
1	288835	92.01	0
1	289151	92.11	0
1	289467	92.21	0
1	289783	92.31	0
1	290099	92.41	0
1	290415	92.51	0
1	290731	92.61	0
1	291047	92.71	0
1	291363	92.81	0
1	291679	92.91	0
1	292001	93.01	0
1	292317	93.11	0
1	292633	93.21	0
1	292949	93.31	0
1	293265	93.41	0
1	293581	93.51	0
1	293897	93.61	0
1	294213	93.71	0
1	294529	93.81	0
1	294845	93.91	0
1	295167	94.01	0
1	295483	94.11	0
1	295799	94.21	0
1	296115	94.31	0
1	296431	94.41	0
1	296747	94.51	0
1	297063	94.61	0
1	297379	94.71	0
1	297695	94.81	0
1	298011	94.91	0
1	298333	95.01	0
1	298649	95.11	0
1	298965	95.21	0
1	299281	95.31	0
1	299597	95.41	0
1	299913	95.51	0
1	300229	95.61	0
1	300545	95.71	0
1	300861	95.81	0
1	301177	95.91	0
1	301499	96.01	0
1	301815	96.11	0
1	302131	96.21	0
1	302447	96.31	0
1	302763	96.41	0
1	303079	96.51	0
1	303395	96.61	0
1	303711	96.71	0
1	304027	96.81	0
1	304343	96.91	0
1	304665	97.01	0
1	304981	97.11	0
1	305297	97.21	0
1	305613	97.31	0
1	305929	97.41	0
1	306245	97.51	0
1	306561	97.61	0
1	306877	97.71	0
1	307193	97.81	0
1	307509	97.91	0
1	307831	98.01	0
1	308147	98.11	0
1	308463	98.21	0
1	308779	98.31	0
1	309095	98.41	0
1	309411	98.51	0
1	309727	98.61	0
1	310043	98.71	0
1	310359	98.81	0
1	310675	98.91	0
1	310997	99.01	0
1	311313	99.11	0
1	311629	99.21	0
1	311945	99.31	0
1	312261	99.41	0
1	312577	99.51	0
1	312893	99.61	0
1	313209	99.71	0
1	313525	99.81	0
1	313841	99.91	0
2	113	1.11	0
2	429	1.21	0
2	745	1.31	0
2	1061	1.41	0
2	1377	1.51	0
2	1693	1.61	0
2	2009	1.71	0
2	2325	1.81	0
2	2641	1.91	0
2	2963	2.01	0
2	3279	2.11	0
2	3595	2.21	0
2	3911	2.31	0
2	4227	2.41	0
2	4543	2.51	0
2	4859	2.61	0
2	5175	2.71	0
2	5491	2.81	0
2	5807	2.91	0
2	6129	3.01	0
2	6445	3.11	0
2	6761	3.21	0
2	7077	3.31	0
2	7393	3.41	0
2	7709	3.51	0
2	8025	3.61	0
2	8341	3.71	0
2	8657	3.81	0
2	8973	3.91	0
2	9295	4.01	0
2	9611	4.11	0
2	9927	4.21	0
2	10243	4.31	0
2	10559	4.41	0
2	10875	4.51	0
2	11191	4.61	0
2	11507	4.71	0
2	11823	4.81	0
2	12139	4.91	0
2	12461	5.01	0
2	12777	5.11	0
2	13093	5.21	0
2	13409	5.31	0
2	13725	5.41	0
2	14041	5.51	0
2	14357	5.61	0
2	14673	5.71	0
2	14989	5.81	0
2	15305	5.91	0
2	15627	6.01	0
2	15943	6.11	0
2	16259	6.21	0
2	16575	6.31	0
2	16891	6.41	0
2	17207	6.51	0
2	17523	6.61	0
2	17839	6.71	0
2	18155	6.81	0
2	18471	6.91	0
2	18793	7.01	0
2	19109	7.11	0
2	19425	7.21	0
2	19741	7.31	0
2	20057	7.41	0
2	20373	7.51	0
2	20689	7.61	0
2	21005	7.71	0
2	21321	7.81	0
2	21637	7.91	0
2	21959	8.01	0
2	22275	8.11	0
2	22591	8.21	0
2	22907	8.31	0
2	23223	8.41	0
2	23539	8.51	0
2	23855	8.61	0
2	24171	8.71	0
2	24487	8.81	0
2	24803	8.91	0
2	25125	9.01	0
2	25441	9.11	0
2	25757	9.21	0
2	26073	9.31	0
2	26389	9.41	0
2	26705	9.51	0
2	27021	9.61	0
2	27337	9.71	0
2	27653	9.81	0
2	27969	9.91	0
2	29223	10.01	0
2	29539	10.11	0
2	29855	10.21	0
2	30171	10.31	0
2	30487	10.41	0
2	30803	10.51	0
2	31119	10.61	0
2	31435	10.71	0
2	31751	10.81	0
2	32067	10.91	0
2	32389	11.01	0
2	32705	11.11	0
2	33021	11.21	0
2	33337	11.31	0
2	33653	11.41	0
2	33969	11.51	0
2	34285	11.61	0
2	34601	11.71	0
2	34917	11.81	0
2	35233	11.91	0
2	35555	12.01	0
2	35871	12.11	0
2	36187	12.21	0
2	36503	12.31	0
2	36819	12.41	0
2	37135	12.51	0
2	37451	12.61	0
2	37767	12.71	0
2	38083	12.81	0
2	38399	12.91	0
2	38721	13.01	0
2	39037	13.11	0
2	39353	13.21	0
2	39669	13.31	0
2	39985	13.41	0
2	40301	13.51	0
2	40617	13.61	0
2	40933	13.71	0
2	41249	13.81	0
2	41565	13.91	0
2	41887	14.01	0
2	42203	14.11	0
2	42519	14.21	0
2	42835	14.31	0
2	43151	14.41	0
2	43467	14.51	0
2	43783	14.61	0
2	44099	14.71	0
2	44415	14.81	0
2	44731	14.91	0
2	45053	15.01	0
2	45369	15.11	0
2	45685	15.21	0
2	46001	15.31	0
2	46317	15.41	0
2	46633	15.51	0
2	46949	15.61	0
2	47265	15.71	0
2	47581	15.81	0
2	47897	15.91	0
2	48219	16.01	0
2	48535	16.11	0
2	48851	16.21	0
2	49167	16.31	0
2	49483	16.41	0
2	49799	16.51	0
2	50115	16.61	0
2	50431	16.71	0
2	50747	16.81	0
2	51063	16.91	0
2	51385	17.01	0
2	51701	17.11	0
2	52017	17.21	0
2	52333	17.31	0
2	52649	17.41	0
2	52965	17.51	0
2	53281	17.61	0
2	53597	17.71	0
2	53913	17.81	0
2	54229	17.91	0
2	54551	18.01	0
2	54867	18.11	0
2	55183	18.21	0
2	55499	18.31	0
2	55815	18.41	0
2	56131	18.51	0
2	56447	18.61	0
2	56763	18.71	0
2	57079	18.81	0
2	57395	18.91	0
2	57717	19.01	0
2	58033	19.11	0
2	58349	19.21	0
2	58665	19.31	0
2	58981	19.41	0
2	59297	19.51	0
2	59613	19.61	0
2	59929	19.71	0
2	60245	19.81	0
2	60561	19.91	0
2	60883	20.01	0
2	61199	20.11	0
2	61515	20.21	0
2	61831	20.31	0
2	62147	20.41	0
2	62463	20.51	0
2	62779	20.61	0
2	63095	20.71	0
2	63411	20.81	0
2	63727	20.91	0
2	64049	21.01	0
2	64365	21.11	0
2	64681	21.21	0
2	64997	21.31	0
2	65313	21.41	0
2	65629	21.51	0
2	65945	21.61	0
2	66261	21.71	0
2	66577	21.81	0
2	66893	21.91	0
2	67215	22.01	0
2	67531	22.11	0
2	67847	22.21	0
2	68163	22.31	0
2	68479	22.41	0
2	68795	22.51	0
2	69111	22.61	0
2	69427	22.71	0
2	69743	22.81	0
2	70059	22.91	0
2	70381	23.01	0
2	70697	23.11	0
2	71013	23.21	0
2	71329	23.31	0
2	71645	23.41	0
2	71961	23.51	0
2	72277	23.61	0
2	72593	23.71	0
2	72909	23.81	0
2	73225	23.91	0
2	73547	24.01	0
2	73863	24.11	0
2	74179	24.21	0
2	74495	24.31	0
2	74811	24.41	0
2	75127	24.51	0
2	75443	24.61	0
2	75759	24.71	0
2	76075	24.81	0
2	76391	24.91	0
2	76713	25.01	0
2	77029	25.11	0
2	77345	25.21	0
2	77661	25.31	0
2	77977	25.41	0
2	78293	25.51	0
2	78609	25.61	0
2	78925	25.71	0
2	79241	25.81	0
2	79557	25.91	0
2	79879	26.01	0
2	80195	26.11	0
2	80511	26.21	0
2	80827	26.31	0
2	81143	26.41	0
2	81459	26.51	0
2	81775	26.61	0
2	82091	26.71	0
2	82407	26.81	0
2	82723	26.91	0
2	83045	27.01	0
2	83361	27.11	0
2	83677	27.21	0
2	83993	27.31	0
2	84309	27.41	0
2	84625	27.51	0
2	84941	27.61	0
2	85257	27.71	0
2	85573	27.81	0
2	85889	27.91	0
2	86211	28.01	0
2	86527	28.11	0
2	86843	28.21	0
2	87159	28.31	0
2	87475	28.41	0
2	87791	28.51	0
2	88107	28.61	0
2	88423	28.71	0
2	88739	28.81	0
2	89055	28.91	0
2	89377	29.01	0
2	89693	29.11	0
2	90009	29.21	0
2	90325	29.31	0
2	90641	29.41	0
2	90957	29.51	0
2	91273	29.61	0
2	91589	29.71	0
2	91905	29.81	0
2	92221	29.91	0
2	92543	30.01	0
2	92859	30.11	0
2	93175	30.21	0
2	93491	30.31	0
2	93807	30.41	0
2	94123	30.51	0
2	94439	30.61	0
2	94755	30.71	0
2	95071	30.81	0
2	95387	30.91	0
2	95709	31.01	0
2	96025	31.11	0
2	96341	31.21	0
2	96657	31.31	0
2	96973	31.41	0
2	97289	31.51	0
2	97605	31.61	0
2	97921	31.71	0
2	98237	31.81	0
2	98553	31.91	0
2	98875	32.01	0
2	99191	32.11	0
2	99507	32.21	0
2	99823	32.31	0
2	100139	32.41	0
2	100455	32.51	0
2	100771	32.61	0
2	101087	32.71	0
2	101403	32.81	0
2	101719	32.91	0
2	102041	33.01	0
2	102357	33.11	0
2	102673	33.21	0
2	102989	33.31	0
2	103305	33.41	0
2	103621	33.51	0
2	103937	33.61	0
2	104253	33.71	0
2	104569	33.81	0
2	104885	33.91	0
2	105207	34.01	0
2	105523	34.11	0
2	105839	34.21	0
2	106155	34.31	0
2	106471	34.41	0
2	106787	34.51	0
2	107103	34.61	0
2	107419	34.71	0
2	107735	34.81	0
2	108051	34.91	0
2	108373	35.01	0
2	108689	35.11	0
2	109005	35.21	0
2	109321	35.31	0
2	109637	35.41	0
2	109953	35.51	0
2	110269	35.61	0
2	110585	35.71	0
2	110901	35.81	0
2	111217	35.91	0
2	111539	36.01	0
2	111855	36.11	0
2	112171	36.21	0
2	112487	36.31	0
2	112803	36.41	0
2	113119	36.51	0
2	113435	36.61	0
2	113751	36.71	0
2	114067	36.81	0
2	114383	36.91	0
2	114705	37.01	0
2	115021	37.11	0
2	115337	37.21	0
2	115653	37.31	0
2	115969	37.41	0
2	116285	37.51	0
2	116601	37.61	0
2	116917	37.71	0
2	117233	37.81	0
2	117549	37.91	0
2	117871	38.01	0
2	118187	38.11	0
2	118503	38.21	0
2	118819	38.31	0
2	119135	38.41	0
2	119451	38.51	0
2	119767	38.61	0
2	120083	38.71	0
2	120399	38.81	0
2	120715	38.91	0
2	121037	39.01	0
2	121353	39.11	0
2	121669	39.21	0
2	121985	39.31	0
2	122301	39.41	0
2	122617	39.51	0
2	122933	39.61	0
2	123249	39.71	0
2	123565	39.81	0
2	123881	39.91	0
2	124203	40.01	0
2	124519	40.11	0
2	124835	40.21	0
2	125151	40.31	0
2	125467	40.41	0
2	125783	40.51	0
2	126099	40.61	0
2	126415	40.71	0
2	126731	40.81	0
2	127047	40.91	0
2	127369	41.01	0
2	127685	41.11	0
2	128001	41.21	0
2	128317	41.31	0
2	128633	41.41	0
2	128949	41.51	0
2	129265	41.61	0
2	129581	41.71	0
2	129897	41.81	0
2	130213	41.91	0
2	130535	42.01	0
2	130851	42.11	0
2	131167	42.21	0
2	131483	42.31	0
2	131799	42.41	0
2	132115	42.51	0
2	132431	42.61	0
2	132747	42.71	0
2	133063	42.81	0
2	133379	42.91	0
2	133701	43.01	0
2	134017	43.11	0
2	134333	43.21	0
2	134649	43.31	0
2	134965	43.41	0
2	135281	43.51	0
2	135597	43.61	0
2	135913	43.71	0
2	136229	43.81	0
2	136545	43.91	0
2	136867	44.01	0
2	137183	44.11	0
2	137499	44.21	0
2	137815	44.31	0
2	138131	44.41	0
2	138447	44.51	0
2	138763	44.61	0
2	139079	44.71	0
2	139395	44.81	0
2	139711	44.91	0
2	140033	45.01	0
2	140349	45.11	0
2	140665	45.21	0
2	140981	45.31	0
2	141297	45.41	0
2	141613	45.51	0
2	141929	45.61	0
2	142245	45.71	0
2	142561	45.81	0
2	142877	45.91	0
2	143199	46.01	0
2	143515	46.11	0
2	143831	46.21	0
2	144147	46.31	0
2	144463	46.41	0
2	144779	46.51	0
2	145095	46.61	0
2	145411	46.71	0
2	145727	46.81	0
2	146043	46.91	0
2	146365	47.01	0
2	146681	47.11	0
2	146997	47.21	0
2	147313	47.31	0
2	147629	47.41	0
2	147945	47.51	0
2	148261	47.61	0
2	148577	47.71	0
2	148893	47.81	0
2	149209	47.91	0
2	149531	48.01	0
2	149847	48.11	0
2	150163	48.21	0
2	150479	48.31	0
2	150795	48.41	0
2	151111	48.51	0
2	151427	48.61	0
2	151743	48.71	0
2	152059	48.81	0
2	152375	48.91	0
2	152697	49.01	0
2	153013	49.11	0
2	153329	49.21	0
2	153645	49.31	0
2	153961	49.41	0
2	154277	49.51	0
2	154593	49.61	0
2	154909	49.71	0
2	155225	49.81	0
2	155541	49.91	0
2	155863	50.01	0
2	156179	50.11	0
2	156495	50.21	0
2	156811	50.31	0
2	157127	50.41	0
2	157443	50.51	0
2	157759	50.61	0
2	158075	50.71	0
2	158391	50.81	0
2	158707	50.91	0
2	159029	51.01	0
2	159345	51.11	0
2	159661	51.21	0
2	159977	51.31	0
2	160293	51.41	0
2	160609	51.51	0
2	160925	51.61	0
2	161241	51.71	0
2	161557	51.81	0
2	161873	51.91	0
2	162195	52.01	0
2	162511	52.11	0
2	162827	52.21	0
2	163143	52.31	0
2	163459	52.41	0
2	163775	52.51	0
2	164091	52.61	0
2	164407	52.71	0
2	164723	52.81	0
2	165039	52.91	0
2	165361	53.01	0
2	165677	53.11	0
2	165993	53.21	0
2	166309	53.31	0
2	166625	53.41	0
2	166941	53.51	0
2	167257	53.61	0
2	167573	53.71	0
2	167889	53.81	0
2	168205	53.91	0
2	168527	54.01	0
2	168843	54.11	0
2	169159	54.21	0
2	169475	54.31	0
2	169791	54.41	0
2	170107	54.51	0
2	170423	54.61	0
2	170739	54.71	0
2	171055	54.81	0
2	171371	54.91	0
2	171693	55.01	0
2	172009	55.11	0
2	172325	55.21	0
2	172641	55.31	0
2	172957	55.41	0
2	173273	55.51	0
2	173589	55.61	0
2	173905	55.71	0
2	174221	55.81	0
2	174537	55.91	0
2	174859	56.01	0
2	175175	56.11	0
2	175491	56.21	0
2	175807	56.31	0
2	176123	56.41	0
2	176439	56.51	0
2	176755	56.61	0
2	177071	56.71	0
2	177387	56.81	0
2	177703	56.91	0
2	178025	57.01	0
2	178341	57.11	0
2	178657	57.21	0
2	178973	57.31	0
2	179289	57.41	0
2	179605	57.51	0
2	179921	57.61	0
2	180237	57.71	0
2	180553	57.81	0
2	180869	57.91	0
2	181191	58.01	0
2	181507	58.11	0
2	181823	58.21	0
2	182139	58.31	0
2	182455	58.41	0
2	182771	58.51	0
2	183087	58.61	0
2	183403	58.71	0
2	183719	58.81	0
2	184035	58.91	0
2	184357	59.01	0
2	184673	59.11	0
2	184989	59.21	0
2	185305	59.31	0
2	185621	59.41	0
2	185937	59.51	0
2	186253	59.61	0
2	186569	59.71	0
2	186885	59.81	0
2	187201	59.91	0
2	187523	60.01	0
2	187839	60.11	0
2	188155	60.21	0
2	188471	60.31	0
2	188787	60.41	0
2	189103	60.51	0
2	189419	60.61	0
2	189735	60.71	0
2	190051	60.81	0
2	190367	60.91	0
2	190689	61.01	0
2	191005	61.11	0
2	191321	61.21	0
2	191637	61.31	0
2	191953	61.41	0
2	192269	61.51	0
2	192585	61.61	0
2	192901	61.71	0
2	193217	61.81	0
2	193533	61.91	0
2	193855	62.01	0
2	194171	62.11	0
2	194487	62.21	0
2	194803	62.31	0
2	195119	62.41	0
2	195435	62.51	0
2	195751	62.61	0
2	196067	62.71	0
2	196383	62.81	0
2	196699	62.91	0
2	197021	63.01	0
2	197337	63.11	0
2	197653	63.21	0
2	197969	63.31	0
2	198285	63.41	0
2	198601	63.51	0
2	198917	63.61	0
2	199233	63.71	0
2	199549	63.81	0
2	199865	63.91	0
2	200187	64.01	0
2	200503	64.11	0
2	200819	64.21	0
2	201135	64.31	0
2	201451	64.41	0
2	201767	64.51	0
2	202083	64.61	0
2	202399	64.71	0
2	202715	64.81	0
2	203031	64.91	0
2	203353	65.01	0
2	203669	65.11	0
2	203985	65.21	0
2	204301	65.31	0
2	204617	65.41	0
2	204933	65.51	0
2	205249	65.61	0
2	205565	65.71	0
2	205881	65.81	0
2	206197	65.91	0
2	206519	66.01	0
2	206835	66.11	0
2	207151	66.21	0
2	207467	66.31	0
2	207783	66.41	0
2	208099	66.51	0
2	208415	66.61	0
2	208731	66.71	0
2	209047	66.81	0
2	209363	66.91	0
2	209685	67.01	0
2	210001	67.11	0
2	210317	67.21	0
2	210633	67.31	0
2	210949	67.41	0
2	211265	67.51	0
2	211581	67.61	0
2	211897	67.71	0
2	212213	67.81	0
2	212529	67.91	0
2	212851	68.01	0
2	213167	68.11	0
2	213483	68.21	0
2	213799	68.31	0
2	214115	68.41	0
2	214431	68.51	0
2	214747	68.61	0
2	215063	68.71	0
2	215379	68.81	0
2	215695	68.91	0
2	216017	69.01	0
2	216333	69.11	0
2	216649	69.21	0
2	216965	69.31	0
2	217281	69.41	0
2	217597	69.51	0
2	217913	69.61	0
2	218229	69.71	0
2	218545	69.81	0
2	218861	69.91	0
2	219183	70.01	0
2	219499	70.11	0
2	219815	70.21	0
2	220131	70.31	0
2	220447	70.41	0
2	220763	70.51	0
2	221079	70.61	0
2	221395	70.71	0
2	221711	70.81	0
2	222027	70.91	0
2	222349	71.01	0
2	222665	71.11	0
2	222981	71.21	0
2	223297	71.31	0
2	223613	71.41	0
2	223929	71.51	0
2	224245	71.61	0
2	224561	71.71	0
2	224877	71.81	0
2	225193	71.91	0
2	225515	72.01	0
2	225831	72.11	0
2	226147	72.21	0
2	226463	72.31	0
2	226779	72.41	0
2	227095	72.51	0
2	227411	72.61	0
2	227727	72.71	0
2	228043	72.81	0
2	228359	72.91	0
2	228681	73.01	0
2	228997	73.11	0
2	229313	73.21	0
2	229629	73.31	0
2	229945	73.41	0
2	230261	73.51	0
2	230577	73.61	0
2	230893	73.71	0
2	231209	73.81	0
2	231525	73.91	0
2	231847	74.01	0
2	232163	74.11	0
2	232479	74.21	0
2	232795	74.31	0
2	233111	74.41	0
2	233427	74.51	0
2	233743	74.61	0
2	234059	74.71	0
2	234375	74.81	0
2	234691	74.91	0
2	235013	75.01	0
2	235329	75.11	0
2	235645	75.21	0
2	235961	75.31	0
2	236277	75.41	0
2	236593	75.51	0
2	236909	75.61	0
2	237225	75.71	0
2	237541	75.81	0
2	237857	75.91	0
2	238179	76.01	0
2	238495	76.11	0
2	238811	76.21	0
2	239127	76.31	0
2	239443	76.41	0
2	239759	76.51	0
2	240075	76.61	0
2	240391	76.71	0
2	240707	76.81	0
2	241023	76.91	0
2	241345	77.01	0
2	241661	77.11	0
2	241977	77.21	0
2	242293	77.31	0
2	242609	77.41	0
2	242925	77.51	0
2	243241	77.61	0
2	243557	77.71	0
2	243873	77.81	0
2	244189	77.91	0
2	244511	78.01	0
2	244827	78.11	0
2	245143	78.21	0
2	245459	78.31	0
2	245775	78.41	0
2	246091	78.51	0
2	246407	78.61	0
2	246723	78.71	0
2	247039	78.81	0
2	247355	78.91	0
2	247677	79.01	0
2	247993	79.11	0
2	248309	79.21	0
2	248625	79.31	0
2	248941	79.41	0
2	249257	79.51	0
2	249573	79.61	0
2	249889	79.71	0
2	250205	79.81	0
2	250521	79.91	0
2	250843	80.01	0
2	251159	80.11	0
2	251475	80.21	0
2	251791	80.31	0
2	252107	80.41	0
2	252423	80.51	0
2	252739	80.61	0
2	253055	80.71	0
2	253371	80.81	0
2	253687	80.91	0
2	254009	81.01	0
2	254325	81.11	0
2	254641	81.21	0
2	254957	81.31	0
2	255273	81.41	0
2	255589	81.51	0
2	255905	81.61	0
2	256221	81.71	0
2	256537	81.81	0
2	256853	81.91	0
2	257175	82.01	0
2	257491	82.11	0
2	257807	82.21	0
2	258123	82.31	0
2	258439	82.41	0
2	258755	82.51	0
2	259071	82.61	0
2	259387	82.71	0
2	259703	82.81	0
2	260019	82.91	0
2	260341	83.01	0
2	260657	83.11	0
2	260973	83.21	0
2	261289	83.31	0
2	261605	83.41	0
2	261921	83.51	0
2	262237	83.61	0
2	262553	83.71	0
2	262869	83.81	0
2	263185	83.91	0
2	263507	84.01	0
2	263823	84.11	0
2	264139	84.21	0
2	264455	84.31	0
2	264771	84.41	0
2	265087	84.51	0
2	265403	84.61	0
2	265719	84.71	0
2	266035	84.81	0
2	266351	84.91	0
2	266673	85.01	0
2	266989	85.11	0
2	267305	85.21	0
2	267621	85.31	0
2	267937	85.41	0
2	268253	85.51	0
2	268569	85.61	0
2	268885	85.71	0
2	269201	85.81	0
2	269517	85.91	0
2	269839	86.01	0
2	270155	86.11	0
2	270471	86.21	0
2	270787	86.31	0
2	271103	86.41	0
2	271419	86.51	0
2	271735	86.61	0
2	272051	86.71	0
2	272367	86.81	0
2	272683	86.91	0
2	273005	87.01	0
2	273321	87.11	0
2	273637	87.21	0
2	273953	87.31	0
2	274269	87.41	0
2	274585	87.51	0
2	274901	87.61	0
2	275217	87.71	0
2	275533	87.81	0
2	275849	87.91	0
2	276171	88.01	0
2	276487	88.11	0
2	276803	88.21	0
2	277119	88.31	0
2	277435	88.41	0
2	277751	88.51	0
2	278067	88.61	0
2	278383	88.71	0
2	278699	88.81	0
2	279015	88.91	0
2	279337	89.01	0
2	279653	89.11	0
2	279969	89.21	0
2	280285	89.31	0
2	280601	89.41	0
2	280917	89.51	0
2	281233	89.61	0
2	281549	89.71	0
2	281865	89.81	0
2	282181	89.91	0
2	282503	90.01	0
2	282819	90.11	0
2	283135	90.21	0
2	283451	90.31	0
2	283767	90.41	0
2	284083	90.51	0
2	284399	90.61	0
2	284715	90.71	0
2	285031	90.81	0
2	285347	90.91	0
2	285669	91.01	0
2	285985	91.11	0
2	286301	91.21	0
2	286617	91.31	0
2	286933	91.41	0
2	287249	91.51	0
2	287565	91.61	0
2	287881	91.71	0
2	288197	91.81	0
2	288513	91.91	0
2	288835	92.01	0
2	289151	92.11	0
2	289467	92.21	0
2	289783	92.31	0
2	290099	92.41	0
2	290415	92.51	0
2	290731	92.61	0
2	291047	92.71	0
2	291363	92.81	0
2	291679	92.91	0
2	292001	93.01	0
2	292317	93.11	0
2	292633	93.21	0
2	292949	93.31	0
2	293265	93.41	0
2	293581	93.51	0
2	293897	93.61	0
2	294213	93.71	0
2	294529	93.81	0
2	294845	93.91	0
2	295167	94.01	0
2	295483	94.11	0
2	295799	94.21	0
2	296115	94.31	0
2	296431	94.41	0
2	296747	94.51	0
2	297063	94.61	0
2	297379	94.71	0
2	297695	94.81	0
2	298011	94.91	0
2	298333	95.01	0
2	298649	95.11	0
2	298965	95.21	0
2	299281	95.31	0
2	299597	95.41	0
2	299913	95.51	0
2	300229	95.61	0
2	300545	95.71	0
2	300861	95.81	0
2	301177	95.91	0
2	301499	96.01	0
2	301815	96.11	0
2	302131	96.21	0
2	302447	96.31	0
2	302763	96.41	0
2	303079	96.51	0
2	303395	96.61	0
2	303711	96.71	0
2	304027	96.81	0
2	304343	96.91	0
2	304665	97.01	0
2	304981	97.11	0
2	305297	97.21	0
2	305613	97.31	0
2	305929	97.41	0
2	306245	97.51	0
2	306561	97.61	0
2	306877	97.71	0
2	307193	97.81	0
2	307509	97.91	0
2	307831	98.01	0
2	308147	98.11	0
2	308463	98.21	0
2	308779	98.31	0
2	309095	98.41	0
2	309411	98.51	0
2	309727	98.61	0
2	310043	98.71	0
2	310359	98.81	0
2	310675	98.91	0
2	310997	99.01	0
2	311313	99.11	0
2	311629	99.21	0
2	311945	99.31	0
2	312261	99.41	0
2	312577	99.51	0
2	312893	99.61	0
2	313209	99.71	0
2	313525	99.81	0
2	313841	99.91	0
3	113	1.11	0.000179096
3	429	1.21	0.000340852
3	745	1.31	0.000467435
3	1061	1.41	0.000562893
3	1377	1.51	0.000631106
3	1693	1.61	0.000675745
3	2009	1.71	0.000700245
3	2325	1.81	0.000707784
3	2641	1.91	0.000701273
3	2963	2.01	0.000683354
3	3279	2.11	0.000656398
3	3595	2.21	0.000622512
3	3911	2.31	0.000583548
3	4227	2.41	0.000541117
3	4543	2.51	0.000496604
3	4859	2.61	0.000451181
3	5175	2.71	0.000405825
3	5491	2.81	0.00036134
3	5807	2.91	0.000318365
3	6129	3.01	0.0002774
3	6445	3.11	0.00023882
3	6761	3.21	0.000202887
3	7077	3.31	0.00016977
3	7393	3.41	0.000139558
3	7709	3.51	0.000112271
3	8025	3.61	8.78717e-05
3	8341	3.71	6.628e-05
3	8657	3.81	4.73785e-05
3	8973	3.91	3.1023e-05
3	9295	4.01	1.70493e-05
3	9611	4.11	5.28023e-06
3	9927	4.21	-4.46922e-06
3	10243	4.31	-1.2387e-05
3	10559	4.41	-1.86602e-05
3	10875	4.51	-2.34717e-05
3	11191	4.61	-2.69978e-05
3	11507	4.71	-2.94062e-05
3	11823	4.81	-3.08545e-05
3	12139	4.91	-3.14892e-05
3	12461	5.01	-3.14451e-05
3	12777	5.11	-3.0845e-05
3	13093	5.21	-2.97994e-05
3	13409	5.31	-2.84072e-05
3	13725	5.41	-2.67556e-05
3	14041	5.51	-2.49208e-05
3	14357	5.61	-2.29687e-05
3	14673	5.71	-2.09553e-05
3	14989	5.81	-1.89277e-05
3	15305	5.91	-1.6925e-05
3	15627	6.01	-1.49784e-05
3	15943	6.11	-1.31129e-05
3	16259	6.21	-1.13474e-05
3	16575	6.31	-9.69553e-06
3	16891	6.41	-8.16651e-06
3	17207	6.51	-6.76571e-06
3	17523	6.61	-5.49522e-06
3	17839	6.71	-4.35441e-06
3	18155	6.81	-3.34045e-06
3	18471	6.91	-2.44874e-06
3	18793	7.01	-1.6733e-06
3	19109	7.11	-1.00716e-06
3	19425	7.21	-4.42628e-07
3	19741	7.31	2.84224e-08
3	20057	7.41	4.14339e-07
3	20373	7.51	7.23492e-07
3	20689	7.61	9.6413e-07
3	21005	7.71	1.14424e-06
3	21321	7.81	1.27148e-06
3	21637	7.91	1.35305e-06
3	21959	8.01	1.3957e-06
3	22275	8.11	1.40565e-06
3	22591	8.21	1.3886e-06
3	22907	8.31	1.34971e-06
3	23223	8.41	1.2936e-06
3	23539	8.51	1.22437e-06
3	23855	8.61	1.14561e-06
3	24171	8.71	1.06046e-06
3	24487	8.81	9.71582e-07
3	24803	8.91	8.81246e-07
3	25125	9.01	7.91334e-07
3	25441	9.11	7.03381e-07
3	25757	9.21	6.18613e-07
3	26073	9.31	5.37979e-07
3	26389	9.41	4.62183e-07
3	26705	9.51	3.91714e-07
3	27021	9.61	3.26878e-07
3	27337	9.71	2.67827e-07
3	27653	9.81	2.14581e-07
3	27969	9.91	1.67052e-07
3	29223	10.01	1.25066e-07
3	29539	10.11	8.83794e-08
3	29855	10.21	5.66978e-08
3	30171	10.31	2.96922e-08
3	30487	10.41	7.00453e-09
3	30803	10.51	-1.17325e-08
3	31119	10.61	-2.68933e-08
3	31435	10.71	-3.88482e-08
3	31751	10.81	-4.79581e-08
3	32067	10.91	-5.45704e-08
3	32389	11.01	-5.90177e-08
3	32705	11.11	-6.16069e-08
3	33021	11.21	-6.26265e-08
3	33337	11.31	-6.23395e-08
3	33653	11.41	-6.09859e-08
3	33969	11.51	-5.87811e-08
3	34285	11.61	-5.59183e-08
3	34601	11.71	-5.25674e-08
3	34917	11.81	-4.88761e-08
3	35233	11.91	-4.4971e-08
3	35555	12.01	-4.09599e-08
3	35871	12.11	-3.69354e-08
3	36187	12.21	-3.29713e-08
3	36503	12.31	-2.9128e-08
3	36819	12.41	-2.54531e-08
3	37135	12.51	-2.19821e-08
3	37451	12.61	-1.87399e-08
3	37767	12.71	-1.57428e-08
3	38083	12.81	-1.30029e-08
3	38399	12.91	-1.05217e-08
3	38721	13.01	-8.29772e-09
3	39037	13.11	-6.32454e-09
3	39353	13.21	-4.59224e-09
3	39669	13.31	-3.08802e-09
3	39985	13.41	-1.79838e-09
3	40301	13.51	-7.08411e-10
3	40617	13.61	1.98241e-10
3	40933	13.71	9.37916e-10
3	41249	13.81	1.52767e-09
3	41565	13.91	1.98384e-09
3	41887	14.01	2.32276e-09
3	42203	14.11	2.55937e-09
3	42519	14.21	2.70788e-09
3	42835	14.31	2.78249e-09
3	43151	14.41	2.79243e-09
3	43467	14.51	2.7498e-09
3	43783	14.61	2.66525e-09
3	44099	14.71	2.54872e-09
3	44415	14.81	2.40803e-09
3	44731	14.91	2.24887e-09
3	45053	15.01	2.07763e-09
3	45369	15.11	1.89999e-09
3	45685	15.21	1.72236e-09
3	46001	15.31	1.54472e-09
3	46317	15.41	1.37064e-09
3	46633	15.51	1.20295e-09
3	46949	15.61	1.04379e-09
3	47265	15.71	8.94573e-10
3	47581	15.81	7.56017e-10
3	47897	15.91	6.29541e-10
3	48219	16.01	5.13012e-10
3	48535	16.11	4.09273e-10
3	48851	16.21	3.16902e-10
3	49167	16.31	2.3519e-10
3	49483	16.41	1.63425e-10
3	49799	16.51	1.02318e-10
3	50115	16.61	4.9738e-11
3	50431	16.71	5.68434e-12
3	50747	16.81	-3.05533e-11
3	51063	16.91	-5.8975e-11
3	51385	17.01	-8.10019e-11
3	51701	17.11	-9.80549e-11
3	52017	17.21	-1.11555e-10
3	52333	17.31	-1.18661e-10
3	52649	17.41	-1.23634e-10
3	52965	17.51	-1.23634e-10
3	53281	17.61	-1.23634e-10
3	53597	17.71	-1.21503e-10
3	53913	17.81	-1.14397e-10
3	54229	17.91	-1.07292e-10
3	54551	18.01	-1.00187e-10
3	54867	18.11	-9.30811e-11
3	55183	18.21	-8.59757e-11
3	55499	18.31	-7.88702e-11
3	55815	18.41	-7.17648e-11
3	56131	18.51	-6.46594e-11
3	56447	18.61	-5.7554e-11
3	56763	18.71	-5.04485e-11
3	57079	18.81	-4.33431e-11
3	57395	18.91	-3.62377e-11
3	57717	19.01	-2.91323e-11
3	58033	19.11	-2.20268e-11
3	58349	19.21	-1.7053e-11
3	58665	19.31	-1.49214e-11
3	58981	19.41	-1.35003e-11
3	59297	19.51	-1.27898e-11
3	59613	19.61	-1.13687e-11
3	59929	19.71	-9.9476e-12
3	60245	19.81	-9.23706e-12
3	60561	19.91	-8.52651e-12
3	60883	20.01	-7.81597e-12
3	61199	20.11	-7.10543e-12
3	61515	20.21	-6.39488e-12
3	61831	20.31	-5.68434e-12
3	62147	20.41	-4.9738e-12
3	62463	20.51	-4.26326e-12
3	62779	20.61	-4.26326e-12
3	63095	20.71	-3.55271e-12
3	63411	20.81	-3.55271e-12
3	63727	20.91	-2.84217e-12
3	64049	21.01	-2.84217e-12
3	64365	21.11	-2.84217e-12
3	64681	21.21	-2.13163e-12
3	64997	21.31	-2.13163e-12
3	65313	21.41	-2.13163e-12
3	65629	21.51	-1.42109e-12
3	65945	21.61	-1.42109e-12
3	66261	21.71	-1.42109e-12
3	66577	21.81	-1.42109e-12
3	66893	21.91	-1.42109e-12
3	67215	22.01	-7.10543e-13
3	67531	22.11	-7.10543e-13
3	67847	22.21	-7.10543e-13
3	68163	22.31	-7.10543e-13
3	68479	22.41	-7.10543e-13
3	68795	22.51	-7.10543e-13
3	69111	22.61	-7.10543e-13
3	69427	22.71	-7.10543e-13
3	69743	22.81	-7.10543e-13
3	70059	22.91	-7.10543e-13
3	70381	23.01	0
3	70697	23.11	0
3	71013	23.21	0
3	71329	23.31	0
3	71645	23.41	0
3	71961	23.51	0
3	72277	23.61	0
3	72593	23.71	0
3	72909	23.81	0
3	73225	23.91	0
3	73547	24.01	0
3	73863	24.11	0
3	74179	24.21	0
3	74495	24.31	0
3	74811	24.41	0
3	75127	24.51	0
3	75443	24.61	0
3	75759	24.71	0
3	76075	24.81	0
3	76391	24.91	0
3	76713	25.01	0
3	77029	25.11	0
3	77345	25.21	0
3	77661	25.31	0
3	77977	25.41	0
3	78293	25.51	0
3	78609	25.61	0
3	78925	25.71	0
3	79241	25.81	0
3	79557	25.91	0
3	79879	26.01	0
3	80195	26.11	0
3	80511	26.21	0
3	80827	26.31	0
3	81143	26.41	0
3	81459	26.51	0
3	81775	26.61	0
3	82091	26.71	0
3	82407	26.81	0
3	82723	26.91	0
3	83045	27.01	0
3	83361	27.11	0
3	83677	27.21	0
3	83993	27.31	0
3	84309	27.41	0
3	84625	27.51	0
3	84941	27.61	0
3	85257	27.71	0
3	85573	27.81	0
3	85889	27.91	0
3	86211	28.01	0
3	86527	28.11	0
3	86843	28.21	0
3	87159	28.31	0
3	87475	28.41	0
3	87791	28.51	0
3	88107	28.61	0
3	88423	28.71	0
3	88739	28.81	0
3	89055	28.91	0
3	89377	29.01	0
3	89693	29.11	0
3	90009	29.21	0
3	90325	29.31	0
3	90641	29.41	0
3	90957	29.51	0
3	91273	29.61	0
3	91589	29.71	0
3	91905	29.81	0
3	92221	29.91	0
3	92543	30.01	0
3	92859	30.11	0
3	93175	30.21	0
3	93491	30.31	0
3	93807	30.41	0
3	94123	30.51	0
3	94439	30.61	0
3	94755	30.71	0
3	95071	30.81	0
3	95387	30.91	0
3	95709	31.01	0
3	96025	31.11	0
3	96341	31.21	0
3	96657	31.31	0
3	96973	31.41	0
3	97289	31.51	0
3	97605	31.61	0
3	97921	31.71	0
3	98237	31.81	0
3	98553	31.91	0
3	98875	32.01	0
3	99191	32.11	0
3	99507	32.21	0
3	99823	32.31	0
3	100139	32.41	0
3	100455	32.51	0
3	100771	32.61	0
3	101087	32.71	0
3	101403	32.81	0
3	101719	32.91	0
3	102041	33.01	0
3	102357	33.11	0
3	102673	33.21	0
3	102989	33.31	0
3	103305	33.41	0
3	103621	33.51	0
3	103937	33.61	0
3	104253	33.71	0
3	104569	33.81	0
3	104885	33.91	0
3	105207	34.01	0
3	105523	34.11	0
3	105839	34.21	0
3	106155	34.31	0
3	106471	34.41	0
3	106787	34.51	0
3	107103	34.61	0
3	107419	34.71	0
3	107735	34.81	0
3	108051	34.91	0
3	108373	35.01	0
3	108689	35.11	0
3	109005	35.21	0
3	109321	35.31	0
3	109637	35.41	0
3	109953	35.51	0
3	110269	35.61	0
3	110585	35.71	0
3	110901	35.81	0
3	111217	35.91	0
3	111539	36.01	0
3	111855	36.11	0
3	112171	36.21	0
3	112487	36.31	0
3	112803	36.41	0
3	113119	36.51	0
3	113435	36.61	0
3	113751	36.71	0
3	114067	36.81	0
3	114383	36.91	0
3	114705	37.01	0
3	115021	37.11	0
3	115337	37.21	0
3	115653	37.31	0
3	115969	37.41	0
3	116285	37.51	0
3	116601	37.61	0
3	116917	37.71	0
3	117233	37.81	0
3	117549	37.91	0
3	117871	38.01	0
3	118187	38.11	0
3	118503	38.21	0
3	118819	38.31	0
3	119135	38.41	0
3	119451	38.51	0
3	119767	38.61	0
3	120083	38.71	0
3	120399	38.81	0
3	120715	38.91	0
3	121037	39.01	0
3	121353	39.11	0
3	121669	39.21	0
3	121985	39.31	0
3	122301	39.41	0
3	122617	39.51	0
3	122933	39.61	0
3	123249	39.71	0
3	123565	39.81	0
3	123881	39.91	0
3	124203	40.01	0
3	124519	40.11	0
3	124835	40.21	0
3	125151	40.31	0
3	125467	40.41	0
3	125783	40.51	0
3	126099	40.61	0
3	126415	40.71	0
3	126731	40.81	0
3	127047	40.91	0
3	127369	41.01	0
3	127685	41.11	0
3	128001	41.21	0
3	128317	41.31	0
3	128633	41.41	0
3	128949	41.51	0
3	129265	41.61	0
3	129581	41.71	0
3	129897	41.81	0
3	130213	41.91	0
3	130535	42.01	0
3	130851	42.11	0
3	131167	42.21	0
3	131483	42.31	0
3	131799	42.41	0
3	132115	42.51	0
3	132431	42.61	0
3	132747	42.71	0
3	133063	42.81	0
3	133379	42.91	0
3	133701	43.01	0
3	134017	43.11	0
3	134333	43.21	0
3	134649	43.31	0
3	134965	43.41	0
3	135281	43.51	0
3	135597	43.61	0
3	135913	43.71	0
3	136229	43.81	0
3	136545	43.91	0
3	136867	44.01	0
3	137183	44.11	0
3	137499	44.21	0
3	137815	44.31	0
3	138131	44.41	0
3	138447	44.51	0
3	138763	44.61	0
3	139079	44.71	0
3	139395	44.81	0
3	139711	44.91	0
3	140033	45.01	0
3	140349	45.11	0
3	140665	45.21	0
3	140981	45.31	0
3	141297	45.41	0
3	141613	45.51	0
3	141929	45.61	0
3	142245	45.71	0
3	142561	45.81	0
3	142877	45.91	0
3	143199	46.01	0
3	143515	46.11	0
3	143831	46.21	0
3	144147	46.31	0
3	144463	46.41	0
3	144779	46.51	0
3	145095	46.61	0
3	145411	46.71	0
3	145727	46.81	0
3	146043	46.91	0
3	146365	47.01	0
3	146681	47.11	0
3	146997	47.21	0
3	147313	47.31	0
3	147629	47.41	0
3	147945	47.51	0
3	148261	47.61	0
3	148577	47.71	0
3	148893	47.81	0
3	149209	47.91	0
3	149531	48.01	0
3	149847	48.11	0
3	150163	48.21	0
3	150479	48.31	0
3	150795	48.41	0
3	151111	48.51	0
3	151427	48.61	0
3	151743	48.71	0
3	152059	48.81	0
3	152375	48.91	0
3	152697	49.01	0
3	153013	49.11	0
3	153329	49.21	0
3	153645	49.31	0
3	153961	49.41	0
3	154277	49.51	0
3	154593	49.61	0
3	154909	49.71	0
3	155225	49.81	0
3	155541	49.91	0
3	155863	50.01	0
3	156179	50.11	0
3	156495	50.21	0
3	156811	50.31	0
3	157127	50.41	0
3	157443	50.51	0
3	157759	50.61	0
3	158075	50.71	0
3	158391	50.81	0
3	158707	50.91	0
3	159029	51.01	0
3	159345	51.11	0
3	159661	51.21	0
3	159977	51.31	0
3	160293	51.41	0
3	160609	51.51	0
3	160925	51.61	0
3	161241	51.71	0
3	161557	51.81	0
3	161873	51.91	0
3	162195	52.01	0
3	162511	52.11	0
3	162827	52.21	0
3	163143	52.31	0
3	163459	52.41	0
3	163775	52.51	0
3	164091	52.61	0
3	164407	52.71	0
3	164723	52.81	0
3	165039	52.91	0
3	165361	53.01	0
3	165677	53.11	0
3	165993	53.21	0
3	166309	53.31	0
3	166625	53.41	0
3	166941	53.51	0
3	167257	53.61	0
3	167573	53.71	0
3	167889	53.81	0
3	168205	53.91	0
3	168527	54.01	0
3	168843	54.11	0
3	169159	54.21	0
3	169475	54.31	0
3	169791	54.41	0
3	170107	54.51	0
3	170423	54.61	0
3	170739	54.71	0
3	171055	54.81	0
3	171371	54.91	0
3	171693	55.01	0
3	172009	55.11	0
3	172325	55.21	0
3	172641	55.31	0
3	172957	55.41	0
3	173273	55.51	0
3	173589	55.61	0
3	173905	55.71	0
3	174221	55.81	0
3	174537	55.91	0
3	174859	56.01	0
3	175175	56.11	0
3	175491	56.21	0
3	175807	56.31	0
3	176123	56.41	0
3	176439	56.51	0
3	176755	56.61	0
3	177071	56.71	0
3	177387	56.81	0
3	177703	56.91	0
3	178025	57.01	0
3	178341	57.11	0
3	178657	57.21	0
3	178973	57.31	0
3	179289	57.41	0
3	179605	57.51	0
3	179921	57.61	0
3	180237	57.71	0
3	180553	57.81	0
3	180869	57.91	0
3	181191	58.01	0
3	181507	58.11	0
3	181823	58.21	0
3	182139	58.31	0
3	182455	58.41	0
3	182771	58.51	0
3	183087	58.61	0
3	183403	58.71	0
3	183719	58.81	0
3	184035	58.91	0
3	184357	59.01	0
3	184673	59.11	0
3	184989	59.21	0
3	185305	59.31	0
3	185621	59.41	0
3	185937	59.51	0
3	186253	59.61	0
3	186569	59.71	0
3	186885	59.81	0
3	187201	59.91	0
3	187523	60.01	0
3	187839	60.11	0
3	188155	60.21	0
3	188471	60.31	0
3	188787	60.41	0
3	189103	60.51	0
3	189419	60.61	0
3	189735	60.71	0
3	190051	60.81	0
3	190367	60.91	0
3	190689	61.01	0
3	191005	61.11	0
3	191321	61.21	0
3	191637	61.31	0
3	191953	61.41	0
3	192269	61.51	0
3	192585	61.61	0
3	192901	61.71	0
3	193217	61.81	0
3	193533	61.91	0
3	193855	62.01	0
3	194171	62.11	0
3	194487	62.21	0
3	194803	62.31	0
3	195119	62.41	0
3	195435	62.51	0
3	195751	62.61	0
3	196067	62.71	0
3	196383	62.81	0
3	196699	62.91	0
3	197021	63.01	0
3	197337	63.11	0
3	197653	63.21	0
3	197969	63.31	0
3	198285	63.41	0
3	198601	63.51	0
3	198917	63.61	0
3	199233	63.71	0
3	199549	63.81	0
3	199865	63.91	0
3	200187	64.01	0
3	200503	64.11	0
3	200819	64.21	0
3	201135	64.31	0
3	201451	64.41	0
3	201767	64.51	0
3	202083	64.61	0
3	202399	64.71	0
3	202715	64.81	0
3	203031	64.91	0
3	203353	65.01	0
3	203669	65.11	0
3	203985	65.21	0
3	204301	65.31	0
3	204617	65.41	0
3	204933	65.51	0
3	205249	65.61	0
3	205565	65.71	0
3	205881	65.81	0
3	206197	65.91	0
3	206519	66.01	0
3	206835	66.11	0
3	207151	66.21	0
3	207467	66.31	0
3	207783	66.41	0
3	208099	66.51	0
3	208415	66.61	0
3	208731	66.71	0
3	209047	66.81	0
3	209363	66.91	0
3	209685	67.01	0
3	210001	67.11	0
3	210317	67.21	0
3	210633	67.31	0
3	210949	67.41	0
3	211265	67.51	0
3	211581	67.61	0
3	211897	67.71	0
3	212213	67.81	0
3	212529	67.91	0
3	212851	68.01	0
3	213167	68.11	0
3	213483	68.21	0
3	213799	68.31	0
3	214115	68.41	0
3	214431	68.51	0
3	214747	68.61	0
3	215063	68.71	0
3	215379	68.81	0
3	215695	68.91	0
3	216017	69.01	0
3	216333	69.11	0
3	216649	69.21	0
3	216965	69.31	0
3	217281	69.41	0
3	217597	69.51	0
3	217913	69.61	0
3	218229	69.71	0
3	218545	69.81	0
3	218861	69.91	0
3	219183	70.01	0
3	219499	70.11	0
3	219815	70.21	0
3	220131	70.31	0
3	220447	70.41	0
3	220763	70.51	0
3	221079	70.61	0
3	221395	70.71	0
3	221711	70.81	0
3	222027	70.91	0
3	222349	71.01	0
3	222665	71.11	0
3	222981	71.21	0
3	223297	71.31	0
3	223613	71.41	0
3	223929	71.51	0
3	224245	71.61	0
3	224561	71.71	0
3	224877	71.81	0
3	225193	71.91	0
3	225515	72.01	0
3	225831	72.11	0
3	226147	72.21	0
3	226463	72.31	0
3	226779	72.41	0
3	227095	72.51	0
3	227411	72.61	0
3	227727	72.71	0
3	228043	72.81	0
3	228359	72.91	0
3	228681	73.01	0
3	228997	73.11	0
3	229313	73.21	0
3	229629	73.31	0
3	229945	73.41	0
3	230261	73.51	0
3	230577	73.61	0
3	230893	73.71	0
3	231209	73.81	0
3	231525	73.91	0
3	231847	74.01	0
3	232163	74.11	0
3	232479	74.21	0
3	232795	74.31	0
3	233111	74.41	0
3	233427	74.51	0
3	233743	74.61	0
3	234059	74.71	0
3	234375	74.81	0
3	234691	74.91	0
3	235013	75.01	0
3	235329	75.11	0
3	235645	75.21	0
3	235961	75.31	0
3	236277	75.41	0
3	236593	75.51	0
3	236909	75.61	0
3	237225	75.71	0
3	237541	75.81	0
3	237857	75.91	0
3	238179	76.01	0
3	238495	76.11	0
3	238811	76.21	0
3	239127	76.31	0
3	239443	76.41	0
3	239759	76.51	0
3	240075	76.61	0
3	240391	76.71	0
3	240707	76.81	0
3	241023	76.91	0
3	241345	77.01	0
3	241661	77.11	0
3	241977	77.21	0
3	242293	77.31	0
3	242609	77.41	0
3	242925	77.51	0
3	243241	77.61	0
3	243557	77.71	0
3	243873	77.81	0
3	244189	77.91	0
3	244511	78.01	0
3	244827	78.11	0
3	245143	78.21	0
3	245459	78.31	0
3	245775	78.41	0
3	246091	78.51	0
3	246407	78.61	0
3	246723	78.71	0
3	247039	78.81	0
3	247355	78.91	0
3	247677	79.01	0
3	247993	79.11	0
3	248309	79.21	0
3	248625	79.31	0
3	248941	79.41	0
3	249257	79.51	0
3	249573	79.61	0
3	249889	79.71	0
3	250205	79.81	0
3	250521	79.91	0
3	250843	80.01	0
3	251159	80.11	0
3	251475	80.21	0
3	251791	80.31	0
3	252107	80.41	0
3	252423	80.51	0
3	252739	80.61	0
3	253055	80.71	0
3	253371	80.81	0
3	253687	80.91	0
3	254009	81.01	0
3	254325	81.11	0
3	254641	81.21	0
3	254957	81.31	0
3	255273	81.41	0
3	255589	81.51	0
3	255905	81.61	0
3	256221	81.71	0
3	256537	81.81	0
3	256853	81.91	0
3	257175	82.01	0
3	257491	82.11	0
3	257807	82.21	0
3	258123	82.31	0
3	258439	82.41	0
3	258755	82.51	0
3	259071	82.61	0
3	259387	82.71	0
3	259703	82.81	0
3	260019	82.91	0
3	260341	83.01	0
3	260657	83.11	0
3	260973	83.21	0
3	261289	83.31	0
3	261605	83.41	0
3	261921	83.51	0
3	262237	83.61	0
3	262553	83.71	0
3	262869	83.81	0
3	263185	83.91	0
3	263507	84.01	0
3	263823	84.11	0
3	264139	84.21	0
3	264455	84.31	0
3	264771	84.41	0
3	265087	84.51	0
3	265403	84.61	0
3	265719	84.71	0
3	266035	84.81	0
3	266351	84.91	0
3	266673	85.01	0
3	266989	85.11	0
3	267305	85.21	0
3	267621	85.31	0
3	267937	85.41	0
3	268253	85.51	0
3	268569	85.61	0
3	268885	85.71	0
3	269201	85.81	0
3	269517	85.91	0
3	269839	86.01	0
3	270155	86.11	0
3	270471	86.21	0
3	270787	86.31	0
3	271103	86.41	0
3	271419	86.51	0
3	271735	86.61	0
3	272051	86.71	0
3	272367	86.81	0
3	272683	86.91	0
3	273005	87.01	0
3	273321	87.11	0
3	273637	87.21	0
3	273953	87.31	0
3	274269	87.41	0
3	274585	87.51	0
3	274901	87.61	0
3	275217	87.71	0
3	275533	87.81	0
3	275849	87.91	0
3	276171	88.01	0
3	276487	88.11	0
3	276803	88.21	0
3	277119	88.31	0
3	277435	88.41	0
3	277751	88.51	0
3	278067	88.61	0
3	278383	88.71	0
3	278699	88.81	0
3	279015	88.91	0
3	279337	89.01	0
3	279653	89.11	0
3	279969	89.21	0
3	280285	89.31	0
3	280601	89.41	0
3	280917	89.51	0
3	281233	89.61	0
3	281549	89.71	0
3	281865	89.81	0
3	282181	89.91	0
3	282503	90.01	0
3	282819	90.11	0
3	283135	90.21	0
3	283451	90.31	0
3	283767	90.41	0
3	284083	90.51	0
3	284399	90.61	0
3	284715	90.71	0
3	285031	90.81	0
3	285347	90.91	0
3	285669	91.01	0
3	285985	91.11	0
3	286301	91.21	0
3	286617	91.31	0
3	286933	91.41	0
3	287249	91.51	0
3	287565	91.61	0
3	287881	91.71	0
3	288197	91.81	0
3	288513	91.91	0
3	288835	92.01	0
3	289151	92.11	0
3	289467	92.21	0
3	289783	92.31	0
3	290099	92.41	0
3	290415	92.51	0
3	290731	92.61	0
3	291047	92.71	0
3	291363	92.81	0
3	291679	92.91	0
3	292001	93.01	0
3	292317	93.11	0
3	292633	93.21	0
3	292949	93.31	0
3	293265	93.41	0
3	293581	93.51	0
3	293897	93.61	0
3	294213	93.71	0
3	294529	93.81	0
3	294845	93.91	0
3	295167	94.01	0
3	295483	94.11	0
3	295799	94.21	0
3	296115	94.31	0
3	296431	94.41	0
3	296747	94.51	0
3	297063	94.61	0
3	297379	94.71	0
3	297695	94.81	0
3	298011	94.91	0
3	298333	95.01	0
3	298649	95.11	0
3	298965	95.21	0
3	299281	95.31	0
3	299597	95.41	0
3	299913	95.51	0
3	300229	95.61	0
3	300545	95.71	0
3	300861	95.81	0
3	301177	95.91	0
3	301499	96.01	0
3	301815	96.11	0
3	302131	96.21	0
3	302447	96.31	0
3	302763	96.41	0
3	303079	96.51	0
3	303395	96.61	0
3	303711	96.71	0
3	304027	96.81	0
3	304343	96.91	0
3	304665	97.01	0
3	304981	97.11	0
3	305297	97.21	0
3	305613	97.31	0
3	305929	97.41	0
3	306245	97.51	0
3	306561	97.61	0
3	306877	97.71	0
3	307193	97.81	0
3	307509	97.91	0
3	307831	98.01	0
3	308147	98.11	0
3	308463	98.21	0
3	308779	98.31	0
3	309095	98.41	0
3	309411	98.51	0
3	309727	98.61	0
3	310043	98.71	0
3	310359	98.81	0
3	310675	98.91	0
3	310997	99.01	0
3	311313	99.11	0
3	311629	99.21	0
3	311945	99.31	0
3	312261	99.41	0
3	312577	99.51	0
3	312893	99.61	0
3	313209	99.71	0
3	313525	99.81	0
3	313841	99.91	0
4	113	1.11	0.00109259
4	429	1.21	0.00106709
4	745	1.31	0.00102704
4	1061	1.41	0.000975759
4	1377	1.51	0.00091619
4	1693	1.61	0.000850891
4	2009	1.71	0.000782061
4	2325	1.81	0.00071157
4	2641	1.91	0.00064098
4	2963	2.01	0.000571575
4	3279	2.11	0.000504387
4	3595	2.21	0.000440223
4	3911	2.31	0.000379691
4	4227	2.41	0.000323223
4	4543	2.51	0.000271102
4	4859	2.61	0.000223482
4	5175	2.71	0.000180409
4	5491	2.81	0.000141839
4	5807	2.91	0.000107653
4	6129	3.01	7.76787e-05
4	6445	3.11	5.16957e-05
4	6761	3.21	2.94534e-05
4	7077	3.31	1.06787e-05
4	7393	3.41	-4.91459e-06
4	7709	3.51	-1.76184e-05
4	8025	3.61	-2.7724e-05
4	8341	3.71	-3.55168e-05
4	8657	3.81	-4.12726e-05
4	8973	3.91	-4.52541e-05
4	9295	4.01	-4.77086e-05
4	9611	4.11	-4.88665e-05
4	9927	4.21	-4.89399e-05
4	10243	4.31	-4.81224e-05
4	10559	4.41	-4.65886e-05
4	10875	4.51	-4.44947e-05
4	11191	4.61	-4.1979e-05
4	11507	4.71	-3.91623e-05
4	11823	4.81	-3.61492e-05
4	12139	4.91	-3.3029e-05
4	12461	5.01	-2.9877e-05
4	12777	5.11	-2.67554e-05
4	13093	5.21	-2.37147e-05
4	13409	5.31	-2.07949e-05
4	13725	5.41	-1.80267e-05
4	14041	5.51	-1.54325e-05
4	14357	5.61	-1.30275e-05
4	14673	5.71	-1.0821e-05
4	14989	5.81	-8.81673e-06
4	15305	5.91	-7.01443e-06
4	15627	6.01	-5.4101e-06
4	15943	6.11	-3.99696e-06
4	16259	6.21	-2.766e-06
4	16575	6.31	-1.70658e-06
4	16891	6.41	-8.06872e-07
4	17207	6.51	-5.43281e-08
4	17523	6.61	5.63994e-07
[...]
73	263401	84	0
73	266567	85	0
73	269733	86	0
73	272899	87	0
73	276065	88	0
73	279231	89	0
73	282397	90	0
73	285563	91	0
73	288729	92	0
73	291895	93	0
73	295061	94	0
73	298227	95	0
73	301393	96	0
73	304559	97	0
73	307725	98	0
73	310891	99	0
73	314057	100	0
74	2858	2	2
74	6024	3	2
74	9190	4	2
74	12356	5	2
74	15522	6	2
74	18688	7	2
74	21854	8	2
74	25020	9	2
74	28187	10	2
74	32284	11	2
74	35450	12	2
74	38616	13	2
74	41782	14	2
74	44948	15	2
74	48114	16	2
74	51280	17	2
74	54446	18	2
74	57612	19	2
74	60778	20	2
74	63944	21	2
74	67110	22	2
74	70276	23	2
74	73442	24	2
74	76608	25	2
74	79774	26	2
74	82940	27	2
74	86106	28	2
74	89272	29	2
74	92438	30	2
74	95604	31	2
74	98770	32	2
74	101936	33	2
74	105102	34	2
74	108268	35	2
74	111434	36	2
74	114600	37	2
74	117766	38	2
74	120932	39	2
74	124098	40	2
74	127264	41	2
74	130430	42	2
74	133596	43	2
74	136762	44	2
74	139928	45	2
74	143094	46	2
74	146260	47	2
74	149426	48	2
74	152592	49	2
74	155758	50	2
74	158924	51	2
74	162090	52	2
74	165256	53	2
74	168422	54	2
74	171588	55	2
74	174754	56	2
74	177920	57	2
74	181086	58	2
74	184252	59	2
74	187418	60	2
74	190584	61	2
74	193750	62	2
74	196916	63	2
74	200082	64	2
74	203248	65	2
74	206414	66	2
74	209580	67	2
74	212746	68	2
74	215912	69	2
74	219078	70	2
74	222244	71	2
74	225410	72	2
74	228576	73	2
74	231742	74	2
74	234908	75	2
74	238074	76	2
74	241240	77	2
74	244406	78	2
74	247572	79	2
74	250738	80	2
74	253904	81	2
74	257070	82	2
74	260236	83	2
74	263402	84	2
74	266568	85	2
74	269734	86	2
74	272900	87	2
74	276066	88	2
74	279232	89	2
74	282398	90	2
74	285564	91	2
74	288730	92	2
74	291896	93	2
74	295062	94	2
74	298228	95	2
74	301394	96	2
74	304560	97	2
74	307726	98	2
74	310892	99	2
74	314058	100	2
75	2858	2	0.016233
75	6024	3	0.01873
75	9190	4	0.01873
75	12356	5	0.01873
75	15522	6	0.01873
75	18688	7	0.01873
75	21854	8	0.01873
75	25020	9	0.01873
75	28187	10	0.01873
75	32284	11	0.020106080058
75	35450	12	0.01873
75	38616	13	0.01873
75	41782	14	0.01873
75	44948	15	0.01873
75	48114	16	0.01873
75	51280	17	0.01873
75	54446	18	0.01873
75	57612	19	0.01873
75	60778	20	0.01873
75	63944	21	0.01873
75	67110	22	0.01873
75	70276	23	0.01873
75	73442	24	0.01873
75	76608	25	0.01873
75	79774	26	0.01873
75	82940	27	0.01873
75	86106	28	0.01873
75	89272	29	0.01873
75	92438	30	0.01873
75	95604	31	0.01873
75	98770	32	0.01873
75	101936	33	0.01873
75	105102	34	0.01873
75	108268	35	0.01873
75	111434	36	0.01873
75	114600	37	0.01873
75	117766	38	0.01873
75	120932	39	0.01873
75	124098	40	0.01873
75	127264	41	0.01873
75	130430	42	0.01873
75	133596	43	0.01873
75	136762	44	0.01873
75	139928	45	0.01873
75	143094	46	0.01873
75	146260	47	0.01873
75	149426	48	0.01873
75	152592	49	0.01873
75	155758	50	0.01873
75	158924	51	0.01873
75	162090	52	0.01873
75	165256	53	0.01873
75	168422	54	0.01873
75	171588	55	0.01873
75	174754	56	0.01873
75	177920	57	0.01873
75	181086	58	0.01873
75	184252	59	0.01873
75	187418	60	0.01873
75	190584	61	0.01873
75	193750	62	0.01873
75	196916	63	0.01873
75	200082	64	0.01873
75	203248	65	0.01873
75	206414	66	0.01873
75	209580	67	0.01873
75	212746	68	0.01873
75	215912	69	0.01873
75	219078	70	0.01873
75	222244	71	0.01873
75	225410	72	0.01873
75	228576	73	0.01873
75	231742	74	0.01873
75	234908	75	0.01873
75	238074	76	0.01873
75	241240	77	0.01873
75	244406	78	0.01873
75	247572	79	0.01873
75	250738	80	0.01873
75	253904	81	0.01873
75	257070	82	0.01873
75	260236	83	0.01873
75	263402	84	0.01873
75	266568	85	0.01873
75	269734	86	0.01873
75	272900	87	0.01873
75	276066	88	0.01873
75	279232	89	0.01873
75	282398	90	0.01873
75	285564	91	0.01873
75	288730	92	0.01873
75	291896	93	0.01873
75	295062	94	0.01873
75	298228	95	0.01873
75	301394	96	0.01873
75	304560	97	0.01873
75	307726	98	0.01873
75	310892	99	0.01873
75	314058	100	0.01873
76	2858	2	0
76	6024	3	0
76	9190	4	0
76	12356	5	0
76	15522	6	0
76	18688	7	0
76	21854	8	0
76	25020	9	0
76	28187	10	0
76	32284	11	0
76	35450	12	0
76	38616	13	0
76	41782	14	0
76	44948	15	0
76	48114	16	0
76	51280	17	0
76	54446	18	0
76	57612	19	0
76	60778	20	0
76	63944	21	0
76	67110	22	0
76	70276	23	0
76	73442	24	0
76	76608	25	0
76	79774	26	0
76	82940	27	0
76	86106	28	0
76	89272	29	0
76	92438	30	0
76	95604	31	0
76	98770	32	0
76	101936	33	0
76	105102	34	0
76	108268	35	0
76	111434	36	0
76	114600	37	0
76	117766	38	0
76	120932	39	0
76	124098	40	0
76	127264	41	0
76	130430	42	0
76	133596	43	0
76	136762	44	0
76	139928	45	0
76	143094	46	0
76	146260	47	0
76	149426	48	0
76	152592	49	0
76	155758	50	0
76	158924	51	0
76	162090	52	0
76	165256	53	0
76	168422	54	0
76	171588	55	0
76	174754	56	0
76	177920	57	0
76	181086	58	0
76	184252	59	0
76	187418	60	0
76	190584	61	0
76	193750	62	0
76	196916	63	0
76	200082	64	0
76	203248	65	0
76	206414	66	0
76	209580	67	0
76	212746	68	0
76	215912	69	0
76	219078	70	0
76	222244	71	0
76	225410	72	0
76	228576	73	0
76	231742	74	0
76	234908	75	0
76	238074	76	0
76	241240	77	0
76	244406	78	0
76	247572	79	0
76	250738	80	0
76	253904	81	0
76	257070	82	0
76	260236	83	0
76	263402	84	0
76	266568	85	0
76	269734	86	0
76	272900	87	0
76	276066	88	0
76	279232	89	0
76	282398	90	0
76	285564	91	0
76	288730	92	0
76	291896	93	0
76	295062	94	0
76	298228	95	0
76	301394	96	0
76	304560	97	0
76	307726	98	0
76	310892	99	0
76	314058	100	0
77	2859	2	3
77	6025	3	3
77	9191	4	3
77	12357	5	3
77	15523	6	3
77	18689	7	3
77	21855	8	3
77	25021	9	3
77	28188	10	3
77	32285	11	3
77	35451	12	3
77	38617	13	3
77	41783	14	3
77	44949	15	3
77	48115	16	3
77	51281	17	3
77	54447	18	3
77	57613	19	3
77	60779	20	3
77	63945	21	3
77	67111	22	3
77	70277	23	3
77	73443	24	3
77	76609	25	3
77	79775	26	3
77	82941	27	3
77	86107	28	3
77	89273	29	3
77	92439	30	3
77	95605	31	3
77	98771	32	3
77	101937	33	3
77	105103	34	3
77	108269	35	3
77	111435	36	3
77	114601	37	3
77	117767	38	3
77	120933	39	3
77	124099	40	3
77	127265	41	3
77	130431	42	3
77	133597	43	3
77	136763	44	3
77	139929	45	3
77	143095	46	3
77	146261	47	3
77	149427	48	3
77	152593	49	3
77	155759	50	3
77	158925	51	3
77	162091	52	3
77	165257	53	3
77	168423	54	3
77	171589	55	3
77	174755	56	3
77	177921	57	3
77	181087	58	3
77	184253	59	3
77	187419	60	3
77	190585	61	3
77	193751	62	3
77	196917	63	3
77	200083	64	3
77	203249	65	3
77	206415	66	3
77	209581	67	3
77	212747	68	3
77	215913	69	3
77	219079	70	3
77	222245	71	3
77	225411	72	3
77	228577	73	3
77	231743	74	3
77	234909	75	3
77	238075	76	3
77	241241	77	3
77	244407	78	3
77	247573	79	3
77	250739	80	3
77	253905	81	3
77	257071	82	3
77	260237	83	3
77	263403	84	3
77	266569	85	3
77	269735	86	3
77	272901	87	3
77	276067	88	3
77	279233	89	3
77	282399	90	3
77	285565	91	3
77	288731	92	3
77	291897	93	3
77	295063	94	3
77	298229	95	3
77	301395	96	3
77	304561	97	3
77	307727	98	3
77	310893	99	3
77	314059	100	3
78	2859	2	0.016232
78	6025	3	0.01873
78	9191	4	0.01873
78	12357	5	0.01873
78	15523	6	0.01873
78	18689	7	0.01873
78	21855	8	0.01873
78	25021	9	0.01873
78	28188	10	0.01873
78	32285	11	0.020106120086
78	35451	12	0.01873
78	38617	13	0.01873
78	41783	14	0.01873
78	44949	15	0.01873
78	48115	16	0.01873
78	51281	17	0.01873
78	54447	18	0.01873
78	57613	19	0.01873
78	60779	20	0.01873
78	63945	21	0.01873
78	67111	22	0.01873
78	70277	23	0.01873
78	73443	24	0.01873
78	76609	25	0.01873
78	79775	26	0.01873
78	82941	27	0.01873
78	86107	28	0.01873
78	89273	29	0.01873
78	92439	30	0.01873
78	95605	31	0.01873
78	98771	32	0.01873
78	101937	33	0.01873
78	105103	34	0.01873
78	108269	35	0.01873
78	111435	36	0.01873
78	114601	37	0.01873
78	117767	38	0.01873
78	120933	39	0.01873
78	124099	40	0.01873
78	127265	41	0.01873
78	130431	42	0.01873
78	133597	43	0.01873
78	136763	44	0.01873
78	139929	45	0.01873
78	143095	46	0.01873
78	146261	47	0.01873
78	149427	48	0.01873
78	152593	49	0.01873
78	155759	50	0.01873
78	158925	51	0.01873
78	162091	52	0.01873
78	165257	53	0.01873
78	168423	54	0.01873
78	171589	55	0.01873
78	174755	56	0.01873
78	177921	57	0.01873
78	181087	58	0.01873
78	184253	59	0.01873
78	187419	60	0.01873
78	190585	61	0.01873
78	193751	62	0.01873
78	196917	63	0.01873
78	200083	64	0.01873
78	203249	65	0.01873
78	206415	66	0.01873
78	209581	67	0.01873
78	212747	68	0.01873
78	215913	69	0.01873
78	219079	70	0.01873
78	222245	71	0.01873
78	225411	72	0.01873
78	228577	73	0.01873
78	231743	74	0.01873
78	234909	75	0.01873
78	238075	76	0.01873
78	241241	77	0.01873
78	244407	78	0.01873
78	247573	79	0.01873
78	250739	80	0.01873
78	253905	81	0.01873
78	257071	82	0.01873
78	260237	83	0.01873
78	263403	84	0.01873
78	266569	85	0.01873
78	269735	86	0.01873
78	272901	87	0.01873
78	276067	88	0.01873
78	279233	89	0.01873
78	282399	90	0.01873
78	285565	91	0.01873
78	288731	92	0.01873
78	291897	93	0.01873
78	295063	94	0.01873
78	298229	95	0.01873
78	301395	96	0.01873
78	304561	97	0.01873
78	307727	98	0.01873
78	310893	99	0.01873
78	314059	100	0.01873
79	2859	2	0
79	6025	3	0
79	9191	4	0
79	12357	5	0
79	15523	6	0
79	18689	7	0
79	21855	8	0
79	25021	9	0
79	28188	10	0
79	32285	11	0
79	35451	12	0
79	38617	13	0
79	41783	14	0
79	44949	15	0
79	48115	16	0
79	51281	17	0
79	54447	18	0
79	57613	19	0
79	60779	20	0
79	63945	21	0
79	67111	22	0
79	70277	23	0
79	73443	24	0
79	76609	25	0
79	79775	26	0
79	82941	27	0
79	86107	28	0
79	89273	29	0
79	92439	30	0
79	95605	31	0
79	98771	32	0
79	101937	33	0
79	105103	34	0
79	108269	35	0
79	111435	36	0
79	114601	37	0
79	117767	38	0
79	120933	39	0
79	124099	40	0
79	127265	41	0
79	130431	42	0
79	133597	43	0
79	136763	44	0
79	139929	45	0
79	143095	46	0
79	146261	47	0
79	149427	48	0
79	152593	49	0
79	155759	50	0
79	158925	51	0
79	162091	52	0
79	165257	53	0
79	168423	54	0
79	171589	55	0
79	174755	56	0
79	177921	57	0
79	181087	58	0
79	184253	59	0
79	187419	60	0
79	190585	61	0
79	193751	62	0
79	196917	63	0
79	200083	64	0
79	203249	65	0
79	206415	66	0
79	209581	67	0
79	212747	68	0
79	215913	69	0
79	219079	70	0
79	222245	71	0
79	225411	72	0
79	228577	73	0
79	231743	74	0
79	234909	75	0
79	238075	76	0
79	241241	77	0
79	244407	78	0
79	247573	79	0
79	250739	80	0
79	253905	81	0
79	257071	82	0
79	260237	83	0
79	263403	84	0
79	266569	85	0
79	269735	86	0
79	272901	87	0
79	276067	88	0
79	279233	89	0
79	282399	90	0
79	285565	91	0
79	288731	92	0
79	291897	93	0
79	295063	94	0
79	298229	95	0
79	301395	96	0
79	304561	97	0
79	307727	98	0
79	310893	99	0
79	314059	100	0
80	2860	2	4
80	6026	3	4
80	9192	4	4
80	12358	5	4
80	15524	6	4
80	18690	7	4
80	21856	8	4
80	25022	9	4
80	28189	10	4
80	32286	11	4
80	35452	12	4
80	38618	13	4
80	41784	14	4
80	44950	15	4
80	48116	16	4
80	51282	17	4
80	54448	18	4
80	57614	19	4
80	60780	20	4
80	63946	21	4
80	67112	22	4
80	70278	23	4
80	73444	24	4
80	76610	25	4
80	79776	26	4
80	82942	27	4
80	86108	28	4
80	89274	29	4
80	92440	30	4
80	95606	31	4
80	98772	32	4
80	101938	33	4
80	105104	34	4
80	108270	35	4
80	111436	36	4
80	114602	37	4
80	117768	38	4
80	120934	39	4
80	124100	40	4
80	127266	41	4
80	130432	42	4
80	133598	43	4
80	136764	44	4
80	139930	45	4
80	143096	46	4
80	146262	47	4
80	149428	48	4
80	152594	49	4
80	155760	50	4
80	158926	51	4
80	162092	52	4
80	165258	53	4
80	168424	54	4
80	171590	55	4
80	174756	56	4
80	177922	57	4
80	181088	58	4
80	184254	59	4
80	187420	60	4
80	190586	61	4
80	193752	62	4
80	196918	63	4
80	200084	64	4
80	203250	65	4
80	206416	66	4
80	209582	67	4
80	212748	68	4
80	215914	69	4
80	219080	70	4
80	222246	71	4
80	225412	72	4
80	228578	73	4
80	231744	74	4
80	234910	75	4
80	238076	76	4
80	241242	77	4
80	244408	78	4
80	247574	79	4
80	250740	80	4
80	253906	81	4
80	257072	82	4
80	260238	83	4
80	263404	84	4
80	266570	85	4
80	269736	86	4
80	272902	87	4
80	276068	88	4
80	279234	89	4
80	282400	90	4
80	285566	91	4
80	288732	92	4
80	291898	93	4
80	295064	94	4
80	298230	95	4
80	301396	96	4
80	304562	97	4
80	307728	98	4
80	310894	99	4
80	314060	100	4
81	2860	2	0.016233
81	6026	3	0.01873
81	9192	4	0.01873
81	12358	5	0.01873
81	15524	6	0.01873
81	18690	7	0.01873
81	21856	8	0.01873
81	25022	9	0.01873
81	28189	10	0.01873
81	32286	11	0.020106160114
81	35452	12	0.01873
81	38618	13	0.01873
81	41784	14	0.01873
81	44950	15	0.01873
81	48116	16	0.01873
81	51282	17	0.01873
81	54448	18	0.01873
81	57614	19	0.01873
81	60780	20	0.01873
81	63946	21	0.01873
81	67112	22	0.01873
81	70278	23	0.01873
81	73444	24	0.01873
81	76610	25	0.01873
81	79776	26	0.01873
81	82942	27	0.01873
81	86108	28	0.01873
81	89274	29	0.01873
81	92440	30	0.01873
81	95606	31	0.01873
81	98772	32	0.01873
81	101938	33	0.01873
81	105104	34	0.01873
81	108270	35	0.01873
81	111436	36	0.01873
81	114602	37	0.01873
81	117768	38	0.01873
81	120934	39	0.01873
81	124100	40	0.01873
81	127266	41	0.01873
81	130432	42	0.01873
81	133598	43	0.01873
81	136764	44	0.01873
81	139930	45	0.01873
81	143096	46	0.01873
81	146262	47	0.01873
81	149428	48	0.01873
81	152594	49	0.01873
81	155760	50	0.01873
81	158926	51	0.01873
81	162092	52	0.01873
81	165258	53	0.01873
81	168424	54	0.01873
81	171590	55	0.01873
81	174756	56	0.01873
81	177922	57	0.01873
81	181088	58	0.01873
81	184254	59	0.01873
81	187420	60	0.01873
81	190586	61	0.01873
81	193752	62	0.01873
81	196918	63	0.01873
81	200084	64	0.01873
81	203250	65	0.01873
81	206416	66	0.01873
81	209582	67	0.01873
81	212748	68	0.01873
81	215914	69	0.01873
81	219080	70	0.01873
81	222246	71	0.01873
81	225412	72	0.01873
81	228578	73	0.01873
81	231744	74	0.01873
81	234910	75	0.01873
81	238076	76	0.01873
81	241242	77	0.01873
81	244408	78	0.01873
81	247574	79	0.01873
81	250740	80	0.01873
81	253906	81	0.01873
81	257072	82	0.01873
81	260238	83	0.01873
81	263404	84	0.01873
81	266570	85	0.01873
81	269736	86	0.01873
81	272902	87	0.01873
81	276068	88	0.01873
81	279234	89	0.01873
81	282400	90	0.01873
81	285566	91	0.01873
81	288732	92	0.01873
81	291898	93	0.01873
81	295064	94	0.01873
81	298230	95	0.01873
81	301396	96	0.01873
81	304562	97	0.01873
81	307728	98	0.01873
81	310894	99	0.01873
81	314060	100	0.01873
82	2860	2	0
82	6026	3	0
82	9192	4	0
82	12358	5	0
82	15524	6	0
82	18690	7	0
82	21856	8	0
82	25022	9	0
82	28189	10	0
82	32286	11	0
82	35452	12	0
82	38618	13	0
82	41784	14	0
82	44950	15	0
82	48116	16	0
82	51282	17	0
82	54448	18	0
82	57614	19	0
82	60780	20	0
82	63946	21	0
82	67112	22	0
82	70278	23	0
82	73444	24	0
82	76610	25	0
82	79776	26	0
82	82942	27	0
82	86108	28	0
82	89274	29	0
82	92440	30	0
82	95606	31	0
82	98772	32	0
82	101938	33	0
82	105104	34	0
82	108270	35	0
82	111436	36	0
82	114602	37	0
82	117768	38	0
82	120934	39	0
82	124100	40	0
82	127266	41	0
82	130432	42	0
82	133598	43	0
82	136764	44	0
82	139930	45	0
82	143096	46	0
82	146262	47	0
82	149428	48	0
82	152594	49	0
82	155760	50	0
82	158926	51	0
82	162092	52	0
82	165258	53	0
82	168424	54	0
82	171590	55	0
82	174756	56	0
82	177922	57	0
82	181088	58	0
82	184254	59	0
82	187420	60	0
82	190586	61	0
82	193752	62	0
82	196918	63	0
82	200084	64	0
82	203250	65	0
82	206416	66	0
82	209582	67	0
82	212748	68	0
82	215914	69	0
82	219080	70	0
82	222246	71	0
82	225412	72	0
82	228578	73	0
82	231744	74	0
82	234910	75	0
82	238076	76	0
82	241242	77	0
82	244408	78	0
82	247574	79	0
82	250740	80	0
82	253906	81	0
82	257072	82	0
82	260238	83	0
82	263404	84	0
82	266570	85	0
82	269736	86	0
82	272902	87	0
82	276068	88	0
82	279234	89	0
82	282400	90	0
82	285566	91	0
82	288732	92	0
82	291898	93	0
82	295064	94	0
82	298230	95	0
82	301396	96	0
82	304562	97	0
82	307728	98	0
82	310894	99	0
82	314060	100	0
83	2861	2	5
83	6027	3	5
83	9193	4	5
83	12359	5	5
83	15525	6	5
83	18691	7	5
83	21857	8	5
83	25023	9	5
83	28190	10	5
83	32287	11	5
83	35453	12	5
83	38619	13	5
83	41785	14	5
83	44951	15	5
83	48117	16	5
83	51283	17	5
83	54449	18	5
83	57615	19	5
83	60781	20	5
83	63947	21	5
83	67113	22	5
83	70279	23	5
83	73445	24	5
83	76611	25	5
83	79777	26	5
83	82943	27	5
83	86109	28	5
83	89275	29	5
83	92441	30	5
83	95607	31	5
83	98773	32	5
83	101939	33	5
83	105105	34	5
83	108271	35	5
83	111437	36	5
83	114603	37	5
83	117769	38	5
83	120935	39	5
83	124101	40	5
83	127267	41	5
83	130433	42	5
83	133599	43	5
83	136765	44	5
83	139931	45	5
83	143097	46	5
83	146263	47	5
83	149429	48	5
83	152595	49	5
83	155761	50	5
83	158927	51	5
83	162093	52	5
83	165259	53	5
83	168425	54	5
83	171591	55	5
83	174757	56	5
83	177923	57	5
83	181089	58	5
83	184255	59	5
83	187421	60	5
83	190587	61	5
83	193753	62	5
83	196919	63	5
83	200085	64	5
83	203251	65	5
83	206417	66	5
83	209583	67	5
83	212749	68	5
83	215915	69	5
83	219081	70	5
83	222247	71	5
83	225413	72	5
83	228579	73	5
83	231745	74	5
83	234911	75	5
83	238077	76	5
83	241243	77	5
83	244409	78	5
83	247575	79	5
83	250741	80	5
83	253907	81	5
83	257073	82	5
83	260239	83	5
83	263405	84	5
83	266571	85	5
83	269737	86	5
83	272903	87	5
83	276069	88	5
83	279235	89	5
83	282401	90	5
83	285567	91	5
83	288733	92	5
83	291899	93	5
83	295065	94	5
83	298231	95	5
83	301397	96	5
83	304563	97	5
83	307729	98	5
83	310895	99	5
83	314061	100	5
84	2861	2	0.016232
84	6027	3	0.01873
84	9193	4	0.01873
84	12359	5	0.01873
84	15525	6	0.01873
84	18691	7	0.01873
84	21857	8	0.01873
84	25023	9	0.01873
84	28190	10	0.01873
84	32287	11	0.020106200142
84	35453	12	0.01873
84	38619	13	0.01873
84	41785	14	0.01873
84	44951	15	0.01873
84	48117	16	0.01873
84	51283	17	0.01873
84	54449	18	0.01873
84	57615	19	0.01873
84	60781	20	0.01873
84	63947	21	0.01873
84	67113	22	0.01873
84	70279	23	0.01873
84	73445	24	0.01873
84	76611	25	0.01873
84	79777	26	0.01873
84	82943	27	0.01873
84	86109	28	0.01873
84	89275	29	0.01873
84	92441	30	0.01873
84	95607	31	0.01873
84	98773	32	0.01873
84	101939	33	0.01873
84	105105	34	0.01873
84	108271	35	0.01873
84	111437	36	0.01873
84	114603	37	0.01873
84	117769	38	0.01873
84	120935	39	0.01873
84	124101	40	0.01873
84	127267	41	0.01873
84	130433	42	0.01873
84	133599	43	0.01873
84	136765	44	0.01873
84	139931	45	0.01873
84	143097	46	0.01873
84	146263	47	0.01873
84	149429	48	0.01873
84	152595	49	0.01873
84	155761	50	0.01873
84	158927	51	0.01873
84	162093	52	0.01873
84	165259	53	0.01873
84	168425	54	0.01873
84	171591	55	0.01873
84	174757	56	0.01873
84	177923	57	0.01873
84	181089	58	0.01873
84	184255	59	0.01873
84	187421	60	0.01873
84	190587	61	0.01873
84	193753	62	0.01873
84	196919	63	0.01873
84	200085	64	0.01873
84	203251	65	0.01873
84	206417	66	0.01873
84	209583	67	0.01873
84	212749	68	0.01873
84	215915	69	0.01873
84	219081	70	0.01873
84	222247	71	0.01873
84	225413	72	0.01873
84	228579	73	0.01873
84	231745	74	0.01873
84	234911	75	0.01873
84	238077	76	0.01873
84	241243	77	0.01873
84	244409	78	0.01873
84	247575	79	0.01873
84	250741	80	0.01873
84	253907	81	0.01873
84	257073	82	0.01873
84	260239	83	0.01873
84	263405	84	0.01873
84	266571	85	0.01873
84	269737	86	0.01873
84	272903	87	0.01873
84	276069	88	0.01873
84	279235	89	0.01873
84	282401	90	0.01873
84	285567	91	0.01873
84	288733	92	0.01873
84	291899	93	0.01873
84	295065	94	0.01873
84	298231	95	0.01873
84	301397	96	0.01873
84	304563	97	0.01873
84	307729	98	0.01873
84	310895	99	0.01873
84	314061	100	0.01873
85	2861	2	0
85	6027	3	0
85	9193	4	0
85	12359	5	0
85	15525	6	0
85	18691	7	0
85	21857	8	0
85	25023	9	0
85	28190	10	0
85	32287	11	0
85	35453	12	0
85	38619	13	0
85	41785	14	0
85	44951	15	0
85	48117	16	0
85	51283	17	0
85	54449	18	0
85	57615	19	0
85	60781	20	0
85	63947	21	0
85	67113	22	0
85	70279	23	0
85	73445	24	0
85	76611	25	0
85	79777	26	0
85	82943	27	0
85	86109	28	0
85	89275	29	0
85	92441	30	0
85	95607	31	0
85	98773	32	0
85	101939	33	0
85	105105	34	0
85	108271	35	0
85	111437	36	0
85	114603	37	0
85	117769	38	0
85	120935	39	0
85	124101	40	0
85	127267	41	0
85	130433	42	0
85	133599	43	0
85	136765	44	0
85	139931	45	0
85	143097	46	0
85	146263	47	0
85	149429	48	0
85	152595	49	0
85	155761	50	0
85	158927	51	0
85	162093	52	0
85	165259	53	0
85	168425	54	0
85	171591	55	0
85	174757	56	0
85	177923	57	0
85	181089	58	0
85	184255	59	0
85	187421	60	0
85	190587	61	0
85	193753	62	0
85	196919	63	0
85	200085	64	0
85	203251	65	0
85	206417	66	0
85	209583	67	0
85	212749	68	0
85	215915	69	0
85	219081	70	0
85	222247	71	0
85	225413	72	0
85	228579	73	0
85	231745	74	0
85	234911	75	0
85	238077	76	0
85	241243	77	0
85	244409	78	0
85	247575	79	0
85	250741	80	0
85	253907	81	0
85	257073	82	0
85	260239	83	0
85	263405	84	0
85	266571	85	0
85	269737	86	0
85	272903	87	0
85	276069	88	0
85	279235	89	0
85	282401	90	0
85	285567	91	0
85	288733	92	0
85	291899	93	0
85	295065	94	0
85	298231	95	0
85	301397	96	0
85	304563	97	0
85	307729	98	0
85	310895	99	0
85	314061	100	0

