file 5333471 1720627675                                         
version 3
run BreakRanksNoGui-74-20240710-18:07:27-278218
attr configname BreakRanksNoGui
attr datetime 20240710-18:07:27
attr datetimef 20240710-180727
attr experiment BreakRanksNoGui
attr inifile omnetpp.ini
attr iterationvars "$nCars=16, $platoonSize=16, $nLanes=1, $ploegH=0.5, $controller=1, $headway=0.1, $leaderHeadway=1.2, $leaderSpeed=110, $breakRanksSafetyDistance=5, $minSpeed=100, $maxSpeed=120, $beaconInterval=0.1, $priority=4, $packetSize=200, $sController=\"CACC\", $0=2, $1=0"
attr iterationvarsd nCars=16/platoonSize=16/nLanes=1/ploegH=0.5/controller=1/headway=0.1/leaderHeadway=1.2/leaderSpeed=110/breakRanksSafetyDistance=5/minSpeed=100/maxSpeed=120/beaconInterval=0.1/priority=4/packetSize=200/sController=CACC/2/0
attr iterationvarsf nCars=16,platoonSize=16,nLanes=1,ploegH=0.5,controller=1,headway=0.1,leaderHeadway=1.2,leaderSpeed=110,breakRanksSafetyDistance=5,minSpeed=100,maxSpeed=120,beaconInterval=0.1,priority=4,packetSize=200,sController=CACC,2,0-
attr measurement "$nCars=16, $platoonSize=16, $nLanes=1, $ploegH=0.5, $controller=1, $headway=0.1, $leaderHeadway=1.2, $leaderSpeed=110, $breakRanksSafetyDistance=5, $minSpeed=100, $maxSpeed=120, $beaconInterval=0.1, $priority=4, $packetSize=200, $sController=\"CACC\", $0=2, $1=0"
attr network Highway
attr processid 278218
attr repetition 4
attr replication #4
attr resultdir results
attr runnumber 74
attr seedset 4
itervar beaconInterval 0.1
itervar breakRanksSafetyDistance 5
itervar controller 1
itervar headway 0.1
itervar leaderHeadway 1.2
itervar leaderSpeed 110
itervar maxSpeed 120
itervar minSpeed 100
itervar nCars 16
itervar nLanes 1
itervar packetSize 200
itervar platoonSize 16
itervar ploegH 0.5
itervar priority 4
itervar sController "\"CACC\""
config image-path ../../../veins/images
config repeat 10
config extends BreakRanks
config *.manager.command "\"sumo\""
config *.manager.ignoreGuiCommands true
config output-vector-file "results/BreakRanks_1_0.1_110_5_16 /result_4.vec"
config output-scalar-file "results/BreakRanks_1_0.1_110_5_16 /result_4.sca"
config extends Platooning
config *.node[*].scenario_type "\"BreakRanksScenario\""
config *.manager.command "\"sumo-gui\""
config *.node[*].scenario_type "\"SimpleScenario\""
config cmdenv-express-mode true
config cmdenv-autoflush true
config cmdenv-status-frequency 15s
config num-rngs 6
config network Highway
config debug-on-errors true
config print-undisposed true
config *.playgroundSizeX 65000m
config *.playgroundSizeY 25000m
config *.playgroundSizeZ 50m
config sim-time-limit "100 s"
config *.annotations.draw false
config *.obstacles.debug false
config *.world.useTorus false
config *.world.use2D false
config *.manager.updateInterval 0.01s
config *.manager.host "\"localhost\""
config *.manager.moduleType "\"org.car2x.plexe.PlatoonCar\""
config *.manager.moduleName "\"node\""
config *.manager.moduleDisplayString "\"\""
config *.manager.autoShutdown true
config *.manager.margin 25
config *.connectionManager.sendDirect true
config *.connectionManager.maxInterfDist 2600m
config *.connectionManager.drawMaxIntfDist false
config *.**.nic.mac1609_4.useServiceChannel false
config *.**.nic.mac1609_4.txPower 100mW
config *.**.nic.mac1609_4.bitrate 6Mbps
config *.**.nic.mac1609_4.useAcks true
config *.**.nic.mac1609_4.ackErrorRate 0.0
config *.**.nic.mac1609_4.frameErrorRate 0.0
config *.**.nic.phy80211p.minPowerLevel -94dBm
config *.**.nic.phy80211p.maxTXPower 100mW
config *.**.nic.phy80211p.useNoiseFloor true
config *.**.nic.phy80211p.noiseFloor -95dBm
config *.**.nic.phy80211p.decider "xmldoc(\"config.xml\")"
config *.**.nic.phy80211p.analogueModels "xmldoc(\"config.xml\")"
config *.**.nic.phy80211p.usePropagationDelay true
config *.node[*].mobility.x 0
config *.node[*].mobility.y 0
config *.node[*].mobility.z 1.895
config seed-set 4
config **.seed 4
config *.node[*].prot.rng-0 2
config *.node[*].appl.rng-0 3
config *.node[*].scenario.rng-0 4
config **.traffic.rng-0 5
config *.manager.configFile "\"./sumocfg/freeway.sumo.cfg\""
config *.manager.launchConfig "xmldoc(\"./sumocfg/freeway.launchd.xml\")"
config **.numberOfCars 16
config **.numberOfCarsPerPlatoon 16
config **.numberOfLanes 1
config *.node[*].helper_type "\"PositionHelper\""
config *.node[*].scenario.caccC1 0.5
config *.node[*].scenario.caccXi 1
config *.node[*].scenario.caccOmegaN "0.2 Hz"
config *.node[*].scenario.caccSpacing "2 m"
config *.node[*].scenario.engineTau "0.5 s"
config *.node[*].scenario.ploegH 0.5s
config *.node[*].scenario.ploegKp 0.2
config *.node[*].scenario.ploegKd 0.7
config *.node[*].scenario.useRealisticEngine false
config *.node[*].scenario.useControllerAcceleration true
config *.node[*].scenario.nLanes 1
config **.numericController 1
config **.headway 0.1s
config *.node[*].scenario.accHeadway 0.1s
config *.node[*].scenario.leaderHeadway 1.2s
config *.node[*].scenario.leaderSpeed 110kmph
config *.node[*].appl_type "\"SimplePlatooningApp\""
config *.node[*].appl.*.scalar-recording true
config *.node[*].appl.*.vector-recording true
config *.node[0].appl.breakRanksSafetyDistance 5m
config *.node[*].appl.minSpeed 100kmph
config *.node[*].appl.maxSpeed 120kmph
config *.node[*].protocol_type "\"SimplePlatooningBeaconing\""
config *.node[*].prot.*.scalar-recording true
config *.node[*].prot.*.vector-recording true
config *.node[*].prot.beaconingInterval 0.1s
config *.node[*].prot.priority 4
config *.node[*].prot.packetSize 200
config **.traffic_type "\"PlatoonsTrafficManager\""
config **.traffic.platoonInsertTime "1 s"
config **.traffic.platoonInsertSpeed 110kmph
config **.traffic.nCars 16
config **.traffic.platoonSize 16
config **.traffic.nLanes 1
config **.traffic.platooningVType "\"vtypeauto\""
config **.traffic.controller "\"CACC\""
config **.traffic.platoonInsertDistance 2m
config **.traffic.platoonInsertHeadway 0s
config **.traffic.platoonLeaderHeadway 1.2s
config **.scalar-recording false
config **.vector-recording false

vector 0 Highway.node[0].appl distance ETV
vector 1 Highway.node[0].appl relativeSpeed ETV
vector 2 Highway.node[0].appl nodeId ETV
vector 3 Highway.node[0].appl acceleration ETV
vector 4 Highway.node[0].appl controllerAcceleration ETV
vector 5 Highway.node[0].appl speed ETV
vector 6 Highway.node[0].appl posx ETV
vector 7 Highway.node[0].appl posy ETV
vector 8 Highway.node[1].appl distance ETV
vector 9 Highway.node[1].appl relativeSpeed ETV
vector 10 Highway.node[1].appl nodeId ETV
vector 11 Highway.node[1].appl acceleration ETV
vector 12 Highway.node[1].appl controllerAcceleration ETV
vector 13 Highway.node[1].appl speed ETV
vector 14 Highway.node[1].appl posx ETV
vector 15 Highway.node[1].appl posy ETV
vector 16 Highway.node[2].appl distance ETV
vector 17 Highway.node[2].appl relativeSpeed ETV
vector 18 Highway.node[2].appl nodeId ETV
vector 19 Highway.node[2].appl acceleration ETV
vector 20 Highway.node[2].appl controllerAcceleration ETV
vector 21 Highway.node[2].appl speed ETV
vector 22 Highway.node[2].appl posx ETV
vector 23 Highway.node[2].appl posy ETV
vector 24 Highway.node[3].appl distance ETV
vector 25 Highway.node[3].appl relativeSpeed ETV
vector 26 Highway.node[3].appl nodeId ETV
vector 27 Highway.node[3].appl acceleration ETV
vector 28 Highway.node[3].appl controllerAcceleration ETV
vector 29 Highway.node[3].appl speed ETV
vector 30 Highway.node[3].appl posx ETV
vector 31 Highway.node[3].appl posy ETV
vector 32 Highway.node[4].appl distance ETV
vector 33 Highway.node[4].appl relativeSpeed ETV
vector 34 Highway.node[4].appl nodeId ETV
vector 35 Highway.node[4].appl acceleration ETV
vector 36 Highway.node[4].appl controllerAcceleration ETV
vector 37 Highway.node[4].appl speed ETV
vector 38 Highway.node[4].appl posx ETV
vector 39 Highway.node[4].appl posy ETV
vector 40 Highway.node[5].appl distance ETV
vector 41 Highway.node[5].appl relativeSpeed ETV
vector 42 Highway.node[5].appl nodeId ETV
vector 43 Highway.node[5].appl acceleration ETV
vector 44 Highway.node[5].appl controllerAcceleration ETV
vector 45 Highway.node[5].appl speed ETV
vector 46 Highway.node[5].appl posx ETV
vector 47 Highway.node[5].appl posy ETV
vector 48 Highway.node[6].appl distance ETV
vector 49 Highway.node[6].appl relativeSpeed ETV
vector 50 Highway.node[6].appl nodeId ETV
vector 51 Highway.node[6].appl acceleration ETV
vector 52 Highway.node[6].appl controllerAcceleration ETV
vector 53 Highway.node[6].appl speed ETV
vector 54 Highway.node[6].appl posx ETV
vector 55 Highway.node[6].appl posy ETV
vector 56 Highway.node[7].appl distance ETV
vector 57 Highway.node[7].appl relativeSpeed ETV
vector 58 Highway.node[7].appl nodeId ETV
vector 59 Highway.node[7].appl acceleration ETV
vector 60 Highway.node[7].appl controllerAcceleration ETV
vector 61 Highway.node[7].appl speed ETV
vector 62 Highway.node[7].appl posx ETV
vector 63 Highway.node[7].appl posy ETV
vector 64 Highway.node[8].appl distance ETV
vector 65 Highway.node[8].appl relativeSpeed ETV
vector 66 Highway.node[8].appl nodeId ETV
vector 67 Highway.node[8].appl acceleration ETV
vector 68 Highway.node[8].appl controllerAcceleration ETV
vector 69 Highway.node[8].appl speed ETV
vector 70 Highway.node[8].appl posx ETV
vector 71 Highway.node[8].appl posy ETV
vector 72 Highway.node[9].appl distance ETV
vector 73 Highway.node[9].appl relativeSpeed ETV
vector 74 Highway.node[9].appl nodeId ETV
vector 75 Highway.node[9].appl acceleration ETV
vector 76 Highway.node[9].appl controllerAcceleration ETV
vector 77 Highway.node[9].appl speed ETV
vector 78 Highway.node[9].appl posx ETV
vector 79 Highway.node[9].appl posy ETV
vector 80 Highway.node[10].appl distance ETV
vector 81 Highway.node[10].appl relativeSpeed ETV
vector 82 Highway.node[10].appl nodeId ETV
vector 83 Highway.node[10].appl acceleration ETV
vector 84 Highway.node[10].appl controllerAcceleration ETV
vector 85 Highway.node[10].appl speed ETV
vector 86 Highway.node[10].appl posx ETV
vector 87 Highway.node[10].appl posy ETV
vector 88 Highway.node[11].appl distance ETV
vector 89 Highway.node[11].appl relativeSpeed ETV
vector 90 Highway.node[11].appl nodeId ETV
vector 91 Highway.node[11].appl acceleration ETV
vector 92 Highway.node[11].appl controllerAcceleration ETV
vector 93 Highway.node[11].appl speed ETV
vector 94 Highway.node[11].appl posx ETV
vector 95 Highway.node[11].appl posy ETV
vector 96 Highway.node[12].appl distance ETV
vector 97 Highway.node[12].appl relativeSpeed ETV
vector 98 Highway.node[12].appl nodeId ETV
vector 99 Highway.node[12].appl acceleration ETV
vector 100 Highway.node[12].appl controllerAcceleration ETV
vector 101 Highway.node[12].appl speed ETV
vector 102 Highway.node[12].appl posx ETV
vector 103 Highway.node[12].appl posy ETV
vector 104 Highway.node[13].appl distance ETV
vector 105 Highway.node[13].appl relativeSpeed ETV
vector 106 Highway.node[13].appl nodeId ETV
vector 107 Highway.node[13].appl acceleration ETV
vector 108 Highway.node[13].appl controllerAcceleration ETV
vector 109 Highway.node[13].appl speed ETV
vector 110 Highway.node[13].appl posx ETV
vector 111 Highway.node[13].appl posy ETV
vector 112 Highway.node[14].appl distance ETV
vector 113 Highway.node[14].appl relativeSpeed ETV
vector 114 Highway.node[14].appl nodeId ETV
vector 115 Highway.node[14].appl acceleration ETV
vector 116 Highway.node[14].appl controllerAcceleration ETV
vector 117 Highway.node[14].appl speed ETV
vector 118 Highway.node[14].appl posx ETV
vector 119 Highway.node[14].appl posy ETV
vector 120 Highway.node[15].appl distance ETV
vector 121 Highway.node[15].appl relativeSpeed ETV
vector 122 Highway.node[15].appl nodeId ETV
vector 123 Highway.node[15].appl acceleration ETV
vector 124 Highway.node[15].appl controllerAcceleration ETV
vector 125 Highway.node[15].appl speed ETV
vector 126 Highway.node[15].appl posx ETV
vector 127 Highway.node[15].appl posy ETV
vector 128 Highway.node[10].prot frontDelay ETV
vector 129 Highway.node[10].prot frontDelayId ETV
vector 130 Highway.node[11].prot frontDelay ETV
vector 131 Highway.node[11].prot frontDelayId ETV
vector 132 Highway.node[12].prot frontDelay ETV
vector 133 Highway.node[12].prot frontDelayId ETV
vector 134 Highway.node[13].prot frontDelay ETV
vector 135 Highway.node[13].prot frontDelayId ETV
vector 136 Highway.node[4].prot frontDelay ETV
vector 137 Highway.node[4].prot frontDelayId ETV
vector 138 Highway.node[1].prot leaderDelay ETV
vector 139 Highway.node[1].prot leaderDelayId ETV
vector 140 Highway.node[1].prot frontDelay ETV
vector 141 Highway.node[1].prot frontDelayId ETV
vector 142 Highway.node[8].prot leaderDelay ETV
vector 143 Highway.node[8].prot leaderDelayId ETV
vector 144 Highway.node[9].prot leaderDelay ETV
vector 145 Highway.node[9].prot leaderDelayId ETV
vector 146 Highway.node[10].prot leaderDelay ETV
vector 147 Highway.node[10].prot leaderDelayId ETV
vector 148 Highway.node[11].prot leaderDelay ETV
vector 149 Highway.node[11].prot leaderDelayId ETV
vector 150 Highway.node[12].prot leaderDelay ETV
vector 151 Highway.node[12].prot leaderDelayId ETV
vector 152 Highway.node[13].prot leaderDelay ETV
vector 153 Highway.node[13].prot leaderDelayId ETV
vector 154 Highway.node[14].prot leaderDelay ETV
vector 155 Highway.node[14].prot leaderDelayId ETV
vector 156 Highway.node[15].prot leaderDelay ETV
vector 157 Highway.node[15].prot leaderDelayId ETV
vector 158 Highway.node[2].prot leaderDelay ETV
vector 159 Highway.node[2].prot leaderDelayId ETV
vector 160 Highway.node[3].prot leaderDelay ETV
vector 161 Highway.node[3].prot leaderDelayId ETV
vector 162 Highway.node[4].prot leaderDelay ETV
vector 163 Highway.node[4].prot leaderDelayId ETV
vector 164 Highway.node[5].prot leaderDelay ETV
vector 165 Highway.node[5].prot leaderDelayId ETV
vector 166 Highway.node[6].prot leaderDelay ETV
vector 167 Highway.node[6].prot leaderDelayId ETV
vector 168 Highway.node[7].prot leaderDelay ETV
vector 169 Highway.node[7].prot leaderDelayId ETV
vector 170 Highway.node[15].prot frontDelay ETV
vector 171 Highway.node[15].prot frontDelayId ETV
vector 172 Highway.node[3].prot frontDelay ETV
vector 173 Highway.node[3].prot frontDelayId ETV
vector 174 Highway.node[6].prot frontDelay ETV
vector 175 Highway.node[6].prot frontDelayId ETV
vector 176 Highway.node[8].prot frontDelay ETV
vector 177 Highway.node[8].prot frontDelayId ETV
vector 178 Highway.node[14].prot frontDelay ETV
vector 179 Highway.node[14].prot frontDelayId ETV
vector 180 Highway.node[5].prot frontDelay ETV
vector 181 Highway.node[5].prot frontDelayId ETV
vector 182 Highway.node[7].prot frontDelay ETV
vector 183 Highway.node[7].prot frontDelayId ETV
vector 184 Highway.node[2].prot frontDelay ETV
vector 185 Highway.node[2].prot frontDelayId ETV
vector 186 Highway.node[9].prot frontDelay ETV
vector 187 Highway.node[9].prot frontDelayId ETV
vector 188 Highway.node[0].prot nodeId ETV
vector 189 Highway.node[0].prot busyTime ETV
vector 190 Highway.node[0].prot collisions ETV
vector 191 Highway.node[1].prot nodeId ETV
vector 192 Highway.node[1].prot busyTime ETV
vector 193 Highway.node[1].prot collisions ETV
vector 194 Highway.node[2].prot nodeId ETV
vector 195 Highway.node[2].prot busyTime ETV
vector 196 Highway.node[2].prot collisions ETV
vector 197 Highway.node[3].prot nodeId ETV
vector 198 Highway.node[3].prot busyTime ETV
vector 199 Highway.node[3].prot collisions ETV
vector 200 Highway.node[4].prot nodeId ETV
vector 201 Highway.node[4].prot busyTime ETV
vector 202 Highway.node[4].prot collisions ETV
vector 203 Highway.node[5].prot nodeId ETV
vector 204 Highway.node[5].prot busyTime ETV
vector 205 Highway.node[5].prot collisions ETV
vector 206 Highway.node[6].prot nodeId ETV
vector 207 Highway.node[6].prot busyTime ETV
vector 208 Highway.node[6].prot collisions ETV
vector 209 Highway.node[7].prot nodeId ETV
vector 210 Highway.node[7].prot busyTime ETV
vector 211 Highway.node[7].prot collisions ETV
vector 212 Highway.node[8].prot nodeId ETV
vector 213 Highway.node[8].prot busyTime ETV
vector 214 Highway.node[8].prot collisions ETV
vector 215 Highway.node[9].prot nodeId ETV
vector 216 Highway.node[9].prot busyTime ETV
vector 217 Highway.node[9].prot collisions ETV
vector 218 Highway.node[10].prot nodeId ETV
vector 219 Highway.node[10].prot busyTime ETV
vector 220 Highway.node[10].prot collisions ETV
vector 221 Highway.node[11].prot nodeId ETV
vector 222 Highway.node[11].prot busyTime ETV
vector 223 Highway.node[11].prot collisions ETV
vector 224 Highway.node[12].prot nodeId ETV
vector 225 Highway.node[12].prot busyTime ETV
vector 226 Highway.node[12].prot collisions ETV
vector 227 Highway.node[13].prot nodeId ETV
vector 228 Highway.node[13].prot busyTime ETV
vector 229 Highway.node[13].prot collisions ETV
vector 230 Highway.node[14].prot nodeId ETV
vector 231 Highway.node[14].prot busyTime ETV
vector 232 Highway.node[14].prot collisions ETV
vector 233 Highway.node[15].prot nodeId ETV
vector 234 Highway.node[15].prot busyTime ETV
vector 235 Highway.node[15].prot collisions ETV
0	16893 18176 113 2096145 1.11 99.91 989 -1 -1 -989 989
1	35069 17187 113 2096145 1.11 99.91 989 0 0 0 0
2	52256 17187 113 2096145 1.11 99.91 989 0 0 0 0
3	69443 19775 113 2096145 1.11 99.91 989 -0.00283113 0.000125957 -0.043966303784312 9.6812896349407e-05
4	89218 27155 113 2096145 1.11 99.91 989 -0.00437036 0.00019576 -0.042459310034081 0.00013890441444735
5	116373 23117 113 2096145 1.11 99.91 989 30.5554 30.56 30219.5304 923377.16656332
6	139490 23024 113 2096145 1.11 99.91 989 114.03 3132.93 1605622.714 3359340728.2816
7	162514 22132 113 2096145 1.11 99.91 989 242.45 242.45 239783.05 58135400.472499
8	184646 22650 114 2096146 1.11 99.91 989 -1 4.99998 3926.57346 18614.673210045
9	207296 25403 114 2096146 1.11 99.91 989 -0.000377192 0.238899 29.99983608491 4.7406535801326
10	232699 18176 114 2096146 1.11 99.91 989 1 1 989 989
11	250875 27411 114 2096146 1.11 99.91 989 -0.0908392 1.34109 24.389287013182 25.619026507937
12	278286 27389 114 2096146 1.11 99.91 989 -0.119592 1.5 24.203420074719 33.1971934052
13	305675 24044 114 2096146 1.11 99.91 989 30.3167 33.0929 30342.8129 931272.15812878
14	329719 23995 114 2096146 1.11 99.91 989 108.03 3139.13 1597772.045 3333968735.3348
15	353714 23121 114 2096146 1.11 99.91 989 242.45 245.75 240030.55 58256229.9725
16	376835 23916 115 2096147 1.11 99.91 989 1.99981 53.9165 6599.13616 165218.86952541
17	400751 26408 115 2096147 1.11 99.91 989 -0.267684 2.10205 156.48573790741 252.73822580834
18	427159 19165 115 2096147 1.11 99.91 989 10 10 9890 98900
19	446324 26709 115 2096147 1.11 99.91 989 -1.78993 0.0816067 -25.550989429258 35.231777524949
20	473033 26750 115 2096147 1.11 99.91 989 -2.22493 0.126878 -24.869383913095 49.618068793567
21	499783 23991 115 2096147 1.11 99.91 989 27.8731 30.56 29752.7369 895480.15884029
22	523774 23999 115 2096147 1.11 99.91 989 54.0304 3026.38 1525125.1112 3085770590.5734
23	547773 23121 115 2096147 1.11 99.91 989 242.45 249.05 240221.95 58351108.9325
24	570894 23913 116 2096148 1.11 99.91 989 1.9996 31.9529 5204.50938 68151.677274681
25	594807 26488 116 2096148 1.11 99.91 989 -1.52151 0.7591 -6.4669479324537 51.37227461657
26	621295 19165 116 2096148 1.11 99.91 989 11 11 10879 119669
27	640460 26610 116 2096148 1.11 99.91 989 -2.15985 0.282125 -77.890978946971 105.87166636127
28	667070 26605 116 2096148 1.11 99.91 989 -2.79828 0.571728 -76.24213979571 133.18222854793
29	693675 24012 116 2096148 1.11 99.91 989 22.6928 30.56 29531.612 883732.56245018
30	717687 23985 116 2096148 1.11 99.91 989 48.0304 2998.53 1517129.8455 3058025310.9047
31	741672 23121 116 2096148 1.11 99.91 989 242.45 242.45 239783.05 58135400.472499
32	764793 23949 117 2096149 1.11 99.91 989 2 11.5805 3755.14399 17135.034706317
33	788742 26345 117 2096149 1.11 99.91 989 -3.77971e-05 6.75753 103.28787034145 127.11105199091
34	815087 19165 117 2096149 1.11 99.91 989 12 12 11868 142416
35	834252 26545 117 2096149 1.11 99.91 989 -2.40277 0.0328743 -93.074405647941 145.85329362981
36	860797 26550 117 2096149 1.11 99.91 989 -2.80226 1.5 -92.16349118715 168.20518209234
37	887347 24004 117 2096149 1.11 99.91 989 21.2542 30.56 29433.5773 878614.51888093
38	911351 23985 117 2096149 1.11 99.91 989 42.0304 2982.8 1509410.0728 3031835140.4073
39	935336 23121 117 2096149 1.11 99.91 989 242.45 245.75 239786.35 58137011.532499
40	958457 23962 118 2096150 1.11 99.91 989 1.99983 31.8712 5395.75937 81710.727588126
41	982419 26476 118 2096150 1.11 99.91 989 -1.02038 0.525322 20.577124560062 26.059993085275
42	1008895 19165 118 2096150 1.11 99.91 989 13 13 12857 167141
43	1028060 26538 118 2096150 1.11 99.91 989 -1.27724 0.116941 -39.26327317042 41.011658874017
44	1054598 26565 118 2096150 1.11 99.91 989 -1.35124 0.14319 -38.32387234861 44.413735353771
45	1081163 23987 118 2096150 1.11 99.91 989 26.4476 30.56 29629.1202 888315.21038106
46	1105150 24005 118 2096150 1.11 99.91 989 36.0304 2996.08 1502614.748 3010987618.6602
47	1129155 23121 118 2096150 1.11 99.91 989 242.45 252.35 240495.85 58487897.8925
48	1152276 23903 119 2096151 1.11 99.91 989 1.99853 68.5343 6526.08803 188658.01207216
49	1176179 26395 119 2096151 1.11 99.91 989 -1.8078 1.58797 44.461117946651 72.993364323276
50	1202574 19165 119 2096151 1.11 99.91 989 14 14 13846 193844
51	1221739 26552 119 2096151 1.11 99.91 989 -1.78905 0.278513 -25.44401704527 37.534758700052
52	1248291 26553 119 2096151 1.11 99.91 989 -2.22404 0.430306 -24.59161190874 51.943989942014
53	1274844 24018 119 2096151 1.11 99.91 989 27.5672 30.56 29628.4357 888039.02161941
54	1298862 24000 119 2096151 1.11 99.91 989 30.0304 2989.95 1495215.3509 2986514257.9553
55	1322862 23121 119 2096151 1.11 99.91 989 242.45 245.75 240000.85 58241730.432499
56	1345983 23924 120 2096152 1.11 99.91 989 1.99998 121.946 6480.8159 226069.02871253
57	1369907 26460 120 2096152 1.11 99.91 989 -1.45346 0.835274 -2.381539292188 38.089064317562
58	1396367 19165 120 2096152 1.11 99.91 989 15 15 14835 222525
59	1415532 26562 120 2096152 1.11 99.91 989 -0.951036 0.0605233 -24.04580766309 18.343740343694
60	1442094 26584 120 2096152 1.11 99.91 989 -1.06945 0.0855228 -23.087595283031 20.388466909751
61	1468678 23997 120 2096152 1.11 99.91 989 28.0553 30.56 29641.9207 888735.69290853
62	1492675 23993 120 2096152 1.11 99.91 989 24.0304 2985.29 1488138.0534 2963837430.3274
63	1516668 23121 120 2096152 1.11 99.91 989 242.45 249.05 240248.35 58363997.4125
64	1539789 24001 121 2096153 1.11 99.91 989 1.99964 25.811 5391.64479 47677.612190479
65	1563790 26790 121 2096153 1.11 99.91 989 -0.00012811 2.11306 148.88163622284 211.36118977138
66	1590580 18176 121 2096153 1.11 99.91 989 2 2 1978 3956
67	1608756 27257 121 2096153 1.11 99.91 989 -1.33619 0.233837 -15.437078040463 22.931539577339
68	1636013 27260 121 2096153 1.11 99.91 989 -2.03831 0.26376 -14.473187257625 32.177203464005
69	1663273 24026 121 2096153 1.11 99.91 989 28.4425 30.56 30040.6521 912670.04921442
70	1687299 23992 121 2096153 1.11 99.91 989 102.03 3103.12 1588617.662 3300425768.9044
71	1711291 23121 121 2096153 1.11 99.91 989 242.45 242.45 239783.05 58135400.472499
72	1734412 23972 122 2096154 1.11 99.91 989 1.99968 19.0116 4664.05724 27852.157494569
73	1758384 26701 122 2096154 1.11 99.91 989 -5.09918e-05 2.75022 171.00547378208 322.03474555847
74	1785085 18176 122 2096154 1.11 99.91 989 3 3 2967 8901
75	1803261 27123 122 2096154 1.11 99.91 989 -2.16038 0.482477 -33.151430950573 84.478554069921
76	1830384 27116 122 2096154 1.11 99.91 989 -2.79898 0.520038 -30.7120175108 104.69596533195
77	1857500 24033 122 2096154 1.11 99.91 989 25.8508 30.56 29869.6432 903054.77128635
78	1881533 24001 122 2096154 1.11 99.91 989 96.0304 3080.11 1579997.4578 3269991576.556
79	1905534 23121 122 2096154 1.11 99.91 989 242.45 242.45 239783.05 58135400.472499
80	1928655 23968 123 2096155 1.11 99.91 989 1.99999 16.7003 4441.06845 23801.444317181
81	1952623 26583 123 2096155 1.11 99.91 989 -4.10333e-05 2.70584 148.08667637806 269.39519067541
82	1979206 18176 123 2096155 1.11 99.91 989 4 4 3956 15824
83	1997382 27026 123 2096155 1.11 99.91 989 -2.42682 0.682904 -54.720393343089 144.36644252852
84	2024408 27032 123 2096155 1.11 99.91 989 -2.80321 0.723478 -50.460506664265 167.79458419762
85	2051440 24016 123 2096155 1.11 99.91 989 23.5323 30.56 29721.5556 895254.13702786
86	2075456 23994 123 2096155 1.11 99.91 989 90.0304 3059.4 1571600.3536 3240755888.7881
87	2099450 23121 123 2096155 1.11 99.91 989 242.45 242.45 239783.05 58135400.472499
88	2122571 23617 124 2096156 1.11 99.91 989 -1 4.99905 3627.2249 16304.203580917
89	2146188 26020 124 2096156 1.11 99.91 989 -0.000319136 0.125168 29.99058789041 2.5960292554834
90	2172208 18176 124 2096156 1.11 99.91 989 5 5 4945 24725
91	2190384 27090 124 2096156 1.11 99.91 989 -0.357298 0.0396923 -5.56576711712 2.795738636248
92	2217474 27114 124 2096156 1.11 99.91 989 -0.547084 0.0398233 -5.07026390004 3.4290257137745
93	2244588 24015 124 2096156 1.11 99.91 989 29.7908 30.56 30032.9008 912069.85077252
94	2268603 24000 124 2096156 1.11 99.91 989 84.0304 3084.29 1564588.7033 3219721990.4713
95	2292603 23121 124 2096156 1.11 99.91 989 242.45 249.05 240278.05 58378692.9725
96	2315724 23910 125 2096157 1.11 99.91 989 1.99994 51.837 6946.7225 171383.92724733
97	2339634 26472 125 2096157 1.11 99.91 989 -0.269896 2.86133 133.01010301769 198.59954528324
98	2366106 18176 125 2096157 1.11 99.91 989 6 6 5934 35604
99	2384282 26923 125 2096157 1.11 99.91 989 -1.79036 1.39614 14.36253215005 48.974280831418
100	2411205 27857 125 2096157 1.11 99.91 989 -2.22527 1.5 13.713086636149 88.748326293603
101	2439062 24992 125 2096157 1.11 99.91 989 29.2324 32.0966 30083.9409 915303.02337793
102	2464054 24991 125 2096157 1.11 99.91 989 78.0304 3083.3 1556771.4037 3193669751.2247
103	2489045 24110 125 2096157 1.11 99.91 989 242.45 245.75 240004.15 58243341.492499
104	2513155 24961 126 2096158 1.11 99.91 989 1.9981 24.2518 5069.12813 47907.410924331
105	2538116 27437 126 2096158 1.11 99.91 989 -1.05834 1.56779 44.281892558363 67.256272538685
106	2565553 19165 126 2096158 1.11 99.91 989 7 7 6923 48461
107	2584718 27815 126 2096158 1.11 99.91 989 -2.16041 0.730847 -70.078316916054 129.61530030278
108	2612533 27797 126 2096158 1.11 99.91 989 -2.79884 0.790971 -65.661594204359 155.14533600135
109	2640330 25000 126 2096158 1.11 99.91 989 22.7246 30.56 29618.2712 889297.19806108
110	2665330 24980 126 2096158 1.11 99.91 989 72.0304 3031.15 1547790.1218 3160457640.4009
111	2690310 24110 126 2096158 1.11 99.91 989 242.45 242.45 239783.05 58135400.472499
112	2714420 24948 127 2096159 1.11 99.91 989 1.99842 35.8346 5054.82645 56593.930579451
113	2739368 27430 127 2096159 1.11 99.91 989 -0.0011744 4.73938 235.49535315564 765.96480954427
114	2766798 19165 127 2096159 1.11 99.91 989 8 8 7912 63296
115	2785963 27725 127 2096159 1.11 99.91 989 -2.40348 1.41386 -15.213116350443 125.48372698939
116	2813688 27670 127 2096159 1.11 99.91 989 -2.80297 1.5 -15.565144179328 175.60265221118
117	2841358 25002 127 2096159 1.11 99.91 989 26.0939 30.56 29804.1165 898671.90895761
118	2866360 24985 127 2096159 1.11 99.91 989 66.0304 3043.46 1540365.6692 3136483394.5879
119	2891345 24110 127 2096159 1.11 99.91 989 242.45 245.75 239964.55 58224008.772499
120	2915455 24661 128 2096160 1.11 99.91 989 -1 32.139 3624.68194 23279.276822574
121	2940116 27004 128 2096160 1.11 99.91 989 -0.00101457 0.486285 31.756176257198 2.5671422176829
122	2967120 19165 128 2096160 1.11 99.91 989 9 9 8901 80109
123	2986285 27744 128 2096160 1.11 99.91 989 -1.46258 0.0651959 -35.518331679356 43.654482808336
124	3014029 27671 128 2096160 1.11 99.91 989 -1.5 0.101247 -34.697728376503 50.96192972823
125	3041700 24989 128 2096160 1.11 99.91 989 26.8987 30.56 29738.9279 894890.67026511
126	3066689 24982 128 2096160 1.11 99.91 989 60.0304 3031.04 1532696.2177 3110886440.5903
127	3091671 24110 128 2096160 1.11 99.91 989 242.45 252.35 240495.85 58487897.8925
128	3115781 41646 2417 2096349 1.222067141482 99.922065241884 988 0.099989084533 0.100007464292 98.800003981704 9.8800008374632
129	3157427 28926 2417 2096349 1.222067141482 99.922065241884 988 4 4 3952 15808
130	3186353 41676 2547 2096485 1.229926161496 99.929924328089 988 0.099988514092 0.100012017318 98.800004047895 9.8800008512614
131	3228029 28924 2547 2096485 1.229926161496 99.929924328089 988 5 5 4940 24700
132	3256953 41671 2678 2096598 1.23370318151 99.933701339531 988 0.099988883141 0.100007450288 98.799991039323 9.8799982489822
133	3298624 28929 2678 2096598 1.23370318151 99.933701339531 988 6 6 5928 35568
134	3327553 41671 2808 2096764 1.238000201524 99.937998514657 988 0.099988762294 0.100007453141 98.800004194435 9.8800008801165
135	3369224 28938 2808 2096764 1.238000201524 99.937998514657 988 7 7 6916 48412
136	3398162 41679 2939 2096877 1.240516301593 99.940514677237 988 0.099988762407 0.100007453858 98.800004256946 9.8800008928478
137	3439841 29916 2939 2096877 1.240516301593 99.940514677237 988 12 12 11856 142272
138	3469757 41612 3063 2096989 1.241810521745 99.941809096525 988 0.099989084638 0.100008961316 98.800004456082 9.8800009324168
139	3511369 28896 3063 2096989 1.241810521745 99.941809096525 988 1 1 988 988
140	3540265 41612 3063 2096989 1.241810521745 99.941809096525 988 0.099989084638 0.100008961316 98.800004456082 9.8800009324168
141	3581877 28896 3063 2096989 1.241810521745 99.941809096525 988 1 1 988 988
142	3610773 41628 3069 2096995 1.241810541759 99.941809172437 988 0.099989084639 0.100008961316 98.80000451198 9.8800009435964
143	3652401 28908 3069 2096995 1.241810541759 99.941809172437 988 2 2 1976 3952
144	3681309 41653 3075 2097013 1.241810561772 99.941809249432 988 0.099989084639 0.100008961316 98.800004568961 9.8800009549925
145	3722962 28933 3075 2097013 1.241810561772 99.941809249432 988 3 3 2964 8892
146	3751895 41652 3081 2097019 1.241810581786 99.94180931877 988 0.099989084641 0.100008961316 98.800004618286 9.8800009648576
147	3793547 28921 3081 2097019 1.241810581786 99.94180931877 988 4 4 3952 15808
148	3822468 41681 3087 2097001 1.2418106018 99.941809236582 988 0.099989084643 0.100008961316 98.800004516084 9.8800009444172
149	3864149 28930 3087 2097001 1.2418106018 99.941809236582 988 5 5 4940 24700
150	3893079 41634 3093 2097007 1.241810621814 99.941809238517 988 0.099989084647 0.100008961316 98.800004498005 9.8800009408013
151	3934713 28905 3093 2097007 1.241810621814 99.941809238517 988 6 6 5928 35568
152	3963618 41652 3099 2097031 1.241810641828 99.941809413213 988 0.099989084653 0.100008961316 98.800004652687 9.8800009717378
153	4005270 28922 3099 2097031 1.241810641828 99.941809413213 988 7 7 6916 48412
154	4034192 41672 3105 2097025 1.241810661842 99.941809371623 988 0.099989084659 0.100008961316 98.800004591083 9.880000959417
155	4075864 28914 3105 2097025 1.241810661842 99.941809371623 988 8 8 7904 63232
156	4104778 41656 3111 2097037 1.241810681856 99.941809414709 988 0.099989084668 0.100008961316 98.800004614155 9.8800009640314
157	4146434 28918 3111 2097037 1.241810681856 99.941809414709 988 9 9 8892 80028
158	4175352 41645 3117 2097043 1.241810701869 99.941809429231 988 0.099989084679 0.100008961316 98.800004608664 9.8800009629332
159	4216997 29894 3117 2097043 1.241810701869 99.941809429231 988 10 10 9880 98800
160	4246891 41661 3123 2097049 1.241810721883 99.941809522149 988 0.099989084692 0.100008961316 98.800004681568 9.880000977514
161	4288552 29915 3123 2097049 1.241810721883 99.941809522149 988 11 11 10868 119548
162	4318467 41672 3129 2097073 1.241810741897 99.941809574934 988 0.099989084707 0.100008961316 98.800004714339 9.8800009840682
163	4360139 29926 3129 2097073 1.241810741897 99.941809574934 988 12 12 11856 142272
164	4390065 41659 3135 2097055 1.241810761911 99.941809530972 988 0.099989084725 0.100008961316 98.800004650363 9.880000971273
165	4431724 29922 3135 2097055 1.241810761911 99.941809530972 988 13 13 12844 166972
166	4461646 41654 3141 2097061 1.241810781925 99.941809550196 988 0.099989084743 0.100008961316 98.800004649573 9.880000971115
167	4503300 29889 3141 2097061 1.241810781925 99.941809550196 988 14 14 13832 193648
168	4533189 41656 3147 2097067 1.241810801939 99.941809566081 988 0.099989084763 0.100008961316 98.800004645444 9.8800009702892
169	4574845 29910 3147 2097067 1.241810801939 99.941809566081 988 15 15 14820 222300
170	4604755 41650 3201 2097127 1.260446681856 99.960445418889 988 0.099992881267 0.100008961316 98.800004618335 9.8800009647441
171	4646405 28917 3201 2097127 1.260446681856 99.960445418889 988 9 9 8892 80028
172	4675322 41671 3325 2097269 1.262741721884 99.962740526365 988 0.099988514753 0.100012024535 98.800004685783 9.8800009789679
173	4716993 29907 3325 2097269 1.262741721884 99.962740526365 988 11 11 10868 119548
174	4746900 41652 3461 2097381 1.266687781926 99.966699561666 988 0.099989084742 0.100007472364 98.800004661042 9.8800009734427
175	4788552 29899 3461 2097381 1.266687781926 99.966699561666 988 14 14 13832 193648
176	4818451 41665 3593 2097519 1.281918022092 99.981917132437 988 0.099989170543 0.10000746074 98.800004991647 9.8800010397694
177	4860116 28933 3593 2097519 1.281918022092 99.981917132437 988 2 2 1976 3952
178	4889049 41668 3723 2097655 1.285643142175 99.985642417535 988 0.099989323443 0.100007447027 98.799992156662 9.8799984727719
179	4930717 28924 3723 2097655 1.285643142175 99.985642417535 988 8 8 7904 63232
180	4959641 41682 3853 2097785 1.287379242244 99.987378586665 988 0.099988883769 0.100007459295 98.799992225723 9.8799984862629
181	5001323 29904 3853 2097785 1.287379242244 99.987378586665 988 13 13 12844 166972
182	5031227 41679 3983 2097903 1.289453282272 99.989452580552 988 0.09998917064 0.100007463215 98.800005179582 9.8800010773582
183	5072906 29919 3983 2097903 1.289453282272 99.989452580552 988 15 15 14820 222300
184	5102825 41667 4108 2098034 1.291995382341 99.99199471895 988 0.099989085 0.100007480368 98.800005217911 9.8800010847059
185	5144492 29915 4108 2098034 1.291995382341 99.99199471895 988 10 10 9880 98800
186	5174407 41672 4244 2098176 1.297501522438 99.997501020673 988 0.099989393607 0.100007464184 98.799992379537 9.8799985170105
187	5216079 28928 4244 2098176 1.297501522438 99.997501020673 988 3 3 2964 8892
188	5245007 1625 19066 2098250 2 100 99 0 0 0 0
189	5246632 2241 19066 2098250 2 100 99 0.044937 0.05225619856 4.94246819856 0.24677802316194
190	5248873 1625 19066 2098250 2 100 99 0 0 0 0
191	5250498 1625 19067 2098251 2 100 99 1 1 99 99
192	5252123 2242 19067 2098251 2 100 99 0.044937 0.051754 4.941550059378 0.24668414727271
193	5254365 1625 19067 2098251 2 100 99 0 0 0 0
194	5255990 1724 19068 2098252 2 100 99 10 10 990 9900
195	5257714 2242 19068 2098252 2 100 99 0.044937 0.051754 4.941550598564 0.24668420127254
196	5259956 1625 19068 2098252 2 100 99 0 0 0 0
197	5261581 1724 19069 2098253 2 100 99 11 11 1089 11979
198	5263305 2242 19069 2098253 2 100 99 0.044937 0.051754 4.941550658538 0.24668420727901
199	5265547 1625 19069 2098253 2 100 99 0 0 0 0
200	5267172 1724 19070 2098254 2 100 99 12 12 1188 14256
201	5268896 2242 19070 2098254 2 100 99 0.044937 0.051754 4.941550718504 0.24668421328469
202	5271138 1625 19070 2098254 2 100 99 0 0 0 0
203	5272763 1724 19071 2098255 2 100 99 13 13 1287 16731
204	5274487 2242 19071 2098255 2 100 99 0.044937 0.051754 4.941550778482 0.24668421929158
205	5276729 1625 19071 2098255 2 100 99 0 0 0 0
206	5278354 1724 19072 2098256 2 100 99 14 14 1386 19404
207	5280078 2241 19072 2098256 2 100 99 0.044937 0.051754 4.94155083847 0.24668422529947
208	5282319 1625 19072 2098256 2 100 99 0 0 0 0
209	5283944 1724 19073 2098257 2 100 99 15 15 1485 22275
210	5285668 2242 19073 2098257 2 100 99 0.044937 0.051787898448 4.941550898448 0.24668434737466
211	5287910 1625 19073 2098257 2 100 99 0 0 0 0
212	5289535 1625 19074 2098258 2 100 99 2 2 198 396
213	5291160 2242 19074 2098258 2 100 99 0.044937 0.051754 4.941550119118 0.24668415325568
214	5293402 1625 19074 2098258 2 100 99 0 0 0 0
215	5295027 1625 19075 2098259 2 100 99 3 3 297 891
216	5296652 2242 19075 2098259 2 100 99 0.044937 0.051754 4.941550178972 0.24668415925008
217	5298894 1625 19075 2098259 2 100 99 0 0 0 0
218	5300519 1625 19076 2098260 2 100 99 4 4 396 1584
219	5302144 2242 19076 2098260 2 100 99 0.044937 0.051754 4.941550238866 0.24668416524849
220	5304386 1625 19076 2098260 2 100 99 0 0 0 0
221	5306011 1625 19077 2098261 2 100 99 5 5 495 2475
222	5307636 2242 19077 2098261 2 100 99 0.044937 0.051754 4.941550298798 0.24668417125071
223	5309878 1625 19077 2098261 2 100 99 0 0 0 0
224	5311503 1625 19078 2098262 2 100 99 6 6 594 3564
225	5313128 2242 19078 2098262 2 100 99 0.044937 0.051754 4.941550358738 0.24668417725374
226	5315370 1625 19078 2098262 2 100 99 0 0 0 0
227	5316995 1625 19079 2098263 2 100 99 7 7 693 4851
228	5318620 2241 19079 2098263 2 100 99 0.044937 0.051754 4.94155041869 0.24668418325798
229	5320861 1625 19079 2098263 2 100 99 0 0 0 0
230	5322486 1625 19080 2098264 2 100 99 8 8 792 6336
231	5324111 2242 19080 2098264 2 100 99 0.044937 0.051754 4.941550478648 0.24668418926283
232	5326353 1625 19080 2098264 2 100 99 0 0 0 0
233	5327978 1625 19081 2098265 2 100 99 9 9 891 8019
234	5329603 2242 19081 2098265 2 100 99 0.044937 0.051754 4.941550538606 0.24668419526768
235	5331845 1625 19081 2098265 2 100 99 0 0 0 0

