file 5332364 1720627705                                         
version 3
run BreakRanksNoGui-75-20240710-18:07:57-278228
attr configname BreakRanksNoGui
attr datetime 20240710-18:07:57
attr datetimef 20240710-180757
attr experiment BreakRanksNoGui
attr inifile omnetpp.ini
attr iterationvars "$nCars=16, $platoonSize=16, $nLanes=1, $ploegH=0.5, $controller=1, $headway=0.1, $leaderHeadway=1.2, $leaderSpeed=110, $breakRanksSafetyDistance=5, $minSpeed=100, $maxSpeed=120, $beaconInterval=0.1, $priority=4, $packetSize=200, $sController=\"CACC\", $0=2, $1=0"
attr iterationvarsd nCars=16/platoonSize=16/nLanes=1/ploegH=0.5/controller=1/headway=0.1/leaderHeadway=1.2/leaderSpeed=110/breakRanksSafetyDistance=5/minSpeed=100/maxSpeed=120/beaconInterval=0.1/priority=4/packetSize=200/sController=CACC/2/0
attr iterationvarsf nCars=16,platoonSize=16,nLanes=1,ploegH=0.5,controller=1,headway=0.1,leaderHeadway=1.2,leaderSpeed=110,breakRanksSafetyDistance=5,minSpeed=100,maxSpeed=120,beaconInterval=0.1,priority=4,packetSize=200,sController=CACC,2,0-
attr measurement "$nCars=16, $platoonSize=16, $nLanes=1, $ploegH=0.5, $controller=1, $headway=0.1, $leaderHeadway=1.2, $leaderSpeed=110, $breakRanksSafetyDistance=5, $minSpeed=100, $maxSpeed=120, $beaconInterval=0.1, $priority=4, $packetSize=200, $sController=\"CACC\", $0=2, $1=0"
attr network Highway
attr processid 278228
attr repetition 5
attr replication #5
attr resultdir results
attr runnumber 75
attr seedset 5
itervar beaconInterval 0.1
itervar breakRanksSafetyDistance 5
itervar controller 1
itervar headway 0.1
itervar leaderHeadway 1.2
itervar leaderSpeed 110
itervar maxSpeed 120
itervar minSpeed 100
itervar nCars 16
itervar nLanes 1
itervar packetSize 200
itervar platoonSize 16
itervar ploegH 0.5
itervar priority 4
itervar sController "\"CACC\""
config image-path ../../../veins/images
config repeat 10
config extends BreakRanks
config *.manager.command "\"sumo\""
config *.manager.ignoreGuiCommands true
config output-vector-file "results/BreakRanks_1_0.1_110_5_16 /result_5.vec"
config output-scalar-file "results/BreakRanks_1_0.1_110_5_16 /result_5.sca"
config extends Platooning
config *.node[*].scenario_type "\"BreakRanksScenario\""
config *.manager.command "\"sumo-gui\""
config *.node[*].scenario_type "\"SimpleScenario\""
config cmdenv-express-mode true
config cmdenv-autoflush true
config cmdenv-status-frequency 15s
config num-rngs 6
config network Highway
config debug-on-errors true
config print-undisposed true
config *.playgroundSizeX 65000m
config *.playgroundSizeY 25000m
config *.playgroundSizeZ 50m
config sim-time-limit "100 s"
config *.annotations.draw false
config *.obstacles.debug false
config *.world.useTorus false
config *.world.use2D false
config *.manager.updateInterval 0.01s
config *.manager.host "\"localhost\""
config *.manager.moduleType "\"org.car2x.plexe.PlatoonCar\""
config *.manager.moduleName "\"node\""
config *.manager.moduleDisplayString "\"\""
config *.manager.autoShutdown true
config *.manager.margin 25
config *.connectionManager.sendDirect true
config *.connectionManager.maxInterfDist 2600m
config *.connectionManager.drawMaxIntfDist false
config *.**.nic.mac1609_4.useServiceChannel false
config *.**.nic.mac1609_4.txPower 100mW
config *.**.nic.mac1609_4.bitrate 6Mbps
config *.**.nic.mac1609_4.useAcks true
config *.**.nic.mac1609_4.ackErrorRate 0.0
config *.**.nic.mac1609_4.frameErrorRate 0.0
config *.**.nic.phy80211p.minPowerLevel -94dBm
config *.**.nic.phy80211p.maxTXPower 100mW
config *.**.nic.phy80211p.useNoiseFloor true
config *.**.nic.phy80211p.noiseFloor -95dBm
config *.**.nic.phy80211p.decider "xmldoc(\"config.xml\")"
config *.**.nic.phy80211p.analogueModels "xmldoc(\"config.xml\")"
config *.**.nic.phy80211p.usePropagationDelay true
config *.node[*].mobility.x 0
config *.node[*].mobility.y 0
config *.node[*].mobility.z 1.895
config seed-set 5
config **.seed 5
config *.node[*].prot.rng-0 2
config *.node[*].appl.rng-0 3
config *.node[*].scenario.rng-0 4
config **.traffic.rng-0 5
config *.manager.configFile "\"./sumocfg/freeway.sumo.cfg\""
config *.manager.launchConfig "xmldoc(\"./sumocfg/freeway.launchd.xml\")"
config **.numberOfCars 16
config **.numberOfCarsPerPlatoon 16
config **.numberOfLanes 1
config *.node[*].helper_type "\"PositionHelper\""
config *.node[*].scenario.caccC1 0.5
config *.node[*].scenario.caccXi 1
config *.node[*].scenario.caccOmegaN "0.2 Hz"
config *.node[*].scenario.caccSpacing "2 m"
config *.node[*].scenario.engineTau "0.5 s"
config *.node[*].scenario.ploegH 0.5s
config *.node[*].scenario.ploegKp 0.2
config *.node[*].scenario.ploegKd 0.7
config *.node[*].scenario.useRealisticEngine false
config *.node[*].scenario.useControllerAcceleration true
config *.node[*].scenario.nLanes 1
config **.numericController 1
config **.headway 0.1s
config *.node[*].scenario.accHeadway 0.1s
config *.node[*].scenario.leaderHeadway 1.2s
config *.node[*].scenario.leaderSpeed 110kmph
config *.node[*].appl_type "\"SimplePlatooningApp\""
config *.node[*].appl.*.scalar-recording true
config *.node[*].appl.*.vector-recording true
config *.node[0].appl.breakRanksSafetyDistance 5m
config *.node[*].appl.minSpeed 100kmph
config *.node[*].appl.maxSpeed 120kmph
config *.node[*].protocol_type "\"SimplePlatooningBeaconing\""
config *.node[*].prot.*.scalar-recording true
config *.node[*].prot.*.vector-recording true
config *.node[*].prot.beaconingInterval 0.1s
config *.node[*].prot.priority 4
config *.node[*].prot.packetSize 200
config **.traffic_type "\"PlatoonsTrafficManager\""
config **.traffic.platoonInsertTime "1 s"
config **.traffic.platoonInsertSpeed 110kmph
config **.traffic.nCars 16
config **.traffic.platoonSize 16
config **.traffic.nLanes 1
config **.traffic.platooningVType "\"vtypeauto\""
config **.traffic.controller "\"CACC\""
config **.traffic.platoonInsertDistance 2m
config **.traffic.platoonInsertHeadway 0s
config **.traffic.platoonLeaderHeadway 1.2s
config **.scalar-recording false
config **.vector-recording false

vector 0 Highway.node[0].appl distance ETV
vector 1 Highway.node[0].appl relativeSpeed ETV
vector 2 Highway.node[0].appl nodeId ETV
vector 3 Highway.node[0].appl acceleration ETV
vector 4 Highway.node[0].appl controllerAcceleration ETV
vector 5 Highway.node[0].appl speed ETV
vector 6 Highway.node[0].appl posx ETV
vector 7 Highway.node[0].appl posy ETV
vector 8 Highway.node[1].appl distance ETV
vector 9 Highway.node[1].appl relativeSpeed ETV
vector 10 Highway.node[1].appl nodeId ETV
vector 11 Highway.node[1].appl acceleration ETV
vector 12 Highway.node[1].appl controllerAcceleration ETV
vector 13 Highway.node[1].appl speed ETV
vector 14 Highway.node[1].appl posx ETV
vector 15 Highway.node[1].appl posy ETV
vector 16 Highway.node[2].appl distance ETV
vector 17 Highway.node[2].appl relativeSpeed ETV
vector 18 Highway.node[2].appl nodeId ETV
vector 19 Highway.node[2].appl acceleration ETV
vector 20 Highway.node[2].appl controllerAcceleration ETV
vector 21 Highway.node[2].appl speed ETV
vector 22 Highway.node[2].appl posx ETV
vector 23 Highway.node[2].appl posy ETV
vector 24 Highway.node[3].appl distance ETV
vector 25 Highway.node[3].appl relativeSpeed ETV
vector 26 Highway.node[3].appl nodeId ETV
vector 27 Highway.node[3].appl acceleration ETV
vector 28 Highway.node[3].appl controllerAcceleration ETV
vector 29 Highway.node[3].appl speed ETV
vector 30 Highway.node[3].appl posx ETV
vector 31 Highway.node[3].appl posy ETV
vector 32 Highway.node[4].appl distance ETV
vector 33 Highway.node[4].appl relativeSpeed ETV
vector 34 Highway.node[4].appl nodeId ETV
vector 35 Highway.node[4].appl acceleration ETV
vector 36 Highway.node[4].appl controllerAcceleration ETV
vector 37 Highway.node[4].appl speed ETV
vector 38 Highway.node[4].appl posx ETV
vector 39 Highway.node[4].appl posy ETV
vector 40 Highway.node[5].appl distance ETV
vector 41 Highway.node[5].appl relativeSpeed ETV
vector 42 Highway.node[5].appl nodeId ETV
vector 43 Highway.node[5].appl acceleration ETV
vector 44 Highway.node[5].appl controllerAcceleration ETV
vector 45 Highway.node[5].appl speed ETV
vector 46 Highway.node[5].appl posx ETV
vector 47 Highway.node[5].appl posy ETV
vector 48 Highway.node[6].appl distance ETV
vector 49 Highway.node[6].appl relativeSpeed ETV
vector 50 Highway.node[6].appl nodeId ETV
vector 51 Highway.node[6].appl acceleration ETV
vector 52 Highway.node[6].appl controllerAcceleration ETV
vector 53 Highway.node[6].appl speed ETV
vector 54 Highway.node[6].appl posx ETV
vector 55 Highway.node[6].appl posy ETV
vector 56 Highway.node[7].appl distance ETV
vector 57 Highway.node[7].appl relativeSpeed ETV
vector 58 Highway.node[7].appl nodeId ETV
vector 59 Highway.node[7].appl acceleration ETV
vector 60 Highway.node[7].appl controllerAcceleration ETV
vector 61 Highway.node[7].appl speed ETV
vector 62 Highway.node[7].appl posx ETV
vector 63 Highway.node[7].appl posy ETV
vector 64 Highway.node[8].appl distance ETV
vector 65 Highway.node[8].appl relativeSpeed ETV
vector 66 Highway.node[8].appl nodeId ETV
vector 67 Highway.node[8].appl acceleration ETV
vector 68 Highway.node[8].appl controllerAcceleration ETV
vector 69 Highway.node[8].appl speed ETV
vector 70 Highway.node[8].appl posx ETV
vector 71 Highway.node[8].appl posy ETV
vector 72 Highway.node[9].appl distance ETV
vector 73 Highway.node[9].appl relativeSpeed ETV
vector 74 Highway.node[9].appl nodeId ETV
vector 75 Highway.node[9].appl acceleration ETV
vector 76 Highway.node[9].appl controllerAcceleration ETV
vector 77 Highway.node[9].appl speed ETV
vector 78 Highway.node[9].appl posx ETV
vector 79 Highway.node[9].appl posy ETV
vector 80 Highway.node[10].appl distance ETV
vector 81 Highway.node[10].appl relativeSpeed ETV
vector 82 Highway.node[10].appl nodeId ETV
vector 83 Highway.node[10].appl acceleration ETV
vector 84 Highway.node[10].appl controllerAcceleration ETV
vector 85 Highway.node[10].appl speed ETV
vector 86 Highway.node[10].appl posx ETV
vector 87 Highway.node[10].appl posy ETV
vector 88 Highway.node[11].appl distance ETV
vector 89 Highway.node[11].appl relativeSpeed ETV
vector 90 Highway.node[11].appl nodeId ETV
vector 91 Highway.node[11].appl acceleration ETV
vector 92 Highway.node[11].appl controllerAcceleration ETV
vector 93 Highway.node[11].appl speed ETV
vector 94 Highway.node[11].appl posx ETV
vector 95 Highway.node[11].appl posy ETV
vector 96 Highway.node[12].appl distance ETV
vector 97 Highway.node[12].appl relativeSpeed ETV
vector 98 Highway.node[12].appl nodeId ETV
vector 99 Highway.node[12].appl acceleration ETV
vector 100 Highway.node[12].appl controllerAcceleration ETV
vector 101 Highway.node[12].appl speed ETV
vector 102 Highway.node[12].appl posx ETV
vector 103 Highway.node[12].appl posy ETV
vector 104 Highway.node[13].appl distance ETV
vector 105 Highway.node[13].appl relativeSpeed ETV
vector 106 Highway.node[13].appl nodeId ETV
vector 107 Highway.node[13].appl acceleration ETV
vector 108 Highway.node[13].appl controllerAcceleration ETV
vector 109 Highway.node[13].appl speed ETV
vector 110 Highway.node[13].appl posx ETV
vector 111 Highway.node[13].appl posy ETV
vector 112 Highway.node[14].appl distance ETV
vector 113 Highway.node[14].appl relativeSpeed ETV
vector 114 Highway.node[14].appl nodeId ETV
vector 115 Highway.node[14].appl acceleration ETV
vector 116 Highway.node[14].appl controllerAcceleration ETV
vector 117 Highway.node[14].appl speed ETV
vector 118 Highway.node[14].appl posx ETV
vector 119 Highway.node[14].appl posy ETV
vector 120 Highway.node[15].appl distance ETV
vector 121 Highway.node[15].appl relativeSpeed ETV
vector 122 Highway.node[15].appl nodeId ETV
vector 123 Highway.node[15].appl acceleration ETV
vector 124 Highway.node[15].appl controllerAcceleration ETV
vector 125 Highway.node[15].appl speed ETV
vector 126 Highway.node[15].appl posx ETV
vector 127 Highway.node[15].appl posy ETV
vector 128 Highway.node[8].prot frontDelay ETV
vector 129 Highway.node[8].prot frontDelayId ETV
vector 130 Highway.node[13].prot frontDelay ETV
vector 131 Highway.node[13].prot frontDelayId ETV
vector 132 Highway.node[2].prot frontDelay ETV
vector 133 Highway.node[2].prot frontDelayId ETV
vector 134 Highway.node[6].prot frontDelay ETV
vector 135 Highway.node[6].prot frontDelayId ETV
vector 136 Highway.node[12].prot frontDelay ETV
vector 137 Highway.node[12].prot frontDelayId ETV
vector 138 Highway.node[3].prot frontDelay ETV
vector 139 Highway.node[3].prot frontDelayId ETV
vector 140 Highway.node[4].prot frontDelay ETV
vector 141 Highway.node[4].prot frontDelayId ETV
vector 142 Highway.node[14].prot frontDelay ETV
vector 143 Highway.node[14].prot frontDelayId ETV
vector 144 Highway.node[5].prot frontDelay ETV
vector 145 Highway.node[5].prot frontDelayId ETV
vector 146 Highway.node[10].prot frontDelay ETV
vector 147 Highway.node[10].prot frontDelayId ETV
vector 148 Highway.node[9].prot frontDelay ETV
vector 149 Highway.node[9].prot frontDelayId ETV
vector 150 Highway.node[11].prot frontDelay ETV
vector 151 Highway.node[11].prot frontDelayId ETV
vector 152 Highway.node[1].prot leaderDelay ETV
vector 153 Highway.node[1].prot leaderDelayId ETV
vector 154 Highway.node[1].prot frontDelay ETV
vector 155 Highway.node[1].prot frontDelayId ETV
vector 156 Highway.node[8].prot leaderDelay ETV
vector 157 Highway.node[8].prot leaderDelayId ETV
vector 158 Highway.node[9].prot leaderDelay ETV
vector 159 Highway.node[9].prot leaderDelayId ETV
vector 160 Highway.node[10].prot leaderDelay ETV
vector 161 Highway.node[10].prot leaderDelayId ETV
vector 162 Highway.node[11].prot leaderDelay ETV
vector 163 Highway.node[11].prot leaderDelayId ETV
vector 164 Highway.node[12].prot leaderDelay ETV
vector 165 Highway.node[12].prot leaderDelayId ETV
vector 166 Highway.node[13].prot leaderDelay ETV
vector 167 Highway.node[13].prot leaderDelayId ETV
vector 168 Highway.node[14].prot leaderDelay ETV
vector 169 Highway.node[14].prot leaderDelayId ETV
vector 170 Highway.node[15].prot leaderDelay ETV
vector 171 Highway.node[15].prot leaderDelayId ETV
vector 172 Highway.node[2].prot leaderDelay ETV
vector 173 Highway.node[2].prot leaderDelayId ETV
vector 174 Highway.node[3].prot leaderDelay ETV
vector 175 Highway.node[3].prot leaderDelayId ETV
vector 176 Highway.node[4].prot leaderDelay ETV
vector 177 Highway.node[4].prot leaderDelayId ETV
vector 178 Highway.node[5].prot leaderDelay ETV
vector 179 Highway.node[5].prot leaderDelayId ETV
vector 180 Highway.node[6].prot leaderDelay ETV
vector 181 Highway.node[6].prot leaderDelayId ETV
vector 182 Highway.node[7].prot leaderDelay ETV
vector 183 Highway.node[7].prot leaderDelayId ETV
vector 184 Highway.node[15].prot frontDelay ETV
vector 185 Highway.node[15].prot frontDelayId ETV
vector 186 Highway.node[7].prot frontDelay ETV
vector 187 Highway.node[7].prot frontDelayId ETV
vector 188 Highway.node[0].prot nodeId ETV
vector 189 Highway.node[0].prot busyTime ETV
vector 190 Highway.node[0].prot collisions ETV
vector 191 Highway.node[1].prot nodeId ETV
vector 192 Highway.node[1].prot busyTime ETV
vector 193 Highway.node[1].prot collisions ETV
vector 194 Highway.node[2].prot nodeId ETV
vector 195 Highway.node[2].prot busyTime ETV
vector 196 Highway.node[2].prot collisions ETV
vector 197 Highway.node[3].prot nodeId ETV
vector 198 Highway.node[3].prot busyTime ETV
vector 199 Highway.node[3].prot collisions ETV
vector 200 Highway.node[4].prot nodeId ETV
vector 201 Highway.node[4].prot busyTime ETV
vector 202 Highway.node[4].prot collisions ETV
vector 203 Highway.node[5].prot nodeId ETV
vector 204 Highway.node[5].prot busyTime ETV
vector 205 Highway.node[5].prot collisions ETV
vector 206 Highway.node[6].prot nodeId ETV
vector 207 Highway.node[6].prot busyTime ETV
vector 208 Highway.node[6].prot collisions ETV
vector 209 Highway.node[7].prot nodeId ETV
vector 210 Highway.node[7].prot busyTime ETV
vector 211 Highway.node[7].prot collisions ETV
vector 212 Highway.node[8].prot nodeId ETV
vector 213 Highway.node[8].prot busyTime ETV
vector 214 Highway.node[8].prot collisions ETV
vector 215 Highway.node[9].prot nodeId ETV
vector 216 Highway.node[9].prot busyTime ETV
vector 217 Highway.node[9].prot collisions ETV
vector 218 Highway.node[10].prot nodeId ETV
vector 219 Highway.node[10].prot busyTime ETV
vector 220 Highway.node[10].prot collisions ETV
vector 221 Highway.node[11].prot nodeId ETV
vector 222 Highway.node[11].prot busyTime ETV
vector 223 Highway.node[11].prot collisions ETV
vector 224 Highway.node[12].prot nodeId ETV
vector 225 Highway.node[12].prot busyTime ETV
vector 226 Highway.node[12].prot collisions ETV
vector 227 Highway.node[13].prot nodeId ETV
vector 228 Highway.node[13].prot busyTime ETV
vector 229 Highway.node[13].prot collisions ETV
vector 230 Highway.node[14].prot nodeId ETV
vector 231 Highway.node[14].prot busyTime ETV
vector 232 Highway.node[14].prot collisions ETV
vector 233 Highway.node[15].prot nodeId ETV
vector 234 Highway.node[15].prot busyTime ETV
vector 235 Highway.node[15].prot collisions ETV
0	16893 18176 113 2096194 1.11 99.91 989 -1 -1 -989 989
1	35069 17187 113 2096194 1.11 99.91 989 0 0 0 0
2	52256 17187 113 2096194 1.11 99.91 989 0 0 0 0
3	69443 19775 113 2096194 1.11 99.91 989 -0.00283113 0.000125957 -0.043966303784312 9.6812896349407e-05
4	89218 27155 113 2096194 1.11 99.91 989 -0.00437036 0.00019576 -0.042459310034081 0.00013890441444735
5	116373 23117 113 2096194 1.11 99.91 989 30.5554 30.56 30219.5304 923377.16656332
6	139490 23041 113 2096194 1.11 99.91 989 105.91 3124.81 1597592.031 3333330618.5634
7	162531 22132 113 2096194 1.11 99.91 989 242.45 242.45 239783.05 58135400.472499
8	184663 22663 114 2096195 1.11 99.91 989 -1 4.99998 3926.51963 18614.408449604
9	207326 25420 114 2096195 1.11 99.91 989 -0.000537994 0.238923 29.999831571313 4.7416557819092
10	232746 18176 114 2096195 1.11 99.91 989 1 1 989 989
11	250922 27472 114 2096195 1.11 99.91 989 -0.090838 0.92955 14.404597880208 10.634301582719
12	278394 27452 114 2096195 1.11 99.91 989 -0.119592 1.43924 14.225852880942 15.600907174003
13	305846 24043 114 2096195 1.11 99.91 989 30.3167 32.0643 30283.7915 927439.97559784
14	329889 24001 114 2096195 1.11 99.91 989 99.9104 3125.16 1589566.8354 3307015931.7889
15	353890 23121 114 2096195 1.11 99.91 989 242.45 245.75 240030.55 58256229.9725
16	377011 23953 115 2096196 1.11 99.91 989 2 40.9624 6262.84356 128303.87755975
17	400964 26469 115 2096196 1.11 99.91 989 -1.00272 0.0888679 1.81719589811 20.21969437306
18	427433 19165 115 2096196 1.11 99.91 989 10 10 9890 98900
19	446598 26747 115 2096196 1.11 99.91 989 -0.608941 0.035512 -14.18255039918 8.067213325059
20	473345 26723 115 2096196 1.11 99.91 989 -0.690563 0.195769 -13.094344402471 9.2711768375935
21	500068 24006 115 2096196 1.11 99.91 989 29.0953 30.56 29845.9172 900857.78833402
22	524074 24001 115 2096196 1.11 99.91 989 45.9104 3027.52 1517444.0517 3063134054.0367
23	548075 23121 115 2096196 1.11 99.91 989 242.45 249.05 240278.05 58378692.9725
24	571196 23959 116 2096197 1.11 99.91 989 2 51.2423 5845.59753 111618.25565341
25	595155 26395 116 2096197 1.11 99.91 989 -1.85215 0.0846952 -31.935777875868 81.882317525365
26	621550 19165 116 2096197 1.11 99.91 989 11 11 10879 119669
27	640715 26565 116 2096197 1.11 99.91 989 -1.74608 1.27396 -53.81049518678 123.65583769542
28	667280 26497 116 2096197 1.11 99.91 989 -1.91724 1.5 -48.298392072143 161.34200302803
29	693777 24011 116 2096197 1.11 99.91 989 23.3035 30.56 29574.8555 885953.08759915
30	717788 23988 116 2096197 1.11 99.91 989 39.9104 2994.61 1509225.2314 3034192339.6687
31	741776 23121 116 2096197 1.11 99.91 989 242.45 242.45 239783.05 58135400.472499
32	764897 23808 117 2096198 1.11 99.91 989 1.99997 13.4367 3798.51706 17845.136382455
33	788705 26367 117 2096198 1.11 99.91 989 -6.29375e-05 3.01311 115.87601648727 143.55501564387
34	815072 19165 117 2096198 1.11 99.91 989 12 12 11868 142416
35	834237 26547 117 2096198 1.11 99.91 989 -2.09962 0.791668 -84.04717534328 130.56494989844
36	860784 26532 117 2096198 1.11 99.91 989 -2.79914 1.24901 -78.618400229712 156.53278309048
37	887316 24018 117 2096198 1.11 99.91 989 21.8339 30.56 29458.9791 879863.62913923
38	911334 23990 117 2096198 1.11 99.91 989 33.9104 2977.17 1501470.7438 3007921962.9481
39	935324 23121 117 2096198 1.11 99.91 989 242.45 242.45 239783.05 58135400.472499
40	958445 23761 118 2096199 1.11 99.91 989 1.9997 36.7491 5710.3435 102363.12977351
41	982206 26359 118 2096199 1.11 99.91 989 -0.000220854 1.3389 78.43980127047 43.709076562345
42	1008565 19165 118 2096199 1.11 99.91 989 13 13 12857 167141
43	1027730 26560 118 2096199 1.11 99.91 989 -0.297276 0.58434 10.82313360328 7.9009369524517
44	1054290 26579 118 2096199 1.11 99.91 989 -0.550279 0.676355 11.449375995511 9.9202341093462
45	1080869 24000 118 2096199 1.11 99.91 989 29.4588 31.6381 29875.5287 902709.21172691
46	1104869 23996 118 2096199 1.11 99.91 989 27.9104 3012.35 1495204.0598 2990310616.9035
47	1128865 23121 118 2096199 1.11 99.91 989 242.45 252.35 240525.55 58502789.4725
48	1151986 23886 119 2096200 1.11 99.91 989 1.99606 69.3365 7029.91146 229369.79278471
49	1175872 26325 119 2096200 1.11 99.91 989 -4.53793 3.80899 49.339612798629 384.05572218725
50	1202197 19165 119 2096200 1.11 99.91 989 14 14 13846 193844
51	1221362 26528 119 2096200 1.11 99.91 989 -1.61341 0.175583 -56.26798195448 69.27099079928
52	1247890 26478 119 2096200 1.11 99.91 989 -2.46647 0.888449 -53.841332633861 96.251187715214
53	1274368 24014 119 2096200 1.11 99.91 989 24.9102 30.56 29562.285 884493.1727326
54	1298382 23994 119 2096200 1.11 99.91 989 21.9104 2975.36 1487095.4247 2961772140.5611
55	1322376 23121 119 2096200 1.11 99.91 989 242.45 245.75 240030.55 58256229.9725
56	1345497 23871 120 2096201 1.11 99.91 989 1.9922 54.4257 6459.11928 175280.37053574
57	1369368 26285 120 2096201 1.11 99.91 989 -0.00307639 2.33582 167.17819442614 287.84951216605
58	1395653 19165 120 2096201 1.11 99.91 989 15 15 14835 222525
59	1414818 26545 120 2096201 1.11 99.91 989 -1.45972 0.0651488 -35.503172505872 43.34468416055
60	1441363 26491 120 2096201 1.11 99.91 989 -1.5 0.101277 -34.441079392905 50.258041453058
61	1467854 24020 120 2096201 1.11 99.91 989 26.8987 30.56 29560.5915 884179.59742435
62	1491874 24012 120 2096201 1.11 99.91 989 15.9104 2969.09 1479829.3104 2938116033.7735
63	1515886 23121 120 2096201 1.11 99.91 989 242.45 249.05 240278.05 58378692.9725
64	1539007 23996 121 2096202 1.11 99.91 989 1.99968 30.2219 5501.48743 53016.237460224
65	1563003 26751 121 2096202 1.11 99.91 989 -6.49554e-05 2.65334 193.49557787173 402.20537635868
66	1589754 18176 121 2096202 1.11 99.91 989 2 2 1978 3956
67	1607930 27317 121 2096202 1.11 99.91 989 -1.41142 0.0629033 -25.53472112081 29.223953480979
68	1635247 27300 121 2096202 1.11 99.91 989 -2.03831 0.0976797 -24.537273880048 38.349998698351
69	1662547 24029 121 2096202 1.11 99.91 989 27.9023 30.56 29996.0373 910134.43178722
70	1686576 24016 121 2096202 1.11 99.91 989 93.9104 3090.59 1580477.1848 3274027961.9872
71	1710592 23121 121 2096202 1.11 99.91 989 242.45 242.45 239783.05 58135400.472499
72	1733713 23968 122 2096203 1.11 99.91 989 1.99953 17.837 4620.38216 26638.54220873
73	1757681 26682 122 2096203 1.11 99.91 989 -0.000715991 2.51776 159.2515965913 271.15540730339
74	1784363 18176 122 2096203 1.11 99.91 989 3 3 2967 8901
75	1802539 27117 122 2096203 1.11 99.91 989 -2.1647 0.30757 -43.10640838245 88.163970133253
76	1829656 27126 122 2096203 1.11 99.91 989 -2.79898 0.341339 -40.870240311715 107.33680461187
77	1856782 24018 122 2096203 1.11 99.91 989 25.4146 30.56 29836.7853 901332.50518286
78	1880800 23993 122 2096203 1.11 99.91 989 87.9104 3068.75 1571900.6406 3244001783.9021
79	1904793 23121 122 2096203 1.11 99.91 989 242.45 242.45 239783.05 58135400.472499
80	1927914 23977 123 2096204 1.11 99.91 989 1.99957 15.6023 4409.65133 23054.772080911
81	1951891 26618 123 2096204 1.11 99.91 989 -0.000680162 2.46947 137.0540737076 223.081701196
82	1978509 18176 123 2096204 1.11 99.91 989 4 4 3956 15824
83	1996685 27048 123 2096204 1.11 99.91 989 -2.4276 0.510851 -63.65515146318 145.73958650682
84	2023733 27053 123 2096204 1.11 99.91 989 -2.80321 0.543542 -60.0023502667 167.61623436058
85	2050786 24021 123 2096204 1.11 99.91 989 23.1653 30.56 29699.7294 894209.46171312
86	2074807 23990 123 2096204 1.11 99.91 989 81.9104 3049.15 1563534.9513 3215089179.6362
87	2098797 23121 123 2096204 1.11 99.91 989 242.45 242.45 239783.05 58135400.472499
88	2121918 23575 124 2096205 1.11 99.91 989 -1 4.99906 3626.14367 16298.594367016
89	2145493 26049 124 2096205 1.11 99.91 989 -4.39176e-05 0.126261 29.990669242039 2.6069940311929
90	2171542 18176 124 2096205 1.11 99.91 989 5 5 4945 24725
91	2189718 27058 124 2096205 1.11 99.91 989 -1.00001 0.0445404 -15.55133801031 13.332995711087
92	2216776 27084 124 2096205 1.11 99.91 989 -1.5 0.0691489 -14.74133636693 18.265190404049
93	2243860 23998 124 2096205 1.11 99.91 989 28.9308 30.56 29967.5163 908207.32222931
94	2267858 24002 124 2096205 1.11 99.91 989 75.9104 3069.68 1556345.2398 3193092672.3126
95	2291860 23121 124 2096205 1.11 99.91 989 242.45 249.05 240278.05 58378692.9725
96	2314981 23920 125 2096206 1.11 99.91 989 1.99985 42.3484 6766.33437 147081.7460704
97	2338901 26546 125 2096206 1.11 99.91 989 -0.235123 0.70496 36.29872563667 11.000439708957
98	2365447 18176 125 2096206 1.11 99.91 989 6 6 5934 35604
99	2383623 26963 125 2096206 1.11 99.91 989 -0.196933 0.712009 15.666519057744 10.676450378182
100	2410586 27964 125 2096206 1.11 99.91 989 -0.234296 0.792541 16.44548907261 12.410517596486
101	2438550 24993 125 2096206 1.11 99.91 989 29.7163 32.2483 30127.5099 917989.30155877
102	2463543 24993 125 2096206 1.11 99.91 989 69.9104 3079.53 1548964.7279 3169787541.8246
103	2488536 24110 125 2096206 1.11 99.91 989 242.45 245.75 240030.55 58256229.9725
104	2512646 24858 126 2096207 1.11 99.91 989 0.581646 22.9936 4867.806386 41014.093299245
105	2537504 27460 126 2096207 1.11 99.91 989 -1.34072 8.50349 169.92708534431 1379.3694651967
106	2564964 19165 126 2096207 1.11 99.91 989 7 7 6923 48461
107	2584129 27790 126 2096207 1.11 99.91 989 -2.16435 1.47195 -58.07233057084 170.14531625478
108	2611919 27702 126 2096207 1.11 99.91 989 -2.24772 1.5 -49.60619017313 199.46539484988
109	2639621 24996 126 2096207 1.11 99.91 989 22.4017 30.56 29633.2641 890124.32104865
110	2664617 24987 126 2096207 1.11 99.91 989 63.9104 3024.47 1539819.6683 3135737510.3286
111	2689604 24110 126 2096207 1.11 99.91 989 242.45 245.75 239855.65 58170843.792499
112	2713714 24909 127 2096208 1.11 99.91 989 1.99992 30.1137 5036.18553 53160.737952446
113	2738623 27417 127 2096208 1.11 99.91 989 -0.000161412 4.17823 174.54305807001 416.65544862755
114	2766040 19165 127 2096208 1.11 99.91 989 8 8 7912 63296
115	2785205 27707 127 2096208 1.11 99.91 989 -2.09369 1.45381 6.2264394786 103.99405940081
116	2812912 27672 127 2096208 1.11 99.91 989 -2.79986 1.5 6.5206683583 149.71864653117
117	2840584 24993 127 2096208 1.11 99.91 989 27.2804 31.1796 29905.9004 904582.14332664
118	2865577 24968 127 2096208 1.11 99.91 989 57.9104 3045.41 1532603.2929 3113134068.3757
119	2890545 24110 127 2096208 1.11 99.91 989 242.45 245.75 239974.45 58228841.952499
120	2914655 24547 128 2096209 1.11 99.91 989 -1 4.98981 3326.80977 14051.897197479
121	2939202 26926 128 2096209 1.11 99.91 989 -0.00247153 0.0937928 29.898632249881 1.9638495853877
122	2966128 19165 128 2096209 1.11 99.91 989 9 9 8901 80109
123	2985293 27771 128 2096209 1.11 99.91 989 -0.202035 0.933408 14.43589527069 12.1439799693
124	3013064 27779 128 2096209 1.11 99.91 989 -0.235384 1.45155 15.02828870447 18.351693570042
125	3040843 24983 128 2096209 1.11 99.91 989 29.564 32.0647 30043.1986 912918.54911522
126	3065826 24954 128 2096209 1.11 99.91 989 51.9104 3053.1 1525601.0224 3091627742.1809
127	3090780 24110 128 2096209 1.11 99.91 989 242.45 252.35 240525.55 58502789.4725
128	3114890 41685 2286 2096261 1.217224021398 99.91722131631 988 0.099989422109 0.100012256214 98.799990296296 9.8799981005883
129	3156575 28929 2286 2096261 1.217224021398 99.91722131631 988 2 2 1976 3952
130	3185504 41635 2417 2096440 1.221326121467 99.921323536672 988 0.099989152067 0.100007376526 98.799990416589 9.8799981246343
131	3227139 28903 2417 2096440 1.221326121467 99.921323536672 988 7 7 6916 48412
132	3256042 41632 2542 2096541 1.239559181509 99.93955652973 988 0.099989152105 0.100007374965 98.799990349605 9.8799981112379
133	3297674 29897 2542 2096541 1.239559181509 99.93955652973 988 10 10 9880 98800
134	3327571 41654 2679 2096684 1.244025261564 99.944022705567 988 0.09998891021 0.100007367361 98.799990445387 9.879998130511
135	3369225 29915 2679 2096684 1.244025261564 99.944022705567 988 14 14 13832 193648
136	3399140 41646 2809 2096784 1.246320421675 99.94633080558 988 0.099988759905 0.100009001349 98.800003385289 9.880000718236
137	3440786 28908 2809 2096784 1.246320421675 99.94633080558 988 6 6 5928 35568
138	3469694 41682 2933 2096938 1.248212521744 99.948223023661 988 0.099988760032 0.100009001349 98.800003503301 9.8800007419593
139	3511376 29921 2933 2096938 1.248212521744 99.948223023661 988 11 11 10868 119548
140	3541297 41656 3070 2097039 1.253003541758 99.953001082327 988 0.099993001349 0.100007375561 98.800003541953 9.880000749347
141	3582953 29917 3070 2097039 1.253003541758 99.953001082327 988 12 12 11856 142272
142	3612870 41646 3200 2097181 1.256455621813 99.956453194732 988 0.099988910574 0.10000736771 98.799990574303 9.8799981563042
143	3654516 28928 3200 2097181 1.256455621813 99.956453194732 988 8 8 7904 63232
144	3683444 41654 3331 2097318 1.266277721882 99.966275406128 988 0.099988583469 0.100007378307 98.80000368563 9.8800007783308
145	3725098 29910 3331 2097318 1.266277721882 99.966275406128 988 13 13 12844 166972
146	3755008 41646 3463 2097450 1.283756902007 99.98376765461 988 0.09998904087 0.100009001349 98.800003753987 9.8800007920951
147	3796654 28915 3463 2097450 1.283756902007 99.98376765461 988 4 4 3952 15808
148	3825569 41669 3593 2097574 1.284244922021 99.984255735295 988 0.09998904087 0.100009001349 98.800003814658 9.8800008042292
149	3867238 28922 3593 2097574 1.284244922021 99.984255735295 988 3 3 2964 8892
150	3896160 41667 3854 2097841 1.292124402353 99.992122408634 988 0.099993001349 0.100007378139 98.800004007665 9.8800008424879
151	3937827 28924 3854 2097841 1.292124402353 99.992122408634 988 5 5 4940 24700
152	3966751 41636 3978 2097953 1.296343482408 99.996354600717 988 0.099988761041 0.100009001349 98.800004119693 9.8800008651157
153	4008387 28911 3978 2097953 1.296343482408 99.996354600717 988 1 1 988 988
154	4037298 41636 3978 2097953 1.296343482408 99.996354600717 988 0.099988761041 0.100009001349 98.800004119693 9.8800008651157
155	4078934 28911 3978 2097953 1.296343482408 99.996354600717 988 1 1 988 988
156	4107845 41683 3984 2097959 1.296343502422 99.996354704511 988 0.099988761046 0.100009001349 98.800004203473 9.8800008818717
157	4149528 28933 3984 2097959 1.296343502422 99.996354704511 988 2 2 1976 3952
158	4178461 41652 3990 2097977 1.296343522435 99.996354777879 988 0.099988761053 0.100009001349 98.800004256827 9.8800008925425
159	4220113 28921 3990 2097977 1.296343522435 99.996354777879 988 3 3 2964 8892
160	4249034 41620 3996 2097989 1.296343542449 99.996354843882 988 0.099988761065 0.100009001349 98.800004302817 9.8800009017405
161	4290654 28906 3996 2097989 1.296343542449 99.996354843882 988 4 4 3952 15808
162	4319560 41644 4002 2097971 1.296343562463 99.996354775242 988 0.099988761079 0.100009001349 98.800004214163 9.8800008840098
163	4361204 28915 4002 2097971 1.296343562463 99.996354775242 988 5 5 4940 24700
164	4390119 41673 4008 2097965 1.296343582477 99.996354740564 988 0.099988761097 0.10000900135 98.800004159471 9.8800008730713
165	4431792 28927 4008 2097965 1.296343582477 99.996354740564 988 6 6 5928 35568
166	4460719 41669 4014 2098007 1.296343602491 99.996354926195 988 0.099988761119 0.100009001349 98.800004325088 9.8800009061948
167	4502388 28921 4014 2098007 1.296343602491 99.996354926195 988 7 7 6916 48412
168	4531309 41680 4020 2097995 1.296343622505 99.996354854464 988 0.099988761144 0.100009001349 98.800004233343 9.8800008878457
169	4572989 28939 4020 2097995 1.296343622505 99.996354854464 988 8 8 7904 63232
170	4601928 41638 4026 2097983 1.296343642519 99.996354830615 988 0.09998876117 0.100009001349 98.80000418948 9.8800008790731
171	4643566 28915 4026 2097983 1.296343642519 99.996354830615 988 9 9 8892 80028
172	4672481 41668 4032 2098001 1.296343662532 99.99635491529 988 0.099988761197 0.100009001349 98.800004254142 9.8800008920055
173	4714149 29918 4032 2098001 1.296343662532 99.99635491529 988 10 10 9880 98800
174	4744067 41653 4038 2098019 1.296343682546 99.996355025498 988 0.099988761225 0.100009001349 98.800004344336 9.8800009100443
175	4785720 29904 4038 2098019 1.296343682546 99.996355025498 988 11 11 10868 119548
176	4815624 41659 4044 2098025 1.29634370256 99.996355084568 988 0.099988761252 0.100009001349 98.800004383392 9.8800009178556
177	4857283 29906 4044 2098025 1.29634370256 99.996355084568 988 12 12 11856 142272
178	4887189 41684 4050 2098013 1.296343722574 99.996354965826 988 0.099988761278 0.10000900135 98.800004244636 9.8800008901043
179	4928873 29924 4050 2098013 1.296343722574 99.996354965826 988 13 13 12844 166972
180	4958797 41661 4056 2098031 1.296343742588 99.99635508989 988 0.099988761301 0.100009001349 98.800004348686 9.8800009109143
181	5000458 29916 4056 2098031 1.296343742588 99.99635508989 988 14 14 13832 193648
182	5030374 41656 4062 2098037 1.296343762602 99.996355110537 988 0.099988761323 0.100009001349 98.800004349319 9.8800009110409
183	5072030 29909 4062 2098037 1.296343762602 99.996355110537 988 15 15 14820 222300
184	5101939 41598 4115 2095984 1.303240642519 99.903244500796 987 0.099777394466 0.100215875553 98.700009859661 9.8700021091807
185	5143537 28896 4115 2095984 1.303240642519 99.903244500796 987 9 9 8883 79947
186	5172433 41604 4245 2096114 1.305925762602 99.905929724298 987 0.099989704708 0.100007371033 98.69999696308 9.8699994338695
187	5214037 29867 4245 2096114 1.305925762602 99.905929724298 987 15 15 14805 222075
188	5243904 1625 18806 2098039 2 100 99 0 0 0 0
189	5245529 2242 18806 2098039 2 100 99 0.044313 0.052257198568 4.941845198568 0.24672243567618
190	5247771 1625 18806 2098039 2 100 99 0 0 0 0
191	5249396 1625 18807 2098040 2 100 99 1 1 99 99
192	5251021 2242 18807 2098040 2 100 99 0.044313 0.051754 4.940926059378 0.24662845527271
193	5253263 1625 18807 2098040 2 100 99 0 0 0 0
194	5254888 1724 18808 2098041 2 100 99 10 10 990 9900
195	5256612 2242 18808 2098041 2 100 99 0.044313 0.051754 4.940926598566 0.24662850927274
196	5258854 1625 18808 2098041 2 100 99 0 0 0 0
197	5260479 1724 18809 2098042 2 100 99 11 11 1089 11979
198	5262203 2241 18809 2098042 2 100 99 0.044313 0.051754 4.94092665854 0.24662851527922
199	5264444 1625 18809 2098042 2 100 99 0 0 0 0
200	5266069 1724 18810 2098043 2 100 99 12 12 1188 14256
201	5267793 2242 18810 2098043 2 100 99 0.044313 0.051754 4.940926718506 0.24662852128489
202	5270035 1625 18810 2098043 2 100 99 0 0 0 0
203	5271660 1724 18811 2098044 2 100 99 13 13 1287 16731
204	5273384 2242 18811 2098044 2 100 99 0.044313 0.051754 4.940926778484 0.24662852729178
205	5275626 1625 18811 2098044 2 100 99 0 0 0 0
206	5277251 1724 18812 2098045 2 100 99 14 14 1386 19404
207	5278975 2242 18812 2098045 2 100 99 0.044312 0.051754 4.940925838472 0.24662844467467
208	5281217 1625 18812 2098045 2 100 99 0 0 0 0
209	5282842 1724 18813 2098046 2 100 99 15 15 1485 22275
210	5284566 2241 18813 2098046 2 100 99 0.044313 0.05178789845 4.94092689845 0.24662865537487
211	5286807 1625 18813 2098046 2 100 99 0 0 0 0
212	5288432 1625 18814 2098047 2 100 99 2 2 198 396
213	5290057 2241 18814 2098047 2 100 99 0.044313 0.051754 4.94092611912 0.24662846125588
214	5292298 1625 18814 2098047 2 100 99 0 0 0 0
215	5293923 1625 18815 2098048 2 100 99 3 3 297 891
216	5295548 2242 18815 2098048 2 100 99 0.044313 0.051754 4.940926178972 0.24662846725008
217	5297790 1625 18815 2098048 2 100 99 0 0 0 0
218	5299415 1625 18816 2098049 2 100 99 4 4 396 1584
219	5301040 2242 18816 2098049 2 100 99 0.044313 0.051754 4.940926238882 0.24662847325009
220	5303282 1625 18816 2098049 2 100 99 0 0 0 0
221	5304907 1625 18817 2098050 2 100 99 5 5 495 2475
222	5306532 2240 18817 2098050 2 100 99 0.044313 0.051754 4.9409262988 0.24662847925091
223	5308772 1625 18817 2098050 2 100 99 0 0 0 0
224	5310397 1625 18818 2098051 2 100 99 6 6 594 3564
225	5312022 2242 18818 2098051 2 100 99 0.044313 0.051754 4.940926358738 0.24662848525374
226	5314264 1625 18818 2098051 2 100 99 0 0 0 0
227	5315889 1625 18819 2098052 2 100 99 7 7 693 4851
228	5317514 2241 18819 2098052 2 100 99 0.044313 0.051754 4.94092641869 0.24662849125798
229	5319755 1625 18819 2098052 2 100 99 0 0 0 0
230	5321380 1625 18820 2098053 2 100 99 8 8 792 6336
231	5323005 2241 18820 2098053 2 100 99 0.044312 0.051754 4.94092547863 0.24662840863602
232	5325246 1625 18820 2098053 2 100 99 0 0 0 0
233	5326871 1625 18821 2098054 2 100 99 9 9 891 8019
234	5328496 2242 18821 2098054 2 100 99 0.044313 0.051754 4.940926538608 0.24662850326788
235	5330738 1625 18821 2098054 2 100 99 0 0 0 0

