version 3
run BreakRanksNoGui-816-20240711-14:22:05-290732
attr configname BreakRanksNoGui
attr datetime 20240711-14:22:05
attr datetimef 20240711-142205
attr experiment BreakRanksNoGui
attr inifile omnetpp.ini
attr iterationvars "$nCars=9, $platoonSize=9, $nLanes=1, $ploegH=0.5, $controller=1, $headway=0.1, $leaderHeadway=1.2, $leaderSpeed=130, $breakRanksSafetyDistance=3, $minSpeed=120, $maxSpeed=140, $beaconInterval=0.1, $priority=4, $packetSize=200, $sController=\"CACC\", $0=2, $1=0"
attr iterationvarsd nCars=9/platoonSize=9/nLanes=1/ploegH=0.5/controller=1/headway=0.1/leaderHeadway=1.2/leaderSpeed=130/breakRanksSafetyDistance=3/minSpeed=120/maxSpeed=140/beaconInterval=0.1/priority=4/packetSize=200/sController=CACC/2/0
attr iterationvarsf nCars=9,platoonSize=9,nLanes=1,ploegH=0.5,controller=1,headway=0.1,leaderHeadway=1.2,leaderSpeed=130,breakRanksSafetyDistance=3,minSpeed=120,maxSpeed=140,beaconInterval=0.1,priority=4,packetSize=200,sController=CACC,2,0-
attr measurement "$nCars=9, $platoonSize=9, $nLanes=1, $ploegH=0.5, $controller=1, $headway=0.1, $leaderHeadway=1.2, $leaderSpeed=130, $breakRanksSafetyDistance=3, $minSpeed=120, $maxSpeed=140, $beaconInterval=0.1, $priority=4, $packetSize=200, $sController=\"CACC\", $0=2, $1=0"
attr network Highway
attr processid 290732
attr repetition 6
attr replication #6
attr resultdir results
attr runnumber 816
attr seedset 6
itervar beaconInterval 0.1
itervar breakRanksSafetyDistance 3
itervar controller 1
itervar headway 0.1
itervar leaderHeadway 1.2
itervar leaderSpeed 130
itervar maxSpeed 140
itervar minSpeed 120
itervar nCars 9
itervar nLanes 1
itervar packetSize 200
itervar platoonSize 9
itervar ploegH 0.5
itervar priority 4
itervar sController "\"CACC\""
config image-path ../../../veins/images
config repeat 10
config extends BreakRanks
config *.manager.command "\"sumo\""
config *.manager.ignoreGuiCommands true
config output-vector-file "results/BreakRanks_1_0.1_130_3_9 /result_6.vec"
config output-scalar-file "results/BreakRanks_1_0.1_130_3_9 /result_6.sca"
config extends Platooning
config *.node[*].scenario_type "\"BreakRanksScenario\""
config *.manager.command "\"sumo-gui\""
config *.node[*].scenario_type "\"SimpleScenario\""
config cmdenv-express-mode true
config cmdenv-autoflush true
config cmdenv-status-frequency 15s
config num-rngs 6
config network Highway
config debug-on-errors true
config print-undisposed true
config *.playgroundSizeX 65000m
config *.playgroundSizeY 25000m
config *.playgroundSizeZ 50m
config sim-time-limit "100 s"
config *.annotations.draw false
config *.obstacles.debug false
config *.world.useTorus false
config *.world.use2D false
config *.manager.updateInterval 0.01s
config *.manager.host "\"localhost\""
config *.manager.moduleType "\"org.car2x.plexe.PlatoonCar\""
config *.manager.moduleName "\"node\""
config *.manager.moduleDisplayString "\"\""
config *.manager.autoShutdown true
config *.manager.margin 25
config *.connectionManager.sendDirect true
config *.connectionManager.maxInterfDist 2600m
config *.connectionManager.drawMaxIntfDist false
config *.**.nic.mac1609_4.useServiceChannel false
config *.**.nic.mac1609_4.txPower 100mW
config *.**.nic.mac1609_4.bitrate 6Mbps
config *.**.nic.mac1609_4.useAcks true
config *.**.nic.mac1609_4.ackErrorRate 0.0
config *.**.nic.mac1609_4.frameErrorRate 0.0
config *.**.nic.phy80211p.minPowerLevel -94dBm
config *.**.nic.phy80211p.maxTXPower 100mW
config *.**.nic.phy80211p.useNoiseFloor true
config *.**.nic.phy80211p.noiseFloor -95dBm
config *.**.nic.phy80211p.decider "xmldoc(\"config.xml\")"
config *.**.nic.phy80211p.analogueModels "xmldoc(\"config.xml\")"
config *.**.nic.phy80211p.usePropagationDelay true
config *.node[*].mobility.x 0
config *.node[*].mobility.y 0
config *.node[*].mobility.z 1.895
config seed-set 6
config **.seed 6
config *.node[*].prot.rng-0 2
config *.node[*].appl.rng-0 3
config *.node[*].scenario.rng-0 4
config **.traffic.rng-0 5
config *.manager.configFile "\"./sumocfg/freeway.sumo.cfg\""
config *.manager.launchConfig "xmldoc(\"./sumocfg/freeway.launchd.xml\")"
config **.numberOfCars 9
config **.numberOfCarsPerPlatoon 9
config **.numberOfLanes 1
config *.node[*].helper_type "\"PositionHelper\""
config *.node[*].scenario.caccC1 0.5
config *.node[*].scenario.caccXi 1
config *.node[*].scenario.caccOmegaN "0.2 Hz"
config *.node[*].scenario.caccSpacing "2 m"
config *.node[*].scenario.engineTau "0.5 s"
config *.node[*].scenario.ploegH 0.5s
config *.node[*].scenario.ploegKp 0.2
config *.node[*].scenario.ploegKd 0.7
config *.node[*].scenario.useRealisticEngine false
config *.node[*].scenario.useControllerAcceleration true
config *.node[*].scenario.nLanes 1
config **.numericController 1
config **.headway 0.1s
config *.node[*].scenario.accHeadway 0.1s
config *.node[*].scenario.leaderHeadway 1.2s
config *.node[*].scenario.leaderSpeed 130kmph
config *.node[*].appl_type "\"SimplePlatooningApp\""
config *.node[*].appl.*.scalar-recording true
config *.node[*].appl.*.vector-recording true
config *.node[0].appl.breakRanksSafetyDistance 3m
config *.node[*].appl.minSpeed 120kmph
config *.node[*].appl.maxSpeed 140kmph
config *.node[*].protocol_type "\"SimplePlatooningBeaconing\""
config *.node[*].prot.*.scalar-recording true
config *.node[*].prot.*.vector-recording true
config *.node[*].prot.beaconingInterval 0.1s
config *.node[*].prot.priority 4
config *.node[*].prot.packetSize 200
config **.traffic_type "\"PlatoonsTrafficManager\""
config **.traffic.platoonInsertTime "1 s"
config **.traffic.platoonInsertSpeed 130kmph
config **.traffic.nCars 9
config **.traffic.platoonSize 9
config **.traffic.nLanes 1
config **.traffic.platooningVType "\"vtypeauto\""
config **.traffic.controller "\"CACC\""
config **.traffic.platoonInsertDistance 2m
config **.traffic.platoonInsertHeadway 0s
config **.traffic.platoonLeaderHeadway 1.2s
config **.scalar-recording false
config **.vector-recording false

vector 0 Highway.node[0].appl distance ETV
vector 1 Highway.node[0].appl relativeSpeed ETV
vector 2 Highway.node[0].appl nodeId ETV
vector 3 Highway.node[0].appl acceleration ETV
vector 4 Highway.node[0].appl controllerAcceleration ETV
vector 5 Highway.node[0].appl speed ETV
vector 6 Highway.node[0].appl posx ETV
vector 7 Highway.node[0].appl posy ETV
vector 8 Highway.node[1].appl distance ETV
vector 9 Highway.node[1].appl relativeSpeed ETV
vector 10 Highway.node[1].appl nodeId ETV
vector 11 Highway.node[1].appl acceleration ETV
vector 12 Highway.node[1].appl controllerAcceleration ETV
vector 13 Highway.node[1].appl speed ETV
vector 14 Highway.node[1].appl posx ETV
vector 15 Highway.node[1].appl posy ETV
vector 16 Highway.node[2].appl distance ETV
vector 17 Highway.node[2].appl relativeSpeed ETV
vector 18 Highway.node[2].appl nodeId ETV
vector 19 Highway.node[2].appl acceleration ETV
vector 20 Highway.node[2].appl controllerAcceleration ETV
vector 21 Highway.node[2].appl speed ETV
vector 22 Highway.node[2].appl posx ETV
vector 23 Highway.node[2].appl posy ETV
vector 24 Highway.node[3].appl distance ETV
vector 25 Highway.node[3].appl relativeSpeed ETV
vector 26 Highway.node[3].appl nodeId ETV
vector 27 Highway.node[3].appl acceleration ETV
vector 28 Highway.node[3].appl controllerAcceleration ETV
vector 29 Highway.node[3].appl speed ETV
vector 30 Highway.node[3].appl posx ETV
vector 31 Highway.node[3].appl posy ETV
vector 32 Highway.node[4].appl distance ETV
vector 33 Highway.node[4].appl relativeSpeed ETV
vector 34 Highway.node[4].appl nodeId ETV
vector 35 Highway.node[4].appl acceleration ETV
vector 36 Highway.node[4].appl controllerAcceleration ETV
vector 37 Highway.node[4].appl speed ETV
vector 38 Highway.node[4].appl posx ETV
vector 39 Highway.node[4].appl posy ETV
vector 40 Highway.node[5].appl distance ETV
vector 41 Highway.node[5].appl relativeSpeed ETV
vector 42 Highway.node[5].appl nodeId ETV
vector 43 Highway.node[5].appl acceleration ETV
vector 44 Highway.node[5].appl controllerAcceleration ETV
vector 45 Highway.node[5].appl speed ETV
vector 46 Highway.node[5].appl posx ETV
vector 47 Highway.node[5].appl posy ETV
vector 48 Highway.node[6].appl distance ETV
vector 49 Highway.node[6].appl relativeSpeed ETV
vector 50 Highway.node[6].appl nodeId ETV
vector 51 Highway.node[6].appl acceleration ETV
vector 52 Highway.node[6].appl controllerAcceleration ETV
vector 53 Highway.node[6].appl speed ETV
vector 54 Highway.node[6].appl posx ETV
vector 55 Highway.node[6].appl posy ETV
vector 56 Highway.node[7].appl distance ETV
vector 57 Highway.node[7].appl relativeSpeed ETV
vector 58 Highway.node[7].appl nodeId ETV
vector 59 Highway.node[7].appl acceleration ETV
vector 60 Highway.node[7].appl controllerAcceleration ETV
vector 61 Highway.node[7].appl speed ETV
vector 62 Highway.node[7].appl posx ETV
vector 63 Highway.node[7].appl posy ETV
vector 64 Highway.node[8].appl distance ETV
vector 65 Highway.node[8].appl relativeSpeed ETV
vector 66 Highway.node[8].appl nodeId ETV
vector 67 Highway.node[8].appl acceleration ETV
vector 68 Highway.node[8].appl controllerAcceleration ETV
vector 69 Highway.node[8].appl speed ETV
vector 70 Highway.node[8].appl posx ETV
vector 71 Highway.node[8].appl posy ETV
vector 72 Highway.node[1].prot leaderDelay ETV
vector 73 Highway.node[1].prot leaderDelayId ETV
vector 74 Highway.node[1].prot frontDelay ETV
vector 75 Highway.node[1].prot frontDelayId ETV
vector 76 Highway.node[2].prot leaderDelay ETV
vector 77 Highway.node[2].prot leaderDelayId ETV
vector 78 Highway.node[3].prot leaderDelay ETV
vector 79 Highway.node[3].prot leaderDelayId ETV
vector 80 Highway.node[4].prot leaderDelay ETV
vector 81 Highway.node[4].prot leaderDelayId ETV
vector 82 Highway.node[5].prot leaderDelay ETV
vector 83 Highway.node[5].prot leaderDelayId ETV
vector 84 Highway.node[6].prot leaderDelay ETV
vector 85 Highway.node[6].prot leaderDelayId ETV
vector 86 Highway.node[7].prot leaderDelay ETV
vector 87 Highway.node[7].prot leaderDelayId ETV
vector 88 Highway.node[8].prot leaderDelay ETV
vector 89 Highway.node[8].prot leaderDelayId ETV
vector 90 Highway.node[8].prot frontDelay ETV
vector 91 Highway.node[8].prot frontDelayId ETV
vector 92 Highway.node[7].prot frontDelay ETV
vector 93 Highway.node[7].prot frontDelayId ETV
vector 94 Highway.node[3].prot frontDelay ETV
vector 95 Highway.node[3].prot frontDelayId ETV
vector 96 Highway.node[6].prot frontDelay ETV
vector 97 Highway.node[6].prot frontDelayId ETV
vector 98 Highway.node[2].prot frontDelay ETV
vector 99 Highway.node[2].prot frontDelayId ETV
vector 100 Highway.node[4].prot frontDelay ETV
vector 101 Highway.node[4].prot frontDelayId ETV
vector 102 Highway.node[5].prot frontDelay ETV
vector 103 Highway.node[5].prot frontDelayId ETV
vector 104 Highway.node[0].prot nodeId ETV
vector 105 Highway.node[0].prot busyTime ETV
vector 106 Highway.node[0].prot collisions ETV
vector 107 Highway.node[1].prot nodeId ETV
vector 108 Highway.node[1].prot busyTime ETV
vector 109 Highway.node[1].prot collisions ETV
vector 110 Highway.node[2].prot nodeId ETV
vector 111 Highway.node[2].prot busyTime ETV
vector 112 Highway.node[2].prot collisions ETV
vector 113 Highway.node[3].prot nodeId ETV
vector 114 Highway.node[3].prot busyTime ETV
vector 115 Highway.node[3].prot collisions ETV
vector 116 Highway.node[4].prot nodeId ETV
vector 117 Highway.node[4].prot busyTime ETV
vector 118 Highway.node[4].prot collisions ETV
vector 119 Highway.node[5].prot nodeId ETV
vector 120 Highway.node[5].prot busyTime ETV
vector 121 Highway.node[5].prot collisions ETV
vector 122 Highway.node[6].prot nodeId ETV
vector 123 Highway.node[6].prot busyTime ETV
vector 124 Highway.node[6].prot collisions ETV
vector 125 Highway.node[7].prot nodeId ETV
vector 126 Highway.node[7].prot busyTime ETV
vector 127 Highway.node[7].prot collisions ETV
vector 128 Highway.node[8].prot nodeId ETV
vector 129 Highway.node[8].prot busyTime ETV
vector 130 Highway.node[8].prot collisions ETV
0	113	1.11	-1
0	798	1.21	-1
0	1483	1.31	-1
0	2168	1.41	-1
0	2853	1.51	-1
0	3538	1.61	-1
0	4223	1.71	-1
0	4908	1.81	-1
0	5593	1.91	-1
0	6287	2.01	-1
0	6972	2.11	-1
0	7657	2.21	-1
0	8342	2.31	-1
0	9027	2.41	-1
0	9712	2.51	-1
0	10397	2.61	-1
0	11082	2.71	-1
0	11767	2.81	-1
0	12452	2.91	-1
0	13146	3.01	-1
0	13831	3.11	-1
0	14516	3.21	-1
0	15201	3.31	-1
0	15886	3.41	-1
0	16571	3.51	-1
0	17256	3.61	-1
0	17941	3.71	-1
0	18626	3.81	-1
0	19311	3.91	-1
0	20005	4.01	-1
0	20690	4.11	-1
0	21375	4.21	-1
0	22060	4.31	-1
0	22745	4.41	-1
0	23430	4.51	-1
0	24115	4.61	-1
0	24800	4.71	-1
0	25485	4.81	-1
0	26170	4.91	-1
0	26864	5.01	-1
0	27549	5.11	-1
0	28234	5.21	-1
0	28919	5.31	-1
0	29604	5.41	-1
0	30289	5.51	-1
0	30974	5.61	-1
0	31659	5.71	-1
0	32344	5.81	-1
0	33029	5.91	-1
0	33723	6.01	-1
0	34408	6.11	-1
0	35093	6.21	-1
0	35778	6.31	-1
0	36463	6.41	-1
0	37148	6.51	-1
0	37833	6.61	-1
0	38518	6.71	-1
0	39203	6.81	-1
0	39888	6.91	-1
0	40582	7.01	-1
0	41267	7.11	-1
0	41952	7.21	-1
0	42637	7.31	-1
0	43322	7.41	-1
0	44007	7.51	-1
0	44692	7.61	-1
0	45377	7.71	-1
0	46062	7.81	-1
0	46747	7.91	-1
0	47441	8.01	-1
0	48126	8.11	-1
0	48811	8.21	-1
0	49496	8.31	-1
0	50181	8.41	-1
0	50866	8.51	-1
0	51551	8.61	-1
0	52236	8.71	-1
0	52921	8.81	-1
0	53606	8.91	-1
0	54300	9.01	-1
0	54985	9.11	-1
0	55670	9.21	-1
0	56355	9.31	-1
0	57040	9.41	-1
0	57725	9.51	-1
0	58410	9.61	-1
0	59095	9.71	-1
0	59780	9.81	-1
0	60465	9.91	-1
0	61242	10.01	-1
0	61935	10.11	-1
0	62628	10.21	-1
0	63321	10.31	-1
0	64014	10.41	-1
0	64707	10.51	-1
0	65400	10.61	-1
0	66093	10.71	-1
0	66786	10.81	-1
0	67479	10.91	-1
0	68181	11.01	-1
0	68874	11.11	-1
0	69567	11.21	-1
0	70260	11.31	-1
0	70953	11.41	-1
0	71646	11.51	-1
0	72339	11.61	-1
0	73032	11.71	-1
0	73725	11.81	-1
0	74418	11.91	-1
0	75120	12.01	-1
0	75813	12.11	-1
0	76506	12.21	-1
0	77199	12.31	-1
0	77892	12.41	-1
0	78585	12.51	-1
0	79278	12.61	-1
0	79971	12.71	-1
0	80664	12.81	-1
0	81357	12.91	-1
0	82059	13.01	-1
0	82752	13.11	-1
0	83445	13.21	-1
0	84138	13.31	-1
0	84831	13.41	-1
0	85524	13.51	-1
0	86217	13.61	-1
0	86910	13.71	-1
0	87603	13.81	-1
0	88296	13.91	-1
0	88998	14.01	-1
0	89691	14.11	-1
0	90384	14.21	-1
0	91077	14.31	-1
0	91770	14.41	-1
0	92463	14.51	-1
0	93156	14.61	-1
0	93849	14.71	-1
0	94542	14.81	-1
0	95235	14.91	-1
0	95937	15.01	-1
0	96630	15.11	-1
0	97323	15.21	-1
0	98016	15.31	-1
0	98709	15.41	-1
0	99402	15.51	-1
0	100095	15.61	-1
0	100788	15.71	-1
0	101481	15.81	-1
0	102174	15.91	-1
0	102876	16.01	-1
0	103569	16.11	-1
0	104262	16.21	-1
0	104955	16.31	-1
0	105648	16.41	-1
0	106341	16.51	-1
0	107034	16.61	-1
0	107727	16.71	-1
0	108420	16.81	-1
0	109113	16.91	-1
0	109815	17.01	-1
0	110508	17.11	-1
0	111201	17.21	-1
0	111894	17.31	-1
0	112587	17.41	-1
0	113280	17.51	-1
0	113973	17.61	-1
0	114666	17.71	-1
0	115359	17.81	-1
0	116052	17.91	-1
0	116754	18.01	-1
0	117447	18.11	-1
0	118140	18.21	-1
0	118833	18.31	-1
0	119526	18.41	-1
0	120219	18.51	-1
0	120912	18.61	-1
0	121605	18.71	-1
0	122298	18.81	-1
0	122991	18.91	-1
0	123693	19.01	-1
0	124386	19.11	-1
0	125079	19.21	-1
0	125772	19.31	-1
0	126465	19.41	-1
0	127158	19.51	-1
0	127851	19.61	-1
0	128544	19.71	-1
0	129237	19.81	-1
0	129930	19.91	-1
0	130632	20.01	-1
0	131325	20.11	-1
0	132018	20.21	-1
0	132711	20.31	-1
0	133404	20.41	-1
0	134097	20.51	-1
0	134790	20.61	-1
0	135483	20.71	-1
0	136176	20.81	-1
0	136869	20.91	-1
0	137571	21.01	-1
0	138264	21.11	-1
0	138957	21.21	-1
0	139650	21.31	-1
0	140343	21.41	-1
0	141036	21.51	-1
0	141729	21.61	-1
0	142422	21.71	-1
0	143115	21.81	-1
0	143808	21.91	-1
0	144510	22.01	-1
0	145203	22.11	-1
0	145896	22.21	-1
0	146589	22.31	-1
0	147282	22.41	-1
0	147975	22.51	-1
0	148668	22.61	-1
0	149361	22.71	-1
0	150054	22.81	-1
0	150747	22.91	-1
0	151449	23.01	-1
0	152142	23.11	-1
0	152835	23.21	-1
0	153528	23.31	-1
0	154221	23.41	-1
0	154914	23.51	-1
0	155607	23.61	-1
0	156300	23.71	-1
0	156993	23.81	-1
0	157686	23.91	-1
0	158388	24.01	-1
0	159081	24.11	-1
0	159774	24.21	-1
0	160467	24.31	-1
0	161160	24.41	-1
0	161853	24.51	-1
0	162546	24.61	-1
0	163239	24.71	-1
0	163932	24.81	-1
0	164625	24.91	-1
0	165327	25.01	-1
0	166020	25.11	-1
0	166713	25.21	-1
0	167406	25.31	-1
0	168099	25.41	-1
0	168792	25.51	-1
0	169485	25.61	-1
0	170178	25.71	-1
0	170871	25.81	-1
0	171564	25.91	-1
0	172266	26.01	-1
0	172959	26.11	-1
0	173652	26.21	-1
0	174345	26.31	-1
0	175038	26.41	-1
0	175731	26.51	-1
0	176424	26.61	-1
0	177117	26.71	-1
0	177810	26.81	-1
0	178503	26.91	-1
0	179205	27.01	-1
0	179898	27.11	-1
0	180591	27.21	-1
0	181284	27.31	-1
0	181977	27.41	-1
0	182670	27.51	-1
0	183363	27.61	-1
0	184056	27.71	-1
0	184749	27.81	-1
0	185442	27.91	-1
0	186144	28.01	-1
0	186837	28.11	-1
0	187530	28.21	-1
0	188223	28.31	-1
0	188916	28.41	-1
0	189609	28.51	-1
0	190302	28.61	-1
0	190995	28.71	-1
0	191688	28.81	-1
0	192381	28.91	-1
0	193083	29.01	-1
0	193776	29.11	-1
0	194469	29.21	-1
0	195265	29.31	-1
0	195957	29.41	-1
0	196649	29.51	-1
0	197341	29.61	-1
0	198033	29.71	-1
0	198725	29.81	-1
0	199417	29.91	-1
0	200118	30.01	-1
0	200810	30.11	-1
0	201502	30.21	-1
0	202194	30.31	-1
0	202886	30.41	-1
0	203578	30.51	-1
0	204270	30.61	-1
0	204962	30.71	-1
0	205654	30.81	-1
0	206346	30.91	-1
0	207047	31.01	-1
0	207739	31.11	-1
0	208431	31.21	-1
0	209123	31.31	-1
0	209815	31.41	-1
0	210507	31.51	-1
0	211199	31.61	-1
0	211891	31.71	-1
0	212583	31.81	-1
0	213275	31.91	-1
0	213976	32.01	-1
0	214668	32.11	-1
0	215360	32.21	-1
0	216052	32.31	-1
0	216744	32.41	-1
0	217436	32.51	-1
0	218128	32.61	-1
0	218820	32.71	-1
0	219512	32.81	-1
0	220204	32.91	-1
0	220905	33.01	-1
0	221597	33.11	-1
0	222289	33.21	-1
0	222981	33.31	-1
0	223673	33.41	-1
0	224468	33.51	-1
0	225159	33.61	-1
0	225850	33.71	-1
0	226541	33.81	-1
0	227232	33.91	-1
0	227932	34.01	-1
0	228623	34.11	-1
0	229314	34.21	-1
0	230005	34.31	-1
0	230696	34.41	-1
0	231387	34.51	-1
0	232078	34.61	-1
0	232769	34.71	-1
0	233460	34.81	-1
0	234151	34.91	-1
0	234851	35.01	-1
0	235542	35.11	-1
0	236233	35.21	-1
0	236924	35.31	-1
0	237615	35.41	-1
0	238306	35.51	-1
0	238997	35.61	-1
0	239688	35.71	-1
0	240379	35.81	-1
0	241070	35.91	-1
0	241770	36.01	-1
0	242461	36.11	-1
0	243152	36.21	-1
0	243843	36.31	-1
0	244534	36.41	-1
0	245225	36.51	-1
0	245916	36.61	-1
0	246607	36.71	-1
0	247298	36.81	-1
0	247989	36.91	-1
0	248689	37.01	-1
0	249380	37.11	-1
0	250071	37.21	-1
0	250762	37.31	-1
0	251453	37.41	-1
0	252247	37.51	-1
0	252937	37.61	-1
0	253627	37.71	-1
0	254317	37.81	-1
0	255007	37.91	-1
0	255706	38.01	-1
0	256396	38.11	-1
0	257086	38.21	-1
0	257776	38.31	-1
0	258466	38.41	-1
0	259156	38.51	-1
0	259846	38.61	-1
0	260536	38.71	-1
0	261226	38.81	-1
0	261916	38.91	-1
0	262615	39.01	-1
0	263305	39.11	-1
0	263995	39.21	-1
0	264685	39.31	-1
0	265375	39.41	-1
0	266065	39.51	-1
0	266755	39.61	-1
0	267445	39.71	-1
0	268135	39.81	-1
0	268825	39.91	-1
0	269524	40.01	-1
0	270214	40.11	-1
0	270904	40.21	-1
0	271594	40.31	-1
0	272284	40.41	-1
0	272974	40.51	-1
0	273664	40.61	-1
0	274354	40.71	-1
0	275044	40.81	-1
0	275734	40.91	-1
0	276433	41.01	-1
0	277123	41.11	-1
0	277813	41.21	-1
0	278606	41.31	-1
0	279295	41.41	-1
0	279984	41.51	-1
0	280673	41.61	-1
0	281362	41.71	-1
0	282051	41.81	-1
0	282740	41.91	-1
0	283438	42.01	-1
0	284127	42.11	-1
0	284816	42.21	-1
0	285505	42.31	-1
0	286194	42.41	-1
0	286883	42.51	-1
0	287572	42.61	-1
0	288261	42.71	-1
0	288950	42.81	-1
0	289639	42.91	-1
0	290337	43.01	-1
0	291026	43.11	-1
0	291715	43.21	-1
0	292404	43.31	-1
0	293093	43.41	-1
0	293782	43.51	-1
0	294471	43.61	-1
0	295160	43.71	-1
0	295849	43.81	-1
0	296538	43.91	-1
0	297236	44.01	-1
0	297925	44.11	-1
0	298614	44.21	-1
0	299303	44.31	-1
0	299992	44.41	-1
0	300681	44.51	-1
0	301370	44.61	-1
0	302059	44.71	-1
0	302748	44.81	-1
0	303437	44.91	-1
0	304238	45.01	-1
0	304926	45.11	-1
0	305614	45.21	-1
0	306302	45.31	-1
0	306990	45.41	-1
0	307678	45.51	-1
0	308366	45.61	-1
0	309054	45.71	-1
0	309742	45.81	-1
0	310430	45.91	-1
0	311127	46.01	-1
0	311815	46.11	-1
0	312503	46.21	-1
0	313191	46.31	-1
0	313879	46.41	-1
0	314567	46.51	-1
0	315255	46.61	-1
0	315943	46.71	-1
0	316631	46.81	-1
0	317319	46.91	-1
0	318016	47.01	-1
0	318704	47.11	-1
0	319392	47.21	-1
0	320080	47.31	-1
0	320768	47.41	-1
0	321456	47.51	-1
0	322144	47.61	-1
0	322832	47.71	-1
0	323520	47.81	-1
0	324208	47.91	-1
0	324905	48.01	-1
0	325593	48.11	-1
0	326281	48.21	-1
0	326969	48.31	-1
0	327657	48.41	-1
0	328345	48.51	-1
0	329136	48.61	-1
0	329823	48.71	-1
0	330510	48.81	-1
0	331197	48.91	-1
0	331893	49.01	-1
0	332580	49.11	-1
0	333267	49.21	-1
0	333954	49.31	-1
0	334641	49.41	-1
0	335328	49.51	-1
0	336015	49.61	-1
0	336702	49.71	-1
0	337389	49.81	-1
0	338076	49.91	-1
0	338772	50.01	-1
0	339459	50.11	-1
0	340146	50.21	-1
0	340833	50.31	-1
0	341520	50.41	-1
0	342207	50.51	-1
0	342894	50.61	-1
0	343581	50.71	-1
0	344268	50.81	-1
0	344955	50.91	-1
0	345651	51.01	-1
0	346338	51.11	-1
0	347025	51.21	-1
0	347712	51.31	-1
0	348399	51.41	-1
0	349086	51.51	-1
0	349773	51.61	-1
0	350460	51.71	-1
0	351147	51.81	-1
0	351834	51.91	-1
0	352530	52.01	-1
0	353320	52.11	-1
0	354006	52.21	-1
0	354692	52.31	-1
0	355378	52.41	-1
0	356064	52.51	-1
0	356750	52.61	-1
0	357436	52.71	-1
0	358122	52.81	-1
0	358808	52.91	-1
0	359503	53.01	-1
0	360189	53.11	-1
0	360875	53.21	-1
0	361561	53.31	-1
0	362247	53.41	-1
0	362933	53.51	-1
0	363619	53.61	-1
0	364305	53.71	-1
0	364991	53.81	-1
0	365677	53.91	-1
0	366372	54.01	-1
0	367058	54.11	-1
0	367744	54.21	-1
0	368430	54.31	-1
0	369116	54.41	-1
0	369802	54.51	-1
0	370488	54.61	-1
0	371174	54.71	-1
0	371860	54.81	-1
0	372546	54.91	-1
0	373241	55.01	-1
0	373927	55.11	-1
0	374613	55.21	-1
0	375299	55.31	-1
0	375985	55.41	-1
0	376671	55.51	-1
0	378308	55.61	-1
0	378993	55.71	-1
0	379678	55.81	-1
0	380363	55.91	-1
0	381057	56.01	-1
0	381742	56.11	-1
0	382427	56.21	-1
0	383112	56.31	-1
0	383797	56.41	-1
0	384482	56.51	-1
0	385167	56.61	-1
0	385852	56.71	-1
0	386537	56.81	-1
0	387222	56.91	-1
0	387916	57.01	-1
0	388601	57.11	-1
0	389286	57.21	-1
0	389971	57.31	-1
0	390656	57.41	-1
0	391341	57.51	-1
0	392026	57.61	-1
0	392711	57.71	-1
0	393396	57.81	-1
0	394081	57.91	-1
0	394775	58.01	-1
0	395460	58.11	-1
0	396145	58.21	-1
0	396830	58.31	-1
0	397515	58.41	-1
0	398200	58.51	-1
0	398885	58.61	-1
0	399570	58.71	-1
0	400255	58.81	-1
0	400940	58.91	-1
0	401634	59.01	-1
0	402319	59.11	-1
0	403004	59.21	-1
0	403689	59.31	-1
0	404374	59.41	-1
0	405059	59.51	-1
0	405744	59.61	-1
0	406429	59.71	-1
0	407114	59.81	-1
0	407799	59.91	-1
0	408493	60.01	-1
0	409178	60.11	-1
0	409863	60.21	-1
0	410548	60.31	-1
0	411233	60.41	-1
0	411918	60.51	-1
0	412603	60.61	-1
0	413288	60.71	-1
0	413973	60.81	-1
0	414658	60.91	-1
0	415352	61.01	-1
0	416037	61.11	-1
0	416722	61.21	-1
0	417407	61.31	-1
0	418092	61.41	-1
0	418777	61.51	-1
0	419462	61.61	-1
0	420147	61.71	-1
0	420832	61.81	-1
0	421517	61.91	-1
0	422211	62.01	-1
0	422896	62.11	-1
0	423581	62.21	-1
0	424266	62.31	-1
0	424951	62.41	-1
0	425636	62.51	-1
0	426321	62.61	-1
0	427006	62.71	-1
0	427691	62.81	-1
0	428376	62.91	-1
0	429070	63.01	-1
0	429755	63.11	-1
0	430440	63.21	-1
0	431125	63.31	-1
0	431810	63.41	-1
0	432495	63.51	-1
0	433180	63.61	-1
0	433865	63.71	-1
0	434550	63.81	-1
0	435235	63.91	-1
0	435929	64.01	-1
0	436614	64.11	-1
0	437299	64.21	-1
0	437984	64.31	-1
0	438669	64.41	-1
0	439354	64.51	-1
0	440039	64.61	-1
0	440724	64.71	-1
0	441409	64.81	-1
0	442094	64.91	-1
0	442788	65.01	-1
0	443473	65.11	-1
0	444158	65.21	-1
0	444843	65.31	-1
0	445528	65.41	-1
0	446213	65.51	-1
0	446898	65.61	-1
0	447583	65.71	-1
0	448268	65.81	-1
0	448953	65.91	-1
0	449647	66.01	-1
0	450332	66.11	-1
0	451017	66.21	-1
0	451702	66.31	-1
0	452387	66.41	-1
0	453072	66.51	-1
0	453757	66.61	-1
0	454442	66.71	-1
0	455127	66.81	-1
0	455812	66.91	-1
0	456506	67.01	-1
0	457191	67.11	-1
0	457876	67.21	-1
0	458561	67.31	-1
0	459246	67.41	-1
0	459931	67.51	-1
0	460616	67.61	-1
0	461301	67.71	-1
0	461986	67.81	-1
0	462671	67.91	-1
0	463365	68.01	-1
0	464050	68.11	-1
0	464735	68.21	-1
0	465420	68.31	-1
0	466105	68.41	-1
0	466790	68.51	-1
0	467475	68.61	-1
0	468160	68.71	-1
0	468845	68.81	-1
0	469530	68.91	-1
0	470224	69.01	-1
0	470909	69.11	-1
0	471594	69.21	-1
0	472279	69.31	-1
0	472964	69.41	-1
0	473649	69.51	-1
0	474334	69.61	-1
0	475019	69.71	-1
0	475704	69.81	-1
0	476389	69.91	-1
0	477083	70.01	-1
0	477768	70.11	-1
0	478453	70.21	-1
0	479138	70.31	-1
0	479823	70.41	-1
0	480508	70.51	-1
0	481193	70.61	-1
0	481878	70.71	-1
0	482563	70.81	-1
0	483248	70.91	-1
0	483942	71.01	-1
0	484627	71.11	-1
0	485312	71.21	-1
0	485997	71.31	-1
0	486682	71.41	-1
0	487367	71.51	-1
0	488052	71.61	-1
0	488737	71.71	-1
0	489422	71.81	-1
0	490107	71.91	-1
0	490801	72.01	-1
0	491486	72.11	-1
0	492171	72.21	-1
0	492856	72.31	-1
0	493541	72.41	-1
0	494226	72.51	-1
0	494911	72.61	-1
0	495596	72.71	-1
0	496281	72.81	-1
0	496966	72.91	-1
0	497660	73.01	-1
0	498345	73.11	-1
0	499030	73.21	-1
0	499715	73.31	-1
0	500400	73.41	-1
0	501085	73.51	-1
0	501770	73.61	-1
0	502455	73.71	-1
0	503140	73.81	-1
0	503825	73.91	-1
0	504519	74.01	-1
0	505204	74.11	-1
0	505889	74.21	-1
0	506574	74.31	-1
0	507259	74.41	-1
0	507944	74.51	-1
0	508629	74.61	-1
0	509314	74.71	-1
0	509999	74.81	-1
0	510684	74.91	-1
0	511378	75.01	-1
0	512063	75.11	-1
0	512748	75.21	-1
0	513433	75.31	-1
0	514118	75.41	-1
0	514803	75.51	-1
0	515488	75.61	-1
0	516173	75.71	-1
0	516858	75.81	-1
0	517543	75.91	-1
0	518237	76.01	-1
0	518922	76.11	-1
0	519607	76.21	-1
0	520292	76.31	-1
0	520977	76.41	-1
0	521662	76.51	-1
0	522347	76.61	-1
0	523032	76.71	-1
0	523717	76.81	-1
0	524402	76.91	-1
0	525096	77.01	-1
0	525781	77.11	-1
0	526466	77.21	-1
0	527151	77.31	-1
0	527836	77.41	-1
0	528521	77.51	-1
0	529206	77.61	-1
0	529891	77.71	-1
0	530576	77.81	-1
0	531261	77.91	-1
0	531955	78.01	-1
0	532640	78.11	-1
0	533325	78.21	-1
0	534010	78.31	-1
0	534695	78.41	-1
0	535380	78.51	-1
0	536065	78.61	-1
0	536750	78.71	-1
0	537435	78.81	-1
0	538120	78.91	-1
0	538814	79.01	-1
0	539499	79.11	-1
0	540184	79.21	-1
0	540869	79.31	-1
0	541554	79.41	-1
0	542239	79.51	-1
0	542924	79.61	-1
0	543609	79.71	-1
0	544294	79.81	-1
0	544979	79.91	-1
0	545673	80.01	-1
0	546358	80.11	-1
0	547043	80.21	-1
0	547728	80.31	-1
0	548413	80.41	-1
0	549098	80.51	-1
0	549783	80.61	-1
0	550468	80.71	-1
0	551153	80.81	-1
0	551838	80.91	-1
0	552532	81.01	-1
0	553217	81.11	-1
0	553902	81.21	-1
0	554587	81.31	-1
0	555272	81.41	-1
0	555957	81.51	-1
0	556642	81.61	-1
0	557327	81.71	-1
0	558012	81.81	-1
0	558697	81.91	-1
0	559391	82.01	-1
0	560076	82.11	-1
0	560761	82.21	-1
0	561446	82.31	-1
0	562131	82.41	-1
0	562816	82.51	-1
0	563501	82.61	-1
0	564186	82.71	-1
0	564871	82.81	-1
0	565556	82.91	-1
0	566250	83.01	-1
0	566935	83.11	-1
0	567620	83.21	-1
0	568305	83.31	-1
0	568990	83.41	-1
0	569675	83.51	-1
0	570360	83.61	-1
0	571045	83.71	-1
0	571730	83.81	-1
0	572415	83.91	-1
0	573109	84.01	-1
0	573794	84.11	-1
0	574479	84.21	-1
0	575164	84.31	-1
0	575849	84.41	-1
0	576534	84.51	-1
0	577219	84.61	-1
0	577904	84.71	-1
0	578589	84.81	-1
0	579274	84.91	-1
0	579968	85.01	-1
0	580653	85.11	-1
0	581338	85.21	-1
0	582023	85.31	-1
0	582708	85.41	-1
0	583393	85.51	-1
0	584078	85.61	-1
0	584763	85.71	-1
0	585448	85.81	-1
0	586133	85.91	-1
0	586827	86.01	-1
0	587512	86.11	-1
0	588197	86.21	-1
0	588882	86.31	-1
0	589567	86.41	-1
0	590252	86.51	-1
0	590937	86.61	-1
0	591622	86.71	-1
0	592307	86.81	-1
0	592992	86.91	-1
0	593686	87.01	-1
0	594371	87.11	-1
0	595056	87.21	-1
0	595741	87.31	-1
0	596426	87.41	-1
0	597111	87.51	-1
0	597796	87.61	-1
0	598481	87.71	-1
0	599166	87.81	-1
0	599851	87.91	-1
0	600545	88.01	-1
0	601230	88.11	-1
0	601915	88.21	-1
0	602600	88.31	-1
0	603285	88.41	-1
0	603970	88.51	-1
0	604655	88.61	-1
0	605340	88.71	-1
0	606025	88.81	-1
0	606710	88.91	-1
0	607404	89.01	-1
0	608089	89.11	-1
0	608774	89.21	-1
0	609459	89.31	-1
0	610144	89.41	-1
0	610829	89.51	-1
0	611514	89.61	-1
0	612199	89.71	-1
0	612884	89.81	-1
0	613569	89.91	-1
0	614263	90.01	-1
0	614948	90.11	-1
0	615633	90.21	-1
0	616318	90.31	-1
0	617003	90.41	-1
0	617688	90.51	-1
0	618373	90.61	-1
0	619058	90.71	-1
0	619743	90.81	-1
0	620428	90.91	-1
0	621122	91.01	-1
0	621807	91.11	-1
0	622492	91.21	-1
0	623177	91.31	-1
0	623862	91.41	-1
0	624547	91.51	-1
0	625232	91.61	-1
0	625917	91.71	-1
0	626602	91.81	-1
0	627287	91.91	-1
0	627981	92.01	-1
0	628666	92.11	-1
0	629351	92.21	-1
0	630036	92.31	-1
0	630721	92.41	-1
0	631406	92.51	-1
0	632091	92.61	-1
0	632776	92.71	-1
0	633461	92.81	-1
0	634146	92.91	-1
0	634840	93.01	-1
0	635525	93.11	-1
0	636210	93.21	-1
0	636895	93.31	-1
0	637580	93.41	-1
0	638265	93.51	-1
0	638950	93.61	-1
0	639635	93.71	-1
0	640320	93.81	-1
0	641005	93.91	-1
0	641699	94.01	-1
0	642384	94.11	-1
0	643069	94.21	-1
0	643754	94.31	-1
0	644439	94.41	-1
0	645124	94.51	-1
0	645809	94.61	-1
0	646494	94.71	-1
0	647179	94.81	-1
0	647864	94.91	-1
0	648558	95.01	-1
0	649243	95.11	-1
0	649928	95.21	-1
0	650613	95.31	-1
0	651298	95.41	-1
0	651983	95.51	-1
0	652668	95.61	-1
0	653353	95.71	-1
0	654038	95.81	-1
0	654723	95.91	-1
0	655417	96.01	-1
0	656102	96.11	-1
0	656787	96.21	-1
0	657472	96.31	-1
0	658157	96.41	-1
0	658842	96.51	-1
0	659527	96.61	-1
0	660212	96.71	-1
0	660897	96.81	-1
0	661582	96.91	-1
0	662276	97.01	-1
0	662961	97.11	-1
0	663646	97.21	-1
0	664331	97.31	-1
0	665016	97.41	-1
0	665701	97.51	-1
0	666386	97.61	-1
0	667071	97.71	-1
0	667756	97.81	-1
0	668441	97.91	-1
0	669135	98.01	-1
0	669820	98.11	-1
0	670505	98.21	-1
0	671190	98.31	-1
0	671875	98.41	-1
0	672560	98.51	-1
0	673245	98.61	-1
0	673930	98.71	-1
0	674615	98.81	-1
0	675300	98.91	-1
0	675994	99.01	-1
0	676679	99.11	-1
0	677364	99.21	-1
0	678049	99.31	-1
0	678734	99.41	-1
0	679419	99.51	-1
0	680104	99.61	-1
0	680789	99.71	-1
0	681474	99.81	-1
0	682159	99.91	-1
1	113	1.11	0
1	798	1.21	0
1	1483	1.31	0
1	2168	1.41	0
1	2853	1.51	0
1	3538	1.61	0
1	4223	1.71	0
1	4908	1.81	0
1	5593	1.91	0
1	6287	2.01	0
1	6972	2.11	0
1	7657	2.21	0
1	8342	2.31	0
1	9027	2.41	0
1	9712	2.51	0
1	10397	2.61	0
1	11082	2.71	0
1	11767	2.81	0
1	12452	2.91	0
1	13146	3.01	0
1	13831	3.11	0
1	14516	3.21	0
1	15201	3.31	0
1	15886	3.41	0
1	16571	3.51	0
1	17256	3.61	0
1	17941	3.71	0
1	18626	3.81	0
1	19311	3.91	0
1	20005	4.01	0
1	20690	4.11	0
1	21375	4.21	0
1	22060	4.31	0
1	22745	4.41	0
1	23430	4.51	0
1	24115	4.61	0
1	24800	4.71	0
1	25485	4.81	0
1	26170	4.91	0
1	26864	5.01	0
1	27549	5.11	0
1	28234	5.21	0
1	28919	5.31	0
1	29604	5.41	0
1	30289	5.51	0
1	30974	5.61	0
1	31659	5.71	0
1	32344	5.81	0
1	33029	5.91	0
1	33723	6.01	0
1	34408	6.11	0
1	35093	6.21	0
1	35778	6.31	0
1	36463	6.41	0
1	37148	6.51	0
1	37833	6.61	0
1	38518	6.71	0
1	39203	6.81	0
1	39888	6.91	0
1	40582	7.01	0
1	41267	7.11	0
1	41952	7.21	0
1	42637	7.31	0
1	43322	7.41	0
1	44007	7.51	0
1	44692	7.61	0
1	45377	7.71	0
1	46062	7.81	0
1	46747	7.91	0
1	47441	8.01	0
1	48126	8.11	0
1	48811	8.21	0
1	49496	8.31	0
1	50181	8.41	0
1	50866	8.51	0
1	51551	8.61	0
1	52236	8.71	0
1	52921	8.81	0
1	53606	8.91	0
1	54300	9.01	0
1	54985	9.11	0
1	55670	9.21	0
1	56355	9.31	0
1	57040	9.41	0
1	57725	9.51	0
1	58410	9.61	0
1	59095	9.71	0
1	59780	9.81	0
1	60465	9.91	0
1	61242	10.01	0
1	61935	10.11	0
1	62628	10.21	0
1	63321	10.31	0
1	64014	10.41	0
1	64707	10.51	0
1	65400	10.61	0
1	66093	10.71	0
1	66786	10.81	0
1	67479	10.91	0
1	68181	11.01	0
1	68874	11.11	0
1	69567	11.21	0
1	70260	11.31	0
1	70953	11.41	0
1	71646	11.51	0
1	72339	11.61	0
1	73032	11.71	0
1	73725	11.81	0
1	74418	11.91	0
1	75120	12.01	0
1	75813	12.11	0
1	76506	12.21	0
1	77199	12.31	0
1	77892	12.41	0
1	78585	12.51	0
1	79278	12.61	0
1	79971	12.71	0
1	80664	12.81	0
1	81357	12.91	0
1	82059	13.01	0
1	82752	13.11	0
1	83445	13.21	0
1	84138	13.31	0
1	84831	13.41	0
1	85524	13.51	0
1	86217	13.61	0
1	86910	13.71	0
1	87603	13.81	0
1	88296	13.91	0
1	88998	14.01	0
1	89691	14.11	0
1	90384	14.21	0
1	91077	14.31	0
1	91770	14.41	0
1	92463	14.51	0
1	93156	14.61	0
1	93849	14.71	0
1	94542	14.81	0
1	95235	14.91	0
1	95937	15.01	0
1	96630	15.11	0
1	97323	15.21	0
1	98016	15.31	0
1	98709	15.41	0
1	99402	15.51	0
1	100095	15.61	0
1	100788	15.71	0
1	101481	15.81	0
1	102174	15.91	0
1	102876	16.01	0
1	103569	16.11	0
1	104262	16.21	0
1	104955	16.31	0
1	105648	16.41	0
1	106341	16.51	0
1	107034	16.61	0
1	107727	16.71	0
1	108420	16.81	0
1	109113	16.91	0
1	109815	17.01	0
1	110508	17.11	0
1	111201	17.21	0
1	111894	17.31	0
1	112587	17.41	0
1	113280	17.51	0
1	113973	17.61	0
1	114666	17.71	0
1	115359	17.81	0
1	116052	17.91	0
1	116754	18.01	0
1	117447	18.11	0
1	118140	18.21	0
1	118833	18.31	0
1	119526	18.41	0
1	120219	18.51	0
1	120912	18.61	0
1	121605	18.71	0
1	122298	18.81	0
1	122991	18.91	0
1	123693	19.01	0
1	124386	19.11	0
1	125079	19.21	0
1	125772	19.31	0
1	126465	19.41	0
1	127158	19.51	0
1	127851	19.61	0
1	128544	19.71	0
1	129237	19.81	0
1	129930	19.91	0
1	130632	20.01	0
1	131325	20.11	0
1	132018	20.21	0
1	132711	20.31	0
1	133404	20.41	0
1	134097	20.51	0
1	134790	20.61	0
1	135483	20.71	0
1	136176	20.81	0
1	136869	20.91	0
1	137571	21.01	0
1	138264	21.11	0
1	138957	21.21	0
1	139650	21.31	0
1	140343	21.41	0
1	141036	21.51	0
1	141729	21.61	0
1	142422	21.71	0
1	143115	21.81	0
1	143808	21.91	0
1	144510	22.01	0
1	145203	22.11	0
1	145896	22.21	0
1	146589	22.31	0
1	147282	22.41	0
1	147975	22.51	0
1	148668	22.61	0
1	149361	22.71	0
1	150054	22.81	0
1	150747	22.91	0
1	151449	23.01	0
1	152142	23.11	0
1	152835	23.21	0
1	153528	23.31	0
1	154221	23.41	0
1	154914	23.51	0
1	155607	23.61	0
1	156300	23.71	0
1	156993	23.81	0
1	157686	23.91	0
1	158388	24.01	0
1	159081	24.11	0
1	159774	24.21	0
1	160467	24.31	0
1	161160	24.41	0
1	161853	24.51	0
1	162546	24.61	0
1	163239	24.71	0
1	163932	24.81	0
1	164625	24.91	0
1	165327	25.01	0
1	166020	25.11	0
1	166713	25.21	0
1	167406	25.31	0
1	168099	25.41	0
1	168792	25.51	0
1	169485	25.61	0
1	170178	25.71	0
1	170871	25.81	0
1	171564	25.91	0
1	172266	26.01	0
1	172959	26.11	0
1	173652	26.21	0
1	174345	26.31	0
1	175038	26.41	0
1	175731	26.51	0
1	176424	26.61	0
1	177117	26.71	0
1	177810	26.81	0
1	178503	26.91	0
1	179205	27.01	0
1	179898	27.11	0
1	180591	27.21	0
1	181284	27.31	0
1	181977	27.41	0
1	182670	27.51	0
1	183363	27.61	0
1	184056	27.71	0
1	184749	27.81	0
1	185442	27.91	0
1	186144	28.01	0
1	186837	28.11	0
1	187530	28.21	0
1	188223	28.31	0
1	188916	28.41	0
1	189609	28.51	0
1	190302	28.61	0
1	190995	28.71	0
1	191688	28.81	0
1	192381	28.91	0
1	193083	29.01	0
1	193776	29.11	0
1	194469	29.21	0
1	195265	29.31	0
1	195957	29.41	0
1	196649	29.51	0
1	197341	29.61	0
1	198033	29.71	0
1	198725	29.81	0
1	199417	29.91	0
1	200118	30.01	0
1	200810	30.11	0
1	201502	30.21	0
1	202194	30.31	0
1	202886	30.41	0
1	203578	30.51	0
1	204270	30.61	0
1	204962	30.71	0
1	205654	30.81	0
1	206346	30.91	0
1	207047	31.01	0
1	207739	31.11	0
1	208431	31.21	0
1	209123	31.31	0
1	209815	31.41	0
1	210507	31.51	0
1	211199	31.61	0
1	211891	31.71	0
1	212583	31.81	0
1	213275	31.91	0
1	213976	32.01	0
1	214668	32.11	0
1	215360	32.21	0
1	216052	32.31	0
1	216744	32.41	0
1	217436	32.51	0
1	218128	32.61	0
1	218820	32.71	0
1	219512	32.81	0
1	220204	32.91	0
1	220905	33.01	0
1	221597	33.11	0
1	222289	33.21	0
1	222981	33.31	0
1	223673	33.41	0
1	224468	33.51	0
1	225159	33.61	0
1	225850	33.71	0
1	226541	33.81	0
1	227232	33.91	0
1	227932	34.01	0
1	228623	34.11	0
1	229314	34.21	0
1	230005	34.31	0
1	230696	34.41	0
1	231387	34.51	0
1	232078	34.61	0
1	232769	34.71	0
1	233460	34.81	0
1	234151	34.91	0
1	234851	35.01	0
1	235542	35.11	0
1	236233	35.21	0
1	236924	35.31	0
1	237615	35.41	0
1	238306	35.51	0
1	238997	35.61	0
1	239688	35.71	0
1	240379	35.81	0
1	241070	35.91	0
1	241770	36.01	0
1	242461	36.11	0
1	243152	36.21	0
1	243843	36.31	0
1	244534	36.41	0
1	245225	36.51	0
1	245916	36.61	0
1	246607	36.71	0
1	247298	36.81	0
1	247989	36.91	0
1	248689	37.01	0
1	249380	37.11	0
1	250071	37.21	0
1	250762	37.31	0
1	251453	37.41	0
1	252247	37.51	0
1	252937	37.61	0
1	253627	37.71	0
1	254317	37.81	0
1	255007	37.91	0
1	255706	38.01	0
1	256396	38.11	0
1	257086	38.21	0
1	257776	38.31	0
1	258466	38.41	0
1	259156	38.51	0
1	259846	38.61	0
1	260536	38.71	0
1	261226	38.81	0
1	261916	38.91	0
1	262615	39.01	0
1	263305	39.11	0
1	263995	39.21	0
1	264685	39.31	0
1	265375	39.41	0
1	266065	39.51	0
1	266755	39.61	0
1	267445	39.71	0
1	268135	39.81	0
1	268825	39.91	0
1	269524	40.01	0
1	270214	40.11	0
1	270904	40.21	0
1	271594	40.31	0
1	272284	40.41	0
1	272974	40.51	0
1	273664	40.61	0
1	274354	40.71	0
1	275044	40.81	0
1	275734	40.91	0
1	276433	41.01	0
1	277123	41.11	0
1	277813	41.21	0
1	278606	41.31	0
1	279295	41.41	0
1	279984	41.51	0
1	280673	41.61	0
1	281362	41.71	0
1	282051	41.81	0
1	282740	41.91	0
1	283438	42.01	0
1	284127	42.11	0
1	284816	42.21	0
1	285505	42.31	0
1	286194	42.41	0
1	286883	42.51	0
1	287572	42.61	0
1	288261	42.71	0
1	288950	42.81	0
1	289639	42.91	0
1	290337	43.01	0
1	291026	43.11	0
1	291715	43.21	0
1	292404	43.31	0
1	293093	43.41	0
1	293782	43.51	0
1	294471	43.61	0
1	295160	43.71	0
1	295849	43.81	0
1	296538	43.91	0
1	297236	44.01	0
1	297925	44.11	0
1	298614	44.21	0
1	299303	44.31	0
1	299992	44.41	0
1	300681	44.51	0
1	301370	44.61	0
1	302059	44.71	0
1	302748	44.81	0
1	303437	44.91	0
1	304238	45.01	0
1	304926	45.11	0
1	305614	45.21	0
1	306302	45.31	0
1	306990	45.41	0
1	307678	45.51	0
1	308366	45.61	0
1	309054	45.71	0
1	309742	45.81	0
1	310430	45.91	0
1	311127	46.01	0
1	311815	46.11	0
1	312503	46.21	0
1	313191	46.31	0
1	313879	46.41	0
1	314567	46.51	0
1	315255	46.61	0
1	315943	46.71	0
1	316631	46.81	0
1	317319	46.91	0
1	318016	47.01	0
1	318704	47.11	0
1	319392	47.21	0
1	320080	47.31	0
1	320768	47.41	0
1	321456	47.51	0
1	322144	47.61	0
1	322832	47.71	0
1	323520	47.81	0
1	324208	47.91	0
1	324905	48.01	0
1	325593	48.11	0
1	326281	48.21	0
1	326969	48.31	0
1	327657	48.41	0
1	328345	48.51	0
1	329136	48.61	0
1	329823	48.71	0
1	330510	48.81	0
1	331197	48.91	0
1	331893	49.01	0
1	332580	49.11	0
1	333267	49.21	0
1	333954	49.31	0
1	334641	49.41	0
1	335328	49.51	0
1	336015	49.61	0
1	336702	49.71	0
1	337389	49.81	0
1	338076	49.91	0
1	338772	50.01	0
1	339459	50.11	0
1	340146	50.21	0
1	340833	50.31	0
1	341520	50.41	0
1	342207	50.51	0
1	342894	50.61	0
1	343581	50.71	0
1	344268	50.81	0
1	344955	50.91	0
1	345651	51.01	0
1	346338	51.11	0
1	347025	51.21	0
1	347712	51.31	0
1	348399	51.41	0
1	349086	51.51	0
1	349773	51.61	0
1	350460	51.71	0
1	351147	51.81	0
1	351834	51.91	0
1	352530	52.01	0
1	353320	52.11	0
1	354006	52.21	0
1	354692	52.31	0
1	355378	52.41	0
1	356064	52.51	0
1	356750	52.61	0
1	357436	52.71	0
1	358122	52.81	0
1	358808	52.91	0
1	359503	53.01	0
1	360189	53.11	0
1	360875	53.21	0
1	361561	53.31	0
1	362247	53.41	0
1	362933	53.51	0
1	363619	53.61	0
1	364305	53.71	0
1	364991	53.81	0
1	365677	53.91	0
1	366372	54.01	0
1	367058	54.11	0
1	367744	54.21	0
1	368430	54.31	0
1	369116	54.41	0
1	369802	54.51	0
1	370488	54.61	0
1	371174	54.71	0
1	371860	54.81	0
1	372546	54.91	0
1	373241	55.01	0
1	373927	55.11	0
1	374613	55.21	0
1	375299	55.31	0
1	375985	55.41	0
1	376671	55.51	0
1	378308	55.61	0
1	378993	55.71	0
1	379678	55.81	0
1	380363	55.91	0
1	381057	56.01	0
1	381742	56.11	0
1	382427	56.21	0
1	383112	56.31	0
1	383797	56.41	0
1	384482	56.51	0
1	385167	56.61	0
1	385852	56.71	0
1	386537	56.81	0
1	387222	56.91	0
1	387916	57.01	0
1	388601	57.11	0
1	389286	57.21	0
1	389971	57.31	0
1	390656	57.41	0
1	391341	57.51	0
1	392026	57.61	0
1	392711	57.71	0
1	393396	57.81	0
1	394081	57.91	0
1	394775	58.01	0
1	395460	58.11	0
1	396145	58.21	0
1	396830	58.31	0
1	397515	58.41	0
1	398200	58.51	0
1	398885	58.61	0
1	399570	58.71	0
1	400255	58.81	0
1	400940	58.91	0
1	401634	59.01	0
1	402319	59.11	0
1	403004	59.21	0
1	403689	59.31	0
1	404374	59.41	0
1	405059	59.51	0
1	405744	59.61	0
1	406429	59.71	0
1	407114	59.81	0
1	407799	59.91	0
1	408493	60.01	0
1	409178	60.11	0
1	409863	60.21	0
1	410548	60.31	0
1	411233	60.41	0
1	411918	60.51	0
1	412603	60.61	0
1	413288	60.71	0
1	413973	60.81	0
1	414658	60.91	0
1	415352	61.01	0
1	416037	61.11	0
1	416722	61.21	0
1	417407	61.31	0
1	418092	61.41	0
1	418777	61.51	0
1	419462	61.61	0
1	420147	61.71	0
1	420832	61.81	0
1	421517	61.91	0
1	422211	62.01	0
1	422896	62.11	0
1	423581	62.21	0
1	424266	62.31	0
1	424951	62.41	0
1	425636	62.51	0
1	426321	62.61	0
1	427006	62.71	0
1	427691	62.81	0
1	428376	62.91	0
1	429070	63.01	0
1	429755	63.11	0
1	430440	63.21	0
1	431125	63.31	0
1	431810	63.41	0
1	432495	63.51	0
1	433180	63.61	0
1	433865	63.71	0
1	434550	63.81	0
1	435235	63.91	0
1	435929	64.01	0
1	436614	64.11	0
1	437299	64.21	0
1	437984	64.31	0
1	438669	64.41	0
1	439354	64.51	0
1	440039	64.61	0
1	440724	64.71	0
1	441409	64.81	0
1	442094	64.91	0
1	442788	65.01	0
1	443473	65.11	0
1	444158	65.21	0
1	444843	65.31	0
1	445528	65.41	0
1	446213	65.51	0
1	446898	65.61	0
1	447583	65.71	0
1	448268	65.81	0
1	448953	65.91	0
1	449647	66.01	0
1	450332	66.11	0
1	451017	66.21	0
1	451702	66.31	0
1	452387	66.41	0
1	453072	66.51	0
1	453757	66.61	0
1	454442	66.71	0
1	455127	66.81	0
1	455812	66.91	0
1	456506	67.01	0
1	457191	67.11	0
1	457876	67.21	0
1	458561	67.31	0
1	459246	67.41	0
1	459931	67.51	0
1	460616	67.61	0
1	461301	67.71	0
1	461986	67.81	0
1	462671	67.91	0
1	463365	68.01	0
1	464050	68.11	0
1	464735	68.21	0
1	465420	68.31	0
1	466105	68.41	0
1	466790	68.51	0
1	467475	68.61	0
1	468160	68.71	0
1	468845	68.81	0
1	469530	68.91	0
1	470224	69.01	0
1	470909	69.11	0
1	471594	69.21	0
1	472279	69.31	0
1	472964	69.41	0
1	473649	69.51	0
1	474334	69.61	0
1	475019	69.71	0
1	475704	69.81	0
1	476389	69.91	0
1	477083	70.01	0
1	477768	70.11	0
1	478453	70.21	0
1	479138	70.31	0
1	479823	70.41	0
1	480508	70.51	0
1	481193	70.61	0
1	481878	70.71	0
1	482563	70.81	0
1	483248	70.91	0
1	483942	71.01	0
1	484627	71.11	0
1	485312	71.21	0
1	485997	71.31	0
1	486682	71.41	0
1	487367	71.51	0
1	488052	71.61	0
1	488737	71.71	0
1	489422	71.81	0
1	490107	71.91	0
1	490801	72.01	0
1	491486	72.11	0
1	492171	72.21	0
1	492856	72.31	0
1	493541	72.41	0
1	494226	72.51	0
1	494911	72.61	0
1	495596	72.71	0
1	496281	72.81	0
1	496966	72.91	0
1	497660	73.01	0
1	498345	73.11	0
1	499030	73.21	0
1	499715	73.31	0
1	500400	73.41	0
1	501085	73.51	0
1	501770	73.61	0
1	502455	73.71	0
1	503140	73.81	0
1	503825	73.91	0
1	504519	74.01	0
1	505204	74.11	0
1	505889	74.21	0
1	506574	74.31	0
1	507259	74.41	0
1	507944	74.51	0
1	508629	74.61	0
1	509314	74.71	0
1	509999	74.81	0
1	510684	74.91	0
1	511378	75.01	0
1	512063	75.11	0
1	512748	75.21	0
1	513433	75.31	0
1	514118	75.41	0
1	514803	75.51	0
1	515488	75.61	0
1	516173	75.71	0
1	516858	75.81	0
1	517543	75.91	0
1	518237	76.01	0
1	518922	76.11	0
1	519607	76.21	0
1	520292	76.31	0
1	520977	76.41	0
1	521662	76.51	0
1	522347	76.61	0
1	523032	76.71	0
1	523717	76.81	0
1	524402	76.91	0
1	525096	77.01	0
1	525781	77.11	0
1	526466	77.21	0
1	527151	77.31	0
1	527836	77.41	0
1	528521	77.51	0
1	529206	77.61	0
1	529891	77.71	0
1	530576	77.81	0
1	531261	77.91	0
1	531955	78.01	0
1	532640	78.11	0
1	533325	78.21	0
1	534010	78.31	0
1	534695	78.41	0
1	535380	78.51	0
1	536065	78.61	0
1	536750	78.71	0
1	537435	78.81	0
1	538120	78.91	0
1	538814	79.01	0
1	539499	79.11	0
1	540184	79.21	0
1	540869	79.31	0
1	541554	79.41	0
1	542239	79.51	0
1	542924	79.61	0
1	543609	79.71	0
1	544294	79.81	0
1	544979	79.91	0
1	545673	80.01	0
1	546358	80.11	0
1	547043	80.21	0
1	547728	80.31	0
1	548413	80.41	0
1	549098	80.51	0
1	549783	80.61	0
1	550468	80.71	0
1	551153	80.81	0
1	551838	80.91	0
1	552532	81.01	0
1	553217	81.11	0
1	553902	81.21	0
1	554587	81.31	0
1	555272	81.41	0
1	555957	81.51	0
1	556642	81.61	0
1	557327	81.71	0
1	558012	81.81	0
1	558697	81.91	0
1	559391	82.01	0
1	560076	82.11	0
1	560761	82.21	0
1	561446	82.31	0
1	562131	82.41	0
1	562816	82.51	0
1	563501	82.61	0
1	564186	82.71	0
1	564871	82.81	0
1	565556	82.91	0
1	566250	83.01	0
1	566935	83.11	0
1	567620	83.21	0
1	568305	83.31	0
1	568990	83.41	0
1	569675	83.51	0
1	570360	83.61	0
1	571045	83.71	0
1	571730	83.81	0
1	572415	83.91	0
1	573109	84.01	0
1	573794	84.11	0
1	574479	84.21	0
1	575164	84.31	0
1	575849	84.41	0
1	576534	84.51	0
1	577219	84.61	0
1	577904	84.71	0
1	578589	84.81	0
1	579274	84.91	0
1	579968	85.01	0
1	580653	85.11	0
1	581338	85.21	0
1	582023	85.31	0
1	582708	85.41	0
1	583393	85.51	0
1	584078	85.61	0
1	584763	85.71	0
1	585448	85.81	0
1	586133	85.91	0
1	586827	86.01	0
1	587512	86.11	0
1	588197	86.21	0
1	588882	86.31	0
1	589567	86.41	0
1	590252	86.51	0
1	590937	86.61	0
1	591622	86.71	0
1	592307	86.81	0
1	592992	86.91	0
1	593686	87.01	0
1	594371	87.11	0
1	595056	87.21	0
1	595741	87.31	0
1	596426	87.41	0
1	597111	87.51	0
1	597796	87.61	0
1	598481	87.71	0
1	599166	87.81	0
1	599851	87.91	0
1	600545	88.01	0
1	601230	88.11	0
1	601915	88.21	0
1	602600	88.31	0
1	603285	88.41	0
1	603970	88.51	0
1	604655	88.61	0
1	605340	88.71	0
1	606025	88.81	0
1	606710	88.91	0
1	607404	89.01	0
1	608089	89.11	0
1	608774	89.21	0
1	609459	89.31	0
1	610144	89.41	0
1	610829	89.51	0
1	611514	89.61	0
1	612199	89.71	0
1	612884	89.81	0
1	613569	89.91	0
1	614263	90.01	0
1	614948	90.11	0
1	615633	90.21	0
1	616318	90.31	0
1	617003	90.41	0
1	617688	90.51	0
1	618373	90.61	0
1	619058	90.71	0
1	619743	90.81	0
1	620428	90.91	0
1	621122	91.01	0
1	621807	91.11	0
1	622492	91.21	0
1	623177	91.31	0
1	623862	91.41	0
1	624547	91.51	0
1	625232	91.61	0
1	625917	91.71	0
1	626602	91.81	0
1	627287	91.91	0
1	627981	92.01	0
1	628666	92.11	0
1	629351	92.21	0
1	630036	92.31	0
1	630721	92.41	0
1	631406	92.51	0
1	632091	92.61	0
1	632776	92.71	0
1	633461	92.81	0
1	634146	92.91	0
1	634840	93.01	0
1	635525	93.11	0
1	636210	93.21	0
1	636895	93.31	0
1	637580	93.41	0
1	638265	93.51	0
1	638950	93.61	0
1	639635	93.71	0
1	640320	93.81	0
1	641005	93.91	0
1	641699	94.01	0
1	642384	94.11	0
1	643069	94.21	0
1	643754	94.31	0
1	644439	94.41	0
1	645124	94.51	0
1	645809	94.61	0
1	646494	94.71	0
1	647179	94.81	0
1	647864	94.91	0
1	648558	95.01	0
1	649243	95.11	0
1	649928	95.21	0
1	650613	95.31	0
1	651298	95.41	0
1	651983	95.51	0
1	652668	95.61	0
1	653353	95.71	0
1	654038	95.81	0
1	654723	95.91	0
1	655417	96.01	0
1	656102	96.11	0
1	656787	96.21	0
1	657472	96.31	0
1	658157	96.41	0
1	658842	96.51	0
1	659527	96.61	0
1	660212	96.71	0
1	660897	96.81	0
1	661582	96.91	0
1	662276	97.01	0
1	662961	97.11	0
1	663646	97.21	0
1	664331	97.31	0
1	665016	97.41	0
1	665701	97.51	0
1	666386	97.61	0
1	667071	97.71	0
1	667756	97.81	0
1	668441	97.91	0
1	669135	98.01	0
1	669820	98.11	0
1	670505	98.21	0
1	671190	98.31	0
1	671875	98.41	0
1	672560	98.51	0
1	673245	98.61	0
1	673930	98.71	0
1	674615	98.81	0
1	675300	98.91	0
1	675994	99.01	0
1	676679	99.11	0
1	677364	99.21	0
1	678049	99.31	0
1	678734	99.41	0
1	679419	99.51	0
1	680104	99.61	0
1	680789	99.71	0
1	681474	99.81	0
1	682159	99.91	0
2	113	1.11	0
2	798	1.21	0
2	1483	1.31	0
2	2168	1.41	0
2	2853	1.51	0
2	3538	1.61	0
2	4223	1.71	0
2	4908	1.81	0
2	5593	1.91	0
2	6287	2.01	0
2	6972	2.11	0
2	7657	2.21	0
2	8342	2.31	0
2	9027	2.41	0
2	9712	2.51	0
2	10397	2.61	0
2	11082	2.71	0
2	11767	2.81	0
2	12452	2.91	0
2	13146	3.01	0
2	13831	3.11	0
2	14516	3.21	0
2	15201	3.31	0
2	15886	3.41	0
2	16571	3.51	0
2	17256	3.61	0
2	17941	3.71	0
2	18626	3.81	0
2	19311	3.91	0
2	20005	4.01	0
2	20690	4.11	0
2	21375	4.21	0
2	22060	4.31	0
2	22745	4.41	0
2	23430	4.51	0
2	24115	4.61	0
2	24800	4.71	0
2	25485	4.81	0
2	26170	4.91	0
2	26864	5.01	0
2	27549	5.11	0
2	28234	5.21	0
2	28919	5.31	0
2	29604	5.41	0
2	30289	5.51	0
2	30974	5.61	0
2	31659	5.71	0
2	32344	5.81	0
2	33029	5.91	0
2	33723	6.01	0
2	34408	6.11	0
2	35093	6.21	0
2	35778	6.31	0
2	36463	6.41	0
2	37148	6.51	0
2	37833	6.61	0
2	38518	6.71	0
2	39203	6.81	0
2	39888	6.91	0
2	40582	7.01	0
2	41267	7.11	0
2	41952	7.21	0
2	42637	7.31	0
2	43322	7.41	0
2	44007	7.51	0
2	44692	7.61	0
2	45377	7.71	0
2	46062	7.81	0
2	46747	7.91	0
2	47441	8.01	0
2	48126	8.11	0
2	48811	8.21	0
2	49496	8.31	0
2	50181	8.41	0
2	50866	8.51	0
2	51551	8.61	0
2	52236	8.71	0
2	52921	8.81	0
2	53606	8.91	0
2	54300	9.01	0
2	54985	9.11	0
2	55670	9.21	0
2	56355	9.31	0
2	57040	9.41	0
2	57725	9.51	0
2	58410	9.61	0
2	59095	9.71	0
2	59780	9.81	0
2	60465	9.91	0
2	61242	10.01	0
2	61935	10.11	0
2	62628	10.21	0
2	63321	10.31	0
2	64014	10.41	0
2	64707	10.51	0
2	65400	10.61	0
2	66093	10.71	0
2	66786	10.81	0
2	67479	10.91	0
2	68181	11.01	0
2	68874	11.11	0
2	69567	11.21	0
2	70260	11.31	0
2	70953	11.41	0
2	71646	11.51	0
2	72339	11.61	0
2	73032	11.71	0
2	73725	11.81	0
2	74418	11.91	0
2	75120	12.01	0
2	75813	12.11	0
2	76506	12.21	0
2	77199	12.31	0
2	77892	12.41	0
2	78585	12.51	0
2	79278	12.61	0
2	79971	12.71	0
2	80664	12.81	0
2	81357	12.91	0
2	82059	13.01	0
2	82752	13.11	0
2	83445	13.21	0
2	84138	13.31	0
2	84831	13.41	0
2	85524	13.51	0
2	86217	13.61	0
2	86910	13.71	0
2	87603	13.81	0
2	88296	13.91	0
2	88998	14.01	0
2	89691	14.11	0
2	90384	14.21	0
2	91077	14.31	0
2	91770	14.41	0
2	92463	14.51	0
2	93156	14.61	0
2	93849	14.71	0
2	94542	14.81	0
2	95235	14.91	0
2	95937	15.01	0
2	96630	15.11	0
2	97323	15.21	0
2	98016	15.31	0
2	98709	15.41	0
2	99402	15.51	0
2	100095	15.61	0
2	100788	15.71	0
2	101481	15.81	0
2	102174	15.91	0
2	102876	16.01	0
2	103569	16.11	0
2	104262	16.21	0
2	104955	16.31	0
2	105648	16.41	0
2	106341	16.51	0
2	107034	16.61	0
2	107727	16.71	0
2	108420	16.81	0
2	109113	16.91	0
2	109815	17.01	0
2	110508	17.11	0
2	111201	17.21	0
2	111894	17.31	0
2	112587	17.41	0
2	113280	17.51	0
2	113973	17.61	0
2	114666	17.71	0
2	115359	17.81	0
2	116052	17.91	0
2	116754	18.01	0
2	117447	18.11	0
2	118140	18.21	0
2	118833	18.31	0
2	119526	18.41	0
2	120219	18.51	0
2	120912	18.61	0
2	121605	18.71	0
2	122298	18.81	0
2	122991	18.91	0
2	123693	19.01	0
2	124386	19.11	0
2	125079	19.21	0
2	125772	19.31	0
2	126465	19.41	0
2	127158	19.51	0
2	127851	19.61	0
2	128544	19.71	0
2	129237	19.81	0
2	129930	19.91	0
2	130632	20.01	0
2	131325	20.11	0
2	132018	20.21	0
2	132711	20.31	0
2	133404	20.41	0
2	134097	20.51	0
2	134790	20.61	0
2	135483	20.71	0
2	136176	20.81	0
2	136869	20.91	0
2	137571	21.01	0
2	138264	21.11	0
2	138957	21.21	0
2	139650	21.31	0
2	140343	21.41	0
2	141036	21.51	0
2	141729	21.61	0
2	142422	21.71	0
2	143115	21.81	0
2	143808	21.91	0
2	144510	22.01	0
2	145203	22.11	0
2	145896	22.21	0
2	146589	22.31	0
2	147282	22.41	0
2	147975	22.51	0
2	148668	22.61	0
2	149361	22.71	0
2	150054	22.81	0
2	150747	22.91	0
2	151449	23.01	0
2	152142	23.11	0
2	152835	23.21	0
2	153528	23.31	0
2	154221	23.41	0
2	154914	23.51	0
2	155607	23.61	0
2	156300	23.71	0
2	156993	23.81	0
2	157686	23.91	0
2	158388	24.01	0
2	159081	24.11	0
2	159774	24.21	0
2	160467	24.31	0
2	161160	24.41	0
2	161853	24.51	0
2	162546	24.61	0
2	163239	24.71	0
2	163932	24.81	0
2	164625	24.91	0
2	165327	25.01	0
2	166020	25.11	0
2	166713	25.21	0
2	167406	25.31	0
2	168099	25.41	0
2	168792	25.51	0
2	169485	25.61	0
2	170178	25.71	0
2	170871	25.81	0
2	171564	25.91	0
2	172266	26.01	0
2	172959	26.11	0
2	173652	26.21	0
2	174345	26.31	0
2	175038	26.41	0
2	175731	26.51	0
2	176424	26.61	0
2	177117	26.71	0
2	177810	26.81	0
2	178503	26.91	0
2	179205	27.01	0
2	179898	27.11	0
2	180591	27.21	0
2	181284	27.31	0
2	181977	27.41	0
2	182670	27.51	0
2	183363	27.61	0
2	184056	27.71	0
2	184749	27.81	0
2	185442	27.91	0
2	186144	28.01	0
2	186837	28.11	0
2	187530	28.21	0
2	188223	28.31	0
2	188916	28.41	0
2	189609	28.51	0
2	190302	28.61	0
2	190995	28.71	0
2	191688	28.81	0
2	192381	28.91	0
2	193083	29.01	0
2	193776	29.11	0
2	194469	29.21	0
2	195265	29.31	0
2	195957	29.41	0
2	196649	29.51	0
2	197341	29.61	0
2	198033	29.71	0
2	198725	29.81	0
2	199417	29.91	0
2	200118	30.01	0
2	200810	30.11	0
2	201502	30.21	0
2	202194	30.31	0
2	202886	30.41	0
2	203578	30.51	0
2	204270	30.61	0
2	204962	30.71	0
2	205654	30.81	0
2	206346	30.91	0
2	207047	31.01	0
2	207739	31.11	0
2	208431	31.21	0
2	209123	31.31	0
2	209815	31.41	0
2	210507	31.51	0
2	211199	31.61	0
2	211891	31.71	0
2	212583	31.81	0
2	213275	31.91	0
2	213976	32.01	0
2	214668	32.11	0
2	215360	32.21	0
2	216052	32.31	0
2	216744	32.41	0
2	217436	32.51	0
2	218128	32.61	0
2	218820	32.71	0
2	219512	32.81	0
2	220204	32.91	0
2	220905	33.01	0
2	221597	33.11	0
2	222289	33.21	0
2	222981	33.31	0
2	223673	33.41	0
2	224468	33.51	0
2	225159	33.61	0
2	225850	33.71	0
2	226541	33.81	0
2	227232	33.91	0
2	227932	34.01	0
2	228623	34.11	0
2	229314	34.21	0
2	230005	34.31	0
2	230696	34.41	0
2	231387	34.51	0
2	232078	34.61	0
2	232769	34.71	0
2	233460	34.81	0
2	234151	34.91	0
2	234851	35.01	0
2	235542	35.11	0
2	236233	35.21	0
2	236924	35.31	0
2	237615	35.41	0
2	238306	35.51	0
2	238997	35.61	0
2	239688	35.71	0
2	240379	35.81	0
2	241070	35.91	0
2	241770	36.01	0
2	242461	36.11	0
2	243152	36.21	0
2	243843	36.31	0
2	244534	36.41	0
2	245225	36.51	0
2	245916	36.61	0
2	246607	36.71	0
2	247298	36.81	0
2	247989	36.91	0
2	248689	37.01	0
2	249380	37.11	0
2	250071	37.21	0
2	250762	37.31	0
2	251453	37.41	0
2	252247	37.51	0
2	252937	37.61	0
2	253627	37.71	0
2	254317	37.81	0
2	255007	37.91	0
2	255706	38.01	0
2	256396	38.11	0
2	257086	38.21	0
2	257776	38.31	0
2	258466	38.41	0
2	259156	38.51	0
2	259846	38.61	0
2	260536	38.71	0
2	261226	38.81	0
2	261916	38.91	0
2	262615	39.01	0
2	263305	39.11	0
2	263995	39.21	0
2	264685	39.31	0
2	265375	39.41	0
2	266065	39.51	0
2	266755	39.61	0
2	267445	39.71	0
2	268135	39.81	0
2	268825	39.91	0
2	269524	40.01	0
2	270214	40.11	0
2	270904	40.21	0
2	271594	40.31	0
2	272284	40.41	0
2	272974	40.51	0
2	273664	40.61	0
2	274354	40.71	0
2	275044	40.81	0
2	275734	40.91	0
2	276433	41.01	0
2	277123	41.11	0
2	277813	41.21	0
2	278606	41.31	0
2	279295	41.41	0
2	279984	41.51	0
2	280673	41.61	0
2	281362	41.71	0
2	282051	41.81	0
2	282740	41.91	0
2	283438	42.01	0
2	284127	42.11	0
2	284816	42.21	0
2	285505	42.31	0
2	286194	42.41	0
2	286883	42.51	0
2	287572	42.61	0
2	288261	42.71	0
2	288950	42.81	0
2	289639	42.91	0
2	290337	43.01	0
2	291026	43.11	0
2	291715	43.21	0
2	292404	43.31	0
2	293093	43.41	0
2	293782	43.51	0
2	294471	43.61	0
2	295160	43.71	0
2	295849	43.81	0
2	296538	43.91	0
2	297236	44.01	0
2	297925	44.11	0
2	298614	44.21	0
2	299303	44.31	0
2	299992	44.41	0
2	300681	44.51	0
2	301370	44.61	0
2	302059	44.71	0
2	302748	44.81	0
2	303437	44.91	0
2	304238	45.01	0
2	304926	45.11	0
2	305614	45.21	0
2	306302	45.31	0
2	306990	45.41	0
2	307678	45.51	0
2	308366	45.61	0
2	309054	45.71	0
2	309742	45.81	0
2	310430	45.91	0
2	311127	46.01	0
2	311815	46.11	0
2	312503	46.21	0
2	313191	46.31	0
2	313879	46.41	0
2	314567	46.51	0
2	315255	46.61	0
2	315943	46.71	0
2	316631	46.81	0
2	317319	46.91	0
2	318016	47.01	0
2	318704	47.11	0
2	319392	47.21	0
2	320080	47.31	0
2	320768	47.41	0
2	321456	47.51	0
2	322144	47.61	0
2	322832	47.71	0
2	323520	47.81	0
2	324208	47.91	0
2	324905	48.01	0
2	325593	48.11	0
2	326281	48.21	0
2	326969	48.31	0
2	327657	48.41	0
2	328345	48.51	0
2	329136	48.61	0
2	329823	48.71	0
2	330510	48.81	0
2	331197	48.91	0
2	331893	49.01	0
2	332580	49.11	0
2	333267	49.21	0
2	333954	49.31	0
2	334641	49.41	0
2	335328	49.51	0
2	336015	49.61	0
2	336702	49.71	0
2	337389	49.81	0
2	338076	49.91	0
2	338772	50.01	0
2	339459	50.11	0
2	340146	50.21	0
2	340833	50.31	0
2	341520	50.41	0
2	342207	50.51	0
2	342894	50.61	0
2	343581	50.71	0
2	344268	50.81	0
2	344955	50.91	0
2	345651	51.01	0
2	346338	51.11	0
2	347025	51.21	0
2	347712	51.31	0
2	348399	51.41	0
2	349086	51.51	0
2	349773	51.61	0
2	350460	51.71	0
2	351147	51.81	0
2	351834	51.91	0
2	352530	52.01	0
2	353320	52.11	0
2	354006	52.21	0
2	354692	52.31	0
2	355378	52.41	0
2	356064	52.51	0
2	356750	52.61	0
2	357436	52.71	0
2	358122	52.81	0
2	358808	52.91	0
2	359503	53.01	0
2	360189	53.11	0
2	360875	53.21	0
2	361561	53.31	0
2	362247	53.41	0
2	362933	53.51	0
2	363619	53.61	0
2	364305	53.71	0
2	364991	53.81	0
2	365677	53.91	0
2	366372	54.01	0
2	367058	54.11	0
2	367744	54.21	0
2	368430	54.31	0
2	369116	54.41	0
2	369802	54.51	0
2	370488	54.61	0
2	371174	54.71	0
2	371860	54.81	0
2	372546	54.91	0
2	373241	55.01	0
2	373927	55.11	0
2	374613	55.21	0
2	375299	55.31	0
2	375985	55.41	0
2	376671	55.51	0
2	378308	55.61	0
2	378993	55.71	0
2	379678	55.81	0
2	380363	55.91	0
2	381057	56.01	0
2	381742	56.11	0
2	382427	56.21	0
2	383112	56.31	0
2	383797	56.41	0
2	384482	56.51	0
2	385167	56.61	0
2	385852	56.71	0
2	386537	56.81	0
2	387222	56.91	0
2	387916	57.01	0
2	388601	57.11	0
2	389286	57.21	0
2	389971	57.31	0
2	390656	57.41	0
2	391341	57.51	0
2	392026	57.61	0
2	392711	57.71	0
2	393396	57.81	0
2	394081	57.91	0
2	394775	58.01	0
2	395460	58.11	0
2	396145	58.21	0
2	396830	58.31	0
2	397515	58.41	0
2	398200	58.51	0
2	398885	58.61	0
2	399570	58.71	0
2	400255	58.81	0
2	400940	58.91	0
2	401634	59.01	0
2	402319	59.11	0
2	403004	59.21	0
2	403689	59.31	0
2	404374	59.41	0
2	405059	59.51	0
2	405744	59.61	0
2	406429	59.71	0
2	407114	59.81	0
2	407799	59.91	0
2	408493	60.01	0
2	409178	60.11	0
2	409863	60.21	0
2	410548	60.31	0
2	411233	60.41	0
2	411918	60.51	0
2	412603	60.61	0
2	413288	60.71	0
2	413973	60.81	0
2	414658	60.91	0
2	415352	61.01	0
2	416037	61.11	0
2	416722	61.21	0
2	417407	61.31	0
2	418092	61.41	0
2	418777	61.51	0
2	419462	61.61	0
2	420147	61.71	0
2	420832	61.81	0
2	421517	61.91	0
2	422211	62.01	0
2	422896	62.11	0
2	423581	62.21	0
2	424266	62.31	0
2	424951	62.41	0
2	425636	62.51	0
2	426321	62.61	0
2	427006	62.71	0
2	427691	62.81	0
2	428376	62.91	0
2	429070	63.01	0
2	429755	63.11	0
2	430440	63.21	0
2	431125	63.31	0
2	431810	63.41	0
2	432495	63.51	0
2	433180	63.61	0
2	433865	63.71	0
2	434550	63.81	0
2	435235	63.91	0
2	435929	64.01	0
2	436614	64.11	0
2	437299	64.21	0
2	437984	64.31	0
2	438669	64.41	0
2	439354	64.51	0
2	440039	64.61	0
2	440724	64.71	0
2	441409	64.81	0
2	442094	64.91	0
2	442788	65.01	0
2	443473	65.11	0
2	444158	65.21	0
2	444843	65.31	0
2	445528	65.41	0
2	446213	65.51	0
2	446898	65.61	0
2	447583	65.71	0
2	448268	65.81	0
2	448953	65.91	0
2	449647	66.01	0
2	450332	66.11	0
2	451017	66.21	0
2	451702	66.31	0
2	452387	66.41	0
2	453072	66.51	0
2	453757	66.61	0
2	454442	66.71	0
2	455127	66.81	0
2	455812	66.91	0
2	456506	67.01	0
2	457191	67.11	0
2	457876	67.21	0
2	458561	67.31	0
2	459246	67.41	0
2	459931	67.51	0
2	460616	67.61	0
2	461301	67.71	0
2	461986	67.81	0
2	462671	67.91	0
2	463365	68.01	0
2	464050	68.11	0
2	464735	68.21	0
2	465420	68.31	0
2	466105	68.41	0
2	466790	68.51	0
2	467475	68.61	0
2	468160	68.71	0
2	468845	68.81	0
2	469530	68.91	0
2	470224	69.01	0
2	470909	69.11	0
2	471594	69.21	0
2	472279	69.31	0
2	472964	69.41	0
2	473649	69.51	0
2	474334	69.61	0
2	475019	69.71	0
2	475704	69.81	0
2	476389	69.91	0
2	477083	70.01	0
2	477768	70.11	0
2	478453	70.21	0
2	479138	70.31	0
2	479823	70.41	0
2	480508	70.51	0
2	481193	70.61	0
2	481878	70.71	0
2	482563	70.81	0
2	483248	70.91	0
2	483942	71.01	0
2	484627	71.11	0
2	485312	71.21	0
2	485997	71.31	0
2	486682	71.41	0
2	487367	71.51	0
2	488052	71.61	0
2	488737	71.71	0
2	489422	71.81	0
2	490107	71.91	0
2	490801	72.01	0
2	491486	72.11	0
2	492171	72.21	0
2	492856	72.31	0
2	493541	72.41	0
2	494226	72.51	0
2	494911	72.61	0
2	495596	72.71	0
2	496281	72.81	0
2	496966	72.91	0
2	497660	73.01	0
2	498345	73.11	0
2	499030	73.21	0
2	499715	73.31	0
2	500400	73.41	0
2	501085	73.51	0
2	501770	73.61	0
2	502455	73.71	0
2	503140	73.81	0
2	503825	73.91	0
2	504519	74.01	0
2	505204	74.11	0
2	505889	74.21	0
2	506574	74.31	0
2	507259	74.41	0
2	507944	74.51	0
2	508629	74.61	0
2	509314	74.71	0
2	509999	74.81	0
2	510684	74.91	0
2	511378	75.01	0
2	512063	75.11	0
2	512748	75.21	0
2	513433	75.31	0
2	514118	75.41	0
2	514803	75.51	0
2	515488	75.61	0
2	516173	75.71	0
2	516858	75.81	0
2	517543	75.91	0
2	518237	76.01	0
2	518922	76.11	0
2	519607	76.21	0
2	520292	76.31	0
2	520977	76.41	0
2	521662	76.51	0
2	522347	76.61	0
2	523032	76.71	0
2	523717	76.81	0
2	524402	76.91	0
2	525096	77.01	0
2	525781	77.11	0
2	526466	77.21	0
2	527151	77.31	0
2	527836	77.41	0
2	528521	77.51	0
2	529206	77.61	0
2	529891	77.71	0
2	530576	77.81	0
2	531261	77.91	0
2	531955	78.01	0
2	532640	78.11	0
2	533325	78.21	0
2	534010	78.31	0
2	534695	78.41	0
2	535380	78.51	0
2	536065	78.61	0
2	536750	78.71	0
2	537435	78.81	0
2	538120	78.91	0
2	538814	79.01	0
2	539499	79.11	0
2	540184	79.21	0
2	540869	79.31	0
2	541554	79.41	0
2	542239	79.51	0
2	542924	79.61	0
2	543609	79.71	0
2	544294	79.81	0
2	544979	79.91	0
2	545673	80.01	0
2	546358	80.11	0
2	547043	80.21	0
2	547728	80.31	0
2	548413	80.41	0
2	549098	80.51	0
2	549783	80.61	0
2	550468	80.71	0
2	551153	80.81	0
2	551838	80.91	0
2	552532	81.01	0
2	553217	81.11	0
2	553902	81.21	0
2	554587	81.31	0
2	555272	81.41	0
2	555957	81.51	0
2	556642	81.61	0
2	557327	81.71	0
2	558012	81.81	0
2	558697	81.91	0
2	559391	82.01	0
2	560076	82.11	0
2	560761	82.21	0
2	561446	82.31	0
2	562131	82.41	0
2	562816	82.51	0
2	563501	82.61	0
2	564186	82.71	0
2	564871	82.81	0
2	565556	82.91	0
2	566250	83.01	0
2	566935	83.11	0
2	567620	83.21	0
2	568305	83.31	0
2	568990	83.41	0
2	569675	83.51	0
2	570360	83.61	0
2	571045	83.71	0
2	571730	83.81	0
2	572415	83.91	0
2	573109	84.01	0
2	573794	84.11	0
2	574479	84.21	0
2	575164	84.31	0
2	575849	84.41	0
2	576534	84.51	0
2	577219	84.61	0
2	577904	84.71	0
2	578589	84.81	0
2	579274	84.91	0
2	579968	85.01	0
2	580653	85.11	0
2	581338	85.21	0
2	582023	85.31	0
2	582708	85.41	0
2	583393	85.51	0
2	584078	85.61	0
2	584763	85.71	0
2	585448	85.81	0
2	586133	85.91	0
2	586827	86.01	0
2	587512	86.11	0
2	588197	86.21	0
2	588882	86.31	0
2	589567	86.41	0
2	590252	86.51	0
2	590937	86.61	0
2	591622	86.71	0
2	592307	86.81	0
2	592992	86.91	0
2	593686	87.01	0
2	594371	87.11	0
2	595056	87.21	0
2	595741	87.31	0
2	596426	87.41	0
2	597111	87.51	0
2	597796	87.61	0
2	598481	87.71	0
2	599166	87.81	0
2	599851	87.91	0
2	600545	88.01	0
2	601230	88.11	0
2	601915	88.21	0
2	602600	88.31	0
2	603285	88.41	0
2	603970	88.51	0
2	604655	88.61	0
2	605340	88.71	0
2	606025	88.81	0
2	606710	88.91	0
2	607404	89.01	0
2	608089	89.11	0
2	608774	89.21	0
2	609459	89.31	0
2	610144	89.41	0
2	610829	89.51	0
2	611514	89.61	0
2	612199	89.71	0
2	612884	89.81	0
2	613569	89.91	0
2	614263	90.01	0
2	614948	90.11	0
2	615633	90.21	0
2	616318	90.31	0
2	617003	90.41	0
2	617688	90.51	0
2	618373	90.61	0
2	619058	90.71	0
2	619743	90.81	0
2	620428	90.91	0
2	621122	91.01	0
2	621807	91.11	0
2	622492	91.21	0
2	623177	91.31	0
2	623862	91.41	0
2	624547	91.51	0
2	625232	91.61	0
2	625917	91.71	0
2	626602	91.81	0
2	627287	91.91	0
2	627981	92.01	0
2	628666	92.11	0
2	629351	92.21	0
2	630036	92.31	0
2	630721	92.41	0
2	631406	92.51	0
2	632091	92.61	0
2	632776	92.71	0
2	633461	92.81	0
2	634146	92.91	0
2	634840	93.01	0
2	635525	93.11	0
2	636210	93.21	0
2	636895	93.31	0
2	637580	93.41	0
2	638265	93.51	0
2	638950	93.61	0
2	639635	93.71	0
2	640320	93.81	0
2	641005	93.91	0
2	641699	94.01	0
2	642384	94.11	0
2	643069	94.21	0
2	643754	94.31	0
2	644439	94.41	0
2	645124	94.51	0
2	645809	94.61	0
2	646494	94.71	0
2	647179	94.81	0
2	647864	94.91	0
2	648558	95.01	0
2	649243	95.11	0
2	649928	95.21	0
2	650613	95.31	0
2	651298	95.41	0
2	651983	95.51	0
2	652668	95.61	0
2	653353	95.71	0
2	654038	95.81	0
2	654723	95.91	0
2	655417	96.01	0
2	656102	96.11	0
2	656787	96.21	0
2	657472	96.31	0
2	658157	96.41	0
2	658842	96.51	0
2	659527	96.61	0
2	660212	96.71	0
2	660897	96.81	0
2	661582	96.91	0
2	662276	97.01	0
2	662961	97.11	0
2	663646	97.21	0
2	664331	97.31	0
2	665016	97.41	0
2	665701	97.51	0
2	666386	97.61	0
2	667071	97.71	0
2	667756	97.81	0
2	668441	97.91	0
2	669135	98.01	0
2	669820	98.11	0
2	670505	98.21	0
2	671190	98.31	0
2	671875	98.41	0
2	672560	98.51	0
2	673245	98.61	0
2	673930	98.71	0
2	674615	98.81	0
2	675300	98.91	0
2	675994	99.01	0
2	676679	99.11	0
2	677364	99.21	0
2	678049	99.31	0
2	678734	99.41	0
2	679419	99.51	0
2	680104	99.61	0
2	680789	99.71	0
2	681474	99.81	0
2	682159	99.91	0
3	113	1.11	0.000179096
3	798	1.21	0.000340852
3	1483	1.31	0.000467435
3	2168	1.41	0.000562893
3	2853	1.51	0.000631106
3	3538	1.61	0.000675745
3	4223	1.71	0.000700245
3	4908	1.81	0.000707784
3	5593	1.91	0.000701273
3	6287	2.01	0.000683354
3	6972	2.11	0.000656398
3	7657	2.21	0.000622512
3	8342	2.31	0.000583548
3	9027	2.41	0.000541117
3	9712	2.51	0.000496604
3	10397	2.61	0.000451181
3	11082	2.71	0.000405825
3	11767	2.81	0.00036134
3	12452	2.91	0.000318365
3	13146	3.01	0.0002774
3	13831	3.11	0.00023882
3	14516	3.21	0.000202887
3	15201	3.31	0.00016977
3	15886	3.41	0.000139558
3	16571	3.51	0.000112271
3	17256	3.61	8.78717e-05
3	17941	3.71	6.628e-05
3	18626	3.81	4.73785e-05
3	19311	3.91	3.1023e-05
3	20005	4.01	1.70493e-05
3	20690	4.11	5.28023e-06
3	21375	4.21	-4.46922e-06
3	22060	4.31	-1.2387e-05
3	22745	4.41	-1.86602e-05
3	23430	4.51	-2.34717e-05
3	24115	4.61	-2.69978e-05
3	24800	4.71	-2.94062e-05
3	25485	4.81	-3.08545e-05
3	26170	4.91	-3.14892e-05
3	26864	5.01	-3.14451e-05
3	27549	5.11	-3.0845e-05
3	28234	5.21	-2.97994e-05
3	28919	5.31	-2.84072e-05
3	29604	5.41	-2.67556e-05
3	30289	5.51	-2.49208e-05
3	30974	5.61	-2.29687e-05
3	31659	5.71	-2.09553e-05
3	32344	5.81	-1.89277e-05
3	33029	5.91	-1.6925e-05
3	33723	6.01	-1.49784e-05
3	34408	6.11	-1.31129e-05
3	35093	6.21	-1.13474e-05
3	35778	6.31	-9.69553e-06
3	36463	6.41	-8.16651e-06
3	37148	6.51	-6.76571e-06
3	37833	6.61	-5.49522e-06
3	38518	6.71	-4.35441e-06
3	39203	6.81	-3.34045e-06
3	39888	6.91	-2.44874e-06
3	40582	7.01	-1.6733e-06
3	41267	7.11	-1.00716e-06
3	41952	7.21	-4.42628e-07
3	42637	7.31	2.84224e-08
3	43322	7.41	4.14339e-07
3	44007	7.51	7.23492e-07
3	44692	7.61	9.6413e-07
3	45377	7.71	1.14424e-06
3	46062	7.81	1.27148e-06
3	46747	7.91	1.35305e-06
3	47441	8.01	1.3957e-06
3	48126	8.11	1.40565e-06
3	48811	8.21	1.3886e-06
3	49496	8.31	1.34971e-06
3	50181	8.41	1.2936e-06
3	50866	8.51	1.22437e-06
3	51551	8.61	1.14561e-06
3	52236	8.71	1.06046e-06
3	52921	8.81	9.71582e-07
3	53606	8.91	8.81246e-07
3	54300	9.01	7.91334e-07
3	54985	9.11	7.03381e-07
3	55670	9.21	6.18613e-07
3	56355	9.31	5.37979e-07
3	57040	9.41	4.62183e-07
3	57725	9.51	3.91714e-07
3	58410	9.61	3.26878e-07
3	59095	9.71	2.67827e-07
3	59780	9.81	2.14581e-07
3	60465	9.91	1.67052e-07
3	61242	10.01	1.25066e-07
3	61935	10.11	8.83794e-08
3	62628	10.21	5.66978e-08
3	63321	10.31	2.96922e-08
3	64014	10.41	7.00453e-09
3	64707	10.51	-1.17325e-08
3	65400	10.61	-2.68933e-08
3	66093	10.71	-3.88482e-08
3	66786	10.81	-4.79581e-08
3	67479	10.91	-5.45704e-08
3	68181	11.01	-5.90177e-08
3	68874	11.11	-6.16069e-08
3	69567	11.21	-6.26265e-08
3	70260	11.31	-6.23395e-08
3	70953	11.41	-6.09859e-08
3	71646	11.51	-5.87811e-08
3	72339	11.61	-5.59183e-08
3	73032	11.71	-5.25674e-08
3	73725	11.81	-4.88761e-08
3	74418	11.91	-4.4971e-08
3	75120	12.01	-4.09599e-08
3	75813	12.11	-3.69354e-08
3	76506	12.21	-3.29713e-08
3	77199	12.31	-2.9128e-08
3	77892	12.41	-2.54531e-08
3	78585	12.51	-2.19821e-08
3	79278	12.61	-1.87399e-08
3	79971	12.71	-1.57428e-08
3	80664	12.81	-1.30029e-08
3	81357	12.91	-1.05217e-08
3	82059	13.01	-8.29772e-09
3	82752	13.11	-6.32454e-09
3	83445	13.21	-4.59224e-09
3	84138	13.31	-3.08802e-09
3	84831	13.41	-1.79838e-09
3	85524	13.51	-7.08411e-10
3	86217	13.61	1.98241e-10
3	86910	13.71	9.37916e-10
3	87603	13.81	1.52767e-09
3	88296	13.91	1.98384e-09
3	88998	14.01	2.32276e-09
3	89691	14.11	2.55937e-09
3	90384	14.21	2.70788e-09
3	91077	14.31	2.78249e-09
3	91770	14.41	2.79243e-09
3	92463	14.51	2.7498e-09
3	93156	14.61	2.66525e-09
3	93849	14.71	2.54872e-09
3	94542	14.81	2.40803e-09
3	95235	14.91	2.24887e-09
3	95937	15.01	2.07763e-09
3	96630	15.11	1.89999e-09
3	97323	15.21	1.72236e-09
3	98016	15.31	1.54472e-09
3	98709	15.41	1.37064e-09
3	99402	15.51	1.20295e-09
3	100095	15.61	1.04379e-09
3	100788	15.71	8.94573e-10
3	101481	15.81	7.56017e-10
3	102174	15.91	6.29541e-10
3	102876	16.01	5.13012e-10
3	103569	16.11	4.09273e-10
3	104262	16.21	3.16902e-10
3	104955	16.31	2.3519e-10
3	105648	16.41	1.63425e-10
3	106341	16.51	1.02318e-10
3	107034	16.61	4.9738e-11
3	107727	16.71	5.68434e-12
3	108420	16.81	-3.05533e-11
3	109113	16.91	-5.8975e-11
3	109815	17.01	-8.10019e-11
3	110508	17.11	-9.80549e-11
3	111201	17.21	-1.11555e-10
3	111894	17.31	-1.18661e-10
3	112587	17.41	-1.23634e-10
3	113280	17.51	-1.23634e-10
3	113973	17.61	-1.23634e-10
3	114666	17.71	-1.21503e-10
3	115359	17.81	-1.14397e-10
3	116052	17.91	-1.07292e-10
3	116754	18.01	-1.00187e-10
3	117447	18.11	-9.30811e-11
3	118140	18.21	-8.59757e-11
3	118833	18.31	-7.88702e-11
3	119526	18.41	-7.17648e-11
3	120219	18.51	-6.46594e-11
3	120912	18.61	-5.7554e-11
3	121605	18.71	-5.04485e-11
3	122298	18.81	-4.33431e-11
3	122991	18.91	-3.62377e-11
3	123693	19.01	-2.91323e-11
3	124386	19.11	-2.20268e-11
3	125079	19.21	-1.7053e-11
3	125772	19.31	-1.49214e-11
3	126465	19.41	-1.35003e-11
3	127158	19.51	-1.27898e-11
3	127851	19.61	-1.13687e-11
3	128544	19.71	-9.9476e-12
3	129237	19.81	-9.23706e-12
3	129930	19.91	-8.52651e-12
3	130632	20.01	-7.81597e-12
3	131325	20.11	-7.10543e-12
3	132018	20.21	-6.39488e-12
3	132711	20.31	-5.68434e-12
3	133404	20.41	-4.9738e-12
3	134097	20.51	-4.26326e-12
3	134790	20.61	-4.26326e-12
3	135483	20.71	-3.55271e-12
3	136176	20.81	-3.55271e-12
3	136869	20.91	-2.84217e-12
3	137571	21.01	-2.84217e-12
3	138264	21.11	-2.84217e-12
3	138957	21.21	-2.13163e-12
3	139650	21.31	-2.13163e-12
3	140343	21.41	-2.13163e-12
3	141036	21.51	-1.42109e-12
3	141729	21.61	-1.42109e-12
3	142422	21.71	-1.42109e-12
3	143115	21.81	-1.42109e-12
3	143808	21.91	-1.42109e-12
3	144510	22.01	-7.10543e-13
3	145203	22.11	-7.10543e-13
3	145896	22.21	-7.10543e-13
3	146589	22.31	-7.10543e-13
3	147282	22.41	-7.10543e-13
3	147975	22.51	-7.10543e-13
3	148668	22.61	-7.10543e-13
3	149361	22.71	-7.10543e-13
3	150054	22.81	-7.10543e-13
3	150747	22.91	-7.10543e-13
3	151449	23.01	0
3	152142	23.11	0
3	152835	23.21	0
3	153528	23.31	0
3	154221	23.41	0
3	154914	23.51	0
3	155607	23.61	0
3	156300	23.71	0
3	156993	23.81	0
3	157686	23.91	0
3	158388	24.01	0
3	159081	24.11	0
3	159774	24.21	0
3	160467	24.31	0
3	161160	24.41	0
3	161853	24.51	0
3	162546	24.61	0
3	163239	24.71	0
3	163932	24.81	0
3	164625	24.91	0
3	165327	25.01	0
3	166020	25.11	0
3	166713	25.21	0
3	167406	25.31	0
3	168099	25.41	0
3	168792	25.51	0
3	169485	25.61	0
3	170178	25.71	0
3	170871	25.81	0
3	171564	25.91	0
3	172266	26.01	0
3	172959	26.11	0
3	173652	26.21	0
3	174345	26.31	0
3	175038	26.41	0
3	175731	26.51	0
3	176424	26.61	0
3	177117	26.71	0
3	177810	26.81	0
3	178503	26.91	0
3	179205	27.01	0
3	179898	27.11	0
3	180591	27.21	0
3	181284	27.31	0
3	181977	27.41	0
3	182670	27.51	0
3	183363	27.61	0
3	184056	27.71	0
3	184749	27.81	0
3	185442	27.91	0
3	186144	28.01	0
3	186837	28.11	0
3	187530	28.21	0
3	188223	28.31	0
3	188916	28.41	0
3	189609	28.51	0
3	190302	28.61	0
3	190995	28.71	0
3	191688	28.81	0
3	192381	28.91	0
3	193083	29.01	0
3	193776	29.11	0
3	194469	29.21	0
3	195265	29.31	0
3	195957	29.41	0
3	196649	29.51	0
3	197341	29.61	0
3	198033	29.71	0
3	198725	29.81	0
3	199417	29.91	0
3	200118	30.01	0
3	200810	30.11	0
3	201502	30.21	0
3	202194	30.31	0
3	202886	30.41	0
3	203578	30.51	0
3	204270	30.61	0
3	204962	30.71	0
3	205654	30.81	0
3	206346	30.91	0
3	207047	31.01	0
3	207739	31.11	0
3	208431	31.21	0
3	209123	31.31	0
3	209815	31.41	0
3	210507	31.51	0
3	211199	31.61	0
3	211891	31.71	0
3	212583	31.81	0
3	213275	31.91	0
3	213976	32.01	0
3	214668	32.11	0
3	215360	32.21	0
3	216052	32.31	0
3	216744	32.41	0
3	217436	32.51	0
3	218128	32.61	0
3	218820	32.71	0
3	219512	32.81	0
3	220204	32.91	0
3	220905	33.01	0
3	221597	33.11	0
3	222289	33.21	0
3	222981	33.31	0
3	223673	33.41	0
3	224468	33.51	0
3	225159	33.61	0
3	225850	33.71	0
3	226541	33.81	0
3	227232	33.91	0
3	227932	34.01	0
3	228623	34.11	0
3	229314	34.21	0
3	230005	34.31	0
3	230696	34.41	0
3	231387	34.51	0
3	232078	34.61	0
3	232769	34.71	0
3	233460	34.81	0
3	234151	34.91	0
3	234851	35.01	0
3	235542	35.11	0
3	236233	35.21	0
3	236924	35.31	0
3	237615	35.41	0
3	238306	35.51	0
3	238997	35.61	0
3	239688	35.71	0
3	240379	35.81	0
3	241070	35.91	0
3	241770	36.01	0
3	242461	36.11	0
3	243152	36.21	0
3	243843	36.31	0
3	244534	36.41	0
3	245225	36.51	0
3	245916	36.61	0
3	246607	36.71	0
3	247298	36.81	0
3	247989	36.91	0
3	248689	37.01	0
3	249380	37.11	0
3	250071	37.21	0
3	250762	37.31	0
3	251453	37.41	0
3	252247	37.51	0
3	252937	37.61	0
3	253627	37.71	0
3	254317	37.81	0
3	255007	37.91	0
3	255706	38.01	0
3	256396	38.11	0
3	257086	38.21	0
3	257776	38.31	0
3	258466	38.41	0
3	259156	38.51	0
3	259846	38.61	0
3	260536	38.71	0
3	261226	38.81	0
3	261916	38.91	0
3	262615	39.01	0
3	263305	39.11	0
3	263995	39.21	0
3	264685	39.31	0
3	265375	39.41	0
3	266065	39.51	0
3	266755	39.61	0
3	267445	39.71	0
3	268135	39.81	0
3	268825	39.91	0
3	269524	40.01	0
3	270214	40.11	0
3	270904	40.21	0
3	271594	40.31	0
3	272284	40.41	0
3	272974	40.51	0
3	273664	40.61	0
3	274354	40.71	0
3	275044	40.81	0
3	275734	40.91	0
3	276433	41.01	0
3	277123	41.11	0
3	277813	41.21	0
3	278606	41.31	0
3	279295	41.41	0
3	279984	41.51	0
3	280673	41.61	0
3	281362	41.71	0
3	282051	41.81	0
3	282740	41.91	0
3	283438	42.01	0
3	284127	42.11	0
3	284816	42.21	0
3	285505	42.31	0
3	286194	42.41	0
3	286883	42.51	0
3	287572	42.61	0
3	288261	42.71	0
3	288950	42.81	0
3	289639	42.91	0
3	290337	43.01	0
3	291026	43.11	0
3	291715	43.21	0
3	292404	43.31	0
3	293093	43.41	0
3	293782	43.51	0
3	294471	43.61	0
3	295160	43.71	0
3	295849	43.81	0
3	296538	43.91	0
3	297236	44.01	0
3	297925	44.11	0
3	298614	44.21	0
3	299303	44.31	0
3	299992	44.41	0
3	300681	44.51	0
3	301370	44.61	0
3	302059	44.71	0
3	302748	44.81	0
3	303437	44.91	0
3	304238	45.01	0
3	304926	45.11	0
3	305614	45.21	0
3	306302	45.31	0
3	306990	45.41	0
3	307678	45.51	0
3	308366	45.61	0
3	309054	45.71	0
3	309742	45.81	0
3	310430	45.91	0
3	311127	46.01	0
3	311815	46.11	0
3	312503	46.21	0
3	313191	46.31	0
3	313879	46.41	0
3	314567	46.51	0
3	315255	46.61	0
3	315943	46.71	0
3	316631	46.81	0
3	317319	46.91	0
3	318016	47.01	0
3	318704	47.11	0
3	319392	47.21	0
3	320080	47.31	0
3	320768	47.41	0
3	321456	47.51	0
3	322144	47.61	0
3	322832	47.71	0
3	323520	47.81	0
3	324208	47.91	0
3	324905	48.01	0
3	325593	48.11	0
3	326281	48.21	0
3	326969	48.31	0
3	327657	48.41	0
3	328345	48.51	0
3	329136	48.61	0
3	329823	48.71	0
3	330510	48.81	0
3	331197	48.91	0
3	331893	49.01	0
3	332580	49.11	0
3	333267	49.21	0
3	333954	49.31	0
3	334641	49.41	0
3	335328	49.51	0
3	336015	49.61	0
3	336702	49.71	0
3	337389	49.81	0
3	338076	49.91	0
3	338772	50.01	0
3	339459	50.11	0
3	340146	50.21	0
3	340833	50.31	0
3	341520	50.41	0
3	342207	50.51	0
3	342894	50.61	0
3	343581	50.71	0
3	344268	50.81	0
3	344955	50.91	0
3	345651	51.01	0
3	346338	51.11	0
3	347025	51.21	0
3	347712	51.31	0
3	348399	51.41	0
3	349086	51.51	0
3	349773	51.61	0
3	350460	51.71	0
3	351147	51.81	0
3	351834	51.91	0
3	352530	52.01	0
3	353320	52.11	0
3	354006	52.21	0
3	354692	52.31	0
3	355378	52.41	0
3	356064	52.51	0
3	356750	52.61	0
3	357436	52.71	0
3	358122	52.81	0
3	358808	52.91	0
3	359503	53.01	0
3	360189	53.11	0
3	360875	53.21	0
3	361561	53.31	0
3	362247	53.41	0
3	362933	53.51	0
3	363619	53.61	0
3	364305	53.71	0
3	364991	53.81	0
3	365677	53.91	0
3	366372	54.01	0
3	367058	54.11	0
3	367744	54.21	0
3	368430	54.31	0
3	369116	54.41	0
3	369802	54.51	0
3	370488	54.61	0
3	371174	54.71	0
3	371860	54.81	0
3	372546	54.91	0
3	373241	55.01	0
3	373927	55.11	0
3	374613	55.21	0
3	375299	55.31	0
3	375985	55.41	0
3	376671	55.51	0
3	378308	55.61	0
3	378993	55.71	0
3	379678	55.81	0
3	380363	55.91	0
3	381057	56.01	0
3	381742	56.11	0
3	382427	56.21	0
3	383112	56.31	0
3	383797	56.41	0
3	384482	56.51	0
3	385167	56.61	0
3	385852	56.71	0
3	386537	56.81	0
3	387222	56.91	0
3	387916	57.01	0
3	388601	57.11	0
3	389286	57.21	0
3	389971	57.31	0
3	390656	57.41	0
3	391341	57.51	0
3	392026	57.61	0
3	392711	57.71	0
3	393396	57.81	0
3	394081	57.91	0
3	394775	58.01	0
3	395460	58.11	0
3	396145	58.21	0
3	396830	58.31	0
3	397515	58.41	0
3	398200	58.51	0
3	398885	58.61	0
3	399570	58.71	0
3	400255	58.81	0
3	400940	58.91	0
3	401634	59.01	0
3	402319	59.11	0
3	403004	59.21	0
3	403689	59.31	0
3	404374	59.41	0
3	405059	59.51	0
3	405744	59.61	0
3	406429	59.71	0
3	407114	59.81	0
3	407799	59.91	0
3	408493	60.01	0
3	409178	60.11	0
3	409863	60.21	0
3	410548	60.31	0
3	411233	60.41	0
3	411918	60.51	0
3	412603	60.61	0
3	413288	60.71	0
3	413973	60.81	0
3	414658	60.91	0
3	415352	61.01	0
3	416037	61.11	0
3	416722	61.21	0
3	417407	61.31	0
3	418092	61.41	0
3	418777	61.51	0
3	419462	61.61	0
3	420147	61.71	0
3	420832	61.81	0
3	421517	61.91	0
3	422211	62.01	0
3	422896	62.11	0
3	423581	62.21	0
3	424266	62.31	0
3	424951	62.41	0
3	425636	62.51	0
3	426321	62.61	0
3	427006	62.71	0
3	427691	62.81	0
3	428376	62.91	0
3	429070	63.01	0
3	429755	63.11	0
3	430440	63.21	0
3	431125	63.31	0
3	431810	63.41	0
3	432495	63.51	0
3	433180	63.61	0
3	433865	63.71	0
3	434550	63.81	0
3	435235	63.91	0
3	435929	64.01	0
3	436614	64.11	0
3	437299	64.21	0
3	437984	64.31	0
3	438669	64.41	0
3	439354	64.51	0
3	440039	64.61	0
3	440724	64.71	0
3	441409	64.81	0
3	442094	64.91	0
3	442788	65.01	0
3	443473	65.11	0
3	444158	65.21	0
3	444843	65.31	0
3	445528	65.41	0
3	446213	65.51	0
3	446898	65.61	0
3	447583	65.71	0
3	448268	65.81	0
3	448953	65.91	0
3	449647	66.01	0
3	450332	66.11	0
3	451017	66.21	0
3	451702	66.31	0
3	452387	66.41	0
3	453072	66.51	0
3	453757	66.61	0
3	454442	66.71	0
3	455127	66.81	0
3	455812	66.91	0
3	456506	67.01	0
3	457191	67.11	0
3	457876	67.21	0
3	458561	67.31	0
3	459246	67.41	0
3	459931	67.51	0
3	460616	67.61	0
3	461301	67.71	0
3	461986	67.81	0
3	462671	67.91	0
3	463365	68.01	0
3	464050	68.11	0
3	464735	68.21	0
3	465420	68.31	0
3	466105	68.41	0
3	466790	68.51	0
3	467475	68.61	0
3	468160	68.71	0
3	468845	68.81	0
3	469530	68.91	0
3	470224	69.01	0
3	470909	69.11	0
3	471594	69.21	0
3	472279	69.31	0
3	472964	69.41	0
3	473649	69.51	0
3	474334	69.61	0
3	475019	69.71	0
3	475704	69.81	0
3	476389	69.91	0
3	477083	70.01	0
3	477768	70.11	0
3	478453	70.21	0
3	479138	70.31	0
3	479823	70.41	0
3	480508	70.51	0
3	481193	70.61	0
3	481878	70.71	0
3	482563	70.81	0
3	483248	70.91	0
3	483942	71.01	0
3	484627	71.11	0
3	485312	71.21	0
3	485997	71.31	0
3	486682	71.41	0
3	487367	71.51	0
3	488052	71.61	0
3	488737	71.71	0
3	489422	71.81	0
3	490107	71.91	0
3	490801	72.01	0
3	491486	72.11	0
3	492171	72.21	0
3	492856	72.31	0
3	493541	72.41	0
3	494226	72.51	0
3	494911	72.61	0
3	495596	72.71	0
3	496281	72.81	0
3	496966	72.91	0
3	497660	73.01	0
3	498345	73.11	0
3	499030	73.21	0
3	499715	73.31	0
3	500400	73.41	0
3	501085	73.51	0
3	501770	73.61	0
3	502455	73.71	0
3	503140	73.81	0
3	503825	73.91	0
3	504519	74.01	0
3	505204	74.11	0
3	505889	74.21	0
3	506574	74.31	0
3	507259	74.41	0
3	507944	74.51	0
3	508629	74.61	0
3	509314	74.71	0
3	509999	74.81	0
3	510684	74.91	0
3	511378	75.01	0
3	512063	75.11	0
3	512748	75.21	0
3	513433	75.31	0
3	514118	75.41	0
3	514803	75.51	0
3	515488	75.61	0
3	516173	75.71	0
3	516858	75.81	0
3	517543	75.91	0
3	518237	76.01	0
3	518922	76.11	0
3	519607	76.21	0
3	520292	76.31	0
3	520977	76.41	0
3	521662	76.51	0
3	522347	76.61	0
3	523032	76.71	0
3	523717	76.81	0
3	524402	76.91	0
3	525096	77.01	0
3	525781	77.11	0
3	526466	77.21	0
3	527151	77.31	0
3	527836	77.41	0
3	528521	77.51	0
3	529206	77.61	0
3	529891	77.71	0
3	530576	77.81	0
3	531261	77.91	0
3	531955	78.01	0
3	532640	78.11	0
3	533325	78.21	0
3	534010	78.31	0
3	534695	78.41	0
3	535380	78.51	0
3	536065	78.61	0
3	536750	78.71	0
3	537435	78.81	0
3	538120	78.91	0
3	538814	79.01	0
3	539499	79.11	0
3	540184	79.21	0
3	540869	79.31	0
3	541554	79.41	0
3	542239	79.51	0
3	542924	79.61	0
3	543609	79.71	0
3	544294	79.81	0
3	544979	79.91	0
3	545673	80.01	0
3	546358	80.11	0
3	547043	80.21	0
3	547728	80.31	0
3	548413	80.41	0
3	549098	80.51	0
3	549783	80.61	0
3	550468	80.71	0
3	551153	80.81	0
3	551838	80.91	0
3	552532	81.01	0
3	553217	81.11	0
3	553902	81.21	0
3	554587	81.31	0
3	555272	81.41	0
3	555957	81.51	0
3	556642	81.61	0
3	557327	81.71	0
3	558012	81.81	0
3	558697	81.91	0
3	559391	82.01	0
3	560076	82.11	0
3	560761	82.21	0
3	561446	82.31	0
3	562131	82.41	0
3	562816	82.51	0
3	563501	82.61	0
3	564186	82.71	0
3	564871	82.81	0
3	565556	82.91	0
3	566250	83.01	0
3	566935	83.11	0
3	567620	83.21	0
3	568305	83.31	0
3	568990	83.41	0
3	569675	83.51	0
3	570360	83.61	0
3	571045	83.71	0
3	571730	83.81	0
3	572415	83.91	0
3	573109	84.01	0
3	573794	84.11	0
3	574479	84.21	0
3	575164	84.31	0
3	575849	84.41	0
3	576534	84.51	0
3	577219	84.61	0
3	577904	84.71	0
3	578589	84.81	0
3	579274	84.91	0
3	579968	85.01	0
3	580653	85.11	0
3	581338	85.21	0
3	582023	85.31	0
3	582708	85.41	0
3	583393	85.51	0
3	584078	85.61	0
3	584763	85.71	0
3	585448	85.81	0
3	586133	85.91	0
3	586827	86.01	0
3	587512	86.11	0
3	588197	86.21	0
3	588882	86.31	0
3	589567	86.41	0
3	590252	86.51	0
3	590937	86.61	0
3	591622	86.71	0
3	592307	86.81	0
3	592992	86.91	0
3	593686	87.01	0
3	594371	87.11	0
3	595056	87.21	0
3	595741	87.31	0
3	596426	87.41	0
3	597111	87.51	0
3	597796	87.61	0
3	598481	87.71	0
3	599166	87.81	0
3	599851	87.91	0
3	600545	88.01	0
3	601230	88.11	0
3	601915	88.21	0
3	602600	88.31	0
3	603285	88.41	0
3	603970	88.51	0
3	604655	88.61	0
3	605340	88.71	0
3	606025	88.81	0
3	606710	88.91	0
3	607404	89.01	0
3	608089	89.11	0
3	608774	89.21	0
3	609459	89.31	0
3	610144	89.41	0
3	610829	89.51	0
3	611514	89.61	0
3	612199	89.71	0
3	612884	89.81	0
3	613569	89.91	0
3	614263	90.01	0
3	614948	90.11	0
3	615633	90.21	0
3	616318	90.31	0
3	617003	90.41	0
3	617688	90.51	0
3	618373	90.61	0
3	619058	90.71	0
3	619743	90.81	0
3	620428	90.91	0
3	621122	91.01	0
3	621807	91.11	0
3	622492	91.21	0
3	623177	91.31	0
3	623862	91.41	0
3	624547	91.51	0
[...]
120	559115	82	0.028091229423
120	565974	83	0.028091090669
120	572833	84	0.02809095105
120	579692	85	0.028090810296
120	586551	86	0.02809066796
120	593410	87	0.028090523044
120	600269	88	0.028090373341
120	607128	89	0.028090213479
120	613987	90	0.028090032297
120	620846	91	0.028089819653
120	627705	92	0.028089581374
120	634564	93	0.028089329631
120	641423	94	0.028089071288
120	648282	95	0.028088809291
120	655141	96	0.028088544937
120	662000	97	0.028088278884
120	668859	98	0.02808800748
120	675718	99	0.028100725103
120	682577	100	0.028087441439
121	6011	2	0
121	12870	3	0
121	19729	4	0
121	26588	5	0
121	33447	6	0
121	40306	7	0
121	47165	8	0
121	54024	9	0
121	60884	10	0
121	67897	11	0
121	74836	12	0
121	81775	13	0
121	88714	14	0
121	95653	15	0
121	102592	16	0
121	109531	17	0
121	116470	18	0
121	123409	19	0
121	130348	20	0
121	137287	21	0
121	144226	22	0
121	151165	23	0
121	158104	24	0
121	165043	25	0
121	171982	26	0
121	178921	27	0
121	185860	28	0
121	192799	29	0
121	199835	30	0
121	206764	31	0
121	213693	32	0
121	220622	33	0
121	227650	34	0
121	234569	35	0
121	241488	36	0
121	248407	37	0
121	255425	38	0
121	262334	39	0
121	269243	40	0
121	276152	41	0
121	283158	42	0
121	290057	43	0
121	296956	44	0
121	303855	45	0
121	310848	46	0
121	317737	47	0
121	324626	48	0
121	331615	49	0
121	338494	50	0
121	345373	51	0
121	352252	52	0
121	359226	53	0
121	366095	54	0
121	372964	55	0
121	380781	56	0
121	387640	57	0
121	394499	58	0
121	401358	59	0
121	408217	60	0
121	415076	61	0
121	421935	62	0
121	428794	63	0
121	435653	64	0
121	442512	65	0
121	449371	66	0
121	456230	67	0
121	463089	68	0
121	469948	69	0
121	476807	70	0
121	483666	71	0
121	490525	72	0
121	497384	73	0
121	504243	74	0
121	511102	75	0
121	517961	76	0
121	524820	77	0
121	531679	78	0
121	538538	79	0
121	545397	80	0
121	552256	81	0
121	559115	82	0
121	565974	83	0
121	572833	84	0
121	579692	85	0
121	586551	86	0
121	593410	87	0
121	600269	88	0
121	607128	89	0
121	613987	90	0
121	620846	91	0
121	627705	92	0
121	634564	93	0
121	641423	94	0
121	648282	95	0
121	655141	96	0
121	662000	97	0
121	668859	98	0
121	675718	99	0
121	682577	100	0
122	6012	2	6
122	12871	3	6
122	19730	4	6
122	26589	5	6
122	33448	6	6
122	40307	7	6
122	47166	8	6
122	54025	9	6
122	60885	10	6
122	67898	11	6
122	74837	12	6
122	81776	13	6
122	88715	14	6
122	95654	15	6
122	102593	16	6
122	109532	17	6
122	116471	18	6
122	123410	19	6
122	130349	20	6
122	137288	21	6
122	144227	22	6
122	151166	23	6
122	158105	24	6
122	165044	25	6
122	171983	26	6
122	178922	27	6
122	185861	28	6
122	192800	29	6
122	199836	30	6
122	206765	31	6
122	213694	32	6
122	220623	33	6
122	227651	34	6
122	234570	35	6
122	241489	36	6
122	248408	37	6
122	255426	38	6
122	262335	39	6
122	269244	40	6
122	276153	41	6
122	283159	42	6
122	290058	43	6
122	296957	44	6
122	303856	45	6
122	310849	46	6
122	317738	47	6
122	324627	48	6
122	331616	49	6
122	338495	50	6
122	345374	51	6
122	352253	52	6
122	359227	53	6
122	366096	54	6
122	372965	55	6
122	380782	56	6
122	387641	57	6
122	394500	58	6
122	401359	59	6
122	408218	60	6
122	415077	61	6
122	421936	62	6
122	428795	63	6
122	435654	64	6
122	442513	65	6
122	449372	66	6
122	456231	67	6
122	463090	68	6
122	469949	69	6
122	476808	70	6
122	483667	71	6
122	490526	72	6
122	497385	73	6
122	504244	74	6
122	511103	75	6
122	517962	76	6
122	524821	77	6
122	531680	78	6
122	538539	79	6
122	545398	80	6
122	552257	81	6
122	559116	82	6
122	565975	83	6
122	572834	84	6
122	579693	85	6
122	586552	86	6
122	593411	87	6
122	600270	88	6
122	607129	89	6
122	613988	90	6
122	620847	91	6
122	627706	92	6
122	634565	93	6
122	641424	94	6
122	648283	95	6
122	655142	96	6
122	662001	97	6
122	668860	98	6
122	675719	99	6
122	682578	100	6
123	6012	2	0.024273156641
123	12871	3	0.028092396084
123	19730	4	0.02809239608
123	26589	5	0.028079396075
123	33448	6	0.028092396063
123	40307	7	0.02809239606
123	47166	8	0.02809239606
123	54025	9	0.02809239606
123	60885	10	0.02807939606
123	67898	11	0.028137355699
123	74837	12	0.028092391391
123	81776	13	0.02809237962
123	88715	14	0.028092360549
123	95654	15	0.028092335234
123	102593	16	0.028092304877
123	109532	17	0.028079270614
123	116471	18	0.028092233497
123	123410	19	0.028092194446
123	130349	20	0.028092154289
123	137288	21	0.028092113702
123	144227	22	0.028092073253
123	151166	23	0.028079033427
123	158105	24	0.028091994579
123	165044	25	0.028091957003
123	171983	26	0.028091920919
123	178922	27	0.028091886479
123	185861	28	0.028091853785
123	192800	29	0.028091822889
123	199836	30	0.028195747789
123	206765	31	0.028091766578
123	213694	32	0.028091741126
123	220623	33	0.028091717421
123	227651	34	0.028195603008
123	234570	35	0.028091675002
123	241489	36	0.028091656143
123	248408	37	0.028091638758
123	255426	38	0.02819548388
123	262335	39	0.028091608028
123	269244	40	0.028091594542
123	276153	41	0.028091582183
123	283159	42	0.028195524281
123	290058	43	0.028091560556
123	296957	44	0.028091551139
123	303856	45	0.028091542558
123	310849	46	0.028208488113
123	317738	47	0.028078527655
123	324627	48	0.028091521209
123	331616	49	0.028241515361
123	338495	50	0.028091510059
123	345374	51	0.028091505264
123	352253	52	0.028078500924
123	359227	53	0.028208171893
123	366096	54	0.028091493452
123	372965	55	0.028091490249
123	380782	56	0.029122784912
123	387641	57	0.028091361473
123	394500	58	0.02809108587
123	401359	59	0.028090498606
123	408218	60	0.028089520059
123	415077	61	0.028087953268
123	421936	62	0.028099133908
123	428795	63	0.028084516312
123	435654	64	0.028096117723
123	442513	65	0.028081977174
123	449372	66	0.028094079654
123	456231	67	0.028093464035
123	463090	68	0.02808011349
123	469949	69	0.028092936134
123	476808	70	0.028092818004
123	483667	71	0.02809269919
123	490526	72	0.028079570219
123	497385	73	0.028092437092
123	504244	74	0.028092303422
123	511103	75	0.028092169716
123	517962	76	0.028092035669
123	524821	77	0.028091901029
123	531680	78	0.028078765706
123	538539	79	0.02809162971
123	545398	80	0.02809149571
123	552257	81	0.02809136322
123	559116	82	0.028091225309
123	565975	83	0.028091086622
123	572834	84	0.028090947067
123	579693	85	0.028090806371
123	586552	86	0.02809066409
123	593411	87	0.028090519223
123	600270	88	0.028090369565
123	607129	89	0.028090209745
123	613988	90	0.0280900286
123	620847	91	0.02808981599
123	627706	92	0.028089577743
123	634565	93	0.028089326028
123	641424	94	0.02808906771
123	648283	95	0.028088805737
123	655142	96	0.028088541404
123	662001	97	0.02808827537
123	668860	98	0.02808800451
123	675719	99	0.028100721415
123	682578	100	0.028087437604
124	6012	2	0
124	12871	3	0
124	19730	4	0
124	26589	5	0
124	33448	6	0
124	40307	7	0
124	47166	8	0
124	54025	9	0
124	60885	10	0
124	67898	11	0
124	74837	12	0
124	81776	13	0
124	88715	14	0
124	95654	15	0
124	102593	16	0
124	109532	17	0
124	116471	18	0
124	123410	19	0
124	130349	20	0
124	137288	21	0
124	144227	22	0
124	151166	23	0
124	158105	24	0
124	165044	25	0
124	171983	26	0
124	178922	27	0
124	185861	28	0
124	192800	29	0
124	199836	30	0
124	206765	31	0
124	213694	32	0
124	220623	33	0
124	227651	34	0
124	234570	35	0
124	241489	36	0
124	248408	37	0
124	255426	38	0
124	262335	39	0
124	269244	40	0
124	276153	41	0
124	283159	42	0
124	290058	43	0
124	296957	44	0
124	303856	45	0
124	310849	46	0
124	317738	47	0
124	324627	48	0
124	331616	49	0
124	338495	50	0
124	345374	51	0
124	352253	52	0
124	359227	53	0
124	366096	54	0
124	372965	55	0
124	380782	56	0
124	387641	57	0
124	394500	58	0
124	401359	59	0
124	408218	60	0
124	415077	61	0
124	421936	62	0
124	428795	63	0
124	435654	64	0
124	442513	65	0
124	449372	66	0
124	456231	67	0
124	463090	68	0
124	469949	69	0
124	476808	70	0
124	483667	71	0
124	490526	72	0
124	497385	73	0
124	504244	74	0
124	511103	75	0
124	517962	76	0
124	524821	77	0
124	531680	78	0
124	538539	79	0
124	545398	80	0
124	552257	81	0
124	559116	82	0
124	565975	83	0
124	572834	84	0
124	579693	85	0
124	586552	86	0
124	593411	87	0
124	600270	88	0
124	607129	89	0
124	613988	90	0
124	620847	91	0
124	627706	92	0
124	634565	93	0
124	641424	94	0
124	648283	95	0
124	655142	96	0
124	662001	97	0
124	668860	98	0
124	675719	99	0
124	682578	100	0
125	6013	2	7
125	12872	3	7
125	19731	4	7
125	26590	5	7
125	33449	6	7
125	40308	7	7
125	47167	8	7
125	54026	9	7
125	60886	10	7
125	67899	11	7
125	74838	12	7
125	81777	13	7
125	88716	14	7
125	95655	15	7
125	102594	16	7
125	109533	17	7
125	116472	18	7
125	123411	19	7
125	130350	20	7
125	137289	21	7
125	144228	22	7
125	151167	23	7
125	158106	24	7
125	165045	25	7
125	171984	26	7
125	178923	27	7
125	185862	28	7
125	192801	29	7
125	199837	30	7
125	206766	31	7
125	213695	32	7
125	220624	33	7
125	227652	34	7
125	234571	35	7
125	241490	36	7
125	248409	37	7
125	255427	38	7
125	262336	39	7
125	269245	40	7
125	276154	41	7
125	283160	42	7
125	290059	43	7
125	296958	44	7
125	303857	45	7
125	310850	46	7
125	317739	47	7
125	324628	48	7
125	331617	49	7
125	338496	50	7
125	345375	51	7
125	352254	52	7
125	359228	53	7
125	366097	54	7
125	372966	55	7
125	380783	56	7
125	387642	57	7
125	394501	58	7
125	401360	59	7
125	408219	60	7
125	415078	61	7
125	421937	62	7
125	428796	63	7
125	435655	64	7
125	442514	65	7
125	449373	66	7
125	456232	67	7
125	463091	68	7
125	469950	69	7
125	476809	70	7
125	483668	71	7
125	490527	72	7
125	497386	73	7
125	504245	74	7
125	511104	75	7
125	517963	76	7
125	524822	77	7
125	531681	78	7
125	538540	79	7
125	545399	80	7
125	552258	81	7
125	559117	82	7
125	565976	83	7
125	572835	84	7
125	579694	85	7
125	586553	86	7
125	593412	87	7
125	600271	88	7
125	607130	89	7
125	613989	90	7
125	620848	91	7
125	627707	92	7
125	634566	93	7
125	641425	94	7
125	648284	95	7
125	655143	96	7
125	662002	97	7
125	668861	98	7
125	675720	99	7
125	682579	100	7
126	6013	2	0.024273136627
126	12872	3	0.028092396084
126	19731	4	0.02809239608
126	26590	5	0.028079396075
126	33449	6	0.028092396063
126	40308	7	0.02809239606
126	47167	8	0.02809239606
126	54026	9	0.02809239606
126	60886	10	0.02807939606
126	67899	11	0.028137355699
126	74838	12	0.028092391387
126	81777	13	0.028092379615
126	88716	14	0.028092360538
126	95655	15	0.028092335214
126	102594	16	0.028092304851
126	109533	17	0.028079270576
126	116472	18	0.028092233449
126	123411	19	0.028092194388
126	130350	20	0.028092154219
126	137289	21	0.028092113623
126	144228	22	0.028092073165
126	151167	23	0.028079033331
126	158106	24	0.028091994475
126	165045	25	0.028091956895
126	171984	26	0.028091920806
126	178923	27	0.028091886363
126	185862	28	0.028091853668
126	192801	29	0.02809182277
126	199837	30	0.028195747671
126	206766	31	0.028091766462
126	213695	32	0.028091741011
126	220624	33	0.028091717309
126	227652	34	0.0281956029
126	234571	35	0.028091674897
126	241490	36	0.028091656043
126	248409	37	0.028091638661
126	255427	38	0.028195483789
126	262336	39	0.028091607941
126	269245	40	0.02809159446
126	276154	41	0.028091582106
126	283160	42	0.028195524209
126	290059	43	0.028091560488
126	296958	44	0.028091551075
126	303857	45	0.028091542499
126	310850	46	0.028208488058
126	317739	47	0.028078527604
126	324628	48	0.028091521162
126	331617	49	0.0282082368
126	338496	50	0.028091510018
126	345375	51	0.028091505227
126	352254	52	0.028078500891
126	359228	53	0.028241496961
126	366097	54	0.028091493423
126	372966	55	0.028091490224
126	380783	56	0.029122780081
126	387642	57	0.028091366327
126	394501	58	0.028091098641
126	401360	59	0.028090510441
126	408219	60	0.028089504002
126	415078	61	0.028087931502
126	421937	62	0.02809909607
126	428796	63	0.028084476149
126	435655	64	0.028096087523
126	442514	65	0.028081951955
126	449373	66	0.028094059447
126	456232	67	0.028093448561
126	463091	68	0.028080100002
126	469950	69	0.028092922334
126	476809	70	0.02809280504
126	483668	71	0.028092688852
126	490527	72	0.02807956296
126	497386	73	0.028092431761
126	504245	74	0.028092299002
126	511104	75	0.02809216573
126	517963	76	0.028092031908
126	524822	77	0.028091897394
126	531681	78	0.028078762149
126	538540	79	0.028091626203
126	545399	80	0.028091492061
126	552258	81	0.028091359779
126	559117	82	0.028091221885
126	565976	83	0.028091083213
126	572835	84	0.028090943668
126	579694	85	0.028090802982
126	586553	86	0.028090660706
126	593412	87	0.028090515846
126	600271	88	0.028090366193
126	607130	89	0.028090206376
126	613989	90	0.028090025235
126	620848	91	0.028089812628
126	627707	92	0.028089574383
126	634566	93	0.02808932267
126	641425	94	0.028089064354
126	648284	95	0.028088802383
126	655143	96	0.028088538051
126	662002	97	0.028088272018
126	668861	98	0.028088000244
126	675720	99	0.028100718087
126	682579	100	0.028087434276
127	6013	2	0
127	12872	3	0
127	19731	4	0
127	26590	5	0
127	33449	6	0
127	40308	7	0
127	47167	8	0
127	54026	9	0
127	60886	10	0
127	67899	11	0
127	74838	12	0
127	81777	13	0
127	88716	14	0
127	95655	15	0
127	102594	16	0
127	109533	17	0
127	116472	18	0
127	123411	19	0
127	130350	20	0
127	137289	21	0
127	144228	22	0
127	151167	23	0
127	158106	24	0
127	165045	25	0
127	171984	26	0
127	178923	27	0
127	185862	28	0
127	192801	29	0
127	199837	30	0
127	206766	31	0
127	213695	32	0
127	220624	33	0
127	227652	34	0
127	234571	35	0
127	241490	36	0
127	248409	37	0
127	255427	38	0
127	262336	39	0
127	269245	40	0
127	276154	41	0
127	283160	42	0
127	290059	43	0
127	296958	44	0
127	303857	45	0
127	310850	46	0
127	317739	47	0
127	324628	48	0
127	331617	49	0
127	338496	50	0
127	345375	51	0
127	352254	52	0
127	359228	53	0
127	366097	54	0
127	372966	55	0
127	380783	56	0
127	387642	57	0
127	394501	58	0
127	401360	59	0
127	408219	60	0
127	415078	61	0
127	421937	62	0
127	428796	63	0
127	435655	64	0
127	442514	65	0
127	449373	66	0
127	456232	67	0
127	463091	68	0
127	469950	69	0
127	476809	70	0
127	483668	71	0
127	490527	72	0
127	497386	73	0
127	504245	74	0
127	511104	75	0
127	517963	76	0
127	524822	77	0
127	531681	78	0
127	538540	79	0
127	545399	80	0
127	552258	81	0
127	559117	82	0
127	565976	83	0
127	572835	84	0
127	579694	85	0
127	586553	86	0
127	593412	87	0
127	600271	88	0
127	607130	89	0
127	613989	90	0
127	620848	91	0
127	627707	92	0
127	634566	93	0
127	641425	94	0
127	648284	95	0
127	655143	96	0
127	662002	97	0
127	668861	98	0
127	675720	99	0
127	682579	100	0
128	6014	2	8
128	12873	3	8
128	19732	4	8
128	26591	5	8
128	33450	6	8
128	40309	7	8
128	47168	8	8
128	54027	9	8
128	60887	10	8
128	67900	11	8
128	74839	12	8
128	81778	13	8
128	88717	14	8
128	95656	15	8
128	102595	16	8
128	109534	17	8
128	116473	18	8
128	123412	19	8
128	130351	20	8
128	137290	21	8
128	144229	22	8
128	151168	23	8
128	158107	24	8
128	165046	25	8
128	171985	26	8
128	178924	27	8
128	185863	28	8
128	192802	29	8
128	199838	30	8
128	206767	31	8
128	213696	32	8
128	220625	33	8
128	227653	34	8
128	234572	35	8
128	241491	36	8
128	248410	37	8
128	255428	38	8
128	262337	39	8
128	269246	40	8
128	276155	41	8
128	283161	42	8
128	290060	43	8
128	296959	44	8
128	303858	45	8
128	310851	46	8
128	317740	47	8
128	324629	48	8
128	331618	49	8
128	338497	50	8
128	345376	51	8
128	352255	52	8
128	359229	53	8
128	366098	54	8
128	372967	55	8
128	380784	56	8
128	387643	57	8
128	394502	58	8
128	401361	59	8
128	408220	60	8
128	415079	61	8
128	421938	62	8
128	428797	63	8
128	435656	64	8
128	442515	65	8
128	449374	66	8
128	456233	67	8
128	463092	68	8
128	469951	69	8
128	476810	70	8
128	483669	71	8
128	490528	72	8
128	497387	73	8
128	504246	74	8
128	511105	75	8
128	517964	76	8
128	524823	77	8
128	531682	78	8
128	538541	79	8
128	545400	80	8
128	552259	81	8
128	559118	82	8
128	565977	83	8
128	572836	84	8
128	579695	85	8
128	586554	86	8
128	593413	87	8
128	600272	88	8
128	607131	89	8
128	613990	90	8
128	620849	91	8
128	627708	92	8
128	634567	93	8
128	641426	94	8
128	648285	95	8
128	655144	96	8
128	662003	97	8
128	668862	98	8
128	675721	99	8
128	682580	100	8
129	6014	2	0.024273116613
129	12873	3	0.028092396085
129	19732	4	0.028092396079
129	26591	5	0.028079396075
129	33450	6	0.028092396063
129	40309	7	0.02809239606
129	47168	8	0.02809239606
129	54027	9	0.02809239606
129	60887	10	0.02807939606
129	67900	11	0.028137355697
129	74839	12	0.028092391385
129	81778	13	0.028092379609
129	88717	14	0.028092360531
129	95656	15	0.028092335204
129	102595	16	0.028092304834
129	109534	17	0.028079270552
129	116473	18	0.028092233417
129	123412	19	0.028092194347
129	130351	20	0.02809215417
129	137290	21	0.028092113564
129	144229	22	0.028092073097
129	151168	23	0.028079033256
129	158107	24	0.028091994392
129	165046	25	0.028091956804
129	171985	26	0.02809192071
129	178924	27	0.028091886263
129	185863	28	0.028091853562
129	192802	29	0.028091822663
129	199838	30	0.028195747562
129	206767	31	0.02809176635
129	213696	32	0.028091740902
129	220625	33	0.028091717199
129	227653	34	0.028195602791
129	234572	35	0.028091674791
129	241491	36	0.028091655939
129	248410	37	0.028091638561
129	255428	38	0.028195483691
129	262337	39	0.028091607848
129	269246	40	0.02809159437
129	276155	41	0.02809158202
129	283161	42	0.028195524127
129	290060	43	0.028091560411
129	296959	44	0.028091551002
129	303858	45	0.028091542431
129	310851	46	0.028208487993
129	317740	47	0.028078527544
129	324629	48	0.028091521105
129	331618	49	0.028208236746
129	338497	50	0.02809150997
129	345376	51	0.02809150518
129	352255	52	0.028078500848
129	359229	53	0.028208171822
129	366098	54	0.028091493387
129	372967	55	0.02809149019
129	380784	56	0.029156155787
129	387643	57	0.028091364521
129	394502	58	0.02809109556
129	401361	59	0.028090516276
129	408220	60	0.028089543439
129	415079	61	0.028087967549
129	421938	62	0.028099105535
129	428797	63	0.028084484346
129	435656	64	0.02809609733
129	442515	65	0.02808196191
129	449374	66	0.028094067135
129	456233	67	0.028093455287
129	463092	68	0.028080106555
129	469951	69	0.02809292895
129	476810	70	0.028092811706
129	483669	71	0.028092695528
129	490528	72	0.028079569635
129	497387	73	0.028092438432
129	504246	74	0.028092305673
129	511105	75	0.028092172402
129	517964	76	0.028092038579
129	524823	77	0.028091904065
129	531682	78	0.02807876882
129	538541	79	0.028091632874
129	545400	80	0.028091498911
129	552259	81	0.028091366445
129	559118	82	0.028091228553
129	565977	83	0.028091089881
129	572836	84	0.028090950336
129	579695	85	0.02809080965
129	586554	86	0.028090667375
129	593413	87	0.028090522514
129	600272	88	0.028090372861
129	607131	89	0.028090213045
129	613990	90	0.028090031904
129	620849	91	0.028089819297
129	627708	92	0.028089581051
129	634567	93	0.028089329339
129	641426	94	0.028089071024
129	648285	95	0.028088809052
129	655144	96	0.02808854472
129	662003	97	0.028088278688
129	668862	98	0.028088006907
129	675721	99	0.028100724752
129	682580	100	0.028087440941
130	6014	2	0
130	12873	3	0
130	19732	4	0
130	26591	5	0
130	33450	6	0
130	40309	7	0
130	47168	8	0
130	54027	9	0
130	60887	10	0
130	67900	11	0
130	74839	12	0
130	81778	13	0
130	88717	14	0
130	95656	15	0
130	102595	16	0
130	109534	17	0
130	116473	18	0
130	123412	19	0
130	130351	20	0
130	137290	21	0
130	144229	22	0
130	151168	23	0
130	158107	24	0
130	165046	25	0
130	171985	26	0
130	178924	27	0
130	185863	28	0
130	192802	29	0
130	199838	30	0
130	206767	31	0
130	213696	32	0
130	220625	33	0
130	227653	34	0
130	234572	35	0
130	241491	36	0
130	248410	37	0
130	255428	38	0
130	262337	39	0
130	269246	40	0
130	276155	41	0
130	283161	42	0
130	290060	43	0
130	296959	44	0
130	303858	45	0
130	310851	46	0
130	317740	47	0
130	324629	48	0
130	331618	49	0
130	338497	50	0
130	345376	51	0
130	352255	52	0
130	359229	53	0
130	366098	54	0
130	372967	55	0
130	380784	56	0
130	387643	57	0
130	394502	58	0
130	401361	59	0
130	408220	60	0
130	415079	61	0
130	421938	62	0
130	428797	63	0
130	435656	64	0
130	442515	65	0
130	449374	66	0
130	456233	67	0
130	463092	68	0
130	469951	69	0
130	476810	70	0
130	483669	71	0
130	490528	72	0
130	497387	73	0
130	504246	74	0
130	511105	75	0
130	517964	76	0
130	524823	77	0
130	531682	78	0
130	538541	79	0
130	545400	80	0
130	552259	81	0
130	559118	82	0
130	565977	83	0
130	572836	84	0
130	579695	85	0
130	586554	86	0
130	593413	87	0
130	600272	88	0
130	607131	89	0
130	613990	90	0
130	620849	91	0
130	627708	92	0
130	634567	93	0
130	641426	94	0
130	648285	95	0
130	655144	96	0
130	662003	97	0
130	668862	98	0
130	675721	99	0
130	682580	100	0

