version 3
run BreakRanksNoGui-813-20240711-14:21:29-290707
attr configname BreakRanksNoGui
attr datetime 20240711-14:21:29
attr datetimef 20240711-142129
attr experiment BreakRanksNoGui
attr inifile omnetpp.ini
attr iterationvars "$nCars=9, $platoonSize=9, $nLanes=1, $ploegH=0.5, $controller=1, $headway=0.1, $leaderHeadway=1.2, $leaderSpeed=130, $breakRanksSafetyDistance=3, $minSpeed=120, $maxSpeed=140, $beaconInterval=0.1, $priority=4, $packetSize=200, $sController=\"CACC\", $0=2, $1=0"
attr iterationvarsd nCars=9/platoonSize=9/nLanes=1/ploegH=0.5/controller=1/headway=0.1/leaderHeadway=1.2/leaderSpeed=130/breakRanksSafetyDistance=3/minSpeed=120/maxSpeed=140/beaconInterval=0.1/priority=4/packetSize=200/sController=CACC/2/0
attr iterationvarsf nCars=9,platoonSize=9,nLanes=1,ploegH=0.5,controller=1,headway=0.1,leaderHeadway=1.2,leaderSpeed=130,breakRanksSafetyDistance=3,minSpeed=120,maxSpeed=140,beaconInterval=0.1,priority=4,packetSize=200,sController=CACC,2,0-
attr measurement "$nCars=9, $platoonSize=9, $nLanes=1, $ploegH=0.5, $controller=1, $headway=0.1, $leaderHeadway=1.2, $leaderSpeed=130, $breakRanksSafetyDistance=3, $minSpeed=120, $maxSpeed=140, $beaconInterval=0.1, $priority=4, $packetSize=200, $sController=\"CACC\", $0=2, $1=0"
attr network Highway
attr processid 290707
attr repetition 3
attr replication #3
attr resultdir results
attr runnumber 813
attr seedset 3
itervar beaconInterval 0.1
itervar breakRanksSafetyDistance 3
itervar controller 1
itervar headway 0.1
itervar leaderHeadway 1.2
itervar leaderSpeed 130
itervar maxSpeed 140
itervar minSpeed 120
itervar nCars 9
itervar nLanes 1
itervar packetSize 200
itervar platoonSize 9
itervar ploegH 0.5
itervar priority 4
itervar sController "\"CACC\""
config image-path ../../../veins/images
config repeat 10
config extends BreakRanks
config *.manager.command "\"sumo\""
config *.manager.ignoreGuiCommands true
config output-vector-file "results/BreakRanks_1_0.1_130_3_9 /result_3.vec"
config output-scalar-file "results/BreakRanks_1_0.1_130_3_9 /result_3.sca"
config extends Platooning
config *.node[*].scenario_type "\"BreakRanksScenario\""
config *.manager.command "\"sumo-gui\""
config *.node[*].scenario_type "\"SimpleScenario\""
config cmdenv-express-mode true
config cmdenv-autoflush true
config cmdenv-status-frequency 15s
config num-rngs 6
config network Highway
config debug-on-errors true
config print-undisposed true
config *.playgroundSizeX 65000m
config *.playgroundSizeY 25000m
config *.playgroundSizeZ 50m
config sim-time-limit "100 s"
config *.annotations.draw false
config *.obstacles.debug false
config *.world.useTorus false
config *.world.use2D false
config *.manager.updateInterval 0.01s
config *.manager.host "\"localhost\""
config *.manager.moduleType "\"org.car2x.plexe.PlatoonCar\""
config *.manager.moduleName "\"node\""
config *.manager.moduleDisplayString "\"\""
config *.manager.autoShutdown true
config *.manager.margin 25
config *.connectionManager.sendDirect true
config *.connectionManager.maxInterfDist 2600m
config *.connectionManager.drawMaxIntfDist false
config *.**.nic.mac1609_4.useServiceChannel false
config *.**.nic.mac1609_4.txPower 100mW
config *.**.nic.mac1609_4.bitrate 6Mbps
config *.**.nic.mac1609_4.useAcks true
config *.**.nic.mac1609_4.ackErrorRate 0.0
config *.**.nic.mac1609_4.frameErrorRate 0.0
config *.**.nic.phy80211p.minPowerLevel -94dBm
config *.**.nic.phy80211p.maxTXPower 100mW
config *.**.nic.phy80211p.useNoiseFloor true
config *.**.nic.phy80211p.noiseFloor -95dBm
config *.**.nic.phy80211p.decider "xmldoc(\"config.xml\")"
config *.**.nic.phy80211p.analogueModels "xmldoc(\"config.xml\")"
config *.**.nic.phy80211p.usePropagationDelay true
config *.node[*].mobility.x 0
config *.node[*].mobility.y 0
config *.node[*].mobility.z 1.895
config seed-set 3
config **.seed 3
config *.node[*].prot.rng-0 2
config *.node[*].appl.rng-0 3
config *.node[*].scenario.rng-0 4
config **.traffic.rng-0 5
config *.manager.configFile "\"./sumocfg/freeway.sumo.cfg\""
config *.manager.launchConfig "xmldoc(\"./sumocfg/freeway.launchd.xml\")"
config **.numberOfCars 9
config **.numberOfCarsPerPlatoon 9
config **.numberOfLanes 1
config *.node[*].helper_type "\"PositionHelper\""
config *.node[*].scenario.caccC1 0.5
config *.node[*].scenario.caccXi 1
config *.node[*].scenario.caccOmegaN "0.2 Hz"
config *.node[*].scenario.caccSpacing "2 m"
config *.node[*].scenario.engineTau "0.5 s"
config *.node[*].scenario.ploegH 0.5s
config *.node[*].scenario.ploegKp 0.2
config *.node[*].scenario.ploegKd 0.7
config *.node[*].scenario.useRealisticEngine false
config *.node[*].scenario.useControllerAcceleration true
config *.node[*].scenario.nLanes 1
config **.numericController 1
config **.headway 0.1s
config *.node[*].scenario.accHeadway 0.1s
config *.node[*].scenario.leaderHeadway 1.2s
config *.node[*].scenario.leaderSpeed 130kmph
config *.node[*].appl_type "\"SimplePlatooningApp\""
config *.node[*].appl.*.scalar-recording true
config *.node[*].appl.*.vector-recording true
config *.node[0].appl.breakRanksSafetyDistance 3m
config *.node[*].appl.minSpeed 120kmph
config *.node[*].appl.maxSpeed 140kmph
config *.node[*].protocol_type "\"SimplePlatooningBeaconing\""
config *.node[*].prot.*.scalar-recording true
config *.node[*].prot.*.vector-recording true
config *.node[*].prot.beaconingInterval 0.1s
config *.node[*].prot.priority 4
config *.node[*].prot.packetSize 200
config **.traffic_type "\"PlatoonsTrafficManager\""
config **.traffic.platoonInsertTime "1 s"
config **.traffic.platoonInsertSpeed 130kmph
config **.traffic.nCars 9
config **.traffic.platoonSize 9
config **.traffic.nLanes 1
config **.traffic.platooningVType "\"vtypeauto\""
config **.traffic.controller "\"CACC\""
config **.traffic.platoonInsertDistance 2m
config **.traffic.platoonInsertHeadway 0s
config **.traffic.platoonLeaderHeadway 1.2s
config **.scalar-recording false
config **.vector-recording false

vector 0 Highway.node[0].appl distance ETV
vector 1 Highway.node[0].appl relativeSpeed ETV
vector 2 Highway.node[0].appl nodeId ETV
vector 3 Highway.node[0].appl acceleration ETV
vector 4 Highway.node[0].appl controllerAcceleration ETV
vector 5 Highway.node[0].appl speed ETV
vector 6 Highway.node[0].appl posx ETV
vector 7 Highway.node[0].appl posy ETV
vector 8 Highway.node[1].appl distance ETV
vector 9 Highway.node[1].appl relativeSpeed ETV
vector 10 Highway.node[1].appl nodeId ETV
vector 11 Highway.node[1].appl acceleration ETV
vector 12 Highway.node[1].appl controllerAcceleration ETV
vector 13 Highway.node[1].appl speed ETV
vector 14 Highway.node[1].appl posx ETV
vector 15 Highway.node[1].appl posy ETV
vector 16 Highway.node[2].appl distance ETV
vector 17 Highway.node[2].appl relativeSpeed ETV
vector 18 Highway.node[2].appl nodeId ETV
vector 19 Highway.node[2].appl acceleration ETV
vector 20 Highway.node[2].appl controllerAcceleration ETV
vector 21 Highway.node[2].appl speed ETV
vector 22 Highway.node[2].appl posx ETV
vector 23 Highway.node[2].appl posy ETV
vector 24 Highway.node[3].appl distance ETV
vector 25 Highway.node[3].appl relativeSpeed ETV
vector 26 Highway.node[3].appl nodeId ETV
vector 27 Highway.node[3].appl acceleration ETV
vector 28 Highway.node[3].appl controllerAcceleration ETV
vector 29 Highway.node[3].appl speed ETV
vector 30 Highway.node[3].appl posx ETV
vector 31 Highway.node[3].appl posy ETV
vector 32 Highway.node[4].appl distance ETV
vector 33 Highway.node[4].appl relativeSpeed ETV
vector 34 Highway.node[4].appl nodeId ETV
vector 35 Highway.node[4].appl acceleration ETV
vector 36 Highway.node[4].appl controllerAcceleration ETV
vector 37 Highway.node[4].appl speed ETV
vector 38 Highway.node[4].appl posx ETV
vector 39 Highway.node[4].appl posy ETV
vector 40 Highway.node[5].appl distance ETV
vector 41 Highway.node[5].appl relativeSpeed ETV
vector 42 Highway.node[5].appl nodeId ETV
vector 43 Highway.node[5].appl acceleration ETV
vector 44 Highway.node[5].appl controllerAcceleration ETV
vector 45 Highway.node[5].appl speed ETV
vector 46 Highway.node[5].appl posx ETV
vector 47 Highway.node[5].appl posy ETV
vector 48 Highway.node[6].appl distance ETV
vector 49 Highway.node[6].appl relativeSpeed ETV
vector 50 Highway.node[6].appl nodeId ETV
vector 51 Highway.node[6].appl acceleration ETV
vector 52 Highway.node[6].appl controllerAcceleration ETV
vector 53 Highway.node[6].appl speed ETV
vector 54 Highway.node[6].appl posx ETV
vector 55 Highway.node[6].appl posy ETV
vector 56 Highway.node[7].appl distance ETV
vector 57 Highway.node[7].appl relativeSpeed ETV
vector 58 Highway.node[7].appl nodeId ETV
vector 59 Highway.node[7].appl acceleration ETV
vector 60 Highway.node[7].appl controllerAcceleration ETV
vector 61 Highway.node[7].appl speed ETV
vector 62 Highway.node[7].appl posx ETV
vector 63 Highway.node[7].appl posy ETV
vector 64 Highway.node[8].appl distance ETV
vector 65 Highway.node[8].appl relativeSpeed ETV
vector 66 Highway.node[8].appl nodeId ETV
vector 67 Highway.node[8].appl acceleration ETV
vector 68 Highway.node[8].appl controllerAcceleration ETV
vector 69 Highway.node[8].appl speed ETV
vector 70 Highway.node[8].appl posx ETV
vector 71 Highway.node[8].appl posy ETV
vector 72 Highway.node[1].prot leaderDelay ETV
vector 73 Highway.node[1].prot leaderDelayId ETV
vector 74 Highway.node[1].prot frontDelay ETV
vector 75 Highway.node[1].prot frontDelayId ETV
vector 76 Highway.node[2].prot leaderDelay ETV
vector 77 Highway.node[2].prot leaderDelayId ETV
vector 78 Highway.node[3].prot leaderDelay ETV
vector 79 Highway.node[3].prot leaderDelayId ETV
vector 80 Highway.node[4].prot leaderDelay ETV
vector 81 Highway.node[4].prot leaderDelayId ETV
vector 82 Highway.node[5].prot leaderDelay ETV
vector 83 Highway.node[5].prot leaderDelayId ETV
vector 84 Highway.node[6].prot leaderDelay ETV
vector 85 Highway.node[6].prot leaderDelayId ETV
vector 86 Highway.node[7].prot leaderDelay ETV
vector 87 Highway.node[7].prot leaderDelayId ETV
vector 88 Highway.node[8].prot leaderDelay ETV
vector 89 Highway.node[8].prot leaderDelayId ETV
vector 90 Highway.node[8].prot frontDelay ETV
vector 91 Highway.node[8].prot frontDelayId ETV
vector 92 Highway.node[7].prot frontDelay ETV
vector 93 Highway.node[7].prot frontDelayId ETV
vector 94 Highway.node[2].prot frontDelay ETV
vector 95 Highway.node[2].prot frontDelayId ETV
vector 96 Highway.node[5].prot frontDelay ETV
vector 97 Highway.node[5].prot frontDelayId ETV
vector 98 Highway.node[3].prot frontDelay ETV
vector 99 Highway.node[3].prot frontDelayId ETV
vector 100 Highway.node[6].prot frontDelay ETV
vector 101 Highway.node[6].prot frontDelayId ETV
vector 102 Highway.node[4].prot frontDelay ETV
vector 103 Highway.node[4].prot frontDelayId ETV
vector 104 Highway.node[0].prot nodeId ETV
vector 105 Highway.node[0].prot busyTime ETV
vector 106 Highway.node[0].prot collisions ETV
vector 107 Highway.node[1].prot nodeId ETV
vector 108 Highway.node[1].prot busyTime ETV
vector 109 Highway.node[1].prot collisions ETV
vector 110 Highway.node[2].prot nodeId ETV
vector 111 Highway.node[2].prot busyTime ETV
vector 112 Highway.node[2].prot collisions ETV
vector 113 Highway.node[3].prot nodeId ETV
vector 114 Highway.node[3].prot busyTime ETV
vector 115 Highway.node[3].prot collisions ETV
vector 116 Highway.node[4].prot nodeId ETV
vector 117 Highway.node[4].prot busyTime ETV
vector 118 Highway.node[4].prot collisions ETV
vector 119 Highway.node[5].prot nodeId ETV
vector 120 Highway.node[5].prot busyTime ETV
vector 121 Highway.node[5].prot collisions ETV
vector 122 Highway.node[6].prot nodeId ETV
vector 123 Highway.node[6].prot busyTime ETV
vector 124 Highway.node[6].prot collisions ETV
vector 125 Highway.node[7].prot nodeId ETV
vector 126 Highway.node[7].prot busyTime ETV
vector 127 Highway.node[7].prot collisions ETV
vector 128 Highway.node[8].prot nodeId ETV
vector 129 Highway.node[8].prot busyTime ETV
vector 130 Highway.node[8].prot collisions ETV
0	113	1.11	-1
0	798	1.21	-1
0	1483	1.31	-1
0	2168	1.41	-1
0	2853	1.51	-1
0	3538	1.61	-1
0	4223	1.71	-1
0	4908	1.81	-1
0	5593	1.91	-1
0	6287	2.01	-1
0	6972	2.11	-1
0	7657	2.21	-1
0	8342	2.31	-1
0	9027	2.41	-1
0	9712	2.51	-1
0	10397	2.61	-1
0	11082	2.71	-1
0	11767	2.81	-1
0	12452	2.91	-1
0	13146	3.01	-1
0	13831	3.11	-1
0	14516	3.21	-1
0	15201	3.31	-1
0	15886	3.41	-1
0	16571	3.51	-1
0	17256	3.61	-1
0	17941	3.71	-1
0	18626	3.81	-1
0	19311	3.91	-1
0	20005	4.01	-1
0	20690	4.11	-1
0	21375	4.21	-1
0	22060	4.31	-1
0	22745	4.41	-1
0	23430	4.51	-1
0	24115	4.61	-1
0	24800	4.71	-1
0	25485	4.81	-1
0	26170	4.91	-1
0	26864	5.01	-1
0	27549	5.11	-1
0	28234	5.21	-1
0	28919	5.31	-1
0	29604	5.41	-1
0	30289	5.51	-1
0	30974	5.61	-1
0	31659	5.71	-1
0	32344	5.81	-1
0	33029	5.91	-1
0	33723	6.01	-1
0	34408	6.11	-1
0	35093	6.21	-1
0	35778	6.31	-1
0	36463	6.41	-1
0	37148	6.51	-1
0	37833	6.61	-1
0	38518	6.71	-1
0	39203	6.81	-1
0	39888	6.91	-1
0	40582	7.01	-1
0	41267	7.11	-1
0	41952	7.21	-1
0	42637	7.31	-1
0	43322	7.41	-1
0	44007	7.51	-1
0	44692	7.61	-1
0	45377	7.71	-1
0	46062	7.81	-1
0	46747	7.91	-1
0	47441	8.01	-1
0	48126	8.11	-1
0	48811	8.21	-1
0	49496	8.31	-1
0	50181	8.41	-1
0	50866	8.51	-1
0	51551	8.61	-1
0	52236	8.71	-1
0	52921	8.81	-1
0	53606	8.91	-1
0	54300	9.01	-1
0	54985	9.11	-1
0	55670	9.21	-1
0	56355	9.31	-1
0	57040	9.41	-1
0	57725	9.51	-1
0	58410	9.61	-1
0	59095	9.71	-1
0	59780	9.81	-1
0	60465	9.91	-1
0	61242	10.01	-1
0	61935	10.11	-1
0	62628	10.21	-1
0	63321	10.31	-1
0	64014	10.41	-1
0	64707	10.51	-1
0	65400	10.61	-1
0	66093	10.71	-1
0	66786	10.81	-1
0	67479	10.91	-1
0	68181	11.01	-1
0	68874	11.11	-1
0	69567	11.21	-1
0	70260	11.31	-1
0	70953	11.41	-1
0	71646	11.51	-1
0	72339	11.61	-1
0	73032	11.71	-1
0	73725	11.81	-1
0	74418	11.91	-1
0	75120	12.01	-1
0	75813	12.11	-1
0	76506	12.21	-1
0	77199	12.31	-1
0	77892	12.41	-1
0	78585	12.51	-1
0	79278	12.61	-1
0	79971	12.71	-1
0	80664	12.81	-1
0	81357	12.91	-1
0	82059	13.01	-1
0	82752	13.11	-1
0	83445	13.21	-1
0	84138	13.31	-1
0	84831	13.41	-1
0	85524	13.51	-1
0	86217	13.61	-1
0	86910	13.71	-1
0	87603	13.81	-1
0	88296	13.91	-1
0	88998	14.01	-1
0	89691	14.11	-1
0	90384	14.21	-1
0	91077	14.31	-1
0	91770	14.41	-1
0	92463	14.51	-1
0	93156	14.61	-1
0	93849	14.71	-1
0	94542	14.81	-1
0	95235	14.91	-1
0	95937	15.01	-1
0	96630	15.11	-1
0	97323	15.21	-1
0	98016	15.31	-1
0	98709	15.41	-1
0	99402	15.51	-1
0	100095	15.61	-1
0	100788	15.71	-1
0	101481	15.81	-1
0	102174	15.91	-1
0	102876	16.01	-1
0	103569	16.11	-1
0	104262	16.21	-1
0	104955	16.31	-1
0	105648	16.41	-1
0	106341	16.51	-1
0	107034	16.61	-1
0	107727	16.71	-1
0	108420	16.81	-1
0	109113	16.91	-1
0	109815	17.01	-1
0	110508	17.11	-1
0	111201	17.21	-1
0	111894	17.31	-1
0	112587	17.41	-1
0	113280	17.51	-1
0	113973	17.61	-1
0	114666	17.71	-1
0	115359	17.81	-1
0	116052	17.91	-1
0	116754	18.01	-1
0	117447	18.11	-1
0	118140	18.21	-1
0	118833	18.31	-1
0	119526	18.41	-1
0	120219	18.51	-1
0	120912	18.61	-1
0	121605	18.71	-1
0	122298	18.81	-1
0	122991	18.91	-1
0	123693	19.01	-1
0	124386	19.11	-1
0	125079	19.21	-1
0	125772	19.31	-1
0	126465	19.41	-1
0	127158	19.51	-1
0	127851	19.61	-1
0	128544	19.71	-1
0	129237	19.81	-1
0	129930	19.91	-1
0	130632	20.01	-1
0	131325	20.11	-1
0	132018	20.21	-1
0	132711	20.31	-1
0	133404	20.41	-1
0	134097	20.51	-1
0	134790	20.61	-1
0	135483	20.71	-1
0	136176	20.81	-1
0	136869	20.91	-1
0	137571	21.01	-1
0	138264	21.11	-1
0	138957	21.21	-1
0	139650	21.31	-1
0	140343	21.41	-1
0	141036	21.51	-1
0	141729	21.61	-1
0	142422	21.71	-1
0	143115	21.81	-1
0	143808	21.91	-1
0	144510	22.01	-1
0	145203	22.11	-1
0	145896	22.21	-1
0	146589	22.31	-1
0	147282	22.41	-1
0	147975	22.51	-1
0	148668	22.61	-1
0	149361	22.71	-1
0	150054	22.81	-1
0	150747	22.91	-1
0	151449	23.01	-1
0	152142	23.11	-1
0	152835	23.21	-1
0	153528	23.31	-1
0	154221	23.41	-1
0	154914	23.51	-1
0	155607	23.61	-1
0	156300	23.71	-1
0	156993	23.81	-1
0	157686	23.91	-1
0	158388	24.01	-1
0	159081	24.11	-1
0	159774	24.21	-1
0	160467	24.31	-1
0	161160	24.41	-1
0	161853	24.51	-1
0	162546	24.61	-1
0	163239	24.71	-1
0	163932	24.81	-1
0	164625	24.91	-1
0	165327	25.01	-1
0	166020	25.11	-1
0	166713	25.21	-1
0	167406	25.31	-1
0	168099	25.41	-1
0	168792	25.51	-1
0	169485	25.61	-1
0	170178	25.71	-1
0	170871	25.81	-1
0	171564	25.91	-1
0	172266	26.01	-1
0	172959	26.11	-1
0	173652	26.21	-1
0	174345	26.31	-1
0	175038	26.41	-1
0	175731	26.51	-1
0	176424	26.61	-1
0	177117	26.71	-1
0	177810	26.81	-1
0	178503	26.91	-1
0	179205	27.01	-1
0	179898	27.11	-1
0	180591	27.21	-1
0	181284	27.31	-1
0	181977	27.41	-1
0	182670	27.51	-1
0	183363	27.61	-1
0	184056	27.71	-1
0	184749	27.81	-1
0	185442	27.91	-1
0	186144	28.01	-1
0	186837	28.11	-1
0	187530	28.21	-1
0	188223	28.31	-1
0	188916	28.41	-1
0	189609	28.51	-1
0	190302	28.61	-1
0	190995	28.71	-1
0	191688	28.81	-1
0	192381	28.91	-1
0	193083	29.01	-1
0	193776	29.11	-1
0	194469	29.21	-1
0	195265	29.31	-1
0	195957	29.41	-1
0	196649	29.51	-1
0	197341	29.61	-1
0	198033	29.71	-1
0	198725	29.81	-1
0	199417	29.91	-1
0	200118	30.01	-1
0	200810	30.11	-1
0	201502	30.21	-1
0	202194	30.31	-1
0	202886	30.41	-1
0	203578	30.51	-1
0	204270	30.61	-1
0	204962	30.71	-1
0	205654	30.81	-1
0	206346	30.91	-1
0	207047	31.01	-1
0	207739	31.11	-1
0	208431	31.21	-1
0	209123	31.31	-1
0	209815	31.41	-1
0	210507	31.51	-1
0	211199	31.61	-1
0	211891	31.71	-1
0	212583	31.81	-1
0	213275	31.91	-1
0	213976	32.01	-1
0	214668	32.11	-1
0	215360	32.21	-1
0	216052	32.31	-1
0	216744	32.41	-1
0	217436	32.51	-1
0	218128	32.61	-1
0	218820	32.71	-1
0	219512	32.81	-1
0	220204	32.91	-1
0	220905	33.01	-1
0	221597	33.11	-1
0	222289	33.21	-1
0	222981	33.31	-1
0	223673	33.41	-1
0	224468	33.51	-1
0	225159	33.61	-1
0	225850	33.71	-1
0	226541	33.81	-1
0	227232	33.91	-1
0	227932	34.01	-1
0	228623	34.11	-1
0	229314	34.21	-1
0	230005	34.31	-1
0	230696	34.41	-1
0	231387	34.51	-1
0	232078	34.61	-1
0	232769	34.71	-1
0	233460	34.81	-1
0	234151	34.91	-1
0	234851	35.01	-1
0	235542	35.11	-1
0	236233	35.21	-1
0	236924	35.31	-1
0	237615	35.41	-1
0	238306	35.51	-1
0	238997	35.61	-1
0	239688	35.71	-1
0	240379	35.81	-1
0	241070	35.91	-1
0	241770	36.01	-1
0	242461	36.11	-1
0	243152	36.21	-1
0	243843	36.31	-1
0	244534	36.41	-1
0	245225	36.51	-1
0	245916	36.61	-1
0	246607	36.71	-1
0	247298	36.81	-1
0	247989	36.91	-1
0	248689	37.01	-1
0	249380	37.11	-1
0	250071	37.21	-1
0	250762	37.31	-1
0	251453	37.41	-1
0	252247	37.51	-1
0	252937	37.61	-1
0	253627	37.71	-1
0	254317	37.81	-1
0	255007	37.91	-1
0	255706	38.01	-1
0	256396	38.11	-1
0	257086	38.21	-1
0	257776	38.31	-1
0	258466	38.41	-1
0	259156	38.51	-1
0	259846	38.61	-1
0	260536	38.71	-1
0	261226	38.81	-1
0	261916	38.91	-1
0	262615	39.01	-1
0	263305	39.11	-1
0	263995	39.21	-1
0	264685	39.31	-1
0	265375	39.41	-1
0	266065	39.51	-1
0	266755	39.61	-1
0	267445	39.71	-1
0	268135	39.81	-1
0	268825	39.91	-1
0	269524	40.01	-1
0	270214	40.11	-1
0	270904	40.21	-1
0	271594	40.31	-1
0	272284	40.41	-1
0	272974	40.51	-1
0	273664	40.61	-1
0	274354	40.71	-1
0	275044	40.81	-1
0	275734	40.91	-1
0	276433	41.01	-1
0	277123	41.11	-1
0	277813	41.21	-1
0	278606	41.31	-1
0	279295	41.41	-1
0	279984	41.51	-1
0	280673	41.61	-1
0	281362	41.71	-1
0	282051	41.81	-1
0	282740	41.91	-1
0	283438	42.01	-1
0	284127	42.11	-1
0	284816	42.21	-1
0	285505	42.31	-1
0	286194	42.41	-1
0	286883	42.51	-1
0	287572	42.61	-1
0	288261	42.71	-1
0	288950	42.81	-1
0	289639	42.91	-1
0	290337	43.01	-1
0	291026	43.11	-1
0	291715	43.21	-1
0	292404	43.31	-1
0	293093	43.41	-1
0	293782	43.51	-1
0	294471	43.61	-1
0	295160	43.71	-1
0	295849	43.81	-1
0	296538	43.91	-1
0	297236	44.01	-1
0	297925	44.11	-1
0	298614	44.21	-1
0	299303	44.31	-1
0	299992	44.41	-1
0	300681	44.51	-1
0	301370	44.61	-1
0	302059	44.71	-1
0	302748	44.81	-1
0	303437	44.91	-1
0	304238	45.01	-1
0	304926	45.11	-1
0	305614	45.21	-1
0	306302	45.31	-1
0	306990	45.41	-1
0	307678	45.51	-1
0	308366	45.61	-1
0	309054	45.71	-1
0	309742	45.81	-1
0	310430	45.91	-1
0	311127	46.01	-1
0	311815	46.11	-1
0	312503	46.21	-1
0	313191	46.31	-1
0	313879	46.41	-1
0	314567	46.51	-1
0	315255	46.61	-1
0	315943	46.71	-1
0	316631	46.81	-1
0	317319	46.91	-1
0	318016	47.01	-1
0	318704	47.11	-1
0	319392	47.21	-1
0	320080	47.31	-1
0	320768	47.41	-1
0	321456	47.51	-1
0	322144	47.61	-1
0	322832	47.71	-1
0	323520	47.81	-1
0	324208	47.91	-1
0	324905	48.01	-1
0	325593	48.11	-1
0	326281	48.21	-1
0	326969	48.31	-1
0	327657	48.41	-1
0	328345	48.51	-1
0	329136	48.61	-1
0	329823	48.71	-1
0	330510	48.81	-1
0	331197	48.91	-1
0	331893	49.01	-1
0	332580	49.11	-1
0	333267	49.21	-1
0	333954	49.31	-1
0	334641	49.41	-1
0	335328	49.51	-1
0	336015	49.61	-1
0	336702	49.71	-1
0	337389	49.81	-1
0	338076	49.91	-1
0	338772	50.01	-1
0	339459	50.11	-1
0	340146	50.21	-1
0	340833	50.31	-1
0	341520	50.41	-1
0	342207	50.51	-1
0	342894	50.61	-1
0	343581	50.71	-1
0	344268	50.81	-1
0	344955	50.91	-1
0	345651	51.01	-1
0	346338	51.11	-1
0	347025	51.21	-1
0	347712	51.31	-1
0	348399	51.41	-1
0	349086	51.51	-1
0	349773	51.61	-1
0	350460	51.71	-1
0	351147	51.81	-1
0	351834	51.91	-1
0	352530	52.01	-1
0	353320	52.11	-1
0	354006	52.21	-1
0	354692	52.31	-1
0	355378	52.41	-1
0	356064	52.51	-1
0	356750	52.61	-1
0	357436	52.71	-1
0	358122	52.81	-1
0	358808	52.91	-1
0	359503	53.01	-1
0	360189	53.11	-1
0	360875	53.21	-1
0	361561	53.31	-1
0	362247	53.41	-1
0	362933	53.51	-1
0	363619	53.61	-1
0	364305	53.71	-1
0	364991	53.81	-1
0	365677	53.91	-1
0	366372	54.01	-1
0	367058	54.11	-1
0	367744	54.21	-1
0	368430	54.31	-1
0	369116	54.41	-1
0	369802	54.51	-1
0	370488	54.61	-1
0	371174	54.71	-1
0	371860	54.81	-1
0	372546	54.91	-1
0	373241	55.01	-1
0	373927	55.11	-1
0	374613	55.21	-1
0	375299	55.31	-1
0	375985	55.41	-1
0	376671	55.51	-1
0	378284	55.61	-1
0	378969	55.71	-1
0	379654	55.81	-1
0	380339	55.91	-1
0	381033	56.01	-1
0	381718	56.11	-1
0	382403	56.21	-1
0	383088	56.31	-1
0	383773	56.41	-1
0	384458	56.51	-1
0	385143	56.61	-1
0	385828	56.71	-1
0	386513	56.81	-1
0	387198	56.91	-1
0	387892	57.01	-1
0	388577	57.11	-1
0	389262	57.21	-1
0	389947	57.31	-1
0	390632	57.41	-1
0	391317	57.51	-1
0	392002	57.61	-1
0	392687	57.71	-1
0	393372	57.81	-1
0	394057	57.91	-1
0	394751	58.01	-1
0	395436	58.11	-1
0	396121	58.21	-1
0	396806	58.31	-1
0	397491	58.41	-1
0	398176	58.51	-1
0	398861	58.61	-1
0	399546	58.71	-1
0	400231	58.81	-1
0	400916	58.91	-1
0	401610	59.01	-1
0	402295	59.11	-1
0	402980	59.21	-1
0	403665	59.31	-1
0	404350	59.41	-1
0	405035	59.51	-1
0	405720	59.61	-1
0	406405	59.71	-1
0	407090	59.81	-1
0	407775	59.91	-1
0	408469	60.01	-1
0	409154	60.11	-1
0	409839	60.21	-1
0	410524	60.31	-1
0	411209	60.41	-1
0	411894	60.51	-1
0	412579	60.61	-1
0	413264	60.71	-1
0	413949	60.81	-1
0	414634	60.91	-1
0	415328	61.01	-1
0	416013	61.11	-1
0	416698	61.21	-1
0	417383	61.31	-1
0	418068	61.41	-1
0	418753	61.51	-1
0	419438	61.61	-1
0	420123	61.71	-1
0	420808	61.81	-1
0	421493	61.91	-1
0	422187	62.01	-1
0	422872	62.11	-1
0	423557	62.21	-1
0	424242	62.31	-1
0	424927	62.41	-1
0	425612	62.51	-1
0	426297	62.61	-1
0	426982	62.71	-1
0	427667	62.81	-1
0	428352	62.91	-1
0	429046	63.01	-1
0	429731	63.11	-1
0	430416	63.21	-1
0	431101	63.31	-1
0	431786	63.41	-1
0	432471	63.51	-1
0	433156	63.61	-1
0	433841	63.71	-1
0	434526	63.81	-1
0	435211	63.91	-1
0	435905	64.01	-1
0	436590	64.11	-1
0	437275	64.21	-1
0	437960	64.31	-1
0	438645	64.41	-1
0	439330	64.51	-1
0	440015	64.61	-1
0	440700	64.71	-1
0	441385	64.81	-1
0	442070	64.91	-1
0	442764	65.01	-1
0	443449	65.11	-1
0	444134	65.21	-1
0	444819	65.31	-1
0	445504	65.41	-1
0	446189	65.51	-1
0	446874	65.61	-1
0	447559	65.71	-1
0	448244	65.81	-1
0	448929	65.91	-1
0	449623	66.01	-1
0	450308	66.11	-1
0	450993	66.21	-1
0	451678	66.31	-1
0	452363	66.41	-1
0	453048	66.51	-1
0	453733	66.61	-1
0	454418	66.71	-1
0	455103	66.81	-1
0	455788	66.91	-1
0	456482	67.01	-1
0	457167	67.11	-1
0	457852	67.21	-1
0	458537	67.31	-1
0	459222	67.41	-1
0	459907	67.51	-1
0	460592	67.61	-1
0	461277	67.71	-1
0	461962	67.81	-1
0	462647	67.91	-1
0	463341	68.01	-1
0	464026	68.11	-1
0	464711	68.21	-1
0	465396	68.31	-1
0	466081	68.41	-1
0	466766	68.51	-1
0	467451	68.61	-1
0	468136	68.71	-1
0	468821	68.81	-1
0	469506	68.91	-1
0	470200	69.01	-1
0	470885	69.11	-1
0	471570	69.21	-1
0	472255	69.31	-1
0	472940	69.41	-1
0	473625	69.51	-1
0	474310	69.61	-1
0	474995	69.71	-1
0	475680	69.81	-1
0	476365	69.91	-1
0	477059	70.01	-1
0	477744	70.11	-1
0	478429	70.21	-1
0	479114	70.31	-1
0	479799	70.41	-1
0	480484	70.51	-1
0	481169	70.61	-1
0	481854	70.71	-1
0	482539	70.81	-1
0	483224	70.91	-1
0	483918	71.01	-1
0	484603	71.11	-1
0	485288	71.21	-1
0	485973	71.31	-1
0	486658	71.41	-1
0	487343	71.51	-1
0	488028	71.61	-1
0	488713	71.71	-1
0	489398	71.81	-1
0	490083	71.91	-1
0	490777	72.01	-1
0	491462	72.11	-1
0	492147	72.21	-1
0	492832	72.31	-1
0	493517	72.41	-1
0	494202	72.51	-1
0	494887	72.61	-1
0	495572	72.71	-1
0	496257	72.81	-1
0	496942	72.91	-1
0	497636	73.01	-1
0	498321	73.11	-1
0	499006	73.21	-1
0	499691	73.31	-1
0	500376	73.41	-1
0	501061	73.51	-1
0	501746	73.61	-1
0	502431	73.71	-1
0	503116	73.81	-1
0	503801	73.91	-1
0	504495	74.01	-1
0	505180	74.11	-1
0	505865	74.21	-1
0	506550	74.31	-1
0	507235	74.41	-1
0	507920	74.51	-1
0	508605	74.61	-1
0	509290	74.71	-1
0	509975	74.81	-1
0	510660	74.91	-1
0	511354	75.01	-1
0	512039	75.11	-1
0	512724	75.21	-1
0	513409	75.31	-1
0	514094	75.41	-1
0	514779	75.51	-1
0	515464	75.61	-1
0	516149	75.71	-1
0	516834	75.81	-1
0	517519	75.91	-1
0	518213	76.01	-1
0	518898	76.11	-1
0	519583	76.21	-1
0	520268	76.31	-1
0	520953	76.41	-1
0	521638	76.51	-1
0	522323	76.61	-1
0	523008	76.71	-1
0	523693	76.81	-1
0	524378	76.91	-1
0	525072	77.01	-1
0	525757	77.11	-1
0	526442	77.21	-1
0	527127	77.31	-1
0	527812	77.41	-1
0	528497	77.51	-1
0	529182	77.61	-1
0	529867	77.71	-1
0	530552	77.81	-1
0	531237	77.91	-1
0	531931	78.01	-1
0	532616	78.11	-1
0	533301	78.21	-1
0	533986	78.31	-1
0	534671	78.41	-1
0	535356	78.51	-1
0	536041	78.61	-1
0	536726	78.71	-1
0	537411	78.81	-1
0	538096	78.91	-1
0	538790	79.01	-1
0	539475	79.11	-1
0	540160	79.21	-1
0	540845	79.31	-1
0	541530	79.41	-1
0	542215	79.51	-1
0	542900	79.61	-1
0	543585	79.71	-1
0	544270	79.81	-1
0	544955	79.91	-1
0	545649	80.01	-1
0	546334	80.11	-1
0	547019	80.21	-1
0	547704	80.31	-1
0	548389	80.41	-1
0	549074	80.51	-1
0	549759	80.61	-1
0	550444	80.71	-1
0	551129	80.81	-1
0	551814	80.91	-1
0	552508	81.01	-1
0	553193	81.11	-1
0	553878	81.21	-1
0	554563	81.31	-1
0	555248	81.41	-1
0	555933	81.51	-1
0	556618	81.61	-1
0	557303	81.71	-1
0	557988	81.81	-1
0	558673	81.91	-1
0	559367	82.01	-1
0	560052	82.11	-1
0	560737	82.21	-1
0	561422	82.31	-1
0	562107	82.41	-1
0	562792	82.51	-1
0	563477	82.61	-1
0	564162	82.71	-1
0	564847	82.81	-1
0	565532	82.91	-1
0	566226	83.01	-1
0	566911	83.11	-1
0	567596	83.21	-1
0	568281	83.31	-1
0	568966	83.41	-1
0	569651	83.51	-1
0	570336	83.61	-1
0	571021	83.71	-1
0	571706	83.81	-1
0	572391	83.91	-1
0	573085	84.01	-1
0	573770	84.11	-1
0	574455	84.21	-1
0	575140	84.31	-1
0	575825	84.41	-1
0	576510	84.51	-1
0	577195	84.61	-1
0	577880	84.71	-1
0	578565	84.81	-1
0	579250	84.91	-1
0	579944	85.01	-1
0	580629	85.11	-1
0	581314	85.21	-1
0	581999	85.31	-1
0	582684	85.41	-1
0	583369	85.51	-1
0	584054	85.61	-1
0	584739	85.71	-1
0	585424	85.81	-1
0	586109	85.91	-1
0	586803	86.01	-1
0	587488	86.11	-1
0	588173	86.21	-1
0	588858	86.31	-1
0	589543	86.41	-1
0	590228	86.51	-1
0	590913	86.61	-1
0	591598	86.71	-1
0	592283	86.81	-1
0	592968	86.91	-1
0	593662	87.01	-1
0	594347	87.11	-1
0	595032	87.21	-1
0	595717	87.31	-1
0	596402	87.41	-1
0	597087	87.51	-1
0	597772	87.61	-1
0	598457	87.71	-1
0	599142	87.81	-1
0	599827	87.91	-1
0	600521	88.01	-1
0	601206	88.11	-1
0	601891	88.21	-1
0	602576	88.31	-1
0	603261	88.41	-1
0	603946	88.51	-1
0	604631	88.61	-1
0	605316	88.71	-1
0	606001	88.81	-1
0	606686	88.91	-1
0	607380	89.01	-1
0	608065	89.11	-1
0	608750	89.21	-1
0	609435	89.31	-1
0	610120	89.41	-1
0	610805	89.51	-1
0	611490	89.61	-1
0	612175	89.71	-1
0	612860	89.81	-1
0	613545	89.91	-1
0	614239	90.01	-1
0	614924	90.11	-1
0	615609	90.21	-1
0	616294	90.31	-1
0	616979	90.41	-1
0	617664	90.51	-1
0	618349	90.61	-1
0	619034	90.71	-1
0	619719	90.81	-1
0	620404	90.91	-1
0	621098	91.01	-1
0	621783	91.11	-1
0	622468	91.21	-1
0	623153	91.31	-1
0	623838	91.41	-1
0	624523	91.51	-1
0	625208	91.61	-1
0	625893	91.71	-1
0	626578	91.81	-1
0	627263	91.91	-1
0	627957	92.01	-1
0	628642	92.11	-1
0	629327	92.21	-1
0	630012	92.31	-1
0	630697	92.41	-1
0	631382	92.51	-1
0	632067	92.61	-1
0	632752	92.71	-1
0	633437	92.81	-1
0	634122	92.91	-1
0	634816	93.01	-1
0	635501	93.11	-1
0	636186	93.21	-1
0	636871	93.31	-1
0	637556	93.41	-1
0	638241	93.51	-1
0	638926	93.61	-1
0	639611	93.71	-1
0	640296	93.81	-1
0	640981	93.91	-1
0	641675	94.01	-1
0	642360	94.11	-1
0	643045	94.21	-1
0	643730	94.31	-1
0	644415	94.41	-1
0	645100	94.51	-1
0	645785	94.61	-1
0	646470	94.71	-1
0	647155	94.81	-1
0	647840	94.91	-1
0	648534	95.01	-1
0	649219	95.11	-1
0	649904	95.21	-1
0	650589	95.31	-1
0	651274	95.41	-1
0	651959	95.51	-1
0	652644	95.61	-1
0	653329	95.71	-1
0	654014	95.81	-1
0	654699	95.91	-1
0	655393	96.01	-1
0	656078	96.11	-1
0	656763	96.21	-1
0	657448	96.31	-1
0	658133	96.41	-1
0	658818	96.51	-1
0	659503	96.61	-1
0	660188	96.71	-1
0	660873	96.81	-1
0	661558	96.91	-1
0	662252	97.01	-1
0	662937	97.11	-1
0	663622	97.21	-1
0	664307	97.31	-1
0	664992	97.41	-1
0	665677	97.51	-1
0	666362	97.61	-1
0	667047	97.71	-1
0	667732	97.81	-1
0	668417	97.91	-1
0	669111	98.01	-1
0	669796	98.11	-1
0	670481	98.21	-1
0	671166	98.31	-1
0	671851	98.41	-1
0	672536	98.51	-1
0	673221	98.61	-1
0	673906	98.71	-1
0	674591	98.81	-1
0	675276	98.91	-1
0	675970	99.01	-1
0	676655	99.11	-1
0	677340	99.21	-1
0	678025	99.31	-1
0	678710	99.41	-1
0	679395	99.51	-1
0	680080	99.61	-1
0	680765	99.71	-1
0	681450	99.81	-1
0	682135	99.91	-1
1	113	1.11	0
1	798	1.21	0
1	1483	1.31	0
1	2168	1.41	0
1	2853	1.51	0
1	3538	1.61	0
1	4223	1.71	0
1	4908	1.81	0
1	5593	1.91	0
1	6287	2.01	0
1	6972	2.11	0
1	7657	2.21	0
1	8342	2.31	0
1	9027	2.41	0
1	9712	2.51	0
1	10397	2.61	0
1	11082	2.71	0
1	11767	2.81	0
1	12452	2.91	0
1	13146	3.01	0
1	13831	3.11	0
1	14516	3.21	0
1	15201	3.31	0
1	15886	3.41	0
1	16571	3.51	0
1	17256	3.61	0
1	17941	3.71	0
1	18626	3.81	0
1	19311	3.91	0
1	20005	4.01	0
1	20690	4.11	0
1	21375	4.21	0
1	22060	4.31	0
1	22745	4.41	0
1	23430	4.51	0
1	24115	4.61	0
1	24800	4.71	0
1	25485	4.81	0
1	26170	4.91	0
1	26864	5.01	0
1	27549	5.11	0
1	28234	5.21	0
1	28919	5.31	0
1	29604	5.41	0
1	30289	5.51	0
1	30974	5.61	0
1	31659	5.71	0
1	32344	5.81	0
1	33029	5.91	0
1	33723	6.01	0
1	34408	6.11	0
1	35093	6.21	0
1	35778	6.31	0
1	36463	6.41	0
1	37148	6.51	0
1	37833	6.61	0
1	38518	6.71	0
1	39203	6.81	0
1	39888	6.91	0
1	40582	7.01	0
1	41267	7.11	0
1	41952	7.21	0
1	42637	7.31	0
1	43322	7.41	0
1	44007	7.51	0
1	44692	7.61	0
1	45377	7.71	0
1	46062	7.81	0
1	46747	7.91	0
1	47441	8.01	0
1	48126	8.11	0
1	48811	8.21	0
1	49496	8.31	0
1	50181	8.41	0
1	50866	8.51	0
1	51551	8.61	0
1	52236	8.71	0
1	52921	8.81	0
1	53606	8.91	0
1	54300	9.01	0
1	54985	9.11	0
1	55670	9.21	0
1	56355	9.31	0
1	57040	9.41	0
1	57725	9.51	0
1	58410	9.61	0
1	59095	9.71	0
1	59780	9.81	0
1	60465	9.91	0
1	61242	10.01	0
1	61935	10.11	0
1	62628	10.21	0
1	63321	10.31	0
1	64014	10.41	0
1	64707	10.51	0
1	65400	10.61	0
1	66093	10.71	0
1	66786	10.81	0
1	67479	10.91	0
1	68181	11.01	0
1	68874	11.11	0
1	69567	11.21	0
1	70260	11.31	0
1	70953	11.41	0
1	71646	11.51	0
1	72339	11.61	0
1	73032	11.71	0
1	73725	11.81	0
1	74418	11.91	0
1	75120	12.01	0
1	75813	12.11	0
1	76506	12.21	0
1	77199	12.31	0
1	77892	12.41	0
1	78585	12.51	0
1	79278	12.61	0
1	79971	12.71	0
1	80664	12.81	0
1	81357	12.91	0
1	82059	13.01	0
1	82752	13.11	0
1	83445	13.21	0
1	84138	13.31	0
1	84831	13.41	0
1	85524	13.51	0
1	86217	13.61	0
1	86910	13.71	0
1	87603	13.81	0
1	88296	13.91	0
1	88998	14.01	0
1	89691	14.11	0
1	90384	14.21	0
1	91077	14.31	0
1	91770	14.41	0
1	92463	14.51	0
1	93156	14.61	0
1	93849	14.71	0
1	94542	14.81	0
1	95235	14.91	0
1	95937	15.01	0
1	96630	15.11	0
1	97323	15.21	0
1	98016	15.31	0
1	98709	15.41	0
1	99402	15.51	0
1	100095	15.61	0
1	100788	15.71	0
1	101481	15.81	0
1	102174	15.91	0
1	102876	16.01	0
1	103569	16.11	0
1	104262	16.21	0
1	104955	16.31	0
1	105648	16.41	0
1	106341	16.51	0
1	107034	16.61	0
1	107727	16.71	0
1	108420	16.81	0
1	109113	16.91	0
1	109815	17.01	0
1	110508	17.11	0
1	111201	17.21	0
1	111894	17.31	0
1	112587	17.41	0
1	113280	17.51	0
1	113973	17.61	0
1	114666	17.71	0
1	115359	17.81	0
1	116052	17.91	0
1	116754	18.01	0
1	117447	18.11	0
1	118140	18.21	0
1	118833	18.31	0
1	119526	18.41	0
1	120219	18.51	0
1	120912	18.61	0
1	121605	18.71	0
1	122298	18.81	0
1	122991	18.91	0
1	123693	19.01	0
1	124386	19.11	0
1	125079	19.21	0
1	125772	19.31	0
1	126465	19.41	0
1	127158	19.51	0
1	127851	19.61	0
1	128544	19.71	0
1	129237	19.81	0
1	129930	19.91	0
1	130632	20.01	0
1	131325	20.11	0
1	132018	20.21	0
1	132711	20.31	0
1	133404	20.41	0
1	134097	20.51	0
1	134790	20.61	0
1	135483	20.71	0
1	136176	20.81	0
1	136869	20.91	0
1	137571	21.01	0
1	138264	21.11	0
1	138957	21.21	0
1	139650	21.31	0
1	140343	21.41	0
1	141036	21.51	0
1	141729	21.61	0
1	142422	21.71	0
1	143115	21.81	0
1	143808	21.91	0
1	144510	22.01	0
1	145203	22.11	0
1	145896	22.21	0
1	146589	22.31	0
1	147282	22.41	0
1	147975	22.51	0
1	148668	22.61	0
1	149361	22.71	0
1	150054	22.81	0
1	150747	22.91	0
1	151449	23.01	0
1	152142	23.11	0
1	152835	23.21	0
1	153528	23.31	0
1	154221	23.41	0
1	154914	23.51	0
1	155607	23.61	0
1	156300	23.71	0
1	156993	23.81	0
1	157686	23.91	0
1	158388	24.01	0
1	159081	24.11	0
1	159774	24.21	0
1	160467	24.31	0
1	161160	24.41	0
1	161853	24.51	0
1	162546	24.61	0
1	163239	24.71	0
1	163932	24.81	0
1	164625	24.91	0
1	165327	25.01	0
1	166020	25.11	0
1	166713	25.21	0
1	167406	25.31	0
1	168099	25.41	0
1	168792	25.51	0
1	169485	25.61	0
1	170178	25.71	0
1	170871	25.81	0
1	171564	25.91	0
1	172266	26.01	0
1	172959	26.11	0
1	173652	26.21	0
1	174345	26.31	0
1	175038	26.41	0
1	175731	26.51	0
1	176424	26.61	0
1	177117	26.71	0
1	177810	26.81	0
1	178503	26.91	0
1	179205	27.01	0
1	179898	27.11	0
1	180591	27.21	0
1	181284	27.31	0
1	181977	27.41	0
1	182670	27.51	0
1	183363	27.61	0
1	184056	27.71	0
1	184749	27.81	0
1	185442	27.91	0
1	186144	28.01	0
1	186837	28.11	0
1	187530	28.21	0
1	188223	28.31	0
1	188916	28.41	0
1	189609	28.51	0
1	190302	28.61	0
1	190995	28.71	0
1	191688	28.81	0
1	192381	28.91	0
1	193083	29.01	0
1	193776	29.11	0
1	194469	29.21	0
1	195265	29.31	0
1	195957	29.41	0
1	196649	29.51	0
1	197341	29.61	0
1	198033	29.71	0
1	198725	29.81	0
1	199417	29.91	0
1	200118	30.01	0
1	200810	30.11	0
1	201502	30.21	0
1	202194	30.31	0
1	202886	30.41	0
1	203578	30.51	0
1	204270	30.61	0
1	204962	30.71	0
1	205654	30.81	0
1	206346	30.91	0
1	207047	31.01	0
1	207739	31.11	0
1	208431	31.21	0
1	209123	31.31	0
1	209815	31.41	0
1	210507	31.51	0
1	211199	31.61	0
1	211891	31.71	0
1	212583	31.81	0
1	213275	31.91	0
1	213976	32.01	0
1	214668	32.11	0
1	215360	32.21	0
1	216052	32.31	0
1	216744	32.41	0
1	217436	32.51	0
1	218128	32.61	0
1	218820	32.71	0
1	219512	32.81	0
1	220204	32.91	0
1	220905	33.01	0
1	221597	33.11	0
1	222289	33.21	0
1	222981	33.31	0
1	223673	33.41	0
1	224468	33.51	0
1	225159	33.61	0
1	225850	33.71	0
1	226541	33.81	0
1	227232	33.91	0
1	227932	34.01	0
1	228623	34.11	0
1	229314	34.21	0
1	230005	34.31	0
1	230696	34.41	0
1	231387	34.51	0
1	232078	34.61	0
1	232769	34.71	0
1	233460	34.81	0
1	234151	34.91	0
1	234851	35.01	0
1	235542	35.11	0
1	236233	35.21	0
1	236924	35.31	0
1	237615	35.41	0
1	238306	35.51	0
1	238997	35.61	0
1	239688	35.71	0
1	240379	35.81	0
1	241070	35.91	0
1	241770	36.01	0
1	242461	36.11	0
1	243152	36.21	0
1	243843	36.31	0
1	244534	36.41	0
1	245225	36.51	0
1	245916	36.61	0
1	246607	36.71	0
1	247298	36.81	0
1	247989	36.91	0
1	248689	37.01	0
1	249380	37.11	0
1	250071	37.21	0
1	250762	37.31	0
1	251453	37.41	0
1	252247	37.51	0
1	252937	37.61	0
1	253627	37.71	0
1	254317	37.81	0
1	255007	37.91	0
1	255706	38.01	0
1	256396	38.11	0
1	257086	38.21	0
1	257776	38.31	0
1	258466	38.41	0
1	259156	38.51	0
1	259846	38.61	0
1	260536	38.71	0
1	261226	38.81	0
1	261916	38.91	0
1	262615	39.01	0
1	263305	39.11	0
1	263995	39.21	0
1	264685	39.31	0
1	265375	39.41	0
1	266065	39.51	0
1	266755	39.61	0
1	267445	39.71	0
1	268135	39.81	0
1	268825	39.91	0
1	269524	40.01	0
1	270214	40.11	0
1	270904	40.21	0
1	271594	40.31	0
1	272284	40.41	0
1	272974	40.51	0
1	273664	40.61	0
1	274354	40.71	0
1	275044	40.81	0
1	275734	40.91	0
1	276433	41.01	0
1	277123	41.11	0
1	277813	41.21	0
1	278606	41.31	0
1	279295	41.41	0
1	279984	41.51	0
1	280673	41.61	0
1	281362	41.71	0
1	282051	41.81	0
1	282740	41.91	0
1	283438	42.01	0
1	284127	42.11	0
1	284816	42.21	0
1	285505	42.31	0
1	286194	42.41	0
1	286883	42.51	0
1	287572	42.61	0
1	288261	42.71	0
1	288950	42.81	0
1	289639	42.91	0
1	290337	43.01	0
1	291026	43.11	0
1	291715	43.21	0
1	292404	43.31	0
1	293093	43.41	0
1	293782	43.51	0
1	294471	43.61	0
1	295160	43.71	0
1	295849	43.81	0
1	296538	43.91	0
1	297236	44.01	0
1	297925	44.11	0
1	298614	44.21	0
1	299303	44.31	0
1	299992	44.41	0
1	300681	44.51	0
1	301370	44.61	0
1	302059	44.71	0
1	302748	44.81	0
1	303437	44.91	0
1	304238	45.01	0
1	304926	45.11	0
1	305614	45.21	0
1	306302	45.31	0
1	306990	45.41	0
1	307678	45.51	0
1	308366	45.61	0
1	309054	45.71	0
1	309742	45.81	0
1	310430	45.91	0
1	311127	46.01	0
1	311815	46.11	0
1	312503	46.21	0
1	313191	46.31	0
1	313879	46.41	0
1	314567	46.51	0
1	315255	46.61	0
1	315943	46.71	0
1	316631	46.81	0
1	317319	46.91	0
1	318016	47.01	0
1	318704	47.11	0
1	319392	47.21	0
1	320080	47.31	0
1	320768	47.41	0
1	321456	47.51	0
1	322144	47.61	0
1	322832	47.71	0
1	323520	47.81	0
1	324208	47.91	0
1	324905	48.01	0
1	325593	48.11	0
1	326281	48.21	0
1	326969	48.31	0
1	327657	48.41	0
1	328345	48.51	0
1	329136	48.61	0
1	329823	48.71	0
1	330510	48.81	0
1	331197	48.91	0
1	331893	49.01	0
1	332580	49.11	0
1	333267	49.21	0
1	333954	49.31	0
1	334641	49.41	0
1	335328	49.51	0
1	336015	49.61	0
1	336702	49.71	0
1	337389	49.81	0
1	338076	49.91	0
1	338772	50.01	0
1	339459	50.11	0
1	340146	50.21	0
1	340833	50.31	0
1	341520	50.41	0
1	342207	50.51	0
1	342894	50.61	0
1	343581	50.71	0
1	344268	50.81	0
1	344955	50.91	0
1	345651	51.01	0
1	346338	51.11	0
1	347025	51.21	0
1	347712	51.31	0
1	348399	51.41	0
1	349086	51.51	0
1	349773	51.61	0
1	350460	51.71	0
1	351147	51.81	0
1	351834	51.91	0
1	352530	52.01	0
1	353320	52.11	0
1	354006	52.21	0
1	354692	52.31	0
1	355378	52.41	0
1	356064	52.51	0
1	356750	52.61	0
1	357436	52.71	0
1	358122	52.81	0
1	358808	52.91	0
1	359503	53.01	0
1	360189	53.11	0
1	360875	53.21	0
1	361561	53.31	0
1	362247	53.41	0
1	362933	53.51	0
1	363619	53.61	0
1	364305	53.71	0
1	364991	53.81	0
1	365677	53.91	0
1	366372	54.01	0
1	367058	54.11	0
1	367744	54.21	0
1	368430	54.31	0
1	369116	54.41	0
1	369802	54.51	0
1	370488	54.61	0
1	371174	54.71	0
1	371860	54.81	0
1	372546	54.91	0
1	373241	55.01	0
1	373927	55.11	0
1	374613	55.21	0
1	375299	55.31	0
1	375985	55.41	0
1	376671	55.51	0
1	378284	55.61	0
1	378969	55.71	0
1	379654	55.81	0
1	380339	55.91	0
1	381033	56.01	0
1	381718	56.11	0
1	382403	56.21	0
1	383088	56.31	0
1	383773	56.41	0
1	384458	56.51	0
1	385143	56.61	0
1	385828	56.71	0
1	386513	56.81	0
1	387198	56.91	0
1	387892	57.01	0
1	388577	57.11	0
1	389262	57.21	0
1	389947	57.31	0
1	390632	57.41	0
1	391317	57.51	0
1	392002	57.61	0
1	392687	57.71	0
1	393372	57.81	0
1	394057	57.91	0
1	394751	58.01	0
1	395436	58.11	0
1	396121	58.21	0
1	396806	58.31	0
1	397491	58.41	0
1	398176	58.51	0
1	398861	58.61	0
1	399546	58.71	0
1	400231	58.81	0
1	400916	58.91	0
1	401610	59.01	0
1	402295	59.11	0
1	402980	59.21	0
1	403665	59.31	0
1	404350	59.41	0
1	405035	59.51	0
1	405720	59.61	0
1	406405	59.71	0
1	407090	59.81	0
1	407775	59.91	0
1	408469	60.01	0
1	409154	60.11	0
1	409839	60.21	0
1	410524	60.31	0
1	411209	60.41	0
1	411894	60.51	0
1	412579	60.61	0
1	413264	60.71	0
1	413949	60.81	0
1	414634	60.91	0
1	415328	61.01	0
1	416013	61.11	0
1	416698	61.21	0
1	417383	61.31	0
1	418068	61.41	0
1	418753	61.51	0
1	419438	61.61	0
1	420123	61.71	0
1	420808	61.81	0
1	421493	61.91	0
1	422187	62.01	0
1	422872	62.11	0
1	423557	62.21	0
1	424242	62.31	0
1	424927	62.41	0
1	425612	62.51	0
1	426297	62.61	0
1	426982	62.71	0
1	427667	62.81	0
1	428352	62.91	0
1	429046	63.01	0
1	429731	63.11	0
1	430416	63.21	0
1	431101	63.31	0
1	431786	63.41	0
1	432471	63.51	0
1	433156	63.61	0
1	433841	63.71	0
1	434526	63.81	0
1	435211	63.91	0
1	435905	64.01	0
1	436590	64.11	0
1	437275	64.21	0
1	437960	64.31	0
1	438645	64.41	0
1	439330	64.51	0
1	440015	64.61	0
1	440700	64.71	0
1	441385	64.81	0
1	442070	64.91	0
1	442764	65.01	0
1	443449	65.11	0
1	444134	65.21	0
1	444819	65.31	0
1	445504	65.41	0
1	446189	65.51	0
1	446874	65.61	0
1	447559	65.71	0
1	448244	65.81	0
1	448929	65.91	0
1	449623	66.01	0
1	450308	66.11	0
1	450993	66.21	0
1	451678	66.31	0
1	452363	66.41	0
1	453048	66.51	0
1	453733	66.61	0
1	454418	66.71	0
1	455103	66.81	0
1	455788	66.91	0
1	456482	67.01	0
1	457167	67.11	0
1	457852	67.21	0
1	458537	67.31	0
1	459222	67.41	0
1	459907	67.51	0
1	460592	67.61	0
1	461277	67.71	0
1	461962	67.81	0
1	462647	67.91	0
1	463341	68.01	0
1	464026	68.11	0
1	464711	68.21	0
1	465396	68.31	0
1	466081	68.41	0
1	466766	68.51	0
1	467451	68.61	0
1	468136	68.71	0
1	468821	68.81	0
1	469506	68.91	0
1	470200	69.01	0
1	470885	69.11	0
1	471570	69.21	0
1	472255	69.31	0
1	472940	69.41	0
1	473625	69.51	0
1	474310	69.61	0
1	474995	69.71	0
1	475680	69.81	0
1	476365	69.91	0
1	477059	70.01	0
1	477744	70.11	0
1	478429	70.21	0
1	479114	70.31	0
1	479799	70.41	0
1	480484	70.51	0
1	481169	70.61	0
1	481854	70.71	0
1	482539	70.81	0
1	483224	70.91	0
1	483918	71.01	0
1	484603	71.11	0
1	485288	71.21	0
1	485973	71.31	0
1	486658	71.41	0
1	487343	71.51	0
1	488028	71.61	0
1	488713	71.71	0
1	489398	71.81	0
1	490083	71.91	0
1	490777	72.01	0
1	491462	72.11	0
1	492147	72.21	0
1	492832	72.31	0
1	493517	72.41	0
1	494202	72.51	0
1	494887	72.61	0
1	495572	72.71	0
1	496257	72.81	0
1	496942	72.91	0
1	497636	73.01	0
1	498321	73.11	0
1	499006	73.21	0
1	499691	73.31	0
1	500376	73.41	0
1	501061	73.51	0
1	501746	73.61	0
1	502431	73.71	0
1	503116	73.81	0
1	503801	73.91	0
1	504495	74.01	0
1	505180	74.11	0
1	505865	74.21	0
1	506550	74.31	0
1	507235	74.41	0
1	507920	74.51	0
1	508605	74.61	0
1	509290	74.71	0
1	509975	74.81	0
1	510660	74.91	0
1	511354	75.01	0
1	512039	75.11	0
1	512724	75.21	0
1	513409	75.31	0
1	514094	75.41	0
1	514779	75.51	0
1	515464	75.61	0
1	516149	75.71	0
1	516834	75.81	0
1	517519	75.91	0
1	518213	76.01	0
1	518898	76.11	0
1	519583	76.21	0
1	520268	76.31	0
1	520953	76.41	0
1	521638	76.51	0
1	522323	76.61	0
1	523008	76.71	0
1	523693	76.81	0
1	524378	76.91	0
1	525072	77.01	0
1	525757	77.11	0
1	526442	77.21	0
1	527127	77.31	0
1	527812	77.41	0
1	528497	77.51	0
1	529182	77.61	0
1	529867	77.71	0
1	530552	77.81	0
1	531237	77.91	0
1	531931	78.01	0
1	532616	78.11	0
1	533301	78.21	0
1	533986	78.31	0
1	534671	78.41	0
1	535356	78.51	0
1	536041	78.61	0
1	536726	78.71	0
1	537411	78.81	0
1	538096	78.91	0
1	538790	79.01	0
1	539475	79.11	0
1	540160	79.21	0
1	540845	79.31	0
1	541530	79.41	0
1	542215	79.51	0
1	542900	79.61	0
1	543585	79.71	0
1	544270	79.81	0
1	544955	79.91	0
1	545649	80.01	0
1	546334	80.11	0
1	547019	80.21	0
1	547704	80.31	0
1	548389	80.41	0
1	549074	80.51	0
1	549759	80.61	0
1	550444	80.71	0
1	551129	80.81	0
1	551814	80.91	0
1	552508	81.01	0
1	553193	81.11	0
1	553878	81.21	0
1	554563	81.31	0
1	555248	81.41	0
1	555933	81.51	0
1	556618	81.61	0
1	557303	81.71	0
1	557988	81.81	0
1	558673	81.91	0
1	559367	82.01	0
1	560052	82.11	0
1	560737	82.21	0
1	561422	82.31	0
1	562107	82.41	0
1	562792	82.51	0
1	563477	82.61	0
1	564162	82.71	0
1	564847	82.81	0
1	565532	82.91	0
1	566226	83.01	0
1	566911	83.11	0
1	567596	83.21	0
1	568281	83.31	0
1	568966	83.41	0
1	569651	83.51	0
1	570336	83.61	0
1	571021	83.71	0
1	571706	83.81	0
1	572391	83.91	0
1	573085	84.01	0
1	573770	84.11	0
1	574455	84.21	0
1	575140	84.31	0
1	575825	84.41	0
1	576510	84.51	0
1	577195	84.61	0
1	577880	84.71	0
1	578565	84.81	0
1	579250	84.91	0
1	579944	85.01	0
1	580629	85.11	0
1	581314	85.21	0
1	581999	85.31	0
1	582684	85.41	0
1	583369	85.51	0
1	584054	85.61	0
1	584739	85.71	0
1	585424	85.81	0
1	586109	85.91	0
1	586803	86.01	0
1	587488	86.11	0
1	588173	86.21	0
1	588858	86.31	0
1	589543	86.41	0
1	590228	86.51	0
1	590913	86.61	0
1	591598	86.71	0
1	592283	86.81	0
1	592968	86.91	0
1	593662	87.01	0
1	594347	87.11	0
1	595032	87.21	0
1	595717	87.31	0
1	596402	87.41	0
1	597087	87.51	0
1	597772	87.61	0
1	598457	87.71	0
1	599142	87.81	0
1	599827	87.91	0
1	600521	88.01	0
1	601206	88.11	0
1	601891	88.21	0
1	602576	88.31	0
1	603261	88.41	0
1	603946	88.51	0
1	604631	88.61	0
1	605316	88.71	0
1	606001	88.81	0
1	606686	88.91	0
1	607380	89.01	0
1	608065	89.11	0
1	608750	89.21	0
1	609435	89.31	0
1	610120	89.41	0
1	610805	89.51	0
1	611490	89.61	0
1	612175	89.71	0
1	612860	89.81	0
1	613545	89.91	0
1	614239	90.01	0
1	614924	90.11	0
1	615609	90.21	0
1	616294	90.31	0
1	616979	90.41	0
1	617664	90.51	0
1	618349	90.61	0
1	619034	90.71	0
1	619719	90.81	0
1	620404	90.91	0
1	621098	91.01	0
1	621783	91.11	0
1	622468	91.21	0
1	623153	91.31	0
1	623838	91.41	0
1	624523	91.51	0
1	625208	91.61	0
1	625893	91.71	0
1	626578	91.81	0
1	627263	91.91	0
1	627957	92.01	0
1	628642	92.11	0
1	629327	92.21	0
1	630012	92.31	0
1	630697	92.41	0
1	631382	92.51	0
1	632067	92.61	0
1	632752	92.71	0
1	633437	92.81	0
1	634122	92.91	0
1	634816	93.01	0
1	635501	93.11	0
1	636186	93.21	0
1	636871	93.31	0
1	637556	93.41	0
1	638241	93.51	0
1	638926	93.61	0
1	639611	93.71	0
1	640296	93.81	0
1	640981	93.91	0
1	641675	94.01	0
1	642360	94.11	0
1	643045	94.21	0
1	643730	94.31	0
1	644415	94.41	0
1	645100	94.51	0
1	645785	94.61	0
1	646470	94.71	0
1	647155	94.81	0
1	647840	94.91	0
1	648534	95.01	0
1	649219	95.11	0
1	649904	95.21	0
1	650589	95.31	0
1	651274	95.41	0
1	651959	95.51	0
1	652644	95.61	0
1	653329	95.71	0
1	654014	95.81	0
1	654699	95.91	0
1	655393	96.01	0
1	656078	96.11	0
1	656763	96.21	0
1	657448	96.31	0
1	658133	96.41	0
1	658818	96.51	0
1	659503	96.61	0
1	660188	96.71	0
1	660873	96.81	0
1	661558	96.91	0
1	662252	97.01	0
1	662937	97.11	0
1	663622	97.21	0
1	664307	97.31	0
1	664992	97.41	0
1	665677	97.51	0
1	666362	97.61	0
1	667047	97.71	0
1	667732	97.81	0
1	668417	97.91	0
1	669111	98.01	0
1	669796	98.11	0
1	670481	98.21	0
1	671166	98.31	0
1	671851	98.41	0
1	672536	98.51	0
1	673221	98.61	0
1	673906	98.71	0
1	674591	98.81	0
1	675276	98.91	0
1	675970	99.01	0
1	676655	99.11	0
1	677340	99.21	0
1	678025	99.31	0
1	678710	99.41	0
1	679395	99.51	0
1	680080	99.61	0
1	680765	99.71	0
1	681450	99.81	0
1	682135	99.91	0
2	113	1.11	0
2	798	1.21	0
2	1483	1.31	0
2	2168	1.41	0
2	2853	1.51	0
2	3538	1.61	0
2	4223	1.71	0
2	4908	1.81	0
2	5593	1.91	0
2	6287	2.01	0
2	6972	2.11	0
2	7657	2.21	0
2	8342	2.31	0
2	9027	2.41	0
2	9712	2.51	0
2	10397	2.61	0
2	11082	2.71	0
2	11767	2.81	0
2	12452	2.91	0
2	13146	3.01	0
2	13831	3.11	0
2	14516	3.21	0
2	15201	3.31	0
2	15886	3.41	0
2	16571	3.51	0
2	17256	3.61	0
2	17941	3.71	0
2	18626	3.81	0
2	19311	3.91	0
2	20005	4.01	0
2	20690	4.11	0
2	21375	4.21	0
2	22060	4.31	0
2	22745	4.41	0
2	23430	4.51	0
2	24115	4.61	0
2	24800	4.71	0
2	25485	4.81	0
2	26170	4.91	0
2	26864	5.01	0
2	27549	5.11	0
2	28234	5.21	0
2	28919	5.31	0
2	29604	5.41	0
2	30289	5.51	0
2	30974	5.61	0
2	31659	5.71	0
2	32344	5.81	0
2	33029	5.91	0
2	33723	6.01	0
2	34408	6.11	0
2	35093	6.21	0
2	35778	6.31	0
2	36463	6.41	0
2	37148	6.51	0
2	37833	6.61	0
2	38518	6.71	0
2	39203	6.81	0
2	39888	6.91	0
2	40582	7.01	0
2	41267	7.11	0
2	41952	7.21	0
2	42637	7.31	0
2	43322	7.41	0
2	44007	7.51	0
2	44692	7.61	0
2	45377	7.71	0
2	46062	7.81	0
2	46747	7.91	0
2	47441	8.01	0
2	48126	8.11	0
2	48811	8.21	0
2	49496	8.31	0
2	50181	8.41	0
2	50866	8.51	0
2	51551	8.61	0
2	52236	8.71	0
2	52921	8.81	0
2	53606	8.91	0
2	54300	9.01	0
2	54985	9.11	0
2	55670	9.21	0
2	56355	9.31	0
2	57040	9.41	0
2	57725	9.51	0
2	58410	9.61	0
2	59095	9.71	0
2	59780	9.81	0
2	60465	9.91	0
2	61242	10.01	0
2	61935	10.11	0
2	62628	10.21	0
2	63321	10.31	0
2	64014	10.41	0
2	64707	10.51	0
2	65400	10.61	0
2	66093	10.71	0
2	66786	10.81	0
2	67479	10.91	0
2	68181	11.01	0
2	68874	11.11	0
2	69567	11.21	0
2	70260	11.31	0
2	70953	11.41	0
2	71646	11.51	0
2	72339	11.61	0
2	73032	11.71	0
2	73725	11.81	0
2	74418	11.91	0
2	75120	12.01	0
2	75813	12.11	0
2	76506	12.21	0
2	77199	12.31	0
2	77892	12.41	0
2	78585	12.51	0
2	79278	12.61	0
2	79971	12.71	0
2	80664	12.81	0
2	81357	12.91	0
2	82059	13.01	0
2	82752	13.11	0
2	83445	13.21	0
2	84138	13.31	0
2	84831	13.41	0
2	85524	13.51	0
2	86217	13.61	0
2	86910	13.71	0
2	87603	13.81	0
2	88296	13.91	0
2	88998	14.01	0
2	89691	14.11	0
2	90384	14.21	0
2	91077	14.31	0
2	91770	14.41	0
2	92463	14.51	0
2	93156	14.61	0
2	93849	14.71	0
2	94542	14.81	0
2	95235	14.91	0
2	95937	15.01	0
2	96630	15.11	0
2	97323	15.21	0
2	98016	15.31	0
2	98709	15.41	0
2	99402	15.51	0
2	100095	15.61	0
2	100788	15.71	0
2	101481	15.81	0
2	102174	15.91	0
2	102876	16.01	0
2	103569	16.11	0
2	104262	16.21	0
2	104955	16.31	0
2	105648	16.41	0
2	106341	16.51	0
2	107034	16.61	0
2	107727	16.71	0
2	108420	16.81	0
2	109113	16.91	0
2	109815	17.01	0
2	110508	17.11	0
2	111201	17.21	0
2	111894	17.31	0
2	112587	17.41	0
2	113280	17.51	0
2	113973	17.61	0
2	114666	17.71	0
2	115359	17.81	0
2	116052	17.91	0
2	116754	18.01	0
2	117447	18.11	0
2	118140	18.21	0
2	118833	18.31	0
2	119526	18.41	0
2	120219	18.51	0
2	120912	18.61	0
2	121605	18.71	0
2	122298	18.81	0
2	122991	18.91	0
2	123693	19.01	0
2	124386	19.11	0
2	125079	19.21	0
2	125772	19.31	0
2	126465	19.41	0
2	127158	19.51	0
2	127851	19.61	0
2	128544	19.71	0
2	129237	19.81	0
2	129930	19.91	0
2	130632	20.01	0
2	131325	20.11	0
2	132018	20.21	0
2	132711	20.31	0
2	133404	20.41	0
2	134097	20.51	0
2	134790	20.61	0
2	135483	20.71	0
2	136176	20.81	0
2	136869	20.91	0
2	137571	21.01	0
2	138264	21.11	0
2	138957	21.21	0
2	139650	21.31	0
2	140343	21.41	0
2	141036	21.51	0
2	141729	21.61	0
2	142422	21.71	0
2	143115	21.81	0
2	143808	21.91	0
2	144510	22.01	0
2	145203	22.11	0
2	145896	22.21	0
2	146589	22.31	0
2	147282	22.41	0
2	147975	22.51	0
2	148668	22.61	0
2	149361	22.71	0
2	150054	22.81	0
2	150747	22.91	0
2	151449	23.01	0
2	152142	23.11	0
2	152835	23.21	0
2	153528	23.31	0
2	154221	23.41	0
2	154914	23.51	0
2	155607	23.61	0
2	156300	23.71	0
2	156993	23.81	0
2	157686	23.91	0
2	158388	24.01	0
2	159081	24.11	0
2	159774	24.21	0
2	160467	24.31	0
2	161160	24.41	0
2	161853	24.51	0
2	162546	24.61	0
2	163239	24.71	0
2	163932	24.81	0
2	164625	24.91	0
2	165327	25.01	0
2	166020	25.11	0
2	166713	25.21	0
2	167406	25.31	0
2	168099	25.41	0
2	168792	25.51	0
2	169485	25.61	0
2	170178	25.71	0
2	170871	25.81	0
2	171564	25.91	0
2	172266	26.01	0
2	172959	26.11	0
2	173652	26.21	0
2	174345	26.31	0
2	175038	26.41	0
2	175731	26.51	0
2	176424	26.61	0
2	177117	26.71	0
2	177810	26.81	0
2	178503	26.91	0
2	179205	27.01	0
2	179898	27.11	0
2	180591	27.21	0
2	181284	27.31	0
2	181977	27.41	0
2	182670	27.51	0
2	183363	27.61	0
2	184056	27.71	0
2	184749	27.81	0
2	185442	27.91	0
2	186144	28.01	0
2	186837	28.11	0
2	187530	28.21	0
2	188223	28.31	0
2	188916	28.41	0
2	189609	28.51	0
2	190302	28.61	0
2	190995	28.71	0
2	191688	28.81	0
2	192381	28.91	0
2	193083	29.01	0
2	193776	29.11	0
2	194469	29.21	0
2	195265	29.31	0
2	195957	29.41	0
2	196649	29.51	0
2	197341	29.61	0
2	198033	29.71	0
2	198725	29.81	0
2	199417	29.91	0
2	200118	30.01	0
2	200810	30.11	0
2	201502	30.21	0
2	202194	30.31	0
2	202886	30.41	0
2	203578	30.51	0
2	204270	30.61	0
2	204962	30.71	0
2	205654	30.81	0
2	206346	30.91	0
2	207047	31.01	0
2	207739	31.11	0
2	208431	31.21	0
2	209123	31.31	0
2	209815	31.41	0
2	210507	31.51	0
2	211199	31.61	0
2	211891	31.71	0
2	212583	31.81	0
2	213275	31.91	0
2	213976	32.01	0
2	214668	32.11	0
2	215360	32.21	0
2	216052	32.31	0
2	216744	32.41	0
2	217436	32.51	0
2	218128	32.61	0
2	218820	32.71	0
2	219512	32.81	0
2	220204	32.91	0
2	220905	33.01	0
2	221597	33.11	0
2	222289	33.21	0
2	222981	33.31	0
2	223673	33.41	0
2	224468	33.51	0
2	225159	33.61	0
2	225850	33.71	0
2	226541	33.81	0
2	227232	33.91	0
2	227932	34.01	0
2	228623	34.11	0
2	229314	34.21	0
2	230005	34.31	0
2	230696	34.41	0
2	231387	34.51	0
2	232078	34.61	0
2	232769	34.71	0
2	233460	34.81	0
2	234151	34.91	0
2	234851	35.01	0
2	235542	35.11	0
2	236233	35.21	0
2	236924	35.31	0
2	237615	35.41	0
2	238306	35.51	0
2	238997	35.61	0
2	239688	35.71	0
2	240379	35.81	0
2	241070	35.91	0
2	241770	36.01	0
2	242461	36.11	0
2	243152	36.21	0
2	243843	36.31	0
2	244534	36.41	0
2	245225	36.51	0
2	245916	36.61	0
2	246607	36.71	0
2	247298	36.81	0
2	247989	36.91	0
2	248689	37.01	0
2	249380	37.11	0
2	250071	37.21	0
2	250762	37.31	0
2	251453	37.41	0
2	252247	37.51	0
2	252937	37.61	0
2	253627	37.71	0
2	254317	37.81	0
2	255007	37.91	0
2	255706	38.01	0
2	256396	38.11	0
2	257086	38.21	0
2	257776	38.31	0
2	258466	38.41	0
2	259156	38.51	0
2	259846	38.61	0
2	260536	38.71	0
2	261226	38.81	0
2	261916	38.91	0
2	262615	39.01	0
2	263305	39.11	0
2	263995	39.21	0
2	264685	39.31	0
2	265375	39.41	0
2	266065	39.51	0
2	266755	39.61	0
2	267445	39.71	0
2	268135	39.81	0
2	268825	39.91	0
2	269524	40.01	0
2	270214	40.11	0
2	270904	40.21	0
2	271594	40.31	0
2	272284	40.41	0
2	272974	40.51	0
2	273664	40.61	0
2	274354	40.71	0
2	275044	40.81	0
2	275734	40.91	0
2	276433	41.01	0
2	277123	41.11	0
2	277813	41.21	0
2	278606	41.31	0
2	279295	41.41	0
2	279984	41.51	0
2	280673	41.61	0
2	281362	41.71	0
2	282051	41.81	0
2	282740	41.91	0
2	283438	42.01	0
2	284127	42.11	0
2	284816	42.21	0
2	285505	42.31	0
2	286194	42.41	0
2	286883	42.51	0
2	287572	42.61	0
2	288261	42.71	0
2	288950	42.81	0
2	289639	42.91	0
2	290337	43.01	0
2	291026	43.11	0
2	291715	43.21	0
2	292404	43.31	0
2	293093	43.41	0
2	293782	43.51	0
2	294471	43.61	0
2	295160	43.71	0
2	295849	43.81	0
2	296538	43.91	0
2	297236	44.01	0
2	297925	44.11	0
2	298614	44.21	0
2	299303	44.31	0
2	299992	44.41	0
2	300681	44.51	0
2	301370	44.61	0
2	302059	44.71	0
2	302748	44.81	0
2	303437	44.91	0
2	304238	45.01	0
2	304926	45.11	0
2	305614	45.21	0
2	306302	45.31	0
2	306990	45.41	0
2	307678	45.51	0
2	308366	45.61	0
2	309054	45.71	0
2	309742	45.81	0
2	310430	45.91	0
2	311127	46.01	0
2	311815	46.11	0
2	312503	46.21	0
2	313191	46.31	0
2	313879	46.41	0
2	314567	46.51	0
2	315255	46.61	0
2	315943	46.71	0
2	316631	46.81	0
2	317319	46.91	0
2	318016	47.01	0
2	318704	47.11	0
2	319392	47.21	0
2	320080	47.31	0
2	320768	47.41	0
2	321456	47.51	0
2	322144	47.61	0
2	322832	47.71	0
2	323520	47.81	0
2	324208	47.91	0
2	324905	48.01	0
2	325593	48.11	0
2	326281	48.21	0
2	326969	48.31	0
2	327657	48.41	0
2	328345	48.51	0
2	329136	48.61	0
2	329823	48.71	0
2	330510	48.81	0
2	331197	48.91	0
2	331893	49.01	0
2	332580	49.11	0
2	333267	49.21	0
2	333954	49.31	0
2	334641	49.41	0
2	335328	49.51	0
2	336015	49.61	0
2	336702	49.71	0
2	337389	49.81	0
2	338076	49.91	0
2	338772	50.01	0
2	339459	50.11	0
2	340146	50.21	0
2	340833	50.31	0
2	341520	50.41	0
2	342207	50.51	0
2	342894	50.61	0
2	343581	50.71	0
2	344268	50.81	0
2	344955	50.91	0
2	345651	51.01	0
2	346338	51.11	0
2	347025	51.21	0
2	347712	51.31	0
2	348399	51.41	0
2	349086	51.51	0
2	349773	51.61	0
2	350460	51.71	0
2	351147	51.81	0
2	351834	51.91	0
2	352530	52.01	0
2	353320	52.11	0
2	354006	52.21	0
2	354692	52.31	0
2	355378	52.41	0
2	356064	52.51	0
2	356750	52.61	0
2	357436	52.71	0
2	358122	52.81	0
2	358808	52.91	0
2	359503	53.01	0
2	360189	53.11	0
2	360875	53.21	0
2	361561	53.31	0
2	362247	53.41	0
2	362933	53.51	0
2	363619	53.61	0
2	364305	53.71	0
2	364991	53.81	0
2	365677	53.91	0
2	366372	54.01	0
2	367058	54.11	0
2	367744	54.21	0
2	368430	54.31	0
2	369116	54.41	0
2	369802	54.51	0
2	370488	54.61	0
2	371174	54.71	0
2	371860	54.81	0
2	372546	54.91	0
2	373241	55.01	0
2	373927	55.11	0
2	374613	55.21	0
2	375299	55.31	0
2	375985	55.41	0
2	376671	55.51	0
2	378284	55.61	0
2	378969	55.71	0
2	379654	55.81	0
2	380339	55.91	0
2	381033	56.01	0
2	381718	56.11	0
2	382403	56.21	0
2	383088	56.31	0
2	383773	56.41	0
2	384458	56.51	0
2	385143	56.61	0
2	385828	56.71	0
2	386513	56.81	0
2	387198	56.91	0
2	387892	57.01	0
2	388577	57.11	0
2	389262	57.21	0
2	389947	57.31	0
2	390632	57.41	0
2	391317	57.51	0
2	392002	57.61	0
2	392687	57.71	0
2	393372	57.81	0
2	394057	57.91	0
2	394751	58.01	0
2	395436	58.11	0
2	396121	58.21	0
2	396806	58.31	0
2	397491	58.41	0
2	398176	58.51	0
2	398861	58.61	0
2	399546	58.71	0
2	400231	58.81	0
2	400916	58.91	0
2	401610	59.01	0
2	402295	59.11	0
2	402980	59.21	0
2	403665	59.31	0
2	404350	59.41	0
2	405035	59.51	0
2	405720	59.61	0
2	406405	59.71	0
2	407090	59.81	0
2	407775	59.91	0
2	408469	60.01	0
2	409154	60.11	0
2	409839	60.21	0
2	410524	60.31	0
2	411209	60.41	0
2	411894	60.51	0
2	412579	60.61	0
2	413264	60.71	0
2	413949	60.81	0
2	414634	60.91	0
2	415328	61.01	0
2	416013	61.11	0
2	416698	61.21	0
2	417383	61.31	0
2	418068	61.41	0
2	418753	61.51	0
2	419438	61.61	0
2	420123	61.71	0
2	420808	61.81	0
2	421493	61.91	0
2	422187	62.01	0
2	422872	62.11	0
2	423557	62.21	0
2	424242	62.31	0
2	424927	62.41	0
2	425612	62.51	0
2	426297	62.61	0
2	426982	62.71	0
2	427667	62.81	0
2	428352	62.91	0
2	429046	63.01	0
2	429731	63.11	0
2	430416	63.21	0
2	431101	63.31	0
2	431786	63.41	0
2	432471	63.51	0
2	433156	63.61	0
2	433841	63.71	0
2	434526	63.81	0
2	435211	63.91	0
2	435905	64.01	0
2	436590	64.11	0
2	437275	64.21	0
2	437960	64.31	0
2	438645	64.41	0
2	439330	64.51	0
2	440015	64.61	0
2	440700	64.71	0
2	441385	64.81	0
2	442070	64.91	0
2	442764	65.01	0
2	443449	65.11	0
2	444134	65.21	0
2	444819	65.31	0
2	445504	65.41	0
2	446189	65.51	0
2	446874	65.61	0
2	447559	65.71	0
2	448244	65.81	0
2	448929	65.91	0
2	449623	66.01	0
2	450308	66.11	0
2	450993	66.21	0
2	451678	66.31	0
2	452363	66.41	0
2	453048	66.51	0
2	453733	66.61	0
2	454418	66.71	0
2	455103	66.81	0
2	455788	66.91	0
2	456482	67.01	0
2	457167	67.11	0
2	457852	67.21	0
2	458537	67.31	0
2	459222	67.41	0
2	459907	67.51	0
2	460592	67.61	0
2	461277	67.71	0
2	461962	67.81	0
2	462647	67.91	0
2	463341	68.01	0
2	464026	68.11	0
2	464711	68.21	0
2	465396	68.31	0
2	466081	68.41	0
2	466766	68.51	0
2	467451	68.61	0
2	468136	68.71	0
2	468821	68.81	0
2	469506	68.91	0
2	470200	69.01	0
2	470885	69.11	0
2	471570	69.21	0
2	472255	69.31	0
2	472940	69.41	0
2	473625	69.51	0
2	474310	69.61	0
2	474995	69.71	0
2	475680	69.81	0
2	476365	69.91	0
2	477059	70.01	0
2	477744	70.11	0
2	478429	70.21	0
2	479114	70.31	0
2	479799	70.41	0
2	480484	70.51	0
2	481169	70.61	0
2	481854	70.71	0
2	482539	70.81	0
2	483224	70.91	0
2	483918	71.01	0
2	484603	71.11	0
2	485288	71.21	0
2	485973	71.31	0
2	486658	71.41	0
2	487343	71.51	0
2	488028	71.61	0
2	488713	71.71	0
2	489398	71.81	0
2	490083	71.91	0
2	490777	72.01	0
2	491462	72.11	0
2	492147	72.21	0
2	492832	72.31	0
2	493517	72.41	0
2	494202	72.51	0
2	494887	72.61	0
2	495572	72.71	0
2	496257	72.81	0
2	496942	72.91	0
2	497636	73.01	0
2	498321	73.11	0
2	499006	73.21	0
2	499691	73.31	0
2	500376	73.41	0
2	501061	73.51	0
2	501746	73.61	0
2	502431	73.71	0
2	503116	73.81	0
2	503801	73.91	0
2	504495	74.01	0
2	505180	74.11	0
2	505865	74.21	0
2	506550	74.31	0
2	507235	74.41	0
2	507920	74.51	0
2	508605	74.61	0
2	509290	74.71	0
2	509975	74.81	0
2	510660	74.91	0
2	511354	75.01	0
2	512039	75.11	0
2	512724	75.21	0
2	513409	75.31	0
2	514094	75.41	0
2	514779	75.51	0
2	515464	75.61	0
2	516149	75.71	0
2	516834	75.81	0
2	517519	75.91	0
2	518213	76.01	0
2	518898	76.11	0
2	519583	76.21	0
2	520268	76.31	0
2	520953	76.41	0
2	521638	76.51	0
2	522323	76.61	0
2	523008	76.71	0
2	523693	76.81	0
2	524378	76.91	0
2	525072	77.01	0
2	525757	77.11	0
2	526442	77.21	0
2	527127	77.31	0
2	527812	77.41	0
2	528497	77.51	0
2	529182	77.61	0
2	529867	77.71	0
2	530552	77.81	0
2	531237	77.91	0
2	531931	78.01	0
2	532616	78.11	0
2	533301	78.21	0
2	533986	78.31	0
2	534671	78.41	0
2	535356	78.51	0
2	536041	78.61	0
2	536726	78.71	0
2	537411	78.81	0
2	538096	78.91	0
2	538790	79.01	0
2	539475	79.11	0
2	540160	79.21	0
2	540845	79.31	0
2	541530	79.41	0
2	542215	79.51	0
2	542900	79.61	0
2	543585	79.71	0
2	544270	79.81	0
2	544955	79.91	0
2	545649	80.01	0
2	546334	80.11	0
2	547019	80.21	0
2	547704	80.31	0
2	548389	80.41	0
2	549074	80.51	0
2	549759	80.61	0
2	550444	80.71	0
2	551129	80.81	0
2	551814	80.91	0
2	552508	81.01	0
2	553193	81.11	0
2	553878	81.21	0
2	554563	81.31	0
2	555248	81.41	0
2	555933	81.51	0
2	556618	81.61	0
2	557303	81.71	0
2	557988	81.81	0
2	558673	81.91	0
2	559367	82.01	0
2	560052	82.11	0
2	560737	82.21	0
2	561422	82.31	0
2	562107	82.41	0
2	562792	82.51	0
2	563477	82.61	0
2	564162	82.71	0
2	564847	82.81	0
2	565532	82.91	0
2	566226	83.01	0
2	566911	83.11	0
2	567596	83.21	0
2	568281	83.31	0
2	568966	83.41	0
2	569651	83.51	0
2	570336	83.61	0
2	571021	83.71	0
2	571706	83.81	0
2	572391	83.91	0
2	573085	84.01	0
2	573770	84.11	0
2	574455	84.21	0
2	575140	84.31	0
2	575825	84.41	0
2	576510	84.51	0
2	577195	84.61	0
2	577880	84.71	0
2	578565	84.81	0
2	579250	84.91	0
2	579944	85.01	0
2	580629	85.11	0
2	581314	85.21	0
2	581999	85.31	0
2	582684	85.41	0
2	583369	85.51	0
2	584054	85.61	0
2	584739	85.71	0
2	585424	85.81	0
2	586109	85.91	0
2	586803	86.01	0
2	587488	86.11	0
2	588173	86.21	0
2	588858	86.31	0
2	589543	86.41	0
2	590228	86.51	0
2	590913	86.61	0
2	591598	86.71	0
2	592283	86.81	0
2	592968	86.91	0
2	593662	87.01	0
2	594347	87.11	0
2	595032	87.21	0
2	595717	87.31	0
2	596402	87.41	0
2	597087	87.51	0
2	597772	87.61	0
2	598457	87.71	0
2	599142	87.81	0
2	599827	87.91	0
2	600521	88.01	0
2	601206	88.11	0
2	601891	88.21	0
2	602576	88.31	0
2	603261	88.41	0
2	603946	88.51	0
2	604631	88.61	0
2	605316	88.71	0
2	606001	88.81	0
2	606686	88.91	0
2	607380	89.01	0
2	608065	89.11	0
2	608750	89.21	0
2	609435	89.31	0
2	610120	89.41	0
2	610805	89.51	0
2	611490	89.61	0
2	612175	89.71	0
2	612860	89.81	0
2	613545	89.91	0
2	614239	90.01	0
2	614924	90.11	0
2	615609	90.21	0
2	616294	90.31	0
2	616979	90.41	0
2	617664	90.51	0
2	618349	90.61	0
2	619034	90.71	0
2	619719	90.81	0
2	620404	90.91	0
2	621098	91.01	0
2	621783	91.11	0
2	622468	91.21	0
2	623153	91.31	0
2	623838	91.41	0
2	624523	91.51	0
2	625208	91.61	0
2	625893	91.71	0
2	626578	91.81	0
2	627263	91.91	0
2	627957	92.01	0
2	628642	92.11	0
2	629327	92.21	0
2	630012	92.31	0
2	630697	92.41	0
2	631382	92.51	0
2	632067	92.61	0
2	632752	92.71	0
2	633437	92.81	0
2	634122	92.91	0
2	634816	93.01	0
2	635501	93.11	0
2	636186	93.21	0
2	636871	93.31	0
2	637556	93.41	0
2	638241	93.51	0
2	638926	93.61	0
2	639611	93.71	0
2	640296	93.81	0
2	640981	93.91	0
2	641675	94.01	0
2	642360	94.11	0
2	643045	94.21	0
2	643730	94.31	0
2	644415	94.41	0
2	645100	94.51	0
2	645785	94.61	0
2	646470	94.71	0
2	647155	94.81	0
2	647840	94.91	0
2	648534	95.01	0
2	649219	95.11	0
2	649904	95.21	0
2	650589	95.31	0
2	651274	95.41	0
2	651959	95.51	0
2	652644	95.61	0
2	653329	95.71	0
2	654014	95.81	0
2	654699	95.91	0
2	655393	96.01	0
2	656078	96.11	0
2	656763	96.21	0
2	657448	96.31	0
2	658133	96.41	0
2	658818	96.51	0
2	659503	96.61	0
2	660188	96.71	0
2	660873	96.81	0
2	661558	96.91	0
2	662252	97.01	0
2	662937	97.11	0
2	663622	97.21	0
2	664307	97.31	0
2	664992	97.41	0
2	665677	97.51	0
2	666362	97.61	0
2	667047	97.71	0
2	667732	97.81	0
2	668417	97.91	0
2	669111	98.01	0
2	669796	98.11	0
2	670481	98.21	0
2	671166	98.31	0
2	671851	98.41	0
2	672536	98.51	0
2	673221	98.61	0
2	673906	98.71	0
2	674591	98.81	0
2	675276	98.91	0
2	675970	99.01	0
2	676655	99.11	0
2	677340	99.21	0
2	678025	99.31	0
2	678710	99.41	0
2	679395	99.51	0
2	680080	99.61	0
2	680765	99.71	0
2	681450	99.81	0
2	682135	99.91	0
3	113	1.11	0.000179096
3	798	1.21	0.000340852
3	1483	1.31	0.000467435
3	2168	1.41	0.000562893
3	2853	1.51	0.000631106
3	3538	1.61	0.000675745
3	4223	1.71	0.000700245
3	4908	1.81	0.000707784
3	5593	1.91	0.000701273
3	6287	2.01	0.000683354
3	6972	2.11	0.000656398
3	7657	2.21	0.000622512
3	8342	2.31	0.000583548
3	9027	2.41	0.000541117
3	9712	2.51	0.000496604
3	10397	2.61	0.000451181
3	11082	2.71	0.000405825
3	11767	2.81	0.00036134
3	12452	2.91	0.000318365
3	13146	3.01	0.0002774
3	13831	3.11	0.00023882
3	14516	3.21	0.000202887
3	15201	3.31	0.00016977
3	15886	3.41	0.000139558
3	16571	3.51	0.000112271
3	17256	3.61	8.78717e-05
3	17941	3.71	6.628e-05
3	18626	3.81	4.73785e-05
3	19311	3.91	3.1023e-05
3	20005	4.01	1.70493e-05
3	20690	4.11	5.28023e-06
3	21375	4.21	-4.46922e-06
3	22060	4.31	-1.2387e-05
3	22745	4.41	-1.86602e-05
3	23430	4.51	-2.34717e-05
3	24115	4.61	-2.69978e-05
3	24800	4.71	-2.94062e-05
3	25485	4.81	-3.08545e-05
3	26170	4.91	-3.14892e-05
3	26864	5.01	-3.14451e-05
3	27549	5.11	-3.0845e-05
3	28234	5.21	-2.97994e-05
3	28919	5.31	-2.84072e-05
3	29604	5.41	-2.67556e-05
3	30289	5.51	-2.49208e-05
3	30974	5.61	-2.29687e-05
3	31659	5.71	-2.09553e-05
3	32344	5.81	-1.89277e-05
3	33029	5.91	-1.6925e-05
3	33723	6.01	-1.49784e-05
3	34408	6.11	-1.31129e-05
3	35093	6.21	-1.13474e-05
3	35778	6.31	-9.69553e-06
3	36463	6.41	-8.16651e-06
3	37148	6.51	-6.76571e-06
3	37833	6.61	-5.49522e-06
3	38518	6.71	-4.35441e-06
3	39203	6.81	-3.34045e-06
3	39888	6.91	-2.44874e-06
3	40582	7.01	-1.6733e-06
3	41267	7.11	-1.00716e-06
3	41952	7.21	-4.42628e-07
3	42637	7.31	2.84224e-08
3	43322	7.41	4.14339e-07
3	44007	7.51	7.23492e-07
3	44692	7.61	9.6413e-07
3	45377	7.71	1.14424e-06
3	46062	7.81	1.27148e-06
3	46747	7.91	1.35305e-06
3	47441	8.01	1.3957e-06
3	48126	8.11	1.40565e-06
3	48811	8.21	1.3886e-06
3	49496	8.31	1.34971e-06
3	50181	8.41	1.2936e-06
3	50866	8.51	1.22437e-06
3	51551	8.61	1.14561e-06
3	52236	8.71	1.06046e-06
3	52921	8.81	9.71582e-07
3	53606	8.91	8.81246e-07
3	54300	9.01	7.91334e-07
3	54985	9.11	7.03381e-07
3	55670	9.21	6.18613e-07
3	56355	9.31	5.37979e-07
3	57040	9.41	4.62183e-07
3	57725	9.51	3.91714e-07
3	58410	9.61	3.26878e-07
3	59095	9.71	2.67827e-07
3	59780	9.81	2.14581e-07
3	60465	9.91	1.67052e-07
3	61242	10.01	1.25066e-07
3	61935	10.11	8.83794e-08
3	62628	10.21	5.66978e-08
3	63321	10.31	2.96922e-08
3	64014	10.41	7.00453e-09
3	64707	10.51	-1.17325e-08
3	65400	10.61	-2.68933e-08
3	66093	10.71	-3.88482e-08
3	66786	10.81	-4.79581e-08
3	67479	10.91	-5.45704e-08
3	68181	11.01	-5.90177e-08
3	68874	11.11	-6.16069e-08
3	69567	11.21	-6.26265e-08
3	70260	11.31	-6.23395e-08
3	70953	11.41	-6.09859e-08
3	71646	11.51	-5.87811e-08
3	72339	11.61	-5.59183e-08
3	73032	11.71	-5.25674e-08
3	73725	11.81	-4.88761e-08
3	74418	11.91	-4.4971e-08
3	75120	12.01	-4.09599e-08
3	75813	12.11	-3.69354e-08
3	76506	12.21	-3.29713e-08
3	77199	12.31	-2.9128e-08
3	77892	12.41	-2.54531e-08
3	78585	12.51	-2.19821e-08
3	79278	12.61	-1.87399e-08
3	79971	12.71	-1.57428e-08
3	80664	12.81	-1.30029e-08
3	81357	12.91	-1.05217e-08
3	82059	13.01	-8.29772e-09
3	82752	13.11	-6.32454e-09
3	83445	13.21	-4.59224e-09
3	84138	13.31	-3.08802e-09
3	84831	13.41	-1.79838e-09
3	85524	13.51	-7.08411e-10
3	86217	13.61	1.98241e-10
3	86910	13.71	9.37916e-10
3	87603	13.81	1.52767e-09
3	88296	13.91	1.98384e-09
3	88998	14.01	2.32276e-09
3	89691	14.11	2.55937e-09
3	90384	14.21	2.70788e-09
3	91077	14.31	2.78249e-09
3	91770	14.41	2.79243e-09
3	92463	14.51	2.7498e-09
3	93156	14.61	2.66525e-09
3	93849	14.71	2.54872e-09
3	94542	14.81	2.40803e-09
3	95235	14.91	2.24887e-09
3	95937	15.01	2.07763e-09
3	96630	15.11	1.89999e-09
3	97323	15.21	1.72236e-09
3	98016	15.31	1.54472e-09
3	98709	15.41	1.37064e-09
3	99402	15.51	1.20295e-09
3	100095	15.61	1.04379e-09
3	100788	15.71	8.94573e-10
3	101481	15.81	7.56017e-10
3	102174	15.91	6.29541e-10
3	102876	16.01	5.13012e-10
3	103569	16.11	4.09273e-10
3	104262	16.21	3.16902e-10
3	104955	16.31	2.3519e-10
3	105648	16.41	1.63425e-10
3	106341	16.51	1.02318e-10
3	107034	16.61	4.9738e-11
3	107727	16.71	5.68434e-12
3	108420	16.81	-3.05533e-11
3	109113	16.91	-5.8975e-11
3	109815	17.01	-8.10019e-11
3	110508	17.11	-9.80549e-11
3	111201	17.21	-1.11555e-10
3	111894	17.31	-1.18661e-10
3	112587	17.41	-1.23634e-10
3	113280	17.51	-1.23634e-10
3	113973	17.61	-1.23634e-10
3	114666	17.71	-1.21503e-10
3	115359	17.81	-1.14397e-10
3	116052	17.91	-1.07292e-10
3	116754	18.01	-1.00187e-10
3	117447	18.11	-9.30811e-11
3	118140	18.21	-8.59757e-11
3	118833	18.31	-7.88702e-11
3	119526	18.41	-7.17648e-11
3	120219	18.51	-6.46594e-11
3	120912	18.61	-5.7554e-11
3	121605	18.71	-5.04485e-11
3	122298	18.81	-4.33431e-11
3	122991	18.91	-3.62377e-11
3	123693	19.01	-2.91323e-11
3	124386	19.11	-2.20268e-11
3	125079	19.21	-1.7053e-11
3	125772	19.31	-1.49214e-11
3	126465	19.41	-1.35003e-11
3	127158	19.51	-1.27898e-11
3	127851	19.61	-1.13687e-11
3	128544	19.71	-9.9476e-12
3	129237	19.81	-9.23706e-12
3	129930	19.91	-8.52651e-12
3	130632	20.01	-7.81597e-12
3	131325	20.11	-7.10543e-12
3	132018	20.21	-6.39488e-12
3	132711	20.31	-5.68434e-12
3	133404	20.41	-4.9738e-12
3	134097	20.51	-4.26326e-12
3	134790	20.61	-4.26326e-12
3	135483	20.71	-3.55271e-12
3	136176	20.81	-3.55271e-12
3	136869	20.91	-2.84217e-12
3	137571	21.01	-2.84217e-12
3	138264	21.11	-2.84217e-12
3	138957	21.21	-2.13163e-12
3	139650	21.31	-2.13163e-12
3	140343	21.41	-2.13163e-12
3	141036	21.51	-1.42109e-12
3	141729	21.61	-1.42109e-12
3	142422	21.71	-1.42109e-12
3	143115	21.81	-1.42109e-12
3	143808	21.91	-1.42109e-12
3	144510	22.01	-7.10543e-13
3	145203	22.11	-7.10543e-13
3	145896	22.21	-7.10543e-13
3	146589	22.31	-7.10543e-13
3	147282	22.41	-7.10543e-13
3	147975	22.51	-7.10543e-13
3	148668	22.61	-7.10543e-13
3	149361	22.71	-7.10543e-13
3	150054	22.81	-7.10543e-13
3	150747	22.91	-7.10543e-13
3	151449	23.01	0
3	152142	23.11	0
3	152835	23.21	0
3	153528	23.31	0
3	154221	23.41	0
3	154914	23.51	0
3	155607	23.61	0
3	156300	23.71	0
3	156993	23.81	0
3	157686	23.91	0
3	158388	24.01	0
3	159081	24.11	0
3	159774	24.21	0
3	160467	24.31	0
3	161160	24.41	0
3	161853	24.51	0
3	162546	24.61	0
3	163239	24.71	0
3	163932	24.81	0
3	164625	24.91	0
3	165327	25.01	0
3	166020	25.11	0
3	166713	25.21	0
3	167406	25.31	0
3	168099	25.41	0
3	168792	25.51	0
3	169485	25.61	0
3	170178	25.71	0
3	170871	25.81	0
3	171564	25.91	0
3	172266	26.01	0
3	172959	26.11	0
3	173652	26.21	0
3	174345	26.31	0
3	175038	26.41	0
3	175731	26.51	0
3	176424	26.61	0
3	177117	26.71	0
3	177810	26.81	0
3	178503	26.91	0
3	179205	27.01	0
3	179898	27.11	0
3	180591	27.21	0
3	181284	27.31	0
3	181977	27.41	0
3	182670	27.51	0
3	183363	27.61	0
3	184056	27.71	0
3	184749	27.81	0
3	185442	27.91	0
3	186144	28.01	0
3	186837	28.11	0
3	187530	28.21	0
3	188223	28.31	0
3	188916	28.41	0
3	189609	28.51	0
3	190302	28.61	0
3	190995	28.71	0
3	191688	28.81	0
3	192381	28.91	0
3	193083	29.01	0
3	193776	29.11	0
3	194469	29.21	0
3	195265	29.31	0
3	195957	29.41	0
3	196649	29.51	0
3	197341	29.61	0
3	198033	29.71	0
3	198725	29.81	0
3	199417	29.91	0
3	200118	30.01	0
3	200810	30.11	0
3	201502	30.21	0
3	202194	30.31	0
3	202886	30.41	0
3	203578	30.51	0
3	204270	30.61	0
3	204962	30.71	0
3	205654	30.81	0
3	206346	30.91	0
3	207047	31.01	0
3	207739	31.11	0
3	208431	31.21	0
3	209123	31.31	0
3	209815	31.41	0
3	210507	31.51	0
3	211199	31.61	0
3	211891	31.71	0
3	212583	31.81	0
3	213275	31.91	0
3	213976	32.01	0
3	214668	32.11	0
3	215360	32.21	0
3	216052	32.31	0
3	216744	32.41	0
3	217436	32.51	0
3	218128	32.61	0
3	218820	32.71	0
3	219512	32.81	0
3	220204	32.91	0
3	220905	33.01	0
3	221597	33.11	0
3	222289	33.21	0
3	222981	33.31	0
3	223673	33.41	0
3	224468	33.51	0
3	225159	33.61	0
3	225850	33.71	0
3	226541	33.81	0
3	227232	33.91	0
3	227932	34.01	0
3	228623	34.11	0
3	229314	34.21	0
3	230005	34.31	0
3	230696	34.41	0
3	231387	34.51	0
3	232078	34.61	0
3	232769	34.71	0
3	233460	34.81	0
3	234151	34.91	0
3	234851	35.01	0
3	235542	35.11	0
3	236233	35.21	0
3	236924	35.31	0
3	237615	35.41	0
3	238306	35.51	0
3	238997	35.61	0
3	239688	35.71	0
3	240379	35.81	0
3	241070	35.91	0
3	241770	36.01	0
3	242461	36.11	0
3	243152	36.21	0
3	243843	36.31	0
3	244534	36.41	0
3	245225	36.51	0
3	245916	36.61	0
3	246607	36.71	0
3	247298	36.81	0
3	247989	36.91	0
3	248689	37.01	0
3	249380	37.11	0
3	250071	37.21	0
3	250762	37.31	0
3	251453	37.41	0
3	252247	37.51	0
3	252937	37.61	0
3	253627	37.71	0
3	254317	37.81	0
3	255007	37.91	0
3	255706	38.01	0
3	256396	38.11	0
3	257086	38.21	0
3	257776	38.31	0
3	258466	38.41	0
3	259156	38.51	0
3	259846	38.61	0
3	260536	38.71	0
3	261226	38.81	0
3	261916	38.91	0
3	262615	39.01	0
3	263305	39.11	0
3	263995	39.21	0
3	264685	39.31	0
3	265375	39.41	0
3	266065	39.51	0
3	266755	39.61	0
3	267445	39.71	0
3	268135	39.81	0
3	268825	39.91	0
3	269524	40.01	0
3	270214	40.11	0
3	270904	40.21	0
3	271594	40.31	0
3	272284	40.41	0
3	272974	40.51	0
3	273664	40.61	0
3	274354	40.71	0
3	275044	40.81	0
3	275734	40.91	0
3	276433	41.01	0
3	277123	41.11	0
3	277813	41.21	0
3	278606	41.31	0
3	279295	41.41	0
3	279984	41.51	0
3	280673	41.61	0
3	281362	41.71	0
3	282051	41.81	0
3	282740	41.91	0
3	283438	42.01	0
3	284127	42.11	0
3	284816	42.21	0
3	285505	42.31	0
3	286194	42.41	0
3	286883	42.51	0
3	287572	42.61	0
3	288261	42.71	0
3	288950	42.81	0
3	289639	42.91	0
3	290337	43.01	0
3	291026	43.11	0
3	291715	43.21	0
3	292404	43.31	0
3	293093	43.41	0
3	293782	43.51	0
3	294471	43.61	0
3	295160	43.71	0
3	295849	43.81	0
3	296538	43.91	0
3	297236	44.01	0
3	297925	44.11	0
3	298614	44.21	0
3	299303	44.31	0
3	299992	44.41	0
3	300681	44.51	0
3	301370	44.61	0
3	302059	44.71	0
3	302748	44.81	0
3	303437	44.91	0
3	304238	45.01	0
3	304926	45.11	0
3	305614	45.21	0
3	306302	45.31	0
3	306990	45.41	0
3	307678	45.51	0
3	308366	45.61	0
3	309054	45.71	0
3	309742	45.81	0
3	310430	45.91	0
3	311127	46.01	0
3	311815	46.11	0
3	312503	46.21	0
3	313191	46.31	0
3	313879	46.41	0
3	314567	46.51	0
3	315255	46.61	0
3	315943	46.71	0
3	316631	46.81	0
3	317319	46.91	0
3	318016	47.01	0
3	318704	47.11	0
3	319392	47.21	0
3	320080	47.31	0
3	320768	47.41	0
3	321456	47.51	0
3	322144	47.61	0
3	322832	47.71	0
3	323520	47.81	0
3	324208	47.91	0
3	324905	48.01	0
3	325593	48.11	0
3	326281	48.21	0
3	326969	48.31	0
3	327657	48.41	0
3	328345	48.51	0
3	329136	48.61	0
3	329823	48.71	0
3	330510	48.81	0
3	331197	48.91	0
3	331893	49.01	0
3	332580	49.11	0
3	333267	49.21	0
3	333954	49.31	0
3	334641	49.41	0
3	335328	49.51	0
3	336015	49.61	0
3	336702	49.71	0
3	337389	49.81	0
3	338076	49.91	0
3	338772	50.01	0
3	339459	50.11	0
3	340146	50.21	0
3	340833	50.31	0
3	341520	50.41	0
3	342207	50.51	0
3	342894	50.61	0
3	343581	50.71	0
3	344268	50.81	0
3	344955	50.91	0
3	345651	51.01	0
3	346338	51.11	0
3	347025	51.21	0
3	347712	51.31	0
3	348399	51.41	0
3	349086	51.51	0
3	349773	51.61	0
3	350460	51.71	0
3	351147	51.81	0
3	351834	51.91	0
3	352530	52.01	0
3	353320	52.11	0
3	354006	52.21	0
3	354692	52.31	0
3	355378	52.41	0
3	356064	52.51	0
3	356750	52.61	0
3	357436	52.71	0
3	358122	52.81	0
3	358808	52.91	0
3	359503	53.01	0
3	360189	53.11	0
3	360875	53.21	0
3	361561	53.31	0
3	362247	53.41	0
3	362933	53.51	0
3	363619	53.61	0
3	364305	53.71	0
3	364991	53.81	0
3	365677	53.91	0
3	366372	54.01	0
3	367058	54.11	0
3	367744	54.21	0
3	368430	54.31	0
3	369116	54.41	0
3	369802	54.51	0
3	370488	54.61	0
3	371174	54.71	0
3	371860	54.81	0
3	372546	54.91	0
3	373241	55.01	0
3	373927	55.11	0
3	374613	55.21	0
3	375299	55.31	0
3	375985	55.41	0
3	376671	55.51	0
3	378284	55.61	0
3	378969	55.71	0
3	379654	55.81	0
3	380339	55.91	0
3	381033	56.01	0
3	381718	56.11	0
3	382403	56.21	0
3	383088	56.31	0
3	383773	56.41	0
3	384458	56.51	0
3	385143	56.61	0
3	385828	56.71	0
3	386513	56.81	0
3	387198	56.91	0
3	387892	57.01	0
3	388577	57.11	0
3	389262	57.21	0
3	389947	57.31	0
3	390632	57.41	0
3	391317	57.51	0
3	392002	57.61	0
3	392687	57.71	0
3	393372	57.81	0
3	394057	57.91	0
3	394751	58.01	0
3	395436	58.11	0
3	396121	58.21	0
3	396806	58.31	0
3	397491	58.41	0
3	398176	58.51	0
3	398861	58.61	0
3	399546	58.71	0
3	400231	58.81	0
3	400916	58.91	0
3	401610	59.01	0
3	402295	59.11	0
3	402980	59.21	0
3	403665	59.31	0
3	404350	59.41	0
3	405035	59.51	0
3	405720	59.61	0
3	406405	59.71	0
3	407090	59.81	0
3	407775	59.91	0
3	408469	60.01	0
3	409154	60.11	0
3	409839	60.21	0
3	410524	60.31	0
3	411209	60.41	0
3	411894	60.51	0
3	412579	60.61	0
3	413264	60.71	0
3	413949	60.81	0
3	414634	60.91	0
3	415328	61.01	0
3	416013	61.11	0
3	416698	61.21	0
3	417383	61.31	0
3	418068	61.41	0
3	418753	61.51	0
3	419438	61.61	0
3	420123	61.71	0
3	420808	61.81	0
3	421493	61.91	0
3	422187	62.01	0
3	422872	62.11	0
3	423557	62.21	0
3	424242	62.31	0
3	424927	62.41	0
3	425612	62.51	0
3	426297	62.61	0
3	426982	62.71	0
3	427667	62.81	0
3	428352	62.91	0
3	429046	63.01	0
3	429731	63.11	0
3	430416	63.21	0
3	431101	63.31	0
3	431786	63.41	0
3	432471	63.51	0
3	433156	63.61	0
3	433841	63.71	0
3	434526	63.81	0
3	435211	63.91	0
3	435905	64.01	0
3	436590	64.11	0
3	437275	64.21	0
3	437960	64.31	0
3	438645	64.41	0
3	439330	64.51	0
3	440015	64.61	0
3	440700	64.71	0
3	441385	64.81	0
3	442070	64.91	0
3	442764	65.01	0
3	443449	65.11	0
3	444134	65.21	0
3	444819	65.31	0
3	445504	65.41	0
3	446189	65.51	0
3	446874	65.61	0
3	447559	65.71	0
3	448244	65.81	0
3	448929	65.91	0
3	449623	66.01	0
3	450308	66.11	0
3	450993	66.21	0
3	451678	66.31	0
3	452363	66.41	0
3	453048	66.51	0
3	453733	66.61	0
3	454418	66.71	0
3	455103	66.81	0
3	455788	66.91	0
3	456482	67.01	0
3	457167	67.11	0
3	457852	67.21	0
3	458537	67.31	0
3	459222	67.41	0
3	459907	67.51	0
3	460592	67.61	0
3	461277	67.71	0
3	461962	67.81	0
3	462647	67.91	0
3	463341	68.01	0
3	464026	68.11	0
3	464711	68.21	0
3	465396	68.31	0
3	466081	68.41	0
3	466766	68.51	0
3	467451	68.61	0
3	468136	68.71	0
3	468821	68.81	0
3	469506	68.91	0
3	470200	69.01	0
3	470885	69.11	0
3	471570	69.21	0
3	472255	69.31	0
3	472940	69.41	0
3	473625	69.51	0
3	474310	69.61	0
3	474995	69.71	0
3	475680	69.81	0
3	476365	69.91	0
3	477059	70.01	0
3	477744	70.11	0
3	478429	70.21	0
3	479114	70.31	0
3	479799	70.41	0
3	480484	70.51	0
3	481169	70.61	0
3	481854	70.71	0
3	482539	70.81	0
3	483224	70.91	0
3	483918	71.01	0
3	484603	71.11	0
3	485288	71.21	0
3	485973	71.31	0
3	486658	71.41	0
3	487343	71.51	0
3	488028	71.61	0
3	488713	71.71	0
3	489398	71.81	0
3	490083	71.91	0
3	490777	72.01	0
3	491462	72.11	0
3	492147	72.21	0
3	492832	72.31	0
3	493517	72.41	0
3	494202	72.51	0
3	494887	72.61	0
3	495572	72.71	0
3	496257	72.81	0
3	496942	72.91	0
3	497636	73.01	0
3	498321	73.11	0
3	499006	73.21	0
3	499691	73.31	0
3	500376	73.41	0
3	501061	73.51	0
3	501746	73.61	0
3	502431	73.71	0
3	503116	73.81	0
3	503801	73.91	0
3	504495	74.01	0
3	505180	74.11	0
3	505865	74.21	0
3	506550	74.31	0
3	507235	74.41	0
3	507920	74.51	0
3	508605	74.61	0
3	509290	74.71	0
3	509975	74.81	0
3	510660	74.91	0
3	511354	75.01	0
3	512039	75.11	0
3	512724	75.21	0
3	513409	75.31	0
3	514094	75.41	0
3	514779	75.51	0
3	515464	75.61	0
3	516149	75.71	0
3	516834	75.81	0
3	517519	75.91	0
3	518213	76.01	0
3	518898	76.11	0
3	519583	76.21	0
3	520268	76.31	0
3	520953	76.41	0
3	521638	76.51	0
3	522323	76.61	0
3	523008	76.71	0
3	523693	76.81	0
3	524378	76.91	0
3	525072	77.01	0
3	525757	77.11	0
3	526442	77.21	0
3	527127	77.31	0
3	527812	77.41	0
3	528497	77.51	0
3	529182	77.61	0
3	529867	77.71	0
3	530552	77.81	0
3	531237	77.91	0
3	531931	78.01	0
3	532616	78.11	0
3	533301	78.21	0
3	533986	78.31	0
3	534671	78.41	0
3	535356	78.51	0
3	536041	78.61	0
3	536726	78.71	0
3	537411	78.81	0
3	538096	78.91	0
3	538790	79.01	0
3	539475	79.11	0
3	540160	79.21	0
3	540845	79.31	0
3	541530	79.41	0
3	542215	79.51	0
3	542900	79.61	0
3	543585	79.71	0
3	544270	79.81	0
3	544955	79.91	0
3	545649	80.01	0
3	546334	80.11	0
3	547019	80.21	0
3	547704	80.31	0
3	548389	80.41	0
3	549074	80.51	0
3	549759	80.61	0
3	550444	80.71	0
3	551129	80.81	0
3	551814	80.91	0
3	552508	81.01	0
3	553193	81.11	0
3	553878	81.21	0
3	554563	81.31	0
3	555248	81.41	0
3	555933	81.51	0
3	556618	81.61	0
3	557303	81.71	0
3	557988	81.81	0
3	558673	81.91	0
3	559367	82.01	0
3	560052	82.11	0
3	560737	82.21	0
3	561422	82.31	0
3	562107	82.41	0
3	562792	82.51	0
3	563477	82.61	0
3	564162	82.71	0
3	564847	82.81	0
3	565532	82.91	0
3	566226	83.01	0
3	566911	83.11	0
3	567596	83.21	0
3	568281	83.31	0
3	568966	83.41	0
3	569651	83.51	0
3	570336	83.61	0
3	571021	83.71	0
3	571706	83.81	0
3	572391	83.91	0
3	573085	84.01	0
3	573770	84.11	0
3	574455	84.21	0
3	575140	84.31	0
3	575825	84.41	0
3	576510	84.51	0
3	577195	84.61	0
3	577880	84.71	0
3	578565	84.81	0
3	579250	84.91	0
3	579944	85.01	0
3	580629	85.11	0
3	581314	85.21	0
3	581999	85.31	0
3	582684	85.41	0
3	583369	85.51	0
3	584054	85.61	0
3	584739	85.71	0
3	585424	85.81	0
3	586109	85.91	0
3	586803	86.01	0
3	587488	86.11	0
3	588173	86.21	0
3	588858	86.31	0
3	589543	86.41	0
3	590228	86.51	0
3	590913	86.61	0
3	591598	86.71	0
3	592283	86.81	0
3	592968	86.91	0
3	593662	87.01	0
3	594347	87.11	0
3	595032	87.21	0
3	595717	87.31	0
3	596402	87.41	0
3	597087	87.51	0
3	597772	87.61	0
3	598457	87.71	0
3	599142	87.81	0
3	599827	87.91	0
3	600521	88.01	0
3	601206	88.11	0
3	601891	88.21	0
3	602576	88.31	0
3	603261	88.41	0
3	603946	88.51	0
3	604631	88.61	0
3	605316	88.71	0
3	606001	88.81	0
3	606686	88.91	0
3	607380	89.01	0
3	608065	89.11	0
3	608750	89.21	0
3	609435	89.31	0
3	610120	89.41	0
3	610805	89.51	0
3	611490	89.61	0
3	612175	89.71	0
3	612860	89.81	0
3	613545	89.91	0
3	614239	90.01	0
3	614924	90.11	0
3	615609	90.21	0
3	616294	90.31	0
3	616979	90.41	0
3	617664	90.51	0
3	618349	90.61	0
3	619034	90.71	0
3	619719	90.81	0
3	620404	90.91	0
3	621098	91.01	0
3	621783	91.11	0
3	622468	91.21	0
3	623153	91.31	0
3	623838	91.41	0
3	624523	91.51	0
[...]
120	559162	82	0.028092162539
120	566021	83	0.028091997477
120	572880	84	0.028091803965
120	579739	85	0.028091574572
120	586598	86	0.028091315408
120	593457	87	0.02807804116
120	600316	88	0.028090761314
120	607175	89	0.028090479449
120	614034	90	0.028090196897
120	620893	91	0.028089914316
120	627752	92	0.028089632001
120	634611	93	0.028089350073
120	641470	94	0.028102068582
120	648329	95	0.02808878755
120	655188	96	0.028088506938
120	662047	97	0.028088226731
120	668906	98	0.028087946895
120	675765	99	0.028087667382
120	682624	100	0.028087388152
121	6082	2	0
121	12941	3	0
121	19800	4	0
121	26659	5	0
121	33518	6	0
121	40377	7	0
121	47236	8	0
121	54095	9	0
121	60955	10	0
121	67968	11	0
121	74907	12	0
121	81846	13	0
121	88785	14	0
121	95724	15	0
121	102663	16	0
121	109602	17	0
121	116541	18	0
121	123480	19	0
121	130419	20	0
121	137358	21	0
121	144297	22	0
121	151236	23	0
121	158175	24	0
121	165114	25	0
121	172053	26	0
121	178992	27	0
121	185931	28	0
121	192870	29	0
121	199906	30	0
121	206835	31	0
121	213764	32	0
121	220693	33	0
121	227721	34	0
121	234640	35	0
121	241559	36	0
121	248478	37	0
121	255496	38	0
121	262405	39	0
121	269314	40	0
121	276223	41	0
121	283229	42	0
121	290128	43	0
121	297027	44	0
121	303926	45	0
121	310919	46	0
121	317808	47	0
121	324697	48	0
121	331686	49	0
121	338565	50	0
121	345444	51	0
121	352323	52	0
121	359297	53	0
121	366166	54	0
121	373035	55	0
121	380828	56	0
121	387687	57	0
121	394546	58	0
121	401405	59	0
121	408264	60	0
121	415123	61	0
121	421982	62	0
121	428841	63	0
121	435700	64	0
121	442559	65	0
121	449418	66	0
121	456277	67	0
121	463136	68	0
121	469995	69	0
121	476854	70	0
121	483713	71	0
121	490572	72	0
121	497431	73	0
121	504290	74	0
121	511149	75	0
121	518008	76	0
121	524867	77	0
121	531726	78	0
121	538585	79	0
121	545444	80	0
121	552303	81	0
121	559162	82	0
121	566021	83	0
121	572880	84	0
121	579739	85	0
121	586598	86	0
121	593457	87	0
121	600316	88	0
121	607175	89	0
121	614034	90	0
121	620893	91	0
121	627752	92	0
121	634611	93	0
121	641470	94	0
121	648329	95	0
121	655188	96	0
121	662047	97	0
121	668906	98	0
121	675765	99	0
121	682624	100	0
122	6083	2	6
122	12942	3	6
122	19801	4	6
122	26660	5	6
122	33519	6	6
122	40378	7	6
122	47237	8	6
122	54096	9	6
122	60956	10	6
122	67969	11	6
122	74908	12	6
122	81847	13	6
122	88786	14	6
122	95725	15	6
122	102664	16	6
122	109603	17	6
122	116542	18	6
122	123481	19	6
122	130420	20	6
122	137359	21	6
122	144298	22	6
122	151237	23	6
122	158176	24	6
122	165115	25	6
122	172054	26	6
122	178993	27	6
122	185932	28	6
122	192871	29	6
122	199907	30	6
122	206836	31	6
122	213765	32	6
122	220694	33	6
122	227722	34	6
122	234641	35	6
122	241560	36	6
122	248479	37	6
122	255497	38	6
122	262406	39	6
122	269315	40	6
122	276224	41	6
122	283230	42	6
122	290129	43	6
122	297028	44	6
122	303927	45	6
122	310920	46	6
122	317809	47	6
122	324698	48	6
122	331687	49	6
122	338566	50	6
122	345445	51	6
122	352324	52	6
122	359298	53	6
122	366167	54	6
122	373036	55	6
122	380829	56	6
122	387688	57	6
122	394547	58	6
122	401406	59	6
122	408265	60	6
122	415124	61	6
122	421983	62	6
122	428842	63	6
122	435701	64	6
122	442560	65	6
122	449419	66	6
122	456278	67	6
122	463137	68	6
122	469996	69	6
122	476855	70	6
122	483714	71	6
122	490573	72	6
122	497432	73	6
122	504291	74	6
122	511150	75	6
122	518009	76	6
122	524868	77	6
122	531727	78	6
122	538586	79	6
122	545445	80	6
122	552304	81	6
122	559163	82	6
122	566022	83	6
122	572881	84	6
122	579740	85	6
122	586599	86	6
122	593458	87	6
122	600317	88	6
122	607176	89	6
122	614035	90	6
122	620894	91	6
122	627753	92	6
122	634612	93	6
122	641471	94	6
122	648330	95	6
122	655189	96	6
122	662048	97	6
122	668907	98	6
122	675766	99	6
122	682625	100	6
123	6083	2	0.024459635584
123	12942	3	0.028090794984
123	19801	4	0.02809079497
123	26660	5	0.028090794969
123	33519	6	0.02809079495
123	40378	7	0.02809079494
123	47237	8	0.02809079494
123	54096	9	0.02809079494
123	60956	10	0.02809079494
123	67969	11	0.028135714509
123	74908	12	0.02809078983
123	81847	13	0.028090776914
123	88786	14	0.02809075573
123	95725	15	0.028090727224
123	102664	16	0.028090692544
123	109603	17	0.028090652849
123	116542	18	0.028090609245
123	123481	19	0.028090562765
123	130420	20	0.028090514345
123	137359	21	0.028090464797
123	144298	22	0.028077414855
123	151237	23	0.028090365124
123	158176	24	0.028090316103
123	165115	25	0.028090268224
123	172054	26	0.028090221814
123	178993	27	0.028090177122
123	185932	28	0.028090134345
123	192871	29	0.028090093617
123	199907	30	0.028206963445
123	206836	31	0.028090018593
123	213765	32	0.028089984345
123	220694	33	0.028089952264
123	227722	34	0.028206829906
123	234641	35	0.028089894399
123	241560	36	0.028089868483
123	248479	37	0.028089844469
123	255497	38	0.028193683411
123	262406	39	0.028089801801
123	269315	40	0.028089782959
123	276224	41	0.028089765642
123	283230	42	0.028206564363
123	290129	43	0.02808973519
123	297028	44	0.028089721883
123	303927	45	0.028089709723
123	310920	46	0.028206466689
123	317809	47	0.028089688527
123	324698	48	0.028089679335
123	331687	49	0.028226670978
123	338566	50	0.028089663403
123	345445	51	0.028089656512
123	352324	52	0.028089650278
123	359298	53	0.028206319538
123	366167	54	0.028089639533
123	373036	55	0.028089634922
123	380829	56	0.029133765976
123	387688	57	0.028089469431
123	394547	58	0.028089278526
123	401406	59	0.028088758643
123	408265	60	0.028087795882
123	415124	61	0.028099356795
123	421983	62	0.028084878168
123	428842	63	0.028083623912
123	435701	64	0.028095557198
123	442560	65	0.028094612425
123	449419	66	0.02808080925
123	456278	67	0.02809319816
123	463137	68	0.028092798163
123	469996	69	0.028092606712
123	476855	70	0.028079572451
123	483714	71	0.028092609167
123	490573	72	0.028092666021
123	497432	73	0.028092730324
123	504291	74	0.028092800851
123	511150	75	0.028079872505
123	518009	76	0.028092913077
123	524868	77	0.028092849893
123	531727	78	0.028092720726
123	538586	79	0.028092581468
123	545445	80	0.028079441233
123	552304	81	0.028092298518
123	559163	82	0.028092162736
123	566022	83	0.028091998152
123	572881	84	0.028091805195
123	579740	85	0.028091576325
123	586599	86	0.02809131762
123	593458	87	0.02807804378
123	600317	88	0.028090764298
123	607176	89	0.02809048276
123	614035	90	0.028090200501
123	620894	91	0.028089918183
123	627753	92	0.028089636098
123	634612	93	0.028089354374
123	641471	94	0.02810207306
123	648330	95	0.028088792176
123	655189	96	0.028088511687
123	662048	97	0.02808823157
123	668907	98	0.028087951789
123	675766	99	0.028087672291
123	682625	100	0.028087393016
124	6083	2	0
124	12942	3	0
124	19801	4	0
124	26660	5	0
124	33519	6	0
124	40378	7	0
124	47237	8	0
124	54096	9	0
124	60956	10	0
124	67969	11	0
124	74908	12	0
124	81847	13	0
124	88786	14	0
124	95725	15	0
124	102664	16	0
124	109603	17	0
124	116542	18	0
124	123481	19	0
124	130420	20	0
124	137359	21	0
124	144298	22	0
124	151237	23	0
124	158176	24	0
124	165115	25	0
124	172054	26	0
124	178993	27	0
124	185932	28	0
124	192871	29	0
124	199907	30	0
124	206836	31	0
124	213765	32	0
124	220694	33	0
124	227722	34	0
124	234641	35	0
124	241560	36	0
124	248479	37	0
124	255497	38	0
124	262406	39	0
124	269315	40	0
124	276224	41	0
124	283230	42	0
124	290129	43	0
124	297028	44	0
124	303927	45	0
124	310920	46	0
124	317809	47	0
124	324698	48	0
124	331687	49	0
124	338566	50	0
124	345445	51	0
124	352324	52	0
124	359298	53	0
124	366167	54	0
124	373036	55	0
124	380829	56	0
124	387688	57	0
124	394547	58	0
124	401406	59	0
124	408265	60	0
124	415124	61	0
124	421983	62	0
124	428842	63	0
124	435701	64	0
124	442560	65	0
124	449419	66	0
124	456278	67	0
124	463137	68	0
124	469996	69	0
124	476855	70	0
124	483714	71	0
124	490573	72	0
124	497432	73	0
124	504291	74	0
124	511150	75	0
124	518009	76	0
124	524868	77	0
124	531727	78	0
124	538586	79	0
124	545445	80	0
124	552304	81	0
124	559163	82	0
124	566022	83	0
124	572881	84	0
124	579740	85	0
124	586599	86	0
124	593458	87	0
124	600317	88	0
124	607176	89	0
124	614035	90	0
124	620894	91	0
124	627753	92	0
124	634612	93	0
124	641471	94	0
124	648330	95	0
124	655189	96	0
124	662048	97	0
124	668907	98	0
124	675766	99	0
124	682625	100	0
125	6084	2	7
125	12943	3	7
125	19802	4	7
125	26661	5	7
125	33520	6	7
125	40379	7	7
125	47238	8	7
125	54097	9	7
125	60957	10	7
125	67970	11	7
125	74909	12	7
125	81848	13	7
125	88787	14	7
125	95726	15	7
125	102665	16	7
125	109604	17	7
125	116543	18	7
125	123482	19	7
125	130421	20	7
125	137360	21	7
125	144299	22	7
125	151238	23	7
125	158177	24	7
125	165116	25	7
125	172055	26	7
125	178994	27	7
125	185933	28	7
125	192872	29	7
125	199908	30	7
125	206837	31	7
125	213766	32	7
125	220695	33	7
125	227723	34	7
125	234642	35	7
125	241561	36	7
125	248480	37	7
125	255498	38	7
125	262407	39	7
125	269316	40	7
125	276225	41	7
125	283231	42	7
125	290130	43	7
125	297029	44	7
125	303928	45	7
125	310921	46	7
125	317810	47	7
125	324699	48	7
125	331688	49	7
125	338567	50	7
125	345446	51	7
125	352325	52	7
125	359299	53	7
125	366168	54	7
125	373037	55	7
125	380830	56	7
125	387689	57	7
125	394548	58	7
125	401407	59	7
125	408266	60	7
125	415125	61	7
125	421984	62	7
125	428843	63	7
125	435702	64	7
125	442561	65	7
125	449420	66	7
125	456279	67	7
125	463138	68	7
125	469997	69	7
125	476856	70	7
125	483715	71	7
125	490574	72	7
125	497433	73	7
125	504292	74	7
125	511151	75	7
125	518010	76	7
125	524869	77	7
125	531728	78	7
125	538587	79	7
125	545446	80	7
125	552305	81	7
125	559164	82	7
125	566023	83	7
125	572882	84	7
125	579741	85	7
125	586600	86	7
125	593459	87	7
125	600318	88	7
125	607177	89	7
125	614036	90	7
125	620895	91	7
125	627754	92	7
125	634613	93	7
125	641472	94	7
125	648331	95	7
125	655190	96	7
125	662049	97	7
125	668908	98	7
125	675767	99	7
125	682626	100	7
126	6084	2	0.02445961557
126	12943	3	0.028090794984
126	19802	4	0.02809079497
126	26661	5	0.028090794969
126	33520	6	0.02809079495
126	40379	7	0.02809079494
126	47238	8	0.02809079494
126	54097	9	0.02809079494
126	60957	10	0.02809079494
126	67970	11	0.02813571451
126	74909	12	0.028090789829
126	81848	13	0.028090776909
126	88787	14	0.028090755718
126	95726	15	0.028090727205
126	102665	16	0.028090692515
126	109604	17	0.02809065281
126	116543	18	0.028090609197
126	123482	19	0.028090562706
126	130421	20	0.028090514275
126	137360	21	0.028090464718
126	144299	22	0.028077414767
126	151238	23	0.028090365028
126	158177	24	0.028090316
126	165116	25	0.028090268116
126	172055	26	0.028090221701
126	178994	27	0.028090177007
126	185933	28	0.028090134227
126	192872	29	0.028090093499
126	199908	30	0.028206963327
126	206837	31	0.028090018476
126	213766	32	0.028089984231
126	220695	33	0.028089952152
126	227723	34	0.028206829798
126	234642	35	0.028089894294
126	241561	36	0.028089868382
126	248480	37	0.028089844373
126	255498	38	0.028193683319
126	262407	39	0.028089801714
126	269316	40	0.028089782878
126	276225	41	0.028089765564
126	283231	42	0.02820656429
126	290130	43	0.028089735122
126	297029	44	0.02808972182
126	303928	45	0.028089709663
126	310921	46	0.028206466635
126	317810	47	0.028089688476
126	324699	48	0.028089679288
126	331688	49	0.028193392417
126	338567	50	0.028089663362
126	345446	51	0.028089656476
126	352325	52	0.028089650243
126	359299	53	0.028239644607
126	366168	54	0.028089639504
126	373037	55	0.028089634896
126	380830	56	0.02913376399
126	387689	57	0.028089472552
126	394548	58	0.02808928731
126	401407	59	0.028088774484
126	408266	60	0.02808782134
126	415125	61	0.028099379583
126	421984	62	0.028084899876
126	428843	63	0.028083640889
126	435702	64	0.028095569239
126	442561	65	0.028094619493
126	449420	66	0.028080811338
126	456279	67	0.028093195264
126	463138	68	0.028092790292
126	469997	69	0.028092594812
126	476856	70	0.028079559058
126	483715	71	0.02809259572
126	490574	72	0.028092652751
126	497433	73	0.028092717129
126	504292	74	0.028092787656
126	511151	75	0.028079859298
126	518010	76	0.028092899862
126	524869	77	0.028092836674
126	531728	78	0.028092707506
126	538587	79	0.028092568247
126	545446	80	0.028079428011
126	552305	81	0.028092285296
126	559164	82	0.02809215075
126	566023	83	0.0280919849
126	572882	84	0.028091791948
126	579741	85	0.028091563083
126	586600	86	0.028091304385
126	593459	87	0.028078031207
126	600318	88	0.028090751064
126	607177	89	0.028090469538
126	614036	90	0.028090187292
126	620895	91	0.02808990499
126	627754	92	0.028089622926
126	634613	93	0.028089341226
126	641472	94	0.028102059942
126	648331	95	0.028088779095
126	655190	96	0.028088498653
126	662049	97	0.0280882186
126	668908	98	0.028087938901
126	675767	99	0.028087659514
126	682626	100	0.028087380397
127	6084	2	0
127	12943	3	0
127	19802	4	0
127	26661	5	0
127	33520	6	0
127	40379	7	0
127	47238	8	0
127	54097	9	0
127	60957	10	0
127	67970	11	0
127	74909	12	0
127	81848	13	0
127	88787	14	0
127	95726	15	0
127	102665	16	0
127	109604	17	0
127	116543	18	0
127	123482	19	0
127	130421	20	0
127	137360	21	0
127	144299	22	0
127	151238	23	0
127	158177	24	0
127	165116	25	0
127	172055	26	0
127	178994	27	0
127	185933	28	0
127	192872	29	0
127	199908	30	0
127	206837	31	0
127	213766	32	0
127	220695	33	0
127	227723	34	0
127	234642	35	0
127	241561	36	0
127	248480	37	0
127	255498	38	0
127	262407	39	0
127	269316	40	0
127	276225	41	0
127	283231	42	0
127	290130	43	0
127	297029	44	0
127	303928	45	0
127	310921	46	0
127	317810	47	0
127	324699	48	0
127	331688	49	0
127	338567	50	0
127	345446	51	0
127	352325	52	0
127	359299	53	0
127	366168	54	0
127	373037	55	0
127	380830	56	0
127	387689	57	0
127	394548	58	0
127	401407	59	0
127	408266	60	0
127	415125	61	0
127	421984	62	0
127	428843	63	0
127	435702	64	0
127	442561	65	0
127	449420	66	0
127	456279	67	0
127	463138	68	0
127	469997	69	0
127	476856	70	0
127	483715	71	0
127	490574	72	0
127	497433	73	0
127	504292	74	0
127	511151	75	0
127	518010	76	0
127	524869	77	0
127	531728	78	0
127	538587	79	0
127	545446	80	0
127	552305	81	0
127	559164	82	0
127	566023	83	0
127	572882	84	0
127	579741	85	0
127	586600	86	0
127	593459	87	0
127	600318	88	0
127	607177	89	0
127	614036	90	0
127	620895	91	0
127	627754	92	0
127	634613	93	0
127	641472	94	0
127	648331	95	0
127	655190	96	0
127	662049	97	0
127	668908	98	0
127	675767	99	0
127	682626	100	0
128	6085	2	8
128	12944	3	8
128	19803	4	8
128	26662	5	8
128	33521	6	8
128	40380	7	8
128	47239	8	8
128	54098	9	8
128	60958	10	8
128	67971	11	8
128	74910	12	8
128	81849	13	8
128	88788	14	8
128	95727	15	8
128	102666	16	8
128	109605	17	8
128	116544	18	8
128	123483	19	8
128	130422	20	8
128	137361	21	8
128	144300	22	8
128	151239	23	8
128	158178	24	8
128	165117	25	8
128	172056	26	8
128	178995	27	8
128	185934	28	8
128	192873	29	8
128	199909	30	8
128	206838	31	8
128	213767	32	8
128	220696	33	8
128	227724	34	8
128	234643	35	8
128	241562	36	8
128	248481	37	8
128	255499	38	8
128	262408	39	8
128	269317	40	8
128	276226	41	8
128	283232	42	8
128	290131	43	8
128	297030	44	8
128	303929	45	8
128	310922	46	8
128	317811	47	8
128	324700	48	8
128	331689	49	8
128	338568	50	8
128	345447	51	8
128	352326	52	8
128	359300	53	8
128	366169	54	8
128	373038	55	8
128	380831	56	8
128	387690	57	8
128	394549	58	8
128	401408	59	8
128	408267	60	8
128	415126	61	8
128	421985	62	8
128	428844	63	8
128	435703	64	8
128	442562	65	8
128	449421	66	8
128	456280	67	8
128	463139	68	8
128	469998	69	8
128	476857	70	8
128	483716	71	8
128	490575	72	8
128	497434	73	8
128	504293	74	8
128	511152	75	8
128	518011	76	8
128	524870	77	8
128	531729	78	8
128	538588	79	8
128	545447	80	8
128	552306	81	8
128	559165	82	8
128	566024	83	8
128	572883	84	8
128	579742	85	8
128	586601	86	8
128	593460	87	8
128	600319	88	8
128	607178	89	8
128	614037	90	8
128	620896	91	8
128	627755	92	8
128	634614	93	8
128	641473	94	8
128	648332	95	8
128	655191	96	8
128	662050	97	8
128	668909	98	8
128	675768	99	8
128	682627	100	8
129	6085	2	0.024459595556
129	12944	3	0.028090794985
129	19803	4	0.028090794969
129	26662	5	0.028090794969
129	33521	6	0.02809079495
129	40380	7	0.02809079494
129	47239	8	0.02809079494
129	54098	9	0.02809079494
129	60958	10	0.02809079494
129	67971	11	0.028135714509
129	74910	12	0.028090789828
129	81849	13	0.028090776905
129	88788	14	0.028090755712
129	95727	15	0.028090727193
129	102666	16	0.028090692498
129	109605	17	0.028090652786
129	116544	18	0.028090609164
129	123483	19	0.028090562665
129	130422	20	0.028090514225
129	137361	21	0.028090464659
129	144300	22	0.028077414699
129	151239	23	0.028090364952
129	158178	24	0.028090315917
129	165117	25	0.028090268025
129	172056	26	0.028090221605
129	178995	27	0.028090176906
129	185934	28	0.028090134123
129	192873	29	0.028090093391
129	199909	30	0.028206963218
129	206838	31	0.028090018365
129	213767	32	0.028089984121
129	220696	33	0.028089952042
129	227724	34	0.028206829689
129	234643	35	0.028089894188
129	241562	36	0.028089868278
129	248481	37	0.028089844273
129	255499	38	0.028193683222
129	262408	39	0.02808980162
129	269317	40	0.028089782788
129	276226	41	0.028089765479
129	283232	42	0.028206564208
129	290131	43	0.028089735045
129	297030	44	0.028089721746
129	303929	45	0.028089709595
129	310922	46	0.02820646657
129	317811	47	0.028089688416
129	324700	48	0.028089679231
129	331689	49	0.028193392363
129	338568	50	0.028089663313
129	345447	51	0.02808965643
129	352326	52	0.028089650201
129	359300	53	0.028206319467
129	366169	54	0.028089639468
129	373038	55	0.028089634862
129	380831	56	0.029167137352
129	387690	57	0.028089474607
129	394549	58	0.028089292702
129	401408	59	0.02808878142
129	408267	60	0.028087828159
129	415126	61	0.028099387449
129	421985	62	0.028084909704
129	428844	63	0.02808365337
129	435703	64	0.028095582419
129	442562	65	0.028094632555
129	449421	66	0.028080824224
129	456280	67	0.028093208055
129	463139	68	0.028092803023
129	469998	69	0.028092607464
129	476857	70	0.028079571583
129	483716	71	0.028092608045
129	490575	72	0.028092664774
129	497434	73	0.028092728681
129	504293	74	0.028092798469
129	511152	75	0.028079868963
129	518011	76	0.028092907888
129	524870	77	0.028092842742
129	531729	78	0.028092711738
129	538588	79	0.028092571094
129	545447	80	0.028079429938
129	552306	81	0.028092286636
129	559165	82	0.028092150477
129	566024	83	0.028091985647
129	572883	84	0.028091792524
129	579742	85	0.028091563536
129	586601	86	0.02809130475
129	593460	87	0.028078030852
129	600319	88	0.028090751328
129	607178	89	0.028090469763
129	614037	90	0.028090187485
129	620896	91	0.028089905158
129	627755	92	0.028089623072
129	634614	93	0.028089341355
129	641473	94	0.028102060057
129	648332	95	0.028088779198
129	655191	96	0.028088498746
129	662050	97	0.028088218682
129	668909	98	0.028087938977
129	675768	99	0.028087659583
129	682627	100	0.02808738046
130	6085	2	0
130	12944	3	0
130	19803	4	0
130	26662	5	0
130	33521	6	0
130	40380	7	0
130	47239	8	0
130	54098	9	0
130	60958	10	0
130	67971	11	0
130	74910	12	0
130	81849	13	0
130	88788	14	0
130	95727	15	0
130	102666	16	0
130	109605	17	0
130	116544	18	0
130	123483	19	0
130	130422	20	0
130	137361	21	0
130	144300	22	0
130	151239	23	0
130	158178	24	0
130	165117	25	0
130	172056	26	0
130	178995	27	0
130	185934	28	0
130	192873	29	0
130	199909	30	0
130	206838	31	0
130	213767	32	0
130	220696	33	0
130	227724	34	0
130	234643	35	0
130	241562	36	0
130	248481	37	0
130	255499	38	0
130	262408	39	0
130	269317	40	0
130	276226	41	0
130	283232	42	0
130	290131	43	0
130	297030	44	0
130	303929	45	0
130	310922	46	0
130	317811	47	0
130	324700	48	0
130	331689	49	0
130	338568	50	0
130	345447	51	0
130	352326	52	0
130	359300	53	0
130	366169	54	0
130	373038	55	0
130	380831	56	0
130	387690	57	0
130	394549	58	0
130	401408	59	0
130	408267	60	0
130	415126	61	0
130	421985	62	0
130	428844	63	0
130	435703	64	0
130	442562	65	0
130	449421	66	0
130	456280	67	0
130	463139	68	0
130	469998	69	0
130	476857	70	0
130	483716	71	0
130	490575	72	0
130	497434	73	0
130	504293	74	0
130	511152	75	0
130	518011	76	0
130	524870	77	0
130	531729	78	0
130	538588	79	0
130	545447	80	0
130	552306	81	0
130	559165	82	0
130	566024	83	0
130	572883	84	0
130	579742	85	0
130	586601	86	0
130	593460	87	0
130	600319	88	0
130	607178	89	0
130	614037	90	0
130	620896	91	0
130	627755	92	0
130	634614	93	0
130	641473	94	0
130	648332	95	0
130	655191	96	0
130	662050	97	0
130	668909	98	0
130	675768	99	0
130	682627	100	0

