file 14353 1720584601                                           
version 3
run BreakRanksNoGui-24-20240710-06:10:00-237193
attr configname BreakRanksNoGui
attr datetime 20240710-06:10:00
attr datetimef 20240710-061000
attr experiment BreakRanksNoGui
attr inifile omnetpp.ini
attr iterationvars "$nCars=8, $platoonSize=8, $nLanes=1, $ploegH=0.5, $controller=1, $headway=0.1, $leaderHeadway=1.2, $leaderSpeed=150, $breakRanksSafetyDistance=2, $minSpeed=140, $maxSpeed=160, $beaconInterval=0.1, $priority=4, $packetSize=200, $sController=\"CACC\", $0=0, $1=0"
attr iterationvarsd nCars=8/platoonSize=8/nLanes=1/ploegH=0.5/controller=1/headway=0.1/leaderHeadway=1.2/leaderSpeed=150/breakRanksSafetyDistance=2/minSpeed=140/maxSpeed=160/beaconInterval=0.1/priority=4/packetSize=200/sController=CACC/0/0
attr iterationvarsf nCars=8,platoonSize=8,nLanes=1,ploegH=0.5,controller=1,headway=0.1,leaderHeadway=1.2,leaderSpeed=150,breakRanksSafetyDistance=2,minSpeed=140,maxSpeed=160,beaconInterval=0.1,priority=4,packetSize=200,sController=CACC,0,0-
attr measurement "$nCars=8, $platoonSize=8, $nLanes=1, $ploegH=0.5, $controller=1, $headway=0.1, $leaderHeadway=1.2, $leaderSpeed=150, $breakRanksSafetyDistance=2, $minSpeed=140, $maxSpeed=160, $beaconInterval=0.1, $priority=4, $packetSize=200, $sController=\"CACC\", $0=0, $1=0"
attr network Highway
attr processid 237193
attr repetition 4
attr replication #4
attr resultdir results
attr runnumber 24
attr seedset 4
itervar beaconInterval 0.1
itervar breakRanksSafetyDistance 2
itervar controller 1
itervar headway 0.1
itervar leaderHeadway 1.2
itervar leaderSpeed 150
itervar maxSpeed 160
itervar minSpeed 140
itervar nCars 8
itervar nLanes 1
itervar packetSize 200
itervar platoonSize 8
itervar ploegH 0.5
itervar priority 4
itervar sController "\"CACC\""
config image-path ../../../veins/images
config repeat 10
config extends BreakRanks
config *.manager.command "\"sumo\""
config *.manager.ignoreGuiCommands true
config output-vector-file results/BreakRanks_1_0.1_150_2/result_4.vec
config output-scalar-file results/BreakRanks_1_0.1_150_2/result_4.sca
config extends Platooning
config *.node[*].scenario_type "\"BreakRanksScenario\""
config *.manager.command "\"sumo-gui\""
config *.node[*].scenario_type "\"SimpleScenario\""
config cmdenv-express-mode true
config cmdenv-autoflush true
config cmdenv-status-frequency 15s
config num-rngs 6
config network Highway
config debug-on-errors true
config print-undisposed true
config *.playgroundSizeX 65000m
config *.playgroundSizeY 25000m
config *.playgroundSizeZ 50m
config sim-time-limit "100 s"
config *.annotations.draw false
config *.obstacles.debug false
config *.world.useTorus false
config *.world.use2D false
config *.manager.updateInterval 0.01s
config *.manager.host "\"localhost\""
config *.manager.moduleType "\"org.car2x.plexe.PlatoonCar\""
config *.manager.moduleName "\"node\""
config *.manager.moduleDisplayString "\"\""
config *.manager.autoShutdown true
config *.manager.margin 25
config *.connectionManager.sendDirect true
config *.connectionManager.maxInterfDist 2600m
config *.connectionManager.drawMaxIntfDist false
config *.**.nic.mac1609_4.useServiceChannel false
config *.**.nic.mac1609_4.txPower 100mW
config *.**.nic.mac1609_4.bitrate 6Mbps
config *.**.nic.mac1609_4.useAcks true
config *.**.nic.mac1609_4.ackErrorRate 0.0
config *.**.nic.mac1609_4.frameErrorRate 0.0
config *.**.nic.phy80211p.minPowerLevel -94dBm
config *.**.nic.phy80211p.maxTXPower 100mW
config *.**.nic.phy80211p.useNoiseFloor true
config *.**.nic.phy80211p.noiseFloor -95dBm
config *.**.nic.phy80211p.decider "xmldoc(\"config.xml\")"
config *.**.nic.phy80211p.analogueModels "xmldoc(\"config.xml\")"
config *.**.nic.phy80211p.usePropagationDelay true
config *.node[*].mobility.x 0
config *.node[*].mobility.y 0
config *.node[*].mobility.z 1.895
config seed-set 4
config **.seed 4
config *.node[*].prot.rng-0 2
config *.node[*].appl.rng-0 3
config *.node[*].scenario.rng-0 4
config **.traffic.rng-0 5
config *.manager.configFile "\"./sumocfg/freeway.sumo.cfg\""
config *.manager.launchConfig "xmldoc(\"./sumocfg/freeway.launchd.xml\")"
config **.numberOfCars 8
config **.numberOfCarsPerPlatoon 8
config **.numberOfLanes 1
config *.node[*].helper_type "\"PositionHelper\""
config *.node[*].scenario.caccC1 0
config *.node[*].scenario.caccXi 0
config *.node[*].scenario.caccOmegaN "0.2 Hz"
config *.node[*].scenario.caccSpacing "2 m"
config *.node[*].scenario.engineTau "0.5 s"
config *.node[*].scenario.ploegH 0.5s
config *.node[*].scenario.ploegKp 0.2
config *.node[*].scenario.ploegKd 0.7
config *.node[*].scenario.useRealisticEngine false
config *.node[*].scenario.useControllerAcceleration true
config *.node[*].scenario.nLanes 1
config **.numericController 1
config **.headway 0.1s
config *.node[*].scenario.accHeadway 0.1s
config *.node[*].scenario.leaderHeadway 1.2s
config *.node[*].scenario.leaderSpeed 150kmph
config *.node[*].appl_type "\"SimplePlatooningApp\""
config *.node[*].appl.*.scalar-recording true
config *.node[*].appl.*.vector-recording true
config *.node[0].appl.breakRanksSafetyDistance 2m
config *.node[*].appl.minSpeed 140kmph
config *.node[*].appl.maxSpeed 160kmph
config *.node[*].protocol_type "\"SimplePlatooningBeaconing\""
config *.node[*].prot.*.scalar-recording true
config *.node[*].prot.*.vector-recording true
config *.node[*].prot.beaconingInterval 0.1s
config *.node[*].prot.priority 4
config *.node[*].prot.packetSize 200
config **.traffic_type "\"PlatoonsTrafficManager\""
config **.traffic.platoonInsertTime "1 s"
config **.traffic.platoonInsertSpeed 150kmph
config **.traffic.nCars 8
config **.traffic.platoonSize 8
config **.traffic.nLanes 1
config **.traffic.platooningVType "\"vtypeauto\""
config **.traffic.controller "\"CACC\""
config **.traffic.platoonInsertDistance 0m
config **.traffic.platoonInsertHeadway 0s
config **.traffic.platoonLeaderHeadway 1.2s
config **.scalar-recording false
config **.vector-recording false

vector 0 Highway.node[0].appl distance ETV
vector 1 Highway.node[0].appl relativeSpeed ETV
vector 2 Highway.node[0].appl nodeId ETV
vector 3 Highway.node[0].appl acceleration ETV
vector 4 Highway.node[0].appl controllerAcceleration ETV
vector 5 Highway.node[0].appl speed ETV
vector 6 Highway.node[0].appl posx ETV
vector 7 Highway.node[0].appl posy ETV
vector 8 Highway.node[1].appl distance ETV
vector 9 Highway.node[1].appl relativeSpeed ETV
vector 10 Highway.node[1].appl nodeId ETV
vector 11 Highway.node[1].appl acceleration ETV
vector 12 Highway.node[1].appl controllerAcceleration ETV
vector 13 Highway.node[1].appl speed ETV
vector 14 Highway.node[1].appl posx ETV
vector 15 Highway.node[1].appl posy ETV
vector 16 Highway.node[2].appl distance ETV
vector 17 Highway.node[2].appl relativeSpeed ETV
vector 18 Highway.node[2].appl nodeId ETV
vector 19 Highway.node[2].appl acceleration ETV
vector 20 Highway.node[2].appl controllerAcceleration ETV
vector 21 Highway.node[2].appl speed ETV
vector 22 Highway.node[2].appl posx ETV
vector 23 Highway.node[2].appl posy ETV
vector 24 Highway.node[3].appl distance ETV
vector 25 Highway.node[3].appl relativeSpeed ETV
vector 26 Highway.node[3].appl nodeId ETV
vector 27 Highway.node[3].appl acceleration ETV
vector 28 Highway.node[3].appl controllerAcceleration ETV
vector 29 Highway.node[3].appl speed ETV
vector 30 Highway.node[3].appl posx ETV
vector 31 Highway.node[3].appl posy ETV
vector 32 Highway.node[4].appl distance ETV
vector 33 Highway.node[4].appl relativeSpeed ETV
vector 34 Highway.node[4].appl nodeId ETV
vector 35 Highway.node[4].appl acceleration ETV
vector 36 Highway.node[4].appl controllerAcceleration ETV
vector 37 Highway.node[4].appl speed ETV
vector 38 Highway.node[4].appl posx ETV
vector 39 Highway.node[4].appl posy ETV
vector 40 Highway.node[5].appl distance ETV
vector 41 Highway.node[5].appl relativeSpeed ETV
vector 42 Highway.node[5].appl nodeId ETV
vector 43 Highway.node[5].appl acceleration ETV
vector 44 Highway.node[5].appl controllerAcceleration ETV
vector 45 Highway.node[5].appl speed ETV
vector 46 Highway.node[5].appl posx ETV
vector 47 Highway.node[5].appl posy ETV
vector 48 Highway.node[6].appl distance ETV
vector 49 Highway.node[6].appl relativeSpeed ETV
vector 50 Highway.node[6].appl nodeId ETV
vector 51 Highway.node[6].appl acceleration ETV
vector 52 Highway.node[6].appl controllerAcceleration ETV
vector 53 Highway.node[6].appl speed ETV
vector 54 Highway.node[6].appl posx ETV
vector 55 Highway.node[6].appl posy ETV
vector 56 Highway.node[7].appl distance ETV
vector 57 Highway.node[7].appl relativeSpeed ETV
vector 58 Highway.node[7].appl nodeId ETV
vector 59 Highway.node[7].appl acceleration ETV
vector 60 Highway.node[7].appl controllerAcceleration ETV
vector 61 Highway.node[7].appl speed ETV
vector 62 Highway.node[7].appl posx ETV
vector 63 Highway.node[7].appl posy ETV
vector 64 Highway.node[4].prot frontDelay ETV
vector 65 Highway.node[4].prot frontDelayId ETV
vector 66 Highway.node[1].prot leaderDelay ETV
vector 67 Highway.node[1].prot leaderDelayId ETV
vector 68 Highway.node[1].prot frontDelay ETV
vector 69 Highway.node[1].prot frontDelayId ETV
vector 70 Highway.node[2].prot leaderDelay ETV
vector 71 Highway.node[2].prot leaderDelayId ETV
vector 72 Highway.node[3].prot leaderDelay ETV
vector 73 Highway.node[3].prot leaderDelayId ETV
vector 74 Highway.node[4].prot leaderDelay ETV
vector 75 Highway.node[4].prot leaderDelayId ETV
vector 76 Highway.node[5].prot leaderDelay ETV
vector 77 Highway.node[5].prot leaderDelayId ETV
vector 78 Highway.node[6].prot leaderDelay ETV
vector 79 Highway.node[6].prot leaderDelayId ETV
vector 80 Highway.node[7].prot leaderDelay ETV
vector 81 Highway.node[7].prot leaderDelayId ETV
vector 82 Highway.node[3].prot frontDelay ETV
vector 83 Highway.node[3].prot frontDelayId ETV
vector 84 Highway.node[6].prot frontDelay ETV
vector 85 Highway.node[6].prot frontDelayId ETV
vector 86 Highway.node[2].prot frontDelay ETV
vector 87 Highway.node[2].prot frontDelayId ETV
vector 88 Highway.node[5].prot frontDelay ETV
vector 89 Highway.node[5].prot frontDelayId ETV
vector 90 Highway.node[7].prot frontDelay ETV
vector 91 Highway.node[7].prot frontDelayId ETV
0	10111 43 113 1205 1.11 1.31 3 -1 -1 -3 3
1	10154 40 113 1205 1.11 1.31 3 0 0 0 0
2	10194 40 113 1205 1.11 1.31 3 0 0 0 0
3	10234 70 113 1205 1.11 1.31 3 -0.0014023 -0.000537287 -0.002962147 3.300751563969e-06
4	10304 70 113 1205 1.11 1.31 3 -0.00327777 -0.00308111 -0.00956016 3.04852086434e-05
5	10374 56 113 1205 1.11 1.31 3 41.6698 41.67 125.0097 5209.14169805
6	10430 58 113 1205 1.11 1.31 3 53.0303 61.3643 171.5919 9849.32115987
7	10488 55 113 1205 1.11 1.31 3 242.45 242.45 727.35 176346.0075
8	10543 51 114 1206 1.11 1.31 3 -1 0.000777714 -0.999222286 1.0000006048391
9	10594 55 114 1206 1.11 1.31 3 0 0.780474 0.8162363 0.61041860677729
10	10649 43 114 1206 1.11 1.31 3 1 1 3 3
11	10692 51 114 1206 1.11 1.31 3 -9 0 -10.00826 82.0165882276
12	10743 51 114 1206 1.11 1.31 3 -4097.93 0 -4106.93 16793111.2849
13	10794 59 114 1206 1.11 1.31 3 40.8893 41.67 124.1934 5141.7220373
14	10853 61 114 1206 1.11 1.31 3 49.0303 57.3289 159.5557 8520.44070555
15	10914 58 114 1206 1.11 1.31 3 242.45 242.45 727.35 176346.0075
16	10972 44 115 1207 1.11 1.31 3 -1 0 -1 1
17	11016 43 115 1207 1.11 1.31 3 0 0 0 0
18	11059 43 115 1207 1.11 1.31 3 2 2 6 12
19	11102 52 115 1207 1.11 1.31 3 -9 0 -9.349481 81.122136969361
20	11154 51 115 1207 1.11 1.31 3 -4098.54 0 -4107.54 16798111.1316
21	11205 59 115 1207 1.11 1.31 3 40.8954 41.67 124.2301 5144.76986725
22	11264 61 115 1207 1.11 1.31 3 45.0303 53.3305 147.5581 7292.24447563
23	11325 58 115 1207 1.11 1.31 3 242.45 242.45 727.35 176346.0075
24	11383 53 116 1208 1.11 1.31 3 0 0.000217325 0.000217325 4.7230155625e-08
25	11436 51 116 1208 1.11 1.31 3 0 0.0120449 0.0120449 0.00014507961601
26	11487 43 116 1208 1.11 1.31 3 3 3 9 27
27	11530 52 116 1208 1.11 1.31 3 -9 0 -9.685391 81.469760822881
28	11582 51 116 1208 1.11 1.31 3 -4106.03 0 -4115.03 16859563.3609
29	11633 59 116 1208 1.11 1.31 3 40.9703 41.67 124.293 5149.90179938
30	11692 60 116 1208 1.11 1.31 3 41.0303 49.3364 135.5637 6160.33469205
31	11752 58 116 1208 1.11 1.31 3 242.45 242.45 727.35 176346.0075
32	11810 53 117 1209 1.11 1.31 3 0 0.000523765 0.000523765 2.74329775225e-07
33	11863 59 117 1209 1.11 1.31 3 0 0.0809768 0.0995436 0.00690196820048
34	11922 43 117 1209 1.11 1.31 3 4 4 12 48
35	11965 51 117 1209 1.11 1.31 3 -9 0 -10.00826 82.0165882276
36	12016 51 117 1209 1.11 1.31 3 -4097.93 0 -4106.93 16793111.2849
37	12067 59 117 1209 1.11 1.31 3 40.8893 41.67 124.1934 5141.7220373
38	12126 61 117 1209 1.11 1.31 3 37.0303 45.3289 123.5557 5123.10390555
39	12187 58 117 1209 1.11 1.31 3 242.45 242.45 727.35 176346.0075
40	12245 44 118 1210 1.11 1.31 3 -1 0 -1 1
41	12289 43 118 1210 1.11 1.31 3 0 0 0 0
42	12332 43 118 1210 1.11 1.31 3 5 5 15 75
43	12375 52 118 1210 1.11 1.31 3 -9 0 -9.349481 81.122136969361
44	12427 51 118 1210 1.11 1.31 3 -4098.54 0 -4107.54 16798111.1316
45	12478 59 118 1210 1.11 1.31 3 40.8954 41.67 124.2301 5144.76986725
46	12537 61 118 1210 1.11 1.31 3 33.0303 41.3305 111.5581 4182.85007563
47	12598 58 118 1210 1.11 1.31 3 242.45 242.45 727.35 176346.0075
48	12656 53 119 1211 1.11 1.31 3 0 0.000217325 0.000217325 4.7230155625e-08
49	12709 51 119 1211 1.11 1.31 3 0 0.0120449 0.0120449 0.00014507961601
50	12760 43 119 1211 1.11 1.31 3 6 6 18 108
51	12803 52 119 1211 1.11 1.31 3 -9 0 -9.685391 81.469760822881
52	12855 51 119 1211 1.11 1.31 3 -4106.03 0 -4115.03 16859563.3609
53	12906 59 119 1211 1.11 1.31 3 40.9703 41.67 124.293 5149.90179938
54	12965 60 119 1211 1.11 1.31 3 29.0303 37.3364 99.5637 3338.80589205
55	13025 58 119 1211 1.11 1.31 3 242.45 242.45 727.35 176346.0075
56	13083 44 120 1212 1.11 1.31 3 -1 0 -1 1
57	13127 43 120 1212 1.11 1.31 3 0 0 0 0
58	13170 43 120 1212 1.11 1.31 3 7 7 21 147
59	13213 52 120 1212 1.11 1.31 3 -9 0 -9.349481 81.122136969361
60	13265 51 120 1212 1.11 1.31 3 -4113.66 0 -4122.66 16922279.5956
61	13316 59 120 1212 1.11 1.31 3 41.0466 41.67 124.3813 5157.15949765
62	13375 61 120 1212 1.11 1.31 3 25.0303 33.3428 87.5704 2590.74055722
63	13436 58 120 1212 1.11 1.31 3 242.45 242.45 727.35 176346.0075
64	13494 37 771 771 1.240521360257 1.240521360257 1 0.100000293544 0.100000293544 0.100000293544 0.010000058708886
65	13531 24 771 771 1.240521360257 1.240521360257 1 4 4 4 16
66	13555 37 831 831 1.241802400295 1.241802400295 1 0.100000293554 0.100000293554 0.100000293554 0.010000058710886
67	13592 24 831 831 1.241802400295 1.241802400295 1 1 1 1 1
68	13616 37 831 831 1.241802400295 1.241802400295 1 0.100000293554 0.100000293554 0.100000293554 0.010000058710886
69	13653 24 831 831 1.241802400295 1.241802400295 1 1 1 1 1
70	13677 37 837 837 1.241802413634 1.241802413634 1 0.100000293551 0.100000293551 0.100000293551 0.010000058710286
71	13714 24 837 837 1.241802413634 1.241802413634 1 2 2 2 4
72	13738 36 843 843 1.24180242697 1.24180242697 1 0.100000293544 0.100000293544 0.100000293544 0.010000058708886
73	13774 23 843 843 1.24180242697 1.24180242697 1 3 3 3 9
74	13797 37 849 849 1.241802440323 1.241802440323 1 0.100000293555 0.100000293555 0.100000293555 0.010000058711086
75	13834 24 849 849 1.241802440323 1.241802440323 1 4 4 4 16
76	13858 37 855 855 1.241802453662 1.241802453662 1 0.100000293551 0.100000293551 0.100000293551 0.010000058710286
77	13895 24 855 855 1.241802453662 1.241802453662 1 5 5 5 25
78	13919 37 861 861 1.241802466998 1.241802466998 1 0.100000293545 0.100000293545 0.100000293545 0.010000058709086
79	13956 24 861 861 1.241802466998 1.241802466998 1 6 6 6 36
80	13980 37 867 867 1.241802480338 1.241802480338 1 0.100000293542 0.100000293542 0.100000293542 0.010000058708486
81	14017 24 867 867 1.241802480338 1.241802480338 1 7 7 7 49
82	14041 37 899 899 1.262739426967 1.262739426967 1 0.100000293541 0.100000293541 0.100000293541 0.010000058708286
83	14078 24 899 899 1.262739426967 1.262739426967 1 3 3 3 9
84	14102 37 965 965 1.266698466995 1.266698466995 1 0.100000293541 0.100000293541 0.100000293541 0.010000058708286
85	14139 24 965 965 1.266698466995 1.266698466995 1 6 6 6 36
86	14163 38 1033 1033 1.281915520366 1.281915520366 1 0.100000293543 0.100000293543 0.100000293543 0.010000058708686
87	14201 25 1033 1033 1.281915520366 1.281915520366 1 2 2 2 4
88	14226 38 1099 1099 1.287382560394 1.287382560394 1 0.100000293543 0.100000293543 0.100000293543 0.010000058708686
89	14264 25 1099 1099 1.287382560394 1.287382560394 1 5 5 5 25
90	14289 38 1165 1165 1.289456587048 1.289456587048 1 0.100000293513 0.100000293513 0.100000293513 0.010000058702686
91	14327 25 1165 1165 1.289456587048 1.289456587048 1 7 7 7 49

