file 14339 1720584598                                           
version 3
run BreakRanksNoGui-22-20240710-06:09:57-237173
attr configname BreakRanksNoGui
attr datetime 20240710-06:09:57
attr datetimef 20240710-060957
attr experiment BreakRanksNoGui
attr inifile omnetpp.ini
attr iterationvars "$nCars=8, $platoonSize=8, $nLanes=1, $ploegH=0.5, $controller=1, $headway=0.1, $leaderHeadway=1.2, $leaderSpeed=150, $breakRanksSafetyDistance=2, $minSpeed=140, $maxSpeed=160, $beaconInterval=0.1, $priority=4, $packetSize=200, $sController=\"CACC\", $0=0, $1=0"
attr iterationvarsd nCars=8/platoonSize=8/nLanes=1/ploegH=0.5/controller=1/headway=0.1/leaderHeadway=1.2/leaderSpeed=150/breakRanksSafetyDistance=2/minSpeed=140/maxSpeed=160/beaconInterval=0.1/priority=4/packetSize=200/sController=CACC/0/0
attr iterationvarsf nCars=8,platoonSize=8,nLanes=1,ploegH=0.5,controller=1,headway=0.1,leaderHeadway=1.2,leaderSpeed=150,breakRanksSafetyDistance=2,minSpeed=140,maxSpeed=160,beaconInterval=0.1,priority=4,packetSize=200,sController=CACC,0,0-
attr measurement "$nCars=8, $platoonSize=8, $nLanes=1, $ploegH=0.5, $controller=1, $headway=0.1, $leaderHeadway=1.2, $leaderSpeed=150, $breakRanksSafetyDistance=2, $minSpeed=140, $maxSpeed=160, $beaconInterval=0.1, $priority=4, $packetSize=200, $sController=\"CACC\", $0=0, $1=0"
attr network Highway
attr processid 237173
attr repetition 2
attr replication #2
attr resultdir results
attr runnumber 22
attr seedset 2
itervar beaconInterval 0.1
itervar breakRanksSafetyDistance 2
itervar controller 1
itervar headway 0.1
itervar leaderHeadway 1.2
itervar leaderSpeed 150
itervar maxSpeed 160
itervar minSpeed 140
itervar nCars 8
itervar nLanes 1
itervar packetSize 200
itervar platoonSize 8
itervar ploegH 0.5
itervar priority 4
itervar sController "\"CACC\""
config image-path ../../../veins/images
config repeat 10
config extends BreakRanks
config *.manager.command "\"sumo\""
config *.manager.ignoreGuiCommands true
config output-vector-file results/BreakRanks_1_0.1_150_2/result_2.vec
config output-scalar-file results/BreakRanks_1_0.1_150_2/result_2.sca
config extends Platooning
config *.node[*].scenario_type "\"BreakRanksScenario\""
config *.manager.command "\"sumo-gui\""
config *.node[*].scenario_type "\"SimpleScenario\""
config cmdenv-express-mode true
config cmdenv-autoflush true
config cmdenv-status-frequency 15s
config num-rngs 6
config network Highway
config debug-on-errors true
config print-undisposed true
config *.playgroundSizeX 65000m
config *.playgroundSizeY 25000m
config *.playgroundSizeZ 50m
config sim-time-limit "100 s"
config *.annotations.draw false
config *.obstacles.debug false
config *.world.useTorus false
config *.world.use2D false
config *.manager.updateInterval 0.01s
config *.manager.host "\"localhost\""
config *.manager.moduleType "\"org.car2x.plexe.PlatoonCar\""
config *.manager.moduleName "\"node\""
config *.manager.moduleDisplayString "\"\""
config *.manager.autoShutdown true
config *.manager.margin 25
config *.connectionManager.sendDirect true
config *.connectionManager.maxInterfDist 2600m
config *.connectionManager.drawMaxIntfDist false
config *.**.nic.mac1609_4.useServiceChannel false
config *.**.nic.mac1609_4.txPower 100mW
config *.**.nic.mac1609_4.bitrate 6Mbps
config *.**.nic.mac1609_4.useAcks true
config *.**.nic.mac1609_4.ackErrorRate 0.0
config *.**.nic.mac1609_4.frameErrorRate 0.0
config *.**.nic.phy80211p.minPowerLevel -94dBm
config *.**.nic.phy80211p.maxTXPower 100mW
config *.**.nic.phy80211p.useNoiseFloor true
config *.**.nic.phy80211p.noiseFloor -95dBm
config *.**.nic.phy80211p.decider "xmldoc(\"config.xml\")"
config *.**.nic.phy80211p.analogueModels "xmldoc(\"config.xml\")"
config *.**.nic.phy80211p.usePropagationDelay true
config *.node[*].mobility.x 0
config *.node[*].mobility.y 0
config *.node[*].mobility.z 1.895
config seed-set 2
config **.seed 2
config *.node[*].prot.rng-0 2
config *.node[*].appl.rng-0 3
config *.node[*].scenario.rng-0 4
config **.traffic.rng-0 5
config *.manager.configFile "\"./sumocfg/freeway.sumo.cfg\""
config *.manager.launchConfig "xmldoc(\"./sumocfg/freeway.launchd.xml\")"
config **.numberOfCars 8
config **.numberOfCarsPerPlatoon 8
config **.numberOfLanes 1
config *.node[*].helper_type "\"PositionHelper\""
config *.node[*].scenario.caccC1 0
config *.node[*].scenario.caccXi 0
config *.node[*].scenario.caccOmegaN "0.2 Hz"
config *.node[*].scenario.caccSpacing "2 m"
config *.node[*].scenario.engineTau "0.5 s"
config *.node[*].scenario.ploegH 0.5s
config *.node[*].scenario.ploegKp 0.2
config *.node[*].scenario.ploegKd 0.7
config *.node[*].scenario.useRealisticEngine false
config *.node[*].scenario.useControllerAcceleration true
config *.node[*].scenario.nLanes 1
config **.numericController 1
config **.headway 0.1s
config *.node[*].scenario.accHeadway 0.1s
config *.node[*].scenario.leaderHeadway 1.2s
config *.node[*].scenario.leaderSpeed 150kmph
config *.node[*].appl_type "\"SimplePlatooningApp\""
config *.node[*].appl.*.scalar-recording true
config *.node[*].appl.*.vector-recording true
config *.node[0].appl.breakRanksSafetyDistance 2m
config *.node[*].appl.minSpeed 140kmph
config *.node[*].appl.maxSpeed 160kmph
config *.node[*].protocol_type "\"SimplePlatooningBeaconing\""
config *.node[*].prot.*.scalar-recording true
config *.node[*].prot.*.vector-recording true
config *.node[*].prot.beaconingInterval 0.1s
config *.node[*].prot.priority 4
config *.node[*].prot.packetSize 200
config **.traffic_type "\"PlatoonsTrafficManager\""
config **.traffic.platoonInsertTime "1 s"
config **.traffic.platoonInsertSpeed 150kmph
config **.traffic.nCars 8
config **.traffic.platoonSize 8
config **.traffic.nLanes 1
config **.traffic.platooningVType "\"vtypeauto\""
config **.traffic.controller "\"CACC\""
config **.traffic.platoonInsertDistance 0m
config **.traffic.platoonInsertHeadway 0s
config **.traffic.platoonLeaderHeadway 1.2s
config **.scalar-recording false
config **.vector-recording false

vector 0 Highway.node[0].appl distance ETV
vector 1 Highway.node[0].appl relativeSpeed ETV
vector 2 Highway.node[0].appl nodeId ETV
vector 3 Highway.node[0].appl acceleration ETV
vector 4 Highway.node[0].appl controllerAcceleration ETV
vector 5 Highway.node[0].appl speed ETV
vector 6 Highway.node[0].appl posx ETV
vector 7 Highway.node[0].appl posy ETV
vector 8 Highway.node[1].appl distance ETV
vector 9 Highway.node[1].appl relativeSpeed ETV
vector 10 Highway.node[1].appl nodeId ETV
vector 11 Highway.node[1].appl acceleration ETV
vector 12 Highway.node[1].appl controllerAcceleration ETV
vector 13 Highway.node[1].appl speed ETV
vector 14 Highway.node[1].appl posx ETV
vector 15 Highway.node[1].appl posy ETV
vector 16 Highway.node[2].appl distance ETV
vector 17 Highway.node[2].appl relativeSpeed ETV
vector 18 Highway.node[2].appl nodeId ETV
vector 19 Highway.node[2].appl acceleration ETV
vector 20 Highway.node[2].appl controllerAcceleration ETV
vector 21 Highway.node[2].appl speed ETV
vector 22 Highway.node[2].appl posx ETV
vector 23 Highway.node[2].appl posy ETV
vector 24 Highway.node[3].appl distance ETV
vector 25 Highway.node[3].appl relativeSpeed ETV
vector 26 Highway.node[3].appl nodeId ETV
vector 27 Highway.node[3].appl acceleration ETV
vector 28 Highway.node[3].appl controllerAcceleration ETV
vector 29 Highway.node[3].appl speed ETV
vector 30 Highway.node[3].appl posx ETV
vector 31 Highway.node[3].appl posy ETV
vector 32 Highway.node[4].appl distance ETV
vector 33 Highway.node[4].appl relativeSpeed ETV
vector 34 Highway.node[4].appl nodeId ETV
vector 35 Highway.node[4].appl acceleration ETV
vector 36 Highway.node[4].appl controllerAcceleration ETV
vector 37 Highway.node[4].appl speed ETV
vector 38 Highway.node[4].appl posx ETV
vector 39 Highway.node[4].appl posy ETV
vector 40 Highway.node[5].appl distance ETV
vector 41 Highway.node[5].appl relativeSpeed ETV
vector 42 Highway.node[5].appl nodeId ETV
vector 43 Highway.node[5].appl acceleration ETV
vector 44 Highway.node[5].appl controllerAcceleration ETV
vector 45 Highway.node[5].appl speed ETV
vector 46 Highway.node[5].appl posx ETV
vector 47 Highway.node[5].appl posy ETV
vector 48 Highway.node[6].appl distance ETV
vector 49 Highway.node[6].appl relativeSpeed ETV
vector 50 Highway.node[6].appl nodeId ETV
vector 51 Highway.node[6].appl acceleration ETV
vector 52 Highway.node[6].appl controllerAcceleration ETV
vector 53 Highway.node[6].appl speed ETV
vector 54 Highway.node[6].appl posx ETV
vector 55 Highway.node[6].appl posy ETV
vector 56 Highway.node[7].appl distance ETV
vector 57 Highway.node[7].appl relativeSpeed ETV
vector 58 Highway.node[7].appl nodeId ETV
vector 59 Highway.node[7].appl acceleration ETV
vector 60 Highway.node[7].appl controllerAcceleration ETV
vector 61 Highway.node[7].appl speed ETV
vector 62 Highway.node[7].appl posx ETV
vector 63 Highway.node[7].appl posy ETV
vector 64 Highway.node[7].prot frontDelay ETV
vector 65 Highway.node[7].prot frontDelayId ETV
vector 66 Highway.node[6].prot frontDelay ETV
vector 67 Highway.node[6].prot frontDelayId ETV
vector 68 Highway.node[1].prot leaderDelay ETV
vector 69 Highway.node[1].prot leaderDelayId ETV
vector 70 Highway.node[1].prot frontDelay ETV
vector 71 Highway.node[1].prot frontDelayId ETV
vector 72 Highway.node[2].prot leaderDelay ETV
vector 73 Highway.node[2].prot leaderDelayId ETV
vector 74 Highway.node[3].prot leaderDelay ETV
vector 75 Highway.node[3].prot leaderDelayId ETV
vector 76 Highway.node[4].prot leaderDelay ETV
vector 77 Highway.node[4].prot leaderDelayId ETV
vector 78 Highway.node[5].prot leaderDelay ETV
vector 79 Highway.node[5].prot leaderDelayId ETV
vector 80 Highway.node[6].prot leaderDelay ETV
vector 81 Highway.node[6].prot leaderDelayId ETV
vector 82 Highway.node[7].prot leaderDelay ETV
vector 83 Highway.node[7].prot leaderDelayId ETV
vector 84 Highway.node[4].prot frontDelay ETV
vector 85 Highway.node[4].prot frontDelayId ETV
vector 86 Highway.node[3].prot frontDelay ETV
vector 87 Highway.node[3].prot frontDelayId ETV
vector 88 Highway.node[5].prot frontDelay ETV
vector 89 Highway.node[5].prot frontDelayId ETV
vector 90 Highway.node[2].prot frontDelay ETV
vector 91 Highway.node[2].prot frontDelayId ETV
0	10111 43 113 1205 1.11 1.31 3 -1 -1 -3 3
1	10154 40 113 1205 1.11 1.31 3 0 0 0 0
2	10194 40 113 1205 1.11 1.31 3 0 0 0 0
3	10234 70 113 1205 1.11 1.31 3 -0.0014023 -0.000537287 -0.002962147 3.300751563969e-06
4	10304 70 113 1205 1.11 1.31 3 -0.00327777 -0.00308111 -0.00956016 3.04852086434e-05
5	10374 56 113 1205 1.11 1.31 3 41.6698 41.67 125.0097 5209.14169805
6	10430 58 113 1205 1.11 1.31 3 41.6403 49.9743 137.4219 6329.65397787
7	10488 55 113 1205 1.11 1.31 3 242.45 242.45 727.35 176346.0075
8	10543 51 114 1206 1.11 1.31 3 -1 0.000253949 -0.999746051 1.0000000644901
9	10594 55 114 1206 1.11 1.31 3 0 0.600474 0.6176695 0.36086470989625
10	10649 43 114 1206 1.11 1.31 3 1 1 3 3
11	10692 52 114 1206 1.11 1.31 3 -9 0 -9.685391 81.469760822881
12	10744 51 114 1206 1.11 1.31 3 -4115.93 0 -4124.93 16940960.7649
13	10795 59 114 1206 1.11 1.31 3 41.0693 41.67 124.392 5158.02371978
14	10854 60 114 1206 1.11 1.31 3 37.6403 45.9527 125.4 5276.26807038
15	10914 58 114 1206 1.11 1.31 3 242.45 242.45 727.35 176346.0075
16	10972 44 115 1207 1.11 1.31 3 -1 0 -1 1
17	11016 43 115 1207 1.11 1.31 3 0 0 0 0
18	11059 43 115 1207 1.11 1.31 3 2 2 6 12
19	11102 44 115 1207 1.11 1.31 3 -9 0 -9 81
20	11146 50 115 1207 1.11 1.31 3 -4116.54 0 -4116.54 16945901.5716
21	11196 57 115 1207 1.11 1.31 3 41.0754 41.67 124.4154 5159.96628516
22	11253 61 115 1207 1.11 1.31 3 33.6403 41.9542 113.4018 4321.21661502
23	11314 58 115 1207 1.11 1.31 3 242.45 242.45 727.35 176346.0075
24	11372 53 116 1208 1.11 1.31 3 0 4.39446e-05 4.39446e-05 1.93112786916e-09
25	11425 52 116 1208 1.11 1.31 3 0 0.00525952 0.00525952 2.76625506304e-05
26	11477 43 116 1208 1.11 1.31 3 3 3 9 27
27	11520 52 116 1208 1.11 1.31 3 -9 0 -9.349481 81.122136969361
28	11572 51 116 1208 1.11 1.31 3 -4124.03 0 -4133.03 17007704.4409
29	11623 59 116 1208 1.11 1.31 3 41.1503 41.67 124.485 5165.68331618
30	11682 61 116 1208 1.11 1.31 3 29.6403 37.9586 101.4062 3462.33623134
31	11743 58 116 1208 1.11 1.31 3 242.45 242.45 727.35 176346.0075
32	11801 53 117 1209 1.11 1.31 3 0 7.85501e-05 7.85501e-05 6.17011821001e-09
33	11854 52 117 1209 1.11 1.31 3 0 0.00519099 0.00519099 2.69463771801e-05
34	11906 43 117 1209 1.11 1.31 3 4 4 12 48
35	11949 52 117 1209 1.11 1.31 3 -9 0 -9.519099 81.269463771801
36	12001 51 117 1209 1.11 1.31 3 -4139.84 0 -4148.84 17138356.2256
37	12052 59 117 1209 1.11 1.31 3 41.3084 41.67 124.6379 5178.28675081
38	12111 61 117 1209 1.11 1.31 3 25.6403 33.9642 89.4117 2699.46103757
39	12172 58 117 1209 1.11 1.31 3 242.45 242.45 727.35 176346.0075
40	12230 44 118 1210 1.11 1.31 3 -1 0 -1 1
41	12274 43 118 1210 1.11 1.31 3 0 0 0 0
42	12317 43 118 1210 1.11 1.31 3 5 5 15 75
43	12360 52 118 1210 1.11 1.31 3 -9 0 -9.176471 81.031142013841
44	12412 51 118 1210 1.11 1.31 3 -4140.12 0 -4149.12 17140674.6144
45	12463 59 118 1210 1.11 1.31 3 41.3112 41.67 124.6494 5179.24303668
46	12522 61 118 1210 1.11 1.31 3 21.6403 29.9656 77.4132 2032.25650074
47	12583 58 118 1210 1.11 1.31 3 242.45 242.45 727.35 176346.0075
48	12641 55 119 1211 1.11 1.31 3 -1 0.000252446 -1.999747554 2.000000063729
49	12696 51 119 1211 1.11 1.31 3 0 0.0155397 0.0155397 0.00024148227609
50	12747 43 119 1211 1.11 1.31 3 6 6 18 108
51	12790 58 119 1211 1.11 1.31 3 -2.17912 0 -2.864511 5.218324797281
52	12848 45 119 1211 1.11 1.31 3 -9 0 -18 162
53	12893 59 119 1211 1.11 1.31 3 41.4996 41.67 124.8223 5193.55311745
54	12952 60 119 1211 1.11 1.31 3 17.6403 25.9659 65.4132 1460.9533959
55	13012 58 119 1211 1.11 1.31 3 242.45 242.45 727.35 176346.0075
56	13070 46 120 1212 1.11 1.31 3 -1 -1 -3 3
57	13116 43 120 1212 1.11 1.31 3 0 0 0 0
58	13159 43 120 1212 1.11 1.31 3 7 7 21 147
59	13202 58 120 1212 1.11 1.31 3 -2.17912 0 -2.864511 5.218324797281
60	13260 45 120 1212 1.11 1.31 3 -9 0 -18 162
61	13305 59 120 1212 1.11 1.31 3 41.4996 41.67 124.8223 5193.55311745
62	13364 60 120 1212 1.11 1.31 3 13.6403 21.9659 53.4132 985.6477959
63	13424 58 120 1212 1.11 1.31 3 242.45 242.45 727.35 176346.0075
64	13482 36 696 696 1.21212230688 1.21212230688 1 0.100000293537 0.100000293537 0.100000293537 0.010000058707486
65	13518 23 696 696 1.21212230688 1.21212230688 1 7 7 7 49
66	13541 37 837 837 1.247587346914 1.247587346914 1 0.100000293543 0.100000293543 0.100000293543 0.010000058708686
67	13578 24 837 837 1.247587346914 1.247587346914 1 6 6 6 36
68	13602 37 899 899 1.262193413639 1.262193413639 1 0.099987293555 0.099987293555 0.099987293555 0.0099974588724537
69	13639 24 899 899 1.262193413639 1.262193413639 1 1 1 1 1
70	13663 37 899 899 1.262193413639 1.262193413639 1 0.099987293555 0.099987293555 0.099987293555 0.0099974588724537
71	13700 24 899 899 1.262193413639 1.262193413639 1 1 1 1 1
72	13724 37 905 905 1.262193426978 1.262193426978 1 0.099987293552 0.099987293552 0.099987293552 0.0099974588718538
73	13761 24 905 905 1.262193426978 1.262193426978 1 2 2 2 4
74	13785 37 911 911 1.262193440314 1.262193440314 1 0.099987293545 0.099987293545 0.099987293545 0.009997458870454
75	13822 24 911 911 1.262193440314 1.262193440314 1 3 3 3 9
76	13846 37 917 917 1.262193453659 1.262193453659 1 0.099987293548 0.099987293548 0.099987293548 0.0099974588710539
77	13883 24 917 917 1.262193453659 1.262193453659 1 4 4 4 16
78	13907 37 923 923 1.262193466998 1.262193466998 1 0.099987293544 0.099987293544 0.099987293544 0.009997458870254
79	13944 24 923 923 1.262193466998 1.262193466998 1 5 5 5 25
80	13968 37 929 929 1.262193480347 1.262193480347 1 0.099987293551 0.099987293551 0.099987293551 0.0099974588716538
81	14005 24 929 929 1.262193480347 1.262193480347 1 6 6 6 36
82	14029 36 935 935 1.26219349369 1.26219349369 1 0.099987293551 0.099987293551 0.099987293551 0.0099974588716538
83	14065 23 935 935 1.26219349369 1.26219349369 1 7 7 7 49
84	14088 37 972 972 1.276565453654 1.276565453654 1 0.100000293542 0.100000293542 0.100000293542 0.010000058708486
85	14125 24 972 972 1.276565453654 1.276565453654 1 4 4 4 16
86	14149 38 1033 1033 1.287856466982 1.287856466982 1 0.099987293527 0.099987293527 0.099987293527 0.0099974588668545
87	14187 25 1033 1033 1.287856466982 1.287856466982 1 3 3 3 9
88	14212 38 1106 1106 1.297496493654 1.297496493654 1 0.100000293515 0.100000293515 0.100000293515 0.010000058703086
89	14250 25 1106 1106 1.297496493654 1.297496493654 1 5 5 5 25
90	14275 38 1167 1167 1.302586533651 1.302586533651 1 0.100000293485 0.100000293485 0.100000293485 0.010000058697086
91	14313 25 1167 1167 1.302586533651 1.302586533651 1 2 2 2 4

