file 14342 1720584615                                           
version 3
run BreakRanksNoGui-28-20240710-06:10:14-237233
attr configname BreakRanksNoGui
attr datetime 20240710-06:10:14
attr datetimef 20240710-061014
attr experiment BreakRanksNoGui
attr inifile omnetpp.ini
attr iterationvars "$nCars=8, $platoonSize=8, $nLanes=1, $ploegH=0.5, $controller=1, $headway=0.1, $leaderHeadway=1.2, $leaderSpeed=150, $breakRanksSafetyDistance=2, $minSpeed=140, $maxSpeed=160, $beaconInterval=0.1, $priority=4, $packetSize=200, $sController=\"CACC\", $0=0, $1=0"
attr iterationvarsd nCars=8/platoonSize=8/nLanes=1/ploegH=0.5/controller=1/headway=0.1/leaderHeadway=1.2/leaderSpeed=150/breakRanksSafetyDistance=2/minSpeed=140/maxSpeed=160/beaconInterval=0.1/priority=4/packetSize=200/sController=CACC/0/0
attr iterationvarsf nCars=8,platoonSize=8,nLanes=1,ploegH=0.5,controller=1,headway=0.1,leaderHeadway=1.2,leaderSpeed=150,breakRanksSafetyDistance=2,minSpeed=140,maxSpeed=160,beaconInterval=0.1,priority=4,packetSize=200,sController=CACC,0,0-
attr measurement "$nCars=8, $platoonSize=8, $nLanes=1, $ploegH=0.5, $controller=1, $headway=0.1, $leaderHeadway=1.2, $leaderSpeed=150, $breakRanksSafetyDistance=2, $minSpeed=140, $maxSpeed=160, $beaconInterval=0.1, $priority=4, $packetSize=200, $sController=\"CACC\", $0=0, $1=0"
attr network Highway
attr processid 237233
attr repetition 8
attr replication #8
attr resultdir results
attr runnumber 28
attr seedset 8
itervar beaconInterval 0.1
itervar breakRanksSafetyDistance 2
itervar controller 1
itervar headway 0.1
itervar leaderHeadway 1.2
itervar leaderSpeed 150
itervar maxSpeed 160
itervar minSpeed 140
itervar nCars 8
itervar nLanes 1
itervar packetSize 200
itervar platoonSize 8
itervar ploegH 0.5
itervar priority 4
itervar sController "\"CACC\""
config image-path ../../../veins/images
config repeat 10
config extends BreakRanks
config *.manager.command "\"sumo\""
config *.manager.ignoreGuiCommands true
config output-vector-file results/BreakRanks_1_0.1_150_2/result_8.vec
config output-scalar-file results/BreakRanks_1_0.1_150_2/result_8.sca
config extends Platooning
config *.node[*].scenario_type "\"BreakRanksScenario\""
config *.manager.command "\"sumo-gui\""
config *.node[*].scenario_type "\"SimpleScenario\""
config cmdenv-express-mode true
config cmdenv-autoflush true
config cmdenv-status-frequency 15s
config num-rngs 6
config network Highway
config debug-on-errors true
config print-undisposed true
config *.playgroundSizeX 65000m
config *.playgroundSizeY 25000m
config *.playgroundSizeZ 50m
config sim-time-limit "100 s"
config *.annotations.draw false
config *.obstacles.debug false
config *.world.useTorus false
config *.world.use2D false
config *.manager.updateInterval 0.01s
config *.manager.host "\"localhost\""
config *.manager.moduleType "\"org.car2x.plexe.PlatoonCar\""
config *.manager.moduleName "\"node\""
config *.manager.moduleDisplayString "\"\""
config *.manager.autoShutdown true
config *.manager.margin 25
config *.connectionManager.sendDirect true
config *.connectionManager.maxInterfDist 2600m
config *.connectionManager.drawMaxIntfDist false
config *.**.nic.mac1609_4.useServiceChannel false
config *.**.nic.mac1609_4.txPower 100mW
config *.**.nic.mac1609_4.bitrate 6Mbps
config *.**.nic.mac1609_4.useAcks true
config *.**.nic.mac1609_4.ackErrorRate 0.0
config *.**.nic.mac1609_4.frameErrorRate 0.0
config *.**.nic.phy80211p.minPowerLevel -94dBm
config *.**.nic.phy80211p.maxTXPower 100mW
config *.**.nic.phy80211p.useNoiseFloor true
config *.**.nic.phy80211p.noiseFloor -95dBm
config *.**.nic.phy80211p.decider "xmldoc(\"config.xml\")"
config *.**.nic.phy80211p.analogueModels "xmldoc(\"config.xml\")"
config *.**.nic.phy80211p.usePropagationDelay true
config *.node[*].mobility.x 0
config *.node[*].mobility.y 0
config *.node[*].mobility.z 1.895
config seed-set 8
config **.seed 8
config *.node[*].prot.rng-0 2
config *.node[*].appl.rng-0 3
config *.node[*].scenario.rng-0 4
config **.traffic.rng-0 5
config *.manager.configFile "\"./sumocfg/freeway.sumo.cfg\""
config *.manager.launchConfig "xmldoc(\"./sumocfg/freeway.launchd.xml\")"
config **.numberOfCars 8
config **.numberOfCarsPerPlatoon 8
config **.numberOfLanes 1
config *.node[*].helper_type "\"PositionHelper\""
config *.node[*].scenario.caccC1 0
config *.node[*].scenario.caccXi 0
config *.node[*].scenario.caccOmegaN "0.2 Hz"
config *.node[*].scenario.caccSpacing "2 m"
config *.node[*].scenario.engineTau "0.5 s"
config *.node[*].scenario.ploegH 0.5s
config *.node[*].scenario.ploegKp 0.2
config *.node[*].scenario.ploegKd 0.7
config *.node[*].scenario.useRealisticEngine false
config *.node[*].scenario.useControllerAcceleration true
config *.node[*].scenario.nLanes 1
config **.numericController 1
config **.headway 0.1s
config *.node[*].scenario.accHeadway 0.1s
config *.node[*].scenario.leaderHeadway 1.2s
config *.node[*].scenario.leaderSpeed 150kmph
config *.node[*].appl_type "\"SimplePlatooningApp\""
config *.node[*].appl.*.scalar-recording true
config *.node[*].appl.*.vector-recording true
config *.node[0].appl.breakRanksSafetyDistance 2m
config *.node[*].appl.minSpeed 140kmph
config *.node[*].appl.maxSpeed 160kmph
config *.node[*].protocol_type "\"SimplePlatooningBeaconing\""
config *.node[*].prot.*.scalar-recording true
config *.node[*].prot.*.vector-recording true
config *.node[*].prot.beaconingInterval 0.1s
config *.node[*].prot.priority 4
config *.node[*].prot.packetSize 200
config **.traffic_type "\"PlatoonsTrafficManager\""
config **.traffic.platoonInsertTime "1 s"
config **.traffic.platoonInsertSpeed 150kmph
config **.traffic.nCars 8
config **.traffic.platoonSize 8
config **.traffic.nLanes 1
config **.traffic.platooningVType "\"vtypeauto\""
config **.traffic.controller "\"CACC\""
config **.traffic.platoonInsertDistance 0m
config **.traffic.platoonInsertHeadway 0s
config **.traffic.platoonLeaderHeadway 1.2s
config **.scalar-recording false
config **.vector-recording false

vector 0 Highway.node[0].appl distance ETV
vector 1 Highway.node[0].appl relativeSpeed ETV
vector 2 Highway.node[0].appl nodeId ETV
vector 3 Highway.node[0].appl acceleration ETV
vector 4 Highway.node[0].appl controllerAcceleration ETV
vector 5 Highway.node[0].appl speed ETV
vector 6 Highway.node[0].appl posx ETV
vector 7 Highway.node[0].appl posy ETV
vector 8 Highway.node[1].appl distance ETV
vector 9 Highway.node[1].appl relativeSpeed ETV
vector 10 Highway.node[1].appl nodeId ETV
vector 11 Highway.node[1].appl acceleration ETV
vector 12 Highway.node[1].appl controllerAcceleration ETV
vector 13 Highway.node[1].appl speed ETV
vector 14 Highway.node[1].appl posx ETV
vector 15 Highway.node[1].appl posy ETV
vector 16 Highway.node[2].appl distance ETV
vector 17 Highway.node[2].appl relativeSpeed ETV
vector 18 Highway.node[2].appl nodeId ETV
vector 19 Highway.node[2].appl acceleration ETV
vector 20 Highway.node[2].appl controllerAcceleration ETV
vector 21 Highway.node[2].appl speed ETV
vector 22 Highway.node[2].appl posx ETV
vector 23 Highway.node[2].appl posy ETV
vector 24 Highway.node[3].appl distance ETV
vector 25 Highway.node[3].appl relativeSpeed ETV
vector 26 Highway.node[3].appl nodeId ETV
vector 27 Highway.node[3].appl acceleration ETV
vector 28 Highway.node[3].appl controllerAcceleration ETV
vector 29 Highway.node[3].appl speed ETV
vector 30 Highway.node[3].appl posx ETV
vector 31 Highway.node[3].appl posy ETV
vector 32 Highway.node[4].appl distance ETV
vector 33 Highway.node[4].appl relativeSpeed ETV
vector 34 Highway.node[4].appl nodeId ETV
vector 35 Highway.node[4].appl acceleration ETV
vector 36 Highway.node[4].appl controllerAcceleration ETV
vector 37 Highway.node[4].appl speed ETV
vector 38 Highway.node[4].appl posx ETV
vector 39 Highway.node[4].appl posy ETV
vector 40 Highway.node[5].appl distance ETV
vector 41 Highway.node[5].appl relativeSpeed ETV
vector 42 Highway.node[5].appl nodeId ETV
vector 43 Highway.node[5].appl acceleration ETV
vector 44 Highway.node[5].appl controllerAcceleration ETV
vector 45 Highway.node[5].appl speed ETV
vector 46 Highway.node[5].appl posx ETV
vector 47 Highway.node[5].appl posy ETV
vector 48 Highway.node[6].appl distance ETV
vector 49 Highway.node[6].appl relativeSpeed ETV
vector 50 Highway.node[6].appl nodeId ETV
vector 51 Highway.node[6].appl acceleration ETV
vector 52 Highway.node[6].appl controllerAcceleration ETV
vector 53 Highway.node[6].appl speed ETV
vector 54 Highway.node[6].appl posx ETV
vector 55 Highway.node[6].appl posy ETV
vector 56 Highway.node[7].appl distance ETV
vector 57 Highway.node[7].appl relativeSpeed ETV
vector 58 Highway.node[7].appl nodeId ETV
vector 59 Highway.node[7].appl acceleration ETV
vector 60 Highway.node[7].appl controllerAcceleration ETV
vector 61 Highway.node[7].appl speed ETV
vector 62 Highway.node[7].appl posx ETV
vector 63 Highway.node[7].appl posy ETV
vector 64 Highway.node[4].prot frontDelay ETV
vector 65 Highway.node[4].prot frontDelayId ETV
vector 66 Highway.node[2].prot frontDelay ETV
vector 67 Highway.node[2].prot frontDelayId ETV
vector 68 Highway.node[3].prot frontDelay ETV
vector 69 Highway.node[3].prot frontDelayId ETV
vector 70 Highway.node[5].prot frontDelay ETV
vector 71 Highway.node[5].prot frontDelayId ETV
vector 72 Highway.node[7].prot frontDelay ETV
vector 73 Highway.node[7].prot frontDelayId ETV
vector 74 Highway.node[1].prot leaderDelay ETV
vector 75 Highway.node[1].prot leaderDelayId ETV
vector 76 Highway.node[1].prot frontDelay ETV
vector 77 Highway.node[1].prot frontDelayId ETV
vector 78 Highway.node[2].prot leaderDelay ETV
vector 79 Highway.node[2].prot leaderDelayId ETV
vector 80 Highway.node[3].prot leaderDelay ETV
vector 81 Highway.node[3].prot leaderDelayId ETV
vector 82 Highway.node[4].prot leaderDelay ETV
vector 83 Highway.node[4].prot leaderDelayId ETV
vector 84 Highway.node[5].prot leaderDelay ETV
vector 85 Highway.node[5].prot leaderDelayId ETV
vector 86 Highway.node[6].prot leaderDelay ETV
vector 87 Highway.node[6].prot leaderDelayId ETV
vector 88 Highway.node[7].prot leaderDelay ETV
vector 89 Highway.node[7].prot leaderDelayId ETV
vector 90 Highway.node[6].prot frontDelay ETV
vector 91 Highway.node[6].prot frontDelayId ETV
0	10111 43 113 1205 1.11 1.31 3 -1 -1 -3 3
1	10154 40 113 1205 1.11 1.31 3 0 0 0 0
2	10194 40 113 1205 1.11 1.31 3 0 0 0 0
3	10234 70 113 1205 1.11 1.31 3 -0.0014023 -0.000537287 -0.002962147 3.300751563969e-06
4	10304 70 113 1205 1.11 1.31 3 -0.00327777 -0.00308111 -0.00956016 3.04852086434e-05
5	10374 56 113 1205 1.11 1.31 3 41.6698 41.67 125.0097 5209.14169805
6	10430 58 113 1205 1.11 1.31 3 52.6803 61.0143 170.5419 9729.57432987
7	10488 55 113 1205 1.11 1.31 3 242.45 242.45 727.35 176346.0075
8	10543 59 114 1206 1.11 1.31 3 -1 0.0084049 -0.991341151 1.0000707068341
9	10602 55 114 1206 1.11 1.31 3 0 0.170205 0.1874005 0.02926542724525
10	10657 43 114 1206 1.11 1.31 3 1 1 3 3
11	10700 58 114 1206 1.11 1.31 3 -2.17912 0 -2.864511 5.218324797281
12	10758 45 114 1206 1.11 1.31 3 -9 0 -18 162
13	10803 59 114 1206 1.11 1.31 3 41.4996 41.67 124.8223 5193.55311745
14	10862 60 114 1206 1.11 1.31 3 48.6803 57.0059 158.5332 8412.2496519
15	10922 58 114 1206 1.11 1.31 3 242.45 242.45 727.35 176346.0075
16	10980 43 115 1207 1.11 1.31 3 0 0 0 0
17	11023 43 115 1207 1.11 1.31 3 0 0 0 0
18	11066 43 115 1207 1.11 1.31 3 2 2 6 12
19	11109 58 115 1207 1.11 1.31 3 -2.17912 0 -2.864511 5.218324797281
20	11167 45 115 1207 1.11 1.31 3 -9 0 -18 162
21	11212 59 115 1207 1.11 1.31 3 41.4996 41.67 124.8223 5193.55311745
22	11271 60 115 1207 1.11 1.31 3 44.6803 53.0059 146.5332 7191.9840519
23	11331 58 115 1207 1.11 1.31 3 242.45 242.45 727.35 176346.0075
24	11389 43 116 1208 1.11 1.31 3 0 0 0 0
25	11432 43 116 1208 1.11 1.31 3 0 0 0 0
26	11475 43 116 1208 1.11 1.31 3 3 3 9 27
27	11518 58 116 1208 1.11 1.31 3 -2.17912 0 -2.864511 5.218324797281
28	11576 45 116 1208 1.11 1.31 3 -9 0 -18 162
29	11621 59 116 1208 1.11 1.31 3 41.4996 41.67 124.8223 5193.55311745
30	11680 60 116 1208 1.11 1.31 3 40.6803 49.0059 134.5332 6067.7184519
31	11740 58 116 1208 1.11 1.31 3 242.45 242.45 727.35 176346.0075
32	11798 43 117 1209 1.11 1.31 3 0 0 0 0
33	11841 43 117 1209 1.11 1.31 3 0 0 0 0
34	11884 43 117 1209 1.11 1.31 3 4 4 12 48
35	11927 58 117 1209 1.11 1.31 3 -2.17912 0 -2.864511 5.218324797281
36	11985 45 117 1209 1.11 1.31 3 -9 0 -18 162
37	12030 59 117 1209 1.11 1.31 3 41.4996 41.67 124.8223 5193.55311745
38	12089 60 117 1209 1.11 1.31 3 36.6803 45.0059 122.5332 5039.4528519
39	12149 58 117 1209 1.11 1.31 3 242.45 242.45 727.35 176346.0075
40	12207 43 118 1210 1.11 1.31 3 0 0 0 0
41	12250 50 118 1210 1.11 1.31 3 0 0.137782 0.137782 0.018983879524
42	12300 43 118 1210 1.11 1.31 3 5 5 15 75
43	12343 52 118 1210 1.11 1.31 3 -9 0 -9.685391 81.469760822881
44	12395 51 118 1210 1.11 1.31 3 -4145.18 0 -4154.18 17182598.2324
45	12446 59 118 1210 1.11 1.31 3 41.3618 41.67 124.6845 5182.13481653
46	12505 60 118 1210 1.11 1.31 3 32.6803 41.0045 110.5318 4107.07243734
47	12565 58 118 1210 1.11 1.31 3 242.45 242.45 727.35 176346.0075
48	12623 44 119 1211 1.11 1.31 3 -1 0 -1 1
49	12667 43 119 1211 1.11 1.31 3 0 0 0 0
50	12710 43 119 1211 1.11 1.31 3 6 6 18 108
51	12753 52 119 1211 1.11 1.31 3 -9 0 -9.519099 81.269463771801
52	12805 51 119 1211 1.11 1.31 3 -4147.08 0 -4156.08 17198353.5264
53	12856 59 119 1211 1.11 1.31 3 41.3808 41.67 124.7103 5184.27344889
54	12915 61 119 1211 1.11 1.31 3 28.6803 37.0061 98.5336 3270.94959314
55	12976 58 119 1211 1.11 1.31 3 242.45 242.45 727.35 176346.0075
56	13034 63 120 1212 1.11 1.31 3 0 0.000183089 0.000321864 5.2780082546e-08
57	13097 60 120 1212 1.11 1.31 3 -0.118746 0.00685391 -0.11189209 0.014147588598288
58	13157 43 120 1212 1.11 1.31 3 7 7 21 147
59	13200 58 120 1212 1.11 1.31 3 -2.17912 0 -2.864511 5.218324797281
60	13258 45 120 1212 1.11 1.31 3 -9 0 -18 162
61	13303 59 120 1212 1.11 1.31 3 41.4996 41.67 124.8223 5193.55311745
62	13362 60 120 1212 1.11 1.31 3 24.6803 33.0059 86.5332 2530.6560519
63	13422 58 120 1212 1.11 1.31 3 242.45 242.45 727.35 176346.0075
64	13480 37 768 768 1.218681386934 1.218681386934 1 0.100000320221 0.100000320221 0.100000320221 0.010000064044303
65	13517 24 768 768 1.218681386934 1.218681386934 1 4 4 4 16
66	13541 37 829 829 1.224109413619 1.224109413619 1 0.100000320221 0.100000320221 0.100000320221 0.010000064044303
67	13578 24 829 829 1.224109413619 1.224109413619 1 2 2 2 4
68	13602 37 902 902 1.233905426962 1.233905426962 1 0.100000320221 0.100000320221 0.100000320221 0.010000064044303
69	13639 24 902 902 1.233905426962 1.233905426962 1 3 3 3 9
70	13663 37 968 968 1.236616453647 1.236616453647 1 0.100000320221 0.100000320221 0.100000320221 0.010000064044303
71	13700 24 968 968 1.236616453647 1.236616453647 1 5 5 5 25
72	13724 38 1036 1036 1.250559480333 1.250559480333 1 0.100000320222 0.100000320222 0.100000320222 0.010000064044503
73	13762 25 1036 1036 1.250559480333 1.250559480333 1 7 7 7 49
74	13787 36 1097 1097 1.2602905604 1.2602905604 1 0.100000320234 0.100000320234 0.100000320234 0.010000064046903
75	13823 23 1097 1097 1.2602905604 1.2602905604 1 1 1 1 1
76	13846 36 1097 1097 1.2602905604 1.2602905604 1 0.100000320234 0.100000320234 0.100000320234 0.010000064046903
77	13882 23 1097 1097 1.2602905604 1.2602905604 1 1 1 1 1
78	13905 38 1103 1103 1.260290573742 1.260290573742 1 0.100000320234 0.100000320234 0.100000320234 0.010000064046903
79	13943 25 1103 1103 1.260290573742 1.260290573742 1 2 2 2 4
80	13968 38 1109 1109 1.260290587085 1.260290587085 1 0.100000320234 0.100000320234 0.100000320234 0.010000064046903
81	14006 25 1109 1109 1.260290587085 1.260290587085 1 3 3 3 9
82	14031 38 1115 1115 1.260290600427 1.260290600427 1 0.100000320234 0.100000320234 0.100000320234 0.010000064046903
83	14069 25 1115 1115 1.260290600427 1.260290600427 1 4 4 4 16
84	14094 37 1121 1121 1.26029061377 1.26029061377 1 0.100000320234 0.100000320234 0.100000320234 0.010000064046903
85	14131 24 1121 1121 1.26029061377 1.26029061377 1 5 5 5 25
86	14155 37 1127 1127 1.26029062711 1.26029062711 1 0.100000320232 0.100000320232 0.100000320232 0.010000064046503
87	14192 24 1127 1127 1.26029062711 1.26029062711 1 6 6 6 36
88	14216 38 1133 1133 1.260290640455 1.260290640455 1 0.100000320234 0.100000320234 0.100000320234 0.010000064046903
89	14254 25 1133 1133 1.260290640455 1.260290640455 1 7 7 7 49
90	14279 37 1164 1164 1.271698627109 1.271698627109 1 0.10000032023 0.10000032023 0.10000032023 0.010000064046103
91	14316 25 1164 1164 1.271698627109 1.271698627109 1 6 6 6 36

