file 14303 1720584599                                           
version 3
run BreakRanksNoGui-23-20240710-06:09:58-237183
attr configname BreakRanksNoGui
attr datetime 20240710-06:09:58
attr datetimef 20240710-060958
attr experiment BreakRanksNoGui
attr inifile omnetpp.ini
attr iterationvars "$nCars=8, $platoonSize=8, $nLanes=1, $ploegH=0.5, $controller=1, $headway=0.1, $leaderHeadway=1.2, $leaderSpeed=150, $breakRanksSafetyDistance=2, $minSpeed=140, $maxSpeed=160, $beaconInterval=0.1, $priority=4, $packetSize=200, $sController=\"CACC\", $0=0, $1=0"
attr iterationvarsd nCars=8/platoonSize=8/nLanes=1/ploegH=0.5/controller=1/headway=0.1/leaderHeadway=1.2/leaderSpeed=150/breakRanksSafetyDistance=2/minSpeed=140/maxSpeed=160/beaconInterval=0.1/priority=4/packetSize=200/sController=CACC/0/0
attr iterationvarsf nCars=8,platoonSize=8,nLanes=1,ploegH=0.5,controller=1,headway=0.1,leaderHeadway=1.2,leaderSpeed=150,breakRanksSafetyDistance=2,minSpeed=140,maxSpeed=160,beaconInterval=0.1,priority=4,packetSize=200,sController=CACC,0,0-
attr measurement "$nCars=8, $platoonSize=8, $nLanes=1, $ploegH=0.5, $controller=1, $headway=0.1, $leaderHeadway=1.2, $leaderSpeed=150, $breakRanksSafetyDistance=2, $minSpeed=140, $maxSpeed=160, $beaconInterval=0.1, $priority=4, $packetSize=200, $sController=\"CACC\", $0=0, $1=0"
attr network Highway
attr processid 237183
attr repetition 3
attr replication #3
attr resultdir results
attr runnumber 23
attr seedset 3
itervar beaconInterval 0.1
itervar breakRanksSafetyDistance 2
itervar controller 1
itervar headway 0.1
itervar leaderHeadway 1.2
itervar leaderSpeed 150
itervar maxSpeed 160
itervar minSpeed 140
itervar nCars 8
itervar nLanes 1
itervar packetSize 200
itervar platoonSize 8
itervar ploegH 0.5
itervar priority 4
itervar sController "\"CACC\""
config image-path ../../../veins/images
config repeat 10
config extends BreakRanks
config *.manager.command "\"sumo\""
config *.manager.ignoreGuiCommands true
config output-vector-file results/BreakRanks_1_0.1_150_2/result_3.vec
config output-scalar-file results/BreakRanks_1_0.1_150_2/result_3.sca
config extends Platooning
config *.node[*].scenario_type "\"BreakRanksScenario\""
config *.manager.command "\"sumo-gui\""
config *.node[*].scenario_type "\"SimpleScenario\""
config cmdenv-express-mode true
config cmdenv-autoflush true
config cmdenv-status-frequency 15s
config num-rngs 6
config network Highway
config debug-on-errors true
config print-undisposed true
config *.playgroundSizeX 65000m
config *.playgroundSizeY 25000m
config *.playgroundSizeZ 50m
config sim-time-limit "100 s"
config *.annotations.draw false
config *.obstacles.debug false
config *.world.useTorus false
config *.world.use2D false
config *.manager.updateInterval 0.01s
config *.manager.host "\"localhost\""
config *.manager.moduleType "\"org.car2x.plexe.PlatoonCar\""
config *.manager.moduleName "\"node\""
config *.manager.moduleDisplayString "\"\""
config *.manager.autoShutdown true
config *.manager.margin 25
config *.connectionManager.sendDirect true
config *.connectionManager.maxInterfDist 2600m
config *.connectionManager.drawMaxIntfDist false
config *.**.nic.mac1609_4.useServiceChannel false
config *.**.nic.mac1609_4.txPower 100mW
config *.**.nic.mac1609_4.bitrate 6Mbps
config *.**.nic.mac1609_4.useAcks true
config *.**.nic.mac1609_4.ackErrorRate 0.0
config *.**.nic.mac1609_4.frameErrorRate 0.0
config *.**.nic.phy80211p.minPowerLevel -94dBm
config *.**.nic.phy80211p.maxTXPower 100mW
config *.**.nic.phy80211p.useNoiseFloor true
config *.**.nic.phy80211p.noiseFloor -95dBm
config *.**.nic.phy80211p.decider "xmldoc(\"config.xml\")"
config *.**.nic.phy80211p.analogueModels "xmldoc(\"config.xml\")"
config *.**.nic.phy80211p.usePropagationDelay true
config *.node[*].mobility.x 0
config *.node[*].mobility.y 0
config *.node[*].mobility.z 1.895
config seed-set 3
config **.seed 3
config *.node[*].prot.rng-0 2
config *.node[*].appl.rng-0 3
config *.node[*].scenario.rng-0 4
config **.traffic.rng-0 5
config *.manager.configFile "\"./sumocfg/freeway.sumo.cfg\""
config *.manager.launchConfig "xmldoc(\"./sumocfg/freeway.launchd.xml\")"
config **.numberOfCars 8
config **.numberOfCarsPerPlatoon 8
config **.numberOfLanes 1
config *.node[*].helper_type "\"PositionHelper\""
config *.node[*].scenario.caccC1 0
config *.node[*].scenario.caccXi 0
config *.node[*].scenario.caccOmegaN "0.2 Hz"
config *.node[*].scenario.caccSpacing "2 m"
config *.node[*].scenario.engineTau "0.5 s"
config *.node[*].scenario.ploegH 0.5s
config *.node[*].scenario.ploegKp 0.2
config *.node[*].scenario.ploegKd 0.7
config *.node[*].scenario.useRealisticEngine false
config *.node[*].scenario.useControllerAcceleration true
config *.node[*].scenario.nLanes 1
config **.numericController 1
config **.headway 0.1s
config *.node[*].scenario.accHeadway 0.1s
config *.node[*].scenario.leaderHeadway 1.2s
config *.node[*].scenario.leaderSpeed 150kmph
config *.node[*].appl_type "\"SimplePlatooningApp\""
config *.node[*].appl.*.scalar-recording true
config *.node[*].appl.*.vector-recording true
config *.node[0].appl.breakRanksSafetyDistance 2m
config *.node[*].appl.minSpeed 140kmph
config *.node[*].appl.maxSpeed 160kmph
config *.node[*].protocol_type "\"SimplePlatooningBeaconing\""
config *.node[*].prot.*.scalar-recording true
config *.node[*].prot.*.vector-recording true
config *.node[*].prot.beaconingInterval 0.1s
config *.node[*].prot.priority 4
config *.node[*].prot.packetSize 200
config **.traffic_type "\"PlatoonsTrafficManager\""
config **.traffic.platoonInsertTime "1 s"
config **.traffic.platoonInsertSpeed 150kmph
config **.traffic.nCars 8
config **.traffic.platoonSize 8
config **.traffic.nLanes 1
config **.traffic.platooningVType "\"vtypeauto\""
config **.traffic.controller "\"CACC\""
config **.traffic.platoonInsertDistance 0m
config **.traffic.platoonInsertHeadway 0s
config **.traffic.platoonLeaderHeadway 1.2s
config **.scalar-recording false
config **.vector-recording false

vector 0 Highway.node[0].appl distance ETV
vector 1 Highway.node[0].appl relativeSpeed ETV
vector 2 Highway.node[0].appl nodeId ETV
vector 3 Highway.node[0].appl acceleration ETV
vector 4 Highway.node[0].appl controllerAcceleration ETV
vector 5 Highway.node[0].appl speed ETV
vector 6 Highway.node[0].appl posx ETV
vector 7 Highway.node[0].appl posy ETV
vector 8 Highway.node[1].appl distance ETV
vector 9 Highway.node[1].appl relativeSpeed ETV
vector 10 Highway.node[1].appl nodeId ETV
vector 11 Highway.node[1].appl acceleration ETV
vector 12 Highway.node[1].appl controllerAcceleration ETV
vector 13 Highway.node[1].appl speed ETV
vector 14 Highway.node[1].appl posx ETV
vector 15 Highway.node[1].appl posy ETV
vector 16 Highway.node[2].appl distance ETV
vector 17 Highway.node[2].appl relativeSpeed ETV
vector 18 Highway.node[2].appl nodeId ETV
vector 19 Highway.node[2].appl acceleration ETV
vector 20 Highway.node[2].appl controllerAcceleration ETV
vector 21 Highway.node[2].appl speed ETV
vector 22 Highway.node[2].appl posx ETV
vector 23 Highway.node[2].appl posy ETV
vector 24 Highway.node[3].appl distance ETV
vector 25 Highway.node[3].appl relativeSpeed ETV
vector 26 Highway.node[3].appl nodeId ETV
vector 27 Highway.node[3].appl acceleration ETV
vector 28 Highway.node[3].appl controllerAcceleration ETV
vector 29 Highway.node[3].appl speed ETV
vector 30 Highway.node[3].appl posx ETV
vector 31 Highway.node[3].appl posy ETV
vector 32 Highway.node[4].appl distance ETV
vector 33 Highway.node[4].appl relativeSpeed ETV
vector 34 Highway.node[4].appl nodeId ETV
vector 35 Highway.node[4].appl acceleration ETV
vector 36 Highway.node[4].appl controllerAcceleration ETV
vector 37 Highway.node[4].appl speed ETV
vector 38 Highway.node[4].appl posx ETV
vector 39 Highway.node[4].appl posy ETV
vector 40 Highway.node[5].appl distance ETV
vector 41 Highway.node[5].appl relativeSpeed ETV
vector 42 Highway.node[5].appl nodeId ETV
vector 43 Highway.node[5].appl acceleration ETV
vector 44 Highway.node[5].appl controllerAcceleration ETV
vector 45 Highway.node[5].appl speed ETV
vector 46 Highway.node[5].appl posx ETV
vector 47 Highway.node[5].appl posy ETV
vector 48 Highway.node[6].appl distance ETV
vector 49 Highway.node[6].appl relativeSpeed ETV
vector 50 Highway.node[6].appl nodeId ETV
vector 51 Highway.node[6].appl acceleration ETV
vector 52 Highway.node[6].appl controllerAcceleration ETV
vector 53 Highway.node[6].appl speed ETV
vector 54 Highway.node[6].appl posx ETV
vector 55 Highway.node[6].appl posy ETV
vector 56 Highway.node[7].appl distance ETV
vector 57 Highway.node[7].appl relativeSpeed ETV
vector 58 Highway.node[7].appl nodeId ETV
vector 59 Highway.node[7].appl acceleration ETV
vector 60 Highway.node[7].appl controllerAcceleration ETV
vector 61 Highway.node[7].appl speed ETV
vector 62 Highway.node[7].appl posx ETV
vector 63 Highway.node[7].appl posy ETV
vector 64 Highway.node[1].prot leaderDelay ETV
vector 65 Highway.node[1].prot leaderDelayId ETV
vector 66 Highway.node[1].prot frontDelay ETV
vector 67 Highway.node[1].prot frontDelayId ETV
vector 68 Highway.node[2].prot leaderDelay ETV
vector 69 Highway.node[2].prot leaderDelayId ETV
vector 70 Highway.node[3].prot leaderDelay ETV
vector 71 Highway.node[3].prot leaderDelayId ETV
vector 72 Highway.node[4].prot leaderDelay ETV
vector 73 Highway.node[4].prot leaderDelayId ETV
vector 74 Highway.node[5].prot leaderDelay ETV
vector 75 Highway.node[5].prot leaderDelayId ETV
vector 76 Highway.node[6].prot leaderDelay ETV
vector 77 Highway.node[6].prot leaderDelayId ETV
vector 78 Highway.node[7].prot leaderDelay ETV
vector 79 Highway.node[7].prot leaderDelayId ETV
vector 80 Highway.node[7].prot frontDelay ETV
vector 81 Highway.node[7].prot frontDelayId ETV
vector 82 Highway.node[2].prot frontDelay ETV
vector 83 Highway.node[2].prot frontDelayId ETV
vector 84 Highway.node[5].prot frontDelay ETV
vector 85 Highway.node[5].prot frontDelayId ETV
vector 86 Highway.node[3].prot frontDelay ETV
vector 87 Highway.node[3].prot frontDelayId ETV
vector 88 Highway.node[6].prot frontDelay ETV
vector 89 Highway.node[6].prot frontDelayId ETV
vector 90 Highway.node[4].prot frontDelay ETV
vector 91 Highway.node[4].prot frontDelayId ETV
0	10111 43 113 1205 1.11 1.31 3 -1 -1 -3 3
1	10154 40 113 1205 1.11 1.31 3 0 0 0 0
2	10194 40 113 1205 1.11 1.31 3 0 0 0 0
3	10234 70 113 1205 1.11 1.31 3 -0.0014023 -0.000537287 -0.002962147 3.300751563969e-06
4	10304 70 113 1205 1.11 1.31 3 -0.00327777 -0.00308111 -0.00956016 3.04852086434e-05
5	10374 56 113 1205 1.11 1.31 3 41.6698 41.67 125.0097 5209.14169805
6	10430 58 113 1205 1.11 1.31 3 46.1003 54.4343 150.8019 7615.13212587
7	10488 55 113 1205 1.11 1.31 3 242.45 242.45 727.35 176346.0075
8	10543 51 114 1206 1.11 1.31 3 -1 0.000253949 -0.999746051 1.0000000644901
9	10594 55 114 1206 1.11 1.31 3 0 0.525166 0.5423615 0.27609501277625
10	10649 43 114 1206 1.11 1.31 3 1 1 3 3
11	10692 52 114 1206 1.11 1.31 3 -9 0 -9.685391 81.469760822881
12	10744 51 114 1206 1.11 1.31 3 -4123.46 0 -4132.46 17003003.3716
13	10795 59 114 1206 1.11 1.31 3 41.1446 41.67 124.4673 5164.21442645
14	10854 60 114 1206 1.11 1.31 3 42.1003 50.4169 138.7842 6454.9343547
15	10914 58 114 1206 1.11 1.31 3 242.45 242.45 727.35 176346.0075
16	10972 44 115 1207 1.11 1.31 3 -1 0 -1 1
17	11016 43 115 1207 1.11 1.31 3 0 0 0 0
18	11059 43 115 1207 1.11 1.31 3 2 2 6 12
19	11102 52 115 1207 1.11 1.31 3 -9 0 -9.176471 81.031142013841
20	11154 50 115 1207 1.11 1.31 3 -4123.9 0 -4132.9 17006632.21
21	11204 58 115 1207 1.11 1.31 3 41.149 41.67 124.4872 5165.86799224
22	11262 61 115 1207 1.11 1.31 3 38.1003 46.4184 126.786 5392.82536794
23	11323 58 115 1207 1.11 1.31 3 242.45 242.45 727.35 176346.0075
24	11381 44 116 1208 1.11 1.31 3 -1 0 -1 1
25	11425 43 116 1208 1.11 1.31 3 0 0 0 0
26	11468 43 116 1208 1.11 1.31 3 3 3 9 27
27	11511 44 116 1208 1.11 1.31 3 -9 0 -9 81
28	11555 49 116 1208 1.11 1.31 3 -4131.7 0 -4131.7 17070944.89
29	11604 56 116 1208 1.11 1.31 3 41.227 41.67 124.567 5172.443329
30	11660 61 116 1208 1.11 1.31 3 34.1003 42.4226 114.7902 4426.89370014
31	11721 58 116 1208 1.11 1.31 3 242.45 242.45 727.35 176346.0075
32	11779 43 117 1209 1.11 1.31 3 0 0 0 0
33	11822 43 117 1209 1.11 1.31 3 0 0 0 0
34	11865 43 117 1209 1.11 1.31 3 4 4 12 48
35	11908 44 117 1209 1.11 1.31 3 -9 0 -9 81
36	11952 50 117 1209 1.11 1.31 3 -4139.34 0 -4139.34 17134135.6356
37	12002 57 117 1209 1.11 1.31 3 41.3034 41.67 124.6434 5178.74865156
38	12059 61 117 1209 1.11 1.31 3 30.1003 38.4258 102.7934 3556.81801502
39	12120 58 117 1209 1.11 1.31 3 242.45 242.45 727.35 176346.0075
40	12178 53 118 1210 1.11 1.31 3 0 8.82353e-06 8.82353e-06 7.78546816609e-11
41	12231 52 118 1210 1.11 1.31 3 0 0.00176471 0.00176471 3.1142013841e-06
42	12283 43 118 1210 1.11 1.31 3 5 5 15 75
43	12326 58 118 1210 1.11 1.31 3 -1.76163 0 -1.938101 3.134482270741
44	12384 45 118 1210 1.11 1.31 3 -9 0 -18 162
45	12429 59 118 1210 1.11 1.31 3 41.3754 41.67 124.7136 5184.5515164
46	12488 61 118 1210 1.11 1.31 3 26.1003 34.4282 90.7958 2782.63606462
47	12549 58 118 1210 1.11 1.31 3 242.45 242.45 727.35 176346.0075
48	12607 45 119 1211 1.11 1.31 3 -1 0 -2 2
49	12652 43 119 1211 1.11 1.31 3 0 0 0 0
50	12695 43 119 1211 1.11 1.31 3 6 6 18 108
51	12738 50 119 1211 1.11 1.31 3 -1.61687 0 -1.61687 2.6142685969
52	12788 44 119 1211 1.11 1.31 3 -9 0 -9 81
53	12832 57 119 1211 1.11 1.31 3 41.3749 41.67 124.7149 5184.66015001
54	12889 60 119 1211 1.11 1.31 3 22.1003 30.431 78.7986 2104.44007038
55	12949 58 119 1211 1.11 1.31 3 242.45 242.45 727.35 176346.0075
56	13007 63 120 1212 1.11 1.31 3 -1 0.00100376 -0.99898741647 1.000001007612
57	13070 60 120 1212 1.11 1.31 3 -0.185876 0.00176471 -0.18411129 0.034553001577384
58	13130 43 120 1212 1.11 1.31 3 7 7 21 147
59	13173 58 120 1212 1.11 1.31 3 -1.76163 0 -1.938101 3.134482270741
60	13231 45 120 1212 1.11 1.31 3 -9 0 -18 162
61	13276 59 120 1212 1.11 1.31 3 41.5608 41.67 124.899 5199.92788788
62	13335 59 120 1212 1.11 1.31 3 18.1003 26.43 66.7976 1521.99840938
63	13394 58 120 1212 1.11 1.31 3 242.45 242.45 727.35 176346.0075
64	13452 37 701 701 1.269543360261 1.269543360261 1 0.100000346918 0.100000346918 0.100000346918 0.01000006938372
65	13489 24 701 701 1.269543360261 1.269543360261 1 1 1 1 1
66	13513 37 701 701 1.269543360261 1.269543360261 1 0.100000346918 0.100000346918 0.100000346918 0.01000006938372
67	13550 24 701 701 1.269543360261 1.269543360261 1 1 1 1 1
68	13574 37 707 707 1.269543373599 1.269543373599 1 0.100000346914 0.100000346914 0.100000346914 0.01000006938292
69	13611 24 707 707 1.269543373599 1.269543373599 1 2 2 2 4
70	13635 37 713 713 1.269543386936 1.269543386936 1 0.100000346908 0.100000346908 0.100000346908 0.01000006938172
71	13672 24 713 713 1.269543386936 1.269543386936 1 3 3 3 9
72	13696 37 719 719 1.269543400279 1.269543400279 1 0.100000346909 0.100000346909 0.100000346909 0.01000006938192
73	13733 24 719 719 1.269543400279 1.269543400279 1 4 4 4 16
74	13757 36 725 725 1.269543413623 1.269543413623 1 0.10000034691 0.10000034691 0.10000034691 0.01000006938212
75	13793 24 725 725 1.269543413623 1.269543413623 1 5 5 5 25
76	13817 37 731 731 1.269543426964 1.269543426964 1 0.100000346909 0.100000346909 0.100000346909 0.01000006938192
77	13854 24 731 731 1.269543426964 1.269543426964 1 6 6 6 36
78	13878 36 737 737 1.269543440308 1.269543440308 1 0.10000034691 0.10000034691 0.10000034691 0.01000006938212
79	13914 24 737 737 1.269543440308 1.269543440308 1 7 7 7 49
80	13938 37 842 842 1.292086466997 1.292086466997 1 0.100000346913 0.100000346913 0.100000346913 0.01000006938272
81	13975 24 842 842 1.292086466997 1.292086466997 1 7 7 7 49
82	13999 37 902 902 1.299178533669 1.299178533669 1 0.100000346874 0.100000346874 0.100000346874 0.01000006937492
83	14036 24 902 902 1.299178533669 1.299178533669 1 2 2 2 4
84	14060 36 974 974 1.29957557367 1.29957557367 1 0.100000346847 0.100000346847 0.100000346847 0.01000006936952
85	14096 23 974 974 1.29957557367 1.29957557367 1 5 5 5 25
86	14119 38 1035 1035 1.300193600331 1.300193600331 1 0.100000346823 0.100000346823 0.100000346823 0.01000006936472
87	14157 25 1035 1035 1.300193600331 1.300193600331 1 3 3 3 9
88	14182 38 1104 1104 1.305595640334 1.305595640334 1 0.100000346798 0.100000346798 0.100000346798 0.01000006935972
89	14220 25 1104 1104 1.305595640334 1.305595640334 1 6 6 6 36
90	14245 35 1173 1173 1.306044667 1.306044667 1 0.100000346779 0.100000346779 0.100000346779 0.01000006935592
91	14280 22 1173 1173 1.306044667 1.306044667 1 4 4 4 16

