version 3
run BreakRanksNoGui-27-20240710-06:10:05-237223
attr configname BreakRanksNoGui
attr datetime 20240710-06:10:05
attr datetimef 20240710-061005
attr experiment BreakRanksNoGui
attr inifile omnetpp.ini
attr iterationvars "$nCars=8, $platoonSize=8, $nLanes=1, $ploegH=0.5, $controller=1, $headway=0.1, $leaderHeadway=1.2, $leaderSpeed=150, $breakRanksSafetyDistance=2, $minSpeed=140, $maxSpeed=160, $beaconInterval=0.1, $priority=4, $packetSize=200, $sController=\"CACC\", $0=0, $1=0"
attr iterationvarsd nCars=8/platoonSize=8/nLanes=1/ploegH=0.5/controller=1/headway=0.1/leaderHeadway=1.2/leaderSpeed=150/breakRanksSafetyDistance=2/minSpeed=140/maxSpeed=160/beaconInterval=0.1/priority=4/packetSize=200/sController=CACC/0/0
attr iterationvarsf nCars=8,platoonSize=8,nLanes=1,ploegH=0.5,controller=1,headway=0.1,leaderHeadway=1.2,leaderSpeed=150,breakRanksSafetyDistance=2,minSpeed=140,maxSpeed=160,beaconInterval=0.1,priority=4,packetSize=200,sController=CACC,0,0-
attr measurement "$nCars=8, $platoonSize=8, $nLanes=1, $ploegH=0.5, $controller=1, $headway=0.1, $leaderHeadway=1.2, $leaderSpeed=150, $breakRanksSafetyDistance=2, $minSpeed=140, $maxSpeed=160, $beaconInterval=0.1, $priority=4, $packetSize=200, $sController=\"CACC\", $0=0, $1=0"
attr network Highway
attr processid 237223
attr repetition 7
attr replication #7
attr resultdir results
attr runnumber 27
attr seedset 7
itervar beaconInterval 0.1
itervar breakRanksSafetyDistance 2
itervar controller 1
itervar headway 0.1
itervar leaderHeadway 1.2
itervar leaderSpeed 150
itervar maxSpeed 160
itervar minSpeed 140
itervar nCars 8
itervar nLanes 1
itervar packetSize 200
itervar platoonSize 8
itervar ploegH 0.5
itervar priority 4
itervar sController "\"CACC\""
config image-path ../../../veins/images
config repeat 10
config extends BreakRanks
config *.manager.command "\"sumo\""
config *.manager.ignoreGuiCommands true
config output-vector-file results/BreakRanks_1_0.1_150_2/result_7.vec
config output-scalar-file results/BreakRanks_1_0.1_150_2/result_7.sca
config extends Platooning
config *.node[*].scenario_type "\"BreakRanksScenario\""
config *.manager.command "\"sumo-gui\""
config *.node[*].scenario_type "\"SimpleScenario\""
config cmdenv-express-mode true
config cmdenv-autoflush true
config cmdenv-status-frequency 15s
config num-rngs 6
config network Highway
config debug-on-errors true
config print-undisposed true
config *.playgroundSizeX 65000m
config *.playgroundSizeY 25000m
config *.playgroundSizeZ 50m
config sim-time-limit "100 s"
config *.annotations.draw false
config *.obstacles.debug false
config *.world.useTorus false
config *.world.use2D false
config *.manager.updateInterval 0.01s
config *.manager.host "\"localhost\""
config *.manager.moduleType "\"org.car2x.plexe.PlatoonCar\""
config *.manager.moduleName "\"node\""
config *.manager.moduleDisplayString "\"\""
config *.manager.autoShutdown true
config *.manager.margin 25
config *.connectionManager.sendDirect true
config *.connectionManager.maxInterfDist 2600m
config *.connectionManager.drawMaxIntfDist false
config *.**.nic.mac1609_4.useServiceChannel false
config *.**.nic.mac1609_4.txPower 100mW
config *.**.nic.mac1609_4.bitrate 6Mbps
config *.**.nic.mac1609_4.useAcks true
config *.**.nic.mac1609_4.ackErrorRate 0.0
config *.**.nic.mac1609_4.frameErrorRate 0.0
config *.**.nic.phy80211p.minPowerLevel -94dBm
config *.**.nic.phy80211p.maxTXPower 100mW
config *.**.nic.phy80211p.useNoiseFloor true
config *.**.nic.phy80211p.noiseFloor -95dBm
config *.**.nic.phy80211p.decider "xmldoc(\"config.xml\")"
config *.**.nic.phy80211p.analogueModels "xmldoc(\"config.xml\")"
config *.**.nic.phy80211p.usePropagationDelay true
config *.node[*].mobility.x 0
config *.node[*].mobility.y 0
config *.node[*].mobility.z 1.895
config seed-set 7
config **.seed 7
config *.node[*].prot.rng-0 2
config *.node[*].appl.rng-0 3
config *.node[*].scenario.rng-0 4
config **.traffic.rng-0 5
config *.manager.configFile "\"./sumocfg/freeway.sumo.cfg\""
config *.manager.launchConfig "xmldoc(\"./sumocfg/freeway.launchd.xml\")"
config **.numberOfCars 8
config **.numberOfCarsPerPlatoon 8
config **.numberOfLanes 1
config *.node[*].helper_type "\"PositionHelper\""
config *.node[*].scenario.caccC1 0
config *.node[*].scenario.caccXi 0
config *.node[*].scenario.caccOmegaN "0.2 Hz"
config *.node[*].scenario.caccSpacing "2 m"
config *.node[*].scenario.engineTau "0.5 s"
config *.node[*].scenario.ploegH 0.5s
config *.node[*].scenario.ploegKp 0.2
config *.node[*].scenario.ploegKd 0.7
config *.node[*].scenario.useRealisticEngine false
config *.node[*].scenario.useControllerAcceleration true
config *.node[*].scenario.nLanes 1
config **.numericController 1
config **.headway 0.1s
config *.node[*].scenario.accHeadway 0.1s
config *.node[*].scenario.leaderHeadway 1.2s
config *.node[*].scenario.leaderSpeed 150kmph
config *.node[*].appl_type "\"SimplePlatooningApp\""
config *.node[*].appl.*.scalar-recording true
config *.node[*].appl.*.vector-recording true
config *.node[0].appl.breakRanksSafetyDistance 2m
config *.node[*].appl.minSpeed 140kmph
config *.node[*].appl.maxSpeed 160kmph
config *.node[*].protocol_type "\"SimplePlatooningBeaconing\""
config *.node[*].prot.*.scalar-recording true
config *.node[*].prot.*.vector-recording true
config *.node[*].prot.beaconingInterval 0.1s
config *.node[*].prot.priority 4
config *.node[*].prot.packetSize 200
config **.traffic_type "\"PlatoonsTrafficManager\""
config **.traffic.platoonInsertTime "1 s"
config **.traffic.platoonInsertSpeed 150kmph
config **.traffic.nCars 8
config **.traffic.platoonSize 8
config **.traffic.nLanes 1
config **.traffic.platooningVType "\"vtypeauto\""
config **.traffic.controller "\"CACC\""
config **.traffic.platoonInsertDistance 0m
config **.traffic.platoonInsertHeadway 0s
config **.traffic.platoonLeaderHeadway 1.2s
config **.scalar-recording false
config **.vector-recording false

vector 0 Highway.node[0].appl distance ETV
vector 1 Highway.node[0].appl relativeSpeed ETV
vector 2 Highway.node[0].appl nodeId ETV
vector 3 Highway.node[0].appl acceleration ETV
vector 4 Highway.node[0].appl controllerAcceleration ETV
vector 5 Highway.node[0].appl speed ETV
vector 6 Highway.node[0].appl posx ETV
vector 7 Highway.node[0].appl posy ETV
vector 8 Highway.node[1].appl distance ETV
vector 9 Highway.node[1].appl relativeSpeed ETV
vector 10 Highway.node[1].appl nodeId ETV
vector 11 Highway.node[1].appl acceleration ETV
vector 12 Highway.node[1].appl controllerAcceleration ETV
vector 13 Highway.node[1].appl speed ETV
vector 14 Highway.node[1].appl posx ETV
vector 15 Highway.node[1].appl posy ETV
vector 16 Highway.node[2].appl distance ETV
vector 17 Highway.node[2].appl relativeSpeed ETV
vector 18 Highway.node[2].appl nodeId ETV
vector 19 Highway.node[2].appl acceleration ETV
vector 20 Highway.node[2].appl controllerAcceleration ETV
vector 21 Highway.node[2].appl speed ETV
vector 22 Highway.node[2].appl posx ETV
vector 23 Highway.node[2].appl posy ETV
vector 24 Highway.node[3].appl distance ETV
vector 25 Highway.node[3].appl relativeSpeed ETV
vector 26 Highway.node[3].appl nodeId ETV
vector 27 Highway.node[3].appl acceleration ETV
vector 28 Highway.node[3].appl controllerAcceleration ETV
vector 29 Highway.node[3].appl speed ETV
vector 30 Highway.node[3].appl posx ETV
vector 31 Highway.node[3].appl posy ETV
vector 32 Highway.node[4].appl distance ETV
vector 33 Highway.node[4].appl relativeSpeed ETV
vector 34 Highway.node[4].appl nodeId ETV
vector 35 Highway.node[4].appl acceleration ETV
vector 36 Highway.node[4].appl controllerAcceleration ETV
vector 37 Highway.node[4].appl speed ETV
vector 38 Highway.node[4].appl posx ETV
vector 39 Highway.node[4].appl posy ETV
vector 40 Highway.node[5].appl distance ETV
vector 41 Highway.node[5].appl relativeSpeed ETV
vector 42 Highway.node[5].appl nodeId ETV
vector 43 Highway.node[5].appl acceleration ETV
vector 44 Highway.node[5].appl controllerAcceleration ETV
vector 45 Highway.node[5].appl speed ETV
vector 46 Highway.node[5].appl posx ETV
vector 47 Highway.node[5].appl posy ETV
vector 48 Highway.node[6].appl distance ETV
vector 49 Highway.node[6].appl relativeSpeed ETV
vector 50 Highway.node[6].appl nodeId ETV
vector 51 Highway.node[6].appl acceleration ETV
vector 52 Highway.node[6].appl controllerAcceleration ETV
vector 53 Highway.node[6].appl speed ETV
vector 54 Highway.node[6].appl posx ETV
vector 55 Highway.node[6].appl posy ETV
vector 56 Highway.node[7].appl distance ETV
vector 57 Highway.node[7].appl relativeSpeed ETV
vector 58 Highway.node[7].appl nodeId ETV
vector 59 Highway.node[7].appl acceleration ETV
vector 60 Highway.node[7].appl controllerAcceleration ETV
vector 61 Highway.node[7].appl speed ETV
vector 62 Highway.node[7].appl posx ETV
vector 63 Highway.node[7].appl posy ETV
vector 64 Highway.node[4].prot frontDelay ETV
vector 65 Highway.node[4].prot frontDelayId ETV
vector 66 Highway.node[3].prot frontDelay ETV
vector 67 Highway.node[3].prot frontDelayId ETV
vector 68 Highway.node[7].prot frontDelay ETV
vector 69 Highway.node[7].prot frontDelayId ETV
vector 70 Highway.node[2].prot frontDelay ETV
vector 71 Highway.node[2].prot frontDelayId ETV
vector 72 Highway.node[6].prot frontDelay ETV
vector 73 Highway.node[6].prot frontDelayId ETV
vector 74 Highway.node[5].prot frontDelay ETV
vector 75 Highway.node[5].prot frontDelayId ETV
vector 76 Highway.node[1].prot leaderDelay ETV
vector 77 Highway.node[1].prot leaderDelayId ETV
vector 78 Highway.node[1].prot frontDelay ETV
vector 79 Highway.node[1].prot frontDelayId ETV
vector 80 Highway.node[2].prot leaderDelay ETV
vector 81 Highway.node[2].prot leaderDelayId ETV
vector 82 Highway.node[3].prot leaderDelay ETV
vector 83 Highway.node[3].prot leaderDelayId ETV
vector 84 Highway.node[4].prot leaderDelay ETV
vector 85 Highway.node[4].prot leaderDelayId ETV
vector 86 Highway.node[5].prot leaderDelay ETV
vector 87 Highway.node[5].prot leaderDelayId ETV
vector 88 Highway.node[6].prot leaderDelay ETV
vector 89 Highway.node[6].prot leaderDelayId ETV
vector 90 Highway.node[7].prot leaderDelay ETV
vector 91 Highway.node[7].prot leaderDelayId ETV
vector 92 Highway.node[0].prot nodeId ETV
vector 93 Highway.node[0].prot busyTime ETV
vector 94 Highway.node[0].prot collisions ETV
vector 95 Highway.node[1].prot nodeId ETV
vector 96 Highway.node[1].prot busyTime ETV
vector 97 Highway.node[1].prot collisions ETV
vector 98 Highway.node[2].prot nodeId ETV
vector 99 Highway.node[2].prot busyTime ETV
vector 100 Highway.node[2].prot collisions ETV
vector 101 Highway.node[3].prot nodeId ETV
vector 102 Highway.node[3].prot busyTime ETV
vector 103 Highway.node[3].prot collisions ETV
vector 104 Highway.node[4].prot nodeId ETV
vector 105 Highway.node[4].prot busyTime ETV
vector 106 Highway.node[4].prot collisions ETV
vector 107 Highway.node[5].prot nodeId ETV
vector 108 Highway.node[5].prot busyTime ETV
vector 109 Highway.node[5].prot collisions ETV
vector 110 Highway.node[6].prot nodeId ETV
vector 111 Highway.node[6].prot busyTime ETV
vector 112 Highway.node[6].prot collisions ETV
vector 113 Highway.node[7].prot nodeId ETV
vector 114 Highway.node[7].prot busyTime ETV
vector 115 Highway.node[7].prot collisions ETV
0	113	1.11	-1
0	659	1.21	-1
0	1205	1.31	-1
0	1751	1.41	-1
0	2297	1.51	-1
0	2843	1.61	-1
0	3389	1.71	-1
0	3935	1.81	-1
0	4481	1.91	-1
0	5035	2.01	-1
0	5581	2.11	-1
0	6127	2.21	-1
0	6673	2.31	-1
0	7219	2.41	-1
0	7765	2.51	-1
0	8311	2.61	-1
0	8857	2.71	-1
0	9403	2.81	-1
0	9949	2.91	-1
0	10503	3.01	-1
0	11049	3.11	-1
0	11595	3.21	-1
0	12141	3.31	-1
0	12687	3.41	-1
0	13233	3.51	-1
0	13779	3.61	-1
0	14325	3.71	-1
0	14871	3.81	-1
0	15417	3.91	-1
0	15971	4.01	-1
0	16517	4.11	-1
0	17063	4.21	-1
0	17609	4.31	-1
0	18155	4.41	-1
0	18701	4.51	-1
0	19247	4.61	-1
0	19793	4.71	-1
0	20339	4.81	-1
0	20885	4.91	-1
0	21439	5.01	-1
0	21985	5.11	-1
0	22531	5.21	-1
0	23077	5.31	-1
0	23623	5.41	-1
0	24169	5.51	-1
0	24715	5.61	-1
0	25261	5.71	-1
0	25807	5.81	-1
0	26353	5.91	-1
0	26907	6.01	-1
0	27453	6.11	-1
0	27999	6.21	-1
0	28545	6.31	-1
0	29091	6.41	-1
0	29637	6.51	-1
0	30183	6.61	-1
0	30729	6.71	-1
0	31275	6.81	-1
0	31821	6.91	-1
0	32375	7.01	-1
0	32921	7.11	-1
0	33467	7.21	-1
0	34013	7.31	-1
0	34559	7.41	-1
0	35105	7.51	-1
0	35651	7.61	-1
0	36197	7.71	-1
0	36743	7.81	-1
0	37289	7.91	-1
0	37843	8.01	-1
0	38389	8.11	-1
0	38935	8.21	-1
0	39481	8.31	-1
0	40027	8.41	-1
0	40573	8.51	-1
0	41119	8.61	-1
0	41665	8.71	-1
0	42211	8.81	-1
0	42757	8.91	-1
0	43311	9.01	-1
0	43857	9.11	-1
0	44403	9.21	-1
0	44949	9.31	-1
0	45495	9.41	-1
0	46041	9.51	-1
0	46587	9.61	-1
0	47133	9.71	-1
0	47679	9.81	-1
0	48225	9.91	-1
0	48946	10.01	-1
0	49498	10.11	-1
0	50050	10.21	-1
0	50602	10.31	-1
0	51154	10.41	-1
0	51706	10.51	-1
0	52258	10.61	-1
0	52810	10.71	-1
0	53362	10.81	-1
0	53914	10.91	-1
0	54474	11.01	-1
0	55026	11.11	-1
0	55578	11.21	-1
0	56130	11.31	-1
0	56682	11.41	-1
0	57234	11.51	-1
0	57786	11.61	-1
0	58338	11.71	-1
0	58890	11.81	-1
0	59442	11.91	-1
0	60002	12.01	-1
0	60554	12.11	-1
0	61106	12.21	-1
0	61658	12.31	-1
0	62210	12.41	-1
0	62762	12.51	-1
0	63314	12.61	-1
0	63866	12.71	-1
0	64418	12.81	-1
0	64970	12.91	-1
0	65530	13.01	-1
0	66082	13.11	-1
0	66634	13.21	-1
0	67186	13.31	-1
0	67738	13.41	-1
0	68290	13.51	-1
0	68842	13.61	-1
0	69394	13.71	-1
0	69946	13.81	-1
0	70498	13.91	-1
0	71058	14.01	-1
0	71610	14.11	-1
0	72162	14.21	-1
0	72714	14.31	-1
0	73266	14.41	-1
0	73818	14.51	-1
0	74370	14.61	-1
0	74922	14.71	-1
0	75474	14.81	-1
0	76026	14.91	-1
0	76586	15.01	-1
0	77138	15.11	-1
0	77690	15.21	-1
0	78242	15.31	-1
0	78794	15.41	-1
0	79346	15.51	-1
0	79898	15.61	-1
0	80450	15.71	-1
0	81002	15.81	-1
0	81554	15.91	-1
0	82114	16.01	-1
0	82666	16.11	-1
0	83218	16.21	-1
0	83770	16.31	-1
0	84322	16.41	-1
0	84874	16.51	-1
0	85426	16.61	-1
0	85978	16.71	-1
0	86530	16.81	-1
0	87082	16.91	-1
0	87642	17.01	-1
0	88194	17.11	-1
0	88746	17.21	-1
0	89298	17.31	-1
0	89850	17.41	-1
0	90402	17.51	-1
0	90954	17.61	-1
0	91506	17.71	-1
0	92058	17.81	-1
0	92610	17.91	-1
0	93170	18.01	-1
0	93722	18.11	-1
0	94274	18.21	-1
0	94826	18.31	-1
0	95378	18.41	-1
0	95930	18.51	-1
0	96482	18.61	-1
0	97034	18.71	-1
0	97586	18.81	-1
0	98138	18.91	-1
0	98698	19.01	-1
0	99250	19.11	-1
0	99802	19.21	-1
0	100354	19.31	-1
0	100906	19.41	-1
0	101458	19.51	-1
0	102010	19.61	-1
0	102562	19.71	-1
0	103114	19.81	-1
0	103666	19.91	-1
0	104226	20.01	-1
0	104778	20.11	-1
0	105330	20.21	-1
0	105882	20.31	-1
0	106434	20.41	-1
0	106986	20.51	-1
0	107538	20.61	-1
0	108090	20.71	-1
0	108642	20.81	-1
0	109194	20.91	-1
0	109754	21.01	-1
0	110306	21.11	-1
0	110858	21.21	-1
0	111410	21.31	-1
0	111962	21.41	-1
0	112514	21.51	-1
0	113066	21.61	-1
0	113618	21.71	-1
0	114170	21.81	-1
0	114722	21.91	-1
0	115282	22.01	-1
0	115834	22.11	-1
0	116386	22.21	-1
0	116938	22.31	-1
0	117490	22.41	-1
0	118042	22.51	-1
0	118594	22.61	-1
0	119146	22.71	-1
0	119698	22.81	-1
0	120250	22.91	-1
0	120810	23.01	-1
0	121362	23.11	-1
0	121914	23.21	-1
0	122466	23.31	-1
0	123018	23.41	-1
0	123570	23.51	-1
0	124122	23.61	-1
0	124674	23.71	-1
0	125226	23.81	-1
0	125778	23.91	-1
0	126338	24.01	-1
0	126890	24.11	-1
0	127442	24.21	-1
0	127994	24.31	-1
0	128546	24.41	-1
0	129098	24.51	-1
0	129650	24.61	-1
0	130202	24.71	-1
0	130754	24.81	-1
0	131306	24.91	-1
0	131866	25.01	-1
0	132418	25.11	-1
0	132970	25.21	-1
0	133522	25.31	-1
0	134074	25.41	-1
0	134626	25.51	-1
0	135178	25.61	-1
0	135730	25.71	-1
0	136282	25.81	-1
0	136834	25.91	-1
0	137394	26.01	-1
0	137946	26.11	-1
0	138498	26.21	-1
0	139050	26.31	-1
0	139602	26.41	-1
0	140154	26.51	-1
0	140706	26.61	-1
0	141258	26.71	-1
0	141810	26.81	-1
0	142362	26.91	-1
0	142922	27.01	-1
0	143471	27.11	-1
0	144023	27.21	-1
0	144575	27.31	-1
0	145127	27.41	-1
0	145679	27.51	-1
0	146231	27.61	-1
0	146783	27.71	-1
0	147335	27.81	-1
0	147884	27.91	-1
0	148441	28.01	-1
0	148993	28.11	-1
0	149545	28.21	-1
0	150097	28.31	-1
0	150649	28.41	-1
0	151198	28.51	-1
0	151747	28.61	-1
0	152299	28.71	-1
0	152848	28.81	-1
0	153400	28.91	-1
0	153960	29.01	-1
0	154503	29.11	-1
0	155052	29.21	-1
0	155601	29.31	-1
0	156150	29.41	-1
0	156699	29.51	-1
0	157248	29.61	-1
0	157797	29.71	-1
0	158343	29.81	-1
0	158886	29.91	-1
0	159440	30.01	-1
0	159983	30.11	-1
0	160529	30.21	-1
0	161069	30.31	-1
0	161618	30.41	-1
0	162164	30.51	-1
0	162704	30.61	-1
0	163238	30.71	-1
0	163778	30.81	-1
0	164315	30.91	-1
0	164857	31.01	-1
0	165391	31.11	-1
0	165931	31.21	-1
0	166468	31.31	-1
0	166999	31.41	-1
0	167527	31.51	-1
0	168058	31.61	-1
0	168589	31.71	-1
0	169117	31.81	-1
0	169645	31.91	-1
0	170175	32.01	-1
0	170700	32.11	-1
0	171216	32.21	-1
0	171735	32.31	-1
0	172254	32.41	-1
0	172764	32.51	-1
0	173283	32.61	-1
0	173793	32.71	-1
0	174303	32.81	-1
0	174816	32.91	-1
0	175334	33.01	-1
0	175844	33.11	-1
0	176357	33.21	-1
0	176867	33.31	-1
0	177377	33.41	-1
0	177887	33.51	-1
0	178397	33.61	-1
0	178907	33.71	-1
0	179417	33.81	-1
0	179927	33.91	-1
0	180445	34.01	-1
0	180955	34.11	-1
0	181465	34.21	-1
0	181975	34.31	-1
0	182485	34.41	-1
0	182995	34.51	-1
0	183505	34.61	-1
0	184015	34.71	-1
0	184525	34.81	-1
0	185035	34.91	-1
0	185553	35.01	-1
0	186063	35.11	-1
0	186573	35.21	-1
0	187083	35.31	-1
0	187593	35.41	-1
0	188103	35.51	-1
0	188613	35.61	-1
0	189123	35.71	-1
0	189633	35.81	-1
0	190143	35.91	-1
0	190661	36.01	-1
0	191171	36.11	-1
0	191681	36.21	-1
0	192191	36.31	-1
0	192701	36.41	-1
0	193211	36.51	-1
0	193721	36.61	-1
0	194231	36.71	-1
0	194741	36.81	-1
0	195251	36.91	-1
0	195769	37.01	-1
0	196279	37.11	-1
0	196789	37.21	-1
0	197299	37.31	-1
0	197809	37.41	-1
0	198319	37.51	-1
0	198829	37.61	-1
0	199339	37.71	-1
0	199849	37.81	-1
0	200359	37.91	-1
0	200877	38.01	-1
0	201387	38.11	-1
0	201897	38.21	-1
0	202407	38.31	-1
0	202917	38.41	-1
0	203427	38.51	-1
0	203937	38.61	-1
0	204447	38.71	-1
0	204957	38.81	-1
0	205467	38.91	-1
0	205985	39.01	-1
0	206495	39.11	-1
0	207005	39.21	-1
0	207515	39.31	-1
0	208025	39.41	-1
0	208535	39.51	-1
0	209045	39.61	-1
0	209555	39.71	-1
0	210065	39.81	-1
0	210575	39.91	-1
0	211093	40.01	-1
0	211603	40.11	-1
0	212113	40.21	-1
0	212623	40.31	-1
0	213133	40.41	-1
0	213643	40.51	-1
0	214153	40.61	-1
0	214663	40.71	-1
0	215173	40.81	-1
0	215683	40.91	-1
0	216201	41.01	-1
0	216711	41.11	-1
0	217221	41.21	-1
0	217731	41.31	-1
0	218241	41.41	-1
0	218751	41.51	-1
0	219261	41.61	-1
0	219771	41.71	-1
0	220281	41.81	-1
0	220791	41.91	-1
0	221309	42.01	-1
0	221819	42.11	-1
0	222329	42.21	-1
0	222839	42.31	-1
0	223349	42.41	-1
0	223859	42.51	-1
0	224369	42.61	-1
0	224879	42.71	-1
0	225389	42.81	-1
0	225899	42.91	-1
0	226417	43.01	-1
0	226927	43.11	-1
0	227437	43.21	-1
0	227947	43.31	-1
0	228457	43.41	-1
0	228967	43.51	-1
0	229477	43.61	-1
0	229987	43.71	-1
0	230497	43.81	-1
0	231007	43.91	-1
0	231525	44.01	-1
0	232035	44.11	-1
0	232545	44.21	-1
0	233055	44.31	-1
0	233565	44.41	-1
0	234075	44.51	-1
0	234585	44.61	-1
0	235095	44.71	-1
0	235605	44.81	-1
0	236115	44.91	-1
0	236633	45.01	-1
0	237143	45.11	-1
0	237653	45.21	-1
0	238163	45.31	-1
0	238673	45.41	-1
0	239183	45.51	-1
0	239693	45.61	-1
0	240203	45.71	-1
0	240713	45.81	-1
0	241223	45.91	-1
0	241741	46.01	-1
0	242251	46.11	-1
0	242761	46.21	-1
0	243271	46.31	-1
0	243781	46.41	-1
0	244291	46.51	-1
0	244801	46.61	-1
0	245311	46.71	-1
0	245821	46.81	-1
0	246331	46.91	-1
0	246849	47.01	-1
0	247359	47.11	-1
0	247869	47.21	-1
0	248379	47.31	-1
0	248889	47.41	-1
0	249399	47.51	-1
0	249909	47.61	-1
0	250419	47.71	-1
0	250929	47.81	-1
0	251439	47.91	-1
0	251957	48.01	-1
0	252467	48.11	-1
0	252977	48.21	-1
0	253487	48.31	-1
0	253997	48.41	-1
0	254507	48.51	-1
0	255017	48.61	-1
0	255527	48.71	-1
0	256037	48.81	-1
0	256547	48.91	-1
0	257065	49.01	-1
0	257575	49.11	-1
0	258085	49.21	-1
0	258595	49.31	-1
0	259105	49.41	-1
0	259615	49.51	-1
0	260125	49.61	-1
0	260635	49.71	-1
0	261145	49.81	-1
0	261655	49.91	-1
0	262173	50.01	-1
0	262683	50.11	-1
0	263193	50.21	-1
0	263703	50.31	-1
0	264213	50.41	-1
0	264723	50.51	-1
0	265233	50.61	-1
0	265743	50.71	-1
0	266253	50.81	-1
0	266763	50.91	-1
0	267281	51.01	-1
0	267791	51.11	-1
0	268301	51.21	-1
0	268811	51.31	-1
0	269321	51.41	-1
0	269831	51.51	-1
0	270341	51.61	-1
0	270851	51.71	-1
0	271361	51.81	-1
0	271871	51.91	-1
0	272389	52.01	-1
0	272896	52.11	-1
0	273394	52.21	-1
0	273886	52.31	-1
0	274372	52.41	-1
0	274852	52.51	-1
0	275326	52.61	-1
0	275794	52.71	-1
0	276262	52.81	-1
0	276730	52.91	-1
0	277206	53.01	-1
0	277674	53.11	-1
0	278142	53.21	-1
0	278610	53.31	-1
0	279078	53.41	-1
0	279546	53.51	-1
0	280014	53.61	-1
0	280482	53.71	-1
0	280950	53.81	-1
0	281418	53.91	-1
0	281894	54.01	-1
0	282362	54.11	-1
0	282830	54.21	-1
0	283298	54.31	-1
0	283766	54.41	-1
0	284234	54.51	-1
0	284702	54.61	-1
0	285170	54.71	-1
0	285638	54.81	-1
0	286106	54.91	-1
0	286582	55.01	-1
0	287050	55.11	-1
0	287518	55.21	-1
0	287986	55.31	-1
0	288454	55.41	-1
0	288922	55.51	-1
0	289390	55.61	-1
0	289858	55.71	-1
0	290326	55.81	-1
0	290794	55.91	-1
0	291270	56.01	-1
0	291738	56.11	-1
0	292206	56.21	-1
0	292674	56.31	-1
0	293142	56.41	-1
0	293610	56.51	-1
0	294078	56.61	-1
0	294546	56.71	-1
0	295014	56.81	-1
0	295482	56.91	-1
0	295958	57.01	-1
0	296426	57.11	-1
0	296894	57.21	-1
0	297362	57.31	-1
0	297830	57.41	-1
0	298298	57.51	-1
0	298766	57.61	-1
0	299234	57.71	-1
0	299702	57.81	-1
0	300170	57.91	-1
0	300646	58.01	-1
0	301114	58.11	-1
0	301582	58.21	-1
0	302050	58.31	-1
0	302518	58.41	-1
0	302986	58.51	-1
0	303454	58.61	-1
0	303922	58.71	-1
0	304390	58.81	-1
0	304858	58.91	-1
0	305334	59.01	-1
0	305802	59.11	-1
0	306270	59.21	-1
0	306738	59.31	-1
0	307206	59.41	-1
0	307674	59.51	-1
0	308142	59.61	-1
0	308610	59.71	-1
0	309078	59.81	-1
0	309546	59.91	-1
0	310022	60.01	-1
0	310490	60.11	-1
0	310958	60.21	-1
0	311426	60.31	-1
0	311894	60.41	-1
0	312362	60.51	-1
0	312830	60.61	-1
0	313298	60.71	-1
0	313766	60.81	-1
0	314234	60.91	-1
0	314710	61.01	-1
0	315178	61.11	-1
0	315646	61.21	-1
0	316114	61.31	-1
0	316582	61.41	-1
0	317050	61.51	-1
0	317518	61.61	-1
0	317986	61.71	-1
0	318454	61.81	-1
0	318922	61.91	-1
0	319398	62.01	-1
0	319866	62.11	-1
0	320334	62.21	-1
0	320802	62.31	-1
0	321270	62.41	-1
0	321738	62.51	-1
0	322206	62.61	-1
0	322674	62.71	-1
0	323142	62.81	-1
0	323610	62.91	-1
0	324086	63.01	-1
0	324554	63.11	-1
0	325022	63.21	-1
0	325490	63.31	-1
0	325958	63.41	-1
0	326426	63.51	-1
0	326894	63.61	-1
0	327362	63.71	-1
0	327830	63.81	-1
0	328298	63.91	-1
0	328774	64.01	-1
0	329242	64.11	-1
0	329710	64.21	-1
0	330178	64.31	-1
0	330646	64.41	-1
0	331114	64.51	-1
0	331582	64.61	-1
0	332050	64.71	-1
0	332518	64.81	-1
0	332986	64.91	-1
0	333462	65.01	-1
0	333930	65.11	-1
0	334398	65.21	-1
0	334866	65.31	-1
0	335334	65.41	-1
0	335802	65.51	-1
0	336270	65.61	-1
0	336738	65.71	-1
0	337202	65.81	-1
0	337662	65.91	-1
0	338126	66.01	-1
0	338576	66.11	-1
0	339022	66.21	-1
0	339464	66.31	-1
0	339904	66.41	-1
0	340344	66.51	-1
0	340784	66.61	-1
0	341224	66.71	-1
0	341664	66.81	-1
0	342104	66.91	-1
0	342552	67.01	-1
0	342992	67.11	-1
0	343432	67.21	-1
0	343872	67.31	-1
0	344312	67.41	-1
0	344752	67.51	-1
0	345192	67.61	-1
0	345632	67.71	-1
0	346072	67.81	-1
0	346512	67.91	-1
0	346960	68.01	-1
0	347400	68.11	-1
0	347840	68.21	-1
0	348280	68.31	-1
0	348720	68.41	-1
0	349160	68.51	-1
0	349600	68.61	-1
0	350040	68.71	-1
0	350480	68.81	-1
0	350920	68.91	-1
0	351368	69.01	-1
0	351808	69.11	-1
0	352248	69.21	-1
0	352688	69.31	-1
0	353128	69.41	-1
0	353568	69.51	-1
0	354008	69.61	-1
0	354448	69.71	-1
0	354888	69.81	-1
0	355328	69.91	-1
0	355776	70.01	-1
0	356216	70.11	-1
0	356656	70.21	-1
0	357096	70.31	-1
0	357536	70.41	-1
0	357976	70.51	-1
0	358416	70.61	-1
0	358856	70.71	-1
0	359296	70.81	-1
0	359736	70.91	-1
0	360184	71.01	-1
0	360624	71.11	-1
0	361064	71.21	-1
0	361504	71.31	-1
0	361944	71.41	-1
0	362384	71.51	-1
0	362824	71.61	-1
0	363264	71.71	-1
0	363704	71.81	-1
0	364144	71.91	-1
0	364592	72.01	-1
0	365032	72.11	-1
0	365472	72.21	-1
0	365912	72.31	-1
0	366352	72.41	-1
0	366792	72.51	-1
0	367232	72.61	-1
0	367672	72.71	-1
0	368112	72.81	-1
0	368552	72.91	-1
0	369000	73.01	-1
0	369440	73.11	-1
0	369880	73.21	-1
0	370320	73.31	-1
0	370760	73.41	-1
0	371200	73.51	-1
0	371640	73.61	-1
0	372080	73.71	-1
0	372520	73.81	-1
0	372960	73.91	-1
0	373408	74.01	-1
0	373848	74.11	-1
0	374288	74.21	-1
0	374728	74.31	-1
0	375168	74.41	-1
0	375608	74.51	-1
0	376048	74.61	-1
0	376488	74.71	-1
0	376928	74.81	-1
0	377368	74.91	-1
0	377816	75.01	-1
0	378256	75.11	-1
0	378696	75.21	-1
0	379136	75.31	-1
0	379576	75.41	-1
0	380016	75.51	-1
0	380456	75.61	-1
0	380896	75.71	-1
0	381336	75.81	-1
0	381776	75.91	-1
0	382224	76.01	-1
0	382664	76.11	-1
0	383104	76.21	-1
0	383544	76.31	-1
0	383984	76.41	-1
0	384424	76.51	-1
0	384864	76.61	-1
0	385304	76.71	-1
0	385744	76.81	-1
0	386184	76.91	-1
0	386632	77.01	-1
0	387072	77.11	-1
0	387512	77.21	-1
0	387952	77.31	-1
0	388392	77.41	-1
0	388832	77.51	-1
0	389272	77.61	-1
0	389712	77.71	-1
0	390152	77.81	-1
0	390592	77.91	-1
0	391040	78.01	-1
0	391480	78.11	-1
0	391920	78.21	-1
0	392360	78.31	-1
0	392800	78.41	-1
0	393240	78.51	-1
0	393680	78.61	-1
0	394120	78.71	-1
0	394560	78.81	-1
0	395000	78.91	-1
0	395448	79.01	-1
0	395888	79.11	-1
0	396328	79.21	-1
0	396768	79.31	-1
0	397208	79.41	-1
0	397648	79.51	-1
0	398088	79.61	-1
0	398528	79.71	-1
0	398968	79.81	-1
0	399408	79.91	-1
0	399856	80.01	-1
0	400296	80.11	-1
0	400736	80.21	-1
0	401176	80.31	-1
0	401616	80.41	-1
0	402056	80.51	-1
0	402496	80.61	-1
0	402936	80.71	-1
0	403376	80.81	-1
0	403816	80.91	-1
0	404264	81.01	-1
0	404704	81.11	-1
0	405144	81.21	-1
0	405584	81.31	-1
0	406024	81.41	-1
0	406464	81.51	-1
0	406904	81.61	-1
0	407344	81.71	-1
0	407784	81.81	-1
0	408224	81.91	-1
0	408672	82.01	-1
0	409112	82.11	-1
0	409552	82.21	-1
0	409992	82.31	-1
0	410432	82.41	-1
0	410872	82.51	-1
0	411312	82.61	-1
0	411752	82.71	-1
0	412192	82.81	-1
0	412632	82.91	-1
0	413080	83.01	-1
0	413520	83.11	-1
0	413960	83.21	-1
0	414400	83.31	-1
0	414840	83.41	-1
0	415280	83.51	-1
0	415720	83.61	-1
0	416160	83.71	-1
0	416600	83.81	-1
0	417040	83.91	-1
0	417488	84.01	-1
0	417928	84.11	-1
0	418368	84.21	-1
0	418808	84.31	-1
0	419248	84.41	-1
0	419688	84.51	-1
0	420128	84.61	-1
0	420568	84.71	-1
0	421008	84.81	-1
0	421448	84.91	-1
0	421896	85.01	-1
0	422336	85.11	-1
0	422776	85.21	-1
0	423216	85.31	-1
0	423656	85.41	-1
0	424096	85.51	-1
0	424536	85.61	-1
0	424976	85.71	-1
0	425416	85.81	-1
0	425856	85.91	-1
0	426304	86.01	-1
0	426744	86.11	-1
0	427184	86.21	-1
0	427624	86.31	-1
0	428064	86.41	-1
0	428504	86.51	-1
0	428944	86.61	-1
0	429384	86.71	-1
0	429824	86.81	-1
0	430264	86.91	-1
0	430712	87.01	-1
0	431152	87.11	-1
0	431592	87.21	-1
0	432032	87.31	-1
0	432472	87.41	-1
0	432912	87.51	-1
0	433352	87.61	-1
0	433792	87.71	-1
0	434232	87.81	-1
0	434672	87.91	-1
0	435120	88.01	-1
0	435560	88.11	-1
0	436000	88.21	-1
0	436440	88.31	-1
0	436880	88.41	-1
0	437320	88.51	-1
0	437760	88.61	-1
0	438200	88.71	-1
0	438640	88.81	-1
0	439080	88.91	-1
0	439528	89.01	-1
0	439968	89.11	-1
0	440408	89.21	-1
0	440848	89.31	-1
0	441288	89.41	-1
0	441728	89.51	-1
0	442168	89.61	-1
0	442608	89.71	-1
0	443048	89.81	-1
0	443488	89.91	-1
0	443936	90.01	-1
0	444376	90.11	-1
0	444816	90.21	-1
0	445256	90.31	-1
0	445696	90.41	-1
0	446136	90.51	-1
0	446576	90.61	-1
0	447016	90.71	-1
0	447456	90.81	-1
0	447896	90.91	-1
0	448344	91.01	-1
0	448784	91.11	-1
0	449224	91.21	-1
0	449664	91.31	-1
0	450104	91.41	-1
0	450544	91.51	-1
0	450984	91.61	-1
0	451424	91.71	-1
0	451864	91.81	-1
0	452304	91.91	-1
0	452752	92.01	-1
0	453192	92.11	-1
0	453632	92.21	-1
0	454072	92.31	-1
0	454512	92.41	-1
0	454952	92.51	-1
0	455392	92.61	-1
0	455832	92.71	-1
0	456272	92.81	-1
0	456712	92.91	-1
0	457160	93.01	-1
0	457600	93.11	-1
0	458040	93.21	-1
0	458480	93.31	-1
0	458920	93.41	-1
0	459360	93.51	-1
0	459800	93.61	-1
0	460240	93.71	-1
0	460680	93.81	-1
0	461120	93.91	-1
0	461568	94.01	-1
0	462008	94.11	-1
0	462448	94.21	-1
0	462888	94.31	-1
0	463328	94.41	-1
0	463768	94.51	-1
0	464208	94.61	-1
0	464648	94.71	-1
0	465088	94.81	-1
0	465528	94.91	-1
0	465976	95.01	-1
0	466416	95.11	-1
0	466856	95.21	-1
0	467296	95.31	-1
0	467736	95.41	-1
0	468176	95.51	-1
0	468616	95.61	-1
0	469056	95.71	-1
0	469496	95.81	-1
0	469936	95.91	-1
0	470384	96.01	-1
0	470824	96.11	-1
0	471264	96.21	-1
0	471704	96.31	-1
0	472144	96.41	-1
0	472584	96.51	-1
0	473024	96.61	-1
0	473464	96.71	-1
0	473904	96.81	-1
0	474344	96.91	-1
0	474792	97.01	-1
0	475232	97.11	-1
0	475672	97.21	-1
0	476112	97.31	-1
0	476552	97.41	-1
0	476992	97.51	-1
0	477432	97.61	-1
0	477872	97.71	-1
0	478312	97.81	-1
0	478752	97.91	-1
0	479200	98.01	-1
0	479640	98.11	-1
0	480080	98.21	-1
0	480520	98.31	-1
0	480960	98.41	-1
0	481400	98.51	-1
0	481840	98.61	-1
0	482280	98.71	-1
0	482720	98.81	-1
0	483160	98.91	-1
0	483608	99.01	-1
0	484048	99.11	-1
0	484488	99.21	-1
0	484928	99.31	-1
0	485368	99.41	-1
0	485808	99.51	-1
0	486248	99.61	-1
0	486688	99.71	-1
0	487128	99.81	-1
0	487568	99.91	-1
1	113	1.11	0
1	659	1.21	0
1	1205	1.31	0
1	1751	1.41	0
1	2297	1.51	0
1	2843	1.61	0
1	3389	1.71	0
1	3935	1.81	0
1	4481	1.91	0
1	5035	2.01	0
1	5581	2.11	0
1	6127	2.21	0
1	6673	2.31	0
1	7219	2.41	0
1	7765	2.51	0
1	8311	2.61	0
1	8857	2.71	0
1	9403	2.81	0
1	9949	2.91	0
1	10503	3.01	0
1	11049	3.11	0
1	11595	3.21	0
1	12141	3.31	0
1	12687	3.41	0
1	13233	3.51	0
1	13779	3.61	0
1	14325	3.71	0
1	14871	3.81	0
1	15417	3.91	0
1	15971	4.01	0
1	16517	4.11	0
1	17063	4.21	0
1	17609	4.31	0
1	18155	4.41	0
1	18701	4.51	0
1	19247	4.61	0
1	19793	4.71	0
1	20339	4.81	0
1	20885	4.91	0
1	21439	5.01	0
1	21985	5.11	0
1	22531	5.21	0
1	23077	5.31	0
1	23623	5.41	0
1	24169	5.51	0
1	24715	5.61	0
1	25261	5.71	0
1	25807	5.81	0
1	26353	5.91	0
1	26907	6.01	0
1	27453	6.11	0
1	27999	6.21	0
1	28545	6.31	0
1	29091	6.41	0
1	29637	6.51	0
1	30183	6.61	0
1	30729	6.71	0
1	31275	6.81	0
1	31821	6.91	0
1	32375	7.01	0
1	32921	7.11	0
1	33467	7.21	0
1	34013	7.31	0
1	34559	7.41	0
1	35105	7.51	0
1	35651	7.61	0
1	36197	7.71	0
1	36743	7.81	0
1	37289	7.91	0
1	37843	8.01	0
1	38389	8.11	0
1	38935	8.21	0
1	39481	8.31	0
1	40027	8.41	0
1	40573	8.51	0
1	41119	8.61	0
1	41665	8.71	0
1	42211	8.81	0
1	42757	8.91	0
1	43311	9.01	0
1	43857	9.11	0
1	44403	9.21	0
1	44949	9.31	0
1	45495	9.41	0
1	46041	9.51	0
1	46587	9.61	0
1	47133	9.71	0
1	47679	9.81	0
1	48225	9.91	0
1	48946	10.01	0
1	49498	10.11	0
1	50050	10.21	0
1	50602	10.31	0
1	51154	10.41	0
1	51706	10.51	0
1	52258	10.61	0
1	52810	10.71	0
1	53362	10.81	0
1	53914	10.91	0
1	54474	11.01	0
1	55026	11.11	0
1	55578	11.21	0
1	56130	11.31	0
1	56682	11.41	0
1	57234	11.51	0
1	57786	11.61	0
1	58338	11.71	0
1	58890	11.81	0
1	59442	11.91	0
1	60002	12.01	0
1	60554	12.11	0
1	61106	12.21	0
1	61658	12.31	0
1	62210	12.41	0
1	62762	12.51	0
1	63314	12.61	0
1	63866	12.71	0
1	64418	12.81	0
1	64970	12.91	0
1	65530	13.01	0
1	66082	13.11	0
1	66634	13.21	0
1	67186	13.31	0
1	67738	13.41	0
1	68290	13.51	0
1	68842	13.61	0
1	69394	13.71	0
1	69946	13.81	0
1	70498	13.91	0
1	71058	14.01	0
1	71610	14.11	0
1	72162	14.21	0
1	72714	14.31	0
1	73266	14.41	0
1	73818	14.51	0
1	74370	14.61	0
1	74922	14.71	0
1	75474	14.81	0
1	76026	14.91	0
1	76586	15.01	0
1	77138	15.11	0
1	77690	15.21	0
1	78242	15.31	0
1	78794	15.41	0
1	79346	15.51	0
1	79898	15.61	0
1	80450	15.71	0
1	81002	15.81	0
1	81554	15.91	0
1	82114	16.01	0
1	82666	16.11	0
1	83218	16.21	0
1	83770	16.31	0
1	84322	16.41	0
1	84874	16.51	0
1	85426	16.61	0
1	85978	16.71	0
1	86530	16.81	0
1	87082	16.91	0
1	87642	17.01	0
1	88194	17.11	0
1	88746	17.21	0
1	89298	17.31	0
1	89850	17.41	0
1	90402	17.51	0
1	90954	17.61	0
1	91506	17.71	0
1	92058	17.81	0
1	92610	17.91	0
1	93170	18.01	0
1	93722	18.11	0
1	94274	18.21	0
1	94826	18.31	0
1	95378	18.41	0
1	95930	18.51	0
1	96482	18.61	0
1	97034	18.71	0
1	97586	18.81	0
1	98138	18.91	0
1	98698	19.01	0
1	99250	19.11	0
1	99802	19.21	0
1	100354	19.31	0
1	100906	19.41	0
1	101458	19.51	0
1	102010	19.61	0
1	102562	19.71	0
1	103114	19.81	0
1	103666	19.91	0
1	104226	20.01	0
1	104778	20.11	0
1	105330	20.21	0
1	105882	20.31	0
1	106434	20.41	0
1	106986	20.51	0
1	107538	20.61	0
1	108090	20.71	0
1	108642	20.81	0
1	109194	20.91	0
1	109754	21.01	0
1	110306	21.11	0
1	110858	21.21	0
1	111410	21.31	0
1	111962	21.41	0
1	112514	21.51	0
1	113066	21.61	0
1	113618	21.71	0
1	114170	21.81	0
1	114722	21.91	0
1	115282	22.01	0
1	115834	22.11	0
1	116386	22.21	0
1	116938	22.31	0
1	117490	22.41	0
1	118042	22.51	0
1	118594	22.61	0
1	119146	22.71	0
1	119698	22.81	0
1	120250	22.91	0
1	120810	23.01	0
1	121362	23.11	0
1	121914	23.21	0
1	122466	23.31	0
1	123018	23.41	0
1	123570	23.51	0
1	124122	23.61	0
1	124674	23.71	0
1	125226	23.81	0
1	125778	23.91	0
1	126338	24.01	0
1	126890	24.11	0
1	127442	24.21	0
1	127994	24.31	0
1	128546	24.41	0
1	129098	24.51	0
1	129650	24.61	0
1	130202	24.71	0
1	130754	24.81	0
1	131306	24.91	0
1	131866	25.01	0
1	132418	25.11	0
1	132970	25.21	0
1	133522	25.31	0
1	134074	25.41	0
1	134626	25.51	0
1	135178	25.61	0
1	135730	25.71	0
1	136282	25.81	0
1	136834	25.91	0
1	137394	26.01	0
1	137946	26.11	0
1	138498	26.21	0
1	139050	26.31	0
1	139602	26.41	0
1	140154	26.51	0
1	140706	26.61	0
1	141258	26.71	0
1	141810	26.81	0
1	142362	26.91	0
1	142922	27.01	0
1	143471	27.11	0
1	144023	27.21	0
1	144575	27.31	0
1	145127	27.41	0
1	145679	27.51	0
1	146231	27.61	0
1	146783	27.71	0
1	147335	27.81	0
1	147884	27.91	0
1	148441	28.01	0
1	148993	28.11	0
1	149545	28.21	0
1	150097	28.31	0
1	150649	28.41	0
1	151198	28.51	0
1	151747	28.61	0
1	152299	28.71	0
1	152848	28.81	0
1	153400	28.91	0
1	153960	29.01	0
1	154503	29.11	0
1	155052	29.21	0
1	155601	29.31	0
1	156150	29.41	0
1	156699	29.51	0
1	157248	29.61	0
1	157797	29.71	0
1	158343	29.81	0
1	158886	29.91	0
1	159440	30.01	0
1	159983	30.11	0
1	160529	30.21	0
1	161069	30.31	0
1	161618	30.41	0
1	162164	30.51	0
1	162704	30.61	0
1	163238	30.71	0
1	163778	30.81	0
1	164315	30.91	0
1	164857	31.01	0
1	165391	31.11	0
1	165931	31.21	0
1	166468	31.31	0
1	166999	31.41	0
1	167527	31.51	0
1	168058	31.61	0
1	168589	31.71	0
1	169117	31.81	0
1	169645	31.91	0
1	170175	32.01	0
1	170700	32.11	0
1	171216	32.21	0
1	171735	32.31	0
1	172254	32.41	0
1	172764	32.51	0
1	173283	32.61	0
1	173793	32.71	0
1	174303	32.81	0
1	174816	32.91	0
1	175334	33.01	0
1	175844	33.11	0
1	176357	33.21	0
1	176867	33.31	0
1	177377	33.41	0
1	177887	33.51	0
1	178397	33.61	0
1	178907	33.71	0
1	179417	33.81	0
1	179927	33.91	0
1	180445	34.01	0
1	180955	34.11	0
1	181465	34.21	0
1	181975	34.31	0
1	182485	34.41	0
1	182995	34.51	0
1	183505	34.61	0
1	184015	34.71	0
1	184525	34.81	0
1	185035	34.91	0
1	185553	35.01	0
1	186063	35.11	0
1	186573	35.21	0
1	187083	35.31	0
1	187593	35.41	0
1	188103	35.51	0
1	188613	35.61	0
1	189123	35.71	0
1	189633	35.81	0
1	190143	35.91	0
1	190661	36.01	0
1	191171	36.11	0
1	191681	36.21	0
1	192191	36.31	0
1	192701	36.41	0
1	193211	36.51	0
1	193721	36.61	0
1	194231	36.71	0
1	194741	36.81	0
1	195251	36.91	0
1	195769	37.01	0
1	196279	37.11	0
1	196789	37.21	0
1	197299	37.31	0
1	197809	37.41	0
1	198319	37.51	0
1	198829	37.61	0
1	199339	37.71	0
1	199849	37.81	0
1	200359	37.91	0
1	200877	38.01	0
1	201387	38.11	0
1	201897	38.21	0
1	202407	38.31	0
1	202917	38.41	0
1	203427	38.51	0
1	203937	38.61	0
1	204447	38.71	0
1	204957	38.81	0
1	205467	38.91	0
1	205985	39.01	0
1	206495	39.11	0
1	207005	39.21	0
1	207515	39.31	0
1	208025	39.41	0
1	208535	39.51	0
1	209045	39.61	0
1	209555	39.71	0
1	210065	39.81	0
1	210575	39.91	0
1	211093	40.01	0
1	211603	40.11	0
1	212113	40.21	0
1	212623	40.31	0
1	213133	40.41	0
1	213643	40.51	0
1	214153	40.61	0
1	214663	40.71	0
1	215173	40.81	0
1	215683	40.91	0
1	216201	41.01	0
1	216711	41.11	0
1	217221	41.21	0
1	217731	41.31	0
1	218241	41.41	0
1	218751	41.51	0
1	219261	41.61	0
1	219771	41.71	0
1	220281	41.81	0
1	220791	41.91	0
1	221309	42.01	0
1	221819	42.11	0
1	222329	42.21	0
1	222839	42.31	0
1	223349	42.41	0
1	223859	42.51	0
1	224369	42.61	0
1	224879	42.71	0
1	225389	42.81	0
1	225899	42.91	0
1	226417	43.01	0
1	226927	43.11	0
1	227437	43.21	0
1	227947	43.31	0
1	228457	43.41	0
1	228967	43.51	0
1	229477	43.61	0
1	229987	43.71	0
1	230497	43.81	0
1	231007	43.91	0
1	231525	44.01	0
1	232035	44.11	0
1	232545	44.21	0
1	233055	44.31	0
1	233565	44.41	0
1	234075	44.51	0
1	234585	44.61	0
1	235095	44.71	0
1	235605	44.81	0
1	236115	44.91	0
1	236633	45.01	0
1	237143	45.11	0
1	237653	45.21	0
1	238163	45.31	0
1	238673	45.41	0
1	239183	45.51	0
1	239693	45.61	0
1	240203	45.71	0
1	240713	45.81	0
1	241223	45.91	0
1	241741	46.01	0
1	242251	46.11	0
1	242761	46.21	0
1	243271	46.31	0
1	243781	46.41	0
1	244291	46.51	0
1	244801	46.61	0
1	245311	46.71	0
1	245821	46.81	0
1	246331	46.91	0
1	246849	47.01	0
1	247359	47.11	0
1	247869	47.21	0
1	248379	47.31	0
1	248889	47.41	0
1	249399	47.51	0
1	249909	47.61	0
1	250419	47.71	0
1	250929	47.81	0
1	251439	47.91	0
1	251957	48.01	0
1	252467	48.11	0
1	252977	48.21	0
1	253487	48.31	0
1	253997	48.41	0
1	254507	48.51	0
1	255017	48.61	0
1	255527	48.71	0
1	256037	48.81	0
1	256547	48.91	0
1	257065	49.01	0
1	257575	49.11	0
1	258085	49.21	0
1	258595	49.31	0
1	259105	49.41	0
1	259615	49.51	0
1	260125	49.61	0
1	260635	49.71	0
1	261145	49.81	0
1	261655	49.91	0
1	262173	50.01	0
1	262683	50.11	0
1	263193	50.21	0
1	263703	50.31	0
1	264213	50.41	0
1	264723	50.51	0
1	265233	50.61	0
1	265743	50.71	0
1	266253	50.81	0
1	266763	50.91	0
1	267281	51.01	0
1	267791	51.11	0
1	268301	51.21	0
1	268811	51.31	0
1	269321	51.41	0
1	269831	51.51	0
1	270341	51.61	0
1	270851	51.71	0
1	271361	51.81	0
1	271871	51.91	0
1	272389	52.01	0
1	272896	52.11	0
1	273394	52.21	0
1	273886	52.31	0
1	274372	52.41	0
1	274852	52.51	0
1	275326	52.61	0
1	275794	52.71	0
1	276262	52.81	0
1	276730	52.91	0
1	277206	53.01	0
1	277674	53.11	0
1	278142	53.21	0
1	278610	53.31	0
1	279078	53.41	0
1	279546	53.51	0
1	280014	53.61	0
1	280482	53.71	0
1	280950	53.81	0
1	281418	53.91	0
1	281894	54.01	0
1	282362	54.11	0
1	282830	54.21	0
1	283298	54.31	0
1	283766	54.41	0
1	284234	54.51	0
1	284702	54.61	0
1	285170	54.71	0
1	285638	54.81	0
1	286106	54.91	0
1	286582	55.01	0
1	287050	55.11	0
1	287518	55.21	0
1	287986	55.31	0
1	288454	55.41	0
1	288922	55.51	0
1	289390	55.61	0
1	289858	55.71	0
1	290326	55.81	0
1	290794	55.91	0
1	291270	56.01	0
1	291738	56.11	0
1	292206	56.21	0
1	292674	56.31	0
1	293142	56.41	0
1	293610	56.51	0
1	294078	56.61	0
1	294546	56.71	0
1	295014	56.81	0
1	295482	56.91	0
1	295958	57.01	0
1	296426	57.11	0
1	296894	57.21	0
1	297362	57.31	0
1	297830	57.41	0
1	298298	57.51	0
1	298766	57.61	0
1	299234	57.71	0
1	299702	57.81	0
1	300170	57.91	0
1	300646	58.01	0
1	301114	58.11	0
1	301582	58.21	0
1	302050	58.31	0
1	302518	58.41	0
1	302986	58.51	0
1	303454	58.61	0
1	303922	58.71	0
1	304390	58.81	0
1	304858	58.91	0
1	305334	59.01	0
1	305802	59.11	0
1	306270	59.21	0
1	306738	59.31	0
1	307206	59.41	0
1	307674	59.51	0
1	308142	59.61	0
1	308610	59.71	0
1	309078	59.81	0
1	309546	59.91	0
1	310022	60.01	0
1	310490	60.11	0
1	310958	60.21	0
1	311426	60.31	0
1	311894	60.41	0
1	312362	60.51	0
1	312830	60.61	0
1	313298	60.71	0
1	313766	60.81	0
1	314234	60.91	0
1	314710	61.01	0
1	315178	61.11	0
1	315646	61.21	0
1	316114	61.31	0
1	316582	61.41	0
1	317050	61.51	0
1	317518	61.61	0
1	317986	61.71	0
1	318454	61.81	0
1	318922	61.91	0
1	319398	62.01	0
1	319866	62.11	0
1	320334	62.21	0
1	320802	62.31	0
1	321270	62.41	0
1	321738	62.51	0
1	322206	62.61	0
1	322674	62.71	0
1	323142	62.81	0
1	323610	62.91	0
1	324086	63.01	0
1	324554	63.11	0
1	325022	63.21	0
1	325490	63.31	0
1	325958	63.41	0
1	326426	63.51	0
1	326894	63.61	0
1	327362	63.71	0
1	327830	63.81	0
1	328298	63.91	0
1	328774	64.01	0
1	329242	64.11	0
1	329710	64.21	0
1	330178	64.31	0
1	330646	64.41	0
1	331114	64.51	0
1	331582	64.61	0
1	332050	64.71	0
1	332518	64.81	0
1	332986	64.91	0
1	333462	65.01	0
1	333930	65.11	0
1	334398	65.21	0
1	334866	65.31	0
1	335334	65.41	0
1	335802	65.51	0
1	336270	65.61	0
1	336738	65.71	0
1	337202	65.81	0
1	337662	65.91	0
1	338126	66.01	0
1	338576	66.11	0
1	339022	66.21	0
1	339464	66.31	0
1	339904	66.41	0
1	340344	66.51	0
1	340784	66.61	0
1	341224	66.71	0
1	341664	66.81	0
1	342104	66.91	0
1	342552	67.01	0
1	342992	67.11	0
1	343432	67.21	0
1	343872	67.31	0
1	344312	67.41	0
1	344752	67.51	0
1	345192	67.61	0
1	345632	67.71	0
1	346072	67.81	0
1	346512	67.91	0
1	346960	68.01	0
1	347400	68.11	0
1	347840	68.21	0
1	348280	68.31	0
1	348720	68.41	0
1	349160	68.51	0
1	349600	68.61	0
1	350040	68.71	0
1	350480	68.81	0
1	350920	68.91	0
1	351368	69.01	0
1	351808	69.11	0
1	352248	69.21	0
1	352688	69.31	0
1	353128	69.41	0
1	353568	69.51	0
1	354008	69.61	0
1	354448	69.71	0
1	354888	69.81	0
1	355328	69.91	0
1	355776	70.01	0
1	356216	70.11	0
1	356656	70.21	0
1	357096	70.31	0
1	357536	70.41	0
1	357976	70.51	0
1	358416	70.61	0
1	358856	70.71	0
1	359296	70.81	0
1	359736	70.91	0
1	360184	71.01	0
1	360624	71.11	0
1	361064	71.21	0
1	361504	71.31	0
1	361944	71.41	0
1	362384	71.51	0
1	362824	71.61	0
1	363264	71.71	0
1	363704	71.81	0
1	364144	71.91	0
1	364592	72.01	0
1	365032	72.11	0
1	365472	72.21	0
1	365912	72.31	0
1	366352	72.41	0
1	366792	72.51	0
1	367232	72.61	0
1	367672	72.71	0
1	368112	72.81	0
1	368552	72.91	0
1	369000	73.01	0
1	369440	73.11	0
1	369880	73.21	0
1	370320	73.31	0
1	370760	73.41	0
1	371200	73.51	0
1	371640	73.61	0
1	372080	73.71	0
1	372520	73.81	0
1	372960	73.91	0
1	373408	74.01	0
1	373848	74.11	0
1	374288	74.21	0
1	374728	74.31	0
1	375168	74.41	0
1	375608	74.51	0
1	376048	74.61	0
1	376488	74.71	0
1	376928	74.81	0
1	377368	74.91	0
1	377816	75.01	0
1	378256	75.11	0
1	378696	75.21	0
1	379136	75.31	0
1	379576	75.41	0
1	380016	75.51	0
1	380456	75.61	0
1	380896	75.71	0
1	381336	75.81	0
1	381776	75.91	0
1	382224	76.01	0
1	382664	76.11	0
1	383104	76.21	0
1	383544	76.31	0
1	383984	76.41	0
1	384424	76.51	0
1	384864	76.61	0
1	385304	76.71	0
1	385744	76.81	0
1	386184	76.91	0
1	386632	77.01	0
1	387072	77.11	0
1	387512	77.21	0
1	387952	77.31	0
1	388392	77.41	0
1	388832	77.51	0
1	389272	77.61	0
1	389712	77.71	0
1	390152	77.81	0
1	390592	77.91	0
1	391040	78.01	0
1	391480	78.11	0
1	391920	78.21	0
1	392360	78.31	0
1	392800	78.41	0
1	393240	78.51	0
1	393680	78.61	0
1	394120	78.71	0
1	394560	78.81	0
1	395000	78.91	0
1	395448	79.01	0
1	395888	79.11	0
1	396328	79.21	0
1	396768	79.31	0
1	397208	79.41	0
1	397648	79.51	0
1	398088	79.61	0
1	398528	79.71	0
1	398968	79.81	0
1	399408	79.91	0
1	399856	80.01	0
1	400296	80.11	0
1	400736	80.21	0
1	401176	80.31	0
1	401616	80.41	0
1	402056	80.51	0
1	402496	80.61	0
1	402936	80.71	0
1	403376	80.81	0
1	403816	80.91	0
1	404264	81.01	0
1	404704	81.11	0
1	405144	81.21	0
1	405584	81.31	0
1	406024	81.41	0
1	406464	81.51	0
1	406904	81.61	0
1	407344	81.71	0
1	407784	81.81	0
1	408224	81.91	0
1	408672	82.01	0
1	409112	82.11	0
1	409552	82.21	0
1	409992	82.31	0
1	410432	82.41	0
1	410872	82.51	0
1	411312	82.61	0
1	411752	82.71	0
1	412192	82.81	0
1	412632	82.91	0
1	413080	83.01	0
1	413520	83.11	0
1	413960	83.21	0
1	414400	83.31	0
1	414840	83.41	0
1	415280	83.51	0
1	415720	83.61	0
1	416160	83.71	0
1	416600	83.81	0
1	417040	83.91	0
1	417488	84.01	0
1	417928	84.11	0
1	418368	84.21	0
1	418808	84.31	0
1	419248	84.41	0
1	419688	84.51	0
1	420128	84.61	0
1	420568	84.71	0
1	421008	84.81	0
1	421448	84.91	0
1	421896	85.01	0
1	422336	85.11	0
1	422776	85.21	0
1	423216	85.31	0
1	423656	85.41	0
1	424096	85.51	0
1	424536	85.61	0
1	424976	85.71	0
1	425416	85.81	0
1	425856	85.91	0
1	426304	86.01	0
1	426744	86.11	0
1	427184	86.21	0
1	427624	86.31	0
1	428064	86.41	0
1	428504	86.51	0
1	428944	86.61	0
1	429384	86.71	0
1	429824	86.81	0
1	430264	86.91	0
1	430712	87.01	0
1	431152	87.11	0
1	431592	87.21	0
1	432032	87.31	0
1	432472	87.41	0
1	432912	87.51	0
1	433352	87.61	0
1	433792	87.71	0
1	434232	87.81	0
1	434672	87.91	0
1	435120	88.01	0
1	435560	88.11	0
1	436000	88.21	0
1	436440	88.31	0
1	436880	88.41	0
1	437320	88.51	0
1	437760	88.61	0
1	438200	88.71	0
1	438640	88.81	0
1	439080	88.91	0
1	439528	89.01	0
1	439968	89.11	0
1	440408	89.21	0
1	440848	89.31	0
1	441288	89.41	0
1	441728	89.51	0
1	442168	89.61	0
1	442608	89.71	0
1	443048	89.81	0
1	443488	89.91	0
1	443936	90.01	0
1	444376	90.11	0
1	444816	90.21	0
1	445256	90.31	0
1	445696	90.41	0
1	446136	90.51	0
1	446576	90.61	0
1	447016	90.71	0
1	447456	90.81	0
1	447896	90.91	0
1	448344	91.01	0
1	448784	91.11	0
1	449224	91.21	0
1	449664	91.31	0
1	450104	91.41	0
1	450544	91.51	0
1	450984	91.61	0
1	451424	91.71	0
1	451864	91.81	0
1	452304	91.91	0
1	452752	92.01	0
1	453192	92.11	0
1	453632	92.21	0
1	454072	92.31	0
1	454512	92.41	0
1	454952	92.51	0
1	455392	92.61	0
1	455832	92.71	0
1	456272	92.81	0
1	456712	92.91	0
1	457160	93.01	0
1	457600	93.11	0
1	458040	93.21	0
1	458480	93.31	0
1	458920	93.41	0
1	459360	93.51	0
1	459800	93.61	0
1	460240	93.71	0
1	460680	93.81	0
1	461120	93.91	0
1	461568	94.01	0
1	462008	94.11	0
1	462448	94.21	0
1	462888	94.31	0
1	463328	94.41	0
1	463768	94.51	0
1	464208	94.61	0
1	464648	94.71	0
1	465088	94.81	0
1	465528	94.91	0
1	465976	95.01	0
1	466416	95.11	0
1	466856	95.21	0
1	467296	95.31	0
1	467736	95.41	0
1	468176	95.51	0
1	468616	95.61	0
1	469056	95.71	0
1	469496	95.81	0
1	469936	95.91	0
1	470384	96.01	0
1	470824	96.11	0
1	471264	96.21	0
1	471704	96.31	0
1	472144	96.41	0
1	472584	96.51	0
1	473024	96.61	0
1	473464	96.71	0
1	473904	96.81	0
1	474344	96.91	0
1	474792	97.01	0
1	475232	97.11	0
1	475672	97.21	0
1	476112	97.31	0
1	476552	97.41	0
1	476992	97.51	0
1	477432	97.61	0
1	477872	97.71	0
1	478312	97.81	0
1	478752	97.91	0
1	479200	98.01	0
1	479640	98.11	0
1	480080	98.21	0
1	480520	98.31	0
1	480960	98.41	0
1	481400	98.51	0
1	481840	98.61	0
1	482280	98.71	0
1	482720	98.81	0
1	483160	98.91	0
1	483608	99.01	0
1	484048	99.11	0
1	484488	99.21	0
1	484928	99.31	0
1	485368	99.41	0
1	485808	99.51	0
1	486248	99.61	0
1	486688	99.71	0
1	487128	99.81	0
1	487568	99.91	0
2	113	1.11	0
2	659	1.21	0
2	1205	1.31	0
2	1751	1.41	0
2	2297	1.51	0
2	2843	1.61	0
2	3389	1.71	0
2	3935	1.81	0
2	4481	1.91	0
2	5035	2.01	0
2	5581	2.11	0
2	6127	2.21	0
2	6673	2.31	0
2	7219	2.41	0
2	7765	2.51	0
2	8311	2.61	0
2	8857	2.71	0
2	9403	2.81	0
2	9949	2.91	0
2	10503	3.01	0
2	11049	3.11	0
2	11595	3.21	0
2	12141	3.31	0
2	12687	3.41	0
2	13233	3.51	0
2	13779	3.61	0
2	14325	3.71	0
2	14871	3.81	0
2	15417	3.91	0
2	15971	4.01	0
2	16517	4.11	0
2	17063	4.21	0
2	17609	4.31	0
2	18155	4.41	0
2	18701	4.51	0
2	19247	4.61	0
2	19793	4.71	0
2	20339	4.81	0
2	20885	4.91	0
2	21439	5.01	0
2	21985	5.11	0
2	22531	5.21	0
2	23077	5.31	0
2	23623	5.41	0
2	24169	5.51	0
2	24715	5.61	0
2	25261	5.71	0
2	25807	5.81	0
2	26353	5.91	0
2	26907	6.01	0
2	27453	6.11	0
2	27999	6.21	0
2	28545	6.31	0
2	29091	6.41	0
2	29637	6.51	0
2	30183	6.61	0
2	30729	6.71	0
2	31275	6.81	0
2	31821	6.91	0
2	32375	7.01	0
2	32921	7.11	0
2	33467	7.21	0
2	34013	7.31	0
2	34559	7.41	0
2	35105	7.51	0
2	35651	7.61	0
2	36197	7.71	0
2	36743	7.81	0
2	37289	7.91	0
2	37843	8.01	0
2	38389	8.11	0
2	38935	8.21	0
2	39481	8.31	0
2	40027	8.41	0
2	40573	8.51	0
2	41119	8.61	0
2	41665	8.71	0
2	42211	8.81	0
2	42757	8.91	0
2	43311	9.01	0
2	43857	9.11	0
2	44403	9.21	0
2	44949	9.31	0
2	45495	9.41	0
2	46041	9.51	0
2	46587	9.61	0
2	47133	9.71	0
2	47679	9.81	0
2	48225	9.91	0
2	48946	10.01	0
2	49498	10.11	0
2	50050	10.21	0
2	50602	10.31	0
2	51154	10.41	0
2	51706	10.51	0
2	52258	10.61	0
2	52810	10.71	0
2	53362	10.81	0
2	53914	10.91	0
2	54474	11.01	0
2	55026	11.11	0
2	55578	11.21	0
2	56130	11.31	0
2	56682	11.41	0
2	57234	11.51	0
2	57786	11.61	0
2	58338	11.71	0
2	58890	11.81	0
2	59442	11.91	0
2	60002	12.01	0
2	60554	12.11	0
2	61106	12.21	0
2	61658	12.31	0
2	62210	12.41	0
2	62762	12.51	0
2	63314	12.61	0
2	63866	12.71	0
2	64418	12.81	0
2	64970	12.91	0
2	65530	13.01	0
2	66082	13.11	0
2	66634	13.21	0
2	67186	13.31	0
2	67738	13.41	0
2	68290	13.51	0
2	68842	13.61	0
2	69394	13.71	0
2	69946	13.81	0
2	70498	13.91	0
2	71058	14.01	0
2	71610	14.11	0
2	72162	14.21	0
2	72714	14.31	0
2	73266	14.41	0
2	73818	14.51	0
2	74370	14.61	0
2	74922	14.71	0
2	75474	14.81	0
2	76026	14.91	0
2	76586	15.01	0
2	77138	15.11	0
2	77690	15.21	0
2	78242	15.31	0
2	78794	15.41	0
2	79346	15.51	0
2	79898	15.61	0
2	80450	15.71	0
2	81002	15.81	0
2	81554	15.91	0
2	82114	16.01	0
2	82666	16.11	0
2	83218	16.21	0
2	83770	16.31	0
2	84322	16.41	0
2	84874	16.51	0
2	85426	16.61	0
2	85978	16.71	0
2	86530	16.81	0
2	87082	16.91	0
2	87642	17.01	0
2	88194	17.11	0
2	88746	17.21	0
2	89298	17.31	0
2	89850	17.41	0
2	90402	17.51	0
2	90954	17.61	0
2	91506	17.71	0
2	92058	17.81	0
2	92610	17.91	0
2	93170	18.01	0
2	93722	18.11	0
2	94274	18.21	0
2	94826	18.31	0
2	95378	18.41	0
2	95930	18.51	0
2	96482	18.61	0
2	97034	18.71	0
2	97586	18.81	0
2	98138	18.91	0
2	98698	19.01	0
2	99250	19.11	0
2	99802	19.21	0
2	100354	19.31	0
2	100906	19.41	0
2	101458	19.51	0
2	102010	19.61	0
2	102562	19.71	0
2	103114	19.81	0
2	103666	19.91	0
2	104226	20.01	0
2	104778	20.11	0
2	105330	20.21	0
2	105882	20.31	0
2	106434	20.41	0
2	106986	20.51	0
2	107538	20.61	0
2	108090	20.71	0
2	108642	20.81	0
2	109194	20.91	0
2	109754	21.01	0
2	110306	21.11	0
2	110858	21.21	0
2	111410	21.31	0
2	111962	21.41	0
2	112514	21.51	0
2	113066	21.61	0
2	113618	21.71	0
2	114170	21.81	0
2	114722	21.91	0
2	115282	22.01	0
2	115834	22.11	0
2	116386	22.21	0
2	116938	22.31	0
2	117490	22.41	0
2	118042	22.51	0
2	118594	22.61	0
2	119146	22.71	0
2	119698	22.81	0
2	120250	22.91	0
2	120810	23.01	0
2	121362	23.11	0
2	121914	23.21	0
2	122466	23.31	0
2	123018	23.41	0
2	123570	23.51	0
2	124122	23.61	0
2	124674	23.71	0
2	125226	23.81	0
2	125778	23.91	0
2	126338	24.01	0
2	126890	24.11	0
2	127442	24.21	0
2	127994	24.31	0
2	128546	24.41	0
2	129098	24.51	0
2	129650	24.61	0
2	130202	24.71	0
2	130754	24.81	0
2	131306	24.91	0
2	131866	25.01	0
2	132418	25.11	0
2	132970	25.21	0
2	133522	25.31	0
2	134074	25.41	0
2	134626	25.51	0
2	135178	25.61	0
2	135730	25.71	0
2	136282	25.81	0
2	136834	25.91	0
2	137394	26.01	0
2	137946	26.11	0
2	138498	26.21	0
2	139050	26.31	0
2	139602	26.41	0
2	140154	26.51	0
2	140706	26.61	0
2	141258	26.71	0
2	141810	26.81	0
2	142362	26.91	0
2	142922	27.01	0
2	143471	27.11	0
2	144023	27.21	0
2	144575	27.31	0
2	145127	27.41	0
2	145679	27.51	0
2	146231	27.61	0
2	146783	27.71	0
2	147335	27.81	0
2	147884	27.91	0
2	148441	28.01	0
2	148993	28.11	0
2	149545	28.21	0
2	150097	28.31	0
2	150649	28.41	0
2	151198	28.51	0
2	151747	28.61	0
2	152299	28.71	0
2	152848	28.81	0
2	153400	28.91	0
2	153960	29.01	0
2	154503	29.11	0
2	155052	29.21	0
2	155601	29.31	0
2	156150	29.41	0
2	156699	29.51	0
2	157248	29.61	0
2	157797	29.71	0
2	158343	29.81	0
2	158886	29.91	0
2	159440	30.01	0
2	159983	30.11	0
2	160529	30.21	0
2	161069	30.31	0
2	161618	30.41	0
2	162164	30.51	0
2	162704	30.61	0
2	163238	30.71	0
2	163778	30.81	0
2	164315	30.91	0
2	164857	31.01	0
2	165391	31.11	0
2	165931	31.21	0
2	166468	31.31	0
2	166999	31.41	0
2	167527	31.51	0
2	168058	31.61	0
2	168589	31.71	0
2	169117	31.81	0
2	169645	31.91	0
2	170175	32.01	0
2	170700	32.11	0
2	171216	32.21	0
2	171735	32.31	0
2	172254	32.41	0
2	172764	32.51	0
2	173283	32.61	0
2	173793	32.71	0
2	174303	32.81	0
2	174816	32.91	0
2	175334	33.01	0
2	175844	33.11	0
2	176357	33.21	0
2	176867	33.31	0
2	177377	33.41	0
2	177887	33.51	0
2	178397	33.61	0
2	178907	33.71	0
2	179417	33.81	0
2	179927	33.91	0
2	180445	34.01	0
2	180955	34.11	0
2	181465	34.21	0
2	181975	34.31	0
2	182485	34.41	0
2	182995	34.51	0
2	183505	34.61	0
2	184015	34.71	0
2	184525	34.81	0
2	185035	34.91	0
2	185553	35.01	0
2	186063	35.11	0
2	186573	35.21	0
2	187083	35.31	0
2	187593	35.41	0
2	188103	35.51	0
2	188613	35.61	0
2	189123	35.71	0
2	189633	35.81	0
2	190143	35.91	0
2	190661	36.01	0
2	191171	36.11	0
2	191681	36.21	0
2	192191	36.31	0
2	192701	36.41	0
2	193211	36.51	0
2	193721	36.61	0
2	194231	36.71	0
2	194741	36.81	0
2	195251	36.91	0
2	195769	37.01	0
2	196279	37.11	0
2	196789	37.21	0
2	197299	37.31	0
2	197809	37.41	0
2	198319	37.51	0
2	198829	37.61	0
2	199339	37.71	0
2	199849	37.81	0
2	200359	37.91	0
2	200877	38.01	0
2	201387	38.11	0
2	201897	38.21	0
2	202407	38.31	0
2	202917	38.41	0
2	203427	38.51	0
2	203937	38.61	0
2	204447	38.71	0
2	204957	38.81	0
2	205467	38.91	0
2	205985	39.01	0
2	206495	39.11	0
2	207005	39.21	0
2	207515	39.31	0
2	208025	39.41	0
2	208535	39.51	0
2	209045	39.61	0
2	209555	39.71	0
2	210065	39.81	0
2	210575	39.91	0
2	211093	40.01	0
2	211603	40.11	0
2	212113	40.21	0
2	212623	40.31	0
2	213133	40.41	0
2	213643	40.51	0
2	214153	40.61	0
2	214663	40.71	0
2	215173	40.81	0
2	215683	40.91	0
2	216201	41.01	0
2	216711	41.11	0
2	217221	41.21	0
2	217731	41.31	0
2	218241	41.41	0
2	218751	41.51	0
2	219261	41.61	0
2	219771	41.71	0
2	220281	41.81	0
2	220791	41.91	0
2	221309	42.01	0
2	221819	42.11	0
2	222329	42.21	0
2	222839	42.31	0
2	223349	42.41	0
2	223859	42.51	0
2	224369	42.61	0
2	224879	42.71	0
2	225389	42.81	0
2	225899	42.91	0
2	226417	43.01	0
2	226927	43.11	0
2	227437	43.21	0
2	227947	43.31	0
2	228457	43.41	0
2	228967	43.51	0
2	229477	43.61	0
2	229987	43.71	0
2	230497	43.81	0
2	231007	43.91	0
2	231525	44.01	0
2	232035	44.11	0
2	232545	44.21	0
2	233055	44.31	0
2	233565	44.41	0
2	234075	44.51	0
2	234585	44.61	0
2	235095	44.71	0
2	235605	44.81	0
2	236115	44.91	0
2	236633	45.01	0
2	237143	45.11	0
2	237653	45.21	0
2	238163	45.31	0
2	238673	45.41	0
2	239183	45.51	0
2	239693	45.61	0
2	240203	45.71	0
2	240713	45.81	0
2	241223	45.91	0
2	241741	46.01	0
2	242251	46.11	0
2	242761	46.21	0
2	243271	46.31	0
2	243781	46.41	0
2	244291	46.51	0
2	244801	46.61	0
2	245311	46.71	0
2	245821	46.81	0
2	246331	46.91	0
2	246849	47.01	0
2	247359	47.11	0
2	247869	47.21	0
2	248379	47.31	0
2	248889	47.41	0
2	249399	47.51	0
2	249909	47.61	0
2	250419	47.71	0
2	250929	47.81	0
2	251439	47.91	0
2	251957	48.01	0
2	252467	48.11	0
2	252977	48.21	0
2	253487	48.31	0
2	253997	48.41	0
2	254507	48.51	0
2	255017	48.61	0
2	255527	48.71	0
2	256037	48.81	0
2	256547	48.91	0
2	257065	49.01	0
2	257575	49.11	0
2	258085	49.21	0
2	258595	49.31	0
2	259105	49.41	0
2	259615	49.51	0
2	260125	49.61	0
2	260635	49.71	0
2	261145	49.81	0
2	261655	49.91	0
2	262173	50.01	0
2	262683	50.11	0
2	263193	50.21	0
2	263703	50.31	0
2	264213	50.41	0
2	264723	50.51	0
2	265233	50.61	0
2	265743	50.71	0
2	266253	50.81	0
2	266763	50.91	0
2	267281	51.01	0
2	267791	51.11	0
2	268301	51.21	0
2	268811	51.31	0
2	269321	51.41	0
2	269831	51.51	0
2	270341	51.61	0
2	270851	51.71	0
2	271361	51.81	0
2	271871	51.91	0
2	272389	52.01	0
2	272896	52.11	0
2	273394	52.21	0
2	273886	52.31	0
2	274372	52.41	0
2	274852	52.51	0
2	275326	52.61	0
2	275794	52.71	0
2	276262	52.81	0
2	276730	52.91	0
2	277206	53.01	0
2	277674	53.11	0
2	278142	53.21	0
2	278610	53.31	0
2	279078	53.41	0
2	279546	53.51	0
2	280014	53.61	0
2	280482	53.71	0
2	280950	53.81	0
2	281418	53.91	0
2	281894	54.01	0
2	282362	54.11	0
2	282830	54.21	0
2	283298	54.31	0
2	283766	54.41	0
2	284234	54.51	0
2	284702	54.61	0
2	285170	54.71	0
2	285638	54.81	0
2	286106	54.91	0
2	286582	55.01	0
2	287050	55.11	0
2	287518	55.21	0
2	287986	55.31	0
2	288454	55.41	0
2	288922	55.51	0
2	289390	55.61	0
2	289858	55.71	0
2	290326	55.81	0
2	290794	55.91	0
2	291270	56.01	0
2	291738	56.11	0
2	292206	56.21	0
2	292674	56.31	0
2	293142	56.41	0
2	293610	56.51	0
2	294078	56.61	0
2	294546	56.71	0
2	295014	56.81	0
2	295482	56.91	0
2	295958	57.01	0
2	296426	57.11	0
2	296894	57.21	0
2	297362	57.31	0
2	297830	57.41	0
2	298298	57.51	0
2	298766	57.61	0
2	299234	57.71	0
2	299702	57.81	0
2	300170	57.91	0
2	300646	58.01	0
2	301114	58.11	0
2	301582	58.21	0
2	302050	58.31	0
2	302518	58.41	0
2	302986	58.51	0
2	303454	58.61	0
2	303922	58.71	0
2	304390	58.81	0
2	304858	58.91	0
2	305334	59.01	0
2	305802	59.11	0
2	306270	59.21	0
2	306738	59.31	0
2	307206	59.41	0
2	307674	59.51	0
2	308142	59.61	0
2	308610	59.71	0
2	309078	59.81	0
2	309546	59.91	0
2	310022	60.01	0
2	310490	60.11	0
2	310958	60.21	0
2	311426	60.31	0
2	311894	60.41	0
2	312362	60.51	0
2	312830	60.61	0
2	313298	60.71	0
2	313766	60.81	0
2	314234	60.91	0
2	314710	61.01	0
2	315178	61.11	0
2	315646	61.21	0
2	316114	61.31	0
2	316582	61.41	0
2	317050	61.51	0
2	317518	61.61	0
2	317986	61.71	0
2	318454	61.81	0
2	318922	61.91	0
2	319398	62.01	0
2	319866	62.11	0
2	320334	62.21	0
2	320802	62.31	0
2	321270	62.41	0
2	321738	62.51	0
2	322206	62.61	0
2	322674	62.71	0
2	323142	62.81	0
2	323610	62.91	0
2	324086	63.01	0
2	324554	63.11	0
2	325022	63.21	0
2	325490	63.31	0
2	325958	63.41	0
2	326426	63.51	0
2	326894	63.61	0
2	327362	63.71	0
2	327830	63.81	0
2	328298	63.91	0
2	328774	64.01	0
2	329242	64.11	0
2	329710	64.21	0
2	330178	64.31	0
2	330646	64.41	0
2	331114	64.51	0
2	331582	64.61	0
2	332050	64.71	0
2	332518	64.81	0
2	332986	64.91	0
2	333462	65.01	0
2	333930	65.11	0
2	334398	65.21	0
2	334866	65.31	0
2	335334	65.41	0
2	335802	65.51	0
2	336270	65.61	0
2	336738	65.71	0
2	337202	65.81	0
2	337662	65.91	0
2	338126	66.01	0
2	338576	66.11	0
2	339022	66.21	0
2	339464	66.31	0
2	339904	66.41	0
2	340344	66.51	0
2	340784	66.61	0
2	341224	66.71	0
2	341664	66.81	0
2	342104	66.91	0
2	342552	67.01	0
2	342992	67.11	0
2	343432	67.21	0
2	343872	67.31	0
2	344312	67.41	0
2	344752	67.51	0
2	345192	67.61	0
2	345632	67.71	0
2	346072	67.81	0
2	346512	67.91	0
2	346960	68.01	0
2	347400	68.11	0
2	347840	68.21	0
2	348280	68.31	0
2	348720	68.41	0
2	349160	68.51	0
2	349600	68.61	0
2	350040	68.71	0
2	350480	68.81	0
2	350920	68.91	0
2	351368	69.01	0
2	351808	69.11	0
2	352248	69.21	0
2	352688	69.31	0
2	353128	69.41	0
2	353568	69.51	0
2	354008	69.61	0
2	354448	69.71	0
2	354888	69.81	0
2	355328	69.91	0
2	355776	70.01	0
2	356216	70.11	0
2	356656	70.21	0
2	357096	70.31	0
2	357536	70.41	0
2	357976	70.51	0
2	358416	70.61	0
2	358856	70.71	0
2	359296	70.81	0
2	359736	70.91	0
2	360184	71.01	0
2	360624	71.11	0
2	361064	71.21	0
2	361504	71.31	0
2	361944	71.41	0
2	362384	71.51	0
2	362824	71.61	0
2	363264	71.71	0
2	363704	71.81	0
2	364144	71.91	0
2	364592	72.01	0
2	365032	72.11	0
2	365472	72.21	0
2	365912	72.31	0
2	366352	72.41	0
2	366792	72.51	0
2	367232	72.61	0
2	367672	72.71	0
2	368112	72.81	0
2	368552	72.91	0
2	369000	73.01	0
2	369440	73.11	0
2	369880	73.21	0
2	370320	73.31	0
2	370760	73.41	0
2	371200	73.51	0
2	371640	73.61	0
2	372080	73.71	0
2	372520	73.81	0
2	372960	73.91	0
2	373408	74.01	0
2	373848	74.11	0
2	374288	74.21	0
2	374728	74.31	0
2	375168	74.41	0
2	375608	74.51	0
2	376048	74.61	0
2	376488	74.71	0
2	376928	74.81	0
2	377368	74.91	0
2	377816	75.01	0
2	378256	75.11	0
2	378696	75.21	0
2	379136	75.31	0
2	379576	75.41	0
2	380016	75.51	0
2	380456	75.61	0
2	380896	75.71	0
2	381336	75.81	0
2	381776	75.91	0
2	382224	76.01	0
2	382664	76.11	0
2	383104	76.21	0
2	383544	76.31	0
2	383984	76.41	0
2	384424	76.51	0
2	384864	76.61	0
2	385304	76.71	0
2	385744	76.81	0
2	386184	76.91	0
2	386632	77.01	0
2	387072	77.11	0
2	387512	77.21	0
2	387952	77.31	0
2	388392	77.41	0
2	388832	77.51	0
2	389272	77.61	0
2	389712	77.71	0
2	390152	77.81	0
2	390592	77.91	0
2	391040	78.01	0
2	391480	78.11	0
2	391920	78.21	0
2	392360	78.31	0
2	392800	78.41	0
2	393240	78.51	0
2	393680	78.61	0
2	394120	78.71	0
2	394560	78.81	0
2	395000	78.91	0
2	395448	79.01	0
2	395888	79.11	0
2	396328	79.21	0
2	396768	79.31	0
2	397208	79.41	0
2	397648	79.51	0
2	398088	79.61	0
2	398528	79.71	0
2	398968	79.81	0
2	399408	79.91	0
2	399856	80.01	0
2	400296	80.11	0
2	400736	80.21	0
2	401176	80.31	0
2	401616	80.41	0
2	402056	80.51	0
2	402496	80.61	0
2	402936	80.71	0
2	403376	80.81	0
2	403816	80.91	0
2	404264	81.01	0
2	404704	81.11	0
2	405144	81.21	0
2	405584	81.31	0
2	406024	81.41	0
2	406464	81.51	0
2	406904	81.61	0
2	407344	81.71	0
2	407784	81.81	0
2	408224	81.91	0
2	408672	82.01	0
2	409112	82.11	0
2	409552	82.21	0
2	409992	82.31	0
2	410432	82.41	0
2	410872	82.51	0
2	411312	82.61	0
2	411752	82.71	0
2	412192	82.81	0
2	412632	82.91	0
2	413080	83.01	0
2	413520	83.11	0
2	413960	83.21	0
2	414400	83.31	0
2	414840	83.41	0
2	415280	83.51	0
2	415720	83.61	0
2	416160	83.71	0
2	416600	83.81	0
2	417040	83.91	0
2	417488	84.01	0
2	417928	84.11	0
2	418368	84.21	0
2	418808	84.31	0
2	419248	84.41	0
2	419688	84.51	0
2	420128	84.61	0
2	420568	84.71	0
2	421008	84.81	0
2	421448	84.91	0
2	421896	85.01	0
2	422336	85.11	0
2	422776	85.21	0
2	423216	85.31	0
2	423656	85.41	0
2	424096	85.51	0
2	424536	85.61	0
2	424976	85.71	0
2	425416	85.81	0
2	425856	85.91	0
2	426304	86.01	0
2	426744	86.11	0
2	427184	86.21	0
2	427624	86.31	0
2	428064	86.41	0
2	428504	86.51	0
2	428944	86.61	0
2	429384	86.71	0
2	429824	86.81	0
2	430264	86.91	0
2	430712	87.01	0
2	431152	87.11	0
2	431592	87.21	0
2	432032	87.31	0
2	432472	87.41	0
2	432912	87.51	0
2	433352	87.61	0
2	433792	87.71	0
2	434232	87.81	0
2	434672	87.91	0
2	435120	88.01	0
2	435560	88.11	0
2	436000	88.21	0
2	436440	88.31	0
2	436880	88.41	0
2	437320	88.51	0
2	437760	88.61	0
2	438200	88.71	0
2	438640	88.81	0
2	439080	88.91	0
2	439528	89.01	0
2	439968	89.11	0
2	440408	89.21	0
2	440848	89.31	0
2	441288	89.41	0
2	441728	89.51	0
2	442168	89.61	0
2	442608	89.71	0
2	443048	89.81	0
2	443488	89.91	0
2	443936	90.01	0
2	444376	90.11	0
2	444816	90.21	0
2	445256	90.31	0
2	445696	90.41	0
2	446136	90.51	0
2	446576	90.61	0
2	447016	90.71	0
2	447456	90.81	0
2	447896	90.91	0
2	448344	91.01	0
2	448784	91.11	0
2	449224	91.21	0
2	449664	91.31	0
2	450104	91.41	0
2	450544	91.51	0
2	450984	91.61	0
2	451424	91.71	0
2	451864	91.81	0
2	452304	91.91	0
2	452752	92.01	0
2	453192	92.11	0
2	453632	92.21	0
2	454072	92.31	0
2	454512	92.41	0
2	454952	92.51	0
2	455392	92.61	0
2	455832	92.71	0
2	456272	92.81	0
2	456712	92.91	0
2	457160	93.01	0
2	457600	93.11	0
2	458040	93.21	0
2	458480	93.31	0
2	458920	93.41	0
2	459360	93.51	0
2	459800	93.61	0
2	460240	93.71	0
2	460680	93.81	0
2	461120	93.91	0
2	461568	94.01	0
2	462008	94.11	0
2	462448	94.21	0
2	462888	94.31	0
2	463328	94.41	0
2	463768	94.51	0
2	464208	94.61	0
2	464648	94.71	0
2	465088	94.81	0
2	465528	94.91	0
2	465976	95.01	0
2	466416	95.11	0
2	466856	95.21	0
2	467296	95.31	0
2	467736	95.41	0
2	468176	95.51	0
2	468616	95.61	0
2	469056	95.71	0
2	469496	95.81	0
2	469936	95.91	0
2	470384	96.01	0
2	470824	96.11	0
2	471264	96.21	0
2	471704	96.31	0
2	472144	96.41	0
2	472584	96.51	0
2	473024	96.61	0
2	473464	96.71	0
2	473904	96.81	0
2	474344	96.91	0
2	474792	97.01	0
2	475232	97.11	0
2	475672	97.21	0
2	476112	97.31	0
2	476552	97.41	0
2	476992	97.51	0
2	477432	97.61	0
2	477872	97.71	0
2	478312	97.81	0
2	478752	97.91	0
2	479200	98.01	0
2	479640	98.11	0
2	480080	98.21	0
2	480520	98.31	0
2	480960	98.41	0
2	481400	98.51	0
2	481840	98.61	0
2	482280	98.71	0
2	482720	98.81	0
2	483160	98.91	0
2	483608	99.01	0
2	484048	99.11	0
2	484488	99.21	0
2	484928	99.31	0
2	485368	99.41	0
2	485808	99.51	0
2	486248	99.61	0
2	486688	99.71	0
2	487128	99.81	0
2	487568	99.91	0
3	113	1.11	-0.000537287
3	659	1.21	-0.00102256
3	1205	1.31	-0.0014023
3	1751	1.41	-0.00168868
3	2297	1.51	-0.00189332
3	2843	1.61	-0.00202724
3	3389	1.71	-0.00210073
3	3935	1.81	-0.00212335
3	4481	1.91	-0.00210382
3	5035	2.01	-0.00205006
3	5581	2.11	-0.00196919
3	6127	2.21	-0.00186754
3	6673	2.31	-0.00175064
3	7219	2.41	-0.00162335
3	7765	2.51	-0.00148981
3	8311	2.61	-0.00135354
3	8857	2.71	-0.00121748
3	9403	2.81	-0.00108402
3	9949	2.91	-0.000955094
3	10503	3.01	-0.0008322
3	11049	3.11	-0.000716459
3	11595	3.21	-0.00060866
3	12141	3.31	-0.00050931
3	12687	3.41	-0.000418674
3	13233	3.51	-0.000336812
3	13779	3.61	-0.000263615
3	14325	3.71	-0.00019884
3	14871	3.81	-0.000142136
3	15417	3.91	-9.30689e-05
3	15971	4.01	-5.11479e-05
3	16517	4.11	-1.58407e-05
3	17063	4.21	1.34077e-05
3	17609	4.31	3.7161e-05
3	18155	4.41	5.59805e-05
3	18701	4.51	7.0415e-05
3	19247	4.61	8.09934e-05
3	19793	4.71	8.82186e-05
3	20339	4.81	9.25636e-05
3	20885	4.91	9.44677e-05
3	21439	5.01	9.43354e-05
3	21985	5.11	9.25349e-05
3	22531	5.21	8.93982e-05
3	23077	5.31	8.52216e-05
3	23623	5.41	8.02667e-05
3	24169	5.51	7.47624e-05
3	24715	5.61	6.8906e-05
3	25261	5.71	6.28658e-05
3	25807	5.81	5.67832e-05
3	26353	5.91	5.07749e-05
3	26907	6.01	4.49353e-05
3	27453	6.11	3.93388e-05
3	27999	6.21	3.40422e-05
3	28545	6.31	2.90866e-05
3	29091	6.41	2.44995e-05
3	29637	6.51	2.02971e-05
3	30183	6.61	1.64857e-05
3	30729	6.71	1.30632e-05
3	31275	6.81	1.00213e-05
3	31821	6.91	7.34621e-06
3	32375	7.01	5.0199e-06
3	32921	7.11	3.02148e-06
3	33467	7.21	1.32788e-06
3	34013	7.31	-8.52687e-08
3	34559	7.41	-1.24302e-06
3	35105	7.51	-2.17048e-06
3	35651	7.61	-2.89239e-06
3	36197	7.71	-3.43273e-06
3	36743	7.81	-3.81443e-06
3	37289	7.91	-4.05915e-06
3	37843	8.01	-4.18709e-06
3	38389	8.11	-4.21695e-06
3	38935	8.21	-4.16581e-06
3	39481	8.31	-4.04914e-06
3	40027	8.41	-3.88081e-06
3	40573	8.51	-3.67311e-06
3	41119	8.61	-3.43684e-06
3	41665	8.71	-3.18138e-06
3	42211	8.81	-2.91475e-06
3	42757	8.91	-2.64374e-06
3	43311	9.01	-2.37401e-06
3	43857	9.11	-2.11015e-06
3	44403	9.21	-1.85584e-06
3	44949	9.31	-1.61394e-06
3	45495	9.41	-1.38655e-06
3	46041	9.51	-1.17514e-06
3	46587	9.61	-9.8063e-07
3	47133	9.71	-8.03478e-07
3	47679	9.81	-6.4374e-07
3	48225	9.91	-5.01153e-07
3	48946	10.01	-3.75194e-07
3	49498	10.11	-2.65135e-07
3	50050	10.21	-1.70092e-07
3	50602	10.31	-8.90743e-08
3	51154	10.41	-2.10129e-08
3	51706	10.51	3.51982e-08
3	52258	10.61	8.06793e-08
3	52810	10.71	1.16543e-07
3	53362	10.81	1.43872e-07
3	53914	10.91	1.63713e-07
3	54474	11.01	1.77052e-07
3	55026	11.11	1.84819e-07
3	55578	11.21	1.87876e-07
3	56130	11.31	1.87014e-07
3	56682	11.41	1.82953e-07
3	57234	11.51	1.7634e-07
3	57786	11.61	1.67752e-07
3	58338	11.71	1.57699e-07
3	58890	11.81	1.46622e-07
3	59442	11.91	1.34906e-07
3	60002	12.01	1.22874e-07
3	60554	12.11	1.10801e-07
3	61106	12.21	9.89097e-08
3	61658	12.31	8.73804e-08
3	62210	12.41	7.63556e-08
3	62762	12.51	6.59412e-08
3	63314	12.61	5.62153e-08
3	63866	12.71	4.72291e-08
3	64418	12.81	3.90095e-08
3	64970	12.91	3.15666e-08
3	65530	13.01	2.48953e-08
3	66082	13.11	1.8975e-08
3	66634	13.21	1.37796e-08
3	67186	13.31	9.26903e-09
3	67738	13.41	5.40297e-09
3	68290	13.51	2.13376e-09
3	68842	13.61	-5.85487e-10
3	69394	13.71	-2.80593e-09
3	69946	13.81	-4.57732e-09
3	70498	13.91	-5.94866e-09
3	71058	14.01	-6.96758e-09
3	71610	14.11	-7.67812e-09
3	72162	14.21	-8.12292e-09
3	72714	14.31	-8.34106e-09
3	73266	14.41	-8.3709e-09
3	73818	14.51	-8.24443e-09
3	74370	14.61	-7.99361e-09
3	74922	14.71	-7.64544e-09
3	75474	14.81	-7.22338e-09
3	76026	14.91	-6.74589e-09
3	76586	15.01	-6.23359e-09
3	77138	15.11	-5.70139e-09
3	77690	15.21	-5.16138e-09
3	78242	15.31	-4.62634e-09
3	78794	15.41	-4.10481e-09
3	79346	15.51	-3.60387e-09
3	79898	15.61	-3.12781e-09
3	80450	15.71	-2.68088e-09
3	81002	15.81	-2.26663e-09
3	81554	15.91	-1.88649e-09
3	82114	16.01	-1.54046e-09
3	82666	16.11	-1.22782e-09
3	83218	16.21	-9.50706e-10
3	83770	16.31	-7.06279e-10
3	84322	16.41	-4.92406e-10
3	84874	16.51	-3.09086e-10
3	85426	16.61	-1.52767e-10
3	85978	16.71	-2.13163e-11
3	86530	16.81	8.66862e-11
3	87082	16.91	1.73372e-10
3	87642	17.01	2.41585e-10
3	88194	17.11	2.92744e-10
3	88746	17.21	3.29692e-10
3	89298	17.31	3.54561e-10
3	89850	17.41	3.68061e-10
3	90402	17.51	3.72324e-10
3	90954	17.61	3.69482e-10
3	91506	17.71	3.60956e-10
3	92058	17.81	3.46745e-10
3	92610	17.91	3.28981e-10
3	93170	18.01	3.07665e-10
3	93722	18.11	2.86349e-10
3	94274	18.21	2.65032e-10
3	94826	18.31	2.43716e-10
3	95378	18.41	2.20979e-10
3	95930	18.51	1.99663e-10
3	96482	18.61	1.78346e-10
3	97034	18.71	1.5703e-10
3	97586	18.81	1.35714e-10
3	98138	18.91	1.14397e-10
3	98698	19.01	9.30811e-11
3	99250	19.11	7.74492e-11
3	99802	19.21	6.32383e-11
3	100354	19.31	4.90274e-11
3	100906	19.41	3.48166e-11
3	101458	19.51	2.41585e-11
3	102010	19.61	1.7053e-11
3	102562	19.71	9.9476e-12
3	103114	19.81	2.84217e-12
3	103666	19.91	-4.26326e-12
3	104226	20.01	-1.13687e-11
3	104778	20.11	-1.20792e-11
3	105330	20.21	-1.20792e-11
3	105882	20.31	-1.20792e-11
3	106434	20.41	-1.20792e-11
3	106986	20.51	-1.20792e-11
3	107538	20.61	-1.20792e-11
3	108090	20.71	-1.20792e-11
3	108642	20.81	-1.20792e-11
3	109194	20.91	-1.20792e-11
3	109754	21.01	-1.20792e-11
3	110306	21.11	-1.20792e-11
3	110858	21.21	-1.20792e-11
3	111410	21.31	-1.20792e-11
3	111962	21.41	-1.20792e-11
3	112514	21.51	-1.20792e-11
3	113066	21.61	-1.20792e-11
3	113618	21.71	-1.20792e-11
3	114170	21.81	-1.20792e-11
3	114722	21.91	-1.20792e-11
3	115282	22.01	-1.20792e-11
3	115834	22.11	-1.20792e-11
3	116386	22.21	-1.20792e-11
3	116938	22.31	-1.20792e-11
3	117490	22.41	-1.20792e-11
3	118042	22.51	-1.20792e-11
3	118594	22.61	-1.20792e-11
3	119146	22.71	-1.20792e-11
3	119698	22.81	-1.20792e-11
3	120250	22.91	-1.20792e-11
3	120810	23.01	-1.13687e-11
3	121362	23.11	-1.06581e-11
3	121914	23.21	-9.23706e-12
3	122466	23.31	-8.52651e-12
3	123018	23.41	-7.81597e-12
3	123570	23.51	-7.10543e-12
3	124122	23.61	-6.39488e-12
3	124674	23.71	-5.68434e-12
3	125226	23.81	-4.9738e-12
3	125778	23.91	-4.9738e-12
3	126338	24.01	-4.26326e-12
3	126890	24.11	-3.55271e-12
3	127442	24.21	-3.55271e-12
3	127994	24.31	-2.84217e-12
3	128546	24.41	-2.84217e-12
3	129098	24.51	-2.84217e-12
3	129650	24.61	-2.13163e-12
3	130202	24.71	-2.13163e-12
3	130754	24.81	-2.13163e-12
3	131306	24.91	-1.42109e-12
3	131866	25.01	-1.42109e-12
3	132418	25.11	-1.42109e-12
3	132970	25.21	-1.42109e-12
3	133522	25.31	-1.42109e-12
3	134074	25.41	-7.10543e-13
3	134626	25.51	-7.10543e-13
3	135178	25.61	-7.10543e-13
3	135730	25.71	-7.10543e-13
3	136282	25.81	-7.10543e-13
3	136834	25.91	-7.10543e-13
3	137394	26.01	-7.10543e-13
3	137946	26.11	-7.10543e-13
3	138498	26.21	-7.10543e-13
3	139050	26.31	-7.10543e-13
3	139602	26.41	0
3	140154	26.51	0
3	140706	26.61	0
3	141258	26.71	0
3	141810	26.81	0
3	142362	26.91	0
3	142922	27.01	0
3	143471	27.11	0
3	144023	27.21	0
3	144575	27.31	0
3	145127	27.41	0
3	145679	27.51	0
3	146231	27.61	0
3	146783	27.71	0
3	147335	27.81	0
3	147884	27.91	0
3	148441	28.01	0
3	148993	28.11	0
3	149545	28.21	0
3	150097	28.31	0
3	150649	28.41	0
3	151198	28.51	0
3	151747	28.61	0
3	152299	28.71	0
3	152848	28.81	0
3	153400	28.91	0
3	153960	29.01	0
3	154503	29.11	0
3	155052	29.21	0
3	155601	29.31	0
3	156150	29.41	0
3	156699	29.51	0
3	157248	29.61	0
3	157797	29.71	0
3	158343	29.81	0
3	158886	29.91	0
3	159440	30.01	0
3	159983	30.11	0
3	160529	30.21	0
3	161069	30.31	0
3	161618	30.41	0
3	162164	30.51	0
3	162704	30.61	0
3	163238	30.71	0
3	163778	30.81	0
3	164315	30.91	0
3	164857	31.01	0
3	165391	31.11	0
3	165931	31.21	0
3	166468	31.31	0
3	166999	31.41	0
3	167527	31.51	0
3	168058	31.61	0
3	168589	31.71	0
3	169117	31.81	0
3	169645	31.91	0
3	170175	32.01	0
3	170700	32.11	0
3	171216	32.21	0
3	171735	32.31	0
3	172254	32.41	0
3	172764	32.51	0
3	173283	32.61	0
3	173793	32.71	0
3	174303	32.81	0
3	174816	32.91	0
3	175334	33.01	0
3	175844	33.11	0
3	176357	33.21	0
3	176867	33.31	0
3	177377	33.41	0
3	177887	33.51	0
3	178397	33.61	0
3	178907	33.71	0
3	179417	33.81	0
3	179927	33.91	0
3	180445	34.01	0
3	180955	34.11	0
3	181465	34.21	0
3	181975	34.31	0
3	182485	34.41	0
3	182995	34.51	0
3	183505	34.61	0
3	184015	34.71	0
3	184525	34.81	0
3	185035	34.91	0
3	185553	35.01	0
3	186063	35.11	0
3	186573	35.21	0
3	187083	35.31	0
3	187593	35.41	0
3	188103	35.51	0
3	188613	35.61	0
3	189123	35.71	0
3	189633	35.81	0
3	190143	35.91	0
3	190661	36.01	0
3	191171	36.11	0
3	191681	36.21	0
3	192191	36.31	0
3	192701	36.41	0
3	193211	36.51	0
3	193721	36.61	0
3	194231	36.71	0
3	194741	36.81	0
3	195251	36.91	0
3	195769	37.01	0
3	196279	37.11	0
3	196789	37.21	0
3	197299	37.31	0
3	197809	37.41	0
3	198319	37.51	0
3	198829	37.61	0
3	199339	37.71	0
3	199849	37.81	0
3	200359	37.91	0
3	200877	38.01	0
3	201387	38.11	0
3	201897	38.21	0
3	202407	38.31	0
3	202917	38.41	0
3	203427	38.51	0
3	203937	38.61	0
3	204447	38.71	0
3	204957	38.81	0
3	205467	38.91	0
3	205985	39.01	0
3	206495	39.11	0
3	207005	39.21	0
3	207515	39.31	0
3	208025	39.41	0
3	208535	39.51	0
3	209045	39.61	0
3	209555	39.71	0
3	210065	39.81	0
3	210575	39.91	0
3	211093	40.01	0
3	211603	40.11	0
3	212113	40.21	0
3	212623	40.31	0
3	213133	40.41	0
3	213643	40.51	0
3	214153	40.61	0
3	214663	40.71	0
3	215173	40.81	0
3	215683	40.91	0
3	216201	41.01	0
3	216711	41.11	0
3	217221	41.21	0
3	217731	41.31	0
3	218241	41.41	0
3	218751	41.51	0
3	219261	41.61	0
3	219771	41.71	0
3	220281	41.81	0
3	220791	41.91	0
3	221309	42.01	0
3	221819	42.11	0
3	222329	42.21	0
3	222839	42.31	0
3	223349	42.41	0
3	223859	42.51	0
3	224369	42.61	0
3	224879	42.71	0
3	225389	42.81	0
3	225899	42.91	0
3	226417	43.01	0
3	226927	43.11	0
3	227437	43.21	0
3	227947	43.31	0
3	228457	43.41	0
3	228967	43.51	0
3	229477	43.61	0
3	229987	43.71	0
3	230497	43.81	0
3	231007	43.91	0
3	231525	44.01	0
3	232035	44.11	0
3	232545	44.21	0
3	233055	44.31	0
3	233565	44.41	0
3	234075	44.51	0
3	234585	44.61	0
3	235095	44.71	0
3	235605	44.81	0
3	236115	44.91	0
3	236633	45.01	0
3	237143	45.11	0
3	237653	45.21	0
3	238163	45.31	0
3	238673	45.41	0
3	239183	45.51	0
3	239693	45.61	0
3	240203	45.71	0
3	240713	45.81	0
3	241223	45.91	0
3	241741	46.01	0
3	242251	46.11	0
3	242761	46.21	0
3	243271	46.31	0
3	243781	46.41	0
3	244291	46.51	0
3	244801	46.61	0
3	245311	46.71	0
3	245821	46.81	0
3	246331	46.91	0
3	246849	47.01	0
3	247359	47.11	0
3	247869	47.21	0
3	248379	47.31	0
3	248889	47.41	0
3	249399	47.51	0
3	249909	47.61	0
3	250419	47.71	0
3	250929	47.81	0
3	251439	47.91	0
3	251957	48.01	0
3	252467	48.11	0
3	252977	48.21	0
3	253487	48.31	0
3	253997	48.41	0
3	254507	48.51	0
3	255017	48.61	0
3	255527	48.71	0
3	256037	48.81	0
3	256547	48.91	0
3	257065	49.01	0
3	257575	49.11	0
3	258085	49.21	0
3	258595	49.31	0
3	259105	49.41	0
3	259615	49.51	0
3	260125	49.61	0
3	260635	49.71	0
3	261145	49.81	0
3	261655	49.91	0
3	262173	50.01	0
3	262683	50.11	0
3	263193	50.21	0
3	263703	50.31	0
3	264213	50.41	0
3	264723	50.51	0
3	265233	50.61	0
3	265743	50.71	0
3	266253	50.81	0
3	266763	50.91	0
3	267281	51.01	0
3	267791	51.11	0
3	268301	51.21	0
3	268811	51.31	0
3	269321	51.41	0
3	269831	51.51	0
3	270341	51.61	0
3	270851	51.71	0
3	271361	51.81	0
3	271871	51.91	0
3	272389	52.01	0
3	272896	52.11	0
3	273394	52.21	0
3	273886	52.31	0
3	274372	52.41	0
3	274852	52.51	0
3	275326	52.61	0
3	275794	52.71	0
3	276262	52.81	0
3	276730	52.91	0
3	277206	53.01	0
3	277674	53.11	0
3	278142	53.21	0
3	278610	53.31	0
3	279078	53.41	0
3	279546	53.51	0
3	280014	53.61	0
3	280482	53.71	0
3	280950	53.81	0
3	281418	53.91	0
3	281894	54.01	0
3	282362	54.11	0
3	282830	54.21	0
3	283298	54.31	0
3	283766	54.41	0
3	284234	54.51	0
3	284702	54.61	0
3	285170	54.71	0
3	285638	54.81	0
3	286106	54.91	0
3	286582	55.01	0
3	287050	55.11	0
3	287518	55.21	0
3	287986	55.31	0
3	288454	55.41	0
3	288922	55.51	0
3	289390	55.61	0
3	289858	55.71	0
3	290326	55.81	0
3	290794	55.91	0
3	291270	56.01	0
3	291738	56.11	0
3	292206	56.21	0
3	292674	56.31	0
3	293142	56.41	0
3	293610	56.51	0
3	294078	56.61	0
3	294546	56.71	0
3	295014	56.81	0
3	295482	56.91	0
3	295958	57.01	0
3	296426	57.11	0
3	296894	57.21	0
3	297362	57.31	0
3	297830	57.41	0
3	298298	57.51	0
3	298766	57.61	0
3	299234	57.71	0
3	299702	57.81	0
3	300170	57.91	0
3	300646	58.01	0
3	301114	58.11	0
3	301582	58.21	0
3	302050	58.31	0
3	302518	58.41	0
3	302986	58.51	0
3	303454	58.61	0
3	303922	58.71	0
3	304390	58.81	0
3	304858	58.91	0
3	305334	59.01	0
3	305802	59.11	0
3	306270	59.21	0
3	306738	59.31	0
3	307206	59.41	0
3	307674	59.51	0
3	308142	59.61	0
3	308610	59.71	0
3	309078	59.81	0
3	309546	59.91	0
3	310022	60.01	0
3	310490	60.11	0
3	310958	60.21	0
3	311426	60.31	0
3	311894	60.41	0
3	312362	60.51	0
3	312830	60.61	0
3	313298	60.71	0
3	313766	60.81	0
3	314234	60.91	0
3	314710	61.01	0
3	315178	61.11	0
3	315646	61.21	0
3	316114	61.31	0
3	316582	61.41	0
3	317050	61.51	0
3	317518	61.61	0
3	317986	61.71	0
3	318454	61.81	0
3	318922	61.91	0
3	319398	62.01	0
3	319866	62.11	0
3	320334	62.21	0
3	320802	62.31	0
3	321270	62.41	0
3	321738	62.51	0
3	322206	62.61	0
3	322674	62.71	0
3	323142	62.81	0
3	323610	62.91	0
3	324086	63.01	0
3	324554	63.11	0
3	325022	63.21	0
3	325490	63.31	0
3	325958	63.41	0
3	326426	63.51	0
3	326894	63.61	0
3	327362	63.71	0
3	327830	63.81	0
3	328298	63.91	0
3	328774	64.01	0
3	329242	64.11	0
3	329710	64.21	0
3	330178	64.31	0
3	330646	64.41	0
3	331114	64.51	0
3	331582	64.61	0
3	332050	64.71	0
3	332518	64.81	0
3	332986	64.91	0
3	333462	65.01	0
3	333930	65.11	0
3	334398	65.21	0
3	334866	65.31	0
3	335334	65.41	0
3	335802	65.51	0
3	336270	65.61	0
3	336738	65.71	0
3	337202	65.81	0
3	337662	65.91	0
3	338126	66.01	0
3	338576	66.11	0
3	339022	66.21	0
3	339464	66.31	0
3	339904	66.41	0
3	340344	66.51	0
3	340784	66.61	0
3	341224	66.71	0
3	341664	66.81	0
3	342104	66.91	0
3	342552	67.01	0
3	342992	67.11	0
3	343432	67.21	0
3	343872	67.31	0
3	344312	67.41	0
3	344752	67.51	0
3	345192	67.61	0
3	345632	67.71	0
3	346072	67.81	0
3	346512	67.91	0
3	346960	68.01	0
3	347400	68.11	0
3	347840	68.21	0
3	348280	68.31	0
3	348720	68.41	0
3	349160	68.51	0
3	349600	68.61	0
3	350040	68.71	0
3	350480	68.81	0
3	350920	68.91	0
3	351368	69.01	0
3	351808	69.11	0
3	352248	69.21	0
3	352688	69.31	0
3	353128	69.41	0
3	353568	69.51	0
3	354008	69.61	0
3	354448	69.71	0
3	354888	69.81	0
3	355328	69.91	0
3	355776	70.01	0
3	356216	70.11	0
3	356656	70.21	0
3	357096	70.31	0
3	357536	70.41	0
3	357976	70.51	0
3	358416	70.61	0
3	358856	70.71	0
3	359296	70.81	0
3	359736	70.91	0
3	360184	71.01	0
3	360624	71.11	0
3	361064	71.21	0
3	361504	71.31	0
3	361944	71.41	0
3	362384	71.51	0
3	362824	71.61	0
3	363264	71.71	0
3	363704	71.81	0
3	364144	71.91	0
3	364592	72.01	0
3	365032	72.11	0
3	365472	72.21	0
3	365912	72.31	0
3	366352	72.41	0
3	366792	72.51	0
3	367232	72.61	0
3	367672	72.71	0
3	368112	72.81	0
3	368552	72.91	0
3	369000	73.01	0
3	369440	73.11	0
3	369880	73.21	0
3	370320	73.31	0
3	370760	73.41	0
3	371200	73.51	0
3	371640	73.61	0
3	372080	73.71	0
3	372520	73.81	0
3	372960	73.91	0
3	373408	74.01	0
3	373848	74.11	0
3	374288	74.21	0
3	374728	74.31	0
3	375168	74.41	0
3	375608	74.51	0
3	376048	74.61	0
3	376488	74.71	0
3	376928	74.81	0
3	377368	74.91	0
3	377816	75.01	0
3	378256	75.11	0
3	378696	75.21	0
3	379136	75.31	0
3	379576	75.41	0
3	380016	75.51	0
3	380456	75.61	0
3	380896	75.71	0
3	381336	75.81	0
3	381776	75.91	0
3	382224	76.01	0
3	382664	76.11	0
3	383104	76.21	0
3	383544	76.31	0
3	383984	76.41	0
3	384424	76.51	0
3	384864	76.61	0
3	385304	76.71	0
3	385744	76.81	0
3	386184	76.91	0
3	386632	77.01	0
3	387072	77.11	0
3	387512	77.21	0
3	387952	77.31	0
3	388392	77.41	0
3	388832	77.51	0
3	389272	77.61	0
3	389712	77.71	0
3	390152	77.81	0
3	390592	77.91	0
3	391040	78.01	0
3	391480	78.11	0
3	391920	78.21	0
3	392360	78.31	0
3	392800	78.41	0
3	393240	78.51	0
3	393680	78.61	0
3	394120	78.71	0
3	394560	78.81	0
3	395000	78.91	0
3	395448	79.01	0
3	395888	79.11	0
3	396328	79.21	0
3	396768	79.31	0
3	397208	79.41	0
3	397648	79.51	0
3	398088	79.61	0
3	398528	79.71	0
3	398968	79.81	0
3	399408	79.91	0
3	399856	80.01	0
3	400296	80.11	0
3	400736	80.21	0
3	401176	80.31	0
3	401616	80.41	0
3	402056	80.51	0
3	402496	80.61	0
3	402936	80.71	0
3	403376	80.81	0
3	403816	80.91	0
3	404264	81.01	0
3	404704	81.11	0
3	405144	81.21	0
3	405584	81.31	0
3	406024	81.41	0
3	406464	81.51	0
3	406904	81.61	0
3	407344	81.71	0
3	407784	81.81	0
3	408224	81.91	0
3	408672	82.01	0
3	409112	82.11	0
3	409552	82.21	0
3	409992	82.31	0
3	410432	82.41	0
3	410872	82.51	0
3	411312	82.61	0
3	411752	82.71	0
3	412192	82.81	0
3	412632	82.91	0
3	413080	83.01	0
3	413520	83.11	0
3	413960	83.21	0
3	414400	83.31	0
3	414840	83.41	0
3	415280	83.51	0
3	415720	83.61	0
3	416160	83.71	0
3	416600	83.81	0
3	417040	83.91	0
3	417488	84.01	0
3	417928	84.11	0
3	418368	84.21	0
3	418808	84.31	0
3	419248	84.41	0
3	419688	84.51	0
3	420128	84.61	0
3	420568	84.71	0
3	421008	84.81	0
3	421448	84.91	0
3	421896	85.01	0
3	422336	85.11	0
3	422776	85.21	0
3	423216	85.31	0
3	423656	85.41	0
3	424096	85.51	0
3	424536	85.61	0
3	424976	85.71	0
3	425416	85.81	0
3	425856	85.91	0
3	426304	86.01	0
3	426744	86.11	0
3	427184	86.21	0
3	427624	86.31	0
3	428064	86.41	0
3	428504	86.51	0
3	428944	86.61	0
3	429384	86.71	0
3	429824	86.81	0
3	430264	86.91	0
3	430712	87.01	0
3	431152	87.11	0
3	431592	87.21	0
3	432032	87.31	0
3	432472	87.41	0
3	432912	87.51	0
3	433352	87.61	0
3	433792	87.71	0
3	434232	87.81	0
3	434672	87.91	0
3	435120	88.01	0
3	435560	88.11	0
3	436000	88.21	0
3	436440	88.31	0
3	436880	88.41	0
3	437320	88.51	0
3	437760	88.61	0
3	438200	88.71	0
3	438640	88.81	0
3	439080	88.91	0
3	439528	89.01	0
3	439968	89.11	0
3	440408	89.21	0
3	440848	89.31	0
3	441288	89.41	0
3	441728	89.51	0
3	442168	89.61	0
3	442608	89.71	0
3	443048	89.81	0
3	443488	89.91	0
3	443936	90.01	0
3	444376	90.11	0
3	444816	90.21	0
3	445256	90.31	0
3	445696	90.41	0
3	446136	90.51	0
3	446576	90.61	0
3	447016	90.71	0
3	447456	90.81	0
3	447896	90.91	0
3	448344	91.01	0
3	448784	91.11	0
3	449224	91.21	0
3	449664	91.31	0
3	450104	91.41	0
3	450544	91.51	0
3	450984	91.61	0
3	451424	91.71	0
3	451864	91.81	0
3	452304	91.91	0
3	452752	92.01	0
3	453192	92.11	0
3	453632	92.21	0
3	454072	92.31	0
3	454512	92.41	0
3	454952	92.51	0
3	455392	92.61	0
3	455832	92.71	0
3	456272	92.81	0
3	456712	92.91	0
3	457160	93.01	0
3	457600	93.11	0
3	458040	93.21	0
3	458480	93.31	0
3	458920	93.41	0
3	459360	93.51	0
3	459800	93.61	0
3	460240	93.71	0
3	460680	93.81	0
3	461120	93.91	0
3	461568	94.01	0
3	462008	94.11	0
3	462448	94.21	0
3	462888	94.31	0
3	463328	94.41	0
3	463768	94.51	0
[...]
104	364581	72	4
104	368989	73	4
104	373397	74	4
104	377805	75	4
104	382213	76	4
104	386621	77	4
104	391029	78	4
104	395437	79	4
104	399845	80	4
104	404253	81	4
104	408661	82	4
104	413069	83	4
104	417477	84	4
104	421885	85	4
104	426293	86	4
104	430701	87	4
104	435109	88	4
104	439517	89	4
104	443925	90	4
104	448333	91	4
104	452741	92	4
104	457149	93	4
104	461557	94	4
104	465965	95	4
104	470373	96	4
104	474781	97	4
104	479189	98	4
104	483597	99	4
104	488005	100	4
105	5030	2	0.022473
105	10498	3	0.02497
105	15966	4	0.02497
105	21434	5	0.02497
105	26902	6	0.02497
105	32370	7	0.02497
105	37838	8	0.02497
105	43306	9	0.02497
105	48775	10	0.02497
105	54463	11	0.02513
105	59991	12	0.02497
105	65519	13	0.02497
105	71047	14	0.02497
105	76575	15	0.02497
105	82103	16	0.02497
105	87631	17	0.02497
105	93159	18	0.02497
105	98687	19	0.02497
105	104215	20	0.02497
105	109743	21	0.02497
105	115271	22	0.02497
105	120799	23	0.02497
105	126327	24	0.02497
105	131855	25	0.02497
105	137383	26	0.02497
105	142911	27	0.02497
105	148430	28	0.02497
105	153949	29	0.02497
105	159429	30	0.02497
105	164846	31	0.02497
105	170164	32	0.02497
105	175323	33	0.02497
105	180434	34	0.02497
105	185542	35	0.02497
105	190650	36	0.02497
105	195758	37	0.02497
105	200866	38	0.02497
105	205974	39	0.02497
105	211082	40	0.02497
105	216190	41	0.02497
105	221298	42	0.02497
105	226406	43	0.02497
105	231514	44	0.02497
105	236622	45	0.02497
105	241730	46	0.02497
105	246838	47	0.02497
105	251946	48	0.02497
105	257054	49	0.02497
105	262162	50	0.02497
105	267270	51	0.02497
105	272378	52	0.02497
105	277195	53	0.022786
105	281883	54	0.02185
105	286571	55	0.02185
105	291259	56	0.02185
105	295947	57	0.02185
105	300635	58	0.02185
105	305323	59	0.02185
105	310011	60	0.02185
105	314699	61	0.02185
105	319387	62	0.02185
105	324075	63	0.02185
105	328763	64	0.02185
105	333451	65	0.02185
105	338115	66	0.02185
105	342541	67	0.02185
105	346949	68	0.02185
105	351357	69	0.02185
105	355765	70	0.02185
105	360173	71	0.02185
105	364581	72	0.02185
105	368989	73	0.02185
105	373397	74	0.02185
105	377805	75	0.02185
105	382213	76	0.02185
105	386621	77	0.02185
105	391029	78	0.02185
105	395437	79	0.02185
105	399845	80	0.02185
105	404253	81	0.02185
105	408661	82	0.02185
105	413069	83	0.02185
105	417477	84	0.02185
105	421885	85	0.02185
105	426293	86	0.02185
105	430701	87	0.02185
105	435109	88	0.02185
105	439517	89	0.02185
105	443925	90	0.02185
105	448333	91	0.02185
105	452741	92	0.02185
105	457149	93	0.02185
105	461557	94	0.02185
105	465965	95	0.02185
105	470373	96	0.02185
105	474781	97	0.02185
105	479189	98	0.02185
105	483597	99	0.02185
105	488005	100	0.02185
106	5030	2	0
106	10498	3	0
106	15966	4	0
106	21434	5	0
106	26902	6	0
106	32370	7	0
106	37838	8	0
106	43306	9	0
106	48775	10	0
106	54463	11	0
106	59991	12	0
106	65519	13	0
106	71047	14	0
106	76575	15	0
106	82103	16	0
106	87631	17	0
106	93159	18	0
106	98687	19	0
106	104215	20	0
106	109743	21	0
106	115271	22	0
106	120799	23	0
106	126327	24	0
106	131855	25	0
106	137383	26	0
106	142911	27	0
106	148430	28	0
106	153949	29	0
106	159429	30	0
106	164846	31	0
106	170164	32	0
106	175323	33	0
106	180434	34	0
106	185542	35	0
106	190650	36	0
106	195758	37	0
106	200866	38	0
106	205974	39	0
106	211082	40	0
106	216190	41	0
106	221298	42	0
106	226406	43	0
106	231514	44	0
106	236622	45	0
106	241730	46	0
106	246838	47	0
106	251946	48	0
106	257054	49	0
106	262162	50	0
106	267270	51	0
106	272378	52	0
106	277195	53	0
106	281883	54	0
106	286571	55	0
106	291259	56	0
106	295947	57	0
106	300635	58	0
106	305323	59	0
106	310011	60	0
106	314699	61	0
106	319387	62	0
106	324075	63	0
106	328763	64	0
106	333451	65	0
106	338115	66	0
106	342541	67	0
106	346949	68	0
106	351357	69	0
106	355765	70	0
106	360173	71	0
106	364581	72	0
106	368989	73	0
106	373397	74	0
106	377805	75	0
106	382213	76	0
106	386621	77	0
106	391029	78	0
106	395437	79	0
106	399845	80	0
106	404253	81	0
106	408661	82	0
106	413069	83	0
106	417477	84	0
106	421885	85	0
106	426293	86	0
106	430701	87	0
106	435109	88	0
106	439517	89	0
106	443925	90	0
106	448333	91	0
106	452741	92	0
106	457149	93	0
106	461557	94	0
106	465965	95	0
106	470373	96	0
106	474781	97	0
106	479189	98	0
106	483597	99	0
106	488005	100	0
107	5031	2	5
107	10499	3	5
107	15967	4	5
107	21435	5	5
107	26903	6	5
107	32371	7	5
107	37839	8	5
107	43307	9	5
107	48776	10	5
107	54464	11	5
107	59992	12	5
107	65520	13	5
107	71048	14	5
107	76576	15	5
107	82104	16	5
107	87632	17	5
107	93160	18	5
107	98688	19	5
107	104216	20	5
107	109744	21	5
107	115272	22	5
107	120800	23	5
107	126328	24	5
107	131856	25	5
107	137384	26	5
107	142912	27	5
107	148431	28	5
107	153950	29	5
107	159430	30	5
107	164847	31	5
107	170165	32	5
107	175324	33	5
107	180435	34	5
107	185543	35	5
107	190651	36	5
107	195759	37	5
107	200867	38	5
107	205975	39	5
107	211083	40	5
107	216191	41	5
107	221299	42	5
107	226407	43	5
107	231515	44	5
107	236623	45	5
107	241731	46	5
107	246839	47	5
107	251947	48	5
107	257055	49	5
107	262163	50	5
107	267271	51	5
107	272379	52	5
107	277196	53	5
107	281884	54	5
107	286572	55	5
107	291260	56	5
107	295948	57	5
107	300636	58	5
107	305324	59	5
107	310012	60	5
107	314700	61	5
107	319388	62	5
107	324076	63	5
107	328764	64	5
107	333452	65	5
107	338116	66	5
107	342542	67	5
107	346950	68	5
107	351358	69	5
107	355766	70	5
107	360174	71	5
107	364582	72	5
107	368990	73	5
107	373398	74	5
107	377806	75	5
107	382214	76	5
107	386622	77	5
107	391030	78	5
107	395438	79	5
107	399846	80	5
107	404254	81	5
107	408662	82	5
107	413070	83	5
107	417478	84	5
107	421886	85	5
107	426294	86	5
107	430702	87	5
107	435110	88	5
107	439518	89	5
107	443926	90	5
107	448334	91	5
107	452742	92	5
107	457150	93	5
107	461558	94	5
107	465966	95	5
107	470374	96	5
107	474782	97	5
107	479190	98	5
107	483598	99	5
107	488006	100	5
108	5031	2	0.022473
108	10499	3	0.02497
108	15967	4	0.02497
108	21435	5	0.02497
108	26903	6	0.02497
108	32371	7	0.02497
108	37839	8	0.02497
108	43307	9	0.02497
108	48776	10	0.02497
108	54464	11	0.02513
108	59992	12	0.02497
108	65520	13	0.02497
108	71048	14	0.02497
108	76576	15	0.02497
108	82104	16	0.02497
108	87632	17	0.02497
108	93160	18	0.02497
108	98688	19	0.02497
108	104216	20	0.02497
108	109744	21	0.02497
108	115272	22	0.02497
108	120800	23	0.02497
108	126328	24	0.02497
108	131856	25	0.02497
108	137384	26	0.02497
108	142912	27	0.02497
108	148431	28	0.02497
108	153950	29	0.02497
108	159430	30	0.02497
108	164847	31	0.02497
108	170165	32	0.02497
108	175324	33	0.02497
108	180435	34	0.02497
108	185543	35	0.02497
108	190651	36	0.02497
108	195759	37	0.02497
108	200867	38	0.02497
108	205975	39	0.02497
108	211083	40	0.02497
108	216191	41	0.02497
108	221299	42	0.02497
108	226407	43	0.02497
108	231515	44	0.02497
108	236623	45	0.02497
108	241731	46	0.02497
108	246839	47	0.02497
108	251947	48	0.02497
108	257055	49	0.02497
108	262163	50	0.02497
108	267271	51	0.02497
108	272379	52	0.02497
108	277196	53	0.022474
108	281884	54	0.02185
108	286572	55	0.02185
108	291260	56	0.02185
108	295948	57	0.02185
108	300636	58	0.02185
108	305324	59	0.02185
108	310012	60	0.02185
108	314700	61	0.02185
108	319388	62	0.02185
108	324076	63	0.02185
108	328764	64	0.02185
108	333452	65	0.02185
108	338116	66	0.02185
108	342542	67	0.02185
108	346950	68	0.02185
108	351358	69	0.02185
108	355766	70	0.02185
108	360174	71	0.02185
108	364582	72	0.02185
108	368990	73	0.02185
108	373398	74	0.02185
108	377806	75	0.02185
108	382214	76	0.02185
108	386622	77	0.02185
108	391030	78	0.02185
108	395438	79	0.02185
108	399846	80	0.02185
108	404254	81	0.02185
108	408662	82	0.02185
108	413070	83	0.02185
108	417478	84	0.02185
108	421886	85	0.02185
108	426294	86	0.02185
108	430702	87	0.02185
108	435110	88	0.02185
108	439518	89	0.02185
108	443926	90	0.02185
108	448334	91	0.02185
108	452742	92	0.02185
108	457150	93	0.02185
108	461558	94	0.02185
108	465966	95	0.02185
108	470374	96	0.02185
108	474782	97	0.02185
108	479190	98	0.02185
108	483598	99	0.02185
108	488006	100	0.02185
109	5031	2	0
109	10499	3	0
109	15967	4	0
109	21435	5	0
109	26903	6	0
109	32371	7	0
109	37839	8	0
109	43307	9	0
109	48776	10	0
109	54464	11	0
109	59992	12	0
109	65520	13	0
109	71048	14	0
109	76576	15	0
109	82104	16	0
109	87632	17	0
109	93160	18	0
109	98688	19	0
109	104216	20	0
109	109744	21	0
109	115272	22	0
109	120800	23	0
109	126328	24	0
109	131856	25	0
109	137384	26	0
109	142912	27	0
109	148431	28	0
109	153950	29	0
109	159430	30	0
109	164847	31	0
109	170165	32	0
109	175324	33	0
109	180435	34	0
109	185543	35	0
109	190651	36	0
109	195759	37	0
109	200867	38	0
109	205975	39	0
109	211083	40	0
109	216191	41	0
109	221299	42	0
109	226407	43	0
109	231515	44	0
109	236623	45	0
109	241731	46	0
109	246839	47	0
109	251947	48	0
109	257055	49	0
109	262163	50	0
109	267271	51	0
109	272379	52	0
109	277196	53	0
109	281884	54	0
109	286572	55	0
109	291260	56	0
109	295948	57	0
109	300636	58	0
109	305324	59	0
109	310012	60	0
109	314700	61	0
109	319388	62	0
109	324076	63	0
109	328764	64	0
109	333452	65	0
109	338116	66	0
109	342542	67	0
109	346950	68	0
109	351358	69	0
109	355766	70	0
109	360174	71	0
109	364582	72	0
109	368990	73	0
109	373398	74	0
109	377806	75	0
109	382214	76	0
109	386622	77	0
109	391030	78	0
109	395438	79	0
109	399846	80	0
109	404254	81	0
109	408662	82	0
109	413070	83	0
109	417478	84	0
109	421886	85	0
109	426294	86	0
109	430702	87	0
109	435110	88	0
109	439518	89	0
109	443926	90	0
109	448334	91	0
109	452742	92	0
109	457150	93	0
109	461558	94	0
109	465966	95	0
109	470374	96	0
109	474782	97	0
109	479190	98	0
109	483598	99	0
109	488006	100	0
110	5032	2	6
110	10500	3	6
110	15968	4	6
110	21436	5	6
110	26904	6	6
110	32372	7	6
110	37840	8	6
110	43308	9	6
110	48777	10	6
110	54465	11	6
110	59993	12	6
110	65521	13	6
110	71049	14	6
110	76577	15	6
110	82105	16	6
110	87633	17	6
110	93161	18	6
110	98689	19	6
110	104217	20	6
110	109745	21	6
110	115273	22	6
110	120801	23	6
110	126329	24	6
110	131857	25	6
110	137385	26	6
110	142913	27	6
110	148432	28	6
110	153951	29	6
110	159431	30	6
110	164848	31	6
110	170166	32	6
110	175325	33	6
110	180436	34	6
110	185544	35	6
110	190652	36	6
110	195760	37	6
110	200868	38	6
110	205976	39	6
110	211084	40	6
110	216192	41	6
110	221300	42	6
110	226408	43	6
110	231516	44	6
110	236624	45	6
110	241732	46	6
110	246840	47	6
110	251948	48	6
110	257056	49	6
110	262164	50	6
110	267272	51	6
110	272380	52	6
110	277197	53	6
110	281885	54	6
110	286573	55	6
110	291261	56	6
110	295949	57	6
110	300637	58	6
110	305325	59	6
110	310013	60	6
110	314701	61	6
110	319389	62	6
110	324077	63	6
110	328765	64	6
110	333453	65	6
110	338117	66	6
110	342543	67	6
110	346951	68	6
110	351359	69	6
110	355767	70	6
110	360175	71	6
110	364583	72	6
110	368991	73	6
110	373399	74	6
110	377807	75	6
110	382215	76	6
110	386623	77	6
110	391031	78	6
110	395439	79	6
110	399847	80	6
110	404255	81	6
110	408663	82	6
110	413071	83	6
110	417479	84	6
110	421887	85	6
110	426295	86	6
110	430703	87	6
110	435111	88	6
110	439519	89	6
110	443927	90	6
110	448335	91	6
110	452743	92	6
110	457151	93	6
110	461559	94	6
110	465967	95	6
110	470375	96	6
110	474783	97	6
110	479191	98	6
110	483599	99	6
110	488007	100	6
111	5032	2	0.022473
111	10500	3	0.02497
111	15968	4	0.02497
111	21436	5	0.02497
111	26904	6	0.02497
111	32372	7	0.02497
111	37840	8	0.02497
111	43308	9	0.02497
111	48777	10	0.02497
111	54465	11	0.02513
111	59993	12	0.02497
111	65521	13	0.02497
111	71049	14	0.02497
111	76577	15	0.02497
111	82105	16	0.02497
111	87633	17	0.02497
111	93161	18	0.02497
111	98689	19	0.02497
111	104217	20	0.02497
111	109745	21	0.02497
111	115273	22	0.02497
111	120801	23	0.02497
111	126329	24	0.02497
111	131857	25	0.02497
111	137385	26	0.02497
111	142913	27	0.02497
111	148432	28	0.02497
111	153951	29	0.02497
111	159431	30	0.02497
111	164848	31	0.02497
111	170166	32	0.02497
111	175325	33	0.02497
111	180436	34	0.02497
111	185544	35	0.02497
111	190652	36	0.02497
111	195760	37	0.02497
111	200868	38	0.02497
111	205976	39	0.02497
111	211084	40	0.02497
111	216192	41	0.02497
111	221300	42	0.02497
111	226408	43	0.02497
111	231516	44	0.02497
111	236624	45	0.02497
111	241732	46	0.02497
111	246840	47	0.02497
111	251948	48	0.02497
111	257056	49	0.02497
111	262164	50	0.02497
111	267272	51	0.02497
111	272380	52	0.02497
111	277197	53	0.022162
111	281885	54	0.02185
111	286573	55	0.02185
111	291261	56	0.02185
111	295949	57	0.02185
111	300637	58	0.02185
111	305325	59	0.02185
111	310013	60	0.02185
111	314701	61	0.02185
111	319389	62	0.02185
111	324077	63	0.02185
111	328765	64	0.02185
111	333453	65	0.02185
111	338117	66	0.02185
111	342543	67	0.02185
111	346951	68	0.02185
111	351359	69	0.02185
111	355767	70	0.02185
111	360175	71	0.02185
111	364583	72	0.02185
111	368991	73	0.02185
111	373399	74	0.02185
111	377807	75	0.02185
111	382215	76	0.02185
111	386623	77	0.02185
111	391031	78	0.02185
111	395439	79	0.02185
111	399847	80	0.02185
111	404255	81	0.02185
111	408663	82	0.02185
111	413071	83	0.02185
111	417479	84	0.02185
111	421887	85	0.02185
111	426295	86	0.02185
111	430703	87	0.02185
111	435111	88	0.02185
111	439519	89	0.02185
111	443927	90	0.02185
111	448335	91	0.02185
111	452743	92	0.02185
111	457151	93	0.02185
111	461559	94	0.02185
111	465967	95	0.02185
111	470375	96	0.02185
111	474783	97	0.02185
111	479191	98	0.02185
111	483599	99	0.02185
111	488007	100	0.02185
112	5032	2	0
112	10500	3	0
112	15968	4	0
112	21436	5	0
112	26904	6	0
112	32372	7	0
112	37840	8	0
112	43308	9	0
112	48777	10	0
112	54465	11	0
112	59993	12	0
112	65521	13	0
112	71049	14	0
112	76577	15	0
112	82105	16	0
112	87633	17	0
112	93161	18	0
112	98689	19	0
112	104217	20	0
112	109745	21	0
112	115273	22	0
112	120801	23	0
112	126329	24	0
112	131857	25	0
112	137385	26	0
112	142913	27	0
112	148432	28	0
112	153951	29	0
112	159431	30	0
112	164848	31	0
112	170166	32	0
112	175325	33	0
112	180436	34	0
112	185544	35	0
112	190652	36	0
112	195760	37	0
112	200868	38	0
112	205976	39	0
112	211084	40	0
112	216192	41	0
112	221300	42	0
112	226408	43	0
112	231516	44	0
112	236624	45	0
112	241732	46	0
112	246840	47	0
112	251948	48	0
112	257056	49	0
112	262164	50	0
112	267272	51	0
112	272380	52	0
112	277197	53	0
112	281885	54	0
112	286573	55	0
112	291261	56	0
112	295949	57	0
112	300637	58	0
112	305325	59	0
112	310013	60	0
112	314701	61	0
112	319389	62	0
112	324077	63	0
112	328765	64	0
112	333453	65	0
112	338117	66	0
112	342543	67	0
112	346951	68	0
112	351359	69	0
112	355767	70	0
112	360175	71	0
112	364583	72	0
112	368991	73	0
112	373399	74	0
112	377807	75	0
112	382215	76	0
112	386623	77	0
112	391031	78	0
112	395439	79	0
112	399847	80	0
112	404255	81	0
112	408663	82	0
112	413071	83	0
112	417479	84	0
112	421887	85	0
112	426295	86	0
112	430703	87	0
112	435111	88	0
112	439519	89	0
112	443927	90	0
112	448335	91	0
112	452743	92	0
112	457151	93	0
112	461559	94	0
112	465967	95	0
112	470375	96	0
112	474783	97	0
112	479191	98	0
112	483599	99	0
112	488007	100	0
113	5033	2	7
113	10501	3	7
113	15969	4	7
113	21437	5	7
113	26905	6	7
113	32373	7	7
113	37841	8	7
113	43309	9	7
113	48778	10	7
113	54466	11	7
113	59994	12	7
113	65522	13	7
113	71050	14	7
113	76578	15	7
113	82106	16	7
113	87634	17	7
113	93162	18	7
113	98690	19	7
113	104218	20	7
113	109746	21	7
113	115274	22	7
113	120802	23	7
113	126330	24	7
113	131858	25	7
113	137386	26	7
113	142914	27	7
113	148433	28	7
113	153952	29	7
113	159432	30	7
113	164849	31	7
113	170167	32	7
113	175326	33	7
113	180437	34	7
113	185545	35	7
113	190653	36	7
113	195761	37	7
113	200869	38	7
113	205977	39	7
113	211085	40	7
113	216193	41	7
113	221301	42	7
113	226409	43	7
113	231517	44	7
113	236625	45	7
113	241733	46	7
113	246841	47	7
113	251949	48	7
113	257057	49	7
113	262165	50	7
113	267273	51	7
113	272381	52	7
113	277198	53	7
113	281886	54	7
113	286574	55	7
113	291262	56	7
113	295950	57	7
113	300638	58	7
113	305326	59	7
113	310014	60	7
113	314702	61	7
113	319390	62	7
113	324078	63	7
113	328766	64	7
113	333454	65	7
113	338118	66	7
113	342544	67	7
113	346952	68	7
113	351360	69	7
113	355768	70	7
113	360176	71	7
113	364584	72	7
113	368992	73	7
113	373400	74	7
113	377808	75	7
113	382216	76	7
113	386624	77	7
113	391032	78	7
113	395440	79	7
113	399848	80	7
113	404256	81	7
113	408664	82	7
113	413072	83	7
113	417480	84	7
113	421888	85	7
113	426296	86	7
113	430704	87	7
113	435112	88	7
113	439520	89	7
113	443928	90	7
113	448336	91	7
113	452744	92	7
113	457152	93	7
113	461560	94	7
113	465968	95	7
113	470376	96	7
113	474784	97	7
113	479192	98	7
113	483600	99	7
113	488008	100	7
114	5033	2	0.022473
114	10501	3	0.02497
114	15969	4	0.02497
114	21437	5	0.02497
114	26905	6	0.02497
114	32373	7	0.02497
114	37841	8	0.02497
114	43309	9	0.02497
114	48778	10	0.02497
114	54466	11	0.02513
114	59994	12	0.02497
114	65522	13	0.02497
114	71050	14	0.02497
114	76578	15	0.02497
114	82106	16	0.02497
114	87634	17	0.02497
114	93162	18	0.02497
114	98690	19	0.02497
114	104218	20	0.02497
114	109746	21	0.02497
114	115274	22	0.02497
114	120802	23	0.02497
114	126330	24	0.02497
114	131858	25	0.02497
114	137386	26	0.02497
114	142914	27	0.02497
114	148433	28	0.02497
114	153952	29	0.02497
114	159432	30	0.02497
114	164849	31	0.02497
114	170167	32	0.02497
114	175326	33	0.02497
114	180437	34	0.02497
114	185545	35	0.02497
114	190653	36	0.02497
114	195761	37	0.02497
114	200869	38	0.02497
114	205977	39	0.02497
114	211085	40	0.02497
114	216193	41	0.02497
114	221301	42	0.02497
114	226409	43	0.02497
114	231517	44	0.02497
114	236625	45	0.02497
114	241733	46	0.02497
114	246841	47	0.02497
114	251949	48	0.02497
114	257057	49	0.02497
114	262165	50	0.02497
114	267273	51	0.02497
114	272381	52	0.02497
114	277198	53	0.02185
114	281886	54	0.02185
114	286574	55	0.02185
114	291262	56	0.02185
114	295950	57	0.02185
114	300638	58	0.02185
114	305326	59	0.02185
114	310014	60	0.02185
114	314702	61	0.02185
114	319390	62	0.02185
114	324078	63	0.02185
114	328766	64	0.02185
114	333454	65	0.02185
114	338118	66	0.02185
114	342544	67	0.02185
114	346952	68	0.02185
114	351360	69	0.02185
114	355768	70	0.02185
114	360176	71	0.02185
114	364584	72	0.02185
114	368992	73	0.02185
114	373400	74	0.02185
114	377808	75	0.02185
114	382216	76	0.02185
114	386624	77	0.02185
114	391032	78	0.02185
114	395440	79	0.02185
114	399848	80	0.02185
114	404256	81	0.02185
114	408664	82	0.02185
114	413072	83	0.02185
114	417480	84	0.02185
114	421888	85	0.02185
114	426296	86	0.02185
114	430704	87	0.02185
114	435112	88	0.02185
114	439520	89	0.02185
114	443928	90	0.02185
114	448336	91	0.02185
114	452744	92	0.02185
114	457152	93	0.02185
114	461560	94	0.02185
114	465968	95	0.02185
114	470376	96	0.02185
114	474784	97	0.02185
114	479192	98	0.02185
114	483600	99	0.02185
114	488008	100	0.02185
115	5033	2	0
115	10501	3	0
115	15969	4	0
115	21437	5	0
115	26905	6	0
115	32373	7	0
115	37841	8	0
115	43309	9	0
115	48778	10	0
115	54466	11	0
115	59994	12	0
115	65522	13	0
115	71050	14	0
115	76578	15	0
115	82106	16	0
115	87634	17	0
115	93162	18	0
115	98690	19	0
115	104218	20	0
115	109746	21	0
115	115274	22	0
115	120802	23	0
115	126330	24	0
115	131858	25	0
115	137386	26	0
115	142914	27	0
115	148433	28	0
115	153952	29	0
115	159432	30	0
115	164849	31	0
115	170167	32	0
115	175326	33	0
115	180437	34	0
115	185545	35	0
115	190653	36	0
115	195761	37	0
115	200869	38	0
115	205977	39	0
115	211085	40	0
115	216193	41	0
115	221301	42	0
115	226409	43	0
115	231517	44	0
115	236625	45	0
115	241733	46	0
115	246841	47	0
115	251949	48	0
115	257057	49	0
115	262165	50	0
115	267273	51	0
115	272381	52	0
115	277198	53	0
115	281886	54	0
115	286574	55	0
115	291262	56	0
115	295950	57	0
115	300638	58	0
115	305326	59	0
115	310014	60	0
115	314702	61	0
115	319390	62	0
115	324078	63	0
115	328766	64	0
115	333454	65	0
115	338118	66	0
115	342544	67	0
115	346952	68	0
115	351360	69	0
115	355768	70	0
115	360176	71	0
115	364584	72	0
115	368992	73	0
115	373400	74	0
115	377808	75	0
115	382216	76	0
115	386624	77	0
115	391032	78	0
115	395440	79	0
115	399848	80	0
115	404256	81	0
115	408664	82	0
115	413072	83	0
115	417480	84	0
115	421888	85	0
115	426296	86	0
115	430704	87	0
115	435112	88	0
115	439520	89	0
115	443928	90	0
115	448336	91	0
115	452744	92	0
115	457152	93	0
115	461560	94	0
115	465968	95	0
115	470376	96	0
115	474784	97	0
115	479192	98	0
115	483600	99	0
115	488008	100	0

