file 1863950 1720584625                                         
version 3
run BreakRanksNoGui-29-20240710-06:10:16-237243
attr configname BreakRanksNoGui
attr datetime 20240710-06:10:16
attr datetimef 20240710-061016
attr experiment BreakRanksNoGui
attr inifile omnetpp.ini
attr iterationvars "$nCars=8, $platoonSize=8, $nLanes=1, $ploegH=0.5, $controller=1, $headway=0.1, $leaderHeadway=1.2, $leaderSpeed=150, $breakRanksSafetyDistance=2, $minSpeed=140, $maxSpeed=160, $beaconInterval=0.1, $priority=4, $packetSize=200, $sController=\"CACC\", $0=0, $1=0"
attr iterationvarsd nCars=8/platoonSize=8/nLanes=1/ploegH=0.5/controller=1/headway=0.1/leaderHeadway=1.2/leaderSpeed=150/breakRanksSafetyDistance=2/minSpeed=140/maxSpeed=160/beaconInterval=0.1/priority=4/packetSize=200/sController=CACC/0/0
attr iterationvarsf nCars=8,platoonSize=8,nLanes=1,ploegH=0.5,controller=1,headway=0.1,leaderHeadway=1.2,leaderSpeed=150,breakRanksSafetyDistance=2,minSpeed=140,maxSpeed=160,beaconInterval=0.1,priority=4,packetSize=200,sController=CACC,0,0-
attr measurement "$nCars=8, $platoonSize=8, $nLanes=1, $ploegH=0.5, $controller=1, $headway=0.1, $leaderHeadway=1.2, $leaderSpeed=150, $breakRanksSafetyDistance=2, $minSpeed=140, $maxSpeed=160, $beaconInterval=0.1, $priority=4, $packetSize=200, $sController=\"CACC\", $0=0, $1=0"
attr network Highway
attr processid 237243
attr repetition 9
attr replication #9
attr resultdir results
attr runnumber 29
attr seedset 9
itervar beaconInterval 0.1
itervar breakRanksSafetyDistance 2
itervar controller 1
itervar headway 0.1
itervar leaderHeadway 1.2
itervar leaderSpeed 150
itervar maxSpeed 160
itervar minSpeed 140
itervar nCars 8
itervar nLanes 1
itervar packetSize 200
itervar platoonSize 8
itervar ploegH 0.5
itervar priority 4
itervar sController "\"CACC\""
config image-path ../../../veins/images
config repeat 10
config extends BreakRanks
config *.manager.command "\"sumo\""
config *.manager.ignoreGuiCommands true
config output-vector-file results/BreakRanks_1_0.1_150_2/result_9.vec
config output-scalar-file results/BreakRanks_1_0.1_150_2/result_9.sca
config extends Platooning
config *.node[*].scenario_type "\"BreakRanksScenario\""
config *.manager.command "\"sumo-gui\""
config *.node[*].scenario_type "\"SimpleScenario\""
config cmdenv-express-mode true
config cmdenv-autoflush true
config cmdenv-status-frequency 15s
config num-rngs 6
config network Highway
config debug-on-errors true
config print-undisposed true
config *.playgroundSizeX 65000m
config *.playgroundSizeY 25000m
config *.playgroundSizeZ 50m
config sim-time-limit "100 s"
config *.annotations.draw false
config *.obstacles.debug false
config *.world.useTorus false
config *.world.use2D false
config *.manager.updateInterval 0.01s
config *.manager.host "\"localhost\""
config *.manager.moduleType "\"org.car2x.plexe.PlatoonCar\""
config *.manager.moduleName "\"node\""
config *.manager.moduleDisplayString "\"\""
config *.manager.autoShutdown true
config *.manager.margin 25
config *.connectionManager.sendDirect true
config *.connectionManager.maxInterfDist 2600m
config *.connectionManager.drawMaxIntfDist false
config *.**.nic.mac1609_4.useServiceChannel false
config *.**.nic.mac1609_4.txPower 100mW
config *.**.nic.mac1609_4.bitrate 6Mbps
config *.**.nic.mac1609_4.useAcks true
config *.**.nic.mac1609_4.ackErrorRate 0.0
config *.**.nic.mac1609_4.frameErrorRate 0.0
config *.**.nic.phy80211p.minPowerLevel -94dBm
config *.**.nic.phy80211p.maxTXPower 100mW
config *.**.nic.phy80211p.useNoiseFloor true
config *.**.nic.phy80211p.noiseFloor -95dBm
config *.**.nic.phy80211p.decider "xmldoc(\"config.xml\")"
config *.**.nic.phy80211p.analogueModels "xmldoc(\"config.xml\")"
config *.**.nic.phy80211p.usePropagationDelay true
config *.node[*].mobility.x 0
config *.node[*].mobility.y 0
config *.node[*].mobility.z 1.895
config seed-set 9
config **.seed 9
config *.node[*].prot.rng-0 2
config *.node[*].appl.rng-0 3
config *.node[*].scenario.rng-0 4
config **.traffic.rng-0 5
config *.manager.configFile "\"./sumocfg/freeway.sumo.cfg\""
config *.manager.launchConfig "xmldoc(\"./sumocfg/freeway.launchd.xml\")"
config **.numberOfCars 8
config **.numberOfCarsPerPlatoon 8
config **.numberOfLanes 1
config *.node[*].helper_type "\"PositionHelper\""
config *.node[*].scenario.caccC1 0
config *.node[*].scenario.caccXi 0
config *.node[*].scenario.caccOmegaN "0.2 Hz"
config *.node[*].scenario.caccSpacing "2 m"
config *.node[*].scenario.engineTau "0.5 s"
config *.node[*].scenario.ploegH 0.5s
config *.node[*].scenario.ploegKp 0.2
config *.node[*].scenario.ploegKd 0.7
config *.node[*].scenario.useRealisticEngine false
config *.node[*].scenario.useControllerAcceleration true
config *.node[*].scenario.nLanes 1
config **.numericController 1
config **.headway 0.1s
config *.node[*].scenario.accHeadway 0.1s
config *.node[*].scenario.leaderHeadway 1.2s
config *.node[*].scenario.leaderSpeed 150kmph
config *.node[*].appl_type "\"SimplePlatooningApp\""
config *.node[*].appl.*.scalar-recording true
config *.node[*].appl.*.vector-recording true
config *.node[0].appl.breakRanksSafetyDistance 2m
config *.node[*].appl.minSpeed 140kmph
config *.node[*].appl.maxSpeed 160kmph
config *.node[*].protocol_type "\"SimplePlatooningBeaconing\""
config *.node[*].prot.*.scalar-recording true
config *.node[*].prot.*.vector-recording true
config *.node[*].prot.beaconingInterval 0.1s
config *.node[*].prot.priority 4
config *.node[*].prot.packetSize 200
config **.traffic_type "\"PlatoonsTrafficManager\""
config **.traffic.platoonInsertTime "1 s"
config **.traffic.platoonInsertSpeed 150kmph
config **.traffic.nCars 8
config **.traffic.platoonSize 8
config **.traffic.nLanes 1
config **.traffic.platooningVType "\"vtypeauto\""
config **.traffic.controller "\"CACC\""
config **.traffic.platoonInsertDistance 0m
config **.traffic.platoonInsertHeadway 0s
config **.traffic.platoonLeaderHeadway 1.2s
config **.scalar-recording false
config **.vector-recording false

vector 0 Highway.node[0].appl distance ETV
vector 1 Highway.node[0].appl relativeSpeed ETV
vector 2 Highway.node[0].appl nodeId ETV
vector 3 Highway.node[0].appl acceleration ETV
vector 4 Highway.node[0].appl controllerAcceleration ETV
vector 5 Highway.node[0].appl speed ETV
vector 6 Highway.node[0].appl posx ETV
vector 7 Highway.node[0].appl posy ETV
vector 8 Highway.node[1].appl distance ETV
vector 9 Highway.node[1].appl relativeSpeed ETV
vector 10 Highway.node[1].appl nodeId ETV
vector 11 Highway.node[1].appl acceleration ETV
vector 12 Highway.node[1].appl controllerAcceleration ETV
vector 13 Highway.node[1].appl speed ETV
vector 14 Highway.node[1].appl posx ETV
vector 15 Highway.node[1].appl posy ETV
vector 16 Highway.node[2].appl distance ETV
vector 17 Highway.node[2].appl relativeSpeed ETV
vector 18 Highway.node[2].appl nodeId ETV
vector 19 Highway.node[2].appl acceleration ETV
vector 20 Highway.node[2].appl controllerAcceleration ETV
vector 21 Highway.node[2].appl speed ETV
vector 22 Highway.node[2].appl posx ETV
vector 23 Highway.node[2].appl posy ETV
vector 24 Highway.node[3].appl distance ETV
vector 25 Highway.node[3].appl relativeSpeed ETV
vector 26 Highway.node[3].appl nodeId ETV
vector 27 Highway.node[3].appl acceleration ETV
vector 28 Highway.node[3].appl controllerAcceleration ETV
vector 29 Highway.node[3].appl speed ETV
vector 30 Highway.node[3].appl posx ETV
vector 31 Highway.node[3].appl posy ETV
vector 32 Highway.node[4].appl distance ETV
vector 33 Highway.node[4].appl relativeSpeed ETV
vector 34 Highway.node[4].appl nodeId ETV
vector 35 Highway.node[4].appl acceleration ETV
vector 36 Highway.node[4].appl controllerAcceleration ETV
vector 37 Highway.node[4].appl speed ETV
vector 38 Highway.node[4].appl posx ETV
vector 39 Highway.node[4].appl posy ETV
vector 40 Highway.node[5].appl distance ETV
vector 41 Highway.node[5].appl relativeSpeed ETV
vector 42 Highway.node[5].appl nodeId ETV
vector 43 Highway.node[5].appl acceleration ETV
vector 44 Highway.node[5].appl controllerAcceleration ETV
vector 45 Highway.node[5].appl speed ETV
vector 46 Highway.node[5].appl posx ETV
vector 47 Highway.node[5].appl posy ETV
vector 48 Highway.node[6].appl distance ETV
vector 49 Highway.node[6].appl relativeSpeed ETV
vector 50 Highway.node[6].appl nodeId ETV
vector 51 Highway.node[6].appl acceleration ETV
vector 52 Highway.node[6].appl controllerAcceleration ETV
vector 53 Highway.node[6].appl speed ETV
vector 54 Highway.node[6].appl posx ETV
vector 55 Highway.node[6].appl posy ETV
vector 56 Highway.node[7].appl distance ETV
vector 57 Highway.node[7].appl relativeSpeed ETV
vector 58 Highway.node[7].appl nodeId ETV
vector 59 Highway.node[7].appl acceleration ETV
vector 60 Highway.node[7].appl controllerAcceleration ETV
vector 61 Highway.node[7].appl speed ETV
vector 62 Highway.node[7].appl posx ETV
vector 63 Highway.node[7].appl posy ETV
vector 64 Highway.node[2].prot frontDelay ETV
vector 65 Highway.node[2].prot frontDelayId ETV
vector 66 Highway.node[7].prot frontDelay ETV
vector 67 Highway.node[7].prot frontDelayId ETV
vector 68 Highway.node[3].prot frontDelay ETV
vector 69 Highway.node[3].prot frontDelayId ETV
vector 70 Highway.node[6].prot frontDelay ETV
vector 71 Highway.node[6].prot frontDelayId ETV
vector 72 Highway.node[5].prot frontDelay ETV
vector 73 Highway.node[5].prot frontDelayId ETV
vector 74 Highway.node[4].prot frontDelay ETV
vector 75 Highway.node[4].prot frontDelayId ETV
vector 76 Highway.node[1].prot leaderDelay ETV
vector 77 Highway.node[1].prot leaderDelayId ETV
vector 78 Highway.node[1].prot frontDelay ETV
vector 79 Highway.node[1].prot frontDelayId ETV
vector 80 Highway.node[2].prot leaderDelay ETV
vector 81 Highway.node[2].prot leaderDelayId ETV
vector 82 Highway.node[3].prot leaderDelay ETV
vector 83 Highway.node[3].prot leaderDelayId ETV
vector 84 Highway.node[4].prot leaderDelay ETV
vector 85 Highway.node[4].prot leaderDelayId ETV
vector 86 Highway.node[5].prot leaderDelay ETV
vector 87 Highway.node[5].prot leaderDelayId ETV
vector 88 Highway.node[6].prot leaderDelay ETV
vector 89 Highway.node[6].prot leaderDelayId ETV
vector 90 Highway.node[7].prot leaderDelay ETV
vector 91 Highway.node[7].prot leaderDelayId ETV
vector 92 Highway.node[0].prot nodeId ETV
vector 93 Highway.node[0].prot busyTime ETV
vector 94 Highway.node[0].prot collisions ETV
vector 95 Highway.node[1].prot nodeId ETV
vector 96 Highway.node[1].prot busyTime ETV
vector 97 Highway.node[1].prot collisions ETV
vector 98 Highway.node[2].prot nodeId ETV
vector 99 Highway.node[2].prot busyTime ETV
vector 100 Highway.node[2].prot collisions ETV
vector 101 Highway.node[3].prot nodeId ETV
vector 102 Highway.node[3].prot busyTime ETV
vector 103 Highway.node[3].prot collisions ETV
vector 104 Highway.node[4].prot nodeId ETV
vector 105 Highway.node[4].prot busyTime ETV
vector 106 Highway.node[4].prot collisions ETV
vector 107 Highway.node[5].prot nodeId ETV
vector 108 Highway.node[5].prot busyTime ETV
vector 109 Highway.node[5].prot collisions ETV
vector 110 Highway.node[6].prot nodeId ETV
vector 111 Highway.node[6].prot busyTime ETV
vector 112 Highway.node[6].prot collisions ETV
vector 113 Highway.node[7].prot nodeId ETV
vector 114 Highway.node[7].prot busyTime ETV
vector 115 Highway.node[7].prot collisions ETV
0	11183 17510 113 487596 1.11 99.91 989 -1 -1 -989 989
1	28693 16521 113 487596 1.11 99.91 989 0 0 0 0
2	45214 16521 113 487596 1.11 99.91 989 0 0 0 0
3	61735 19174 113 487596 1.11 99.91 989 -0.00212335 9.44677e-05 -0.032974721603572 5.4457223400247e-05
4	80909 26474 113 487596 1.11 99.91 989 -0.00327777 0.00014682 -0.031844474217828 7.8133755621892e-05
5	107383 22450 113 487596 1.11 99.91 989 41.6666 41.67 41208.398000001 1717019.2778579
6	129833 22098 113 487596 1.11 99.91 989 54.2303 4170.9 2089330.0753 5813393790.8563
7	151931 21466 113 487596 1.11 99.91 989 242.45 242.45 239783.05 58135400.472499
8	173397 22409 114 487597 1.11 99.91 989 -1 3996.35 1918889.3236271 5114004697.4565
9	195806 22436 114 487597 1.11 99.91 989 0 41.6667 39984.335514401 1652226.904354
10	218242 17510 114 487597 1.11 99.91 989 1 1 989 989
11	235752 17861 114 487597 1.11 99.91 989 -8.99963 0 -417.90476 3557.970303875
12	253613 18497 114 487597 1.11 99.91 989 -9 0 -8883 79947
13	272110 17816 114 487597 1.11 99.91 989 0 41.67 1224.062575 37215.505968829
14	289926 23435 114 487597 1.11 99.91 989 50.2303 170.551 166482.5773 28182835.921586
15	313361 22455 114 487597 1.11 99.91 989 242.45 242.45 239783.05 58135400.472499
16	335816 17691 115 487598 1.11 99.91 989 -1 2.84217e-14 -0.99999999999949 1
17	353507 17510 115 487598 1.11 99.91 989 0 0 0 0
18	371017 17510 115 487598 1.11 99.91 989 2 2 1978 3956
19	388527 17861 115 487598 1.11 99.91 989 -8.99963 0 -417.90476 3557.970303875
20	406388 18497 115 487598 1.11 99.91 989 -9 0 -8883 79947
21	424885 17816 115 487598 1.11 99.91 989 0 41.67 1224.062575 37215.505968829
22	442701 23436 115 487598 1.11 99.91 989 46.2303 166.551 162526.5772 26866799.283734
23	466137 22455 115 487598 1.11 99.91 989 242.45 242.45 239783.05 58135400.472499
24	488592 18494 116 487599 1.11 99.91 989 -1 0 -984 984
25	507086 17510 116 487599 1.11 99.91 989 0 0 0 0
26	524596 17510 116 487599 1.11 99.91 989 3 3 2967 8901
27	542106 17861 116 487599 1.11 99.91 989 -8.99963 0 -417.90476 3557.970303875
28	559967 18497 116 487599 1.11 99.91 989 -9 0 -8883 79947
29	578464 17816 116 487599 1.11 99.91 989 0 41.67 1224.062575 37215.505968829
30	596280 23435 116 487599 1.11 99.91 989 42.2303 162.551 158570.5772 25582410.666134
31	619715 22455 116 487599 1.11 99.91 989 242.45 242.45 239783.05 58135400.472499
32	642170 17720 117 487600 1.11 99.91 989 0 2.84217e-14 4.1922063e-13 9.5420708804049e-27
33	659890 17510 117 487600 1.11 99.91 989 0 0 0 0
34	677400 17510 117 487600 1.11 99.91 989 4 4 3956 15824
35	694910 17861 117 487600 1.11 99.91 989 -8.99963 0 -417.90476 3557.970303875
36	712771 18497 117 487600 1.11 99.91 989 -9 0 -8883 79947
37	731268 17816 117 487600 1.11 99.91 989 0 41.67 1224.062575 37215.505968829
38	749084 23435 117 487600 1.11 99.91 989 38.2303 158.551 154614.5774 24329670.08894
39	772519 22455 117 487600 1.11 99.91 989 242.45 242.45 239783.05 58135400.472499
40	794974 22455 119 487602 1.12 99.92 989 0.4167 0.4167 412.1163 171.72886221
41	817429 17510 119 487602 1.12 99.92 989 0 0 0 0
42	834939 17510 119 487602 1.12 99.92 989 5 5 4945 24725
43	852449 17870 119 487602 1.12 99.92 989 -8.99964 0 -418.886991 3566.0326640698
44	870319 18498 119 487602 1.12 99.92 989 -9 0 -8892 80028
45	888817 17819 119 487602 1.12 99.92 989 0 41.67 1219.873409 37041.903408763
46	906636 23439 119 487602 1.12 99.92 989 34.2303 154.134 150258.3996 22985377.628652
47	930075 22455 119 487602 1.12 99.92 989 242.45 242.45 239783.05 58135400.472499
48	952530 17549 120 487603 1.12 99.92 989 -1 4.26326e-14 -8.9999999999999 9
49	970079 17510 120 487603 1.12 99.92 989 0 0 0 0
50	987589 17510 120 487603 1.12 99.92 989 6 6 5934 35604
51	1005099 17870 120 487603 1.12 99.92 989 -8.99964 0 -418.886991 3566.0326640698
52	1022969 18498 120 487603 1.12 99.92 989 -9 0 -8892 80028
53	1041467 17819 120 487603 1.12 99.92 989 0 41.67 1219.873409 37041.903408763
54	1059286 23439 120 487603 1.12 99.92 989 30.2303 150.134 146302.3998 21799134.470883
55	1082725 22455 120 487603 1.12 99.92 989 242.45 242.45 239783.05 58135400.472499
56	1105180 17639 121 487604 1.12 99.92 989 -1 2.84217e-14 -29 29
57	1122819 17510 121 487604 1.12 99.92 989 0 0 0 0
58	1140329 17510 121 487604 1.12 99.92 989 7 7 6923 48461
59	1157839 17870 121 487604 1.12 99.92 989 -8.99964 0 -418.886991 3566.0326640698
60	1175709 18498 121 487604 1.12 99.92 989 -9 0 -8892 80028
61	1194207 17819 121 487604 1.12 99.92 989 0 41.67 1219.873409 37041.903408763
62	1212026 23439 121 487604 1.12 99.92 989 26.2303 146.134 142346.4003 20644539.369666
63	1235465 22455 121 487604 1.12 99.92 989 242.45 242.45 239783.05 58135400.472499
64	1257920 40069 703 487632 1.220819341906 99.920821386066 988 0.099987256233 0.100012755886 98.800002372725 9.8800005080702
65	1297989 27256 703 487632 1.220819341906 99.920821386066 988 2 2 1976 3952
66	1325245 40079 771 487698 1.240768410009 99.940757454169 988 0.099987328581 0.100012255539 98.799989372725 9.87999790811
67	1365324 27266 771 487698 1.240768410009 99.940757454169 988 7 7 6916 48412
68	1392590 40086 837 487756 1.244324464769 99.944326508929 988 0.099987467853 0.100012422321 98.800002372725 9.8800005079397
69	1432676 27273 837 487756 1.244324464769 99.944326508929 988 3 3 2964 8892
70	1459949 40089 899 487810 1.262206506187 99.962208550347 988 0.099987394261 0.100012589103 98.800002372725 9.8800005080136
71	1500038 27276 899 487810 1.262206506187 99.962208550347 988 6 6 5928 35568
72	1527314 40094 972 487875 1.27802152231 99.97801056647 988 0.099987329025 0.100012255539 98.799989372725 9.8799979081192
73	1567408 27281 972 487875 1.27802152231 99.97801056647 988 5 5 4940 24700
74	1594689 40073 1106 487993 1.293674617098 99.993663661258 988 0.099987330528 0.100012227742 98.799989372725 9.8799979081076
75	1634762 27260 1106 487993 1.293674617098 99.993663661258 988 4 4 3952 15808
76	1662022 12124 1167 177390 1.308748657144 33.408762481239 304 0.099987570664 0.800001800452 32.200014152676 4.1400082727799
77	1674146 8193 1167 177390 1.308748657144 33.408762481239 304 1 1 304 304
78	1682339 12124 1167 177390 1.308748657144 33.408762481239 304 0.099987570664 0.800001800452 32.200014152676 4.1400082727799
79	1694463 8193 1167 177390 1.308748657144 33.408762481239 304 1 1 304 304
80	1702656 12083 1173 172261 1.308748670487 32.408756716047 304 0.099987570665 0.299998257955 31.200008374142 3.2999992930167
81	1714739 8175 1173 172261 1.308748670487 32.408756716047 304 2 2 608 1216
82	1722914 12167 1179 173296 1.308748683829 32.60876026272 305 0.099987570665 0.699991601893 31.400011907472 3.6399924003454
83	1735081 8221 1179 173296 1.308748683829 32.60876026272 305 3 3 915 2745
84	1743302 11820 1185 174832 1.308748697172 32.908759284537 297 0.099987570665 1.000004388686 31.700010915947 4.4500100823859
85	1755122 8009 1185 174832 1.308748697172 32.908759284537 297 4 4 1188 4752
86	1763131 11842 1191 172273 1.308748711905 32.408756757465 297 0.099987570665 0.800000021444 31.200008374142 3.8999996629224
87	1774973 7998 1191 172273 1.308748711905 32.408756757465 297 5 5 1485 7425
88	1782971 11789 1197 172279 1.308748725247 32.408756770807 297 0.099987570665 0.999989442892 31.200008374142 4.1799814327371
89	1794760 7975 1197 172279 1.308748725247 32.408756770807 297 6 6 1782 10692
90	1802735 11839 1203 172795 1.30874873859 32.508765036916 297 0.099987570665 0.400006065969 31.300016626908 3.6700111003157
91	1814574 8001 1203 172795 1.30874873859 32.508765036916 297 7 7 2079 14553
92	1822575 1459 4960 488019 2 100 99 0 0 0 0
93	1824034 2055 4960 488019 2 100 99 0.00313 0.025163 1.427645 0.032229981693
94	1826089 1459 4960 488019 2 100 99 0 0 0 0
95	1827548 1459 4961 488020 2 100 99 1 1 99 99
96	1829007 2062 4961 488020 2 100 99 0.02185 0.025164697948 2.321839697948 0.054692406699814
97	1831069 1459 4961 488020 2 100 99 0 0 0 0
98	1832528 1459 4962 488021 2 100 99 2 2 198 396
99	1833987 2055 4962 488021 2 100 99 0.02185 0.02513 2.321493 0.054675761705
100	1836042 1558 4962 488021 2 100 99 0 0 0 0
101	1837600 1558 4963 488022 2 100 99 3 3 297 891
102	1839158 2153 4963 488022 2 100 99 0.02185 0.02513 2.321181 0.054661056521
103	1841311 1558 4963 488022 2 100 99 0 0 0 0
104	1842869 1558 4964 488023 2 100 99 4 4 396 1584
105	1844427 2154 4964 488023 2 100 99 0.02185 0.02513 2.320869 0.054646546025
106	1846581 1558 4964 488023 2 100 99 0 0 0 0
107	1848139 1558 4965 488024 2 100 99 5 5 495 2475
108	1849697 2154 4965 488024 2 100 99 0.02185 0.02513 2.320557 0.054632230217
109	1851851 1558 4965 488024 2 100 99 0 0 0 0
110	1853409 1558 4966 488025 2 100 99 6 6 594 3564
111	1854967 2154 4966 488025 2 100 99 0.02185 0.02513 2.320245 0.054618109097
112	1857121 1558 4966 488025 2 100 99 0 0 0 0
113	1858679 1558 4967 488026 2 100 99 7 7 693 4851
114	1860237 2154 4967 488026 2 100 99 0.02185 0.02513 2.319933 0.054604182665
115	1862391 1558 4967 488026 2 100 99 0 0 0 0

