version 3
run BreakRanksNoGui-20-20240708-22:27:00-165665
attr configname BreakRanksNoGui
attr datetime 20240708-22:27:00
attr datetimef 20240708-222700
attr experiment BreakRanksNoGui
attr inifile omnetpp.ini
attr iterationvars "$nCars=8, $platoonSize=8, $nLanes=1, $ploegH=0.5, $controller=1, $headway=0.1, $leaderHeadway=1.2, $leaderSpeed=150, $breakRanksSafetyDistance=2, $minSpeed=140, $maxSpeed=160, $beaconInterval=0.1, $priority=4, $packetSize=200, $sController=\"CACC\", $0=2, $1=0"
attr iterationvarsd nCars=8/platoonSize=8/nLanes=1/ploegH=0.5/controller=1/headway=0.1/leaderHeadway=1.2/leaderSpeed=150/breakRanksSafetyDistance=2/minSpeed=140/maxSpeed=160/beaconInterval=0.1/priority=4/packetSize=200/sController=CACC/2/0
attr iterationvarsf nCars=8,platoonSize=8,nLanes=1,ploegH=0.5,controller=1,headway=0.1,leaderHeadway=1.2,leaderSpeed=150,breakRanksSafetyDistance=2,minSpeed=140,maxSpeed=160,beaconInterval=0.1,priority=4,packetSize=200,sController=CACC,2,0-
attr measurement "$nCars=8, $platoonSize=8, $nLanes=1, $ploegH=0.5, $controller=1, $headway=0.1, $leaderHeadway=1.2, $leaderSpeed=150, $breakRanksSafetyDistance=2, $minSpeed=140, $maxSpeed=160, $beaconInterval=0.1, $priority=4, $packetSize=200, $sController=\"CACC\", $0=2, $1=0"
attr network Highway
attr processid 165665
attr repetition 0
attr replication #0
attr resultdir results
attr runnumber 20
attr seedset 0
itervar beaconInterval 0.1
itervar breakRanksSafetyDistance 2
itervar controller 1
itervar headway 0.1
itervar leaderHeadway 1.2
itervar leaderSpeed 150
itervar maxSpeed 160
itervar minSpeed 140
itervar nCars 8
itervar nLanes 1
itervar packetSize 200
itervar platoonSize 8
itervar ploegH 0.5
itervar priority 4
itervar sController "\"CACC\""
config image-path ../../../veins/images
config repeat 10
config extends BreakRanks
config *.manager.command "\"sumo\""
config *.manager.ignoreGuiCommands true
config output-vector-file results/BreakRanks_1_0.1_150_2/result_0.vec
config output-scalar-file results/BreakRanks_1_0.1_150_2/result_0.sca
config extends Platooning
config *.node[*].scenario_type "\"BreakRanksScenario\""
config *.manager.command "\"sumo-gui\""
config *.node[*].scenario_type "\"SimpleScenario\""
config cmdenv-express-mode true
config cmdenv-autoflush true
config cmdenv-status-frequency 15s
config num-rngs 6
config network Highway
config debug-on-errors true
config print-undisposed true
config *.playgroundSizeX 65000m
config *.playgroundSizeY 25000m
config *.playgroundSizeZ 50m
config sim-time-limit "100 s"
config *.annotations.draw false
config *.obstacles.debug false
config *.world.useTorus false
config *.world.use2D false
config *.manager.updateInterval 0.01s
config *.manager.host "\"localhost\""
config *.manager.moduleType "\"org.car2x.plexe.PlatoonCar\""
config *.manager.moduleName "\"node\""
config *.manager.moduleDisplayString "\"\""
config *.manager.autoShutdown true
config *.manager.margin 25
config *.connectionManager.sendDirect true
config *.connectionManager.maxInterfDist 2600m
config *.connectionManager.drawMaxIntfDist false
config *.**.nic.mac1609_4.useServiceChannel false
config *.**.nic.mac1609_4.txPower 100mW
config *.**.nic.mac1609_4.bitrate 6Mbps
config *.**.nic.mac1609_4.useAcks true
config *.**.nic.mac1609_4.ackErrorRate 0.0
config *.**.nic.mac1609_4.frameErrorRate 0.0
config *.**.nic.phy80211p.minPowerLevel -94dBm
config *.**.nic.phy80211p.maxTXPower 100mW
config *.**.nic.phy80211p.useNoiseFloor true
config *.**.nic.phy80211p.noiseFloor -95dBm
config *.**.nic.phy80211p.decider "xmldoc(\"config.xml\")"
config *.**.nic.phy80211p.analogueModels "xmldoc(\"config.xml\")"
config *.**.nic.phy80211p.usePropagationDelay true
config *.node[*].mobility.x 0
config *.node[*].mobility.y 0
config *.node[*].mobility.z 1.895
config seed-set 0
config **.seed 0
config *.node[*].prot.rng-0 2
config *.node[*].appl.rng-0 3
config *.node[*].scenario.rng-0 4
config **.traffic.rng-0 5
config *.manager.configFile "\"./sumocfg/freeway.sumo.cfg\""
config *.manager.launchConfig "xmldoc(\"./sumocfg/freeway.launchd.xml\")"
config **.numberOfCars 8
config **.numberOfCarsPerPlatoon 8
config **.numberOfLanes 1
config *.node[*].helper_type "\"PositionHelper\""
config *.node[*].scenario.caccC1 0.5
config *.node[*].scenario.caccXi 1
config *.node[*].scenario.caccOmegaN "0.2 Hz"
config *.node[*].scenario.caccSpacing "2 m"
config *.node[*].scenario.engineTau "0.5 s"
config *.node[*].scenario.ploegH 0.5s
config *.node[*].scenario.ploegKp 0.2
config *.node[*].scenario.ploegKd 0.7
config *.node[*].scenario.useRealisticEngine false
config *.node[*].scenario.useControllerAcceleration true
config *.node[*].scenario.nLanes 1
config **.numericController 1
config **.headway 0.1s
config *.node[*].scenario.accHeadway 0.1s
config *.node[*].scenario.leaderHeadway 1.2s
config *.node[*].scenario.leaderSpeed 150kmph
config *.node[*].appl_type "\"SimplePlatooningApp\""
config *.node[*].appl.*.scalar-recording true
config *.node[*].appl.*.vector-recording true
config *.node[0].appl.breakRanksSafetyDistance 2m
config *.node[*].appl.minSpeed 140kmph
config *.node[*].appl.maxSpeed 160kmph
config *.node[*].protocol_type "\"SimplePlatooningBeaconing\""
config *.node[*].prot.*.scalar-recording true
config *.node[*].prot.*.vector-recording true
config *.node[*].prot.beaconingInterval 0.1s
config *.node[*].prot.priority 4
config *.node[*].prot.packetSize 200
config **.traffic_type "\"PlatoonsTrafficManager\""
config **.traffic.platoonInsertTime "1 s"
config **.traffic.platoonInsertSpeed 150kmph
config **.traffic.nCars 8
config **.traffic.platoonSize 8
config **.traffic.nLanes 1
config **.traffic.platooningVType "\"vtypeauto\""
config **.traffic.controller "\"CACC\""
config **.traffic.platoonInsertDistance 2m
config **.traffic.platoonInsertHeadway 0s
config **.traffic.platoonLeaderHeadway 1.2s
config **.scalar-recording false
config **.vector-recording false
config output-vector-file results/BreakRanksNoGui_1_0.1_150_2/result_0.vec
config output-scalar-file results/BreakRanksNoGui_1_0.1_150_2/result_0.sca

vector 0 Highway.node[0].appl distance ETV
vector 1 Highway.node[0].appl relativeSpeed ETV
vector 2 Highway.node[0].appl nodeId ETV
vector 3 Highway.node[0].appl acceleration ETV
vector 4 Highway.node[0].appl controllerAcceleration ETV
vector 5 Highway.node[0].appl speed ETV
vector 6 Highway.node[0].appl posx ETV
vector 7 Highway.node[0].appl posy ETV
vector 8 Highway.node[1].appl distance ETV
vector 9 Highway.node[1].appl relativeSpeed ETV
vector 10 Highway.node[1].appl nodeId ETV
vector 11 Highway.node[1].appl acceleration ETV
vector 12 Highway.node[1].appl controllerAcceleration ETV
vector 13 Highway.node[1].appl speed ETV
vector 14 Highway.node[1].appl posx ETV
vector 15 Highway.node[1].appl posy ETV
vector 16 Highway.node[2].appl distance ETV
vector 17 Highway.node[2].appl relativeSpeed ETV
vector 18 Highway.node[2].appl nodeId ETV
vector 19 Highway.node[2].appl acceleration ETV
vector 20 Highway.node[2].appl controllerAcceleration ETV
vector 21 Highway.node[2].appl speed ETV
vector 22 Highway.node[2].appl posx ETV
vector 23 Highway.node[2].appl posy ETV
vector 24 Highway.node[3].appl distance ETV
vector 25 Highway.node[3].appl relativeSpeed ETV
vector 26 Highway.node[3].appl nodeId ETV
vector 27 Highway.node[3].appl acceleration ETV
vector 28 Highway.node[3].appl controllerAcceleration ETV
vector 29 Highway.node[3].appl speed ETV
vector 30 Highway.node[3].appl posx ETV
vector 31 Highway.node[3].appl posy ETV
vector 32 Highway.node[4].appl distance ETV
vector 33 Highway.node[4].appl relativeSpeed ETV
vector 34 Highway.node[4].appl nodeId ETV
vector 35 Highway.node[4].appl acceleration ETV
vector 36 Highway.node[4].appl controllerAcceleration ETV
vector 37 Highway.node[4].appl speed ETV
vector 38 Highway.node[4].appl posx ETV
vector 39 Highway.node[4].appl posy ETV
vector 40 Highway.node[5].appl distance ETV
vector 41 Highway.node[5].appl relativeSpeed ETV
vector 42 Highway.node[5].appl nodeId ETV
vector 43 Highway.node[5].appl acceleration ETV
vector 44 Highway.node[5].appl controllerAcceleration ETV
vector 45 Highway.node[5].appl speed ETV
vector 46 Highway.node[5].appl posx ETV
vector 47 Highway.node[5].appl posy ETV
vector 48 Highway.node[6].appl distance ETV
vector 49 Highway.node[6].appl relativeSpeed ETV
vector 50 Highway.node[6].appl nodeId ETV
vector 51 Highway.node[6].appl acceleration ETV
vector 52 Highway.node[6].appl controllerAcceleration ETV
vector 53 Highway.node[6].appl speed ETV
vector 54 Highway.node[6].appl posx ETV
vector 55 Highway.node[6].appl posy ETV
vector 56 Highway.node[7].appl distance ETV
vector 57 Highway.node[7].appl relativeSpeed ETV
vector 58 Highway.node[7].appl nodeId ETV
vector 59 Highway.node[7].appl acceleration ETV
vector 60 Highway.node[7].appl controllerAcceleration ETV
vector 61 Highway.node[7].appl speed ETV
vector 62 Highway.node[7].appl posx ETV
vector 63 Highway.node[7].appl posy ETV
vector 64 Highway.node[3].prot frontDelay ETV
vector 65 Highway.node[3].prot frontDelayId ETV
vector 66 Highway.node[2].prot frontDelay ETV
vector 67 Highway.node[2].prot frontDelayId ETV
vector 68 Highway.node[7].prot frontDelay ETV
vector 69 Highway.node[7].prot frontDelayId ETV
vector 70 Highway.node[1].prot leaderDelay ETV
vector 71 Highway.node[1].prot leaderDelayId ETV
vector 72 Highway.node[1].prot frontDelay ETV
vector 73 Highway.node[1].prot frontDelayId ETV
vector 74 Highway.node[2].prot leaderDelay ETV
vector 75 Highway.node[2].prot leaderDelayId ETV
vector 76 Highway.node[3].prot leaderDelay ETV
vector 77 Highway.node[3].prot leaderDelayId ETV
vector 78 Highway.node[4].prot leaderDelay ETV
vector 79 Highway.node[4].prot leaderDelayId ETV
vector 80 Highway.node[5].prot leaderDelay ETV
vector 81 Highway.node[5].prot leaderDelayId ETV
vector 82 Highway.node[6].prot leaderDelay ETV
vector 83 Highway.node[6].prot leaderDelayId ETV
vector 84 Highway.node[7].prot leaderDelay ETV
vector 85 Highway.node[7].prot leaderDelayId ETV
vector 86 Highway.node[5].prot frontDelay ETV
vector 87 Highway.node[5].prot frontDelayId ETV
vector 88 Highway.node[4].prot frontDelay ETV
vector 89 Highway.node[4].prot frontDelayId ETV
vector 90 Highway.node[6].prot frontDelay ETV
vector 91 Highway.node[6].prot frontDelayId ETV
vector 92 Highway.node[0].prot nodeId ETV
vector 93 Highway.node[0].prot busyTime ETV
vector 94 Highway.node[0].prot collisions ETV
vector 95 Highway.node[1].prot nodeId ETV
vector 96 Highway.node[1].prot busyTime ETV
vector 97 Highway.node[1].prot collisions ETV
vector 98 Highway.node[2].prot nodeId ETV
vector 99 Highway.node[2].prot busyTime ETV
vector 100 Highway.node[2].prot collisions ETV
vector 101 Highway.node[3].prot nodeId ETV
vector 102 Highway.node[3].prot busyTime ETV
vector 103 Highway.node[3].prot collisions ETV
vector 104 Highway.node[4].prot nodeId ETV
vector 105 Highway.node[4].prot busyTime ETV
vector 106 Highway.node[4].prot collisions ETV
vector 107 Highway.node[5].prot nodeId ETV
vector 108 Highway.node[5].prot busyTime ETV
vector 109 Highway.node[5].prot collisions ETV
vector 110 Highway.node[6].prot nodeId ETV
vector 111 Highway.node[6].prot busyTime ETV
vector 112 Highway.node[6].prot collisions ETV
vector 113 Highway.node[7].prot nodeId ETV
vector 114 Highway.node[7].prot busyTime ETV
vector 115 Highway.node[7].prot collisions ETV
0	113	1.11	-1
0	659	1.21	-1
0	1205	1.31	-1
0	1751	1.41	-1
0	2297	1.51	-1
0	2843	1.61	-1
0	3389	1.71	-1
0	3935	1.81	-1
0	4481	1.91	-1
0	5035	2.01	-1
0	5581	2.11	-1
0	6127	2.21	-1
0	6673	2.31	-1
0	7219	2.41	-1
0	7765	2.51	-1
0	8311	2.61	-1
0	8857	2.71	-1
0	9403	2.81	-1
0	9949	2.91	-1
0	10503	3.01	-1
0	11049	3.11	-1
0	11595	3.21	-1
0	12141	3.31	-1
0	12687	3.41	-1
0	13233	3.51	-1
0	13779	3.61	-1
0	14325	3.71	-1
0	14871	3.81	-1
0	15417	3.91	-1
0	15971	4.01	-1
0	16517	4.11	-1
0	17063	4.21	-1
0	17609	4.31	-1
0	18155	4.41	-1
0	18701	4.51	-1
0	19247	4.61	-1
0	19793	4.71	-1
0	20339	4.81	-1
0	20885	4.91	-1
0	21439	5.01	-1
0	21985	5.11	-1
0	22531	5.21	-1
0	23077	5.31	-1
0	23623	5.41	-1
0	24169	5.51	-1
0	24715	5.61	-1
0	25261	5.71	-1
0	25807	5.81	-1
0	26353	5.91	-1
0	26907	6.01	-1
0	27453	6.11	-1
0	27999	6.21	-1
0	28545	6.31	-1
0	29091	6.41	-1
0	29637	6.51	-1
0	30183	6.61	-1
0	30729	6.71	-1
0	31275	6.81	-1
0	31821	6.91	-1
0	32375	7.01	-1
0	32921	7.11	-1
0	33467	7.21	-1
0	34013	7.31	-1
0	34559	7.41	-1
0	35105	7.51	-1
0	35651	7.61	-1
0	36197	7.71	-1
0	36743	7.81	-1
0	37289	7.91	-1
0	37843	8.01	-1
0	38389	8.11	-1
0	38935	8.21	-1
0	39481	8.31	-1
0	40027	8.41	-1
0	40573	8.51	-1
0	41119	8.61	-1
0	41665	8.71	-1
0	42211	8.81	-1
0	42757	8.91	-1
0	43311	9.01	-1
0	43857	9.11	-1
0	44403	9.21	-1
0	44949	9.31	-1
0	45495	9.41	-1
0	46041	9.51	-1
0	46587	9.61	-1
0	47133	9.71	-1
0	47679	9.81	-1
0	48225	9.91	-1
0	50688	10.01	-1
0	51234	10.11	-1
0	51780	10.21	-1
0	52326	10.31	-1
0	52872	10.41	-1
0	53418	10.51	-1
0	53964	10.61	-1
0	54510	10.71	-1
0	55056	10.81	-1
0	55602	10.91	-1
0	56156	11.01	-1
0	56702	11.11	-1
0	57248	11.21	-1
0	57794	11.31	-1
0	58340	11.41	-1
0	58886	11.51	-1
0	59432	11.61	-1
0	59978	11.71	-1
0	60524	11.81	-1
0	61070	11.91	-1
0	61624	12.01	-1
0	62170	12.11	-1
0	62716	12.21	-1
0	63262	12.31	-1
0	63808	12.41	-1
0	64354	12.51	-1
0	64900	12.61	-1
0	65446	12.71	-1
0	65992	12.81	-1
0	66538	12.91	-1
0	67092	13.01	-1
0	67638	13.11	-1
0	68184	13.21	-1
0	68730	13.31	-1
0	69276	13.41	-1
0	69822	13.51	-1
0	70368	13.61	-1
0	70914	13.71	-1
0	71460	13.81	-1
0	72006	13.91	-1
0	72560	14.01	-1
0	73106	14.11	-1
0	73652	14.21	-1
0	74198	14.31	-1
0	74744	14.41	-1
0	75290	14.51	-1
0	75836	14.61	-1
0	76382	14.71	-1
0	76928	14.81	-1
0	77474	14.91	-1
0	78028	15.01	-1
0	78574	15.11	-1
0	79120	15.21	-1
0	79666	15.31	-1
0	80212	15.41	-1
0	80758	15.51	-1
0	81304	15.61	-1
0	81850	15.71	-1
0	82396	15.81	-1
0	82942	15.91	-1
0	83496	16.01	-1
0	84042	16.11	-1
0	84588	16.21	-1
0	85134	16.31	-1
0	85680	16.41	-1
0	86226	16.51	-1
0	86772	16.61	-1
0	87318	16.71	-1
0	87864	16.81	-1
0	88410	16.91	-1
0	88964	17.01	-1
0	89510	17.11	-1
0	90056	17.21	-1
0	90602	17.31	-1
0	91148	17.41	-1
0	91694	17.51	-1
0	92240	17.61	-1
0	92786	17.71	-1
0	93332	17.81	-1
0	93878	17.91	-1
0	94432	18.01	-1
0	94978	18.11	-1
0	95524	18.21	-1
0	96070	18.31	-1
0	96616	18.41	-1
0	97162	18.51	-1
0	97708	18.61	-1
0	98254	18.71	-1
0	98800	18.81	-1
0	99346	18.91	-1
0	99900	19.01	-1
0	100446	19.11	-1
0	100992	19.21	-1
0	101538	19.31	-1
0	102084	19.41	-1
0	102630	19.51	-1
0	103176	19.61	-1
0	103722	19.71	-1
0	104268	19.81	-1
0	104814	19.91	-1
0	105368	20.01	-1
0	105914	20.11	-1
0	106460	20.21	-1
0	107006	20.31	-1
0	107552	20.41	-1
0	108098	20.51	-1
0	108644	20.61	-1
0	109190	20.71	-1
0	109736	20.81	-1
0	110282	20.91	-1
0	110836	21.01	-1
0	111382	21.11	-1
0	111928	21.21	-1
0	112474	21.31	-1
0	113020	21.41	-1
0	113566	21.51	-1
0	114112	21.61	-1
0	114658	21.71	-1
0	115204	21.81	-1
0	115750	21.91	-1
0	116304	22.01	-1
0	116850	22.11	-1
0	117396	22.21	-1
0	117942	22.31	-1
0	118488	22.41	-1
0	119034	22.51	-1
0	119580	22.61	-1
0	120126	22.71	-1
0	120672	22.81	-1
0	121218	22.91	-1
0	121772	23.01	-1
0	122318	23.11	-1
0	122864	23.21	-1
0	123410	23.31	-1
0	123956	23.41	-1
0	124502	23.51	-1
0	125048	23.61	-1
0	125594	23.71	-1
0	126140	23.81	-1
0	126686	23.91	-1
0	127240	24.01	-1
0	127786	24.11	-1
0	128332	24.21	-1
0	128878	24.31	-1
0	129424	24.41	-1
0	129970	24.51	-1
0	130516	24.61	-1
0	131062	24.71	-1
0	131608	24.81	-1
0	132154	24.91	-1
0	132708	25.01	-1
0	133254	25.11	-1
0	133800	25.21	-1
0	134346	25.31	-1
0	134892	25.41	-1
0	135438	25.51	-1
0	135984	25.61	-1
0	136530	25.71	-1
0	137076	25.81	-1
0	137622	25.91	-1
0	138176	26.01	-1
0	138722	26.11	-1
0	139268	26.21	-1
0	139814	26.31	-1
0	140360	26.41	-1
0	140906	26.51	-1
0	141452	26.61	-1
0	141998	26.71	-1
0	142544	26.81	-1
0	143090	26.91	-1
0	143644	27.01	-1
0	144190	27.11	-1
0	144736	27.21	-1
0	145282	27.31	-1
0	145828	27.41	-1
0	146374	27.51	-1
0	146920	27.61	-1
0	147466	27.71	-1
0	148012	27.81	-1
0	148558	27.91	-1
0	149112	28.01	-1
0	149658	28.11	-1
0	150204	28.21	-1
0	150750	28.31	-1
0	151296	28.41	-1
0	151842	28.51	-1
0	152388	28.61	-1
0	152934	28.71	-1
0	153480	28.81	-1
0	154026	28.91	-1
0	154580	29.01	-1
0	155126	29.11	-1
0	155672	29.21	-1
0	156218	29.31	-1
0	156764	29.41	-1
0	157310	29.51	-1
0	157856	29.61	-1
0	158402	29.71	-1
0	158948	29.81	-1
0	159494	29.91	-1
0	160048	30.01	-1
0	160594	30.11	-1
0	161140	30.21	-1
0	161686	30.31	-1
0	162232	30.41	-1
0	162778	30.51	-1
0	163324	30.61	-1
0	163870	30.71	-1
0	164416	30.81	-1
0	164962	30.91	-1
0	165516	31.01	-1
0	166062	31.11	-1
0	166608	31.21	-1
0	167154	31.31	-1
0	167700	31.41	-1
0	168246	31.51	-1
0	168792	31.61	-1
0	169338	31.71	-1
0	169884	31.81	-1
0	170430	31.91	-1
0	170984	32.01	-1
0	171530	32.11	-1
0	172076	32.21	-1
0	172622	32.31	-1
0	173168	32.41	-1
0	173714	32.51	-1
0	174260	32.61	-1
0	174806	32.71	-1
0	175352	32.81	-1
0	175898	32.91	-1
0	176452	33.01	-1
0	176998	33.11	-1
0	177544	33.21	-1
0	178090	33.31	-1
0	178636	33.41	-1
0	179182	33.51	-1
0	179728	33.61	-1
0	180274	33.71	-1
0	180820	33.81	-1
0	181366	33.91	-1
0	181920	34.01	-1
0	182466	34.11	-1
0	183012	34.21	-1
0	183558	34.31	-1
0	184104	34.41	-1
0	184650	34.51	-1
0	185196	34.61	-1
0	185742	34.71	-1
0	186288	34.81	-1
0	186834	34.91	-1
0	187388	35.01	-1
0	187934	35.11	-1
0	188480	35.21	-1
0	189026	35.31	-1
0	189572	35.41	-1
0	190118	35.51	-1
0	190664	35.61	-1
0	191210	35.71	-1
0	191756	35.81	-1
0	192302	35.91	-1
0	192856	36.01	-1
0	193402	36.11	-1
0	193948	36.21	-1
0	194494	36.31	-1
0	195040	36.41	-1
0	195586	36.51	-1
0	196132	36.61	-1
0	196678	36.71	-1
0	197224	36.81	-1
0	197770	36.91	-1
0	198324	37.01	-1
0	198870	37.11	-1
0	199416	37.21	-1
0	199962	37.31	-1
0	200508	37.41	-1
0	201054	37.51	-1
0	201600	37.61	-1
0	202146	37.71	-1
0	202692	37.81	-1
0	203238	37.91	-1
0	203792	38.01	-1
0	204338	38.11	-1
0	204884	38.21	-1
0	205430	38.31	-1
0	205976	38.41	-1
0	206522	38.51	-1
0	207068	38.61	-1
0	207614	38.71	-1
0	208160	38.81	-1
0	208706	38.91	-1
0	209260	39.01	-1
0	209806	39.11	-1
0	210352	39.21	-1
0	210898	39.31	-1
0	211444	39.41	-1
0	211990	39.51	-1
0	212536	39.61	-1
0	213082	39.71	-1
0	213628	39.81	-1
0	214174	39.91	-1
0	214728	40.01	-1
0	215274	40.11	-1
0	215820	40.21	-1
0	216366	40.31	-1
0	216912	40.41	-1
0	217458	40.51	-1
0	218004	40.61	-1
0	218550	40.71	-1
0	219096	40.81	-1
0	219642	40.91	-1
0	220196	41.01	-1
0	220742	41.11	-1
0	221288	41.21	-1
0	221834	41.31	-1
0	222380	41.41	-1
0	222926	41.51	-1
0	223472	41.61	-1
0	224018	41.71	-1
0	224564	41.81	-1
0	225110	41.91	-1
0	225664	42.01	-1
0	226210	42.11	-1
0	226756	42.21	-1
0	227302	42.31	-1
0	227848	42.41	-1
0	228394	42.51	-1
0	228940	42.61	-1
0	229486	42.71	-1
0	230032	42.81	-1
0	230578	42.91	-1
0	231132	43.01	-1
0	231678	43.11	-1
0	232224	43.21	-1
0	232770	43.31	-1
0	233316	43.41	-1
0	233862	43.51	-1
0	234408	43.61	-1
0	234954	43.71	-1
0	235500	43.81	-1
0	236046	43.91	-1
0	236600	44.01	-1
0	237146	44.11	-1
0	237692	44.21	-1
0	238238	44.31	-1
0	238784	44.41	-1
0	239330	44.51	-1
0	239876	44.61	-1
0	240422	44.71	-1
0	240968	44.81	-1
0	241514	44.91	-1
0	242068	45.01	-1
0	242614	45.11	-1
0	243160	45.21	-1
0	243706	45.31	-1
0	244252	45.41	-1
0	244798	45.51	-1
0	245344	45.61	-1
0	245890	45.71	-1
0	246436	45.81	-1
0	246982	45.91	-1
0	247536	46.01	-1
0	248082	46.11	-1
0	248628	46.21	-1
0	249174	46.31	-1
0	249720	46.41	-1
0	250266	46.51	-1
0	250812	46.61	-1
0	251358	46.71	-1
0	251904	46.81	-1
0	252450	46.91	-1
0	253004	47.01	-1
0	253550	47.11	-1
0	254096	47.21	-1
0	254642	47.31	-1
0	255188	47.41	-1
0	255734	47.51	-1
0	256280	47.61	-1
0	256826	47.71	-1
0	257372	47.81	-1
0	257918	47.91	-1
0	258472	48.01	-1
0	259018	48.11	-1
0	259564	48.21	-1
0	260110	48.31	-1
0	260656	48.41	-1
0	261202	48.51	-1
0	261748	48.61	-1
0	262294	48.71	-1
0	262840	48.81	-1
0	263386	48.91	-1
0	263940	49.01	-1
0	264486	49.11	-1
0	265032	49.21	-1
0	265578	49.31	-1
0	266124	49.41	-1
0	266670	49.51	-1
0	267216	49.61	-1
0	267762	49.71	-1
0	268308	49.81	-1
0	268854	49.91	-1
0	269408	50.01	-1
0	269954	50.11	-1
0	270500	50.21	-1
0	271046	50.31	-1
0	271592	50.41	-1
0	272138	50.51	-1
0	272684	50.61	-1
0	273230	50.71	-1
0	273776	50.81	-1
0	274322	50.91	-1
0	274876	51.01	-1
0	275422	51.11	-1
0	275968	51.21	-1
0	276514	51.31	-1
0	277060	51.41	-1
0	277606	51.51	-1
0	278152	51.61	-1
0	278698	51.71	-1
0	279244	51.81	-1
0	279790	51.91	-1
0	280344	52.01	-1
0	280890	52.11	-1
0	281436	52.21	-1
0	281982	52.31	-1
0	282528	52.41	-1
0	283074	52.51	-1
0	283620	52.61	-1
0	284166	52.71	-1
0	284712	52.81	-1
0	285258	52.91	-1
0	285812	53.01	-1
0	286358	53.11	-1
0	286904	53.21	-1
0	287450	53.31	-1
0	287996	53.41	-1
0	288542	53.51	-1
0	289088	53.61	-1
0	289634	53.71	-1
0	290180	53.81	-1
0	290726	53.91	-1
0	291280	54.01	-1
0	291826	54.11	-1
0	292372	54.21	-1
0	292918	54.31	-1
0	293464	54.41	-1
0	294010	54.51	-1
0	294556	54.61	-1
0	295102	54.71	-1
0	295648	54.81	-1
0	296194	54.91	-1
0	296748	55.01	-1
0	297294	55.11	-1
0	297840	55.21	-1
0	298386	55.31	-1
0	298932	55.41	-1
0	299478	55.51	-1
0	300024	55.61	-1
0	300570	55.71	-1
0	301116	55.81	-1
0	301662	55.91	-1
0	302216	56.01	-1
0	302762	56.11	-1
0	303308	56.21	-1
0	303854	56.31	-1
0	304400	56.41	-1
0	304946	56.51	-1
0	305492	56.61	-1
0	306038	56.71	-1
0	306584	56.81	-1
0	307130	56.91	-1
0	307684	57.01	-1
0	308230	57.11	-1
0	308776	57.21	-1
0	309322	57.31	-1
0	309868	57.41	-1
0	310414	57.51	-1
0	310960	57.61	-1
0	311506	57.71	-1
0	312052	57.81	-1
0	312598	57.91	-1
0	313152	58.01	-1
0	313698	58.11	-1
0	314244	58.21	-1
0	314790	58.31	-1
0	315336	58.41	-1
0	315882	58.51	-1
0	316428	58.61	-1
0	316974	58.71	-1
0	317520	58.81	-1
0	318066	58.91	-1
0	318620	59.01	-1
0	319166	59.11	-1
0	319712	59.21	-1
0	320258	59.31	-1
0	320804	59.41	-1
0	321350	59.51	-1
0	321896	59.61	-1
0	322442	59.71	30.6155
0	322988	59.81	30.8488
0	323534	59.91	31.0822
0	324088	60.01	31.3155
0	324634	60.11	31.5488
0	325180	60.21	31.7821
0	325726	60.31	32.0155
0	326272	60.41	32.2488
0	326818	60.51	32.4821
0	327364	60.61	32.7155
0	327910	60.71	32.9488
0	328456	60.81	33.1821
0	329002	60.91	33.4155
0	329556	61.01	33.6488
0	330102	61.11	33.8821
0	330648	61.21	34.1154
0	331194	61.31	34.3488
0	331740	61.41	34.5821
0	332286	61.51	34.8154
0	332832	61.61	35.0488
0	333378	61.71	35.2821
0	333924	61.81	35.5154
0	334470	61.91	35.7488
0	335024	62.01	35.9821
0	335570	62.11	36.2154
0	336116	62.21	36.4487
0	336662	62.31	36.6821
0	337208	62.41	36.9154
0	337754	62.51	37.1487
0	338300	62.61	37.3821
0	338846	62.71	37.6154
0	339392	62.81	37.8487
0	339938	62.91	38.0821
0	340492	63.01	38.3154
0	341038	63.11	38.5487
0	341584	63.21	38.782
0	342130	63.31	39.0154
0	342676	63.41	39.2487
0	343222	63.51	39.482
0	343768	63.61	39.7154
0	344314	63.71	39.9487
0	344860	63.81	40.182
0	345406	63.91	40.4154
0	345960	64.01	40.6487
0	346506	64.11	40.882
0	347052	64.21	41.1153
0	347598	64.31	41.3487
0	348144	64.41	41.582
0	348690	64.51	41.8153
0	349236	64.61	42.0487
0	349782	64.71	42.282
0	350328	64.81	42.5153
0	350874	64.91	42.7487
0	351428	65.01	42.982
0	351974	65.11	43.2153
0	352520	65.21	43.4486
0	353066	65.31	43.682
0	353612	65.41	43.9153
0	354158	65.51	44.1486
0	354704	65.61	44.382
0	355250	65.71	44.6153
0	355796	65.81	44.8486
0	356342	65.91	45.082
0	356896	66.01	45.3153
0	357442	66.11	45.5486
0	357988	66.21	45.7819
0	358534	66.31	46.0153
0	359080	66.41	46.2486
0	359626	66.51	46.4819
0	360172	66.61	46.7153
0	360718	66.71	46.9486
0	361264	66.81	47.1819
0	361810	66.91	47.4153
0	362364	67.01	47.6486
0	362910	67.11	47.8819
0	363456	67.21	48.1152
0	364002	67.31	48.3486
0	364548	67.41	48.5819
0	365094	67.51	48.8152
0	365640	67.61	49.0486
0	366186	67.71	49.2819
0	366732	67.81	49.5152
0	367278	67.91	49.7486
0	367832	68.01	49.9819
0	368378	68.11	50.2152
0	368924	68.21	50.4485
0	369470	68.31	50.6819
0	370016	68.41	50.9152
0	370562	68.51	51.1485
0	371108	68.61	51.3819
0	371654	68.71	51.6152
0	372200	68.81	51.8485
0	372746	68.91	52.0819
0	373300	69.01	52.3152
0	373846	69.11	52.5485
0	374392	69.21	52.7818
0	374938	69.31	53.0152
0	375484	69.41	53.2485
0	376030	69.51	53.4818
0	376576	69.61	53.7152
0	377122	69.71	53.9485
0	377668	69.81	54.1818
0	378214	69.91	54.4152
0	378768	70.01	54.6485
0	379314	70.11	54.8818
0	379860	70.21	55.1151
0	380406	70.31	55.3485
0	380952	70.41	55.5818
0	381498	70.51	55.8151
0	382044	70.61	56.0485
0	382590	70.71	56.2818
0	383136	70.81	56.5151
0	383682	70.91	56.7485
0	384236	71.01	56.9818
0	384782	71.11	57.2151
0	385328	71.21	57.4484
0	385874	71.31	57.6818
0	386420	71.41	57.9151
0	386966	71.51	58.1484
0	387512	71.61	58.3818
0	388058	71.71	58.6151
0	388604	71.81	58.8484
0	389150	71.91	59.0818
0	389704	72.01	59.3151
0	390250	72.11	59.5484
0	390796	72.21	59.7817
0	391342	72.31	60.0151
0	391888	72.41	60.2484
0	392434	72.51	60.4817
0	392980	72.61	60.7151
0	393526	72.71	60.9484
0	394072	72.81	61.1817
0	394618	72.91	61.4151
0	395172	73.01	61.6484
0	395718	73.11	61.8817
0	396264	73.21	62.115
0	396810	73.31	62.3484
0	397356	73.41	62.5817
0	397902	73.51	62.815
0	398448	73.61	63.0484
0	398994	73.71	63.2817
0	399540	73.81	63.515
0	400086	73.91	63.7484
0	400640	74.01	63.9817
0	401186	74.11	64.215
0	401732	74.21	64.4483
0	402278	74.31	64.6817
0	402824	74.41	64.915
0	403370	74.51	65.1483
0	403916	74.61	65.3817
0	404462	74.71	65.615
0	405008	74.81	65.8483
0	405554	74.91	66.0817
0	406108	75.01	66.315
0	406654	75.11	66.5483
0	407200	75.21	66.7816
0	407746	75.31	67.015
0	408292	75.41	67.2483
0	408838	75.51	67.4816
0	409384	75.61	67.715
0	409930	75.71	67.9483
0	410476	75.81	68.1816
0	411022	75.91	68.415
0	411576	76.01	68.6483
0	412122	76.11	68.8816
0	412668	76.21	69.1149
0	413214	76.31	69.3483
0	413760	76.41	69.5816
0	414306	76.51	69.8149
0	414852	76.61	70.0483
0	415398	76.71	70.2816
0	415944	76.81	70.5149
0	416490	76.91	70.7483
0	417044	77.01	70.9816
0	417590	77.11	71.2149
0	418136	77.21	71.4482
0	418682	77.31	71.6816
0	419228	77.41	71.9149
0	419774	77.51	72.1482
0	420320	77.61	72.3816
0	420866	77.71	72.6149
0	421412	77.81	72.8482
0	421958	77.91	73.0816
0	422512	78.01	73.3149
0	423058	78.11	73.5482
0	423604	78.21	73.7815
0	424150	78.31	74.0149
0	424696	78.41	74.2482
0	425242	78.51	74.4815
0	425788	78.61	74.7149
0	426334	78.71	74.9482
0	426880	78.81	75.1815
0	427426	78.91	75.4149
0	427980	79.01	75.6482
0	428526	79.11	75.8815
0	429072	79.21	76.1148
0	429618	79.31	76.3482
0	430164	79.41	76.5815
0	430710	79.51	76.8148
0	431256	79.61	77.0482
0	431802	79.71	77.2815
0	432348	79.81	77.5148
0	432894	79.91	77.7482
0	433448	80.01	77.9815
0	433994	80.11	78.2148
0	434540	80.21	78.4481
0	435086	80.31	78.6815
0	435632	80.41	78.9148
0	436178	80.51	79.1481
0	436724	80.61	79.3815
0	437270	80.71	79.6148
0	437816	80.81	79.8481
0	438362	80.91	80.0815
0	438916	81.01	80.3148
0	439462	81.11	80.5481
0	440008	81.21	80.7814
0	440554	81.31	81.0148
0	441100	81.41	81.2481
0	441646	81.51	81.4814
0	442192	81.61	81.7148
0	442738	81.71	81.9481
0	443284	81.81	82.1814
0	443830	81.91	82.4148
0	444384	82.01	82.6481
0	444930	82.11	82.8814
0	445476	82.21	83.1147
0	446022	82.31	83.3481
0	446568	82.41	83.5814
0	447114	82.51	83.8147
0	447660	82.61	84.0481
0	448206	82.71	84.2814
0	448752	82.81	84.5147
0	449298	82.91	84.7481
0	449852	83.01	84.9814
0	450398	83.11	85.2147
0	450944	83.21	85.448
0	451490	83.31	85.6814
0	452036	83.41	85.9147
0	452582	83.51	86.148
0	453128	83.61	86.3814
0	453674	83.71	86.6147
0	454220	83.81	86.848
0	454766	83.91	87.0814
0	455320	84.01	87.3147
0	455866	84.11	87.548
0	456412	84.21	87.7813
0	456958	84.31	88.0147
0	457504	84.41	88.248
0	458050	84.51	88.4813
0	458596	84.61	88.7147
0	459142	84.71	88.948
0	459688	84.81	89.1813
0	460234	84.91	89.4147
0	460788	85.01	89.648
0	461334	85.11	89.8813
0	461880	85.21	90.1146
0	462426	85.31	90.348
0	462972	85.41	90.5813
0	463518	85.51	90.8146
0	464064	85.61	91.048
0	464610	85.71	91.2813
0	465156	85.81	91.5146
0	465702	85.91	91.748
0	466256	86.01	91.9813
0	466802	86.11	92.2146
0	467348	86.21	92.4479
0	467894	86.31	92.6813
0	468440	86.41	92.9146
0	468986	86.51	93.1479
0	469532	86.61	93.3813
0	470078	86.71	93.6146
0	470624	86.81	93.8479
0	471170	86.91	94.0813
0	471724	87.01	94.3146
0	472270	87.11	94.5479
0	472816	87.21	94.7812
0	473362	87.31	95.0146
0	473908	87.41	95.2479
0	474454	87.51	95.4812
0	475000	87.61	95.7146
0	475546	87.71	95.9479
0	476092	87.81	96.1812
0	476638	87.91	96.4146
0	477192	88.01	96.6479
0	477738	88.11	96.8812
0	478284	88.21	97.1145
0	478830	88.31	97.3479
0	479376	88.41	97.5812
0	479922	88.51	97.8145
0	480468	88.61	98.0479
0	481014	88.71	98.2812
0	481560	88.81	98.5145
0	482106	88.91	98.7479
0	482660	89.01	98.9812
0	483206	89.11	99.2145
0	483752	89.21	99.4478
0	484298	89.31	99.6812
0	484844	89.41	99.9145
0	485390	89.51	100.148
0	485936	89.61	100.381
0	486482	89.71	100.614
0	487028	89.81	100.848
0	487574	89.91	101.081
0	488128	90.01	101.314
0	488674	90.11	101.548
0	489220	90.21	101.781
0	489766	90.31	102.014
0	490312	90.41	102.248
0	490858	90.51	102.481
0	491404	90.61	102.714
0	491950	90.71	102.948
0	492496	90.81	103.181
0	493042	90.91	103.414
0	493596	91.01	103.648
0	494142	91.11	103.881
0	494688	91.21	104.114
0	495234	91.31	104.348
0	495780	91.41	104.581
0	496326	91.51	104.814
0	496872	91.61	105.048
0	497418	91.71	105.281
0	497964	91.81	105.514
0	498510	91.91	105.748
0	499064	92.01	105.981
0	499610	92.11	106.214
0	500156	92.21	106.448
0	500702	92.31	106.681
0	501248	92.41	106.914
0	501794	92.51	107.148
0	502340	92.61	107.381
0	502886	92.71	107.614
0	503432	92.81	107.848
0	503978	92.91	108.081
0	504532	93.01	108.314
0	505078	93.11	108.548
0	505624	93.21	108.781
0	506170	93.31	109.014
0	506716	93.41	109.248
0	507262	93.51	109.481
0	507808	93.61	109.714
0	508354	93.71	109.948
0	508900	93.81	110.181
0	509446	93.91	110.414
0	510000	94.01	110.648
0	510546	94.11	110.881
0	511092	94.21	111.114
0	511638	94.31	111.348
0	512184	94.41	111.581
0	512730	94.51	111.814
0	513276	94.61	112.048
0	513822	94.71	112.281
0	514368	94.81	112.514
0	514914	94.91	112.748
0	515468	95.01	112.981
0	516014	95.11	113.214
0	516560	95.21	113.448
0	517106	95.31	113.681
0	517652	95.41	113.914
0	518198	95.51	114.148
0	518744	95.61	114.381
0	519290	95.71	114.614
0	519836	95.81	114.848
0	520382	95.91	115.081
0	520936	96.01	115.314
0	521482	96.11	115.548
0	522028	96.21	115.781
0	522574	96.31	116.014
0	523120	96.41	116.248
0	523666	96.51	116.481
0	524212	96.61	116.714
0	524758	96.71	116.948
0	525304	96.81	117.181
0	525850	96.91	117.414
0	526404	97.01	117.648
0	526950	97.11	117.881
0	527496	97.21	118.114
0	528042	97.31	118.348
0	528588	97.41	118.581
0	529134	97.51	118.814
0	529680	97.61	119.048
0	530226	97.71	119.281
0	530772	97.81	119.514
0	531318	97.91	119.748
0	531872	98.01	119.981
0	532418	98.11	120.214
0	532964	98.21	120.448
0	533510	98.31	120.681
0	534056	98.41	120.914
0	534602	98.51	121.148
0	535148	98.61	121.381
0	535694	98.71	121.614
0	536240	98.81	121.848
0	536786	98.91	122.081
0	537340	99.01	122.314
0	537886	99.11	122.548
0	538432	99.21	122.781
0	538978	99.31	123.014
0	539524	99.41	123.248
0	540070	99.51	123.481
0	540616	99.61	123.714
0	541162	99.71	123.947
0	541708	99.81	124.181
0	542254	99.91	124.414
1	113	1.11	0
1	659	1.21	0
1	1205	1.31	0
1	1751	1.41	0
1	2297	1.51	0
1	2843	1.61	0
1	3389	1.71	0
1	3935	1.81	0
1	4481	1.91	0
1	5035	2.01	0
1	5581	2.11	0
1	6127	2.21	0
1	6673	2.31	0
1	7219	2.41	0
1	7765	2.51	0
1	8311	2.61	0
1	8857	2.71	0
1	9403	2.81	0
1	9949	2.91	0
1	10503	3.01	0
1	11049	3.11	0
1	11595	3.21	0
1	12141	3.31	0
1	12687	3.41	0
1	13233	3.51	0
1	13779	3.61	0
1	14325	3.71	0
1	14871	3.81	0
1	15417	3.91	0
1	15971	4.01	0
1	16517	4.11	0
1	17063	4.21	0
1	17609	4.31	0
1	18155	4.41	0
1	18701	4.51	0
1	19247	4.61	0
1	19793	4.71	0
1	20339	4.81	0
1	20885	4.91	0
1	21439	5.01	0
1	21985	5.11	0
1	22531	5.21	0
1	23077	5.31	0
1	23623	5.41	0
1	24169	5.51	0
1	24715	5.61	0
1	25261	5.71	0
1	25807	5.81	0
1	26353	5.91	0
1	26907	6.01	0
1	27453	6.11	0
1	27999	6.21	0
1	28545	6.31	0
1	29091	6.41	0
1	29637	6.51	0
1	30183	6.61	0
1	30729	6.71	0
1	31275	6.81	0
1	31821	6.91	0
1	32375	7.01	0
1	32921	7.11	0
1	33467	7.21	0
1	34013	7.31	0
1	34559	7.41	0
1	35105	7.51	0
1	35651	7.61	0
1	36197	7.71	0
1	36743	7.81	0
1	37289	7.91	0
1	37843	8.01	0
1	38389	8.11	0
1	38935	8.21	0
1	39481	8.31	0
1	40027	8.41	0
1	40573	8.51	0
1	41119	8.61	0
1	41665	8.71	0
1	42211	8.81	0
1	42757	8.91	0
1	43311	9.01	0
1	43857	9.11	0
1	44403	9.21	0
1	44949	9.31	0
1	45495	9.41	0
1	46041	9.51	0
1	46587	9.61	0
1	47133	9.71	0
1	47679	9.81	0
1	48225	9.91	0
1	50688	10.01	0
1	51234	10.11	0
1	51780	10.21	0
1	52326	10.31	0
1	52872	10.41	0
1	53418	10.51	0
1	53964	10.61	0
1	54510	10.71	0
1	55056	10.81	0
1	55602	10.91	0
1	56156	11.01	0
1	56702	11.11	0
1	57248	11.21	0
1	57794	11.31	0
1	58340	11.41	0
1	58886	11.51	0
1	59432	11.61	0
1	59978	11.71	0
1	60524	11.81	0
1	61070	11.91	0
1	61624	12.01	0
1	62170	12.11	0
1	62716	12.21	0
1	63262	12.31	0
1	63808	12.41	0
1	64354	12.51	0
1	64900	12.61	0
1	65446	12.71	0
1	65992	12.81	0
1	66538	12.91	0
1	67092	13.01	0
1	67638	13.11	0
1	68184	13.21	0
1	68730	13.31	0
1	69276	13.41	0
1	69822	13.51	0
1	70368	13.61	0
1	70914	13.71	0
1	71460	13.81	0
1	72006	13.91	0
1	72560	14.01	0
1	73106	14.11	0
1	73652	14.21	0
1	74198	14.31	0
1	74744	14.41	0
1	75290	14.51	0
1	75836	14.61	0
1	76382	14.71	0
1	76928	14.81	0
1	77474	14.91	0
1	78028	15.01	0
1	78574	15.11	0
1	79120	15.21	0
1	79666	15.31	0
1	80212	15.41	0
1	80758	15.51	0
1	81304	15.61	0
1	81850	15.71	0
1	82396	15.81	0
1	82942	15.91	0
1	83496	16.01	0
1	84042	16.11	0
1	84588	16.21	0
1	85134	16.31	0
1	85680	16.41	0
1	86226	16.51	0
1	86772	16.61	0
1	87318	16.71	0
1	87864	16.81	0
1	88410	16.91	0
1	88964	17.01	0
1	89510	17.11	0
1	90056	17.21	0
1	90602	17.31	0
1	91148	17.41	0
1	91694	17.51	0
1	92240	17.61	0
1	92786	17.71	0
1	93332	17.81	0
1	93878	17.91	0
1	94432	18.01	0
1	94978	18.11	0
1	95524	18.21	0
1	96070	18.31	0
1	96616	18.41	0
1	97162	18.51	0
1	97708	18.61	0
1	98254	18.71	0
1	98800	18.81	0
1	99346	18.91	0
1	99900	19.01	0
1	100446	19.11	0
1	100992	19.21	0
1	101538	19.31	0
1	102084	19.41	0
1	102630	19.51	0
1	103176	19.61	0
1	103722	19.71	0
1	104268	19.81	0
1	104814	19.91	0
1	105368	20.01	0
1	105914	20.11	0
1	106460	20.21	0
1	107006	20.31	0
1	107552	20.41	0
1	108098	20.51	0
1	108644	20.61	0
1	109190	20.71	0
1	109736	20.81	0
1	110282	20.91	0
1	110836	21.01	0
1	111382	21.11	0
1	111928	21.21	0
1	112474	21.31	0
1	113020	21.41	0
1	113566	21.51	0
1	114112	21.61	0
1	114658	21.71	0
1	115204	21.81	0
1	115750	21.91	0
1	116304	22.01	0
1	116850	22.11	0
1	117396	22.21	0
1	117942	22.31	0
1	118488	22.41	0
1	119034	22.51	0
1	119580	22.61	0
1	120126	22.71	0
1	120672	22.81	0
1	121218	22.91	0
1	121772	23.01	0
1	122318	23.11	0
1	122864	23.21	0
1	123410	23.31	0
1	123956	23.41	0
1	124502	23.51	0
1	125048	23.61	0
1	125594	23.71	0
1	126140	23.81	0
1	126686	23.91	0
1	127240	24.01	0
1	127786	24.11	0
1	128332	24.21	0
1	128878	24.31	0
1	129424	24.41	0
1	129970	24.51	0
1	130516	24.61	0
1	131062	24.71	0
1	131608	24.81	0
1	132154	24.91	0
1	132708	25.01	0
1	133254	25.11	0
1	133800	25.21	0
1	134346	25.31	0
1	134892	25.41	0
1	135438	25.51	0
1	135984	25.61	0
1	136530	25.71	0
1	137076	25.81	0
1	137622	25.91	0
1	138176	26.01	0
1	138722	26.11	0
1	139268	26.21	0
1	139814	26.31	0
1	140360	26.41	0
1	140906	26.51	0
1	141452	26.61	0
1	141998	26.71	0
1	142544	26.81	0
1	143090	26.91	0
1	143644	27.01	0
1	144190	27.11	0
1	144736	27.21	0
1	145282	27.31	0
1	145828	27.41	0
1	146374	27.51	0
1	146920	27.61	0
1	147466	27.71	0
1	148012	27.81	0
1	148558	27.91	0
1	149112	28.01	0
1	149658	28.11	0
1	150204	28.21	0
1	150750	28.31	0
1	151296	28.41	0
1	151842	28.51	0
1	152388	28.61	0
1	152934	28.71	0
1	153480	28.81	0
1	154026	28.91	0
1	154580	29.01	0
1	155126	29.11	0
1	155672	29.21	0
1	156218	29.31	0
1	156764	29.41	0
1	157310	29.51	0
1	157856	29.61	0
1	158402	29.71	0
1	158948	29.81	0
1	159494	29.91	0
1	160048	30.01	0
1	160594	30.11	0
1	161140	30.21	0
1	161686	30.31	0
1	162232	30.41	0
1	162778	30.51	0
1	163324	30.61	0
1	163870	30.71	0
1	164416	30.81	0
1	164962	30.91	0
1	165516	31.01	0
1	166062	31.11	0
1	166608	31.21	0
1	167154	31.31	0
1	167700	31.41	0
1	168246	31.51	0
1	168792	31.61	0
1	169338	31.71	0
1	169884	31.81	0
1	170430	31.91	0
1	170984	32.01	0
1	171530	32.11	0
1	172076	32.21	0
1	172622	32.31	0
1	173168	32.41	0
1	173714	32.51	0
1	174260	32.61	0
1	174806	32.71	0
1	175352	32.81	0
1	175898	32.91	0
1	176452	33.01	0
1	176998	33.11	0
1	177544	33.21	0
1	178090	33.31	0
1	178636	33.41	0
1	179182	33.51	0
1	179728	33.61	0
1	180274	33.71	0
1	180820	33.81	0
1	181366	33.91	0
1	181920	34.01	0
1	182466	34.11	0
1	183012	34.21	0
1	183558	34.31	0
1	184104	34.41	0
1	184650	34.51	0
1	185196	34.61	0
1	185742	34.71	0
1	186288	34.81	0
1	186834	34.91	0
1	187388	35.01	0
1	187934	35.11	0
1	188480	35.21	0
1	189026	35.31	0
1	189572	35.41	0
1	190118	35.51	0
1	190664	35.61	0
1	191210	35.71	0
1	191756	35.81	0
1	192302	35.91	0
1	192856	36.01	0
1	193402	36.11	0
1	193948	36.21	0
1	194494	36.31	0
1	195040	36.41	0
1	195586	36.51	0
1	196132	36.61	0
1	196678	36.71	0
1	197224	36.81	0
1	197770	36.91	0
1	198324	37.01	0
1	198870	37.11	0
1	199416	37.21	0
1	199962	37.31	0
1	200508	37.41	0
1	201054	37.51	0
1	201600	37.61	0
1	202146	37.71	0
1	202692	37.81	0
1	203238	37.91	0
1	203792	38.01	0
1	204338	38.11	0
1	204884	38.21	0
1	205430	38.31	0
1	205976	38.41	0
1	206522	38.51	0
1	207068	38.61	0
1	207614	38.71	0
1	208160	38.81	0
1	208706	38.91	0
1	209260	39.01	0
1	209806	39.11	0
1	210352	39.21	0
1	210898	39.31	0
1	211444	39.41	0
1	211990	39.51	0
1	212536	39.61	0
1	213082	39.71	0
1	213628	39.81	0
1	214174	39.91	0
1	214728	40.01	0
1	215274	40.11	0
1	215820	40.21	0
1	216366	40.31	0
1	216912	40.41	0
1	217458	40.51	0
1	218004	40.61	0
1	218550	40.71	0
1	219096	40.81	0
1	219642	40.91	0
1	220196	41.01	0
1	220742	41.11	0
1	221288	41.21	0
1	221834	41.31	0
1	222380	41.41	0
1	222926	41.51	0
1	223472	41.61	0
1	224018	41.71	0
1	224564	41.81	0
1	225110	41.91	0
1	225664	42.01	0
1	226210	42.11	0
1	226756	42.21	0
1	227302	42.31	0
1	227848	42.41	0
1	228394	42.51	0
1	228940	42.61	0
1	229486	42.71	0
1	230032	42.81	0
1	230578	42.91	0
1	231132	43.01	0
1	231678	43.11	0
1	232224	43.21	0
1	232770	43.31	0
1	233316	43.41	0
1	233862	43.51	0
1	234408	43.61	0
1	234954	43.71	0
1	235500	43.81	0
1	236046	43.91	0
1	236600	44.01	0
1	237146	44.11	0
1	237692	44.21	0
1	238238	44.31	0
1	238784	44.41	0
1	239330	44.51	0
1	239876	44.61	0
1	240422	44.71	0
1	240968	44.81	0
1	241514	44.91	0
1	242068	45.01	0
1	242614	45.11	0
1	243160	45.21	0
1	243706	45.31	0
1	244252	45.41	0
1	244798	45.51	0
1	245344	45.61	0
1	245890	45.71	0
1	246436	45.81	0
1	246982	45.91	0
1	247536	46.01	0
1	248082	46.11	0
1	248628	46.21	0
1	249174	46.31	0
1	249720	46.41	0
1	250266	46.51	0
1	250812	46.61	0
1	251358	46.71	0
1	251904	46.81	0
1	252450	46.91	0
1	253004	47.01	0
1	253550	47.11	0
1	254096	47.21	0
1	254642	47.31	0
1	255188	47.41	0
1	255734	47.51	0
1	256280	47.61	0
1	256826	47.71	0
1	257372	47.81	0
1	257918	47.91	0
1	258472	48.01	0
1	259018	48.11	0
1	259564	48.21	0
1	260110	48.31	0
1	260656	48.41	0
1	261202	48.51	0
1	261748	48.61	0
1	262294	48.71	0
1	262840	48.81	0
1	263386	48.91	0
1	263940	49.01	0
1	264486	49.11	0
1	265032	49.21	0
1	265578	49.31	0
1	266124	49.41	0
1	266670	49.51	0
1	267216	49.61	0
1	267762	49.71	0
1	268308	49.81	0
1	268854	49.91	0
1	269408	50.01	0
1	269954	50.11	0
1	270500	50.21	0
1	271046	50.31	0
1	271592	50.41	0
1	272138	50.51	0
1	272684	50.61	0
1	273230	50.71	0
1	273776	50.81	0
1	274322	50.91	0
1	274876	51.01	0
1	275422	51.11	0
1	275968	51.21	0
1	276514	51.31	0
1	277060	51.41	0
1	277606	51.51	0
1	278152	51.61	0
1	278698	51.71	0
1	279244	51.81	0
1	279790	51.91	0
1	280344	52.01	0
1	280890	52.11	0
1	281436	52.21	0
1	281982	52.31	0
1	282528	52.41	0
1	283074	52.51	0
1	283620	52.61	0
1	284166	52.71	0
1	284712	52.81	0
1	285258	52.91	0
1	285812	53.01	0
1	286358	53.11	0
1	286904	53.21	0
1	287450	53.31	0
1	287996	53.41	0
1	288542	53.51	0
1	289088	53.61	0
1	289634	53.71	0
1	290180	53.81	0
1	290726	53.91	0
1	291280	54.01	0
1	291826	54.11	0
1	292372	54.21	0
1	292918	54.31	0
1	293464	54.41	0
1	294010	54.51	0
1	294556	54.61	0
1	295102	54.71	0
1	295648	54.81	0
1	296194	54.91	0
1	296748	55.01	0
1	297294	55.11	0
1	297840	55.21	0
1	298386	55.31	0
1	298932	55.41	0
1	299478	55.51	0
1	300024	55.61	0
1	300570	55.71	0
1	301116	55.81	0
1	301662	55.91	0
1	302216	56.01	0
1	302762	56.11	0
1	303308	56.21	0
1	303854	56.31	0
1	304400	56.41	0
1	304946	56.51	0
1	305492	56.61	0
1	306038	56.71	0
1	306584	56.81	0
1	307130	56.91	0
1	307684	57.01	0
1	308230	57.11	0
1	308776	57.21	0
1	309322	57.31	0
1	309868	57.41	0
1	310414	57.51	0
1	310960	57.61	0
1	311506	57.71	0
1	312052	57.81	0
1	312598	57.91	0
1	313152	58.01	0
1	313698	58.11	0
1	314244	58.21	0
1	314790	58.31	0
1	315336	58.41	0
1	315882	58.51	0
1	316428	58.61	0
1	316974	58.71	0
1	317520	58.81	0
1	318066	58.91	0
1	318620	59.01	0
1	319166	59.11	0
1	319712	59.21	0
1	320258	59.31	0
1	320804	59.41	0
1	321350	59.51	0
1	321896	59.61	0
1	322442	59.71	2.3333
1	322988	59.81	2.3333
1	323534	59.91	2.3333
1	324088	60.01	2.3333
1	324634	60.11	2.3333
1	325180	60.21	2.3333
1	325726	60.31	2.3333
1	326272	60.41	2.3333
1	326818	60.51	2.3333
1	327364	60.61	2.3333
1	327910	60.71	2.3333
1	328456	60.81	2.3333
1	329002	60.91	2.3333
1	329556	61.01	2.3333
1	330102	61.11	2.3333
1	330648	61.21	2.3333
1	331194	61.31	2.3333
1	331740	61.41	2.3333
1	332286	61.51	2.3333
1	332832	61.61	2.3333
1	333378	61.71	2.3333
1	333924	61.81	2.3333
1	334470	61.91	2.3333
1	335024	62.01	2.3333
1	335570	62.11	2.3333
1	336116	62.21	2.3333
1	336662	62.31	2.3333
1	337208	62.41	2.3333
1	337754	62.51	2.3333
1	338300	62.61	2.3333
1	338846	62.71	2.3333
1	339392	62.81	2.3333
1	339938	62.91	2.3333
1	340492	63.01	2.3333
1	341038	63.11	2.3333
1	341584	63.21	2.3333
1	342130	63.31	2.3333
1	342676	63.41	2.3333
1	343222	63.51	2.3333
1	343768	63.61	2.3333
1	344314	63.71	2.3333
1	344860	63.81	2.3333
1	345406	63.91	2.3333
1	345960	64.01	2.3333
1	346506	64.11	2.3333
1	347052	64.21	2.3333
1	347598	64.31	2.3333
1	348144	64.41	2.3333
1	348690	64.51	2.3333
1	349236	64.61	2.3333
1	349782	64.71	2.3333
1	350328	64.81	2.3333
1	350874	64.91	2.3333
1	351428	65.01	2.3333
1	351974	65.11	2.3333
1	352520	65.21	2.3333
1	353066	65.31	2.3333
1	353612	65.41	2.3333
1	354158	65.51	2.3333
1	354704	65.61	2.3333
1	355250	65.71	2.3333
1	355796	65.81	2.3333
1	356342	65.91	2.3333
1	356896	66.01	2.3333
1	357442	66.11	2.3333
1	357988	66.21	2.3333
1	358534	66.31	2.3333
1	359080	66.41	2.3333
1	359626	66.51	2.3333
1	360172	66.61	2.3333
1	360718	66.71	2.3333
1	361264	66.81	2.3333
1	361810	66.91	2.3333
1	362364	67.01	2.3333
1	362910	67.11	2.3333
1	363456	67.21	2.3333
1	364002	67.31	2.3333
1	364548	67.41	2.3333
1	365094	67.51	2.3333
1	365640	67.61	2.3333
1	366186	67.71	2.3333
1	366732	67.81	2.3333
1	367278	67.91	2.3333
1	367832	68.01	2.3333
1	368378	68.11	2.3333
1	368924	68.21	2.3333
1	369470	68.31	2.3333
1	370016	68.41	2.3333
1	370562	68.51	2.3333
1	371108	68.61	2.3333
1	371654	68.71	2.3333
1	372200	68.81	2.3333
1	372746	68.91	2.3333
1	373300	69.01	2.3333
1	373846	69.11	2.3333
1	374392	69.21	2.3333
1	374938	69.31	2.3333
1	375484	69.41	2.3333
1	376030	69.51	2.3333
1	376576	69.61	2.3333
1	377122	69.71	2.3333
1	377668	69.81	2.3333
1	378214	69.91	2.3333
1	378768	70.01	2.3333
1	379314	70.11	2.3333
1	379860	70.21	2.3333
1	380406	70.31	2.3333
1	380952	70.41	2.3333
1	381498	70.51	2.3333
1	382044	70.61	2.3333
1	382590	70.71	2.3333
1	383136	70.81	2.3333
1	383682	70.91	2.3333
1	384236	71.01	2.3333
1	384782	71.11	2.3333
1	385328	71.21	2.3333
1	385874	71.31	2.3333
1	386420	71.41	2.3333
1	386966	71.51	2.3333
1	387512	71.61	2.3333
1	388058	71.71	2.3333
1	388604	71.81	2.3333
1	389150	71.91	2.3333
1	389704	72.01	2.3333
1	390250	72.11	2.3333
1	390796	72.21	2.3333
1	391342	72.31	2.3333
1	391888	72.41	2.3333
1	392434	72.51	2.3333
1	392980	72.61	2.3333
1	393526	72.71	2.3333
1	394072	72.81	2.3333
1	394618	72.91	2.3333
1	395172	73.01	2.3333
1	395718	73.11	2.3333
1	396264	73.21	2.3333
1	396810	73.31	2.3333
1	397356	73.41	2.3333
1	397902	73.51	2.3333
1	398448	73.61	2.3333
1	398994	73.71	2.3333
1	399540	73.81	2.3333
1	400086	73.91	2.3333
1	400640	74.01	2.3333
1	401186	74.11	2.3333
1	401732	74.21	2.3333
1	402278	74.31	2.3333
1	402824	74.41	2.3333
1	403370	74.51	2.3333
1	403916	74.61	2.3333
1	404462	74.71	2.3333
1	405008	74.81	2.3333
1	405554	74.91	2.3333
1	406108	75.01	2.3333
1	406654	75.11	2.3333
1	407200	75.21	2.3333
1	407746	75.31	2.3333
1	408292	75.41	2.3333
1	408838	75.51	2.3333
1	409384	75.61	2.3333
1	409930	75.71	2.3333
1	410476	75.81	2.3333
1	411022	75.91	2.3333
1	411576	76.01	2.3333
1	412122	76.11	2.3333
1	412668	76.21	2.3333
1	413214	76.31	2.3333
1	413760	76.41	2.3333
1	414306	76.51	2.3333
1	414852	76.61	2.3333
1	415398	76.71	2.3333
1	415944	76.81	2.3333
1	416490	76.91	2.3333
1	417044	77.01	2.3333
1	417590	77.11	2.3333
1	418136	77.21	2.3333
1	418682	77.31	2.3333
1	419228	77.41	2.3333
1	419774	77.51	2.3333
1	420320	77.61	2.3333
1	420866	77.71	2.3333
1	421412	77.81	2.3333
1	421958	77.91	2.3333
1	422512	78.01	2.3333
1	423058	78.11	2.3333
1	423604	78.21	2.3333
1	424150	78.31	2.3333
1	424696	78.41	2.3333
1	425242	78.51	2.3333
1	425788	78.61	2.3333
1	426334	78.71	2.3333
1	426880	78.81	2.3333
1	427426	78.91	2.3333
1	427980	79.01	2.3333
1	428526	79.11	2.3333
1	429072	79.21	2.3333
1	429618	79.31	2.3333
1	430164	79.41	2.3333
1	430710	79.51	2.3333
1	431256	79.61	2.3333
1	431802	79.71	2.3333
1	432348	79.81	2.3333
1	432894	79.91	2.3333
1	433448	80.01	2.3333
1	433994	80.11	2.3333
1	434540	80.21	2.3333
1	435086	80.31	2.3333
1	435632	80.41	2.3333
1	436178	80.51	2.3333
1	436724	80.61	2.3333
1	437270	80.71	2.3333
1	437816	80.81	2.3333
1	438362	80.91	2.3333
1	438916	81.01	2.3333
1	439462	81.11	2.3333
1	440008	81.21	2.3333
1	440554	81.31	2.3333
1	441100	81.41	2.3333
1	441646	81.51	2.3333
1	442192	81.61	2.3333
1	442738	81.71	2.3333
1	443284	81.81	2.3333
1	443830	81.91	2.3333
1	444384	82.01	2.3333
1	444930	82.11	2.3333
1	445476	82.21	2.3333
1	446022	82.31	2.3333
1	446568	82.41	2.3333
1	447114	82.51	2.3333
1	447660	82.61	2.3333
1	448206	82.71	2.3333
1	448752	82.81	2.3333
1	449298	82.91	2.3333
1	449852	83.01	2.3333
1	450398	83.11	2.3333
1	450944	83.21	2.3333
1	451490	83.31	2.3333
1	452036	83.41	2.3333
1	452582	83.51	2.3333
1	453128	83.61	2.3333
1	453674	83.71	2.3333
1	454220	83.81	2.3333
1	454766	83.91	2.3333
1	455320	84.01	2.3333
1	455866	84.11	2.3333
1	456412	84.21	2.3333
1	456958	84.31	2.3333
1	457504	84.41	2.3333
1	458050	84.51	2.3333
1	458596	84.61	2.3333
1	459142	84.71	2.3333
1	459688	84.81	2.3333
1	460234	84.91	2.3333
1	460788	85.01	2.3333
1	461334	85.11	2.3333
1	461880	85.21	2.3333
1	462426	85.31	2.3333
1	462972	85.41	2.3333
1	463518	85.51	2.3333
1	464064	85.61	2.3333
1	464610	85.71	2.3333
1	465156	85.81	2.3333
1	465702	85.91	2.3333
1	466256	86.01	2.3333
1	466802	86.11	2.3333
1	467348	86.21	2.3333
1	467894	86.31	2.3333
1	468440	86.41	2.3333
1	468986	86.51	2.3333
1	469532	86.61	2.3333
1	470078	86.71	2.3333
1	470624	86.81	2.3333
1	471170	86.91	2.3333
1	471724	87.01	2.3333
1	472270	87.11	2.3333
1	472816	87.21	2.3333
1	473362	87.31	2.3333
1	473908	87.41	2.3333
1	474454	87.51	2.3333
1	475000	87.61	2.3333
1	475546	87.71	2.3333
1	476092	87.81	2.3333
1	476638	87.91	2.3333
1	477192	88.01	2.3333
1	477738	88.11	2.3333
1	478284	88.21	2.3333
1	478830	88.31	2.3333
1	479376	88.41	2.3333
1	479922	88.51	2.3333
1	480468	88.61	2.3333
1	481014	88.71	2.3333
1	481560	88.81	2.3333
1	482106	88.91	2.3333
1	482660	89.01	2.3333
1	483206	89.11	2.3333
1	483752	89.21	2.3333
1	484298	89.31	2.3333
1	484844	89.41	2.3333
1	485390	89.51	2.3333
1	485936	89.61	2.3333
1	486482	89.71	2.3333
1	487028	89.81	2.3333
1	487574	89.91	2.3333
1	488128	90.01	2.3333
1	488674	90.11	2.3333
1	489220	90.21	2.3333
1	489766	90.31	2.3333
1	490312	90.41	2.3333
1	490858	90.51	2.3333
1	491404	90.61	2.3333
1	491950	90.71	2.3333
1	492496	90.81	2.3333
1	493042	90.91	2.3333
1	493596	91.01	2.3333
1	494142	91.11	2.3333
1	494688	91.21	2.3333
1	495234	91.31	2.3333
1	495780	91.41	2.3333
1	496326	91.51	2.3333
1	496872	91.61	2.3333
1	497418	91.71	2.3333
1	497964	91.81	2.3333
1	498510	91.91	2.3333
1	499064	92.01	2.3333
1	499610	92.11	2.3333
1	500156	92.21	2.3333
1	500702	92.31	2.3333
1	501248	92.41	2.3333
1	501794	92.51	2.3333
1	502340	92.61	2.3333
1	502886	92.71	2.3333
1	503432	92.81	2.3333
1	503978	92.91	2.3333
1	504532	93.01	2.3333
1	505078	93.11	2.3333
1	505624	93.21	2.3333
1	506170	93.31	2.3333
1	506716	93.41	2.3333
1	507262	93.51	2.3333
1	507808	93.61	2.3333
1	508354	93.71	2.3333
1	508900	93.81	2.3333
1	509446	93.91	2.3333
1	510000	94.01	2.3333
1	510546	94.11	2.3333
1	511092	94.21	2.3333
1	511638	94.31	2.3333
1	512184	94.41	2.3333
1	512730	94.51	2.3333
1	513276	94.61	2.3333
1	513822	94.71	2.3333
1	514368	94.81	2.3333
1	514914	94.91	2.3333
1	515468	95.01	2.3333
1	516014	95.11	2.3333
1	516560	95.21	2.3333
1	517106	95.31	2.3333
1	517652	95.41	2.3333
1	518198	95.51	2.3333
1	518744	95.61	2.3333
1	519290	95.71	2.3333
1	519836	95.81	2.3333
1	520382	95.91	2.3333
1	520936	96.01	2.3333
1	521482	96.11	2.3333
1	522028	96.21	2.3333
1	522574	96.31	2.3333
1	523120	96.41	2.3333
1	523666	96.51	2.3333
1	524212	96.61	2.3333
1	524758	96.71	2.3333
1	525304	96.81	2.3333
1	525850	96.91	2.3333
1	526404	97.01	2.3333
1	526950	97.11	2.3333
1	527496	97.21	2.3333
1	528042	97.31	2.3333
1	528588	97.41	2.3333
1	529134	97.51	2.3333
1	529680	97.61	2.3333
1	530226	97.71	2.3333
1	530772	97.81	2.3333
1	531318	97.91	2.3333
1	531872	98.01	2.3333
1	532418	98.11	2.3333
1	532964	98.21	2.3333
1	533510	98.31	2.3333
1	534056	98.41	2.3333
1	534602	98.51	2.3333
1	535148	98.61	2.3333
1	535694	98.71	2.3333
1	536240	98.81	2.3333
1	536786	98.91	2.3333
1	537340	99.01	2.3333
1	537886	99.11	2.3333
1	538432	99.21	2.3333
1	538978	99.31	2.3333
1	539524	99.41	2.3333
1	540070	99.51	2.3333
1	540616	99.61	2.3333
1	541162	99.71	2.3333
1	541708	99.81	2.3333
1	542254	99.91	2.3333
2	113	1.11	0
2	659	1.21	0
2	1205	1.31	0
2	1751	1.41	0
2	2297	1.51	0
2	2843	1.61	0
2	3389	1.71	0
2	3935	1.81	0
2	4481	1.91	0
2	5035	2.01	0
2	5581	2.11	0
2	6127	2.21	0
2	6673	2.31	0
2	7219	2.41	0
2	7765	2.51	0
2	8311	2.61	0
2	8857	2.71	0
2	9403	2.81	0
2	9949	2.91	0
2	10503	3.01	0
2	11049	3.11	0
2	11595	3.21	0
2	12141	3.31	0
2	12687	3.41	0
2	13233	3.51	0
2	13779	3.61	0
2	14325	3.71	0
2	14871	3.81	0
2	15417	3.91	0
2	15971	4.01	0
2	16517	4.11	0
2	17063	4.21	0
2	17609	4.31	0
2	18155	4.41	0
2	18701	4.51	0
2	19247	4.61	0
2	19793	4.71	0
2	20339	4.81	0
2	20885	4.91	0
2	21439	5.01	0
2	21985	5.11	0
2	22531	5.21	0
2	23077	5.31	0
2	23623	5.41	0
2	24169	5.51	0
2	24715	5.61	0
2	25261	5.71	0
2	25807	5.81	0
2	26353	5.91	0
2	26907	6.01	0
2	27453	6.11	0
2	27999	6.21	0
2	28545	6.31	0
2	29091	6.41	0
2	29637	6.51	0
2	30183	6.61	0
2	30729	6.71	0
2	31275	6.81	0
2	31821	6.91	0
2	32375	7.01	0
2	32921	7.11	0
2	33467	7.21	0
2	34013	7.31	0
2	34559	7.41	0
2	35105	7.51	0
2	35651	7.61	0
2	36197	7.71	0
2	36743	7.81	0
2	37289	7.91	0
2	37843	8.01	0
2	38389	8.11	0
2	38935	8.21	0
2	39481	8.31	0
2	40027	8.41	0
2	40573	8.51	0
2	41119	8.61	0
2	41665	8.71	0
2	42211	8.81	0
2	42757	8.91	0
2	43311	9.01	0
2	43857	9.11	0
2	44403	9.21	0
2	44949	9.31	0
2	45495	9.41	0
2	46041	9.51	0
2	46587	9.61	0
2	47133	9.71	0
2	47679	9.81	0
2	48225	9.91	0
2	50688	10.01	0
2	51234	10.11	0
2	51780	10.21	0
2	52326	10.31	0
2	52872	10.41	0
2	53418	10.51	0
2	53964	10.61	0
2	54510	10.71	0
2	55056	10.81	0
2	55602	10.91	0
2	56156	11.01	0
2	56702	11.11	0
2	57248	11.21	0
2	57794	11.31	0
2	58340	11.41	0
2	58886	11.51	0
2	59432	11.61	0
2	59978	11.71	0
2	60524	11.81	0
2	61070	11.91	0
2	61624	12.01	0
2	62170	12.11	0
2	62716	12.21	0
2	63262	12.31	0
2	63808	12.41	0
2	64354	12.51	0
2	64900	12.61	0
2	65446	12.71	0
2	65992	12.81	0
2	66538	12.91	0
2	67092	13.01	0
2	67638	13.11	0
2	68184	13.21	0
2	68730	13.31	0
2	69276	13.41	0
2	69822	13.51	0
2	70368	13.61	0
2	70914	13.71	0
2	71460	13.81	0
2	72006	13.91	0
2	72560	14.01	0
2	73106	14.11	0
2	73652	14.21	0
2	74198	14.31	0
2	74744	14.41	0
2	75290	14.51	0
2	75836	14.61	0
2	76382	14.71	0
2	76928	14.81	0
2	77474	14.91	0
2	78028	15.01	0
2	78574	15.11	0
2	79120	15.21	0
2	79666	15.31	0
2	80212	15.41	0
2	80758	15.51	0
2	81304	15.61	0
2	81850	15.71	0
2	82396	15.81	0
2	82942	15.91	0
2	83496	16.01	0
2	84042	16.11	0
2	84588	16.21	0
2	85134	16.31	0
2	85680	16.41	0
2	86226	16.51	0
2	86772	16.61	0
2	87318	16.71	0
2	87864	16.81	0
2	88410	16.91	0
2	88964	17.01	0
2	89510	17.11	0
2	90056	17.21	0
2	90602	17.31	0
2	91148	17.41	0
2	91694	17.51	0
2	92240	17.61	0
2	92786	17.71	0
2	93332	17.81	0
2	93878	17.91	0
2	94432	18.01	0
2	94978	18.11	0
2	95524	18.21	0
2	96070	18.31	0
2	96616	18.41	0
2	97162	18.51	0
2	97708	18.61	0
2	98254	18.71	0
2	98800	18.81	0
2	99346	18.91	0
2	99900	19.01	0
2	100446	19.11	0
2	100992	19.21	0
2	101538	19.31	0
2	102084	19.41	0
2	102630	19.51	0
2	103176	19.61	0
2	103722	19.71	0
2	104268	19.81	0
2	104814	19.91	0
2	105368	20.01	0
2	105914	20.11	0
2	106460	20.21	0
2	107006	20.31	0
2	107552	20.41	0
2	108098	20.51	0
2	108644	20.61	0
2	109190	20.71	0
2	109736	20.81	0
2	110282	20.91	0
2	110836	21.01	0
2	111382	21.11	0
2	111928	21.21	0
2	112474	21.31	0
2	113020	21.41	0
2	113566	21.51	0
2	114112	21.61	0
2	114658	21.71	0
2	115204	21.81	0
2	115750	21.91	0
2	116304	22.01	0
2	116850	22.11	0
2	117396	22.21	0
2	117942	22.31	0
2	118488	22.41	0
2	119034	22.51	0
2	119580	22.61	0
2	120126	22.71	0
2	120672	22.81	0
2	121218	22.91	0
2	121772	23.01	0
2	122318	23.11	0
2	122864	23.21	0
2	123410	23.31	0
2	123956	23.41	0
2	124502	23.51	0
2	125048	23.61	0
2	125594	23.71	0
2	126140	23.81	0
2	126686	23.91	0
2	127240	24.01	0
2	127786	24.11	0
2	128332	24.21	0
2	128878	24.31	0
2	129424	24.41	0
2	129970	24.51	0
2	130516	24.61	0
2	131062	24.71	0
2	131608	24.81	0
2	132154	24.91	0
2	132708	25.01	0
2	133254	25.11	0
2	133800	25.21	0
2	134346	25.31	0
2	134892	25.41	0
2	135438	25.51	0
2	135984	25.61	0
2	136530	25.71	0
2	137076	25.81	0
2	137622	25.91	0
2	138176	26.01	0
2	138722	26.11	0
2	139268	26.21	0
2	139814	26.31	0
2	140360	26.41	0
2	140906	26.51	0
2	141452	26.61	0
2	141998	26.71	0
2	142544	26.81	0
2	143090	26.91	0
2	143644	27.01	0
2	144190	27.11	0
2	144736	27.21	0
2	145282	27.31	0
2	145828	27.41	0
2	146374	27.51	0
2	146920	27.61	0
2	147466	27.71	0
2	148012	27.81	0
2	148558	27.91	0
2	149112	28.01	0
2	149658	28.11	0
2	150204	28.21	0
2	150750	28.31	0
2	151296	28.41	0
2	151842	28.51	0
2	152388	28.61	0
2	152934	28.71	0
2	153480	28.81	0
2	154026	28.91	0
2	154580	29.01	0
2	155126	29.11	0
2	155672	29.21	0
2	156218	29.31	0
2	156764	29.41	0
2	157310	29.51	0
2	157856	29.61	0
2	158402	29.71	0
2	158948	29.81	0
2	159494	29.91	0
2	160048	30.01	0
2	160594	30.11	0
2	161140	30.21	0
2	161686	30.31	0
2	162232	30.41	0
2	162778	30.51	0
2	163324	30.61	0
2	163870	30.71	0
2	164416	30.81	0
2	164962	30.91	0
2	165516	31.01	0
2	166062	31.11	0
2	166608	31.21	0
2	167154	31.31	0
2	167700	31.41	0
2	168246	31.51	0
2	168792	31.61	0
2	169338	31.71	0
2	169884	31.81	0
2	170430	31.91	0
2	170984	32.01	0
2	171530	32.11	0
2	172076	32.21	0
2	172622	32.31	0
2	173168	32.41	0
2	173714	32.51	0
2	174260	32.61	0
2	174806	32.71	0
2	175352	32.81	0
2	175898	32.91	0
2	176452	33.01	0
2	176998	33.11	0
2	177544	33.21	0
2	178090	33.31	0
2	178636	33.41	0
2	179182	33.51	0
2	179728	33.61	0
2	180274	33.71	0
2	180820	33.81	0
2	181366	33.91	0
2	181920	34.01	0
2	182466	34.11	0
2	183012	34.21	0
2	183558	34.31	0
2	184104	34.41	0
2	184650	34.51	0
2	185196	34.61	0
2	185742	34.71	0
2	186288	34.81	0
2	186834	34.91	0
2	187388	35.01	0
2	187934	35.11	0
2	188480	35.21	0
2	189026	35.31	0
2	189572	35.41	0
2	190118	35.51	0
2	190664	35.61	0
2	191210	35.71	0
2	191756	35.81	0
2	192302	35.91	0
2	192856	36.01	0
2	193402	36.11	0
2	193948	36.21	0
2	194494	36.31	0
2	195040	36.41	0
2	195586	36.51	0
2	196132	36.61	0
2	196678	36.71	0
2	197224	36.81	0
2	197770	36.91	0
2	198324	37.01	0
2	198870	37.11	0
2	199416	37.21	0
2	199962	37.31	0
2	200508	37.41	0
2	201054	37.51	0
2	201600	37.61	0
2	202146	37.71	0
2	202692	37.81	0
2	203238	37.91	0
2	203792	38.01	0
2	204338	38.11	0
2	204884	38.21	0
2	205430	38.31	0
2	205976	38.41	0
2	206522	38.51	0
2	207068	38.61	0
2	207614	38.71	0
2	208160	38.81	0
2	208706	38.91	0
2	209260	39.01	0
2	209806	39.11	0
2	210352	39.21	0
2	210898	39.31	0
2	211444	39.41	0
2	211990	39.51	0
2	212536	39.61	0
2	213082	39.71	0
2	213628	39.81	0
2	214174	39.91	0
2	214728	40.01	0
2	215274	40.11	0
2	215820	40.21	0
2	216366	40.31	0
2	216912	40.41	0
2	217458	40.51	0
2	218004	40.61	0
2	218550	40.71	0
2	219096	40.81	0
2	219642	40.91	0
2	220196	41.01	0
2	220742	41.11	0
2	221288	41.21	0
2	221834	41.31	0
2	222380	41.41	0
2	222926	41.51	0
2	223472	41.61	0
2	224018	41.71	0
2	224564	41.81	0
2	225110	41.91	0
2	225664	42.01	0
2	226210	42.11	0
2	226756	42.21	0
2	227302	42.31	0
2	227848	42.41	0
2	228394	42.51	0
2	228940	42.61	0
2	229486	42.71	0
2	230032	42.81	0
2	230578	42.91	0
2	231132	43.01	0
2	231678	43.11	0
2	232224	43.21	0
2	232770	43.31	0
2	233316	43.41	0
2	233862	43.51	0
2	234408	43.61	0
2	234954	43.71	0
2	235500	43.81	0
2	236046	43.91	0
2	236600	44.01	0
2	237146	44.11	0
2	237692	44.21	0
2	238238	44.31	0
2	238784	44.41	0
2	239330	44.51	0
2	239876	44.61	0
2	240422	44.71	0
2	240968	44.81	0
2	241514	44.91	0
2	242068	45.01	0
2	242614	45.11	0
2	243160	45.21	0
2	243706	45.31	0
2	244252	45.41	0
2	244798	45.51	0
2	245344	45.61	0
2	245890	45.71	0
2	246436	45.81	0
2	246982	45.91	0
2	247536	46.01	0
2	248082	46.11	0
2	248628	46.21	0
2	249174	46.31	0
2	249720	46.41	0
2	250266	46.51	0
2	250812	46.61	0
2	251358	46.71	0
2	251904	46.81	0
2	252450	46.91	0
2	253004	47.01	0
2	253550	47.11	0
2	254096	47.21	0
2	254642	47.31	0
2	255188	47.41	0
2	255734	47.51	0
2	256280	47.61	0
2	256826	47.71	0
2	257372	47.81	0
2	257918	47.91	0
2	258472	48.01	0
2	259018	48.11	0
2	259564	48.21	0
2	260110	48.31	0
2	260656	48.41	0
2	261202	48.51	0
2	261748	48.61	0
2	262294	48.71	0
2	262840	48.81	0
2	263386	48.91	0
2	263940	49.01	0
2	264486	49.11	0
2	265032	49.21	0
2	265578	49.31	0
2	266124	49.41	0
2	266670	49.51	0
2	267216	49.61	0
2	267762	49.71	0
2	268308	49.81	0
2	268854	49.91	0
2	269408	50.01	0
2	269954	50.11	0
2	270500	50.21	0
2	271046	50.31	0
2	271592	50.41	0
2	272138	50.51	0
2	272684	50.61	0
2	273230	50.71	0
2	273776	50.81	0
2	274322	50.91	0
2	274876	51.01	0
2	275422	51.11	0
2	275968	51.21	0
2	276514	51.31	0
2	277060	51.41	0
2	277606	51.51	0
2	278152	51.61	0
2	278698	51.71	0
2	279244	51.81	0
2	279790	51.91	0
2	280344	52.01	0
2	280890	52.11	0
2	281436	52.21	0
2	281982	52.31	0
2	282528	52.41	0
2	283074	52.51	0
2	283620	52.61	0
2	284166	52.71	0
2	284712	52.81	0
2	285258	52.91	0
2	285812	53.01	0
2	286358	53.11	0
2	286904	53.21	0
2	287450	53.31	0
2	287996	53.41	0
2	288542	53.51	0
2	289088	53.61	0
2	289634	53.71	0
2	290180	53.81	0
2	290726	53.91	0
2	291280	54.01	0
2	291826	54.11	0
2	292372	54.21	0
2	292918	54.31	0
2	293464	54.41	0
2	294010	54.51	0
2	294556	54.61	0
2	295102	54.71	0
2	295648	54.81	0
2	296194	54.91	0
2	296748	55.01	0
2	297294	55.11	0
2	297840	55.21	0
2	298386	55.31	0
2	298932	55.41	0
2	299478	55.51	0
2	300024	55.61	0
2	300570	55.71	0
2	301116	55.81	0
2	301662	55.91	0
2	302216	56.01	0
2	302762	56.11	0
2	303308	56.21	0
2	303854	56.31	0
2	304400	56.41	0
2	304946	56.51	0
2	305492	56.61	0
2	306038	56.71	0
2	306584	56.81	0
2	307130	56.91	0
2	307684	57.01	0
2	308230	57.11	0
2	308776	57.21	0
2	309322	57.31	0
2	309868	57.41	0
2	310414	57.51	0
2	310960	57.61	0
2	311506	57.71	0
2	312052	57.81	0
2	312598	57.91	0
2	313152	58.01	0
2	313698	58.11	0
2	314244	58.21	0
2	314790	58.31	0
2	315336	58.41	0
2	315882	58.51	0
2	316428	58.61	0
2	316974	58.71	0
2	317520	58.81	0
2	318066	58.91	0
2	318620	59.01	0
2	319166	59.11	0
2	319712	59.21	0
2	320258	59.31	0
2	320804	59.41	0
2	321350	59.51	0
2	321896	59.61	0
2	322442	59.71	0
2	322988	59.81	0
2	323534	59.91	0
2	324088	60.01	0
2	324634	60.11	0
2	325180	60.21	0
2	325726	60.31	0
2	326272	60.41	0
2	326818	60.51	0
2	327364	60.61	0
2	327910	60.71	0
2	328456	60.81	0
2	329002	60.91	0
2	329556	61.01	0
2	330102	61.11	0
2	330648	61.21	0
2	331194	61.31	0
2	331740	61.41	0
2	332286	61.51	0
2	332832	61.61	0
2	333378	61.71	0
2	333924	61.81	0
2	334470	61.91	0
2	335024	62.01	0
2	335570	62.11	0
2	336116	62.21	0
2	336662	62.31	0
2	337208	62.41	0
2	337754	62.51	0
2	338300	62.61	0
2	338846	62.71	0
2	339392	62.81	0
2	339938	62.91	0
2	340492	63.01	0
2	341038	63.11	0
2	341584	63.21	0
2	342130	63.31	0
2	342676	63.41	0
2	343222	63.51	0
2	343768	63.61	0
2	344314	63.71	0
2	344860	63.81	0
2	345406	63.91	0
2	345960	64.01	0
2	346506	64.11	0
2	347052	64.21	0
2	347598	64.31	0
2	348144	64.41	0
2	348690	64.51	0
2	349236	64.61	0
2	349782	64.71	0
2	350328	64.81	0
2	350874	64.91	0
2	351428	65.01	0
2	351974	65.11	0
2	352520	65.21	0
2	353066	65.31	0
2	353612	65.41	0
2	354158	65.51	0
2	354704	65.61	0
2	355250	65.71	0
2	355796	65.81	0
2	356342	65.91	0
2	356896	66.01	0
2	357442	66.11	0
2	357988	66.21	0
2	358534	66.31	0
2	359080	66.41	0
2	359626	66.51	0
2	360172	66.61	0
2	360718	66.71	0
2	361264	66.81	0
2	361810	66.91	0
2	362364	67.01	0
2	362910	67.11	0
2	363456	67.21	0
2	364002	67.31	0
2	364548	67.41	0
2	365094	67.51	0
2	365640	67.61	0
2	366186	67.71	0
2	366732	67.81	0
2	367278	67.91	0
2	367832	68.01	0
2	368378	68.11	0
2	368924	68.21	0
2	369470	68.31	0
2	370016	68.41	0
2	370562	68.51	0
2	371108	68.61	0
2	371654	68.71	0
2	372200	68.81	0
2	372746	68.91	0
2	373300	69.01	0
2	373846	69.11	0
2	374392	69.21	0
2	374938	69.31	0
2	375484	69.41	0
2	376030	69.51	0
2	376576	69.61	0
2	377122	69.71	0
2	377668	69.81	0
2	378214	69.91	0
2	378768	70.01	0
2	379314	70.11	0
2	379860	70.21	0
2	380406	70.31	0
2	380952	70.41	0
2	381498	70.51	0
2	382044	70.61	0
2	382590	70.71	0
2	383136	70.81	0
2	383682	70.91	0
2	384236	71.01	0
2	384782	71.11	0
2	385328	71.21	0
2	385874	71.31	0
2	386420	71.41	0
2	386966	71.51	0
2	387512	71.61	0
2	388058	71.71	0
2	388604	71.81	0
2	389150	71.91	0
2	389704	72.01	0
2	390250	72.11	0
2	390796	72.21	0
2	391342	72.31	0
2	391888	72.41	0
2	392434	72.51	0
2	392980	72.61	0
2	393526	72.71	0
2	394072	72.81	0
2	394618	72.91	0
2	395172	73.01	0
2	395718	73.11	0
2	396264	73.21	0
2	396810	73.31	0
2	397356	73.41	0
2	397902	73.51	0
2	398448	73.61	0
2	398994	73.71	0
2	399540	73.81	0
2	400086	73.91	0
2	400640	74.01	0
2	401186	74.11	0
2	401732	74.21	0
2	402278	74.31	0
2	402824	74.41	0
2	403370	74.51	0
2	403916	74.61	0
2	404462	74.71	0
2	405008	74.81	0
2	405554	74.91	0
2	406108	75.01	0
2	406654	75.11	0
2	407200	75.21	0
2	407746	75.31	0
2	408292	75.41	0
2	408838	75.51	0
2	409384	75.61	0
2	409930	75.71	0
2	410476	75.81	0
2	411022	75.91	0
2	411576	76.01	0
2	412122	76.11	0
2	412668	76.21	0
2	413214	76.31	0
2	413760	76.41	0
2	414306	76.51	0
2	414852	76.61	0
2	415398	76.71	0
2	415944	76.81	0
2	416490	76.91	0
2	417044	77.01	0
2	417590	77.11	0
2	418136	77.21	0
2	418682	77.31	0
2	419228	77.41	0
2	419774	77.51	0
2	420320	77.61	0
2	420866	77.71	0
2	421412	77.81	0
2	421958	77.91	0
2	422512	78.01	0
2	423058	78.11	0
2	423604	78.21	0
2	424150	78.31	0
2	424696	78.41	0
2	425242	78.51	0
2	425788	78.61	0
2	426334	78.71	0
2	426880	78.81	0
2	427426	78.91	0
2	427980	79.01	0
2	428526	79.11	0
2	429072	79.21	0
2	429618	79.31	0
2	430164	79.41	0
2	430710	79.51	0
2	431256	79.61	0
2	431802	79.71	0
2	432348	79.81	0
2	432894	79.91	0
2	433448	80.01	0
2	433994	80.11	0
2	434540	80.21	0
2	435086	80.31	0
2	435632	80.41	0
2	436178	80.51	0
2	436724	80.61	0
2	437270	80.71	0
2	437816	80.81	0
2	438362	80.91	0
2	438916	81.01	0
2	439462	81.11	0
2	440008	81.21	0
2	440554	81.31	0
2	441100	81.41	0
2	441646	81.51	0
2	442192	81.61	0
2	442738	81.71	0
2	443284	81.81	0
2	443830	81.91	0
2	444384	82.01	0
2	444930	82.11	0
2	445476	82.21	0
2	446022	82.31	0
2	446568	82.41	0
2	447114	82.51	0
2	447660	82.61	0
2	448206	82.71	0
2	448752	82.81	0
2	449298	82.91	0
2	449852	83.01	0
2	450398	83.11	0
2	450944	83.21	0
2	451490	83.31	0
2	452036	83.41	0
2	452582	83.51	0
2	453128	83.61	0
2	453674	83.71	0
2	454220	83.81	0
2	454766	83.91	0
2	455320	84.01	0
2	455866	84.11	0
2	456412	84.21	0
2	456958	84.31	0
2	457504	84.41	0
2	458050	84.51	0
2	458596	84.61	0
2	459142	84.71	0
2	459688	84.81	0
2	460234	84.91	0
2	460788	85.01	0
2	461334	85.11	0
2	461880	85.21	0
2	462426	85.31	0
2	462972	85.41	0
2	463518	85.51	0
2	464064	85.61	0
2	464610	85.71	0
2	465156	85.81	0
2	465702	85.91	0
2	466256	86.01	0
2	466802	86.11	0
2	467348	86.21	0
2	467894	86.31	0
2	468440	86.41	0
2	468986	86.51	0
2	469532	86.61	0
2	470078	86.71	0
2	470624	86.81	0
2	471170	86.91	0
2	471724	87.01	0
2	472270	87.11	0
2	472816	87.21	0
2	473362	87.31	0
2	473908	87.41	0
2	474454	87.51	0
2	475000	87.61	0
2	475546	87.71	0
2	476092	87.81	0
2	476638	87.91	0
2	477192	88.01	0
2	477738	88.11	0
2	478284	88.21	0
2	478830	88.31	0
2	479376	88.41	0
2	479922	88.51	0
2	480468	88.61	0
2	481014	88.71	0
2	481560	88.81	0
2	482106	88.91	0
2	482660	89.01	0
2	483206	89.11	0
2	483752	89.21	0
2	484298	89.31	0
2	484844	89.41	0
2	485390	89.51	0
2	485936	89.61	0
2	486482	89.71	0
2	487028	89.81	0
2	487574	89.91	0
2	488128	90.01	0
2	488674	90.11	0
2	489220	90.21	0
2	489766	90.31	0
2	490312	90.41	0
2	490858	90.51	0
2	491404	90.61	0
2	491950	90.71	0
2	492496	90.81	0
2	493042	90.91	0
2	493596	91.01	0
2	494142	91.11	0
2	494688	91.21	0
2	495234	91.31	0
2	495780	91.41	0
2	496326	91.51	0
2	496872	91.61	0
2	497418	91.71	0
2	497964	91.81	0
2	498510	91.91	0
2	499064	92.01	0
2	499610	92.11	0
2	500156	92.21	0
2	500702	92.31	0
2	501248	92.41	0
2	501794	92.51	0
2	502340	92.61	0
2	502886	92.71	0
2	503432	92.81	0
2	503978	92.91	0
2	504532	93.01	0
2	505078	93.11	0
2	505624	93.21	0
2	506170	93.31	0
2	506716	93.41	0
2	507262	93.51	0
2	507808	93.61	0
2	508354	93.71	0
2	508900	93.81	0
2	509446	93.91	0
2	510000	94.01	0
2	510546	94.11	0
2	511092	94.21	0
2	511638	94.31	0
2	512184	94.41	0
2	512730	94.51	0
2	513276	94.61	0
2	513822	94.71	0
2	514368	94.81	0
2	514914	94.91	0
2	515468	95.01	0
2	516014	95.11	0
2	516560	95.21	0
2	517106	95.31	0
2	517652	95.41	0
2	518198	95.51	0
2	518744	95.61	0
2	519290	95.71	0
2	519836	95.81	0
2	520382	95.91	0
2	520936	96.01	0
2	521482	96.11	0
2	522028	96.21	0
2	522574	96.31	0
2	523120	96.41	0
2	523666	96.51	0
2	524212	96.61	0
2	524758	96.71	0
2	525304	96.81	0
2	525850	96.91	0
2	526404	97.01	0
2	526950	97.11	0
2	527496	97.21	0
2	528042	97.31	0
2	528588	97.41	0
2	529134	97.51	0
2	529680	97.61	0
2	530226	97.71	0
2	530772	97.81	0
2	531318	97.91	0
2	531872	98.01	0
2	532418	98.11	0
2	532964	98.21	0
2	533510	98.31	0
2	534056	98.41	0
2	534602	98.51	0
2	535148	98.61	0
2	535694	98.71	0
2	536240	98.81	0
2	536786	98.91	0
2	537340	99.01	0
2	537886	99.11	0
2	538432	99.21	0
2	538978	99.31	0
2	539524	99.41	0
2	540070	99.51	0
2	540616	99.61	0
2	541162	99.71	0
2	541708	99.81	0
2	542254	99.91	0
3	113	1.11	-0.000537287
3	659	1.21	-0.00102256
3	1205	1.31	-0.0014023
3	1751	1.41	-0.00168868
3	2297	1.51	-0.00189332
3	2843	1.61	-0.00202724
3	3389	1.71	-0.00210073
3	3935	1.81	-0.00212335
3	4481	1.91	-0.00210382
3	5035	2.01	-0.00205006
3	5581	2.11	-0.00196919
3	6127	2.21	-0.00186754
3	6673	2.31	-0.00175064
3	7219	2.41	-0.00162335
3	7765	2.51	-0.00148981
3	8311	2.61	-0.00135354
3	8857	2.71	-0.00121748
3	9403	2.81	-0.00108402
3	9949	2.91	-0.000955094
3	10503	3.01	-0.0008322
3	11049	3.11	-0.000716459
3	11595	3.21	-0.00060866
3	12141	3.31	-0.00050931
3	12687	3.41	-0.000418674
3	13233	3.51	-0.000336812
3	13779	3.61	-0.000263615
3	14325	3.71	-0.00019884
3	14871	3.81	-0.000142136
3	15417	3.91	-9.30689e-05
3	15971	4.01	-5.11479e-05
3	16517	4.11	-1.58407e-05
3	17063	4.21	1.34077e-05
3	17609	4.31	3.7161e-05
3	18155	4.41	5.59805e-05
3	18701	4.51	7.0415e-05
3	19247	4.61	8.09934e-05
3	19793	4.71	8.82186e-05
3	20339	4.81	9.25636e-05
3	20885	4.91	9.44677e-05
3	21439	5.01	9.43354e-05
3	21985	5.11	9.25349e-05
3	22531	5.21	8.93982e-05
3	23077	5.31	8.52216e-05
3	23623	5.41	8.02667e-05
3	24169	5.51	7.47624e-05
3	24715	5.61	6.8906e-05
3	25261	5.71	6.28658e-05
3	25807	5.81	5.67832e-05
3	26353	5.91	5.07749e-05
3	26907	6.01	4.49353e-05
3	27453	6.11	3.93388e-05
3	27999	6.21	3.40422e-05
3	28545	6.31	2.90866e-05
3	29091	6.41	2.44995e-05
3	29637	6.51	2.02971e-05
3	30183	6.61	1.64857e-05
3	30729	6.71	1.30632e-05
3	31275	6.81	1.00213e-05
3	31821	6.91	7.34621e-06
3	32375	7.01	5.0199e-06
3	32921	7.11	3.02148e-06
3	33467	7.21	1.32788e-06
3	34013	7.31	-8.52687e-08
3	34559	7.41	-1.24302e-06
3	35105	7.51	-2.17048e-06
3	35651	7.61	-2.89239e-06
3	36197	7.71	-3.43273e-06
3	36743	7.81	-3.81443e-06
3	37289	7.91	-4.05915e-06
3	37843	8.01	-4.18709e-06
3	38389	8.11	-4.21695e-06
3	38935	8.21	-4.16581e-06
3	39481	8.31	-4.04914e-06
3	40027	8.41	-3.88081e-06
3	40573	8.51	-3.67311e-06
3	41119	8.61	-3.43684e-06
3	41665	8.71	-3.18138e-06
3	42211	8.81	-2.91475e-06
3	42757	8.91	-2.64374e-06
3	43311	9.01	-2.37401e-06
3	43857	9.11	-2.11015e-06
3	44403	9.21	-1.85584e-06
3	44949	9.31	-1.61394e-06
3	45495	9.41	-1.38655e-06
3	46041	9.51	-1.17514e-06
3	46587	9.61	-9.8063e-07
3	47133	9.71	-8.03478e-07
3	47679	9.81	-6.4374e-07
3	48225	9.91	-5.01153e-07
3	50688	10.01	-3.75194e-07
3	51234	10.11	-2.65135e-07
3	51780	10.21	-1.70092e-07
3	52326	10.31	-8.90743e-08
3	52872	10.41	-2.10129e-08
3	53418	10.51	3.51982e-08
3	53964	10.61	8.06793e-08
3	54510	10.71	1.16543e-07
3	55056	10.81	1.43872e-07
3	55602	10.91	1.63713e-07
3	56156	11.01	1.77052e-07
3	56702	11.11	1.84819e-07
3	57248	11.21	1.87876e-07
3	57794	11.31	1.87014e-07
3	58340	11.41	1.82953e-07
3	58886	11.51	1.7634e-07
3	59432	11.61	1.67752e-07
3	59978	11.71	1.57699e-07
3	60524	11.81	1.46622e-07
3	61070	11.91	1.34906e-07
3	61624	12.01	1.22874e-07
3	62170	12.11	1.10801e-07
3	62716	12.21	9.89097e-08
3	63262	12.31	8.73804e-08
3	63808	12.41	7.63556e-08
3	64354	12.51	6.59412e-08
3	64900	12.61	5.62153e-08
3	65446	12.71	4.72291e-08
3	65992	12.81	3.90095e-08
3	66538	12.91	3.15666e-08
3	67092	13.01	2.48953e-08
3	67638	13.11	1.8975e-08
3	68184	13.21	1.37796e-08
3	68730	13.31	9.26903e-09
3	69276	13.41	5.40297e-09
3	69822	13.51	2.13376e-09
3	70368	13.61	-5.85487e-10
3	70914	13.71	-2.80593e-09
3	71460	13.81	-4.57732e-09
3	72006	13.91	-5.94866e-09
3	72560	14.01	-6.96758e-09
3	73106	14.11	-7.67812e-09
3	73652	14.21	-8.12292e-09
3	74198	14.31	-8.34106e-09
3	74744	14.41	-8.3709e-09
3	75290	14.51	-8.24443e-09
3	75836	14.61	-7.99361e-09
3	76382	14.71	-7.64544e-09
3	76928	14.81	-7.22338e-09
3	77474	14.91	-6.74589e-09
3	78028	15.01	-6.23359e-09
3	78574	15.11	-5.70139e-09
3	79120	15.21	-5.16138e-09
3	79666	15.31	-4.62634e-09
3	80212	15.41	-4.10481e-09
3	80758	15.51	-3.60387e-09
3	81304	15.61	-3.12781e-09
3	81850	15.71	-2.68088e-09
3	82396	15.81	-2.26663e-09
3	82942	15.91	-1.88649e-09
3	83496	16.01	-1.54046e-09
3	84042	16.11	-1.22782e-09
3	84588	16.21	-9.50706e-10
3	85134	16.31	-7.06279e-10
3	85680	16.41	-4.92406e-10
3	86226	16.51	-3.09086e-10
3	86772	16.61	-1.52767e-10
3	87318	16.71	-2.13163e-11
3	87864	16.81	8.66862e-11
3	88410	16.91	1.73372e-10
3	88964	17.01	2.41585e-10
3	89510	17.11	2.92744e-10
3	90056	17.21	3.29692e-10
3	90602	17.31	3.54561e-10
3	91148	17.41	3.68061e-10
3	91694	17.51	3.72324e-10
3	92240	17.61	3.69482e-10
3	92786	17.71	3.60956e-10
3	93332	17.81	3.46745e-10
3	93878	17.91	3.28981e-10
3	94432	18.01	3.07665e-10
3	94978	18.11	2.86349e-10
3	95524	18.21	2.65032e-10
3	96070	18.31	2.43716e-10
3	96616	18.41	2.20979e-10
3	97162	18.51	1.99663e-10
3	97708	18.61	1.78346e-10
3	98254	18.71	1.5703e-10
3	98800	18.81	1.35714e-10
3	99346	18.91	1.14397e-10
3	99900	19.01	9.30811e-11
3	100446	19.11	7.74492e-11
3	100992	19.21	6.32383e-11
3	101538	19.31	4.90274e-11
3	102084	19.41	3.48166e-11
3	102630	19.51	2.41585e-11
3	103176	19.61	1.7053e-11
3	103722	19.71	9.9476e-12
3	104268	19.81	2.84217e-12
3	104814	19.91	-4.26326e-12
3	105368	20.01	-1.13687e-11
3	105914	20.11	-1.20792e-11
3	106460	20.21	-1.20792e-11
3	107006	20.31	-1.20792e-11
3	107552	20.41	-1.20792e-11
3	108098	20.51	-1.20792e-11
3	108644	20.61	-1.20792e-11
3	109190	20.71	-1.20792e-11
3	109736	20.81	-1.20792e-11
3	110282	20.91	-1.20792e-11
3	110836	21.01	-1.20792e-11
3	111382	21.11	-1.20792e-11
3	111928	21.21	-1.20792e-11
3	112474	21.31	-1.20792e-11
3	113020	21.41	-1.20792e-11
3	113566	21.51	-1.20792e-11
3	114112	21.61	-1.20792e-11
3	114658	21.71	-1.20792e-11
3	115204	21.81	-1.20792e-11
3	115750	21.91	-1.20792e-11
3	116304	22.01	-1.20792e-11
3	116850	22.11	-1.20792e-11
3	117396	22.21	-1.20792e-11
3	117942	22.31	-1.20792e-11
3	118488	22.41	-1.20792e-11
3	119034	22.51	-1.20792e-11
3	119580	22.61	-1.20792e-11
3	120126	22.71	-1.20792e-11
3	120672	22.81	-1.20792e-11
3	121218	22.91	-1.20792e-11
3	121772	23.01	-1.13687e-11
3	122318	23.11	-1.06581e-11
3	122864	23.21	-9.23706e-12
3	123410	23.31	-8.52651e-12
3	123956	23.41	-7.81597e-12
3	124502	23.51	-7.10543e-12
3	125048	23.61	-6.39488e-12
3	125594	23.71	-5.68434e-12
3	126140	23.81	-4.9738e-12
3	126686	23.91	-4.9738e-12
3	127240	24.01	-4.26326e-12
3	127786	24.11	-3.55271e-12
3	128332	24.21	-3.55271e-12
3	128878	24.31	-2.84217e-12
3	129424	24.41	-2.84217e-12
3	129970	24.51	-2.84217e-12
3	130516	24.61	-2.13163e-12
3	131062	24.71	-2.13163e-12
3	131608	24.81	-2.13163e-12
3	132154	24.91	-1.42109e-12
3	132708	25.01	-1.42109e-12
3	133254	25.11	-1.42109e-12
3	133800	25.21	-1.42109e-12
3	134346	25.31	-1.42109e-12
3	134892	25.41	-7.10543e-13
3	135438	25.51	-7.10543e-13
3	135984	25.61	-7.10543e-13
3	136530	25.71	-7.10543e-13
3	137076	25.81	-7.10543e-13
3	137622	25.91	-7.10543e-13
3	138176	26.01	-7.10543e-13
3	138722	26.11	-7.10543e-13
3	139268	26.21	-7.10543e-13
3	139814	26.31	-7.10543e-13
3	140360	26.41	0
3	140906	26.51	0
3	141452	26.61	0
3	141998	26.71	0
3	142544	26.81	0
3	143090	26.91	0
3	143644	27.01	0
3	144190	27.11	0
3	144736	27.21	0
3	145282	27.31	0
3	145828	27.41	0
3	146374	27.51	0
3	146920	27.61	0
3	147466	27.71	0
3	148012	27.81	0
3	148558	27.91	0
3	149112	28.01	0
3	149658	28.11	0
3	150204	28.21	0
3	150750	28.31	0
3	151296	28.41	0
3	151842	28.51	0
3	152388	28.61	0
3	152934	28.71	0
3	153480	28.81	0
3	154026	28.91	0
3	154580	29.01	0
3	155126	29.11	0
3	155672	29.21	0
3	156218	29.31	0
3	156764	29.41	0
3	157310	29.51	0
3	157856	29.61	0
3	158402	29.71	0
3	158948	29.81	0
3	159494	29.91	0
3	160048	30.01	0
3	160594	30.11	0
3	161140	30.21	0
3	161686	30.31	0
3	162232	30.41	0
3	162778	30.51	0
3	163324	30.61	0
3	163870	30.71	0
3	164416	30.81	0
3	164962	30.91	0
3	165516	31.01	0
3	166062	31.11	0
3	166608	31.21	0
3	167154	31.31	0
3	167700	31.41	0
3	168246	31.51	0
3	168792	31.61	0
3	169338	31.71	0
3	169884	31.81	0
3	170430	31.91	0
3	170984	32.01	0
3	171530	32.11	0
3	172076	32.21	0
3	172622	32.31	0
3	173168	32.41	0
3	173714	32.51	0
3	174260	32.61	0
3	174806	32.71	0
3	175352	32.81	0
3	175898	32.91	0
3	176452	33.01	0
3	176998	33.11	0
3	177544	33.21	0
3	178090	33.31	0
3	178636	33.41	0
3	179182	33.51	0
3	179728	33.61	0
3	180274	33.71	0
3	180820	33.81	0
3	181366	33.91	0
3	181920	34.01	0
3	182466	34.11	0
3	183012	34.21	0
3	183558	34.31	0
3	184104	34.41	0
3	184650	34.51	0
3	185196	34.61	0
3	185742	34.71	0
3	186288	34.81	0
3	186834	34.91	0
3	187388	35.01	0
3	187934	35.11	0
3	188480	35.21	0
3	189026	35.31	0
3	189572	35.41	0
3	190118	35.51	0
3	190664	35.61	0
3	191210	35.71	0
3	191756	35.81	0
3	192302	35.91	0
3	192856	36.01	0
3	193402	36.11	0
3	193948	36.21	0
3	194494	36.31	0
3	195040	36.41	0
3	195586	36.51	0
3	196132	36.61	0
3	196678	36.71	0
3	197224	36.81	0
3	197770	36.91	0
3	198324	37.01	0
3	198870	37.11	0
3	199416	37.21	0
3	199962	37.31	0
3	200508	37.41	0
3	201054	37.51	0
3	201600	37.61	0
3	202146	37.71	0
3	202692	37.81	0
3	203238	37.91	0
3	203792	38.01	0
3	204338	38.11	0
3	204884	38.21	0
3	205430	38.31	0
3	205976	38.41	0
3	206522	38.51	0
3	207068	38.61	0
3	207614	38.71	0
3	208160	38.81	0
3	208706	38.91	0
3	209260	39.01	0
3	209806	39.11	0
3	210352	39.21	0
3	210898	39.31	0
3	211444	39.41	0
3	211990	39.51	0
3	212536	39.61	0
3	213082	39.71	0
3	213628	39.81	0
3	214174	39.91	0
3	214728	40.01	0
3	215274	40.11	0
3	215820	40.21	0
3	216366	40.31	0
3	216912	40.41	0
3	217458	40.51	0
3	218004	40.61	0
3	218550	40.71	0
3	219096	40.81	0
3	219642	40.91	0
3	220196	41.01	0
3	220742	41.11	0
3	221288	41.21	0
3	221834	41.31	0
3	222380	41.41	0
3	222926	41.51	0
3	223472	41.61	0
3	224018	41.71	0
3	224564	41.81	0
3	225110	41.91	0
3	225664	42.01	0
3	226210	42.11	0
3	226756	42.21	0
3	227302	42.31	0
3	227848	42.41	0
3	228394	42.51	0
3	228940	42.61	0
3	229486	42.71	0
3	230032	42.81	0
3	230578	42.91	0
3	231132	43.01	0
3	231678	43.11	0
3	232224	43.21	0
3	232770	43.31	0
3	233316	43.41	0
3	233862	43.51	0
3	234408	43.61	0
3	234954	43.71	0
3	235500	43.81	0
3	236046	43.91	0
3	236600	44.01	0
3	237146	44.11	0
3	237692	44.21	0
3	238238	44.31	0
3	238784	44.41	0
3	239330	44.51	0
3	239876	44.61	0
3	240422	44.71	0
3	240968	44.81	0
3	241514	44.91	0
3	242068	45.01	0
3	242614	45.11	0
3	243160	45.21	0
3	243706	45.31	0
3	244252	45.41	0
3	244798	45.51	0
3	245344	45.61	0
3	245890	45.71	0
3	246436	45.81	0
3	246982	45.91	0
3	247536	46.01	0
3	248082	46.11	0
3	248628	46.21	0
3	249174	46.31	0
3	249720	46.41	0
3	250266	46.51	0
3	250812	46.61	0
3	251358	46.71	0
3	251904	46.81	0
3	252450	46.91	0
3	253004	47.01	0
3	253550	47.11	0
3	254096	47.21	0
3	254642	47.31	0
3	255188	47.41	0
3	255734	47.51	0
3	256280	47.61	0
3	256826	47.71	0
3	257372	47.81	0
3	257918	47.91	0
3	258472	48.01	0
3	259018	48.11	0
3	259564	48.21	0
3	260110	48.31	0
3	260656	48.41	0
3	261202	48.51	0
3	261748	48.61	0
3	262294	48.71	0
3	262840	48.81	0
3	263386	48.91	0
3	263940	49.01	0
3	264486	49.11	0
3	265032	49.21	0
3	265578	49.31	0
3	266124	49.41	0
3	266670	49.51	0
3	267216	49.61	0
3	267762	49.71	0
3	268308	49.81	0
3	268854	49.91	0
3	269408	50.01	0
3	269954	50.11	0
3	270500	50.21	0
3	271046	50.31	0
3	271592	50.41	0
3	272138	50.51	0
3	272684	50.61	0
3	273230	50.71	0
3	273776	50.81	0
3	274322	50.91	0
3	274876	51.01	0
3	275422	51.11	0
3	275968	51.21	0
3	276514	51.31	0
3	277060	51.41	0
3	277606	51.51	0
3	278152	51.61	0
3	278698	51.71	0
3	279244	51.81	0
3	279790	51.91	0
3	280344	52.01	0
3	280890	52.11	0
3	281436	52.21	0
3	281982	52.31	0
3	282528	52.41	0
3	283074	52.51	0
3	283620	52.61	0
3	284166	52.71	0
3	284712	52.81	0
3	285258	52.91	0
3	285812	53.01	0
3	286358	53.11	0
3	286904	53.21	0
3	287450	53.31	0
3	287996	53.41	0
3	288542	53.51	0
3	289088	53.61	0
3	289634	53.71	0
3	290180	53.81	0
3	290726	53.91	0
3	291280	54.01	0
3	291826	54.11	0
3	292372	54.21	0
3	292918	54.31	0
3	293464	54.41	0
3	294010	54.51	0
3	294556	54.61	0
3	295102	54.71	0
3	295648	54.81	0
3	296194	54.91	0
3	296748	55.01	0
3	297294	55.11	0
3	297840	55.21	0
3	298386	55.31	0
3	298932	55.41	0
3	299478	55.51	0
3	300024	55.61	0
3	300570	55.71	0
3	301116	55.81	0
3	301662	55.91	0
3	302216	56.01	0
3	302762	56.11	0
3	303308	56.21	0
3	303854	56.31	0
3	304400	56.41	0
3	304946	56.51	0
3	305492	56.61	0
3	306038	56.71	0
3	306584	56.81	0
3	307130	56.91	0
3	307684	57.01	0
3	308230	57.11	0
3	308776	57.21	0
3	309322	57.31	0
3	309868	57.41	0
3	310414	57.51	0
3	310960	57.61	0
3	311506	57.71	0
3	312052	57.81	0
3	312598	57.91	0
3	313152	58.01	0
3	313698	58.11	0
3	314244	58.21	0
3	314790	58.31	0
3	315336	58.41	0
3	315882	58.51	0
3	316428	58.61	0
3	316974	58.71	0
3	317520	58.81	0
3	318066	58.91	0
3	318620	59.01	0
3	319166	59.11	0
3	319712	59.21	0
3	320258	59.31	0
3	320804	59.41	0
3	321350	59.51	0
3	321896	59.61	0
3	322442	59.71	0
3	322988	59.81	0
3	323534	59.91	0
3	324088	60.01	0
3	324634	60.11	0
3	325180	60.21	0
3	325726	60.31	0
3	326272	60.41	0
3	326818	60.51	0
3	327364	60.61	0
3	327910	60.71	0
3	328456	60.81	0
3	329002	60.91	0
3	329556	61.01	0
3	330102	61.11	0
3	330648	61.21	0
3	331194	61.31	0
3	331740	61.41	0
3	332286	61.51	0
3	332832	61.61	0
3	333378	61.71	0
3	333924	61.81	0
3	334470	61.91	0
3	335024	62.01	0
3	335570	62.11	0
3	336116	62.21	0
3	336662	62.31	0
3	337208	62.41	0
3	337754	62.51	0
3	338300	62.61	0
3	338846	62.71	0
3	339392	62.81	0
3	339938	62.91	0
3	340492	63.01	0
3	341038	63.11	0
3	341584	63.21	0
3	342130	63.31	0
3	342676	63.41	0
3	343222	63.51	0
3	343768	63.61	0
3	344314	63.71	0
3	344860	63.81	0
3	345406	63.91	0
3	345960	64.01	0
3	346506	64.11	0
3	347052	64.21	0
3	347598	64.31	0
3	348144	64.41	0
3	348690	64.51	0
3	349236	64.61	0
3	349782	64.71	0
3	350328	64.81	0
3	350874	64.91	0
3	351428	65.01	0
3	351974	65.11	0
3	352520	65.21	0
3	353066	65.31	0
3	353612	65.41	0
3	354158	65.51	0
3	354704	65.61	0
3	355250	65.71	0
3	355796	65.81	0
3	356342	65.91	0
3	356896	66.01	0
3	357442	66.11	0
3	357988	66.21	0
3	358534	66.31	0
3	359080	66.41	0
3	359626	66.51	0
3	360172	66.61	0
3	360718	66.71	0
3	361264	66.81	0
3	361810	66.91	0
3	362364	67.01	0
3	362910	67.11	0
3	363456	67.21	0
3	364002	67.31	0
3	364548	67.41	0
3	365094	67.51	0
3	365640	67.61	0
3	366186	67.71	0
3	366732	67.81	0
3	367278	67.91	0
3	367832	68.01	0
3	368378	68.11	0
3	368924	68.21	0
3	369470	68.31	0
3	370016	68.41	0
3	370562	68.51	0
3	371108	68.61	0
3	371654	68.71	0
3	372200	68.81	0
3	372746	68.91	0
3	373300	69.01	0
3	373846	69.11	0
3	374392	69.21	0
3	374938	69.31	0
3	375484	69.41	0
3	376030	69.51	0
3	376576	69.61	0
3	377122	69.71	0
3	377668	69.81	0
3	378214	69.91	0
3	378768	70.01	0
[...]
104	395035	73	4
104	400503	74	4
104	405971	75	4
104	411439	76	4
104	416907	77	4
104	422375	78	4
104	427843	79	4
104	433311	80	4
104	438779	81	4
104	444247	82	4
104	449715	83	4
104	455183	84	4
104	460651	85	4
104	466119	86	4
104	471587	87	4
104	477055	88	4
104	482523	89	4
104	487991	90	4
104	493459	91	4
104	498927	92	4
104	504395	93	4
104	509863	94	4
104	515331	95	4
104	520799	96	4
104	526267	97	4
104	531735	98	4
104	537203	99	4
104	542671	100	4
105	4898	2	0.021849
105	10366	3	0.02497
105	15834	4	0.02497
105	21302	5	0.02497
105	26770	6	0.02497
105	32238	7	0.02497
105	37706	8	0.02497
105	43174	9	0.02497
105	48643	10	0.02497
105	56019	11	0.026983440287
105	61487	12	0.02497
105	66955	13	0.02497
105	72423	14	0.02497
105	77891	15	0.02497
105	83359	16	0.02497
105	88827	17	0.02497
105	94295	18	0.02497
105	99763	19	0.02497
105	105231	20	0.02497
105	110699	21	0.02497
105	116167	22	0.02497
105	121635	23	0.02497
105	127103	24	0.02497
105	132571	25	0.02497
105	138039	26	0.02497
105	143507	27	0.02497
105	148975	28	0.02497
105	154443	29	0.02497
105	159911	30	0.02497
105	165379	31	0.02497
105	170847	32	0.02497
105	176315	33	0.02497
105	181783	34	0.02497
105	187251	35	0.02497
105	192719	36	0.02497
105	198187	37	0.02497
105	203655	38	0.02497
105	209123	39	0.02497
105	214591	40	0.02497
105	220059	41	0.02497
105	225527	42	0.02497
105	230995	43	0.02497
105	236463	44	0.02497
105	241931	45	0.02497
105	247399	46	0.02497
105	252867	47	0.02497
105	258335	48	0.02497
105	263803	49	0.02497
105	269271	50	0.02497
105	274739	51	0.02497
105	280207	52	0.02497
105	285675	53	0.02497
105	291143	54	0.02497
105	296611	55	0.02497
105	302079	56	0.02497
105	307547	57	0.02497
105	313015	58	0.02497
105	318483	59	0.02497
105	323951	60	0.02497
105	329419	61	0.02497
105	334887	62	0.02497
105	340355	63	0.02497
105	345823	64	0.02497
105	351291	65	0.02497
105	356759	66	0.02497
105	362227	67	0.02497
105	367695	68	0.02497
105	373163	69	0.02497
105	378631	70	0.02497
105	384099	71	0.02497
105	389567	72	0.02497
105	395035	73	0.02497
105	400503	74	0.02497
105	405971	75	0.02497
105	411439	76	0.02497
105	416907	77	0.02497
105	422375	78	0.02497
105	427843	79	0.02497
105	433311	80	0.02497
105	438779	81	0.02497
105	444247	82	0.02497
105	449715	83	0.02497
105	455183	84	0.02497
105	460651	85	0.02497
105	466119	86	0.02497
105	471587	87	0.02497
105	477055	88	0.02497
105	482523	89	0.02497
105	487991	90	0.02497
105	493459	91	0.02497
105	498927	92	0.02497
105	504395	93	0.02497
105	509863	94	0.02497
105	515331	95	0.02497
105	520799	96	0.02497
105	526267	97	0.02497
105	531735	98	0.02497
105	537203	99	0.02497
105	542671	100	0.02497
106	4898	2	0
106	10366	3	0
106	15834	4	0
106	21302	5	0
106	26770	6	0
106	32238	7	0
106	37706	8	0
106	43174	9	0
106	48643	10	0
106	56019	11	0
106	61487	12	0
106	66955	13	0
106	72423	14	0
106	77891	15	0
106	83359	16	0
106	88827	17	0
106	94295	18	0
106	99763	19	0
106	105231	20	0
106	110699	21	0
106	116167	22	0
106	121635	23	0
106	127103	24	0
106	132571	25	0
106	138039	26	0
106	143507	27	0
106	148975	28	0
106	154443	29	0
106	159911	30	0
106	165379	31	0
106	170847	32	0
106	176315	33	0
106	181783	34	0
106	187251	35	0
106	192719	36	0
106	198187	37	0
106	203655	38	0
106	209123	39	0
106	214591	40	0
106	220059	41	0
106	225527	42	0
106	230995	43	0
106	236463	44	0
106	241931	45	0
106	247399	46	0
106	252867	47	0
106	258335	48	0
106	263803	49	0
106	269271	50	0
106	274739	51	0
106	280207	52	0
106	285675	53	0
106	291143	54	0
106	296611	55	0
106	302079	56	0
106	307547	57	0
106	313015	58	0
106	318483	59	0
106	323951	60	0
106	329419	61	0
106	334887	62	0
106	340355	63	0
106	345823	64	0
106	351291	65	0
106	356759	66	0
106	362227	67	0
106	367695	68	0
106	373163	69	0
106	378631	70	0
106	384099	71	0
106	389567	72	0
106	395035	73	0
106	400503	74	0
106	405971	75	0
106	411439	76	0
106	416907	77	0
106	422375	78	0
106	427843	79	0
106	433311	80	0
106	438779	81	0
106	444247	82	0
106	449715	83	0
106	455183	84	0
106	460651	85	0
106	466119	86	0
106	471587	87	0
106	477055	88	0
106	482523	89	0
106	487991	90	0
106	493459	91	0
106	498927	92	0
106	504395	93	0
106	509863	94	0
106	515331	95	0
106	520799	96	0
106	526267	97	0
106	531735	98	0
106	537203	99	0
106	542671	100	0
107	4899	2	5
107	10367	3	5
107	15835	4	5
107	21303	5	5
107	26771	6	5
107	32239	7	5
107	37707	8	5
107	43175	9	5
107	48644	10	5
107	56020	11	5
107	61488	12	5
107	66956	13	5
107	72424	14	5
107	77892	15	5
107	83360	16	5
107	88828	17	5
107	94296	18	5
107	99764	19	5
107	105232	20	5
107	110700	21	5
107	116168	22	5
107	121636	23	5
107	127104	24	5
107	132572	25	5
107	138040	26	5
107	143508	27	5
107	148976	28	5
107	154444	29	5
107	159912	30	5
107	165380	31	5
107	170848	32	5
107	176316	33	5
107	181784	34	5
107	187252	35	5
107	192720	36	5
107	198188	37	5
107	203656	38	5
107	209124	39	5
107	214592	40	5
107	220060	41	5
107	225528	42	5
107	230996	43	5
107	236464	44	5
107	241932	45	5
107	247400	46	5
107	252868	47	5
107	258336	48	5
107	263804	49	5
107	269272	50	5
107	274740	51	5
107	280208	52	5
107	285676	53	5
107	291144	54	5
107	296612	55	5
107	302080	56	5
107	307548	57	5
107	313016	58	5
107	318484	59	5
107	323952	60	5
107	329420	61	5
107	334888	62	5
107	340356	63	5
107	345824	64	5
107	351292	65	5
107	356760	66	5
107	362228	67	5
107	367696	68	5
107	373164	69	5
107	378632	70	5
107	384100	71	5
107	389568	72	5
107	395036	73	5
107	400504	74	5
107	405972	75	5
107	411440	76	5
107	416908	77	5
107	422376	78	5
107	427844	79	5
107	433312	80	5
107	438780	81	5
107	444248	82	5
107	449716	83	5
107	455184	84	5
107	460652	85	5
107	466120	86	5
107	471588	87	5
107	477056	88	5
107	482524	89	5
107	487992	90	5
107	493460	91	5
107	498928	92	5
107	504396	93	5
107	509864	94	5
107	515332	95	5
107	520800	96	5
107	526268	97	5
107	531736	98	5
107	537204	99	5
107	542672	100	5
108	4899	2	0.021848
108	10367	3	0.02497
108	15835	4	0.02497
108	21303	5	0.02497
108	26771	6	0.02497
108	32239	7	0.02497
108	37707	8	0.02497
108	43175	9	0.02497
108	48644	10	0.02497
108	56020	11	0.026983480315
108	61488	12	0.02497
108	66956	13	0.02497
108	72424	14	0.02497
108	77892	15	0.02497
108	83360	16	0.02497
108	88828	17	0.02497
108	94296	18	0.02497
108	99764	19	0.02497
108	105232	20	0.02497
108	110700	21	0.02497
108	116168	22	0.02497
108	121636	23	0.02497
108	127104	24	0.02497
108	132572	25	0.02497
108	138040	26	0.02497
108	143508	27	0.02497
108	148976	28	0.02497
108	154444	29	0.02497
108	159912	30	0.02497
108	165380	31	0.02497
108	170848	32	0.02497
108	176316	33	0.02497
108	181784	34	0.02497
108	187252	35	0.02497
108	192720	36	0.02497
108	198188	37	0.02497
108	203656	38	0.02497
108	209124	39	0.02497
108	214592	40	0.02497
108	220060	41	0.02497
108	225528	42	0.02497
108	230996	43	0.02497
108	236464	44	0.02497
108	241932	45	0.02497
108	247400	46	0.02497
108	252868	47	0.02497
108	258336	48	0.02497
108	263804	49	0.02497
108	269272	50	0.02497
108	274740	51	0.02497
108	280208	52	0.02497
108	285676	53	0.02497
108	291144	54	0.02497
108	296612	55	0.02497
108	302080	56	0.02497
108	307548	57	0.02497
108	313016	58	0.02497
108	318484	59	0.02497
108	323952	60	0.02497
108	329420	61	0.02497
108	334888	62	0.02497
108	340356	63	0.02497
108	345824	64	0.02497
108	351292	65	0.02497
108	356760	66	0.02497
108	362228	67	0.02497
108	367696	68	0.02497
108	373164	69	0.02497
108	378632	70	0.02497
108	384100	71	0.02497
108	389568	72	0.02497
108	395036	73	0.02497
108	400504	74	0.02497
108	405972	75	0.02497
108	411440	76	0.02497
108	416908	77	0.02497
108	422376	78	0.02497
108	427844	79	0.02497
108	433312	80	0.02497
108	438780	81	0.02497
108	444248	82	0.02497
108	449716	83	0.02497
108	455184	84	0.02497
108	460652	85	0.02497
108	466120	86	0.02497
108	471588	87	0.02497
108	477056	88	0.02497
108	482524	89	0.02497
108	487992	90	0.02497
108	493460	91	0.02497
108	498928	92	0.02497
108	504396	93	0.02497
108	509864	94	0.02497
108	515332	95	0.02497
108	520800	96	0.02497
108	526268	97	0.02497
108	531736	98	0.02497
108	537204	99	0.02497
108	542672	100	0.02497
109	4899	2	0
109	10367	3	0
109	15835	4	0
109	21303	5	0
109	26771	6	0
109	32239	7	0
109	37707	8	0
109	43175	9	0
109	48644	10	0
109	56020	11	0
109	61488	12	0
109	66956	13	0
109	72424	14	0
109	77892	15	0
109	83360	16	0
109	88828	17	0
109	94296	18	0
109	99764	19	0
109	105232	20	0
109	110700	21	0
109	116168	22	0
109	121636	23	0
109	127104	24	0
109	132572	25	0
109	138040	26	0
109	143508	27	0
109	148976	28	0
109	154444	29	0
109	159912	30	0
109	165380	31	0
109	170848	32	0
109	176316	33	0
109	181784	34	0
109	187252	35	0
109	192720	36	0
109	198188	37	0
109	203656	38	0
109	209124	39	0
109	214592	40	0
109	220060	41	0
109	225528	42	0
109	230996	43	0
109	236464	44	0
109	241932	45	0
109	247400	46	0
109	252868	47	0
109	258336	48	0
109	263804	49	0
109	269272	50	0
109	274740	51	0
109	280208	52	0
109	285676	53	0
109	291144	54	0
109	296612	55	0
109	302080	56	0
109	307548	57	0
109	313016	58	0
109	318484	59	0
109	323952	60	0
109	329420	61	0
109	334888	62	0
109	340356	63	0
109	345824	64	0
109	351292	65	0
109	356760	66	0
109	362228	67	0
109	367696	68	0
109	373164	69	0
109	378632	70	0
109	384100	71	0
109	389568	72	0
109	395036	73	0
109	400504	74	0
109	405972	75	0
109	411440	76	0
109	416908	77	0
109	422376	78	0
109	427844	79	0
109	433312	80	0
109	438780	81	0
109	444248	82	0
109	449716	83	0
109	455184	84	0
109	460652	85	0
109	466120	86	0
109	471588	87	0
109	477056	88	0
109	482524	89	0
109	487992	90	0
109	493460	91	0
109	498928	92	0
109	504396	93	0
109	509864	94	0
109	515332	95	0
109	520800	96	0
109	526268	97	0
109	531736	98	0
109	537204	99	0
109	542672	100	0
110	4900	2	6
110	10368	3	6
110	15836	4	6
110	21304	5	6
110	26772	6	6
110	32240	7	6
110	37708	8	6
110	43176	9	6
110	48645	10	6
110	56021	11	6
110	61489	12	6
110	66957	13	6
110	72425	14	6
110	77893	15	6
110	83361	16	6
110	88829	17	6
110	94297	18	6
110	99765	19	6
110	105233	20	6
110	110701	21	6
110	116169	22	6
110	121637	23	6
110	127105	24	6
110	132573	25	6
110	138041	26	6
110	143509	27	6
110	148977	28	6
110	154445	29	6
110	159913	30	6
110	165381	31	6
110	170849	32	6
110	176317	33	6
110	181785	34	6
110	187253	35	6
110	192721	36	6
110	198189	37	6
110	203657	38	6
110	209125	39	6
110	214593	40	6
110	220061	41	6
110	225529	42	6
110	230997	43	6
110	236465	44	6
110	241933	45	6
110	247401	46	6
110	252869	47	6
110	258337	48	6
110	263805	49	6
110	269273	50	6
110	274741	51	6
110	280209	52	6
110	285677	53	6
110	291145	54	6
110	296613	55	6
110	302081	56	6
110	307549	57	6
110	313017	58	6
110	318485	59	6
110	323953	60	6
110	329421	61	6
110	334889	62	6
110	340357	63	6
110	345825	64	6
110	351293	65	6
110	356761	66	6
110	362229	67	6
110	367697	68	6
110	373165	69	6
110	378633	70	6
110	384101	71	6
110	389569	72	6
110	395037	73	6
110	400505	74	6
110	405973	75	6
110	411441	76	6
110	416909	77	6
110	422377	78	6
110	427845	79	6
110	433313	80	6
110	438781	81	6
110	444249	82	6
110	449717	83	6
110	455185	84	6
110	460653	85	6
110	466121	86	6
110	471589	87	6
110	477057	88	6
110	482525	89	6
110	487993	90	6
110	493461	91	6
110	498929	92	6
110	504397	93	6
110	509865	94	6
110	515333	95	6
110	520801	96	6
110	526269	97	6
110	531737	98	6
110	537205	99	6
110	542673	100	6
111	4900	2	0.021849
111	10368	3	0.02497
111	15836	4	0.02497
111	21304	5	0.02497
111	26772	6	0.02497
111	32240	7	0.02497
111	37708	8	0.02497
111	43176	9	0.02497
111	48645	10	0.02497
111	56021	11	0.026950440292
111	61489	12	0.02497
111	66957	13	0.02497
111	72425	14	0.02497
111	77893	15	0.02497
111	83361	16	0.02497
111	88829	17	0.02497
111	94297	18	0.02497
111	99765	19	0.02497
111	105233	20	0.02497
111	110701	21	0.02497
111	116169	22	0.02497
111	121637	23	0.02497
111	127105	24	0.02497
111	132573	25	0.02497
111	138041	26	0.02497
111	143509	27	0.02497
111	148977	28	0.02497
111	154445	29	0.02497
111	159913	30	0.02497
111	165381	31	0.02497
111	170849	32	0.02497
111	176317	33	0.02497
111	181785	34	0.02497
111	187253	35	0.02497
111	192721	36	0.02497
111	198189	37	0.02497
111	203657	38	0.02497
111	209125	39	0.02497
111	214593	40	0.02497
111	220061	41	0.02497
111	225529	42	0.02497
111	230997	43	0.02497
111	236465	44	0.02497
111	241933	45	0.02497
111	247401	46	0.02497
111	252869	47	0.02497
111	258337	48	0.02497
111	263805	49	0.02497
111	269273	50	0.02497
111	274741	51	0.02497
111	280209	52	0.02497
111	285677	53	0.02497
111	291145	54	0.02497
111	296613	55	0.02497
111	302081	56	0.02497
111	307549	57	0.02497
111	313017	58	0.02497
111	318485	59	0.02497
111	323953	60	0.02497
111	329421	61	0.02497
111	334889	62	0.02497
111	340357	63	0.02497
111	345825	64	0.02497
111	351293	65	0.02497
111	356761	66	0.02497
111	362229	67	0.02497
111	367697	68	0.02497
111	373165	69	0.02497
111	378633	70	0.02497
111	384101	71	0.02497
111	389569	72	0.02497
111	395037	73	0.02497
111	400505	74	0.02497
111	405973	75	0.02497
111	411441	76	0.02497
111	416909	77	0.02497
111	422377	78	0.02497
111	427845	79	0.02497
111	433313	80	0.02497
111	438781	81	0.02497
111	444249	82	0.02497
111	449717	83	0.02497
111	455185	84	0.02497
111	460653	85	0.02497
111	466121	86	0.02497
111	471589	87	0.02497
111	477057	88	0.02497
111	482525	89	0.02497
111	487993	90	0.02497
111	493461	91	0.02497
111	498929	92	0.02497
111	504397	93	0.02497
111	509865	94	0.02497
111	515333	95	0.02497
111	520801	96	0.02497
111	526269	97	0.02497
111	531737	98	0.02497
111	537205	99	0.02497
111	542673	100	0.02497
112	4900	2	0
112	10368	3	0
112	15836	4	0
112	21304	5	0
112	26772	6	0
112	32240	7	0
112	37708	8	0
112	43176	9	0
112	48645	10	0
112	56021	11	0
112	61489	12	0
112	66957	13	0
112	72425	14	0
112	77893	15	0
112	83361	16	0
112	88829	17	0
112	94297	18	0
112	99765	19	0
112	105233	20	0
112	110701	21	0
112	116169	22	0
112	121637	23	0
112	127105	24	0
112	132573	25	0
112	138041	26	0
112	143509	27	0
112	148977	28	0
112	154445	29	0
112	159913	30	0
112	165381	31	0
112	170849	32	0
112	176317	33	0
112	181785	34	0
112	187253	35	0
112	192721	36	0
112	198189	37	0
112	203657	38	0
112	209125	39	0
112	214593	40	0
112	220061	41	0
112	225529	42	0
112	230997	43	0
112	236465	44	0
112	241933	45	0
112	247401	46	0
112	252869	47	0
112	258337	48	0
112	263805	49	0
112	269273	50	0
112	274741	51	0
112	280209	52	0
112	285677	53	0
112	291145	54	0
112	296613	55	0
112	302081	56	0
112	307549	57	0
112	313017	58	0
112	318485	59	0
112	323953	60	0
112	329421	61	0
112	334889	62	0
112	340357	63	0
112	345825	64	0
112	351293	65	0
112	356761	66	0
112	362229	67	0
112	367697	68	0
112	373165	69	0
112	378633	70	0
112	384101	71	0
112	389569	72	0
112	395037	73	0
112	400505	74	0
112	405973	75	0
112	411441	76	0
112	416909	77	0
112	422377	78	0
112	427845	79	0
112	433313	80	0
112	438781	81	0
112	444249	82	0
112	449717	83	0
112	455185	84	0
112	460653	85	0
112	466121	86	0
112	471589	87	0
112	477057	88	0
112	482525	89	0
112	487993	90	0
112	493461	91	0
112	498929	92	0
112	504397	93	0
112	509865	94	0
112	515333	95	0
112	520801	96	0
112	526269	97	0
112	531737	98	0
112	537205	99	0
112	542673	100	0
113	4901	2	7
113	10369	3	7
113	15837	4	7
113	21305	5	7
113	26773	6	7
113	32241	7	7
113	37709	8	7
113	43177	9	7
113	48646	10	7
113	56022	11	7
113	61490	12	7
113	66958	13	7
113	72426	14	7
113	77894	15	7
113	83362	16	7
113	88830	17	7
113	94298	18	7
113	99766	19	7
113	105234	20	7
113	110702	21	7
113	116170	22	7
113	121638	23	7
113	127106	24	7
113	132574	25	7
113	138042	26	7
113	143510	27	7
113	148978	28	7
113	154446	29	7
113	159914	30	7
113	165382	31	7
113	170850	32	7
113	176318	33	7
113	181786	34	7
113	187254	35	7
113	192722	36	7
113	198190	37	7
113	203658	38	7
113	209126	39	7
113	214594	40	7
113	220062	41	7
113	225530	42	7
113	230998	43	7
113	236466	44	7
113	241934	45	7
113	247402	46	7
113	252870	47	7
113	258338	48	7
113	263806	49	7
113	269274	50	7
113	274742	51	7
113	280210	52	7
113	285678	53	7
113	291146	54	7
113	296614	55	7
113	302082	56	7
113	307550	57	7
113	313018	58	7
113	318486	59	7
113	323954	60	7
113	329422	61	7
113	334890	62	7
113	340358	63	7
113	345826	64	7
113	351294	65	7
113	356762	66	7
113	362230	67	7
113	367698	68	7
113	373166	69	7
113	378634	70	7
113	384102	71	7
113	389570	72	7
113	395038	73	7
113	400506	74	7
113	405974	75	7
113	411442	76	7
113	416910	77	7
113	422378	78	7
113	427846	79	7
113	433314	80	7
113	438782	81	7
113	444250	82	7
113	449718	83	7
113	455186	84	7
113	460654	85	7
113	466122	86	7
113	471590	87	7
113	477058	88	7
113	482526	89	7
113	487994	90	7
113	493462	91	7
113	498930	92	7
113	504398	93	7
113	509866	94	7
113	515334	95	7
113	520802	96	7
113	526270	97	7
113	531738	98	7
113	537206	99	7
113	542674	100	7
114	4901	2	0.021849
114	10369	3	0.02497
114	15837	4	0.02497
114	21305	5	0.02497
114	26773	6	0.02497
114	32241	7	0.02497
114	37709	8	0.02497
114	43177	9	0.02497
114	48646	10	0.02497
114	56022	11	0.026890440294
114	61490	12	0.02497
114	66958	13	0.02497
114	72426	14	0.02497
114	77894	15	0.02497
114	83362	16	0.02497
114	88830	17	0.02497
114	94298	18	0.02497
114	99766	19	0.02497
114	105234	20	0.02497
114	110702	21	0.02497
114	116170	22	0.02497
114	121638	23	0.02497
114	127106	24	0.02497
114	132574	25	0.02497
114	138042	26	0.02497
114	143510	27	0.02497
114	148978	28	0.02497
114	154446	29	0.02497
114	159914	30	0.02497
114	165382	31	0.02497
114	170850	32	0.02497
114	176318	33	0.02497
114	181786	34	0.02497
114	187254	35	0.02497
114	192722	36	0.02497
114	198190	37	0.02497
114	203658	38	0.02497
114	209126	39	0.02497
114	214594	40	0.02497
114	220062	41	0.02497
114	225530	42	0.02497
114	230998	43	0.02497
114	236466	44	0.02497
114	241934	45	0.02497
114	247402	46	0.02497
114	252870	47	0.02497
114	258338	48	0.02497
114	263806	49	0.02497
114	269274	50	0.02497
114	274742	51	0.02497
114	280210	52	0.02497
114	285678	53	0.02497
114	291146	54	0.02497
114	296614	55	0.02497
114	302082	56	0.02497
114	307550	57	0.02497
114	313018	58	0.02497
114	318486	59	0.02497
114	323954	60	0.02497
114	329422	61	0.02497
114	334890	62	0.02497
114	340358	63	0.02497
114	345826	64	0.02497
114	351294	65	0.02497
114	356762	66	0.02497
114	362230	67	0.02497
114	367698	68	0.02497
114	373166	69	0.02497
114	378634	70	0.02497
114	384102	71	0.02497
114	389570	72	0.02497
114	395038	73	0.02497
114	400506	74	0.02497
114	405974	75	0.02497
114	411442	76	0.02497
114	416910	77	0.02497
114	422378	78	0.02497
114	427846	79	0.02497
114	433314	80	0.02497
114	438782	81	0.02497
114	444250	82	0.02497
114	449718	83	0.02497
114	455186	84	0.02497
114	460654	85	0.02497
114	466122	86	0.02497
114	471590	87	0.02497
114	477058	88	0.02497
114	482526	89	0.02497
114	487994	90	0.02497
114	493462	91	0.02497
114	498930	92	0.02497
114	504398	93	0.02497
114	509866	94	0.02497
114	515334	95	0.02497
114	520802	96	0.02497
114	526270	97	0.02497
114	531738	98	0.02497
114	537206	99	0.02497
114	542674	100	0.02497
115	4901	2	0
115	10369	3	0
115	15837	4	0
115	21305	5	0
115	26773	6	0
115	32241	7	0
115	37709	8	0
115	43177	9	0
115	48646	10	0
115	56022	11	0
115	61490	12	0
115	66958	13	0
115	72426	14	0
115	77894	15	0
115	83362	16	0
115	88830	17	0
115	94298	18	0
115	99766	19	0
115	105234	20	0
115	110702	21	0
115	116170	22	0
115	121638	23	0
115	127106	24	0
115	132574	25	0
115	138042	26	0
115	143510	27	0
115	148978	28	0
115	154446	29	0
115	159914	30	0
115	165382	31	0
115	170850	32	0
115	176318	33	0
115	181786	34	0
115	187254	35	0
115	192722	36	0
115	198190	37	0
115	203658	38	0
115	209126	39	0
115	214594	40	0
115	220062	41	0
115	225530	42	0
115	230998	43	0
115	236466	44	0
115	241934	45	0
115	247402	46	0
115	252870	47	0
115	258338	48	0
115	263806	49	0
115	269274	50	0
115	274742	51	0
115	280210	52	0
115	285678	53	0
115	291146	54	0
115	296614	55	0
115	302082	56	0
115	307550	57	0
115	313018	58	0
115	318486	59	0
115	323954	60	0
115	329422	61	0
115	334890	62	0
115	340358	63	0
115	345826	64	0
115	351294	65	0
115	356762	66	0
115	362230	67	0
115	367698	68	0
115	373166	69	0
115	378634	70	0
115	384102	71	0
115	389570	72	0
115	395038	73	0
115	400506	74	0
115	405974	75	0
115	411442	76	0
115	416910	77	0
115	422378	78	0
115	427846	79	0
115	433314	80	0
115	438782	81	0
115	444250	82	0
115	449718	83	0
115	455186	84	0
115	460654	85	0
115	466122	86	0
115	471590	87	0
115	477058	88	0
115	482526	89	0
115	487994	90	0
115	493462	91	0
115	498930	92	0
115	504398	93	0
115	509866	94	0
115	515334	95	0
115	520802	96	0
115	526270	97	0
115	531738	98	0
115	537206	99	0
115	542674	100	0

