version 3
run BreakRanksNoGui-22-20240708-22:27:26-165687
attr configname BreakRanksNoGui
attr datetime 20240708-22:27:26
attr datetimef 20240708-222726
attr experiment BreakRanksNoGui
attr inifile omnetpp.ini
attr iterationvars "$nCars=8, $platoonSize=8, $nLanes=1, $ploegH=0.5, $controller=1, $headway=0.1, $leaderHeadway=1.2, $leaderSpeed=150, $breakRanksSafetyDistance=2, $minSpeed=140, $maxSpeed=160, $beaconInterval=0.1, $priority=4, $packetSize=200, $sController=\"CACC\", $0=2, $1=0"
attr iterationvarsd nCars=8/platoonSize=8/nLanes=1/ploegH=0.5/controller=1/headway=0.1/leaderHeadway=1.2/leaderSpeed=150/breakRanksSafetyDistance=2/minSpeed=140/maxSpeed=160/beaconInterval=0.1/priority=4/packetSize=200/sController=CACC/2/0
attr iterationvarsf nCars=8,platoonSize=8,nLanes=1,ploegH=0.5,controller=1,headway=0.1,leaderHeadway=1.2,leaderSpeed=150,breakRanksSafetyDistance=2,minSpeed=140,maxSpeed=160,beaconInterval=0.1,priority=4,packetSize=200,sController=CACC,2,0-
attr measurement "$nCars=8, $platoonSize=8, $nLanes=1, $ploegH=0.5, $controller=1, $headway=0.1, $leaderHeadway=1.2, $leaderSpeed=150, $breakRanksSafetyDistance=2, $minSpeed=140, $maxSpeed=160, $beaconInterval=0.1, $priority=4, $packetSize=200, $sController=\"CACC\", $0=2, $1=0"
attr network Highway
attr processid 165687
attr repetition 2
attr replication #2
attr resultdir results
attr runnumber 22
attr seedset 2
itervar beaconInterval 0.1
itervar breakRanksSafetyDistance 2
itervar controller 1
itervar headway 0.1
itervar leaderHeadway 1.2
itervar leaderSpeed 150
itervar maxSpeed 160
itervar minSpeed 140
itervar nCars 8
itervar nLanes 1
itervar packetSize 200
itervar platoonSize 8
itervar ploegH 0.5
itervar priority 4
itervar sController "\"CACC\""
config image-path ../../../veins/images
config repeat 10
config extends BreakRanks
config *.manager.command "\"sumo\""
config *.manager.ignoreGuiCommands true
config output-vector-file results/BreakRanks_1_0.1_150_2/result_2.vec
config output-scalar-file results/BreakRanks_1_0.1_150_2/result_2.sca
config extends Platooning
config *.node[*].scenario_type "\"BreakRanksScenario\""
config *.manager.command "\"sumo-gui\""
config *.node[*].scenario_type "\"SimpleScenario\""
config cmdenv-express-mode true
config cmdenv-autoflush true
config cmdenv-status-frequency 15s
config num-rngs 6
config network Highway
config debug-on-errors true
config print-undisposed true
config *.playgroundSizeX 65000m
config *.playgroundSizeY 25000m
config *.playgroundSizeZ 50m
config sim-time-limit "100 s"
config *.annotations.draw false
config *.obstacles.debug false
config *.world.useTorus false
config *.world.use2D false
config *.manager.updateInterval 0.01s
config *.manager.host "\"localhost\""
config *.manager.moduleType "\"org.car2x.plexe.PlatoonCar\""
config *.manager.moduleName "\"node\""
config *.manager.moduleDisplayString "\"\""
config *.manager.autoShutdown true
config *.manager.margin 25
config *.connectionManager.sendDirect true
config *.connectionManager.maxInterfDist 2600m
config *.connectionManager.drawMaxIntfDist false
config *.**.nic.mac1609_4.useServiceChannel false
config *.**.nic.mac1609_4.txPower 100mW
config *.**.nic.mac1609_4.bitrate 6Mbps
config *.**.nic.mac1609_4.useAcks true
config *.**.nic.mac1609_4.ackErrorRate 0.0
config *.**.nic.mac1609_4.frameErrorRate 0.0
config *.**.nic.phy80211p.minPowerLevel -94dBm
config *.**.nic.phy80211p.maxTXPower 100mW
config *.**.nic.phy80211p.useNoiseFloor true
config *.**.nic.phy80211p.noiseFloor -95dBm
config *.**.nic.phy80211p.decider "xmldoc(\"config.xml\")"
config *.**.nic.phy80211p.analogueModels "xmldoc(\"config.xml\")"
config *.**.nic.phy80211p.usePropagationDelay true
config *.node[*].mobility.x 0
config *.node[*].mobility.y 0
config *.node[*].mobility.z 1.895
config seed-set 2
config **.seed 2
config *.node[*].prot.rng-0 2
config *.node[*].appl.rng-0 3
config *.node[*].scenario.rng-0 4
config **.traffic.rng-0 5
config *.manager.configFile "\"./sumocfg/freeway.sumo.cfg\""
config *.manager.launchConfig "xmldoc(\"./sumocfg/freeway.launchd.xml\")"
config **.numberOfCars 8
config **.numberOfCarsPerPlatoon 8
config **.numberOfLanes 1
config *.node[*].helper_type "\"PositionHelper\""
config *.node[*].scenario.caccC1 0.5
config *.node[*].scenario.caccXi 1
config *.node[*].scenario.caccOmegaN "0.2 Hz"
config *.node[*].scenario.caccSpacing "2 m"
config *.node[*].scenario.engineTau "0.5 s"
config *.node[*].scenario.ploegH 0.5s
config *.node[*].scenario.ploegKp 0.2
config *.node[*].scenario.ploegKd 0.7
config *.node[*].scenario.useRealisticEngine false
config *.node[*].scenario.useControllerAcceleration true
config *.node[*].scenario.nLanes 1
config **.numericController 1
config **.headway 0.1s
config *.node[*].scenario.accHeadway 0.1s
config *.node[*].scenario.leaderHeadway 1.2s
config *.node[*].scenario.leaderSpeed 150kmph
config *.node[*].appl_type "\"SimplePlatooningApp\""
config *.node[*].appl.*.scalar-recording true
config *.node[*].appl.*.vector-recording true
config *.node[0].appl.breakRanksSafetyDistance 2m
config *.node[*].appl.minSpeed 140kmph
config *.node[*].appl.maxSpeed 160kmph
config *.node[*].protocol_type "\"SimplePlatooningBeaconing\""
config *.node[*].prot.*.scalar-recording true
config *.node[*].prot.*.vector-recording true
config *.node[*].prot.beaconingInterval 0.1s
config *.node[*].prot.priority 4
config *.node[*].prot.packetSize 200
config **.traffic_type "\"PlatoonsTrafficManager\""
config **.traffic.platoonInsertTime "1 s"
config **.traffic.platoonInsertSpeed 150kmph
config **.traffic.nCars 8
config **.traffic.platoonSize 8
config **.traffic.nLanes 1
config **.traffic.platooningVType "\"vtypeauto\""
config **.traffic.controller "\"CACC\""
config **.traffic.platoonInsertDistance 2m
config **.traffic.platoonInsertHeadway 0s
config **.traffic.platoonLeaderHeadway 1.2s
config **.scalar-recording false
config **.vector-recording false
config output-vector-file results/BreakRanksNoGui_1_0.1_150_2/result_2.vec
config output-scalar-file results/BreakRanksNoGui_1_0.1_150_2/result_2.sca

vector 0 Highway.node[0].appl distance ETV
vector 1 Highway.node[0].appl relativeSpeed ETV
vector 2 Highway.node[0].appl nodeId ETV
vector 3 Highway.node[0].appl acceleration ETV
vector 4 Highway.node[0].appl controllerAcceleration ETV
vector 5 Highway.node[0].appl speed ETV
vector 6 Highway.node[0].appl posx ETV
vector 7 Highway.node[0].appl posy ETV
vector 8 Highway.node[1].appl distance ETV
vector 9 Highway.node[1].appl relativeSpeed ETV
vector 10 Highway.node[1].appl nodeId ETV
vector 11 Highway.node[1].appl acceleration ETV
vector 12 Highway.node[1].appl controllerAcceleration ETV
vector 13 Highway.node[1].appl speed ETV
vector 14 Highway.node[1].appl posx ETV
vector 15 Highway.node[1].appl posy ETV
vector 16 Highway.node[2].appl distance ETV
vector 17 Highway.node[2].appl relativeSpeed ETV
vector 18 Highway.node[2].appl nodeId ETV
vector 19 Highway.node[2].appl acceleration ETV
vector 20 Highway.node[2].appl controllerAcceleration ETV
vector 21 Highway.node[2].appl speed ETV
vector 22 Highway.node[2].appl posx ETV
vector 23 Highway.node[2].appl posy ETV
vector 24 Highway.node[3].appl distance ETV
vector 25 Highway.node[3].appl relativeSpeed ETV
vector 26 Highway.node[3].appl nodeId ETV
vector 27 Highway.node[3].appl acceleration ETV
vector 28 Highway.node[3].appl controllerAcceleration ETV
vector 29 Highway.node[3].appl speed ETV
vector 30 Highway.node[3].appl posx ETV
vector 31 Highway.node[3].appl posy ETV
vector 32 Highway.node[4].appl distance ETV
vector 33 Highway.node[4].appl relativeSpeed ETV
vector 34 Highway.node[4].appl nodeId ETV
vector 35 Highway.node[4].appl acceleration ETV
vector 36 Highway.node[4].appl controllerAcceleration ETV
vector 37 Highway.node[4].appl speed ETV
vector 38 Highway.node[4].appl posx ETV
vector 39 Highway.node[4].appl posy ETV
vector 40 Highway.node[5].appl distance ETV
vector 41 Highway.node[5].appl relativeSpeed ETV
vector 42 Highway.node[5].appl nodeId ETV
vector 43 Highway.node[5].appl acceleration ETV
vector 44 Highway.node[5].appl controllerAcceleration ETV
vector 45 Highway.node[5].appl speed ETV
vector 46 Highway.node[5].appl posx ETV
vector 47 Highway.node[5].appl posy ETV
vector 48 Highway.node[6].appl distance ETV
vector 49 Highway.node[6].appl relativeSpeed ETV
vector 50 Highway.node[6].appl nodeId ETV
vector 51 Highway.node[6].appl acceleration ETV
vector 52 Highway.node[6].appl controllerAcceleration ETV
vector 53 Highway.node[6].appl speed ETV
vector 54 Highway.node[6].appl posx ETV
vector 55 Highway.node[6].appl posy ETV
vector 56 Highway.node[7].appl distance ETV
vector 57 Highway.node[7].appl relativeSpeed ETV
vector 58 Highway.node[7].appl nodeId ETV
vector 59 Highway.node[7].appl acceleration ETV
vector 60 Highway.node[7].appl controllerAcceleration ETV
vector 61 Highway.node[7].appl speed ETV
vector 62 Highway.node[7].appl posx ETV
vector 63 Highway.node[7].appl posy ETV
vector 64 Highway.node[7].prot frontDelay ETV
vector 65 Highway.node[7].prot frontDelayId ETV
vector 66 Highway.node[6].prot frontDelay ETV
vector 67 Highway.node[6].prot frontDelayId ETV
vector 68 Highway.node[1].prot leaderDelay ETV
vector 69 Highway.node[1].prot leaderDelayId ETV
vector 70 Highway.node[1].prot frontDelay ETV
vector 71 Highway.node[1].prot frontDelayId ETV
vector 72 Highway.node[2].prot leaderDelay ETV
vector 73 Highway.node[2].prot leaderDelayId ETV
vector 74 Highway.node[3].prot leaderDelay ETV
vector 75 Highway.node[3].prot leaderDelayId ETV
vector 76 Highway.node[4].prot leaderDelay ETV
vector 77 Highway.node[4].prot leaderDelayId ETV
vector 78 Highway.node[5].prot leaderDelay ETV
vector 79 Highway.node[5].prot leaderDelayId ETV
vector 80 Highway.node[6].prot leaderDelay ETV
vector 81 Highway.node[6].prot leaderDelayId ETV
vector 82 Highway.node[7].prot leaderDelay ETV
vector 83 Highway.node[7].prot leaderDelayId ETV
vector 84 Highway.node[4].prot frontDelay ETV
vector 85 Highway.node[4].prot frontDelayId ETV
vector 86 Highway.node[3].prot frontDelay ETV
vector 87 Highway.node[3].prot frontDelayId ETV
vector 88 Highway.node[5].prot frontDelay ETV
vector 89 Highway.node[5].prot frontDelayId ETV
vector 90 Highway.node[2].prot frontDelay ETV
vector 91 Highway.node[2].prot frontDelayId ETV
vector 92 Highway.node[0].prot nodeId ETV
vector 93 Highway.node[0].prot busyTime ETV
vector 94 Highway.node[0].prot collisions ETV
vector 95 Highway.node[1].prot nodeId ETV
vector 96 Highway.node[1].prot busyTime ETV
vector 97 Highway.node[1].prot collisions ETV
vector 98 Highway.node[2].prot nodeId ETV
vector 99 Highway.node[2].prot busyTime ETV
vector 100 Highway.node[2].prot collisions ETV
vector 101 Highway.node[3].prot nodeId ETV
vector 102 Highway.node[3].prot busyTime ETV
vector 103 Highway.node[3].prot collisions ETV
vector 104 Highway.node[4].prot nodeId ETV
vector 105 Highway.node[4].prot busyTime ETV
vector 106 Highway.node[4].prot collisions ETV
vector 107 Highway.node[5].prot nodeId ETV
vector 108 Highway.node[5].prot busyTime ETV
vector 109 Highway.node[5].prot collisions ETV
vector 110 Highway.node[6].prot nodeId ETV
vector 111 Highway.node[6].prot busyTime ETV
vector 112 Highway.node[6].prot collisions ETV
vector 113 Highway.node[7].prot nodeId ETV
vector 114 Highway.node[7].prot busyTime ETV
vector 115 Highway.node[7].prot collisions ETV
0	113	1.11	-1
0	659	1.21	-1
0	1205	1.31	-1
0	1751	1.41	-1
0	2297	1.51	-1
0	2843	1.61	-1
0	3389	1.71	-1
0	3935	1.81	-1
0	4481	1.91	-1
0	5035	2.01	-1
0	5581	2.11	-1
0	6127	2.21	-1
0	6673	2.31	-1
0	7219	2.41	-1
0	7765	2.51	-1
0	8311	2.61	-1
0	8857	2.71	-1
0	9403	2.81	-1
0	9949	2.91	-1
0	10503	3.01	-1
0	11049	3.11	-1
0	11595	3.21	-1
0	12141	3.31	-1
0	12687	3.41	-1
0	13233	3.51	-1
0	13779	3.61	-1
0	14325	3.71	-1
0	14871	3.81	-1
0	15417	3.91	-1
0	15971	4.01	-1
0	16517	4.11	-1
0	17063	4.21	-1
0	17609	4.31	-1
0	18155	4.41	-1
0	18701	4.51	-1
0	19247	4.61	-1
0	19793	4.71	-1
0	20339	4.81	-1
0	20885	4.91	-1
0	21439	5.01	-1
0	21985	5.11	-1
0	22531	5.21	-1
0	23077	5.31	-1
0	23623	5.41	-1
0	24169	5.51	-1
0	24715	5.61	-1
0	25261	5.71	-1
0	25807	5.81	-1
0	26353	5.91	-1
0	26907	6.01	-1
0	27453	6.11	-1
0	27999	6.21	-1
0	28545	6.31	-1
0	29091	6.41	-1
0	29637	6.51	-1
0	30183	6.61	-1
0	30729	6.71	-1
0	31275	6.81	-1
0	31821	6.91	-1
0	32375	7.01	-1
0	32921	7.11	-1
0	33467	7.21	-1
0	34013	7.31	-1
0	34559	7.41	-1
0	35105	7.51	-1
0	35651	7.61	-1
0	36197	7.71	-1
0	36743	7.81	-1
0	37289	7.91	-1
0	37843	8.01	-1
0	38389	8.11	-1
0	38935	8.21	-1
0	39481	8.31	-1
0	40027	8.41	-1
0	40573	8.51	-1
0	41119	8.61	-1
0	41665	8.71	-1
0	42211	8.81	-1
0	42757	8.91	-1
0	43311	9.01	-1
0	43857	9.11	-1
0	44403	9.21	-1
0	44949	9.31	-1
0	45495	9.41	-1
0	46041	9.51	-1
0	46587	9.61	-1
0	47133	9.71	-1
0	47679	9.81	-1
0	48225	9.91	-1
0	50570	10.01	-1
0	51116	10.11	-1
0	51662	10.21	-1
0	52208	10.31	-1
0	52754	10.41	-1
0	53300	10.51	-1
0	53846	10.61	-1
0	54392	10.71	-1
0	54938	10.81	-1
0	55484	10.91	-1
0	56038	11.01	-1
0	56584	11.11	-1
0	57130	11.21	-1
0	57676	11.31	-1
0	58222	11.41	-1
0	58768	11.51	-1
0	59314	11.61	-1
0	59860	11.71	-1
0	60406	11.81	-1
0	60952	11.91	-1
0	61506	12.01	-1
0	62052	12.11	-1
0	62598	12.21	-1
0	63144	12.31	-1
0	63690	12.41	-1
0	64236	12.51	-1
0	64782	12.61	-1
0	65328	12.71	-1
0	65874	12.81	-1
0	66420	12.91	-1
0	66974	13.01	-1
0	67520	13.11	-1
0	68066	13.21	-1
0	68612	13.31	-1
0	69158	13.41	-1
0	69704	13.51	-1
0	70250	13.61	-1
0	70796	13.71	-1
0	71342	13.81	-1
0	71888	13.91	-1
0	72442	14.01	-1
0	72988	14.11	-1
0	73534	14.21	-1
0	74080	14.31	-1
0	74626	14.41	-1
0	75172	14.51	-1
0	75718	14.61	-1
0	76264	14.71	-1
0	76810	14.81	-1
0	77356	14.91	-1
0	77910	15.01	-1
0	78456	15.11	-1
0	79002	15.21	-1
0	79548	15.31	-1
0	80094	15.41	-1
0	80640	15.51	-1
0	81186	15.61	-1
0	81732	15.71	-1
0	82278	15.81	-1
0	82824	15.91	-1
0	83378	16.01	-1
0	83924	16.11	-1
0	84470	16.21	-1
0	85016	16.31	-1
0	85562	16.41	-1
0	86108	16.51	-1
0	86654	16.61	-1
0	87200	16.71	-1
0	87746	16.81	-1
0	88292	16.91	-1
0	88846	17.01	-1
0	89392	17.11	-1
0	89938	17.21	-1
0	90484	17.31	-1
0	91030	17.41	-1
0	91576	17.51	-1
0	92122	17.61	-1
0	92668	17.71	-1
0	93214	17.81	-1
0	93760	17.91	-1
0	94314	18.01	-1
0	94860	18.11	-1
0	95406	18.21	-1
0	95952	18.31	-1
0	96498	18.41	-1
0	97044	18.51	-1
0	97590	18.61	-1
0	98136	18.71	-1
0	98682	18.81	-1
0	99228	18.91	-1
0	99782	19.01	-1
0	100328	19.11	-1
0	100874	19.21	-1
0	101420	19.31	-1
0	101966	19.41	-1
0	102512	19.51	-1
0	103058	19.61	-1
0	103604	19.71	-1
0	104150	19.81	-1
0	104696	19.91	-1
0	105250	20.01	-1
0	105796	20.11	-1
0	106342	20.21	-1
0	106888	20.31	-1
0	107434	20.41	-1
0	107980	20.51	-1
0	108526	20.61	-1
0	109072	20.71	-1
0	109618	20.81	-1
0	110164	20.91	-1
0	110718	21.01	-1
0	111264	21.11	-1
0	111810	21.21	-1
0	112356	21.31	-1
0	112902	21.41	-1
0	113448	21.51	-1
0	113994	21.61	-1
0	114540	21.71	-1
0	115086	21.81	-1
0	115632	21.91	-1
0	116186	22.01	-1
0	116732	22.11	-1
0	117278	22.21	-1
0	117824	22.31	-1
0	118370	22.41	-1
0	118916	22.51	-1
0	119462	22.61	-1
0	120008	22.71	-1
0	120554	22.81	-1
0	121100	22.91	-1
0	121654	23.01	-1
0	122200	23.11	-1
0	122746	23.21	-1
0	123292	23.31	-1
0	123838	23.41	-1
0	124384	23.51	-1
0	124930	23.61	-1
0	125476	23.71	-1
0	126022	23.81	-1
0	126568	23.91	-1
0	127122	24.01	-1
0	127668	24.11	-1
0	128214	24.21	-1
0	128760	24.31	-1
0	129306	24.41	-1
0	129852	24.51	-1
0	130398	24.61	-1
0	130944	24.71	-1
0	131490	24.81	-1
0	132036	24.91	-1
0	132590	25.01	-1
0	133136	25.11	-1
0	133682	25.21	-1
0	134228	25.31	-1
0	134774	25.41	-1
0	135320	25.51	-1
0	135866	25.61	-1
0	136412	25.71	-1
0	136958	25.81	-1
0	137504	25.91	-1
0	138058	26.01	-1
0	138604	26.11	-1
0	139150	26.21	-1
0	139696	26.31	-1
0	140242	26.41	-1
0	140788	26.51	-1
0	141334	26.61	-1
0	141880	26.71	-1
0	142426	26.81	-1
0	142972	26.91	-1
0	143526	27.01	-1
0	144072	27.11	-1
0	144618	27.21	-1
0	145164	27.31	-1
0	145710	27.41	-1
0	146256	27.51	-1
0	146802	27.61	-1
0	147348	27.71	-1
0	147894	27.81	-1
0	148440	27.91	-1
0	148994	28.01	-1
0	149540	28.11	-1
0	150086	28.21	-1
0	150632	28.31	-1
0	151178	28.41	-1
0	151724	28.51	-1
0	152270	28.61	-1
0	152816	28.71	-1
0	153362	28.81	-1
0	153908	28.91	-1
0	154462	29.01	-1
0	155008	29.11	-1
0	155554	29.21	-1
0	156100	29.31	-1
0	156646	29.41	-1
0	157192	29.51	-1
0	157738	29.61	-1
0	158284	29.71	-1
0	158830	29.81	-1
0	159376	29.91	-1
0	159930	30.01	-1
0	160476	30.11	-1
0	161022	30.21	-1
0	161568	30.31	-1
0	162114	30.41	-1
0	162660	30.51	-1
0	163206	30.61	-1
0	163752	30.71	-1
0	164298	30.81	-1
0	164844	30.91	-1
0	165398	31.01	-1
0	165944	31.11	-1
0	166490	31.21	-1
0	167036	31.31	-1
0	167582	31.41	-1
0	168128	31.51	-1
0	168674	31.61	-1
0	169220	31.71	-1
0	169766	31.81	-1
0	170312	31.91	-1
0	170866	32.01	-1
0	171412	32.11	-1
0	171958	32.21	-1
0	172504	32.31	-1
0	173050	32.41	-1
0	173596	32.51	-1
0	174142	32.61	-1
0	174688	32.71	-1
0	175234	32.81	-1
0	175780	32.91	-1
0	176334	33.01	-1
0	176880	33.11	-1
0	177426	33.21	-1
0	177972	33.31	-1
0	178518	33.41	-1
0	179064	33.51	-1
0	179610	33.61	-1
0	180156	33.71	-1
0	180702	33.81	-1
0	181248	33.91	-1
0	181802	34.01	-1
0	182348	34.11	-1
0	182894	34.21	-1
0	183440	34.31	-1
0	183986	34.41	-1
0	184532	34.51	-1
0	185078	34.61	-1
0	185624	34.71	-1
0	186170	34.81	-1
0	186716	34.91	-1
0	187270	35.01	-1
0	187816	35.11	-1
0	188362	35.21	-1
0	188908	35.31	-1
0	189454	35.41	-1
0	190000	35.51	-1
0	190546	35.61	-1
0	191092	35.71	-1
0	191638	35.81	-1
0	192184	35.91	-1
0	192738	36.01	-1
0	193284	36.11	-1
0	193830	36.21	-1
0	194376	36.31	-1
0	194922	36.41	-1
0	195468	36.51	-1
0	196014	36.61	-1
0	196560	36.71	-1
0	197106	36.81	-1
0	197652	36.91	-1
0	198206	37.01	-1
0	198752	37.11	-1
0	199298	37.21	-1
0	199844	37.31	-1
0	200390	37.41	-1
0	200936	37.51	-1
0	201482	37.61	-1
0	202028	37.71	-1
0	202574	37.81	-1
0	203120	37.91	-1
0	203674	38.01	-1
0	204220	38.11	-1
0	204766	38.21	-1
0	205312	38.31	-1
0	205858	38.41	-1
0	206404	38.51	-1
0	206950	38.61	-1
0	207496	38.71	-1
0	208042	38.81	-1
0	208588	38.91	-1
0	209142	39.01	-1
0	209688	39.11	-1
0	210234	39.21	-1
0	210780	39.31	-1
0	211326	39.41	-1
0	211872	39.51	-1
0	212418	39.61	-1
0	212964	39.71	-1
0	213510	39.81	-1
0	214056	39.91	-1
0	214610	40.01	-1
0	215156	40.11	-1
0	215702	40.21	-1
0	216248	40.31	-1
0	216794	40.41	-1
0	217340	40.51	-1
0	217886	40.61	-1
0	218432	40.71	-1
0	218978	40.81	-1
0	219524	40.91	-1
0	220078	41.01	-1
0	220624	41.11	-1
0	221170	41.21	-1
0	221716	41.31	-1
0	222262	41.41	-1
0	222808	41.51	-1
0	223354	41.61	-1
0	223900	41.71	-1
0	224446	41.81	-1
0	224992	41.91	-1
0	225546	42.01	-1
0	226092	42.11	-1
0	226638	42.21	-1
0	227184	42.31	-1
0	227730	42.41	-1
0	228276	42.51	-1
0	228822	42.61	-1
0	229368	42.71	-1
0	229914	42.81	-1
0	230460	42.91	-1
0	231014	43.01	-1
0	231560	43.11	-1
0	232106	43.21	-1
0	232652	43.31	-1
0	233198	43.41	-1
0	233744	43.51	-1
0	234290	43.61	-1
0	234836	43.71	-1
0	235382	43.81	-1
0	235928	43.91	-1
0	236482	44.01	-1
0	237028	44.11	-1
0	237574	44.21	-1
0	238120	44.31	-1
0	238666	44.41	-1
0	239212	44.51	-1
0	239758	44.61	-1
0	240304	44.71	-1
0	240850	44.81	-1
0	241396	44.91	-1
0	241950	45.01	-1
0	242496	45.11	-1
0	243042	45.21	-1
0	243588	45.31	-1
0	244134	45.41	-1
0	244680	45.51	-1
0	245226	45.61	-1
0	245772	45.71	-1
0	246318	45.81	-1
0	246864	45.91	-1
0	247418	46.01	-1
0	247964	46.11	-1
0	248510	46.21	-1
0	249056	46.31	-1
0	249602	46.41	-1
0	250148	46.51	-1
0	250694	46.61	-1
0	251240	46.71	-1
0	251786	46.81	-1
0	252332	46.91	-1
0	252886	47.01	-1
0	253432	47.11	-1
0	253978	47.21	-1
0	254524	47.31	-1
0	255070	47.41	-1
0	255616	47.51	-1
0	256162	47.61	-1
0	256708	47.71	-1
0	257254	47.81	-1
0	257800	47.91	-1
0	258354	48.01	-1
0	258900	48.11	-1
0	259446	48.21	-1
0	259992	48.31	-1
0	260538	48.41	-1
0	261084	48.51	-1
0	261630	48.61	-1
0	262176	48.71	-1
0	262722	48.81	-1
0	263268	48.91	-1
0	263822	49.01	-1
0	264368	49.11	-1
0	264914	49.21	-1
0	265460	49.31	-1
0	266006	49.41	-1
0	266552	49.51	-1
0	267098	49.61	-1
0	267644	49.71	-1
0	268190	49.81	-1
0	268736	49.91	-1
0	269290	50.01	-1
0	269836	50.11	-1
0	270382	50.21	-1
0	270928	50.31	-1
0	271474	50.41	-1
0	272020	50.51	-1
0	272566	50.61	-1
0	273112	50.71	-1
0	273658	50.81	-1
0	274204	50.91	-1
0	274758	51.01	-1
0	275304	51.11	-1
0	275850	51.21	-1
0	276396	51.31	-1
0	276942	51.41	-1
0	277488	51.51	-1
0	278034	51.61	-1
0	278580	51.71	-1
0	279126	51.81	-1
0	279672	51.91	-1
0	280226	52.01	-1
0	280772	52.11	-1
0	281318	52.21	-1
0	281864	52.31	-1
0	282410	52.41	-1
0	282956	52.51	-1
0	283502	52.61	-1
0	284048	52.71	-1
0	284594	52.81	-1
0	285140	52.91	-1
0	285694	53.01	-1
0	286240	53.11	-1
0	286786	53.21	-1
0	287332	53.31	-1
0	287878	53.41	-1
0	288424	53.51	-1
0	288970	53.61	-1
0	289516	53.71	-1
0	290062	53.81	-1
0	290608	53.91	-1
0	291162	54.01	-1
0	291708	54.11	-1
0	292254	54.21	-1
0	292800	54.31	-1
0	293346	54.41	-1
0	293892	54.51	-1
0	294438	54.61	-1
0	294984	54.71	-1
0	295530	54.81	-1
0	296076	54.91	-1
0	296630	55.01	-1
0	297176	55.11	-1
0	297722	55.21	-1
0	298268	55.31	-1
0	298814	55.41	-1
0	299360	55.51	-1
0	299906	55.61	-1
0	300452	55.71	-1
0	300998	55.81	-1
0	301544	55.91	-1
0	302098	56.01	-1
0	302644	56.11	-1
0	303190	56.21	-1
0	303736	56.31	-1
0	304282	56.41	-1
0	304828	56.51	-1
0	305374	56.61	-1
0	305920	56.71	-1
0	306466	56.81	-1
0	307012	56.91	-1
0	307566	57.01	-1
0	308112	57.11	-1
0	308658	57.21	-1
0	309204	57.31	-1
0	309750	57.41	-1
0	310296	57.51	-1
0	310842	57.61	-1
0	311388	57.71	-1
0	311934	57.81	-1
0	312480	57.91	-1
0	313034	58.01	-1
0	313580	58.11	-1
0	314126	58.21	-1
0	314672	58.31	-1
0	315218	58.41	-1
0	315764	58.51	-1
0	316310	58.61	-1
0	316856	58.71	-1
0	317402	58.81	-1
0	317948	58.91	-1
0	318502	59.01	-1
0	319048	59.11	-1
0	319594	59.21	-1
0	320140	59.31	-1
0	320686	59.41	-1
0	321232	59.51	-1
0	321778	59.61	-1
0	322324	59.71	-1
0	322870	59.81	-1
0	323416	59.91	-1
0	323970	60.01	-1
0	324516	60.11	-1
0	325062	60.21	-1
0	325608	60.31	-1
0	326154	60.41	-1
0	326700	60.51	-1
0	327246	60.61	-1
0	327792	60.71	-1
0	328338	60.81	-1
0	328884	60.91	-1
0	329438	61.01	-1
0	329984	61.11	-1
0	330530	61.21	-1
0	331076	61.31	-1
0	331622	61.41	-1
0	332168	61.51	-1
0	332714	61.61	-1
0	333260	61.71	-1
0	333806	61.81	-1
0	334352	61.91	-1
0	334906	62.01	-1
0	335452	62.11	-1
0	335998	62.21	-1
0	336544	62.31	-1
0	337090	62.41	-1
0	337636	62.51	-1
0	338182	62.61	-1
0	338728	62.71	-1
0	339274	62.81	-1
0	339820	62.91	-1
0	340374	63.01	-1
0	340920	63.11	-1
0	341466	63.21	-1
0	342012	63.31	-1
0	342558	63.41	-1
0	343104	63.51	-1
0	343650	63.61	-1
0	344196	63.71	-1
0	344742	63.81	-1
0	345288	63.91	-1
0	345842	64.01	-1
0	346388	64.11	-1
0	346934	64.21	-1
0	347480	64.31	-1
0	348026	64.41	-1
0	348572	64.51	-1
0	349118	64.61	-1
0	349664	64.71	-1
0	350210	64.81	-1
0	350756	64.91	-1
0	351310	65.01	-1
0	351856	65.11	-1
0	352402	65.21	-1
0	352948	65.31	-1
0	353494	65.41	-1
0	354040	65.51	-1
0	354586	65.61	-1
0	355132	65.71	-1
0	355678	65.81	-1
0	356224	65.91	-1
0	356778	66.01	-1
0	357324	66.11	-1
0	357870	66.21	-1
0	358416	66.31	-1
0	358962	66.41	-1
0	359508	66.51	-1
0	360054	66.61	-1
0	360600	66.71	-1
0	361146	66.81	-1
0	361692	66.91	-1
0	362246	67.01	-1
0	362792	67.11	-1
0	363338	67.21	-1
0	363884	67.31	-1
0	364430	67.41	-1
0	364976	67.51	-1
0	365522	67.61	-1
0	366068	67.71	-1
0	366614	67.81	-1
0	367160	67.91	-1
0	367714	68.01	-1
0	368260	68.11	-1
0	368806	68.21	-1
0	369352	68.31	-1
0	369898	68.41	-1
0	370444	68.51	-1
0	370990	68.61	-1
0	371536	68.71	-1
0	372082	68.81	-1
0	372628	68.91	-1
0	373182	69.01	-1
0	373728	69.11	-1
0	374274	69.21	-1
0	374820	69.31	-1
0	375366	69.41	-1
0	375912	69.51	-1
0	376458	69.61	-1
0	377004	69.71	-1
0	377550	69.81	-1
0	378096	69.91	-1
0	378650	70.01	-1
0	379196	70.11	-1
0	379742	70.21	-1
0	380288	70.31	-1
0	380834	70.41	-1
0	381380	70.51	-1
0	381926	70.61	-1
0	382472	70.71	-1
0	383018	70.81	-1
0	383564	70.91	-1
0	384118	71.01	-1
0	384664	71.11	-1
0	385210	71.21	-1
0	385756	71.31	-1
0	386302	71.41	-1
0	386848	71.51	-1
0	387394	71.61	-1
0	387940	71.71	-1
0	388486	71.81	-1
0	389032	71.91	-1
0	389586	72.01	-1
0	390132	72.11	-1
0	390678	72.21	-1
0	391224	72.31	-1
0	391770	72.41	-1
0	392316	72.51	-1
0	392862	72.61	-1
0	393408	72.71	-1
0	393954	72.81	-1
0	394500	72.91	-1
0	395054	73.01	-1
0	395600	73.11	-1
0	396146	73.21	-1
0	396692	73.31	-1
0	397238	73.41	-1
0	397784	73.51	-1
0	398330	73.61	-1
0	398876	73.71	-1
0	399422	73.81	-1
0	399968	73.91	-1
0	400522	74.01	-1
0	401068	74.11	-1
0	401614	74.21	-1
0	402160	74.31	-1
0	402706	74.41	-1
0	403252	74.51	-1
0	403798	74.61	-1
0	404344	74.71	-1
0	404890	74.81	-1
0	405436	74.91	-1
0	405990	75.01	-1
0	406536	75.11	-1
0	407082	75.21	-1
0	407628	75.31	-1
0	408174	75.41	-1
0	408720	75.51	-1
0	409266	75.61	-1
0	409812	75.71	-1
0	410358	75.81	-1
0	410904	75.91	-1
0	411458	76.01	-1
0	412004	76.11	-1
0	412550	76.21	-1
0	413096	76.31	-1
0	413642	76.41	-1
0	414188	76.51	-1
0	414734	76.61	-1
0	415280	76.71	-1
0	415826	76.81	-1
0	416372	76.91	-1
0	416926	77.01	-1
0	417472	77.11	-1
0	418018	77.21	-1
0	418564	77.31	-1
0	419110	77.41	-1
0	419656	77.51	-1
0	420202	77.61	-1
0	420748	77.71	-1
0	421294	77.81	-1
0	421840	77.91	-1
0	422394	78.01	-1
0	422940	78.11	-1
0	423486	78.21	-1
0	424032	78.31	-1
0	424578	78.41	-1
0	425124	78.51	-1
0	425670	78.61	-1
0	426216	78.71	-1
0	426762	78.81	-1
0	427308	78.91	-1
0	427862	79.01	-1
0	428408	79.11	-1
0	428954	79.21	-1
0	429500	79.31	-1
0	430046	79.41	-1
0	430592	79.51	-1
0	431138	79.61	-1
0	431684	79.71	-1
0	432230	79.81	-1
0	432776	79.91	-1
0	433330	80.01	-1
0	433876	80.11	-1
0	434422	80.21	-1
0	434968	80.31	-1
0	435514	80.41	-1
0	436060	80.51	-1
0	436606	80.61	-1
0	437152	80.71	-1
0	437698	80.81	-1
0	438244	80.91	-1
0	438798	81.01	-1
0	439344	81.11	-1
0	439890	81.21	-1
0	440436	81.31	-1
0	440982	81.41	-1
0	441528	81.51	-1
0	442074	81.61	-1
0	442620	81.71	-1
0	443166	81.81	-1
0	443712	81.91	-1
0	444266	82.01	-1
0	444812	82.11	-1
0	445358	82.21	-1
0	445904	82.31	-1
0	446450	82.41	-1
0	446996	82.51	-1
0	447542	82.61	-1
0	448088	82.71	-1
0	448634	82.81	-1
0	449180	82.91	-1
0	449734	83.01	-1
0	450280	83.11	-1
0	450826	83.21	-1
0	451372	83.31	-1
0	451918	83.41	-1
0	452464	83.51	-1
0	453010	83.61	-1
0	453556	83.71	-1
0	454102	83.81	-1
0	454648	83.91	-1
0	455202	84.01	-1
0	455748	84.11	-1
0	456294	84.21	-1
0	456840	84.31	-1
0	457386	84.41	-1
0	457932	84.51	-1
0	458478	84.61	-1
0	459024	84.71	-1
0	459570	84.81	-1
0	460116	84.91	-1
0	460670	85.01	-1
0	461216	85.11	-1
0	461762	85.21	-1
0	462308	85.31	-1
0	462854	85.41	-1
0	463400	85.51	-1
0	463946	85.61	-1
0	464492	85.71	-1
0	465038	85.81	-1
0	465584	85.91	-1
0	466138	86.01	-1
0	466684	86.11	-1
0	467230	86.21	-1
0	467776	86.31	-1
0	468322	86.41	-1
0	468868	86.51	-1
0	469414	86.61	-1
0	469960	86.71	-1
0	470506	86.81	-1
0	471052	86.91	-1
0	471606	87.01	-1
0	472152	87.11	-1
0	472698	87.21	-1
0	473244	87.31	-1
0	473790	87.41	-1
0	474336	87.51	-1
0	474882	87.61	-1
0	475428	87.71	-1
0	475974	87.81	-1
0	476520	87.91	-1
0	477074	88.01	-1
0	477620	88.11	-1
0	478166	88.21	-1
0	478712	88.31	-1
0	479258	88.41	-1
0	479804	88.51	-1
0	480350	88.61	-1
0	480896	88.71	-1
0	481442	88.81	-1
0	481988	88.91	-1
0	482542	89.01	-1
0	483088	89.11	-1
0	483634	89.21	-1
0	484180	89.31	-1
0	484726	89.41	-1
0	485272	89.51	-1
0	485818	89.61	-1
0	486364	89.71	-1
0	486910	89.81	-1
0	487456	89.91	-1
0	488010	90.01	-1
0	488556	90.11	-1
0	489102	90.21	-1
0	489648	90.31	-1
0	490194	90.41	-1
0	490740	90.51	-1
0	491286	90.61	-1
0	491832	90.71	-1
0	492378	90.81	-1
0	492924	90.91	-1
0	493478	91.01	-1
0	494024	91.11	-1
0	494570	91.21	-1
0	495116	91.31	-1
0	495662	91.41	-1
0	496208	91.51	-1
0	496754	91.61	-1
0	497300	91.71	-1
0	497846	91.81	-1
0	498392	91.91	-1
0	498946	92.01	-1
0	499492	92.11	-1
0	500038	92.21	-1
0	500584	92.31	-1
0	501130	92.41	-1
0	501676	92.51	-1
0	502222	92.61	-1
0	502768	92.71	-1
0	503314	92.81	-1
0	503860	92.91	-1
0	504414	93.01	-1
0	504960	93.11	-1
0	505506	93.21	-1
0	506052	93.31	-1
0	506598	93.41	-1
0	507144	93.51	-1
0	507690	93.61	-1
0	508236	93.71	-1
0	508782	93.81	-1
0	509328	93.91	-1
0	509882	94.01	-1
0	510428	94.11	-1
0	510974	94.21	-1
0	511520	94.31	-1
0	512066	94.41	-1
0	512612	94.51	-1
0	513158	94.61	-1
0	513704	94.71	-1
0	514250	94.81	-1
0	514796	94.91	-1
0	515350	95.01	-1
0	515896	95.11	-1
0	516442	95.21	-1
0	516988	95.31	-1
0	517534	95.41	-1
0	518080	95.51	-1
0	518626	95.61	-1
0	519172	95.71	-1
0	519718	95.81	-1
0	520264	95.91	-1
0	520818	96.01	-1
0	521364	96.11	-1
0	521910	96.21	-1
0	522456	96.31	-1
0	523002	96.41	-1
0	523548	96.51	-1
0	524094	96.61	-1
0	524640	96.71	-1
0	525186	96.81	-1
0	525732	96.91	-1
0	526286	97.01	-1
0	526832	97.11	-1
0	527378	97.21	-1
0	527924	97.31	-1
0	528470	97.41	-1
0	529016	97.51	-1
0	529562	97.61	-1
0	530108	97.71	-1
0	530654	97.81	-1
0	531200	97.91	-1
0	531754	98.01	-1
0	532300	98.11	-1
0	532846	98.21	-1
0	533392	98.31	-1
0	533938	98.41	-1
0	534484	98.51	-1
0	535030	98.61	-1
0	535576	98.71	-1
0	536122	98.81	-1
0	536668	98.91	-1
0	537222	99.01	-1
0	537768	99.11	-1
0	538314	99.21	-1
0	538860	99.31	-1
0	539406	99.41	-1
0	539952	99.51	-1
0	540498	99.61	-1
0	541044	99.71	-1
0	541590	99.81	-1
0	542136	99.91	-1
1	113	1.11	0
1	659	1.21	0
1	1205	1.31	0
1	1751	1.41	0
1	2297	1.51	0
1	2843	1.61	0
1	3389	1.71	0
1	3935	1.81	0
1	4481	1.91	0
1	5035	2.01	0
1	5581	2.11	0
1	6127	2.21	0
1	6673	2.31	0
1	7219	2.41	0
1	7765	2.51	0
1	8311	2.61	0
1	8857	2.71	0
1	9403	2.81	0
1	9949	2.91	0
1	10503	3.01	0
1	11049	3.11	0
1	11595	3.21	0
1	12141	3.31	0
1	12687	3.41	0
1	13233	3.51	0
1	13779	3.61	0
1	14325	3.71	0
1	14871	3.81	0
1	15417	3.91	0
1	15971	4.01	0
1	16517	4.11	0
1	17063	4.21	0
1	17609	4.31	0
1	18155	4.41	0
1	18701	4.51	0
1	19247	4.61	0
1	19793	4.71	0
1	20339	4.81	0
1	20885	4.91	0
1	21439	5.01	0
1	21985	5.11	0
1	22531	5.21	0
1	23077	5.31	0
1	23623	5.41	0
1	24169	5.51	0
1	24715	5.61	0
1	25261	5.71	0
1	25807	5.81	0
1	26353	5.91	0
1	26907	6.01	0
1	27453	6.11	0
1	27999	6.21	0
1	28545	6.31	0
1	29091	6.41	0
1	29637	6.51	0
1	30183	6.61	0
1	30729	6.71	0
1	31275	6.81	0
1	31821	6.91	0
1	32375	7.01	0
1	32921	7.11	0
1	33467	7.21	0
1	34013	7.31	0
1	34559	7.41	0
1	35105	7.51	0
1	35651	7.61	0
1	36197	7.71	0
1	36743	7.81	0
1	37289	7.91	0
1	37843	8.01	0
1	38389	8.11	0
1	38935	8.21	0
1	39481	8.31	0
1	40027	8.41	0
1	40573	8.51	0
1	41119	8.61	0
1	41665	8.71	0
1	42211	8.81	0
1	42757	8.91	0
1	43311	9.01	0
1	43857	9.11	0
1	44403	9.21	0
1	44949	9.31	0
1	45495	9.41	0
1	46041	9.51	0
1	46587	9.61	0
1	47133	9.71	0
1	47679	9.81	0
1	48225	9.91	0
1	50570	10.01	0
1	51116	10.11	0
1	51662	10.21	0
1	52208	10.31	0
1	52754	10.41	0
1	53300	10.51	0
1	53846	10.61	0
1	54392	10.71	0
1	54938	10.81	0
1	55484	10.91	0
1	56038	11.01	0
1	56584	11.11	0
1	57130	11.21	0
1	57676	11.31	0
1	58222	11.41	0
1	58768	11.51	0
1	59314	11.61	0
1	59860	11.71	0
1	60406	11.81	0
1	60952	11.91	0
1	61506	12.01	0
1	62052	12.11	0
1	62598	12.21	0
1	63144	12.31	0
1	63690	12.41	0
1	64236	12.51	0
1	64782	12.61	0
1	65328	12.71	0
1	65874	12.81	0
1	66420	12.91	0
1	66974	13.01	0
1	67520	13.11	0
1	68066	13.21	0
1	68612	13.31	0
1	69158	13.41	0
1	69704	13.51	0
1	70250	13.61	0
1	70796	13.71	0
1	71342	13.81	0
1	71888	13.91	0
1	72442	14.01	0
1	72988	14.11	0
1	73534	14.21	0
1	74080	14.31	0
1	74626	14.41	0
1	75172	14.51	0
1	75718	14.61	0
1	76264	14.71	0
1	76810	14.81	0
1	77356	14.91	0
1	77910	15.01	0
1	78456	15.11	0
1	79002	15.21	0
1	79548	15.31	0
1	80094	15.41	0
1	80640	15.51	0
1	81186	15.61	0
1	81732	15.71	0
1	82278	15.81	0
1	82824	15.91	0
1	83378	16.01	0
1	83924	16.11	0
1	84470	16.21	0
1	85016	16.31	0
1	85562	16.41	0
1	86108	16.51	0
1	86654	16.61	0
1	87200	16.71	0
1	87746	16.81	0
1	88292	16.91	0
1	88846	17.01	0
1	89392	17.11	0
1	89938	17.21	0
1	90484	17.31	0
1	91030	17.41	0
1	91576	17.51	0
1	92122	17.61	0
1	92668	17.71	0
1	93214	17.81	0
1	93760	17.91	0
1	94314	18.01	0
1	94860	18.11	0
1	95406	18.21	0
1	95952	18.31	0
1	96498	18.41	0
1	97044	18.51	0
1	97590	18.61	0
1	98136	18.71	0
1	98682	18.81	0
1	99228	18.91	0
1	99782	19.01	0
1	100328	19.11	0
1	100874	19.21	0
1	101420	19.31	0
1	101966	19.41	0
1	102512	19.51	0
1	103058	19.61	0
1	103604	19.71	0
1	104150	19.81	0
1	104696	19.91	0
1	105250	20.01	0
1	105796	20.11	0
1	106342	20.21	0
1	106888	20.31	0
1	107434	20.41	0
1	107980	20.51	0
1	108526	20.61	0
1	109072	20.71	0
1	109618	20.81	0
1	110164	20.91	0
1	110718	21.01	0
1	111264	21.11	0
1	111810	21.21	0
1	112356	21.31	0
1	112902	21.41	0
1	113448	21.51	0
1	113994	21.61	0
1	114540	21.71	0
1	115086	21.81	0
1	115632	21.91	0
1	116186	22.01	0
1	116732	22.11	0
1	117278	22.21	0
1	117824	22.31	0
1	118370	22.41	0
1	118916	22.51	0
1	119462	22.61	0
1	120008	22.71	0
1	120554	22.81	0
1	121100	22.91	0
1	121654	23.01	0
1	122200	23.11	0
1	122746	23.21	0
1	123292	23.31	0
1	123838	23.41	0
1	124384	23.51	0
1	124930	23.61	0
1	125476	23.71	0
1	126022	23.81	0
1	126568	23.91	0
1	127122	24.01	0
1	127668	24.11	0
1	128214	24.21	0
1	128760	24.31	0
1	129306	24.41	0
1	129852	24.51	0
1	130398	24.61	0
1	130944	24.71	0
1	131490	24.81	0
1	132036	24.91	0
1	132590	25.01	0
1	133136	25.11	0
1	133682	25.21	0
1	134228	25.31	0
1	134774	25.41	0
1	135320	25.51	0
1	135866	25.61	0
1	136412	25.71	0
1	136958	25.81	0
1	137504	25.91	0
1	138058	26.01	0
1	138604	26.11	0
1	139150	26.21	0
1	139696	26.31	0
1	140242	26.41	0
1	140788	26.51	0
1	141334	26.61	0
1	141880	26.71	0
1	142426	26.81	0
1	142972	26.91	0
1	143526	27.01	0
1	144072	27.11	0
1	144618	27.21	0
1	145164	27.31	0
1	145710	27.41	0
1	146256	27.51	0
1	146802	27.61	0
1	147348	27.71	0
1	147894	27.81	0
1	148440	27.91	0
1	148994	28.01	0
1	149540	28.11	0
1	150086	28.21	0
1	150632	28.31	0
1	151178	28.41	0
1	151724	28.51	0
1	152270	28.61	0
1	152816	28.71	0
1	153362	28.81	0
1	153908	28.91	0
1	154462	29.01	0
1	155008	29.11	0
1	155554	29.21	0
1	156100	29.31	0
1	156646	29.41	0
1	157192	29.51	0
1	157738	29.61	0
1	158284	29.71	0
1	158830	29.81	0
1	159376	29.91	0
1	159930	30.01	0
1	160476	30.11	0
1	161022	30.21	0
1	161568	30.31	0
1	162114	30.41	0
1	162660	30.51	0
1	163206	30.61	0
1	163752	30.71	0
1	164298	30.81	0
1	164844	30.91	0
1	165398	31.01	0
1	165944	31.11	0
1	166490	31.21	0
1	167036	31.31	0
1	167582	31.41	0
1	168128	31.51	0
1	168674	31.61	0
1	169220	31.71	0
1	169766	31.81	0
1	170312	31.91	0
1	170866	32.01	0
1	171412	32.11	0
1	171958	32.21	0
1	172504	32.31	0
1	173050	32.41	0
1	173596	32.51	0
1	174142	32.61	0
1	174688	32.71	0
1	175234	32.81	0
1	175780	32.91	0
1	176334	33.01	0
1	176880	33.11	0
1	177426	33.21	0
1	177972	33.31	0
1	178518	33.41	0
1	179064	33.51	0
1	179610	33.61	0
1	180156	33.71	0
1	180702	33.81	0
1	181248	33.91	0
1	181802	34.01	0
1	182348	34.11	0
1	182894	34.21	0
1	183440	34.31	0
1	183986	34.41	0
1	184532	34.51	0
1	185078	34.61	0
1	185624	34.71	0
1	186170	34.81	0
1	186716	34.91	0
1	187270	35.01	0
1	187816	35.11	0
1	188362	35.21	0
1	188908	35.31	0
1	189454	35.41	0
1	190000	35.51	0
1	190546	35.61	0
1	191092	35.71	0
1	191638	35.81	0
1	192184	35.91	0
1	192738	36.01	0
1	193284	36.11	0
1	193830	36.21	0
1	194376	36.31	0
1	194922	36.41	0
1	195468	36.51	0
1	196014	36.61	0
1	196560	36.71	0
1	197106	36.81	0
1	197652	36.91	0
1	198206	37.01	0
1	198752	37.11	0
1	199298	37.21	0
1	199844	37.31	0
1	200390	37.41	0
1	200936	37.51	0
1	201482	37.61	0
1	202028	37.71	0
1	202574	37.81	0
1	203120	37.91	0
1	203674	38.01	0
1	204220	38.11	0
1	204766	38.21	0
1	205312	38.31	0
1	205858	38.41	0
1	206404	38.51	0
1	206950	38.61	0
1	207496	38.71	0
1	208042	38.81	0
1	208588	38.91	0
1	209142	39.01	0
1	209688	39.11	0
1	210234	39.21	0
1	210780	39.31	0
1	211326	39.41	0
1	211872	39.51	0
1	212418	39.61	0
1	212964	39.71	0
1	213510	39.81	0
1	214056	39.91	0
1	214610	40.01	0
1	215156	40.11	0
1	215702	40.21	0
1	216248	40.31	0
1	216794	40.41	0
1	217340	40.51	0
1	217886	40.61	0
1	218432	40.71	0
1	218978	40.81	0
1	219524	40.91	0
1	220078	41.01	0
1	220624	41.11	0
1	221170	41.21	0
1	221716	41.31	0
1	222262	41.41	0
1	222808	41.51	0
1	223354	41.61	0
1	223900	41.71	0
1	224446	41.81	0
1	224992	41.91	0
1	225546	42.01	0
1	226092	42.11	0
1	226638	42.21	0
1	227184	42.31	0
1	227730	42.41	0
1	228276	42.51	0
1	228822	42.61	0
1	229368	42.71	0
1	229914	42.81	0
1	230460	42.91	0
1	231014	43.01	0
1	231560	43.11	0
1	232106	43.21	0
1	232652	43.31	0
1	233198	43.41	0
1	233744	43.51	0
1	234290	43.61	0
1	234836	43.71	0
1	235382	43.81	0
1	235928	43.91	0
1	236482	44.01	0
1	237028	44.11	0
1	237574	44.21	0
1	238120	44.31	0
1	238666	44.41	0
1	239212	44.51	0
1	239758	44.61	0
1	240304	44.71	0
1	240850	44.81	0
1	241396	44.91	0
1	241950	45.01	0
1	242496	45.11	0
1	243042	45.21	0
1	243588	45.31	0
1	244134	45.41	0
1	244680	45.51	0
1	245226	45.61	0
1	245772	45.71	0
1	246318	45.81	0
1	246864	45.91	0
1	247418	46.01	0
1	247964	46.11	0
1	248510	46.21	0
1	249056	46.31	0
1	249602	46.41	0
1	250148	46.51	0
1	250694	46.61	0
1	251240	46.71	0
1	251786	46.81	0
1	252332	46.91	0
1	252886	47.01	0
1	253432	47.11	0
1	253978	47.21	0
1	254524	47.31	0
1	255070	47.41	0
1	255616	47.51	0
1	256162	47.61	0
1	256708	47.71	0
1	257254	47.81	0
1	257800	47.91	0
1	258354	48.01	0
1	258900	48.11	0
1	259446	48.21	0
1	259992	48.31	0
1	260538	48.41	0
1	261084	48.51	0
1	261630	48.61	0
1	262176	48.71	0
1	262722	48.81	0
1	263268	48.91	0
1	263822	49.01	0
1	264368	49.11	0
1	264914	49.21	0
1	265460	49.31	0
1	266006	49.41	0
1	266552	49.51	0
1	267098	49.61	0
1	267644	49.71	0
1	268190	49.81	0
1	268736	49.91	0
1	269290	50.01	0
1	269836	50.11	0
1	270382	50.21	0
1	270928	50.31	0
1	271474	50.41	0
1	272020	50.51	0
1	272566	50.61	0
1	273112	50.71	0
1	273658	50.81	0
1	274204	50.91	0
1	274758	51.01	0
1	275304	51.11	0
1	275850	51.21	0
1	276396	51.31	0
1	276942	51.41	0
1	277488	51.51	0
1	278034	51.61	0
1	278580	51.71	0
1	279126	51.81	0
1	279672	51.91	0
1	280226	52.01	0
1	280772	52.11	0
1	281318	52.21	0
1	281864	52.31	0
1	282410	52.41	0
1	282956	52.51	0
1	283502	52.61	0
1	284048	52.71	0
1	284594	52.81	0
1	285140	52.91	0
1	285694	53.01	0
1	286240	53.11	0
1	286786	53.21	0
1	287332	53.31	0
1	287878	53.41	0
1	288424	53.51	0
1	288970	53.61	0
1	289516	53.71	0
1	290062	53.81	0
1	290608	53.91	0
1	291162	54.01	0
1	291708	54.11	0
1	292254	54.21	0
1	292800	54.31	0
1	293346	54.41	0
1	293892	54.51	0
1	294438	54.61	0
1	294984	54.71	0
1	295530	54.81	0
1	296076	54.91	0
1	296630	55.01	0
1	297176	55.11	0
1	297722	55.21	0
1	298268	55.31	0
1	298814	55.41	0
1	299360	55.51	0
1	299906	55.61	0
1	300452	55.71	0
1	300998	55.81	0
1	301544	55.91	0
1	302098	56.01	0
1	302644	56.11	0
1	303190	56.21	0
1	303736	56.31	0
1	304282	56.41	0
1	304828	56.51	0
1	305374	56.61	0
1	305920	56.71	0
1	306466	56.81	0
1	307012	56.91	0
1	307566	57.01	0
1	308112	57.11	0
1	308658	57.21	0
1	309204	57.31	0
1	309750	57.41	0
1	310296	57.51	0
1	310842	57.61	0
1	311388	57.71	0
1	311934	57.81	0
1	312480	57.91	0
1	313034	58.01	0
1	313580	58.11	0
1	314126	58.21	0
1	314672	58.31	0
1	315218	58.41	0
1	315764	58.51	0
1	316310	58.61	0
1	316856	58.71	0
1	317402	58.81	0
1	317948	58.91	0
1	318502	59.01	0
1	319048	59.11	0
1	319594	59.21	0
1	320140	59.31	0
1	320686	59.41	0
1	321232	59.51	0
1	321778	59.61	0
1	322324	59.71	0
1	322870	59.81	0
1	323416	59.91	0
1	323970	60.01	0
1	324516	60.11	0
1	325062	60.21	0
1	325608	60.31	0
1	326154	60.41	0
1	326700	60.51	0
1	327246	60.61	0
1	327792	60.71	0
1	328338	60.81	0
1	328884	60.91	0
1	329438	61.01	0
1	329984	61.11	0
1	330530	61.21	0
1	331076	61.31	0
1	331622	61.41	0
1	332168	61.51	0
1	332714	61.61	0
1	333260	61.71	0
1	333806	61.81	0
1	334352	61.91	0
1	334906	62.01	0
1	335452	62.11	0
1	335998	62.21	0
1	336544	62.31	0
1	337090	62.41	0
1	337636	62.51	0
1	338182	62.61	0
1	338728	62.71	0
1	339274	62.81	0
1	339820	62.91	0
1	340374	63.01	0
1	340920	63.11	0
1	341466	63.21	0
1	342012	63.31	0
1	342558	63.41	0
1	343104	63.51	0
1	343650	63.61	0
1	344196	63.71	0
1	344742	63.81	0
1	345288	63.91	0
1	345842	64.01	0
1	346388	64.11	0
1	346934	64.21	0
1	347480	64.31	0
1	348026	64.41	0
1	348572	64.51	0
1	349118	64.61	0
1	349664	64.71	0
1	350210	64.81	0
1	350756	64.91	0
1	351310	65.01	0
1	351856	65.11	0
1	352402	65.21	0
1	352948	65.31	0
1	353494	65.41	0
1	354040	65.51	0
1	354586	65.61	0
1	355132	65.71	0
1	355678	65.81	0
1	356224	65.91	0
1	356778	66.01	0
1	357324	66.11	0
1	357870	66.21	0
1	358416	66.31	0
1	358962	66.41	0
1	359508	66.51	0
1	360054	66.61	0
1	360600	66.71	0
1	361146	66.81	0
1	361692	66.91	0
1	362246	67.01	0
1	362792	67.11	0
1	363338	67.21	0
1	363884	67.31	0
1	364430	67.41	0
1	364976	67.51	0
1	365522	67.61	0
1	366068	67.71	0
1	366614	67.81	0
1	367160	67.91	0
1	367714	68.01	0
1	368260	68.11	0
1	368806	68.21	0
1	369352	68.31	0
1	369898	68.41	0
1	370444	68.51	0
1	370990	68.61	0
1	371536	68.71	0
1	372082	68.81	0
1	372628	68.91	0
1	373182	69.01	0
1	373728	69.11	0
1	374274	69.21	0
1	374820	69.31	0
1	375366	69.41	0
1	375912	69.51	0
1	376458	69.61	0
1	377004	69.71	0
1	377550	69.81	0
1	378096	69.91	0
1	378650	70.01	0
1	379196	70.11	0
1	379742	70.21	0
1	380288	70.31	0
1	380834	70.41	0
1	381380	70.51	0
1	381926	70.61	0
1	382472	70.71	0
1	383018	70.81	0
1	383564	70.91	0
1	384118	71.01	0
1	384664	71.11	0
1	385210	71.21	0
1	385756	71.31	0
1	386302	71.41	0
1	386848	71.51	0
1	387394	71.61	0
1	387940	71.71	0
1	388486	71.81	0
1	389032	71.91	0
1	389586	72.01	0
1	390132	72.11	0
1	390678	72.21	0
1	391224	72.31	0
1	391770	72.41	0
1	392316	72.51	0
1	392862	72.61	0
1	393408	72.71	0
1	393954	72.81	0
1	394500	72.91	0
1	395054	73.01	0
1	395600	73.11	0
1	396146	73.21	0
1	396692	73.31	0
1	397238	73.41	0
1	397784	73.51	0
1	398330	73.61	0
1	398876	73.71	0
1	399422	73.81	0
1	399968	73.91	0
1	400522	74.01	0
1	401068	74.11	0
1	401614	74.21	0
1	402160	74.31	0
1	402706	74.41	0
1	403252	74.51	0
1	403798	74.61	0
1	404344	74.71	0
1	404890	74.81	0
1	405436	74.91	0
1	405990	75.01	0
1	406536	75.11	0
1	407082	75.21	0
1	407628	75.31	0
1	408174	75.41	0
1	408720	75.51	0
1	409266	75.61	0
1	409812	75.71	0
1	410358	75.81	0
1	410904	75.91	0
1	411458	76.01	0
1	412004	76.11	0
1	412550	76.21	0
1	413096	76.31	0
1	413642	76.41	0
1	414188	76.51	0
1	414734	76.61	0
1	415280	76.71	0
1	415826	76.81	0
1	416372	76.91	0
1	416926	77.01	0
1	417472	77.11	0
1	418018	77.21	0
1	418564	77.31	0
1	419110	77.41	0
1	419656	77.51	0
1	420202	77.61	0
1	420748	77.71	0
1	421294	77.81	0
1	421840	77.91	0
1	422394	78.01	0
1	422940	78.11	0
1	423486	78.21	0
1	424032	78.31	0
1	424578	78.41	0
1	425124	78.51	0
1	425670	78.61	0
1	426216	78.71	0
1	426762	78.81	0
1	427308	78.91	0
1	427862	79.01	0
1	428408	79.11	0
1	428954	79.21	0
1	429500	79.31	0
1	430046	79.41	0
1	430592	79.51	0
1	431138	79.61	0
1	431684	79.71	0
1	432230	79.81	0
1	432776	79.91	0
1	433330	80.01	0
1	433876	80.11	0
1	434422	80.21	0
1	434968	80.31	0
1	435514	80.41	0
1	436060	80.51	0
1	436606	80.61	0
1	437152	80.71	0
1	437698	80.81	0
1	438244	80.91	0
1	438798	81.01	0
1	439344	81.11	0
1	439890	81.21	0
1	440436	81.31	0
1	440982	81.41	0
1	441528	81.51	0
1	442074	81.61	0
1	442620	81.71	0
1	443166	81.81	0
1	443712	81.91	0
1	444266	82.01	0
1	444812	82.11	0
1	445358	82.21	0
1	445904	82.31	0
1	446450	82.41	0
1	446996	82.51	0
1	447542	82.61	0
1	448088	82.71	0
1	448634	82.81	0
1	449180	82.91	0
1	449734	83.01	0
1	450280	83.11	0
1	450826	83.21	0
1	451372	83.31	0
1	451918	83.41	0
1	452464	83.51	0
1	453010	83.61	0
1	453556	83.71	0
1	454102	83.81	0
1	454648	83.91	0
1	455202	84.01	0
1	455748	84.11	0
1	456294	84.21	0
1	456840	84.31	0
1	457386	84.41	0
1	457932	84.51	0
1	458478	84.61	0
1	459024	84.71	0
1	459570	84.81	0
1	460116	84.91	0
1	460670	85.01	0
1	461216	85.11	0
1	461762	85.21	0
1	462308	85.31	0
1	462854	85.41	0
1	463400	85.51	0
1	463946	85.61	0
1	464492	85.71	0
1	465038	85.81	0
1	465584	85.91	0
1	466138	86.01	0
1	466684	86.11	0
1	467230	86.21	0
1	467776	86.31	0
1	468322	86.41	0
1	468868	86.51	0
1	469414	86.61	0
1	469960	86.71	0
1	470506	86.81	0
1	471052	86.91	0
1	471606	87.01	0
1	472152	87.11	0
1	472698	87.21	0
1	473244	87.31	0
1	473790	87.41	0
1	474336	87.51	0
1	474882	87.61	0
1	475428	87.71	0
1	475974	87.81	0
1	476520	87.91	0
1	477074	88.01	0
1	477620	88.11	0
1	478166	88.21	0
1	478712	88.31	0
1	479258	88.41	0
1	479804	88.51	0
1	480350	88.61	0
1	480896	88.71	0
1	481442	88.81	0
1	481988	88.91	0
1	482542	89.01	0
1	483088	89.11	0
1	483634	89.21	0
1	484180	89.31	0
1	484726	89.41	0
1	485272	89.51	0
1	485818	89.61	0
1	486364	89.71	0
1	486910	89.81	0
1	487456	89.91	0
1	488010	90.01	0
1	488556	90.11	0
1	489102	90.21	0
1	489648	90.31	0
1	490194	90.41	0
1	490740	90.51	0
1	491286	90.61	0
1	491832	90.71	0
1	492378	90.81	0
1	492924	90.91	0
1	493478	91.01	0
1	494024	91.11	0
1	494570	91.21	0
1	495116	91.31	0
1	495662	91.41	0
1	496208	91.51	0
1	496754	91.61	0
1	497300	91.71	0
1	497846	91.81	0
1	498392	91.91	0
1	498946	92.01	0
1	499492	92.11	0
1	500038	92.21	0
1	500584	92.31	0
1	501130	92.41	0
1	501676	92.51	0
1	502222	92.61	0
1	502768	92.71	0
1	503314	92.81	0
1	503860	92.91	0
1	504414	93.01	0
1	504960	93.11	0
1	505506	93.21	0
1	506052	93.31	0
1	506598	93.41	0
1	507144	93.51	0
1	507690	93.61	0
1	508236	93.71	0
1	508782	93.81	0
1	509328	93.91	0
1	509882	94.01	0
1	510428	94.11	0
1	510974	94.21	0
1	511520	94.31	0
1	512066	94.41	0
1	512612	94.51	0
1	513158	94.61	0
1	513704	94.71	0
1	514250	94.81	0
1	514796	94.91	0
1	515350	95.01	0
1	515896	95.11	0
1	516442	95.21	0
1	516988	95.31	0
1	517534	95.41	0
1	518080	95.51	0
1	518626	95.61	0
1	519172	95.71	0
1	519718	95.81	0
1	520264	95.91	0
1	520818	96.01	0
1	521364	96.11	0
1	521910	96.21	0
1	522456	96.31	0
1	523002	96.41	0
1	523548	96.51	0
1	524094	96.61	0
1	524640	96.71	0
1	525186	96.81	0
1	525732	96.91	0
1	526286	97.01	0
1	526832	97.11	0
1	527378	97.21	0
1	527924	97.31	0
1	528470	97.41	0
1	529016	97.51	0
1	529562	97.61	0
1	530108	97.71	0
1	530654	97.81	0
1	531200	97.91	0
1	531754	98.01	0
1	532300	98.11	0
1	532846	98.21	0
1	533392	98.31	0
1	533938	98.41	0
1	534484	98.51	0
1	535030	98.61	0
1	535576	98.71	0
1	536122	98.81	0
1	536668	98.91	0
1	537222	99.01	0
1	537768	99.11	0
1	538314	99.21	0
1	538860	99.31	0
1	539406	99.41	0
1	539952	99.51	0
1	540498	99.61	0
1	541044	99.71	0
1	541590	99.81	0
1	542136	99.91	0
2	113	1.11	0
2	659	1.21	0
2	1205	1.31	0
2	1751	1.41	0
2	2297	1.51	0
2	2843	1.61	0
2	3389	1.71	0
2	3935	1.81	0
2	4481	1.91	0
2	5035	2.01	0
2	5581	2.11	0
2	6127	2.21	0
2	6673	2.31	0
2	7219	2.41	0
2	7765	2.51	0
2	8311	2.61	0
2	8857	2.71	0
2	9403	2.81	0
2	9949	2.91	0
2	10503	3.01	0
2	11049	3.11	0
2	11595	3.21	0
2	12141	3.31	0
2	12687	3.41	0
2	13233	3.51	0
2	13779	3.61	0
2	14325	3.71	0
2	14871	3.81	0
2	15417	3.91	0
2	15971	4.01	0
2	16517	4.11	0
2	17063	4.21	0
2	17609	4.31	0
2	18155	4.41	0
2	18701	4.51	0
2	19247	4.61	0
2	19793	4.71	0
2	20339	4.81	0
2	20885	4.91	0
2	21439	5.01	0
2	21985	5.11	0
2	22531	5.21	0
2	23077	5.31	0
2	23623	5.41	0
2	24169	5.51	0
2	24715	5.61	0
2	25261	5.71	0
2	25807	5.81	0
2	26353	5.91	0
2	26907	6.01	0
2	27453	6.11	0
2	27999	6.21	0
2	28545	6.31	0
2	29091	6.41	0
2	29637	6.51	0
2	30183	6.61	0
2	30729	6.71	0
2	31275	6.81	0
2	31821	6.91	0
2	32375	7.01	0
2	32921	7.11	0
2	33467	7.21	0
2	34013	7.31	0
2	34559	7.41	0
2	35105	7.51	0
2	35651	7.61	0
2	36197	7.71	0
2	36743	7.81	0
2	37289	7.91	0
2	37843	8.01	0
2	38389	8.11	0
2	38935	8.21	0
2	39481	8.31	0
2	40027	8.41	0
2	40573	8.51	0
2	41119	8.61	0
2	41665	8.71	0
2	42211	8.81	0
2	42757	8.91	0
2	43311	9.01	0
2	43857	9.11	0
2	44403	9.21	0
2	44949	9.31	0
2	45495	9.41	0
2	46041	9.51	0
2	46587	9.61	0
2	47133	9.71	0
2	47679	9.81	0
2	48225	9.91	0
2	50570	10.01	0
2	51116	10.11	0
2	51662	10.21	0
2	52208	10.31	0
2	52754	10.41	0
2	53300	10.51	0
2	53846	10.61	0
2	54392	10.71	0
2	54938	10.81	0
2	55484	10.91	0
2	56038	11.01	0
2	56584	11.11	0
2	57130	11.21	0
2	57676	11.31	0
2	58222	11.41	0
2	58768	11.51	0
2	59314	11.61	0
2	59860	11.71	0
2	60406	11.81	0
2	60952	11.91	0
2	61506	12.01	0
2	62052	12.11	0
2	62598	12.21	0
2	63144	12.31	0
2	63690	12.41	0
2	64236	12.51	0
2	64782	12.61	0
2	65328	12.71	0
2	65874	12.81	0
2	66420	12.91	0
2	66974	13.01	0
2	67520	13.11	0
2	68066	13.21	0
2	68612	13.31	0
2	69158	13.41	0
2	69704	13.51	0
2	70250	13.61	0
2	70796	13.71	0
2	71342	13.81	0
2	71888	13.91	0
2	72442	14.01	0
2	72988	14.11	0
2	73534	14.21	0
2	74080	14.31	0
2	74626	14.41	0
2	75172	14.51	0
2	75718	14.61	0
2	76264	14.71	0
2	76810	14.81	0
2	77356	14.91	0
2	77910	15.01	0
2	78456	15.11	0
2	79002	15.21	0
2	79548	15.31	0
2	80094	15.41	0
2	80640	15.51	0
2	81186	15.61	0
2	81732	15.71	0
2	82278	15.81	0
2	82824	15.91	0
2	83378	16.01	0
2	83924	16.11	0
2	84470	16.21	0
2	85016	16.31	0
2	85562	16.41	0
2	86108	16.51	0
2	86654	16.61	0
2	87200	16.71	0
2	87746	16.81	0
2	88292	16.91	0
2	88846	17.01	0
2	89392	17.11	0
2	89938	17.21	0
2	90484	17.31	0
2	91030	17.41	0
2	91576	17.51	0
2	92122	17.61	0
2	92668	17.71	0
2	93214	17.81	0
2	93760	17.91	0
2	94314	18.01	0
2	94860	18.11	0
2	95406	18.21	0
2	95952	18.31	0
2	96498	18.41	0
2	97044	18.51	0
2	97590	18.61	0
2	98136	18.71	0
2	98682	18.81	0
2	99228	18.91	0
2	99782	19.01	0
2	100328	19.11	0
2	100874	19.21	0
2	101420	19.31	0
2	101966	19.41	0
2	102512	19.51	0
2	103058	19.61	0
2	103604	19.71	0
2	104150	19.81	0
2	104696	19.91	0
2	105250	20.01	0
2	105796	20.11	0
2	106342	20.21	0
2	106888	20.31	0
2	107434	20.41	0
2	107980	20.51	0
2	108526	20.61	0
2	109072	20.71	0
2	109618	20.81	0
2	110164	20.91	0
2	110718	21.01	0
2	111264	21.11	0
2	111810	21.21	0
2	112356	21.31	0
2	112902	21.41	0
2	113448	21.51	0
2	113994	21.61	0
2	114540	21.71	0
2	115086	21.81	0
2	115632	21.91	0
2	116186	22.01	0
2	116732	22.11	0
2	117278	22.21	0
2	117824	22.31	0
2	118370	22.41	0
2	118916	22.51	0
2	119462	22.61	0
2	120008	22.71	0
2	120554	22.81	0
2	121100	22.91	0
2	121654	23.01	0
2	122200	23.11	0
2	122746	23.21	0
2	123292	23.31	0
2	123838	23.41	0
2	124384	23.51	0
2	124930	23.61	0
2	125476	23.71	0
2	126022	23.81	0
2	126568	23.91	0
2	127122	24.01	0
2	127668	24.11	0
2	128214	24.21	0
2	128760	24.31	0
2	129306	24.41	0
2	129852	24.51	0
2	130398	24.61	0
2	130944	24.71	0
2	131490	24.81	0
2	132036	24.91	0
2	132590	25.01	0
2	133136	25.11	0
2	133682	25.21	0
2	134228	25.31	0
2	134774	25.41	0
2	135320	25.51	0
2	135866	25.61	0
2	136412	25.71	0
2	136958	25.81	0
2	137504	25.91	0
2	138058	26.01	0
2	138604	26.11	0
2	139150	26.21	0
2	139696	26.31	0
2	140242	26.41	0
2	140788	26.51	0
2	141334	26.61	0
2	141880	26.71	0
2	142426	26.81	0
2	142972	26.91	0
2	143526	27.01	0
2	144072	27.11	0
2	144618	27.21	0
2	145164	27.31	0
2	145710	27.41	0
2	146256	27.51	0
2	146802	27.61	0
2	147348	27.71	0
2	147894	27.81	0
2	148440	27.91	0
2	148994	28.01	0
2	149540	28.11	0
2	150086	28.21	0
2	150632	28.31	0
2	151178	28.41	0
2	151724	28.51	0
2	152270	28.61	0
2	152816	28.71	0
2	153362	28.81	0
2	153908	28.91	0
2	154462	29.01	0
2	155008	29.11	0
2	155554	29.21	0
2	156100	29.31	0
2	156646	29.41	0
2	157192	29.51	0
2	157738	29.61	0
2	158284	29.71	0
2	158830	29.81	0
2	159376	29.91	0
2	159930	30.01	0
2	160476	30.11	0
2	161022	30.21	0
2	161568	30.31	0
2	162114	30.41	0
2	162660	30.51	0
2	163206	30.61	0
2	163752	30.71	0
2	164298	30.81	0
2	164844	30.91	0
2	165398	31.01	0
2	165944	31.11	0
2	166490	31.21	0
2	167036	31.31	0
2	167582	31.41	0
2	168128	31.51	0
2	168674	31.61	0
2	169220	31.71	0
2	169766	31.81	0
2	170312	31.91	0
2	170866	32.01	0
2	171412	32.11	0
2	171958	32.21	0
2	172504	32.31	0
2	173050	32.41	0
2	173596	32.51	0
2	174142	32.61	0
2	174688	32.71	0
2	175234	32.81	0
2	175780	32.91	0
2	176334	33.01	0
2	176880	33.11	0
2	177426	33.21	0
2	177972	33.31	0
2	178518	33.41	0
2	179064	33.51	0
2	179610	33.61	0
2	180156	33.71	0
2	180702	33.81	0
2	181248	33.91	0
2	181802	34.01	0
2	182348	34.11	0
2	182894	34.21	0
2	183440	34.31	0
2	183986	34.41	0
2	184532	34.51	0
2	185078	34.61	0
2	185624	34.71	0
2	186170	34.81	0
2	186716	34.91	0
2	187270	35.01	0
2	187816	35.11	0
2	188362	35.21	0
2	188908	35.31	0
2	189454	35.41	0
2	190000	35.51	0
2	190546	35.61	0
2	191092	35.71	0
2	191638	35.81	0
2	192184	35.91	0
2	192738	36.01	0
2	193284	36.11	0
2	193830	36.21	0
2	194376	36.31	0
2	194922	36.41	0
2	195468	36.51	0
2	196014	36.61	0
2	196560	36.71	0
2	197106	36.81	0
2	197652	36.91	0
2	198206	37.01	0
2	198752	37.11	0
2	199298	37.21	0
2	199844	37.31	0
2	200390	37.41	0
2	200936	37.51	0
2	201482	37.61	0
2	202028	37.71	0
2	202574	37.81	0
2	203120	37.91	0
2	203674	38.01	0
2	204220	38.11	0
2	204766	38.21	0
2	205312	38.31	0
2	205858	38.41	0
2	206404	38.51	0
2	206950	38.61	0
2	207496	38.71	0
2	208042	38.81	0
2	208588	38.91	0
2	209142	39.01	0
2	209688	39.11	0
2	210234	39.21	0
2	210780	39.31	0
2	211326	39.41	0
2	211872	39.51	0
2	212418	39.61	0
2	212964	39.71	0
2	213510	39.81	0
2	214056	39.91	0
2	214610	40.01	0
2	215156	40.11	0
2	215702	40.21	0
2	216248	40.31	0
2	216794	40.41	0
2	217340	40.51	0
2	217886	40.61	0
2	218432	40.71	0
2	218978	40.81	0
2	219524	40.91	0
2	220078	41.01	0
2	220624	41.11	0
2	221170	41.21	0
2	221716	41.31	0
2	222262	41.41	0
2	222808	41.51	0
2	223354	41.61	0
2	223900	41.71	0
2	224446	41.81	0
2	224992	41.91	0
2	225546	42.01	0
2	226092	42.11	0
2	226638	42.21	0
2	227184	42.31	0
2	227730	42.41	0
2	228276	42.51	0
2	228822	42.61	0
2	229368	42.71	0
2	229914	42.81	0
2	230460	42.91	0
2	231014	43.01	0
2	231560	43.11	0
2	232106	43.21	0
2	232652	43.31	0
2	233198	43.41	0
2	233744	43.51	0
2	234290	43.61	0
2	234836	43.71	0
2	235382	43.81	0
2	235928	43.91	0
2	236482	44.01	0
2	237028	44.11	0
2	237574	44.21	0
2	238120	44.31	0
2	238666	44.41	0
2	239212	44.51	0
2	239758	44.61	0
2	240304	44.71	0
2	240850	44.81	0
2	241396	44.91	0
2	241950	45.01	0
2	242496	45.11	0
2	243042	45.21	0
2	243588	45.31	0
2	244134	45.41	0
2	244680	45.51	0
2	245226	45.61	0
2	245772	45.71	0
2	246318	45.81	0
2	246864	45.91	0
2	247418	46.01	0
2	247964	46.11	0
2	248510	46.21	0
2	249056	46.31	0
2	249602	46.41	0
2	250148	46.51	0
2	250694	46.61	0
2	251240	46.71	0
2	251786	46.81	0
2	252332	46.91	0
2	252886	47.01	0
2	253432	47.11	0
2	253978	47.21	0
2	254524	47.31	0
2	255070	47.41	0
2	255616	47.51	0
2	256162	47.61	0
2	256708	47.71	0
2	257254	47.81	0
2	257800	47.91	0
2	258354	48.01	0
2	258900	48.11	0
2	259446	48.21	0
2	259992	48.31	0
2	260538	48.41	0
2	261084	48.51	0
2	261630	48.61	0
2	262176	48.71	0
2	262722	48.81	0
2	263268	48.91	0
2	263822	49.01	0
2	264368	49.11	0
2	264914	49.21	0
2	265460	49.31	0
2	266006	49.41	0
2	266552	49.51	0
2	267098	49.61	0
2	267644	49.71	0
2	268190	49.81	0
2	268736	49.91	0
2	269290	50.01	0
2	269836	50.11	0
2	270382	50.21	0
2	270928	50.31	0
2	271474	50.41	0
2	272020	50.51	0
2	272566	50.61	0
2	273112	50.71	0
2	273658	50.81	0
2	274204	50.91	0
2	274758	51.01	0
2	275304	51.11	0
2	275850	51.21	0
2	276396	51.31	0
2	276942	51.41	0
2	277488	51.51	0
2	278034	51.61	0
2	278580	51.71	0
2	279126	51.81	0
2	279672	51.91	0
2	280226	52.01	0
2	280772	52.11	0
2	281318	52.21	0
2	281864	52.31	0
2	282410	52.41	0
2	282956	52.51	0
2	283502	52.61	0
2	284048	52.71	0
2	284594	52.81	0
2	285140	52.91	0
2	285694	53.01	0
2	286240	53.11	0
2	286786	53.21	0
2	287332	53.31	0
2	287878	53.41	0
2	288424	53.51	0
2	288970	53.61	0
2	289516	53.71	0
2	290062	53.81	0
2	290608	53.91	0
2	291162	54.01	0
2	291708	54.11	0
2	292254	54.21	0
2	292800	54.31	0
2	293346	54.41	0
2	293892	54.51	0
2	294438	54.61	0
2	294984	54.71	0
2	295530	54.81	0
2	296076	54.91	0
2	296630	55.01	0
2	297176	55.11	0
2	297722	55.21	0
2	298268	55.31	0
2	298814	55.41	0
2	299360	55.51	0
2	299906	55.61	0
2	300452	55.71	0
2	300998	55.81	0
2	301544	55.91	0
2	302098	56.01	0
2	302644	56.11	0
2	303190	56.21	0
2	303736	56.31	0
2	304282	56.41	0
2	304828	56.51	0
2	305374	56.61	0
2	305920	56.71	0
2	306466	56.81	0
2	307012	56.91	0
2	307566	57.01	0
2	308112	57.11	0
2	308658	57.21	0
2	309204	57.31	0
2	309750	57.41	0
2	310296	57.51	0
2	310842	57.61	0
2	311388	57.71	0
2	311934	57.81	0
2	312480	57.91	0
2	313034	58.01	0
2	313580	58.11	0
2	314126	58.21	0
2	314672	58.31	0
2	315218	58.41	0
2	315764	58.51	0
2	316310	58.61	0
2	316856	58.71	0
2	317402	58.81	0
2	317948	58.91	0
2	318502	59.01	0
2	319048	59.11	0
2	319594	59.21	0
2	320140	59.31	0
2	320686	59.41	0
2	321232	59.51	0
2	321778	59.61	0
2	322324	59.71	0
2	322870	59.81	0
2	323416	59.91	0
2	323970	60.01	0
2	324516	60.11	0
2	325062	60.21	0
2	325608	60.31	0
2	326154	60.41	0
2	326700	60.51	0
2	327246	60.61	0
2	327792	60.71	0
2	328338	60.81	0
2	328884	60.91	0
2	329438	61.01	0
2	329984	61.11	0
2	330530	61.21	0
2	331076	61.31	0
2	331622	61.41	0
2	332168	61.51	0
2	332714	61.61	0
2	333260	61.71	0
2	333806	61.81	0
2	334352	61.91	0
2	334906	62.01	0
2	335452	62.11	0
2	335998	62.21	0
2	336544	62.31	0
2	337090	62.41	0
2	337636	62.51	0
2	338182	62.61	0
2	338728	62.71	0
2	339274	62.81	0
2	339820	62.91	0
2	340374	63.01	0
2	340920	63.11	0
2	341466	63.21	0
2	342012	63.31	0
2	342558	63.41	0
2	343104	63.51	0
2	343650	63.61	0
2	344196	63.71	0
2	344742	63.81	0
2	345288	63.91	0
2	345842	64.01	0
2	346388	64.11	0
2	346934	64.21	0
2	347480	64.31	0
2	348026	64.41	0
2	348572	64.51	0
2	349118	64.61	0
2	349664	64.71	0
2	350210	64.81	0
2	350756	64.91	0
2	351310	65.01	0
2	351856	65.11	0
2	352402	65.21	0
2	352948	65.31	0
2	353494	65.41	0
2	354040	65.51	0
2	354586	65.61	0
2	355132	65.71	0
2	355678	65.81	0
2	356224	65.91	0
2	356778	66.01	0
2	357324	66.11	0
2	357870	66.21	0
2	358416	66.31	0
2	358962	66.41	0
2	359508	66.51	0
2	360054	66.61	0
2	360600	66.71	0
2	361146	66.81	0
2	361692	66.91	0
2	362246	67.01	0
2	362792	67.11	0
2	363338	67.21	0
2	363884	67.31	0
2	364430	67.41	0
2	364976	67.51	0
2	365522	67.61	0
2	366068	67.71	0
2	366614	67.81	0
2	367160	67.91	0
2	367714	68.01	0
2	368260	68.11	0
2	368806	68.21	0
2	369352	68.31	0
2	369898	68.41	0
2	370444	68.51	0
2	370990	68.61	0
2	371536	68.71	0
2	372082	68.81	0
2	372628	68.91	0
2	373182	69.01	0
2	373728	69.11	0
2	374274	69.21	0
2	374820	69.31	0
2	375366	69.41	0
2	375912	69.51	0
2	376458	69.61	0
2	377004	69.71	0
2	377550	69.81	0
2	378096	69.91	0
2	378650	70.01	0
2	379196	70.11	0
2	379742	70.21	0
2	380288	70.31	0
2	380834	70.41	0
2	381380	70.51	0
2	381926	70.61	0
2	382472	70.71	0
2	383018	70.81	0
2	383564	70.91	0
2	384118	71.01	0
2	384664	71.11	0
2	385210	71.21	0
2	385756	71.31	0
2	386302	71.41	0
2	386848	71.51	0
2	387394	71.61	0
2	387940	71.71	0
2	388486	71.81	0
2	389032	71.91	0
2	389586	72.01	0
2	390132	72.11	0
2	390678	72.21	0
2	391224	72.31	0
2	391770	72.41	0
2	392316	72.51	0
2	392862	72.61	0
2	393408	72.71	0
2	393954	72.81	0
2	394500	72.91	0
2	395054	73.01	0
2	395600	73.11	0
2	396146	73.21	0
2	396692	73.31	0
2	397238	73.41	0
2	397784	73.51	0
2	398330	73.61	0
2	398876	73.71	0
2	399422	73.81	0
2	399968	73.91	0
2	400522	74.01	0
2	401068	74.11	0
2	401614	74.21	0
2	402160	74.31	0
2	402706	74.41	0
2	403252	74.51	0
2	403798	74.61	0
2	404344	74.71	0
2	404890	74.81	0
2	405436	74.91	0
2	405990	75.01	0
2	406536	75.11	0
2	407082	75.21	0
2	407628	75.31	0
2	408174	75.41	0
2	408720	75.51	0
2	409266	75.61	0
2	409812	75.71	0
2	410358	75.81	0
2	410904	75.91	0
2	411458	76.01	0
2	412004	76.11	0
2	412550	76.21	0
2	413096	76.31	0
2	413642	76.41	0
2	414188	76.51	0
2	414734	76.61	0
2	415280	76.71	0
2	415826	76.81	0
2	416372	76.91	0
2	416926	77.01	0
2	417472	77.11	0
2	418018	77.21	0
2	418564	77.31	0
2	419110	77.41	0
2	419656	77.51	0
2	420202	77.61	0
2	420748	77.71	0
2	421294	77.81	0
2	421840	77.91	0
2	422394	78.01	0
2	422940	78.11	0
2	423486	78.21	0
2	424032	78.31	0
2	424578	78.41	0
2	425124	78.51	0
2	425670	78.61	0
2	426216	78.71	0
2	426762	78.81	0
2	427308	78.91	0
2	427862	79.01	0
2	428408	79.11	0
2	428954	79.21	0
2	429500	79.31	0
2	430046	79.41	0
2	430592	79.51	0
2	431138	79.61	0
2	431684	79.71	0
2	432230	79.81	0
2	432776	79.91	0
2	433330	80.01	0
2	433876	80.11	0
2	434422	80.21	0
2	434968	80.31	0
2	435514	80.41	0
2	436060	80.51	0
2	436606	80.61	0
2	437152	80.71	0
2	437698	80.81	0
2	438244	80.91	0
2	438798	81.01	0
2	439344	81.11	0
2	439890	81.21	0
2	440436	81.31	0
2	440982	81.41	0
2	441528	81.51	0
2	442074	81.61	0
2	442620	81.71	0
2	443166	81.81	0
2	443712	81.91	0
2	444266	82.01	0
2	444812	82.11	0
2	445358	82.21	0
2	445904	82.31	0
2	446450	82.41	0
2	446996	82.51	0
2	447542	82.61	0
2	448088	82.71	0
2	448634	82.81	0
2	449180	82.91	0
2	449734	83.01	0
2	450280	83.11	0
2	450826	83.21	0
2	451372	83.31	0
2	451918	83.41	0
2	452464	83.51	0
2	453010	83.61	0
2	453556	83.71	0
2	454102	83.81	0
2	454648	83.91	0
2	455202	84.01	0
2	455748	84.11	0
2	456294	84.21	0
2	456840	84.31	0
2	457386	84.41	0
2	457932	84.51	0
2	458478	84.61	0
2	459024	84.71	0
2	459570	84.81	0
2	460116	84.91	0
2	460670	85.01	0
2	461216	85.11	0
2	461762	85.21	0
2	462308	85.31	0
2	462854	85.41	0
2	463400	85.51	0
2	463946	85.61	0
2	464492	85.71	0
2	465038	85.81	0
2	465584	85.91	0
2	466138	86.01	0
2	466684	86.11	0
2	467230	86.21	0
2	467776	86.31	0
2	468322	86.41	0
2	468868	86.51	0
2	469414	86.61	0
2	469960	86.71	0
2	470506	86.81	0
2	471052	86.91	0
2	471606	87.01	0
2	472152	87.11	0
2	472698	87.21	0
2	473244	87.31	0
2	473790	87.41	0
2	474336	87.51	0
2	474882	87.61	0
2	475428	87.71	0
2	475974	87.81	0
2	476520	87.91	0
2	477074	88.01	0
2	477620	88.11	0
2	478166	88.21	0
2	478712	88.31	0
2	479258	88.41	0
2	479804	88.51	0
2	480350	88.61	0
2	480896	88.71	0
2	481442	88.81	0
2	481988	88.91	0
2	482542	89.01	0
2	483088	89.11	0
2	483634	89.21	0
2	484180	89.31	0
2	484726	89.41	0
2	485272	89.51	0
2	485818	89.61	0
2	486364	89.71	0
2	486910	89.81	0
2	487456	89.91	0
2	488010	90.01	0
2	488556	90.11	0
2	489102	90.21	0
2	489648	90.31	0
2	490194	90.41	0
2	490740	90.51	0
2	491286	90.61	0
2	491832	90.71	0
2	492378	90.81	0
2	492924	90.91	0
2	493478	91.01	0
2	494024	91.11	0
2	494570	91.21	0
2	495116	91.31	0
2	495662	91.41	0
2	496208	91.51	0
2	496754	91.61	0
2	497300	91.71	0
2	497846	91.81	0
2	498392	91.91	0
2	498946	92.01	0
2	499492	92.11	0
2	500038	92.21	0
2	500584	92.31	0
2	501130	92.41	0
2	501676	92.51	0
2	502222	92.61	0
2	502768	92.71	0
2	503314	92.81	0
2	503860	92.91	0
2	504414	93.01	0
2	504960	93.11	0
2	505506	93.21	0
2	506052	93.31	0
2	506598	93.41	0
2	507144	93.51	0
2	507690	93.61	0
2	508236	93.71	0
2	508782	93.81	0
2	509328	93.91	0
2	509882	94.01	0
2	510428	94.11	0
2	510974	94.21	0
2	511520	94.31	0
2	512066	94.41	0
2	512612	94.51	0
2	513158	94.61	0
2	513704	94.71	0
2	514250	94.81	0
2	514796	94.91	0
2	515350	95.01	0
2	515896	95.11	0
2	516442	95.21	0
2	516988	95.31	0
2	517534	95.41	0
2	518080	95.51	0
2	518626	95.61	0
2	519172	95.71	0
2	519718	95.81	0
2	520264	95.91	0
2	520818	96.01	0
2	521364	96.11	0
2	521910	96.21	0
2	522456	96.31	0
2	523002	96.41	0
2	523548	96.51	0
2	524094	96.61	0
2	524640	96.71	0
2	525186	96.81	0
2	525732	96.91	0
2	526286	97.01	0
2	526832	97.11	0
2	527378	97.21	0
2	527924	97.31	0
2	528470	97.41	0
2	529016	97.51	0
2	529562	97.61	0
2	530108	97.71	0
2	530654	97.81	0
2	531200	97.91	0
2	531754	98.01	0
2	532300	98.11	0
2	532846	98.21	0
2	533392	98.31	0
2	533938	98.41	0
2	534484	98.51	0
2	535030	98.61	0
2	535576	98.71	0
2	536122	98.81	0
2	536668	98.91	0
2	537222	99.01	0
2	537768	99.11	0
2	538314	99.21	0
2	538860	99.31	0
2	539406	99.41	0
2	539952	99.51	0
2	540498	99.61	0
2	541044	99.71	0
2	541590	99.81	0
2	542136	99.91	0
3	113	1.11	-0.000537287
3	659	1.21	-0.00102256
3	1205	1.31	-0.0014023
3	1751	1.41	-0.00168868
3	2297	1.51	-0.00189332
3	2843	1.61	-0.00202724
3	3389	1.71	-0.00210073
3	3935	1.81	-0.00212335
3	4481	1.91	-0.00210382
3	5035	2.01	-0.00205006
3	5581	2.11	-0.00196919
3	6127	2.21	-0.00186754
3	6673	2.31	-0.00175064
3	7219	2.41	-0.00162335
3	7765	2.51	-0.00148981
3	8311	2.61	-0.00135354
3	8857	2.71	-0.00121748
3	9403	2.81	-0.00108402
3	9949	2.91	-0.000955094
3	10503	3.01	-0.0008322
3	11049	3.11	-0.000716459
3	11595	3.21	-0.00060866
3	12141	3.31	-0.00050931
3	12687	3.41	-0.000418674
3	13233	3.51	-0.000336812
3	13779	3.61	-0.000263615
3	14325	3.71	-0.00019884
3	14871	3.81	-0.000142136
3	15417	3.91	-9.30689e-05
3	15971	4.01	-5.11479e-05
3	16517	4.11	-1.58407e-05
3	17063	4.21	1.34077e-05
3	17609	4.31	3.7161e-05
3	18155	4.41	5.59805e-05
3	18701	4.51	7.0415e-05
3	19247	4.61	8.09934e-05
3	19793	4.71	8.82186e-05
3	20339	4.81	9.25636e-05
3	20885	4.91	9.44677e-05
3	21439	5.01	9.43354e-05
3	21985	5.11	9.25349e-05
3	22531	5.21	8.93982e-05
3	23077	5.31	8.52216e-05
3	23623	5.41	8.02667e-05
3	24169	5.51	7.47624e-05
3	24715	5.61	6.8906e-05
3	25261	5.71	6.28658e-05
3	25807	5.81	5.67832e-05
3	26353	5.91	5.07749e-05
3	26907	6.01	4.49353e-05
3	27453	6.11	3.93388e-05
3	27999	6.21	3.40422e-05
3	28545	6.31	2.90866e-05
3	29091	6.41	2.44995e-05
3	29637	6.51	2.02971e-05
3	30183	6.61	1.64857e-05
3	30729	6.71	1.30632e-05
3	31275	6.81	1.00213e-05
3	31821	6.91	7.34621e-06
3	32375	7.01	5.0199e-06
3	32921	7.11	3.02148e-06
3	33467	7.21	1.32788e-06
3	34013	7.31	-8.52687e-08
3	34559	7.41	-1.24302e-06
3	35105	7.51	-2.17048e-06
3	35651	7.61	-2.89239e-06
3	36197	7.71	-3.43273e-06
3	36743	7.81	-3.81443e-06
3	37289	7.91	-4.05915e-06
3	37843	8.01	-4.18709e-06
3	38389	8.11	-4.21695e-06
3	38935	8.21	-4.16581e-06
3	39481	8.31	-4.04914e-06
3	40027	8.41	-3.88081e-06
3	40573	8.51	-3.67311e-06
3	41119	8.61	-3.43684e-06
3	41665	8.71	-3.18138e-06
3	42211	8.81	-2.91475e-06
3	42757	8.91	-2.64374e-06
3	43311	9.01	-2.37401e-06
3	43857	9.11	-2.11015e-06
3	44403	9.21	-1.85584e-06
3	44949	9.31	-1.61394e-06
3	45495	9.41	-1.38655e-06
3	46041	9.51	-1.17514e-06
3	46587	9.61	-9.8063e-07
3	47133	9.71	-8.03478e-07
3	47679	9.81	-6.4374e-07
3	48225	9.91	-5.01153e-07
3	50570	10.01	-3.75194e-07
3	51116	10.11	-2.65135e-07
3	51662	10.21	-1.70092e-07
3	52208	10.31	-8.90743e-08
3	52754	10.41	-2.10129e-08
3	53300	10.51	3.51982e-08
3	53846	10.61	8.06793e-08
3	54392	10.71	1.16543e-07
3	54938	10.81	1.43872e-07
3	55484	10.91	1.63713e-07
3	56038	11.01	1.77052e-07
3	56584	11.11	1.84819e-07
3	57130	11.21	1.87876e-07
3	57676	11.31	1.87014e-07
3	58222	11.41	1.82953e-07
3	58768	11.51	1.7634e-07
3	59314	11.61	1.67752e-07
3	59860	11.71	1.57699e-07
3	60406	11.81	1.46622e-07
3	60952	11.91	1.34906e-07
3	61506	12.01	1.22874e-07
3	62052	12.11	1.10801e-07
3	62598	12.21	9.89097e-08
3	63144	12.31	8.73804e-08
3	63690	12.41	7.63556e-08
3	64236	12.51	6.59412e-08
3	64782	12.61	5.62153e-08
3	65328	12.71	4.72291e-08
3	65874	12.81	3.90095e-08
3	66420	12.91	3.15666e-08
3	66974	13.01	2.48953e-08
3	67520	13.11	1.8975e-08
3	68066	13.21	1.37796e-08
3	68612	13.31	9.26903e-09
3	69158	13.41	5.40297e-09
3	69704	13.51	2.13376e-09
3	70250	13.61	-5.85487e-10
3	70796	13.71	-2.80593e-09
3	71342	13.81	-4.57732e-09
3	71888	13.91	-5.94866e-09
3	72442	14.01	-6.96758e-09
3	72988	14.11	-7.67812e-09
3	73534	14.21	-8.12292e-09
3	74080	14.31	-8.34106e-09
3	74626	14.41	-8.3709e-09
3	75172	14.51	-8.24443e-09
3	75718	14.61	-7.99361e-09
3	76264	14.71	-7.64544e-09
3	76810	14.81	-7.22338e-09
3	77356	14.91	-6.74589e-09
3	77910	15.01	-6.23359e-09
3	78456	15.11	-5.70139e-09
3	79002	15.21	-5.16138e-09
3	79548	15.31	-4.62634e-09
3	80094	15.41	-4.10481e-09
3	80640	15.51	-3.60387e-09
3	81186	15.61	-3.12781e-09
3	81732	15.71	-2.68088e-09
3	82278	15.81	-2.26663e-09
3	82824	15.91	-1.88649e-09
3	83378	16.01	-1.54046e-09
3	83924	16.11	-1.22782e-09
3	84470	16.21	-9.50706e-10
3	85016	16.31	-7.06279e-10
3	85562	16.41	-4.92406e-10
3	86108	16.51	-3.09086e-10
3	86654	16.61	-1.52767e-10
3	87200	16.71	-2.13163e-11
3	87746	16.81	8.66862e-11
3	88292	16.91	1.73372e-10
3	88846	17.01	2.41585e-10
3	89392	17.11	2.92744e-10
3	89938	17.21	3.29692e-10
3	90484	17.31	3.54561e-10
3	91030	17.41	3.68061e-10
3	91576	17.51	3.72324e-10
3	92122	17.61	3.69482e-10
3	92668	17.71	3.60956e-10
3	93214	17.81	3.46745e-10
3	93760	17.91	3.28981e-10
3	94314	18.01	3.07665e-10
3	94860	18.11	2.86349e-10
3	95406	18.21	2.65032e-10
3	95952	18.31	2.43716e-10
3	96498	18.41	2.20979e-10
3	97044	18.51	1.99663e-10
3	97590	18.61	1.78346e-10
3	98136	18.71	1.5703e-10
3	98682	18.81	1.35714e-10
3	99228	18.91	1.14397e-10
3	99782	19.01	9.30811e-11
3	100328	19.11	7.74492e-11
3	100874	19.21	6.32383e-11
3	101420	19.31	4.90274e-11
3	101966	19.41	3.48166e-11
3	102512	19.51	2.41585e-11
3	103058	19.61	1.7053e-11
3	103604	19.71	9.9476e-12
3	104150	19.81	2.84217e-12
3	104696	19.91	-4.26326e-12
3	105250	20.01	-1.13687e-11
3	105796	20.11	-1.20792e-11
3	106342	20.21	-1.20792e-11
3	106888	20.31	-1.20792e-11
3	107434	20.41	-1.20792e-11
3	107980	20.51	-1.20792e-11
3	108526	20.61	-1.20792e-11
3	109072	20.71	-1.20792e-11
3	109618	20.81	-1.20792e-11
3	110164	20.91	-1.20792e-11
3	110718	21.01	-1.20792e-11
3	111264	21.11	-1.20792e-11
3	111810	21.21	-1.20792e-11
3	112356	21.31	-1.20792e-11
3	112902	21.41	-1.20792e-11
3	113448	21.51	-1.20792e-11
3	113994	21.61	-1.20792e-11
3	114540	21.71	-1.20792e-11
3	115086	21.81	-1.20792e-11
3	115632	21.91	-1.20792e-11
3	116186	22.01	-1.20792e-11
3	116732	22.11	-1.20792e-11
3	117278	22.21	-1.20792e-11
3	117824	22.31	-1.20792e-11
3	118370	22.41	-1.20792e-11
3	118916	22.51	-1.20792e-11
3	119462	22.61	-1.20792e-11
3	120008	22.71	-1.20792e-11
3	120554	22.81	-1.20792e-11
3	121100	22.91	-1.20792e-11
3	121654	23.01	-1.13687e-11
3	122200	23.11	-1.06581e-11
3	122746	23.21	-9.23706e-12
3	123292	23.31	-8.52651e-12
3	123838	23.41	-7.81597e-12
3	124384	23.51	-7.10543e-12
3	124930	23.61	-6.39488e-12
3	125476	23.71	-5.68434e-12
3	126022	23.81	-4.9738e-12
3	126568	23.91	-4.9738e-12
3	127122	24.01	-4.26326e-12
3	127668	24.11	-3.55271e-12
3	128214	24.21	-3.55271e-12
3	128760	24.31	-2.84217e-12
3	129306	24.41	-2.84217e-12
3	129852	24.51	-2.84217e-12
3	130398	24.61	-2.13163e-12
3	130944	24.71	-2.13163e-12
3	131490	24.81	-2.13163e-12
3	132036	24.91	-1.42109e-12
3	132590	25.01	-1.42109e-12
3	133136	25.11	-1.42109e-12
3	133682	25.21	-1.42109e-12
3	134228	25.31	-1.42109e-12
3	134774	25.41	-7.10543e-13
3	135320	25.51	-7.10543e-13
3	135866	25.61	-7.10543e-13
3	136412	25.71	-7.10543e-13
3	136958	25.81	-7.10543e-13
3	137504	25.91	-7.10543e-13
3	138058	26.01	-7.10543e-13
3	138604	26.11	-7.10543e-13
3	139150	26.21	-7.10543e-13
3	139696	26.31	-7.10543e-13
3	140242	26.41	0
3	140788	26.51	0
3	141334	26.61	0
3	141880	26.71	0
3	142426	26.81	0
3	142972	26.91	0
3	143526	27.01	0
3	144072	27.11	0
3	144618	27.21	0
3	145164	27.31	0
3	145710	27.41	0
3	146256	27.51	0
3	146802	27.61	0
3	147348	27.71	0
3	147894	27.81	0
3	148440	27.91	0
3	148994	28.01	0
3	149540	28.11	0
3	150086	28.21	0
3	150632	28.31	0
3	151178	28.41	0
3	151724	28.51	0
3	152270	28.61	0
3	152816	28.71	0
3	153362	28.81	0
3	153908	28.91	0
3	154462	29.01	0
3	155008	29.11	0
3	155554	29.21	0
3	156100	29.31	0
3	156646	29.41	0
3	157192	29.51	0
3	157738	29.61	0
3	158284	29.71	0
3	158830	29.81	0
3	159376	29.91	0
3	159930	30.01	0
3	160476	30.11	0
3	161022	30.21	0
3	161568	30.31	0
3	162114	30.41	0
3	162660	30.51	0
3	163206	30.61	0
3	163752	30.71	0
3	164298	30.81	0
3	164844	30.91	0
3	165398	31.01	0
3	165944	31.11	0
3	166490	31.21	0
3	167036	31.31	0
3	167582	31.41	0
3	168128	31.51	0
3	168674	31.61	0
3	169220	31.71	0
3	169766	31.81	0
3	170312	31.91	0
3	170866	32.01	0
3	171412	32.11	0
3	171958	32.21	0
3	172504	32.31	0
3	173050	32.41	0
3	173596	32.51	0
3	174142	32.61	0
3	174688	32.71	0
3	175234	32.81	0
3	175780	32.91	0
3	176334	33.01	0
3	176880	33.11	0
3	177426	33.21	0
3	177972	33.31	0
3	178518	33.41	0
3	179064	33.51	0
3	179610	33.61	0
3	180156	33.71	0
3	180702	33.81	0
3	181248	33.91	0
3	181802	34.01	0
3	182348	34.11	0
3	182894	34.21	0
3	183440	34.31	0
3	183986	34.41	0
3	184532	34.51	0
3	185078	34.61	0
3	185624	34.71	0
3	186170	34.81	0
3	186716	34.91	0
3	187270	35.01	0
3	187816	35.11	0
3	188362	35.21	0
3	188908	35.31	0
3	189454	35.41	0
3	190000	35.51	0
3	190546	35.61	0
3	191092	35.71	0
3	191638	35.81	0
3	192184	35.91	0
3	192738	36.01	0
3	193284	36.11	0
3	193830	36.21	0
3	194376	36.31	0
3	194922	36.41	0
3	195468	36.51	0
3	196014	36.61	0
3	196560	36.71	0
3	197106	36.81	0
3	197652	36.91	0
3	198206	37.01	0
3	198752	37.11	0
3	199298	37.21	0
3	199844	37.31	0
3	200390	37.41	0
3	200936	37.51	0
3	201482	37.61	0
3	202028	37.71	0
3	202574	37.81	0
3	203120	37.91	0
3	203674	38.01	0
3	204220	38.11	0
3	204766	38.21	0
3	205312	38.31	0
3	205858	38.41	0
3	206404	38.51	0
3	206950	38.61	0
3	207496	38.71	0
3	208042	38.81	0
3	208588	38.91	0
3	209142	39.01	0
3	209688	39.11	0
3	210234	39.21	0
3	210780	39.31	0
3	211326	39.41	0
3	211872	39.51	0
3	212418	39.61	0
3	212964	39.71	0
3	213510	39.81	0
3	214056	39.91	0
3	214610	40.01	0
3	215156	40.11	0
3	215702	40.21	0
3	216248	40.31	0
3	216794	40.41	0
3	217340	40.51	0
3	217886	40.61	0
3	218432	40.71	0
3	218978	40.81	0
3	219524	40.91	0
3	220078	41.01	0
3	220624	41.11	0
3	221170	41.21	0
3	221716	41.31	0
3	222262	41.41	0
3	222808	41.51	0
3	223354	41.61	0
3	223900	41.71	0
3	224446	41.81	0
3	224992	41.91	0
3	225546	42.01	0
3	226092	42.11	0
3	226638	42.21	0
3	227184	42.31	0
3	227730	42.41	0
3	228276	42.51	0
3	228822	42.61	0
3	229368	42.71	0
3	229914	42.81	0
3	230460	42.91	0
3	231014	43.01	0
3	231560	43.11	0
3	232106	43.21	0
3	232652	43.31	0
3	233198	43.41	0
3	233744	43.51	0
3	234290	43.61	0
3	234836	43.71	0
3	235382	43.81	0
3	235928	43.91	0
3	236482	44.01	0
3	237028	44.11	0
3	237574	44.21	0
3	238120	44.31	0
3	238666	44.41	0
3	239212	44.51	0
3	239758	44.61	0
3	240304	44.71	0
3	240850	44.81	0
3	241396	44.91	0
3	241950	45.01	0
3	242496	45.11	0
3	243042	45.21	0
3	243588	45.31	0
3	244134	45.41	0
3	244680	45.51	0
3	245226	45.61	0
3	245772	45.71	0
3	246318	45.81	0
3	246864	45.91	0
3	247418	46.01	0
3	247964	46.11	0
3	248510	46.21	0
3	249056	46.31	0
3	249602	46.41	0
3	250148	46.51	0
3	250694	46.61	0
3	251240	46.71	0
3	251786	46.81	0
3	252332	46.91	0
3	252886	47.01	0
3	253432	47.11	0
3	253978	47.21	0
3	254524	47.31	0
3	255070	47.41	0
3	255616	47.51	0
3	256162	47.61	0
3	256708	47.71	0
3	257254	47.81	0
3	257800	47.91	0
3	258354	48.01	0
3	258900	48.11	0
3	259446	48.21	0
3	259992	48.31	0
3	260538	48.41	0
3	261084	48.51	0
3	261630	48.61	0
3	262176	48.71	0
3	262722	48.81	0
3	263268	48.91	0
3	263822	49.01	0
3	264368	49.11	0
3	264914	49.21	0
3	265460	49.31	0
3	266006	49.41	0
3	266552	49.51	0
3	267098	49.61	0
3	267644	49.71	0
3	268190	49.81	0
3	268736	49.91	0
3	269290	50.01	0
3	269836	50.11	0
3	270382	50.21	0
3	270928	50.31	0
3	271474	50.41	0
3	272020	50.51	0
3	272566	50.61	0
3	273112	50.71	0
3	273658	50.81	0
3	274204	50.91	0
3	274758	51.01	0
3	275304	51.11	0
3	275850	51.21	0
3	276396	51.31	0
3	276942	51.41	0
3	277488	51.51	0
3	278034	51.61	0
3	278580	51.71	0
3	279126	51.81	0
3	279672	51.91	0
3	280226	52.01	0
3	280772	52.11	0
3	281318	52.21	0
3	281864	52.31	0
3	282410	52.41	0
3	282956	52.51	0
3	283502	52.61	0
3	284048	52.71	0
3	284594	52.81	0
3	285140	52.91	0
3	285694	53.01	0
3	286240	53.11	0
3	286786	53.21	0
3	287332	53.31	0
3	287878	53.41	0
3	288424	53.51	0
3	288970	53.61	0
3	289516	53.71	0
3	290062	53.81	0
3	290608	53.91	0
3	291162	54.01	0
3	291708	54.11	0
3	292254	54.21	0
3	292800	54.31	0
3	293346	54.41	0
3	293892	54.51	0
3	294438	54.61	0
3	294984	54.71	0
3	295530	54.81	0
3	296076	54.91	0
3	296630	55.01	0
3	297176	55.11	0
3	297722	55.21	0
3	298268	55.31	0
3	298814	55.41	0
3	299360	55.51	0
3	299906	55.61	0
3	300452	55.71	0
3	300998	55.81	0
3	301544	55.91	0
3	302098	56.01	0
3	302644	56.11	0
3	303190	56.21	0
3	303736	56.31	0
3	304282	56.41	0
3	304828	56.51	0
3	305374	56.61	0
3	305920	56.71	0
3	306466	56.81	0
3	307012	56.91	0
3	307566	57.01	0
3	308112	57.11	0
3	308658	57.21	0
3	309204	57.31	0
3	309750	57.41	0
3	310296	57.51	0
3	310842	57.61	0
3	311388	57.71	0
3	311934	57.81	0
3	312480	57.91	0
3	313034	58.01	0
3	313580	58.11	0
3	314126	58.21	0
3	314672	58.31	0
3	315218	58.41	0
3	315764	58.51	0
3	316310	58.61	0
3	316856	58.71	0
3	317402	58.81	0
3	317948	58.91	0
3	318502	59.01	0
3	319048	59.11	0
3	319594	59.21	0
3	320140	59.31	0
3	320686	59.41	0
3	321232	59.51	0
3	321778	59.61	0
3	322324	59.71	0
3	322870	59.81	0
3	323416	59.91	0
3	323970	60.01	0
3	324516	60.11	0
3	325062	60.21	0
3	325608	60.31	0
3	326154	60.41	0
3	326700	60.51	0
3	327246	60.61	0
3	327792	60.71	0
3	328338	60.81	0
3	328884	60.91	0
3	329438	61.01	0
3	329984	61.11	0
3	330530	61.21	0
3	331076	61.31	0
3	331622	61.41	0
3	332168	61.51	0
3	332714	61.61	0
3	333260	61.71	0
3	333806	61.81	0
3	334352	61.91	0
3	334906	62.01	0
3	335452	62.11	0
3	335998	62.21	0
3	336544	62.31	0
3	337090	62.41	0
3	337636	62.51	0
3	338182	62.61	0
3	338728	62.71	0
3	339274	62.81	0
3	339820	62.91	0
3	340374	63.01	0
3	340920	63.11	0
3	341466	63.21	0
3	342012	63.31	0
3	342558	63.41	0
3	343104	63.51	0
3	343650	63.61	0
3	344196	63.71	0
3	344742	63.81	0
3	345288	63.91	0
3	345842	64.01	0
3	346388	64.11	0
3	346934	64.21	0
3	347480	64.31	0
3	348026	64.41	0
3	348572	64.51	0
3	349118	64.61	0
3	349664	64.71	0
3	350210	64.81	0
3	350756	64.91	0
3	351310	65.01	0
3	351856	65.11	0
3	352402	65.21	0
3	352948	65.31	0
3	353494	65.41	0
3	354040	65.51	0
3	354586	65.61	0
3	355132	65.71	0
3	355678	65.81	0
3	356224	65.91	0
3	356778	66.01	0
3	357324	66.11	0
3	357870	66.21	0
3	358416	66.31	0
3	358962	66.41	0
3	359508	66.51	0
3	360054	66.61	0
3	360600	66.71	0
3	361146	66.81	0
3	361692	66.91	0
3	362246	67.01	0
3	362792	67.11	0
3	363338	67.21	0
3	363884	67.31	0
3	364430	67.41	0
3	364976	67.51	0
3	365522	67.61	0
3	366068	67.71	0
3	366614	67.81	0
3	367160	67.91	0
3	367714	68.01	0
3	368260	68.11	0
3	368806	68.21	0
3	369352	68.31	0
3	369898	68.41	0
3	370444	68.51	0
3	370990	68.61	0
3	371536	68.71	0
3	372082	68.81	0
3	372628	68.91	0
3	373182	69.01	0
3	373728	69.11	0
3	374274	69.21	0
3	374820	69.31	0
3	375366	69.41	0
3	375912	69.51	0
3	376458	69.61	0
3	377004	69.71	0
3	377550	69.81	0
3	378096	69.91	0
3	378650	70.01	0
3	379196	70.11	0
3	379742	70.21	0
3	380288	70.31	0
3	380834	70.41	0
3	381380	70.51	0
3	381926	70.61	0
3	382472	70.71	0
3	383018	70.81	0
3	383564	70.91	0
3	384118	71.01	0
3	384664	71.11	0
3	385210	71.21	0
3	385756	71.31	0
3	386302	71.41	0
3	386848	71.51	0
3	387394	71.61	0
3	387940	71.71	0
3	388486	71.81	0
3	389032	71.91	0
3	389586	72.01	0
3	390132	72.11	0
3	390678	72.21	0
3	391224	72.31	0
3	391770	72.41	0
3	392316	72.51	0
3	392862	72.61	0
3	393408	72.71	0
3	393954	72.81	0
3	394500	72.91	0
3	395054	73.01	0
3	395600	73.11	0
3	396146	73.21	0
3	396692	73.31	0
3	397238	73.41	0
3	397784	73.51	0
3	398330	73.61	0
3	398876	73.71	0
3	399422	73.81	0
3	399968	73.91	0
3	400522	74.01	0
3	401068	74.11	0
3	401614	74.21	0
3	402160	74.31	0
3	402706	74.41	0
3	403252	74.51	0
3	403798	74.61	0
3	404344	74.71	0
3	404890	74.81	0
3	405436	74.91	0
3	405990	75.01	0
3	406536	75.11	0
3	407082	75.21	0
3	407628	75.31	0
3	408174	75.41	0
3	408720	75.51	0
3	409266	75.61	0
3	409812	75.71	0
3	410358	75.81	0
3	410904	75.91	0
3	411458	76.01	0
3	412004	76.11	0
3	412550	76.21	0
3	413096	76.31	0
3	413642	76.41	0
3	414188	76.51	0
3	414734	76.61	0
3	415280	76.71	0
3	415826	76.81	0
3	416372	76.91	0
3	416926	77.01	0
3	417472	77.11	0
3	418018	77.21	0
3	418564	77.31	0
3	419110	77.41	0
3	419656	77.51	0
3	420202	77.61	0
3	420748	77.71	0
3	421294	77.81	0
3	421840	77.91	0
3	422394	78.01	0
3	422940	78.11	0
3	423486	78.21	0
3	424032	78.31	0
3	424578	78.41	0
3	425124	78.51	0
3	425670	78.61	0
3	426216	78.71	0
3	426762	78.81	0
3	427308	78.91	0
3	427862	79.01	0
3	428408	79.11	0
3	428954	79.21	0
3	429500	79.31	0
3	430046	79.41	0
3	430592	79.51	0
3	431138	79.61	0
3	431684	79.71	0
3	432230	79.81	0
3	432776	79.91	0
3	433330	80.01	0
3	433876	80.11	0
3	434422	80.21	0
3	434968	80.31	0
3	435514	80.41	0
3	436060	80.51	0
3	436606	80.61	0
3	437152	80.71	0
3	437698	80.81	0
3	438244	80.91	0
3	438798	81.01	0
3	439344	81.11	0
3	439890	81.21	0
3	440436	81.31	0
3	440982	81.41	0
3	441528	81.51	0
3	442074	81.61	0
3	442620	81.71	0
3	443166	81.81	0
3	443712	81.91	0
3	444266	82.01	0
3	444812	82.11	0
3	445358	82.21	0
3	445904	82.31	0
3	446450	82.41	0
3	446996	82.51	0
3	447542	82.61	0
3	448088	82.71	0
3	448634	82.81	0
3	449180	82.91	0
3	449734	83.01	0
3	450280	83.11	0
3	450826	83.21	0
3	451372	83.31	0
3	451918	83.41	0
3	452464	83.51	0
3	453010	83.61	0
3	453556	83.71	0
3	454102	83.81	0
3	454648	83.91	0
3	455202	84.01	0
3	455748	84.11	0
3	456294	84.21	0
3	456840	84.31	0
3	457386	84.41	0
3	457932	84.51	0
3	458478	84.61	0
3	459024	84.71	0
3	459570	84.81	0
3	460116	84.91	0
3	460670	85.01	0
3	461216	85.11	0
3	461762	85.21	0
3	462308	85.31	0
3	462854	85.41	0
3	463400	85.51	0
3	463946	85.61	0
3	464492	85.71	0
3	465038	85.81	0
3	465584	85.91	0
3	466138	86.01	0
3	466684	86.11	0
3	467230	86.21	0
3	467776	86.31	0
3	468322	86.41	0
3	468868	86.51	0
3	469414	86.61	0
3	469960	86.71	0
3	470506	86.81	0
3	471052	86.91	0
3	471606	87.01	0
3	472152	87.11	0
3	472698	87.21	0
3	473244	87.31	0
3	473790	87.41	0
3	474336	87.51	0
3	474882	87.61	0
3	475428	87.71	0
3	475974	87.81	0
3	476520	87.91	0
3	477074	88.01	0
3	477620	88.11	0
3	478166	88.21	0
3	478712	88.31	0
3	479258	88.41	0
3	479804	88.51	0
3	480350	88.61	0
3	480896	88.71	0
3	481442	88.81	0
3	481988	88.91	0
3	482542	89.01	0
3	483088	89.11	0
3	483634	89.21	0
3	484180	89.31	0
3	484726	89.41	0
3	485272	89.51	0
3	485818	89.61	0
3	486364	89.71	0
3	486910	89.81	0
3	487456	89.91	0
3	488010	90.01	0
3	488556	90.11	0
3	489102	90.21	0
3	489648	90.31	0
3	490194	90.41	0
3	490740	90.51	0
3	491286	90.61	0
3	491832	90.71	0
3	492378	90.81	0
3	492924	90.91	0
3	493478	91.01	0
3	494024	91.11	0
3	494570	91.21	0
3	495116	91.31	0
3	495662	91.41	0
3	496208	91.51	0
3	496754	91.61	0
3	497300	91.71	0
3	497846	91.81	0
3	498392	91.91	0
3	498946	92.01	0
3	499492	92.11	0
3	500038	92.21	0
3	500584	92.31	0
3	501130	92.41	0
3	501676	92.51	0
3	502222	92.61	0
3	502768	92.71	0
3	503314	92.81	0
3	503860	92.91	0
3	504414	93.01	0
3	504960	93.11	0
3	505506	93.21	0
3	506052	93.31	0
3	506598	93.41	0
3	507144	93.51	0
3	507690	93.61	0
[...]
104	394983	73	4
104	400451	74	4
104	405919	75	4
104	411387	76	4
104	416855	77	4
104	422323	78	4
104	427791	79	4
104	433259	80	4
104	438727	81	4
104	444195	82	4
104	449663	83	4
104	455131	84	4
104	460599	85	4
104	466067	86	4
104	471535	87	4
104	477003	88	4
104	482471	89	4
104	487939	90	4
104	493407	91	4
104	498875	92	4
104	504343	93	4
104	509811	94	4
104	515279	95	4
104	520747	96	4
104	526215	97	4
104	531683	98	4
104	537151	99	4
104	542619	100	4
105	4964	2	0.022161
105	10432	3	0.02497
105	15900	4	0.02497
105	21368	5	0.02497
105	26836	6	0.02497
105	32304	7	0.02497
105	37772	8	0.02497
105	43240	9	0.02497
105	48709	10	0.02497
105	55967	11	0.026902440289
105	61435	12	0.02497
105	66903	13	0.02497
105	72371	14	0.02497
105	77839	15	0.02497
105	83307	16	0.02497
105	88775	17	0.02497
105	94243	18	0.02497
105	99711	19	0.02497
105	105179	20	0.02497
105	110647	21	0.02497
105	116115	22	0.02497
105	121583	23	0.02497
105	127051	24	0.02497
105	132519	25	0.02497
105	137987	26	0.02497
105	143455	27	0.02497
105	148923	28	0.02497
105	154391	29	0.02497
105	159859	30	0.02497
105	165327	31	0.02497
105	170795	32	0.02497
105	176263	33	0.02497
105	181731	34	0.02497
105	187199	35	0.02497
105	192667	36	0.02497
105	198135	37	0.02497
105	203603	38	0.02497
105	209071	39	0.02497
105	214539	40	0.02497
105	220007	41	0.02497
105	225475	42	0.02497
105	230943	43	0.02497
105	236411	44	0.02497
105	241879	45	0.02497
105	247347	46	0.02497
105	252815	47	0.02497
105	258283	48	0.02497
105	263751	49	0.02497
105	269219	50	0.02497
105	274687	51	0.02497
105	280155	52	0.02497
105	285623	53	0.02497
105	291091	54	0.02497
105	296559	55	0.02497
105	302027	56	0.02497
105	307495	57	0.02497
105	312963	58	0.02497
105	318431	59	0.02497
105	323899	60	0.02497
105	329367	61	0.02497
105	334835	62	0.02497
105	340303	63	0.02497
105	345771	64	0.02497
105	351239	65	0.02497
105	356707	66	0.02497
105	362175	67	0.02497
105	367643	68	0.02497
105	373111	69	0.02497
105	378579	70	0.02497
105	384047	71	0.02497
105	389515	72	0.02497
105	394983	73	0.02497
105	400451	74	0.02497
105	405919	75	0.02497
105	411387	76	0.02497
105	416855	77	0.02497
105	422323	78	0.02497
105	427791	79	0.02497
105	433259	80	0.02497
105	438727	81	0.02497
105	444195	82	0.02497
105	449663	83	0.02497
105	455131	84	0.02497
105	460599	85	0.02497
105	466067	86	0.02497
105	471535	87	0.02497
105	477003	88	0.02497
105	482471	89	0.02497
105	487939	90	0.02497
105	493407	91	0.02497
105	498875	92	0.02497
105	504343	93	0.02497
105	509811	94	0.02497
105	515279	95	0.02497
105	520747	96	0.02497
105	526215	97	0.02497
105	531683	98	0.02497
105	537151	99	0.02497
105	542619	100	0.02497
106	4964	2	0
106	10432	3	0
106	15900	4	0
106	21368	5	0
106	26836	6	0
106	32304	7	0
106	37772	8	0
106	43240	9	0
106	48709	10	0
106	55967	11	0
106	61435	12	0
106	66903	13	0
106	72371	14	0
106	77839	15	0
106	83307	16	0
106	88775	17	0
106	94243	18	0
106	99711	19	0
106	105179	20	0
106	110647	21	0
106	116115	22	0
106	121583	23	0
106	127051	24	0
106	132519	25	0
106	137987	26	0
106	143455	27	0
106	148923	28	0
106	154391	29	0
106	159859	30	0
106	165327	31	0
106	170795	32	0
106	176263	33	0
106	181731	34	0
106	187199	35	0
106	192667	36	0
106	198135	37	0
106	203603	38	0
106	209071	39	0
106	214539	40	0
106	220007	41	0
106	225475	42	0
106	230943	43	0
106	236411	44	0
106	241879	45	0
106	247347	46	0
106	252815	47	0
106	258283	48	0
106	263751	49	0
106	269219	50	0
106	274687	51	0
106	280155	52	0
106	285623	53	0
106	291091	54	0
106	296559	55	0
106	302027	56	0
106	307495	57	0
106	312963	58	0
106	318431	59	0
106	323899	60	0
106	329367	61	0
106	334835	62	0
106	340303	63	0
106	345771	64	0
106	351239	65	0
106	356707	66	0
106	362175	67	0
106	367643	68	0
106	373111	69	0
106	378579	70	0
106	384047	71	0
106	389515	72	0
106	394983	73	0
106	400451	74	0
106	405919	75	0
106	411387	76	0
106	416855	77	0
106	422323	78	0
106	427791	79	0
106	433259	80	0
106	438727	81	0
106	444195	82	0
106	449663	83	0
106	455131	84	0
106	460599	85	0
106	466067	86	0
106	471535	87	0
106	477003	88	0
106	482471	89	0
106	487939	90	0
106	493407	91	0
106	498875	92	0
106	504343	93	0
106	509811	94	0
106	515279	95	0
106	520747	96	0
106	526215	97	0
106	531683	98	0
106	537151	99	0
106	542619	100	0
107	4965	2	5
107	10433	3	5
107	15901	4	5
107	21369	5	5
107	26837	6	5
107	32305	7	5
107	37773	8	5
107	43241	9	5
107	48710	10	5
107	55968	11	5
107	61436	12	5
107	66904	13	5
107	72372	14	5
107	77840	15	5
107	83308	16	5
107	88776	17	5
107	94244	18	5
107	99712	19	5
107	105180	20	5
107	110648	21	5
107	116116	22	5
107	121584	23	5
107	127052	24	5
107	132520	25	5
107	137988	26	5
107	143456	27	5
107	148924	28	5
107	154392	29	5
107	159860	30	5
107	165328	31	5
107	170796	32	5
107	176264	33	5
107	181732	34	5
107	187200	35	5
107	192668	36	5
107	198136	37	5
107	203604	38	5
107	209072	39	5
107	214540	40	5
107	220008	41	5
107	225476	42	5
107	230944	43	5
107	236412	44	5
107	241880	45	5
107	247348	46	5
107	252816	47	5
107	258284	48	5
107	263752	49	5
107	269220	50	5
107	274688	51	5
107	280156	52	5
107	285624	53	5
107	291092	54	5
107	296560	55	5
107	302028	56	5
107	307496	57	5
107	312964	58	5
107	318432	59	5
107	323900	60	5
107	329368	61	5
107	334836	62	5
107	340304	63	5
107	345772	64	5
107	351240	65	5
107	356708	66	5
107	362176	67	5
107	367644	68	5
107	373112	69	5
107	378580	70	5
107	384048	71	5
107	389516	72	5
107	394984	73	5
107	400452	74	5
107	405920	75	5
107	411388	76	5
107	416856	77	5
107	422324	78	5
107	427792	79	5
107	433260	80	5
107	438728	81	5
107	444196	82	5
107	449664	83	5
107	455132	84	5
107	460600	85	5
107	466068	86	5
107	471536	87	5
107	477004	88	5
107	482472	89	5
107	487940	90	5
107	493408	91	5
107	498876	92	5
107	504344	93	5
107	509812	94	5
107	515280	95	5
107	520748	96	5
107	526216	97	5
107	531684	98	5
107	537152	99	5
107	542620	100	5
108	4965	2	0.022161
108	10433	3	0.02497
108	15901	4	0.02497
108	21369	5	0.02497
108	26837	6	0.02497
108	32305	7	0.02497
108	37773	8	0.02497
108	43241	9	0.02497
108	48710	10	0.02497
108	55968	11	0.026935440284
108	61436	12	0.02497
108	66904	13	0.02497
108	72372	14	0.02497
108	77840	15	0.02497
108	83308	16	0.02497
108	88776	17	0.02497
108	94244	18	0.02497
108	99712	19	0.02497
108	105180	20	0.02497
108	110648	21	0.02497
108	116116	22	0.02497
108	121584	23	0.02497
108	127052	24	0.02497
108	132520	25	0.02497
108	137988	26	0.02497
108	143456	27	0.02497
108	148924	28	0.02497
108	154392	29	0.02497
108	159860	30	0.02497
108	165328	31	0.02497
108	170796	32	0.02497
108	176264	33	0.02497
108	181732	34	0.02497
108	187200	35	0.02497
108	192668	36	0.02497
108	198136	37	0.02497
108	203604	38	0.02497
108	209072	39	0.02497
108	214540	40	0.02497
108	220008	41	0.02497
108	225476	42	0.02497
108	230944	43	0.02497
108	236412	44	0.02497
108	241880	45	0.02497
108	247348	46	0.02497
108	252816	47	0.02497
108	258284	48	0.02497
108	263752	49	0.02497
108	269220	50	0.02497
108	274688	51	0.02497
108	280156	52	0.02497
108	285624	53	0.02497
108	291092	54	0.02497
108	296560	55	0.02497
108	302028	56	0.02497
108	307496	57	0.02497
108	312964	58	0.02497
108	318432	59	0.02497
108	323900	60	0.02497
108	329368	61	0.02497
108	334836	62	0.02497
108	340304	63	0.02497
108	345772	64	0.02497
108	351240	65	0.02497
108	356708	66	0.02497
108	362176	67	0.02497
108	367644	68	0.02497
108	373112	69	0.02497
108	378580	70	0.02497
108	384048	71	0.02497
108	389516	72	0.02497
108	394984	73	0.02497
108	400452	74	0.02497
108	405920	75	0.02497
108	411388	76	0.02497
108	416856	77	0.02497
108	422324	78	0.02497
108	427792	79	0.02497
108	433260	80	0.02497
108	438728	81	0.02497
108	444196	82	0.02497
108	449664	83	0.02497
108	455132	84	0.02497
108	460600	85	0.02497
108	466068	86	0.02497
108	471536	87	0.02497
108	477004	88	0.02497
108	482472	89	0.02497
108	487940	90	0.02497
108	493408	91	0.02497
108	498876	92	0.02497
108	504344	93	0.02497
108	509812	94	0.02497
108	515280	95	0.02497
108	520748	96	0.02497
108	526216	97	0.02497
108	531684	98	0.02497
108	537152	99	0.02497
108	542620	100	0.02497
109	4965	2	0
109	10433	3	0
109	15901	4	0
109	21369	5	0
109	26837	6	0
109	32305	7	0
109	37773	8	0
109	43241	9	0
109	48710	10	0
109	55968	11	0
109	61436	12	0
109	66904	13	0
109	72372	14	0
109	77840	15	0
109	83308	16	0
109	88776	17	0
109	94244	18	0
109	99712	19	0
109	105180	20	0
109	110648	21	0
109	116116	22	0
109	121584	23	0
109	127052	24	0
109	132520	25	0
109	137988	26	0
109	143456	27	0
109	148924	28	0
109	154392	29	0
109	159860	30	0
109	165328	31	0
109	170796	32	0
109	176264	33	0
109	181732	34	0
109	187200	35	0
109	192668	36	0
109	198136	37	0
109	203604	38	0
109	209072	39	0
109	214540	40	0
109	220008	41	0
109	225476	42	0
109	230944	43	0
109	236412	44	0
109	241880	45	0
109	247348	46	0
109	252816	47	0
109	258284	48	0
109	263752	49	0
109	269220	50	0
109	274688	51	0
109	280156	52	0
109	285624	53	0
109	291092	54	0
109	296560	55	0
109	302028	56	0
109	307496	57	0
109	312964	58	0
109	318432	59	0
109	323900	60	0
109	329368	61	0
109	334836	62	0
109	340304	63	0
109	345772	64	0
109	351240	65	0
109	356708	66	0
109	362176	67	0
109	367644	68	0
109	373112	69	0
109	378580	70	0
109	384048	71	0
109	389516	72	0
109	394984	73	0
109	400452	74	0
109	405920	75	0
109	411388	76	0
109	416856	77	0
109	422324	78	0
109	427792	79	0
109	433260	80	0
109	438728	81	0
109	444196	82	0
109	449664	83	0
109	455132	84	0
109	460600	85	0
109	466068	86	0
109	471536	87	0
109	477004	88	0
109	482472	89	0
109	487940	90	0
109	493408	91	0
109	498876	92	0
109	504344	93	0
109	509812	94	0
109	515280	95	0
109	520748	96	0
109	526216	97	0
109	531684	98	0
109	537152	99	0
109	542620	100	0
110	4966	2	6
110	10434	3	6
110	15902	4	6
110	21370	5	6
110	26838	6	6
110	32306	7	6
110	37774	8	6
110	43242	9	6
110	48711	10	6
110	55969	11	6
110	61437	12	6
110	66905	13	6
110	72373	14	6
110	77841	15	6
110	83309	16	6
110	88777	17	6
110	94245	18	6
110	99713	19	6
110	105181	20	6
110	110649	21	6
110	116117	22	6
110	121585	23	6
110	127053	24	6
110	132521	25	6
110	137989	26	6
110	143457	27	6
110	148925	28	6
110	154393	29	6
110	159861	30	6
110	165329	31	6
110	170797	32	6
110	176265	33	6
110	181733	34	6
110	187201	35	6
110	192669	36	6
110	198137	37	6
110	203605	38	6
110	209073	39	6
110	214541	40	6
110	220009	41	6
110	225477	42	6
110	230945	43	6
110	236413	44	6
110	241881	45	6
110	247349	46	6
110	252817	47	6
110	258285	48	6
110	263753	49	6
110	269221	50	6
110	274689	51	6
110	280157	52	6
110	285625	53	6
110	291093	54	6
110	296561	55	6
110	302029	56	6
110	307497	57	6
110	312965	58	6
110	318433	59	6
110	323901	60	6
110	329369	61	6
110	334837	62	6
110	340305	63	6
110	345773	64	6
110	351241	65	6
110	356709	66	6
110	362177	67	6
110	367645	68	6
110	373113	69	6
110	378581	70	6
110	384049	71	6
110	389517	72	6
110	394985	73	6
110	400453	74	6
110	405921	75	6
110	411389	76	6
110	416857	77	6
110	422325	78	6
110	427793	79	6
110	433261	80	6
110	438729	81	6
110	444197	82	6
110	449665	83	6
110	455133	84	6
110	460601	85	6
110	466069	86	6
110	471537	87	6
110	477005	88	6
110	482473	89	6
110	487941	90	6
110	493409	91	6
110	498877	92	6
110	504345	93	6
110	509813	94	6
110	515281	95	6
110	520749	96	6
110	526217	97	6
110	531685	98	6
110	537153	99	6
110	542621	100	6
111	4966	2	0.022161
111	10434	3	0.02497
111	15902	4	0.02497
111	21370	5	0.02497
111	26838	6	0.02497
111	32306	7	0.02497
111	37774	8	0.02497
111	43242	9	0.02497
111	48711	10	0.02497
111	55969	11	0.026842280185
111	61437	12	0.02497
111	66905	13	0.02497
111	72373	14	0.02497
111	77841	15	0.02497
111	83309	16	0.02497
111	88777	17	0.02497
111	94245	18	0.02497
111	99713	19	0.02497
111	105181	20	0.02497
111	110649	21	0.02497
111	116117	22	0.02497
111	121585	23	0.02497
111	127053	24	0.02497
111	132521	25	0.02497
111	137989	26	0.02497
111	143457	27	0.02497
111	148925	28	0.02497
111	154393	29	0.02497
111	159861	30	0.02497
111	165329	31	0.02497
111	170797	32	0.02497
111	176265	33	0.02497
111	181733	34	0.02497
111	187201	35	0.02497
111	192669	36	0.02497
111	198137	37	0.02497
111	203605	38	0.02497
111	209073	39	0.02497
111	214541	40	0.02497
111	220009	41	0.02497
111	225477	42	0.02497
111	230945	43	0.02497
111	236413	44	0.02497
111	241881	45	0.02497
111	247349	46	0.02497
111	252817	47	0.02497
111	258285	48	0.02497
111	263753	49	0.02497
111	269221	50	0.02497
111	274689	51	0.02497
111	280157	52	0.02497
111	285625	53	0.02497
111	291093	54	0.02497
111	296561	55	0.02497
111	302029	56	0.02497
111	307497	57	0.02497
111	312965	58	0.02497
111	318433	59	0.02497
111	323901	60	0.02497
111	329369	61	0.02497
111	334837	62	0.02497
111	340305	63	0.02497
111	345773	64	0.02497
111	351241	65	0.02497
111	356709	66	0.02497
111	362177	67	0.02497
111	367645	68	0.02497
111	373113	69	0.02497
111	378581	70	0.02497
111	384049	71	0.02497
111	389517	72	0.02497
111	394985	73	0.02497
111	400453	74	0.02497
111	405921	75	0.02497
111	411389	76	0.02497
111	416857	77	0.02497
111	422325	78	0.02497
111	427793	79	0.02497
111	433261	80	0.02497
111	438729	81	0.02497
111	444197	82	0.02497
111	449665	83	0.02497
111	455133	84	0.02497
111	460601	85	0.02497
111	466069	86	0.02497
111	471537	87	0.02497
111	477005	88	0.02497
111	482473	89	0.02497
111	487941	90	0.02497
111	493409	91	0.02497
111	498877	92	0.02497
111	504345	93	0.02497
111	509813	94	0.02497
111	515281	95	0.02497
111	520749	96	0.02497
111	526217	97	0.02497
111	531685	98	0.02497
111	537153	99	0.02497
111	542621	100	0.02497
112	4966	2	0
112	10434	3	0
112	15902	4	0
112	21370	5	0
112	26838	6	0
112	32306	7	0
112	37774	8	0
112	43242	9	0
112	48711	10	0
112	55969	11	0
112	61437	12	0
112	66905	13	0
112	72373	14	0
112	77841	15	0
112	83309	16	0
112	88777	17	0
112	94245	18	0
112	99713	19	0
112	105181	20	0
112	110649	21	0
112	116117	22	0
112	121585	23	0
112	127053	24	0
112	132521	25	0
112	137989	26	0
112	143457	27	0
112	148925	28	0
112	154393	29	0
112	159861	30	0
112	165329	31	0
112	170797	32	0
112	176265	33	0
112	181733	34	0
112	187201	35	0
112	192669	36	0
112	198137	37	0
112	203605	38	0
112	209073	39	0
112	214541	40	0
112	220009	41	0
112	225477	42	0
112	230945	43	0
112	236413	44	0
112	241881	45	0
112	247349	46	0
112	252817	47	0
112	258285	48	0
112	263753	49	0
112	269221	50	0
112	274689	51	0
112	280157	52	0
112	285625	53	0
112	291093	54	0
112	296561	55	0
112	302029	56	0
112	307497	57	0
112	312965	58	0
112	318433	59	0
112	323901	60	0
112	329369	61	0
112	334837	62	0
112	340305	63	0
112	345773	64	0
112	351241	65	0
112	356709	66	0
112	362177	67	0
112	367645	68	0
112	373113	69	0
112	378581	70	0
112	384049	71	0
112	389517	72	0
112	394985	73	0
112	400453	74	0
112	405921	75	0
112	411389	76	0
112	416857	77	0
112	422325	78	0
112	427793	79	0
112	433261	80	0
112	438729	81	0
112	444197	82	0
112	449665	83	0
112	455133	84	0
112	460601	85	0
112	466069	86	0
112	471537	87	0
112	477005	88	0
112	482473	89	0
112	487941	90	0
112	493409	91	0
112	498877	92	0
112	504345	93	0
112	509813	94	0
112	515281	95	0
112	520749	96	0
112	526217	97	0
112	531685	98	0
112	537153	99	0
112	542621	100	0
113	4967	2	7
113	10435	3	7
113	15903	4	7
113	21371	5	7
113	26839	6	7
113	32307	7	7
113	37775	8	7
113	43243	9	7
113	48712	10	7
113	55970	11	7
113	61438	12	7
113	66906	13	7
113	72374	14	7
113	77842	15	7
113	83310	16	7
113	88778	17	7
113	94246	18	7
113	99714	19	7
113	105182	20	7
113	110650	21	7
113	116118	22	7
113	121586	23	7
113	127054	24	7
113	132522	25	7
113	137990	26	7
113	143458	27	7
113	148926	28	7
113	154394	29	7
113	159862	30	7
113	165330	31	7
113	170798	32	7
113	176266	33	7
113	181734	34	7
113	187202	35	7
113	192670	36	7
113	198138	37	7
113	203606	38	7
113	209074	39	7
113	214542	40	7
113	220010	41	7
113	225478	42	7
113	230946	43	7
113	236414	44	7
113	241882	45	7
113	247350	46	7
113	252818	47	7
113	258286	48	7
113	263754	49	7
113	269222	50	7
113	274690	51	7
113	280158	52	7
113	285626	53	7
113	291094	54	7
113	296562	55	7
113	302030	56	7
113	307498	57	7
113	312966	58	7
113	318434	59	7
113	323902	60	7
113	329370	61	7
113	334838	62	7
113	340306	63	7
113	345774	64	7
113	351242	65	7
113	356710	66	7
113	362178	67	7
113	367646	68	7
113	373114	69	7
113	378582	70	7
113	384050	71	7
113	389518	72	7
113	394986	73	7
113	400454	74	7
113	405922	75	7
113	411390	76	7
113	416858	77	7
113	422326	78	7
113	427794	79	7
113	433262	80	7
113	438730	81	7
113	444198	82	7
113	449666	83	7
113	455134	84	7
113	460602	85	7
113	466070	86	7
113	471538	87	7
113	477006	88	7
113	482474	89	7
113	487942	90	7
113	493410	91	7
113	498878	92	7
113	504346	93	7
113	509814	94	7
113	515282	95	7
113	520750	96	7
113	526218	97	7
113	531686	98	7
113	537154	99	7
113	542622	100	7
114	4967	2	0.022161
114	10435	3	0.02497
114	15903	4	0.02497
114	21371	5	0.02497
114	26839	6	0.02497
114	32307	7	0.02497
114	37775	8	0.02497
114	43243	9	0.02497
114	48712	10	0.02497
114	55970	11	0.026875360235
114	61438	12	0.02497
114	66906	13	0.02497
114	72374	14	0.02497
114	77842	15	0.02497
114	83310	16	0.02497
114	88778	17	0.02497
114	94246	18	0.02497
114	99714	19	0.02497
114	105182	20	0.02497
114	110650	21	0.02497
114	116118	22	0.02497
114	121586	23	0.02497
114	127054	24	0.02497
114	132522	25	0.02497
114	137990	26	0.02497
114	143458	27	0.02497
114	148926	28	0.02497
114	154394	29	0.02497
114	159862	30	0.02497
114	165330	31	0.02497
114	170798	32	0.02497
114	176266	33	0.02497
114	181734	34	0.02497
114	187202	35	0.02497
114	192670	36	0.02497
114	198138	37	0.02497
114	203606	38	0.02497
114	209074	39	0.02497
114	214542	40	0.02497
114	220010	41	0.02497
114	225478	42	0.02497
114	230946	43	0.02497
114	236414	44	0.02497
114	241882	45	0.02497
114	247350	46	0.02497
114	252818	47	0.02497
114	258286	48	0.02497
114	263754	49	0.02497
114	269222	50	0.02497
114	274690	51	0.02497
114	280158	52	0.02497
114	285626	53	0.02497
114	291094	54	0.02497
114	296562	55	0.02497
114	302030	56	0.02497
114	307498	57	0.02497
114	312966	58	0.02497
114	318434	59	0.02497
114	323902	60	0.02497
114	329370	61	0.02497
114	334838	62	0.02497
114	340306	63	0.02497
114	345774	64	0.02497
114	351242	65	0.02497
114	356710	66	0.02497
114	362178	67	0.02497
114	367646	68	0.02497
114	373114	69	0.02497
114	378582	70	0.02497
114	384050	71	0.02497
114	389518	72	0.02497
114	394986	73	0.02497
114	400454	74	0.02497
114	405922	75	0.02497
114	411390	76	0.02497
114	416858	77	0.02497
114	422326	78	0.02497
114	427794	79	0.02497
114	433262	80	0.02497
114	438730	81	0.02497
114	444198	82	0.02497
114	449666	83	0.02497
114	455134	84	0.02497
114	460602	85	0.02497
114	466070	86	0.02497
114	471538	87	0.02497
114	477006	88	0.02497
114	482474	89	0.02497
114	487942	90	0.02497
114	493410	91	0.02497
114	498878	92	0.02497
114	504346	93	0.02497
114	509814	94	0.02497
114	515282	95	0.02497
114	520750	96	0.02497
114	526218	97	0.02497
114	531686	98	0.02497
114	537154	99	0.02497
114	542622	100	0.02497
115	4967	2	0
115	10435	3	0
115	15903	4	0
115	21371	5	0
115	26839	6	0
115	32307	7	0
115	37775	8	0
115	43243	9	0
115	48712	10	0
115	55970	11	0
115	61438	12	0
115	66906	13	0
115	72374	14	0
115	77842	15	0
115	83310	16	0
115	88778	17	0
115	94246	18	0
115	99714	19	0
115	105182	20	0
115	110650	21	0
115	116118	22	0
115	121586	23	0
115	127054	24	0
115	132522	25	0
115	137990	26	0
115	143458	27	0
115	148926	28	0
115	154394	29	0
115	159862	30	0
115	165330	31	0
115	170798	32	0
115	176266	33	0
115	181734	34	0
115	187202	35	0
115	192670	36	0
115	198138	37	0
115	203606	38	0
115	209074	39	0
115	214542	40	0
115	220010	41	0
115	225478	42	0
115	230946	43	0
115	236414	44	0
115	241882	45	0
115	247350	46	0
115	252818	47	0
115	258286	48	0
115	263754	49	0
115	269222	50	0
115	274690	51	0
115	280158	52	0
115	285626	53	0
115	291094	54	0
115	296562	55	0
115	302030	56	0
115	307498	57	0
115	312966	58	0
115	318434	59	0
115	323902	60	0
115	329370	61	0
115	334838	62	0
115	340306	63	0
115	345774	64	0
115	351242	65	0
115	356710	66	0
115	362178	67	0
115	367646	68	0
115	373114	69	0
115	378582	70	0
115	384050	71	0
115	389518	72	0
115	394986	73	0
115	400454	74	0
115	405922	75	0
115	411390	76	0
115	416858	77	0
115	422326	78	0
115	427794	79	0
115	433262	80	0
115	438730	81	0
115	444198	82	0
115	449666	83	0
115	455134	84	0
115	460602	85	0
115	466070	86	0
115	471538	87	0
115	477006	88	0
115	482474	89	0
115	487942	90	0
115	493410	91	0
115	498878	92	0
115	504346	93	0
115	509814	94	0
115	515282	95	0
115	520750	96	0
115	526218	97	0
115	531686	98	0
115	537154	99	0
115	542622	100	0

