version 3
run BreakRanksNoGui-29-20240710-06:10:16-237243
attr configname BreakRanksNoGui
attr datetime 20240710-06:10:16
attr datetimef 20240710-061016
attr experiment BreakRanksNoGui
attr inifile omnetpp.ini
attr iterationvars "$nCars=8, $platoonSize=8, $nLanes=1, $ploegH=0.5, $controller=1, $headway=0.1, $leaderHeadway=1.2, $leaderSpeed=150, $breakRanksSafetyDistance=2, $minSpeed=140, $maxSpeed=160, $beaconInterval=0.1, $priority=4, $packetSize=200, $sController=\"CACC\", $0=0, $1=0"
attr iterationvarsd nCars=8/platoonSize=8/nLanes=1/ploegH=0.5/controller=1/headway=0.1/leaderHeadway=1.2/leaderSpeed=150/breakRanksSafetyDistance=2/minSpeed=140/maxSpeed=160/beaconInterval=0.1/priority=4/packetSize=200/sController=CACC/0/0
attr iterationvarsf nCars=8,platoonSize=8,nLanes=1,ploegH=0.5,controller=1,headway=0.1,leaderHeadway=1.2,leaderSpeed=150,breakRanksSafetyDistance=2,minSpeed=140,maxSpeed=160,beaconInterval=0.1,priority=4,packetSize=200,sController=CACC,0,0-
attr measurement "$nCars=8, $platoonSize=8, $nLanes=1, $ploegH=0.5, $controller=1, $headway=0.1, $leaderHeadway=1.2, $leaderSpeed=150, $breakRanksSafetyDistance=2, $minSpeed=140, $maxSpeed=160, $beaconInterval=0.1, $priority=4, $packetSize=200, $sController=\"CACC\", $0=0, $1=0"
attr network Highway
attr processid 237243
attr repetition 9
attr replication #9
attr resultdir results
attr runnumber 29
attr seedset 9
itervar beaconInterval 0.1
itervar breakRanksSafetyDistance 2
itervar controller 1
itervar headway 0.1
itervar leaderHeadway 1.2
itervar leaderSpeed 150
itervar maxSpeed 160
itervar minSpeed 140
itervar nCars 8
itervar nLanes 1
itervar packetSize 200
itervar platoonSize 8
itervar ploegH 0.5
itervar priority 4
itervar sController "\"CACC\""
config image-path ../../../veins/images
config repeat 10
config extends BreakRanks
config *.manager.command "\"sumo\""
config *.manager.ignoreGuiCommands true
config output-vector-file results/BreakRanks_1_0.1_150_2/result_9.vec
config output-scalar-file results/BreakRanks_1_0.1_150_2/result_9.sca
config extends Platooning
config *.node[*].scenario_type "\"BreakRanksScenario\""
config *.manager.command "\"sumo-gui\""
config *.node[*].scenario_type "\"SimpleScenario\""
config cmdenv-express-mode true
config cmdenv-autoflush true
config cmdenv-status-frequency 15s
config num-rngs 6
config network Highway
config debug-on-errors true
config print-undisposed true
config *.playgroundSizeX 65000m
config *.playgroundSizeY 25000m
config *.playgroundSizeZ 50m
config sim-time-limit "100 s"
config *.annotations.draw false
config *.obstacles.debug false
config *.world.useTorus false
config *.world.use2D false
config *.manager.updateInterval 0.01s
config *.manager.host "\"localhost\""
config *.manager.moduleType "\"org.car2x.plexe.PlatoonCar\""
config *.manager.moduleName "\"node\""
config *.manager.moduleDisplayString "\"\""
config *.manager.autoShutdown true
config *.manager.margin 25
config *.connectionManager.sendDirect true
config *.connectionManager.maxInterfDist 2600m
config *.connectionManager.drawMaxIntfDist false
config *.**.nic.mac1609_4.useServiceChannel false
config *.**.nic.mac1609_4.txPower 100mW
config *.**.nic.mac1609_4.bitrate 6Mbps
config *.**.nic.mac1609_4.useAcks true
config *.**.nic.mac1609_4.ackErrorRate 0.0
config *.**.nic.mac1609_4.frameErrorRate 0.0
config *.**.nic.phy80211p.minPowerLevel -94dBm
config *.**.nic.phy80211p.maxTXPower 100mW
config *.**.nic.phy80211p.useNoiseFloor true
config *.**.nic.phy80211p.noiseFloor -95dBm
config *.**.nic.phy80211p.decider "xmldoc(\"config.xml\")"
config *.**.nic.phy80211p.analogueModels "xmldoc(\"config.xml\")"
config *.**.nic.phy80211p.usePropagationDelay true
config *.node[*].mobility.x 0
config *.node[*].mobility.y 0
config *.node[*].mobility.z 1.895
config seed-set 9
config **.seed 9
config *.node[*].prot.rng-0 2
config *.node[*].appl.rng-0 3
config *.node[*].scenario.rng-0 4
config **.traffic.rng-0 5
config *.manager.configFile "\"./sumocfg/freeway.sumo.cfg\""
config *.manager.launchConfig "xmldoc(\"./sumocfg/freeway.launchd.xml\")"
config **.numberOfCars 8
config **.numberOfCarsPerPlatoon 8
config **.numberOfLanes 1
config *.node[*].helper_type "\"PositionHelper\""
config *.node[*].scenario.caccC1 0
config *.node[*].scenario.caccXi 0
config *.node[*].scenario.caccOmegaN "0.2 Hz"
config *.node[*].scenario.caccSpacing "2 m"
config *.node[*].scenario.engineTau "0.5 s"
config *.node[*].scenario.ploegH 0.5s
config *.node[*].scenario.ploegKp 0.2
config *.node[*].scenario.ploegKd 0.7
config *.node[*].scenario.useRealisticEngine false
config *.node[*].scenario.useControllerAcceleration true
config *.node[*].scenario.nLanes 1
config **.numericController 1
config **.headway 0.1s
config *.node[*].scenario.accHeadway 0.1s
config *.node[*].scenario.leaderHeadway 1.2s
config *.node[*].scenario.leaderSpeed 150kmph
config *.node[*].appl_type "\"SimplePlatooningApp\""
config *.node[*].appl.*.scalar-recording true
config *.node[*].appl.*.vector-recording true
config *.node[0].appl.breakRanksSafetyDistance 2m
config *.node[*].appl.minSpeed 140kmph
config *.node[*].appl.maxSpeed 160kmph
config *.node[*].protocol_type "\"SimplePlatooningBeaconing\""
config *.node[*].prot.*.scalar-recording true
config *.node[*].prot.*.vector-recording true
config *.node[*].prot.beaconingInterval 0.1s
config *.node[*].prot.priority 4
config *.node[*].prot.packetSize 200
config **.traffic_type "\"PlatoonsTrafficManager\""
config **.traffic.platoonInsertTime "1 s"
config **.traffic.platoonInsertSpeed 150kmph
config **.traffic.nCars 8
config **.traffic.platoonSize 8
config **.traffic.nLanes 1
config **.traffic.platooningVType "\"vtypeauto\""
config **.traffic.controller "\"CACC\""
config **.traffic.platoonInsertDistance 0m
config **.traffic.platoonInsertHeadway 0s
config **.traffic.platoonLeaderHeadway 1.2s
config **.scalar-recording false
config **.vector-recording false

vector 0 Highway.node[0].appl distance ETV
vector 1 Highway.node[0].appl relativeSpeed ETV
vector 2 Highway.node[0].appl nodeId ETV
vector 3 Highway.node[0].appl acceleration ETV
vector 4 Highway.node[0].appl controllerAcceleration ETV
vector 5 Highway.node[0].appl speed ETV
vector 6 Highway.node[0].appl posx ETV
vector 7 Highway.node[0].appl posy ETV
vector 8 Highway.node[1].appl distance ETV
vector 9 Highway.node[1].appl relativeSpeed ETV
vector 10 Highway.node[1].appl nodeId ETV
vector 11 Highway.node[1].appl acceleration ETV
vector 12 Highway.node[1].appl controllerAcceleration ETV
vector 13 Highway.node[1].appl speed ETV
vector 14 Highway.node[1].appl posx ETV
vector 15 Highway.node[1].appl posy ETV
vector 16 Highway.node[2].appl distance ETV
vector 17 Highway.node[2].appl relativeSpeed ETV
vector 18 Highway.node[2].appl nodeId ETV
vector 19 Highway.node[2].appl acceleration ETV
vector 20 Highway.node[2].appl controllerAcceleration ETV
vector 21 Highway.node[2].appl speed ETV
vector 22 Highway.node[2].appl posx ETV
vector 23 Highway.node[2].appl posy ETV
vector 24 Highway.node[3].appl distance ETV
vector 25 Highway.node[3].appl relativeSpeed ETV
vector 26 Highway.node[3].appl nodeId ETV
vector 27 Highway.node[3].appl acceleration ETV
vector 28 Highway.node[3].appl controllerAcceleration ETV
vector 29 Highway.node[3].appl speed ETV
vector 30 Highway.node[3].appl posx ETV
vector 31 Highway.node[3].appl posy ETV
vector 32 Highway.node[4].appl distance ETV
vector 33 Highway.node[4].appl relativeSpeed ETV
vector 34 Highway.node[4].appl nodeId ETV
vector 35 Highway.node[4].appl acceleration ETV
vector 36 Highway.node[4].appl controllerAcceleration ETV
vector 37 Highway.node[4].appl speed ETV
vector 38 Highway.node[4].appl posx ETV
vector 39 Highway.node[4].appl posy ETV
vector 40 Highway.node[5].appl distance ETV
vector 41 Highway.node[5].appl relativeSpeed ETV
vector 42 Highway.node[5].appl nodeId ETV
vector 43 Highway.node[5].appl acceleration ETV
vector 44 Highway.node[5].appl controllerAcceleration ETV
vector 45 Highway.node[5].appl speed ETV
vector 46 Highway.node[5].appl posx ETV
vector 47 Highway.node[5].appl posy ETV
vector 48 Highway.node[6].appl distance ETV
vector 49 Highway.node[6].appl relativeSpeed ETV
vector 50 Highway.node[6].appl nodeId ETV
vector 51 Highway.node[6].appl acceleration ETV
vector 52 Highway.node[6].appl controllerAcceleration ETV
vector 53 Highway.node[6].appl speed ETV
vector 54 Highway.node[6].appl posx ETV
vector 55 Highway.node[6].appl posy ETV
vector 56 Highway.node[7].appl distance ETV
vector 57 Highway.node[7].appl relativeSpeed ETV
vector 58 Highway.node[7].appl nodeId ETV
vector 59 Highway.node[7].appl acceleration ETV
vector 60 Highway.node[7].appl controllerAcceleration ETV
vector 61 Highway.node[7].appl speed ETV
vector 62 Highway.node[7].appl posx ETV
vector 63 Highway.node[7].appl posy ETV
vector 64 Highway.node[2].prot frontDelay ETV
vector 65 Highway.node[2].prot frontDelayId ETV
vector 66 Highway.node[7].prot frontDelay ETV
vector 67 Highway.node[7].prot frontDelayId ETV
vector 68 Highway.node[3].prot frontDelay ETV
vector 69 Highway.node[3].prot frontDelayId ETV
vector 70 Highway.node[6].prot frontDelay ETV
vector 71 Highway.node[6].prot frontDelayId ETV
vector 72 Highway.node[5].prot frontDelay ETV
vector 73 Highway.node[5].prot frontDelayId ETV
vector 74 Highway.node[4].prot frontDelay ETV
vector 75 Highway.node[4].prot frontDelayId ETV
vector 76 Highway.node[1].prot leaderDelay ETV
vector 77 Highway.node[1].prot leaderDelayId ETV
vector 78 Highway.node[1].prot frontDelay ETV
vector 79 Highway.node[1].prot frontDelayId ETV
vector 80 Highway.node[2].prot leaderDelay ETV
vector 81 Highway.node[2].prot leaderDelayId ETV
vector 82 Highway.node[3].prot leaderDelay ETV
vector 83 Highway.node[3].prot leaderDelayId ETV
vector 84 Highway.node[4].prot leaderDelay ETV
vector 85 Highway.node[4].prot leaderDelayId ETV
vector 86 Highway.node[5].prot leaderDelay ETV
vector 87 Highway.node[5].prot leaderDelayId ETV
vector 88 Highway.node[6].prot leaderDelay ETV
vector 89 Highway.node[6].prot leaderDelayId ETV
vector 90 Highway.node[7].prot leaderDelay ETV
vector 91 Highway.node[7].prot leaderDelayId ETV
vector 92 Highway.node[0].prot nodeId ETV
vector 93 Highway.node[0].prot busyTime ETV
vector 94 Highway.node[0].prot collisions ETV
vector 95 Highway.node[1].prot nodeId ETV
vector 96 Highway.node[1].prot busyTime ETV
vector 97 Highway.node[1].prot collisions ETV
vector 98 Highway.node[2].prot nodeId ETV
vector 99 Highway.node[2].prot busyTime ETV
vector 100 Highway.node[2].prot collisions ETV
vector 101 Highway.node[3].prot nodeId ETV
vector 102 Highway.node[3].prot busyTime ETV
vector 103 Highway.node[3].prot collisions ETV
vector 104 Highway.node[4].prot nodeId ETV
vector 105 Highway.node[4].prot busyTime ETV
vector 106 Highway.node[4].prot collisions ETV
vector 107 Highway.node[5].prot nodeId ETV
vector 108 Highway.node[5].prot busyTime ETV
vector 109 Highway.node[5].prot collisions ETV
vector 110 Highway.node[6].prot nodeId ETV
vector 111 Highway.node[6].prot busyTime ETV
vector 112 Highway.node[6].prot collisions ETV
vector 113 Highway.node[7].prot nodeId ETV
vector 114 Highway.node[7].prot busyTime ETV
vector 115 Highway.node[7].prot collisions ETV
0	113	1.11	-1
0	659	1.21	-1
0	1205	1.31	-1
0	1751	1.41	-1
0	2297	1.51	-1
0	2843	1.61	-1
0	3389	1.71	-1
0	3935	1.81	-1
0	4481	1.91	-1
0	5035	2.01	-1
0	5581	2.11	-1
0	6127	2.21	-1
0	6673	2.31	-1
0	7219	2.41	-1
0	7765	2.51	-1
0	8311	2.61	-1
0	8857	2.71	-1
0	9403	2.81	-1
0	9949	2.91	-1
0	10503	3.01	-1
0	11049	3.11	-1
0	11595	3.21	-1
0	12141	3.31	-1
0	12687	3.41	-1
0	13233	3.51	-1
0	13779	3.61	-1
0	14325	3.71	-1
0	14871	3.81	-1
0	15417	3.91	-1
0	15971	4.01	-1
0	16517	4.11	-1
0	17063	4.21	-1
0	17609	4.31	-1
0	18155	4.41	-1
0	18701	4.51	-1
0	19247	4.61	-1
0	19793	4.71	-1
0	20339	4.81	-1
0	20885	4.91	-1
0	21439	5.01	-1
0	21985	5.11	-1
0	22531	5.21	-1
0	23077	5.31	-1
0	23623	5.41	-1
0	24169	5.51	-1
0	24715	5.61	-1
0	25261	5.71	-1
0	25807	5.81	-1
0	26353	5.91	-1
0	26907	6.01	-1
0	27453	6.11	-1
0	27999	6.21	-1
0	28545	6.31	-1
0	29091	6.41	-1
0	29637	6.51	-1
0	30183	6.61	-1
0	30729	6.71	-1
0	31275	6.81	-1
0	31821	6.91	-1
0	32375	7.01	-1
0	32921	7.11	-1
0	33467	7.21	-1
0	34013	7.31	-1
0	34559	7.41	-1
0	35105	7.51	-1
0	35651	7.61	-1
0	36197	7.71	-1
0	36743	7.81	-1
0	37289	7.91	-1
0	37843	8.01	-1
0	38389	8.11	-1
0	38935	8.21	-1
0	39481	8.31	-1
0	40027	8.41	-1
0	40573	8.51	-1
0	41119	8.61	-1
0	41665	8.71	-1
0	42211	8.81	-1
0	42757	8.91	-1
0	43311	9.01	-1
0	43857	9.11	-1
0	44403	9.21	-1
0	44949	9.31	-1
0	45495	9.41	-1
0	46041	9.51	-1
0	46587	9.61	-1
0	47133	9.71	-1
0	47679	9.81	-1
0	48225	9.91	-1
0	48946	10.01	-1
0	49498	10.11	-1
0	50050	10.21	-1
0	50602	10.31	-1
0	51154	10.41	-1
0	51706	10.51	-1
0	52258	10.61	-1
0	52810	10.71	-1
0	53362	10.81	-1
0	53914	10.91	-1
0	54474	11.01	-1
0	55026	11.11	-1
0	55578	11.21	-1
0	56130	11.31	-1
0	56682	11.41	-1
0	57234	11.51	-1
0	57786	11.61	-1
0	58338	11.71	-1
0	58890	11.81	-1
0	59442	11.91	-1
0	60002	12.01	-1
0	60554	12.11	-1
0	61106	12.21	-1
0	61658	12.31	-1
0	62210	12.41	-1
0	62762	12.51	-1
0	63314	12.61	-1
0	63866	12.71	-1
0	64418	12.81	-1
0	64970	12.91	-1
0	65530	13.01	-1
0	66082	13.11	-1
0	66634	13.21	-1
0	67186	13.31	-1
0	67738	13.41	-1
0	68290	13.51	-1
0	68842	13.61	-1
0	69394	13.71	-1
0	69946	13.81	-1
0	70498	13.91	-1
0	71058	14.01	-1
0	71610	14.11	-1
0	72162	14.21	-1
0	72714	14.31	-1
0	73266	14.41	-1
0	73818	14.51	-1
0	74370	14.61	-1
0	74922	14.71	-1
0	75474	14.81	-1
0	76026	14.91	-1
0	76586	15.01	-1
0	77138	15.11	-1
0	77690	15.21	-1
0	78242	15.31	-1
0	78794	15.41	-1
0	79346	15.51	-1
0	79898	15.61	-1
0	80450	15.71	-1
0	81002	15.81	-1
0	81554	15.91	-1
0	82114	16.01	-1
0	82666	16.11	-1
0	83218	16.21	-1
0	83770	16.31	-1
0	84322	16.41	-1
0	84874	16.51	-1
0	85426	16.61	-1
0	85978	16.71	-1
0	86530	16.81	-1
0	87082	16.91	-1
0	87642	17.01	-1
0	88194	17.11	-1
0	88746	17.21	-1
0	89298	17.31	-1
0	89850	17.41	-1
0	90402	17.51	-1
0	90954	17.61	-1
0	91506	17.71	-1
0	92058	17.81	-1
0	92610	17.91	-1
0	93170	18.01	-1
0	93722	18.11	-1
0	94274	18.21	-1
0	94826	18.31	-1
0	95378	18.41	-1
0	95930	18.51	-1
0	96482	18.61	-1
0	97034	18.71	-1
0	97586	18.81	-1
0	98138	18.91	-1
0	98698	19.01	-1
0	99250	19.11	-1
0	99802	19.21	-1
0	100354	19.31	-1
0	100906	19.41	-1
0	101458	19.51	-1
0	102010	19.61	-1
0	102562	19.71	-1
0	103114	19.81	-1
0	103666	19.91	-1
0	104226	20.01	-1
0	104778	20.11	-1
0	105330	20.21	-1
0	105882	20.31	-1
0	106434	20.41	-1
0	106986	20.51	-1
0	107538	20.61	-1
0	108090	20.71	-1
0	108642	20.81	-1
0	109194	20.91	-1
0	109754	21.01	-1
0	110306	21.11	-1
0	110858	21.21	-1
0	111410	21.31	-1
0	111962	21.41	-1
0	112514	21.51	-1
0	113066	21.61	-1
0	113618	21.71	-1
0	114170	21.81	-1
0	114722	21.91	-1
0	115282	22.01	-1
0	115834	22.11	-1
0	116386	22.21	-1
0	116938	22.31	-1
0	117490	22.41	-1
0	118042	22.51	-1
0	118594	22.61	-1
0	119146	22.71	-1
0	119698	22.81	-1
0	120250	22.91	-1
0	120810	23.01	-1
0	121362	23.11	-1
0	121914	23.21	-1
0	122466	23.31	-1
0	123018	23.41	-1
0	123570	23.51	-1
0	124122	23.61	-1
0	124674	23.71	-1
0	125226	23.81	-1
0	125778	23.91	-1
0	126338	24.01	-1
0	126890	24.11	-1
0	127442	24.21	-1
0	127994	24.31	-1
0	128546	24.41	-1
0	129098	24.51	-1
0	129650	24.61	-1
0	130202	24.71	-1
0	130754	24.81	-1
0	131306	24.91	-1
0	131866	25.01	-1
0	132418	25.11	-1
0	132970	25.21	-1
0	133522	25.31	-1
0	134074	25.41	-1
0	134626	25.51	-1
0	135178	25.61	-1
0	135730	25.71	-1
0	136282	25.81	-1
0	136834	25.91	-1
0	137394	26.01	-1
0	137946	26.11	-1
0	138498	26.21	-1
0	139050	26.31	-1
0	139602	26.41	-1
0	140154	26.51	-1
0	140706	26.61	-1
0	141258	26.71	-1
0	141810	26.81	-1
0	142362	26.91	-1
0	142922	27.01	-1
0	143474	27.11	-1
0	144026	27.21	-1
0	144578	27.31	-1
0	145130	27.41	-1
0	145682	27.51	-1
0	146234	27.61	-1
0	146786	27.71	-1
0	147338	27.81	-1
0	147890	27.91	-1
0	148450	28.01	-1
0	149002	28.11	-1
0	149551	28.21	-1
0	150100	28.31	-1
0	150649	28.41	-1
0	151201	28.51	-1
0	151753	28.61	-1
0	152302	28.71	-1
0	152854	28.81	-1
0	153406	28.91	-1
0	153960	29.01	-1
0	154509	29.11	-1
0	155058	29.21	-1
0	155610	29.31	-1
0	156162	29.41	-1
0	156708	29.51	-1
0	157257	29.61	-1
0	157806	29.71	-1
0	158352	29.81	-1
0	158895	29.91	-1
0	159449	30.01	-1
0	159995	30.11	-1
0	160538	30.21	-1
0	161084	30.31	-1
0	161630	30.41	-1
0	162182	30.51	-1
0	162725	30.61	-1
0	163253	30.71	-1
0	163796	30.81	-1
0	164336	30.91	-1
0	164881	31.01	-1
0	165421	31.11	-1
0	165961	31.21	-1
0	166498	31.31	-1
0	167023	31.41	-1
0	167551	31.51	-1
0	168082	31.61	-1
0	168610	31.71	-1
0	169138	31.81	-1
0	169663	31.91	-1
0	170190	32.01	-1
0	170712	32.11	-1
0	171240	32.21	-1
0	171759	32.31	-1
0	172284	32.41	-1
0	172797	32.51	-1
0	173310	32.61	-1
0	173820	32.71	-1
0	174330	32.81	-1
0	174843	32.91	-1
0	175361	33.01	-1
0	175871	33.11	-1
0	176387	33.21	-1
0	176897	33.31	-1
0	177410	33.41	-1
0	177920	33.51	-1
0	178430	33.61	-1
0	178940	33.71	-1
0	179450	33.81	-1
0	179960	33.91	-1
0	180478	34.01	-1
0	180988	34.11	-1
0	181498	34.21	-1
0	182008	34.31	-1
0	182518	34.41	-1
0	183028	34.51	-1
0	183538	34.61	-1
0	184048	34.71	-1
0	184558	34.81	-1
0	185068	34.91	-1
0	185586	35.01	-1
0	186096	35.11	-1
0	186606	35.21	-1
0	187116	35.31	-1
0	187626	35.41	-1
0	188136	35.51	-1
0	188646	35.61	-1
0	189156	35.71	-1
0	189666	35.81	-1
0	190176	35.91	-1
0	190694	36.01	-1
0	191204	36.11	-1
0	191714	36.21	-1
0	192224	36.31	-1
0	192734	36.41	-1
0	193244	36.51	-1
0	193754	36.61	-1
0	194264	36.71	-1
0	194774	36.81	-1
0	195284	36.91	-1
0	195802	37.01	-1
0	196312	37.11	-1
0	196822	37.21	-1
0	197332	37.31	-1
0	197842	37.41	-1
0	198352	37.51	-1
0	198862	37.61	-1
0	199372	37.71	-1
0	199882	37.81	-1
0	200392	37.91	-1
0	200910	38.01	-1
0	201420	38.11	-1
0	201930	38.21	-1
0	202440	38.31	-1
0	202950	38.41	-1
0	203460	38.51	-1
0	203970	38.61	-1
0	204480	38.71	-1
0	204990	38.81	-1
0	205500	38.91	-1
0	206018	39.01	-1
0	206528	39.11	-1
0	207038	39.21	-1
0	207548	39.31	-1
0	208058	39.41	-1
0	208568	39.51	-1
0	209078	39.61	-1
0	209588	39.71	-1
0	210098	39.81	-1
0	210608	39.91	-1
0	211126	40.01	-1
0	211636	40.11	-1
0	212146	40.21	-1
0	212656	40.31	-1
0	213166	40.41	-1
0	213676	40.51	-1
0	214186	40.61	-1
0	214696	40.71	-1
0	215206	40.81	-1
0	215716	40.91	-1
0	216234	41.01	-1
0	216744	41.11	-1
0	217254	41.21	-1
0	217764	41.31	-1
0	218274	41.41	-1
0	218784	41.51	-1
0	219294	41.61	-1
0	219804	41.71	-1
0	220314	41.81	-1
0	220824	41.91	-1
0	221342	42.01	-1
0	221852	42.11	-1
0	222362	42.21	-1
0	222872	42.31	-1
0	223382	42.41	-1
0	223892	42.51	-1
0	224402	42.61	-1
0	224912	42.71	-1
0	225422	42.81	-1
0	225932	42.91	-1
0	226450	43.01	-1
0	226960	43.11	-1
0	227470	43.21	-1
0	227980	43.31	-1
0	228490	43.41	-1
0	229000	43.51	-1
0	229510	43.61	-1
0	230020	43.71	-1
0	230530	43.81	-1
0	231040	43.91	-1
0	231558	44.01	-1
0	232068	44.11	-1
0	232578	44.21	-1
0	233088	44.31	-1
0	233598	44.41	-1
0	234108	44.51	-1
0	234618	44.61	-1
0	235128	44.71	-1
0	235638	44.81	-1
0	236148	44.91	-1
0	236666	45.01	-1
0	237176	45.11	-1
0	237686	45.21	-1
0	238196	45.31	-1
0	238706	45.41	-1
0	239216	45.51	-1
0	239726	45.61	-1
0	240236	45.71	-1
0	240746	45.81	-1
0	241256	45.91	-1
0	241774	46.01	-1
0	242284	46.11	-1
0	242794	46.21	-1
0	243304	46.31	-1
0	243814	46.41	-1
0	244324	46.51	-1
0	244834	46.61	-1
0	245344	46.71	-1
0	245854	46.81	-1
0	246364	46.91	-1
0	246882	47.01	-1
0	247392	47.11	-1
0	247902	47.21	-1
0	248412	47.31	-1
0	248922	47.41	-1
0	249432	47.51	-1
0	249942	47.61	-1
0	250452	47.71	-1
0	250962	47.81	-1
0	251472	47.91	-1
0	251990	48.01	-1
0	252500	48.11	-1
0	253010	48.21	-1
0	253520	48.31	-1
0	254030	48.41	-1
0	254540	48.51	-1
0	255050	48.61	-1
0	255560	48.71	-1
0	256070	48.81	-1
0	256580	48.91	-1
0	257098	49.01	-1
0	257608	49.11	-1
0	258118	49.21	-1
0	258628	49.31	-1
0	259138	49.41	-1
0	259648	49.51	-1
0	260158	49.61	-1
0	260668	49.71	-1
0	261178	49.81	-1
0	261688	49.91	-1
0	262206	50.01	-1
0	262716	50.11	-1
0	263226	50.21	-1
0	263736	50.31	-1
0	264246	50.41	-1
0	264756	50.51	-1
0	265266	50.61	-1
0	265776	50.71	-1
0	266286	50.81	-1
0	266796	50.91	-1
0	267314	51.01	-1
0	267824	51.11	-1
0	268334	51.21	-1
0	268844	51.31	-1
0	269354	51.41	-1
0	269864	51.51	-1
0	270374	51.61	-1
0	270884	51.71	-1
0	271394	51.81	-1
0	271904	51.91	-1
0	272422	52.01	-1
0	272926	52.11	-1
0	273424	52.21	-1
0	273916	52.31	-1
0	274402	52.41	-1
0	274882	52.51	-1
0	275356	52.61	-1
0	275824	52.71	-1
0	276292	52.81	-1
0	276760	52.91	-1
0	277236	53.01	-1
0	277704	53.11	-1
0	278172	53.21	-1
0	278640	53.31	-1
0	279108	53.41	-1
0	279576	53.51	-1
0	280044	53.61	-1
0	280512	53.71	-1
0	280980	53.81	-1
0	281448	53.91	-1
0	281924	54.01	-1
0	282392	54.11	-1
0	282860	54.21	-1
0	283328	54.31	-1
0	283796	54.41	-1
0	284264	54.51	-1
0	284732	54.61	-1
0	285200	54.71	-1
0	285668	54.81	-1
0	286136	54.91	-1
0	286612	55.01	-1
0	287080	55.11	-1
0	287548	55.21	-1
0	288016	55.31	-1
0	288484	55.41	-1
0	288952	55.51	-1
0	289420	55.61	-1
0	289888	55.71	-1
0	290356	55.81	-1
0	290824	55.91	-1
0	291300	56.01	-1
0	291768	56.11	-1
0	292236	56.21	-1
0	292704	56.31	-1
0	293172	56.41	-1
0	293640	56.51	-1
0	294108	56.61	-1
0	294576	56.71	-1
0	295044	56.81	-1
0	295512	56.91	-1
0	295988	57.01	-1
0	296456	57.11	-1
0	296924	57.21	-1
0	297392	57.31	-1
0	297860	57.41	-1
0	298328	57.51	-1
0	298796	57.61	-1
0	299264	57.71	-1
0	299732	57.81	-1
0	300200	57.91	-1
0	300676	58.01	-1
0	301144	58.11	-1
0	301612	58.21	-1
0	302080	58.31	-1
0	302548	58.41	-1
0	303016	58.51	-1
0	303484	58.61	-1
0	303952	58.71	-1
0	304420	58.81	-1
0	304888	58.91	-1
0	305364	59.01	-1
0	305832	59.11	-1
0	306300	59.21	-1
0	306768	59.31	-1
0	307236	59.41	-1
0	307704	59.51	-1
0	308172	59.61	-1
0	308640	59.71	-1
0	309108	59.81	-1
0	309576	59.91	-1
0	310052	60.01	-1
0	310520	60.11	-1
0	310988	60.21	-1
0	311456	60.31	-1
0	311924	60.41	-1
0	312392	60.51	-1
0	312860	60.61	-1
0	313328	60.71	-1
0	313796	60.81	-1
0	314264	60.91	-1
0	314740	61.01	-1
0	315208	61.11	-1
0	315676	61.21	-1
0	316144	61.31	-1
0	316612	61.41	-1
0	317080	61.51	-1
0	317548	61.61	-1
0	318016	61.71	-1
0	318484	61.81	-1
0	318952	61.91	-1
0	319428	62.01	-1
0	319896	62.11	-1
0	320364	62.21	-1
0	320832	62.31	-1
0	321300	62.41	-1
0	321768	62.51	-1
0	322236	62.61	-1
0	322704	62.71	-1
0	323172	62.81	-1
0	323640	62.91	-1
0	324116	63.01	-1
0	324584	63.11	-1
0	325052	63.21	-1
0	325520	63.31	-1
0	325988	63.41	-1
0	326456	63.51	-1
0	326924	63.61	-1
0	327392	63.71	-1
0	327860	63.81	-1
0	328328	63.91	-1
0	328804	64.01	-1
0	329272	64.11	-1
0	329740	64.21	-1
0	330208	64.31	-1
0	330676	64.41	-1
0	331144	64.51	-1
0	331612	64.61	-1
0	332080	64.71	-1
0	332548	64.81	-1
0	333016	64.91	-1
0	333492	65.01	-1
0	333960	65.11	-1
0	334428	65.21	-1
0	334896	65.31	-1
0	335364	65.41	-1
0	335832	65.51	-1
0	336300	65.61	-1
0	336768	65.71	-1
0	337232	65.81	-1
0	337690	65.91	-1
0	338154	66.01	-1
0	338604	66.11	-1
0	339050	66.21	-1
0	339492	66.31	-1
0	339932	66.41	-1
0	340372	66.51	-1
0	340812	66.61	-1
0	341252	66.71	-1
0	341692	66.81	-1
0	342132	66.91	-1
0	342580	67.01	-1
0	343020	67.11	-1
0	343460	67.21	-1
0	343900	67.31	-1
0	344340	67.41	-1
0	344780	67.51	-1
0	345220	67.61	-1
0	345660	67.71	-1
0	346100	67.81	-1
0	346540	67.91	-1
0	346988	68.01	-1
0	347428	68.11	-1
0	347868	68.21	-1
0	348308	68.31	-1
0	348748	68.41	-1
0	349188	68.51	-1
0	349628	68.61	-1
0	350068	68.71	-1
0	350508	68.81	-1
0	350948	68.91	-1
0	351396	69.01	-1
0	351836	69.11	-1
0	352276	69.21	-1
0	352716	69.31	-1
0	353156	69.41	-1
0	353596	69.51	-1
0	354036	69.61	-1
0	354476	69.71	-1
0	354916	69.81	-1
0	355356	69.91	-1
0	355804	70.01	-1
0	356244	70.11	-1
0	356684	70.21	-1
0	357124	70.31	-1
0	357564	70.41	-1
0	358004	70.51	-1
0	358444	70.61	-1
0	358884	70.71	-1
0	359324	70.81	-1
0	359764	70.91	-1
0	360212	71.01	-1
0	360652	71.11	-1
0	361092	71.21	-1
0	361532	71.31	-1
0	361972	71.41	-1
0	362412	71.51	-1
0	362852	71.61	-1
0	363292	71.71	-1
0	363732	71.81	-1
0	364172	71.91	-1
0	364620	72.01	-1
0	365060	72.11	-1
0	365500	72.21	-1
0	365940	72.31	-1
0	366380	72.41	-1
0	366820	72.51	-1
0	367260	72.61	-1
0	367700	72.71	-1
0	368140	72.81	-1
0	368580	72.91	-1
0	369028	73.01	-1
0	369468	73.11	-1
0	369908	73.21	-1
0	370348	73.31	-1
0	370788	73.41	-1
0	371228	73.51	-1
0	371668	73.61	-1
0	372108	73.71	-1
0	372548	73.81	-1
0	372988	73.91	-1
0	373436	74.01	-1
0	373876	74.11	-1
0	374316	74.21	-1
0	374756	74.31	-1
0	375196	74.41	-1
0	375636	74.51	-1
0	376076	74.61	-1
0	376516	74.71	-1
0	376956	74.81	-1
0	377396	74.91	-1
0	377844	75.01	-1
0	378284	75.11	-1
0	378724	75.21	-1
0	379164	75.31	-1
0	379604	75.41	-1
0	380044	75.51	-1
0	380484	75.61	-1
0	380924	75.71	-1
0	381364	75.81	-1
0	381804	75.91	-1
0	382252	76.01	-1
0	382692	76.11	-1
0	383132	76.21	-1
0	383572	76.31	-1
0	384012	76.41	-1
0	384452	76.51	-1
0	384892	76.61	-1
0	385332	76.71	-1
0	385772	76.81	-1
0	386212	76.91	-1
0	386660	77.01	-1
0	387100	77.11	-1
0	387540	77.21	-1
0	387980	77.31	-1
0	388420	77.41	-1
0	388860	77.51	-1
0	389300	77.61	-1
0	389740	77.71	-1
0	390180	77.81	-1
0	390620	77.91	-1
0	391068	78.01	-1
0	391508	78.11	-1
0	391948	78.21	-1
0	392388	78.31	-1
0	392828	78.41	-1
0	393268	78.51	-1
0	393708	78.61	-1
0	394148	78.71	-1
0	394588	78.81	-1
0	395028	78.91	-1
0	395476	79.01	-1
0	395916	79.11	-1
0	396356	79.21	-1
0	396796	79.31	-1
0	397236	79.41	-1
0	397676	79.51	-1
0	398116	79.61	-1
0	398556	79.71	-1
0	398996	79.81	-1
0	399436	79.91	-1
0	399884	80.01	-1
0	400324	80.11	-1
0	400764	80.21	-1
0	401204	80.31	-1
0	401644	80.41	-1
0	402084	80.51	-1
0	402524	80.61	-1
0	402964	80.71	-1
0	403404	80.81	-1
0	403844	80.91	-1
0	404292	81.01	-1
0	404732	81.11	-1
0	405172	81.21	-1
0	405612	81.31	-1
0	406052	81.41	-1
0	406492	81.51	-1
0	406932	81.61	-1
0	407372	81.71	-1
0	407812	81.81	-1
0	408252	81.91	-1
0	408700	82.01	-1
0	409140	82.11	-1
0	409580	82.21	-1
0	410020	82.31	-1
0	410460	82.41	-1
0	410900	82.51	-1
0	411340	82.61	-1
0	411780	82.71	-1
0	412220	82.81	-1
0	412660	82.91	-1
0	413108	83.01	-1
0	413548	83.11	-1
0	413988	83.21	-1
0	414428	83.31	-1
0	414868	83.41	-1
0	415308	83.51	-1
0	415748	83.61	-1
0	416188	83.71	-1
0	416628	83.81	-1
0	417068	83.91	-1
0	417516	84.01	-1
0	417956	84.11	-1
0	418396	84.21	-1
0	418836	84.31	-1
0	419276	84.41	-1
0	419716	84.51	-1
0	420156	84.61	-1
0	420596	84.71	-1
0	421036	84.81	-1
0	421476	84.91	-1
0	421924	85.01	-1
0	422364	85.11	-1
0	422804	85.21	-1
0	423244	85.31	-1
0	423684	85.41	-1
0	424124	85.51	-1
0	424564	85.61	-1
0	425004	85.71	-1
0	425444	85.81	-1
0	425884	85.91	-1
0	426332	86.01	-1
0	426772	86.11	-1
0	427212	86.21	-1
0	427652	86.31	-1
0	428092	86.41	-1
0	428532	86.51	-1
0	428972	86.61	-1
0	429412	86.71	-1
0	429852	86.81	-1
0	430292	86.91	-1
0	430740	87.01	-1
0	431180	87.11	-1
0	431620	87.21	-1
0	432060	87.31	-1
0	432500	87.41	-1
0	432940	87.51	-1
0	433380	87.61	-1
0	433820	87.71	-1
0	434260	87.81	-1
0	434700	87.91	-1
0	435148	88.01	-1
0	435588	88.11	-1
0	436028	88.21	-1
0	436468	88.31	-1
0	436908	88.41	-1
0	437348	88.51	-1
0	437788	88.61	-1
0	438228	88.71	-1
0	438668	88.81	-1
0	439108	88.91	-1
0	439556	89.01	-1
0	439996	89.11	-1
0	440436	89.21	-1
0	440876	89.31	-1
0	441316	89.41	-1
0	441756	89.51	-1
0	442196	89.61	-1
0	442636	89.71	-1
0	443076	89.81	-1
0	443516	89.91	-1
0	443964	90.01	-1
0	444404	90.11	-1
0	444844	90.21	-1
0	445284	90.31	-1
0	445724	90.41	-1
0	446164	90.51	-1
0	446604	90.61	-1
0	447044	90.71	-1
0	447484	90.81	-1
0	447924	90.91	-1
0	448372	91.01	-1
0	448812	91.11	-1
0	449252	91.21	-1
0	449692	91.31	-1
0	450132	91.41	-1
0	450572	91.51	-1
0	451012	91.61	-1
0	451452	91.71	-1
0	451892	91.81	-1
0	452332	91.91	-1
0	452780	92.01	-1
0	453220	92.11	-1
0	453660	92.21	-1
0	454100	92.31	-1
0	454540	92.41	-1
0	454980	92.51	-1
0	455420	92.61	-1
0	455860	92.71	-1
0	456300	92.81	-1
0	456740	92.91	-1
0	457188	93.01	-1
0	457628	93.11	-1
0	458068	93.21	-1
0	458508	93.31	-1
0	458948	93.41	-1
0	459388	93.51	-1
0	459828	93.61	-1
0	460268	93.71	-1
0	460708	93.81	-1
0	461148	93.91	-1
0	461596	94.01	-1
0	462036	94.11	-1
0	462476	94.21	-1
0	462916	94.31	-1
0	463356	94.41	-1
0	463796	94.51	-1
0	464236	94.61	-1
0	464676	94.71	-1
0	465116	94.81	-1
0	465556	94.91	-1
0	466004	95.01	-1
0	466444	95.11	-1
0	466884	95.21	-1
0	467324	95.31	-1
0	467764	95.41	-1
0	468204	95.51	-1
0	468644	95.61	-1
0	469084	95.71	-1
0	469524	95.81	-1
0	469964	95.91	-1
0	470412	96.01	-1
0	470852	96.11	-1
0	471292	96.21	-1
0	471732	96.31	-1
0	472172	96.41	-1
0	472612	96.51	-1
0	473052	96.61	-1
0	473492	96.71	-1
0	473932	96.81	-1
0	474372	96.91	-1
0	474820	97.01	-1
0	475260	97.11	-1
0	475700	97.21	-1
0	476140	97.31	-1
0	476580	97.41	-1
0	477020	97.51	-1
0	477460	97.61	-1
0	477900	97.71	-1
0	478340	97.81	-1
0	478780	97.91	-1
0	479228	98.01	-1
0	479668	98.11	-1
0	480108	98.21	-1
0	480548	98.31	-1
0	480988	98.41	-1
0	481428	98.51	-1
0	481868	98.61	-1
0	482308	98.71	-1
0	482748	98.81	-1
0	483188	98.91	-1
0	483636	99.01	-1
0	484076	99.11	-1
0	484516	99.21	-1
0	484956	99.31	-1
0	485396	99.41	-1
0	485836	99.51	-1
0	486276	99.61	-1
0	486716	99.71	-1
0	487156	99.81	-1
0	487596	99.91	-1
1	113	1.11	0
1	659	1.21	0
1	1205	1.31	0
1	1751	1.41	0
1	2297	1.51	0
1	2843	1.61	0
1	3389	1.71	0
1	3935	1.81	0
1	4481	1.91	0
1	5035	2.01	0
1	5581	2.11	0
1	6127	2.21	0
1	6673	2.31	0
1	7219	2.41	0
1	7765	2.51	0
1	8311	2.61	0
1	8857	2.71	0
1	9403	2.81	0
1	9949	2.91	0
1	10503	3.01	0
1	11049	3.11	0
1	11595	3.21	0
1	12141	3.31	0
1	12687	3.41	0
1	13233	3.51	0
1	13779	3.61	0
1	14325	3.71	0
1	14871	3.81	0
1	15417	3.91	0
1	15971	4.01	0
1	16517	4.11	0
1	17063	4.21	0
1	17609	4.31	0
1	18155	4.41	0
1	18701	4.51	0
1	19247	4.61	0
1	19793	4.71	0
1	20339	4.81	0
1	20885	4.91	0
1	21439	5.01	0
1	21985	5.11	0
1	22531	5.21	0
1	23077	5.31	0
1	23623	5.41	0
1	24169	5.51	0
1	24715	5.61	0
1	25261	5.71	0
1	25807	5.81	0
1	26353	5.91	0
1	26907	6.01	0
1	27453	6.11	0
1	27999	6.21	0
1	28545	6.31	0
1	29091	6.41	0
1	29637	6.51	0
1	30183	6.61	0
1	30729	6.71	0
1	31275	6.81	0
1	31821	6.91	0
1	32375	7.01	0
1	32921	7.11	0
1	33467	7.21	0
1	34013	7.31	0
1	34559	7.41	0
1	35105	7.51	0
1	35651	7.61	0
1	36197	7.71	0
1	36743	7.81	0
1	37289	7.91	0
1	37843	8.01	0
1	38389	8.11	0
1	38935	8.21	0
1	39481	8.31	0
1	40027	8.41	0
1	40573	8.51	0
1	41119	8.61	0
1	41665	8.71	0
1	42211	8.81	0
1	42757	8.91	0
1	43311	9.01	0
1	43857	9.11	0
1	44403	9.21	0
1	44949	9.31	0
1	45495	9.41	0
1	46041	9.51	0
1	46587	9.61	0
1	47133	9.71	0
1	47679	9.81	0
1	48225	9.91	0
1	48946	10.01	0
1	49498	10.11	0
1	50050	10.21	0
1	50602	10.31	0
1	51154	10.41	0
1	51706	10.51	0
1	52258	10.61	0
1	52810	10.71	0
1	53362	10.81	0
1	53914	10.91	0
1	54474	11.01	0
1	55026	11.11	0
1	55578	11.21	0
1	56130	11.31	0
1	56682	11.41	0
1	57234	11.51	0
1	57786	11.61	0
1	58338	11.71	0
1	58890	11.81	0
1	59442	11.91	0
1	60002	12.01	0
1	60554	12.11	0
1	61106	12.21	0
1	61658	12.31	0
1	62210	12.41	0
1	62762	12.51	0
1	63314	12.61	0
1	63866	12.71	0
1	64418	12.81	0
1	64970	12.91	0
1	65530	13.01	0
1	66082	13.11	0
1	66634	13.21	0
1	67186	13.31	0
1	67738	13.41	0
1	68290	13.51	0
1	68842	13.61	0
1	69394	13.71	0
1	69946	13.81	0
1	70498	13.91	0
1	71058	14.01	0
1	71610	14.11	0
1	72162	14.21	0
1	72714	14.31	0
1	73266	14.41	0
1	73818	14.51	0
1	74370	14.61	0
1	74922	14.71	0
1	75474	14.81	0
1	76026	14.91	0
1	76586	15.01	0
1	77138	15.11	0
1	77690	15.21	0
1	78242	15.31	0
1	78794	15.41	0
1	79346	15.51	0
1	79898	15.61	0
1	80450	15.71	0
1	81002	15.81	0
1	81554	15.91	0
1	82114	16.01	0
1	82666	16.11	0
1	83218	16.21	0
1	83770	16.31	0
1	84322	16.41	0
1	84874	16.51	0
1	85426	16.61	0
1	85978	16.71	0
1	86530	16.81	0
1	87082	16.91	0
1	87642	17.01	0
1	88194	17.11	0
1	88746	17.21	0
1	89298	17.31	0
1	89850	17.41	0
1	90402	17.51	0
1	90954	17.61	0
1	91506	17.71	0
1	92058	17.81	0
1	92610	17.91	0
1	93170	18.01	0
1	93722	18.11	0
1	94274	18.21	0
1	94826	18.31	0
1	95378	18.41	0
1	95930	18.51	0
1	96482	18.61	0
1	97034	18.71	0
1	97586	18.81	0
1	98138	18.91	0
1	98698	19.01	0
1	99250	19.11	0
1	99802	19.21	0
1	100354	19.31	0
1	100906	19.41	0
1	101458	19.51	0
1	102010	19.61	0
1	102562	19.71	0
1	103114	19.81	0
1	103666	19.91	0
1	104226	20.01	0
1	104778	20.11	0
1	105330	20.21	0
1	105882	20.31	0
1	106434	20.41	0
1	106986	20.51	0
1	107538	20.61	0
1	108090	20.71	0
1	108642	20.81	0
1	109194	20.91	0
1	109754	21.01	0
1	110306	21.11	0
1	110858	21.21	0
1	111410	21.31	0
1	111962	21.41	0
1	112514	21.51	0
1	113066	21.61	0
1	113618	21.71	0
1	114170	21.81	0
1	114722	21.91	0
1	115282	22.01	0
1	115834	22.11	0
1	116386	22.21	0
1	116938	22.31	0
1	117490	22.41	0
1	118042	22.51	0
1	118594	22.61	0
1	119146	22.71	0
1	119698	22.81	0
1	120250	22.91	0
1	120810	23.01	0
1	121362	23.11	0
1	121914	23.21	0
1	122466	23.31	0
1	123018	23.41	0
1	123570	23.51	0
1	124122	23.61	0
1	124674	23.71	0
1	125226	23.81	0
1	125778	23.91	0
1	126338	24.01	0
1	126890	24.11	0
1	127442	24.21	0
1	127994	24.31	0
1	128546	24.41	0
1	129098	24.51	0
1	129650	24.61	0
1	130202	24.71	0
1	130754	24.81	0
1	131306	24.91	0
1	131866	25.01	0
1	132418	25.11	0
1	132970	25.21	0
1	133522	25.31	0
1	134074	25.41	0
1	134626	25.51	0
1	135178	25.61	0
1	135730	25.71	0
1	136282	25.81	0
1	136834	25.91	0
1	137394	26.01	0
1	137946	26.11	0
1	138498	26.21	0
1	139050	26.31	0
1	139602	26.41	0
1	140154	26.51	0
1	140706	26.61	0
1	141258	26.71	0
1	141810	26.81	0
1	142362	26.91	0
1	142922	27.01	0
1	143474	27.11	0
1	144026	27.21	0
1	144578	27.31	0
1	145130	27.41	0
1	145682	27.51	0
1	146234	27.61	0
1	146786	27.71	0
1	147338	27.81	0
1	147890	27.91	0
1	148450	28.01	0
1	149002	28.11	0
1	149551	28.21	0
1	150100	28.31	0
1	150649	28.41	0
1	151201	28.51	0
1	151753	28.61	0
1	152302	28.71	0
1	152854	28.81	0
1	153406	28.91	0
1	153960	29.01	0
1	154509	29.11	0
1	155058	29.21	0
1	155610	29.31	0
1	156162	29.41	0
1	156708	29.51	0
1	157257	29.61	0
1	157806	29.71	0
1	158352	29.81	0
1	158895	29.91	0
1	159449	30.01	0
1	159995	30.11	0
1	160538	30.21	0
1	161084	30.31	0
1	161630	30.41	0
1	162182	30.51	0
1	162725	30.61	0
1	163253	30.71	0
1	163796	30.81	0
1	164336	30.91	0
1	164881	31.01	0
1	165421	31.11	0
1	165961	31.21	0
1	166498	31.31	0
1	167023	31.41	0
1	167551	31.51	0
1	168082	31.61	0
1	168610	31.71	0
1	169138	31.81	0
1	169663	31.91	0
1	170190	32.01	0
1	170712	32.11	0
1	171240	32.21	0
1	171759	32.31	0
1	172284	32.41	0
1	172797	32.51	0
1	173310	32.61	0
1	173820	32.71	0
1	174330	32.81	0
1	174843	32.91	0
1	175361	33.01	0
1	175871	33.11	0
1	176387	33.21	0
1	176897	33.31	0
1	177410	33.41	0
1	177920	33.51	0
1	178430	33.61	0
1	178940	33.71	0
1	179450	33.81	0
1	179960	33.91	0
1	180478	34.01	0
1	180988	34.11	0
1	181498	34.21	0
1	182008	34.31	0
1	182518	34.41	0
1	183028	34.51	0
1	183538	34.61	0
1	184048	34.71	0
1	184558	34.81	0
1	185068	34.91	0
1	185586	35.01	0
1	186096	35.11	0
1	186606	35.21	0
1	187116	35.31	0
1	187626	35.41	0
1	188136	35.51	0
1	188646	35.61	0
1	189156	35.71	0
1	189666	35.81	0
1	190176	35.91	0
1	190694	36.01	0
1	191204	36.11	0
1	191714	36.21	0
1	192224	36.31	0
1	192734	36.41	0
1	193244	36.51	0
1	193754	36.61	0
1	194264	36.71	0
1	194774	36.81	0
1	195284	36.91	0
1	195802	37.01	0
1	196312	37.11	0
1	196822	37.21	0
1	197332	37.31	0
1	197842	37.41	0
1	198352	37.51	0
1	198862	37.61	0
1	199372	37.71	0
1	199882	37.81	0
1	200392	37.91	0
1	200910	38.01	0
1	201420	38.11	0
1	201930	38.21	0
1	202440	38.31	0
1	202950	38.41	0
1	203460	38.51	0
1	203970	38.61	0
1	204480	38.71	0
1	204990	38.81	0
1	205500	38.91	0
1	206018	39.01	0
1	206528	39.11	0
1	207038	39.21	0
1	207548	39.31	0
1	208058	39.41	0
1	208568	39.51	0
1	209078	39.61	0
1	209588	39.71	0
1	210098	39.81	0
1	210608	39.91	0
1	211126	40.01	0
1	211636	40.11	0
1	212146	40.21	0
1	212656	40.31	0
1	213166	40.41	0
1	213676	40.51	0
1	214186	40.61	0
1	214696	40.71	0
1	215206	40.81	0
1	215716	40.91	0
1	216234	41.01	0
1	216744	41.11	0
1	217254	41.21	0
1	217764	41.31	0
1	218274	41.41	0
1	218784	41.51	0
1	219294	41.61	0
1	219804	41.71	0
1	220314	41.81	0
1	220824	41.91	0
1	221342	42.01	0
1	221852	42.11	0
1	222362	42.21	0
1	222872	42.31	0
1	223382	42.41	0
1	223892	42.51	0
1	224402	42.61	0
1	224912	42.71	0
1	225422	42.81	0
1	225932	42.91	0
1	226450	43.01	0
1	226960	43.11	0
1	227470	43.21	0
1	227980	43.31	0
1	228490	43.41	0
1	229000	43.51	0
1	229510	43.61	0
1	230020	43.71	0
1	230530	43.81	0
1	231040	43.91	0
1	231558	44.01	0
1	232068	44.11	0
1	232578	44.21	0
1	233088	44.31	0
1	233598	44.41	0
1	234108	44.51	0
1	234618	44.61	0
1	235128	44.71	0
1	235638	44.81	0
1	236148	44.91	0
1	236666	45.01	0
1	237176	45.11	0
1	237686	45.21	0
1	238196	45.31	0
1	238706	45.41	0
1	239216	45.51	0
1	239726	45.61	0
1	240236	45.71	0
1	240746	45.81	0
1	241256	45.91	0
1	241774	46.01	0
1	242284	46.11	0
1	242794	46.21	0
1	243304	46.31	0
1	243814	46.41	0
1	244324	46.51	0
1	244834	46.61	0
1	245344	46.71	0
1	245854	46.81	0
1	246364	46.91	0
1	246882	47.01	0
1	247392	47.11	0
1	247902	47.21	0
1	248412	47.31	0
1	248922	47.41	0
1	249432	47.51	0
1	249942	47.61	0
1	250452	47.71	0
1	250962	47.81	0
1	251472	47.91	0
1	251990	48.01	0
1	252500	48.11	0
1	253010	48.21	0
1	253520	48.31	0
1	254030	48.41	0
1	254540	48.51	0
1	255050	48.61	0
1	255560	48.71	0
1	256070	48.81	0
1	256580	48.91	0
1	257098	49.01	0
1	257608	49.11	0
1	258118	49.21	0
1	258628	49.31	0
1	259138	49.41	0
1	259648	49.51	0
1	260158	49.61	0
1	260668	49.71	0
1	261178	49.81	0
1	261688	49.91	0
1	262206	50.01	0
1	262716	50.11	0
1	263226	50.21	0
1	263736	50.31	0
1	264246	50.41	0
1	264756	50.51	0
1	265266	50.61	0
1	265776	50.71	0
1	266286	50.81	0
1	266796	50.91	0
1	267314	51.01	0
1	267824	51.11	0
1	268334	51.21	0
1	268844	51.31	0
1	269354	51.41	0
1	269864	51.51	0
1	270374	51.61	0
1	270884	51.71	0
1	271394	51.81	0
1	271904	51.91	0
1	272422	52.01	0
1	272926	52.11	0
1	273424	52.21	0
1	273916	52.31	0
1	274402	52.41	0
1	274882	52.51	0
1	275356	52.61	0
1	275824	52.71	0
1	276292	52.81	0
1	276760	52.91	0
1	277236	53.01	0
1	277704	53.11	0
1	278172	53.21	0
1	278640	53.31	0
1	279108	53.41	0
1	279576	53.51	0
1	280044	53.61	0
1	280512	53.71	0
1	280980	53.81	0
1	281448	53.91	0
1	281924	54.01	0
1	282392	54.11	0
1	282860	54.21	0
1	283328	54.31	0
1	283796	54.41	0
1	284264	54.51	0
1	284732	54.61	0
1	285200	54.71	0
1	285668	54.81	0
1	286136	54.91	0
1	286612	55.01	0
1	287080	55.11	0
1	287548	55.21	0
1	288016	55.31	0
1	288484	55.41	0
1	288952	55.51	0
1	289420	55.61	0
1	289888	55.71	0
1	290356	55.81	0
1	290824	55.91	0
1	291300	56.01	0
1	291768	56.11	0
1	292236	56.21	0
1	292704	56.31	0
1	293172	56.41	0
1	293640	56.51	0
1	294108	56.61	0
1	294576	56.71	0
1	295044	56.81	0
1	295512	56.91	0
1	295988	57.01	0
1	296456	57.11	0
1	296924	57.21	0
1	297392	57.31	0
1	297860	57.41	0
1	298328	57.51	0
1	298796	57.61	0
1	299264	57.71	0
1	299732	57.81	0
1	300200	57.91	0
1	300676	58.01	0
1	301144	58.11	0
1	301612	58.21	0
1	302080	58.31	0
1	302548	58.41	0
1	303016	58.51	0
1	303484	58.61	0
1	303952	58.71	0
1	304420	58.81	0
1	304888	58.91	0
1	305364	59.01	0
1	305832	59.11	0
1	306300	59.21	0
1	306768	59.31	0
1	307236	59.41	0
1	307704	59.51	0
1	308172	59.61	0
1	308640	59.71	0
1	309108	59.81	0
1	309576	59.91	0
1	310052	60.01	0
1	310520	60.11	0
1	310988	60.21	0
1	311456	60.31	0
1	311924	60.41	0
1	312392	60.51	0
1	312860	60.61	0
1	313328	60.71	0
1	313796	60.81	0
1	314264	60.91	0
1	314740	61.01	0
1	315208	61.11	0
1	315676	61.21	0
1	316144	61.31	0
1	316612	61.41	0
1	317080	61.51	0
1	317548	61.61	0
1	318016	61.71	0
1	318484	61.81	0
1	318952	61.91	0
1	319428	62.01	0
1	319896	62.11	0
1	320364	62.21	0
1	320832	62.31	0
1	321300	62.41	0
1	321768	62.51	0
1	322236	62.61	0
1	322704	62.71	0
1	323172	62.81	0
1	323640	62.91	0
1	324116	63.01	0
1	324584	63.11	0
1	325052	63.21	0
1	325520	63.31	0
1	325988	63.41	0
1	326456	63.51	0
1	326924	63.61	0
1	327392	63.71	0
1	327860	63.81	0
1	328328	63.91	0
1	328804	64.01	0
1	329272	64.11	0
1	329740	64.21	0
1	330208	64.31	0
1	330676	64.41	0
1	331144	64.51	0
1	331612	64.61	0
1	332080	64.71	0
1	332548	64.81	0
1	333016	64.91	0
1	333492	65.01	0
1	333960	65.11	0
1	334428	65.21	0
1	334896	65.31	0
1	335364	65.41	0
1	335832	65.51	0
1	336300	65.61	0
1	336768	65.71	0
1	337232	65.81	0
1	337690	65.91	0
1	338154	66.01	0
1	338604	66.11	0
1	339050	66.21	0
1	339492	66.31	0
1	339932	66.41	0
1	340372	66.51	0
1	340812	66.61	0
1	341252	66.71	0
1	341692	66.81	0
1	342132	66.91	0
1	342580	67.01	0
1	343020	67.11	0
1	343460	67.21	0
1	343900	67.31	0
1	344340	67.41	0
1	344780	67.51	0
1	345220	67.61	0
1	345660	67.71	0
1	346100	67.81	0
1	346540	67.91	0
1	346988	68.01	0
1	347428	68.11	0
1	347868	68.21	0
1	348308	68.31	0
1	348748	68.41	0
1	349188	68.51	0
1	349628	68.61	0
1	350068	68.71	0
1	350508	68.81	0
1	350948	68.91	0
1	351396	69.01	0
1	351836	69.11	0
1	352276	69.21	0
1	352716	69.31	0
1	353156	69.41	0
1	353596	69.51	0
1	354036	69.61	0
1	354476	69.71	0
1	354916	69.81	0
1	355356	69.91	0
1	355804	70.01	0
1	356244	70.11	0
1	356684	70.21	0
1	357124	70.31	0
1	357564	70.41	0
1	358004	70.51	0
1	358444	70.61	0
1	358884	70.71	0
1	359324	70.81	0
1	359764	70.91	0
1	360212	71.01	0
1	360652	71.11	0
1	361092	71.21	0
1	361532	71.31	0
1	361972	71.41	0
1	362412	71.51	0
1	362852	71.61	0
1	363292	71.71	0
1	363732	71.81	0
1	364172	71.91	0
1	364620	72.01	0
1	365060	72.11	0
1	365500	72.21	0
1	365940	72.31	0
1	366380	72.41	0
1	366820	72.51	0
1	367260	72.61	0
1	367700	72.71	0
1	368140	72.81	0
1	368580	72.91	0
1	369028	73.01	0
1	369468	73.11	0
1	369908	73.21	0
1	370348	73.31	0
1	370788	73.41	0
1	371228	73.51	0
1	371668	73.61	0
1	372108	73.71	0
1	372548	73.81	0
1	372988	73.91	0
1	373436	74.01	0
1	373876	74.11	0
1	374316	74.21	0
1	374756	74.31	0
1	375196	74.41	0
1	375636	74.51	0
1	376076	74.61	0
1	376516	74.71	0
1	376956	74.81	0
1	377396	74.91	0
1	377844	75.01	0
1	378284	75.11	0
1	378724	75.21	0
1	379164	75.31	0
1	379604	75.41	0
1	380044	75.51	0
1	380484	75.61	0
1	380924	75.71	0
1	381364	75.81	0
1	381804	75.91	0
1	382252	76.01	0
1	382692	76.11	0
1	383132	76.21	0
1	383572	76.31	0
1	384012	76.41	0
1	384452	76.51	0
1	384892	76.61	0
1	385332	76.71	0
1	385772	76.81	0
1	386212	76.91	0
1	386660	77.01	0
1	387100	77.11	0
1	387540	77.21	0
1	387980	77.31	0
1	388420	77.41	0
1	388860	77.51	0
1	389300	77.61	0
1	389740	77.71	0
1	390180	77.81	0
1	390620	77.91	0
1	391068	78.01	0
1	391508	78.11	0
1	391948	78.21	0
1	392388	78.31	0
1	392828	78.41	0
1	393268	78.51	0
1	393708	78.61	0
1	394148	78.71	0
1	394588	78.81	0
1	395028	78.91	0
1	395476	79.01	0
1	395916	79.11	0
1	396356	79.21	0
1	396796	79.31	0
1	397236	79.41	0
1	397676	79.51	0
1	398116	79.61	0
1	398556	79.71	0
1	398996	79.81	0
1	399436	79.91	0
1	399884	80.01	0
1	400324	80.11	0
1	400764	80.21	0
1	401204	80.31	0
1	401644	80.41	0
1	402084	80.51	0
1	402524	80.61	0
1	402964	80.71	0
1	403404	80.81	0
1	403844	80.91	0
1	404292	81.01	0
1	404732	81.11	0
1	405172	81.21	0
1	405612	81.31	0
1	406052	81.41	0
1	406492	81.51	0
1	406932	81.61	0
1	407372	81.71	0
1	407812	81.81	0
1	408252	81.91	0
1	408700	82.01	0
1	409140	82.11	0
1	409580	82.21	0
1	410020	82.31	0
1	410460	82.41	0
1	410900	82.51	0
1	411340	82.61	0
1	411780	82.71	0
1	412220	82.81	0
1	412660	82.91	0
1	413108	83.01	0
1	413548	83.11	0
1	413988	83.21	0
1	414428	83.31	0
1	414868	83.41	0
1	415308	83.51	0
1	415748	83.61	0
1	416188	83.71	0
1	416628	83.81	0
1	417068	83.91	0
1	417516	84.01	0
1	417956	84.11	0
1	418396	84.21	0
1	418836	84.31	0
1	419276	84.41	0
1	419716	84.51	0
1	420156	84.61	0
1	420596	84.71	0
1	421036	84.81	0
1	421476	84.91	0
1	421924	85.01	0
1	422364	85.11	0
1	422804	85.21	0
1	423244	85.31	0
1	423684	85.41	0
1	424124	85.51	0
1	424564	85.61	0
1	425004	85.71	0
1	425444	85.81	0
1	425884	85.91	0
1	426332	86.01	0
1	426772	86.11	0
1	427212	86.21	0
1	427652	86.31	0
1	428092	86.41	0
1	428532	86.51	0
1	428972	86.61	0
1	429412	86.71	0
1	429852	86.81	0
1	430292	86.91	0
1	430740	87.01	0
1	431180	87.11	0
1	431620	87.21	0
1	432060	87.31	0
1	432500	87.41	0
1	432940	87.51	0
1	433380	87.61	0
1	433820	87.71	0
1	434260	87.81	0
1	434700	87.91	0
1	435148	88.01	0
1	435588	88.11	0
1	436028	88.21	0
1	436468	88.31	0
1	436908	88.41	0
1	437348	88.51	0
1	437788	88.61	0
1	438228	88.71	0
1	438668	88.81	0
1	439108	88.91	0
1	439556	89.01	0
1	439996	89.11	0
1	440436	89.21	0
1	440876	89.31	0
1	441316	89.41	0
1	441756	89.51	0
1	442196	89.61	0
1	442636	89.71	0
1	443076	89.81	0
1	443516	89.91	0
1	443964	90.01	0
1	444404	90.11	0
1	444844	90.21	0
1	445284	90.31	0
1	445724	90.41	0
1	446164	90.51	0
1	446604	90.61	0
1	447044	90.71	0
1	447484	90.81	0
1	447924	90.91	0
1	448372	91.01	0
1	448812	91.11	0
1	449252	91.21	0
1	449692	91.31	0
1	450132	91.41	0
1	450572	91.51	0
1	451012	91.61	0
1	451452	91.71	0
1	451892	91.81	0
1	452332	91.91	0
1	452780	92.01	0
1	453220	92.11	0
1	453660	92.21	0
1	454100	92.31	0
1	454540	92.41	0
1	454980	92.51	0
1	455420	92.61	0
1	455860	92.71	0
1	456300	92.81	0
1	456740	92.91	0
1	457188	93.01	0
1	457628	93.11	0
1	458068	93.21	0
1	458508	93.31	0
1	458948	93.41	0
1	459388	93.51	0
1	459828	93.61	0
1	460268	93.71	0
1	460708	93.81	0
1	461148	93.91	0
1	461596	94.01	0
1	462036	94.11	0
1	462476	94.21	0
1	462916	94.31	0
1	463356	94.41	0
1	463796	94.51	0
1	464236	94.61	0
1	464676	94.71	0
1	465116	94.81	0
1	465556	94.91	0
1	466004	95.01	0
1	466444	95.11	0
1	466884	95.21	0
1	467324	95.31	0
1	467764	95.41	0
1	468204	95.51	0
1	468644	95.61	0
1	469084	95.71	0
1	469524	95.81	0
1	469964	95.91	0
1	470412	96.01	0
1	470852	96.11	0
1	471292	96.21	0
1	471732	96.31	0
1	472172	96.41	0
1	472612	96.51	0
1	473052	96.61	0
1	473492	96.71	0
1	473932	96.81	0
1	474372	96.91	0
1	474820	97.01	0
1	475260	97.11	0
1	475700	97.21	0
1	476140	97.31	0
1	476580	97.41	0
1	477020	97.51	0
1	477460	97.61	0
1	477900	97.71	0
1	478340	97.81	0
1	478780	97.91	0
1	479228	98.01	0
1	479668	98.11	0
1	480108	98.21	0
1	480548	98.31	0
1	480988	98.41	0
1	481428	98.51	0
1	481868	98.61	0
1	482308	98.71	0
1	482748	98.81	0
1	483188	98.91	0
1	483636	99.01	0
1	484076	99.11	0
1	484516	99.21	0
1	484956	99.31	0
1	485396	99.41	0
1	485836	99.51	0
1	486276	99.61	0
1	486716	99.71	0
1	487156	99.81	0
1	487596	99.91	0
2	113	1.11	0
2	659	1.21	0
2	1205	1.31	0
2	1751	1.41	0
2	2297	1.51	0
2	2843	1.61	0
2	3389	1.71	0
2	3935	1.81	0
2	4481	1.91	0
2	5035	2.01	0
2	5581	2.11	0
2	6127	2.21	0
2	6673	2.31	0
2	7219	2.41	0
2	7765	2.51	0
2	8311	2.61	0
2	8857	2.71	0
2	9403	2.81	0
2	9949	2.91	0
2	10503	3.01	0
2	11049	3.11	0
2	11595	3.21	0
2	12141	3.31	0
2	12687	3.41	0
2	13233	3.51	0
2	13779	3.61	0
2	14325	3.71	0
2	14871	3.81	0
2	15417	3.91	0
2	15971	4.01	0
2	16517	4.11	0
2	17063	4.21	0
2	17609	4.31	0
2	18155	4.41	0
2	18701	4.51	0
2	19247	4.61	0
2	19793	4.71	0
2	20339	4.81	0
2	20885	4.91	0
2	21439	5.01	0
2	21985	5.11	0
2	22531	5.21	0
2	23077	5.31	0
2	23623	5.41	0
2	24169	5.51	0
2	24715	5.61	0
2	25261	5.71	0
2	25807	5.81	0
2	26353	5.91	0
2	26907	6.01	0
2	27453	6.11	0
2	27999	6.21	0
2	28545	6.31	0
2	29091	6.41	0
2	29637	6.51	0
2	30183	6.61	0
2	30729	6.71	0
2	31275	6.81	0
2	31821	6.91	0
2	32375	7.01	0
2	32921	7.11	0
2	33467	7.21	0
2	34013	7.31	0
2	34559	7.41	0
2	35105	7.51	0
2	35651	7.61	0
2	36197	7.71	0
2	36743	7.81	0
2	37289	7.91	0
2	37843	8.01	0
2	38389	8.11	0
2	38935	8.21	0
2	39481	8.31	0
2	40027	8.41	0
2	40573	8.51	0
2	41119	8.61	0
2	41665	8.71	0
2	42211	8.81	0
2	42757	8.91	0
2	43311	9.01	0
2	43857	9.11	0
2	44403	9.21	0
2	44949	9.31	0
2	45495	9.41	0
2	46041	9.51	0
2	46587	9.61	0
2	47133	9.71	0
2	47679	9.81	0
2	48225	9.91	0
2	48946	10.01	0
2	49498	10.11	0
2	50050	10.21	0
2	50602	10.31	0
2	51154	10.41	0
2	51706	10.51	0
2	52258	10.61	0
2	52810	10.71	0
2	53362	10.81	0
2	53914	10.91	0
2	54474	11.01	0
2	55026	11.11	0
2	55578	11.21	0
2	56130	11.31	0
2	56682	11.41	0
2	57234	11.51	0
2	57786	11.61	0
2	58338	11.71	0
2	58890	11.81	0
2	59442	11.91	0
2	60002	12.01	0
2	60554	12.11	0
2	61106	12.21	0
2	61658	12.31	0
2	62210	12.41	0
2	62762	12.51	0
2	63314	12.61	0
2	63866	12.71	0
2	64418	12.81	0
2	64970	12.91	0
2	65530	13.01	0
2	66082	13.11	0
2	66634	13.21	0
2	67186	13.31	0
2	67738	13.41	0
2	68290	13.51	0
2	68842	13.61	0
2	69394	13.71	0
2	69946	13.81	0
2	70498	13.91	0
2	71058	14.01	0
2	71610	14.11	0
2	72162	14.21	0
2	72714	14.31	0
2	73266	14.41	0
2	73818	14.51	0
2	74370	14.61	0
2	74922	14.71	0
2	75474	14.81	0
2	76026	14.91	0
2	76586	15.01	0
2	77138	15.11	0
2	77690	15.21	0
2	78242	15.31	0
2	78794	15.41	0
2	79346	15.51	0
2	79898	15.61	0
2	80450	15.71	0
2	81002	15.81	0
2	81554	15.91	0
2	82114	16.01	0
2	82666	16.11	0
2	83218	16.21	0
2	83770	16.31	0
2	84322	16.41	0
2	84874	16.51	0
2	85426	16.61	0
2	85978	16.71	0
2	86530	16.81	0
2	87082	16.91	0
2	87642	17.01	0
2	88194	17.11	0
2	88746	17.21	0
2	89298	17.31	0
2	89850	17.41	0
2	90402	17.51	0
2	90954	17.61	0
2	91506	17.71	0
2	92058	17.81	0
2	92610	17.91	0
2	93170	18.01	0
2	93722	18.11	0
2	94274	18.21	0
2	94826	18.31	0
2	95378	18.41	0
2	95930	18.51	0
2	96482	18.61	0
2	97034	18.71	0
2	97586	18.81	0
2	98138	18.91	0
2	98698	19.01	0
2	99250	19.11	0
2	99802	19.21	0
2	100354	19.31	0
2	100906	19.41	0
2	101458	19.51	0
2	102010	19.61	0
2	102562	19.71	0
2	103114	19.81	0
2	103666	19.91	0
2	104226	20.01	0
2	104778	20.11	0
2	105330	20.21	0
2	105882	20.31	0
2	106434	20.41	0
2	106986	20.51	0
2	107538	20.61	0
2	108090	20.71	0
2	108642	20.81	0
2	109194	20.91	0
2	109754	21.01	0
2	110306	21.11	0
2	110858	21.21	0
2	111410	21.31	0
2	111962	21.41	0
2	112514	21.51	0
2	113066	21.61	0
2	113618	21.71	0
2	114170	21.81	0
2	114722	21.91	0
2	115282	22.01	0
2	115834	22.11	0
2	116386	22.21	0
2	116938	22.31	0
2	117490	22.41	0
2	118042	22.51	0
2	118594	22.61	0
2	119146	22.71	0
2	119698	22.81	0
2	120250	22.91	0
2	120810	23.01	0
2	121362	23.11	0
2	121914	23.21	0
2	122466	23.31	0
2	123018	23.41	0
2	123570	23.51	0
2	124122	23.61	0
2	124674	23.71	0
2	125226	23.81	0
2	125778	23.91	0
2	126338	24.01	0
2	126890	24.11	0
2	127442	24.21	0
2	127994	24.31	0
2	128546	24.41	0
2	129098	24.51	0
2	129650	24.61	0
2	130202	24.71	0
2	130754	24.81	0
2	131306	24.91	0
2	131866	25.01	0
2	132418	25.11	0
2	132970	25.21	0
2	133522	25.31	0
2	134074	25.41	0
2	134626	25.51	0
2	135178	25.61	0
2	135730	25.71	0
2	136282	25.81	0
2	136834	25.91	0
2	137394	26.01	0
2	137946	26.11	0
2	138498	26.21	0
2	139050	26.31	0
2	139602	26.41	0
2	140154	26.51	0
2	140706	26.61	0
2	141258	26.71	0
2	141810	26.81	0
2	142362	26.91	0
2	142922	27.01	0
2	143474	27.11	0
2	144026	27.21	0
2	144578	27.31	0
2	145130	27.41	0
2	145682	27.51	0
2	146234	27.61	0
2	146786	27.71	0
2	147338	27.81	0
2	147890	27.91	0
2	148450	28.01	0
2	149002	28.11	0
2	149551	28.21	0
2	150100	28.31	0
2	150649	28.41	0
2	151201	28.51	0
2	151753	28.61	0
2	152302	28.71	0
2	152854	28.81	0
2	153406	28.91	0
2	153960	29.01	0
2	154509	29.11	0
2	155058	29.21	0
2	155610	29.31	0
2	156162	29.41	0
2	156708	29.51	0
2	157257	29.61	0
2	157806	29.71	0
2	158352	29.81	0
2	158895	29.91	0
2	159449	30.01	0
2	159995	30.11	0
2	160538	30.21	0
2	161084	30.31	0
2	161630	30.41	0
2	162182	30.51	0
2	162725	30.61	0
2	163253	30.71	0
2	163796	30.81	0
2	164336	30.91	0
2	164881	31.01	0
2	165421	31.11	0
2	165961	31.21	0
2	166498	31.31	0
2	167023	31.41	0
2	167551	31.51	0
2	168082	31.61	0
2	168610	31.71	0
2	169138	31.81	0
2	169663	31.91	0
2	170190	32.01	0
2	170712	32.11	0
2	171240	32.21	0
2	171759	32.31	0
2	172284	32.41	0
2	172797	32.51	0
2	173310	32.61	0
2	173820	32.71	0
2	174330	32.81	0
2	174843	32.91	0
2	175361	33.01	0
2	175871	33.11	0
2	176387	33.21	0
2	176897	33.31	0
2	177410	33.41	0
2	177920	33.51	0
2	178430	33.61	0
2	178940	33.71	0
2	179450	33.81	0
2	179960	33.91	0
2	180478	34.01	0
2	180988	34.11	0
2	181498	34.21	0
2	182008	34.31	0
2	182518	34.41	0
2	183028	34.51	0
2	183538	34.61	0
2	184048	34.71	0
2	184558	34.81	0
2	185068	34.91	0
2	185586	35.01	0
2	186096	35.11	0
2	186606	35.21	0
2	187116	35.31	0
2	187626	35.41	0
2	188136	35.51	0
2	188646	35.61	0
2	189156	35.71	0
2	189666	35.81	0
2	190176	35.91	0
2	190694	36.01	0
2	191204	36.11	0
2	191714	36.21	0
2	192224	36.31	0
2	192734	36.41	0
2	193244	36.51	0
2	193754	36.61	0
2	194264	36.71	0
2	194774	36.81	0
2	195284	36.91	0
2	195802	37.01	0
2	196312	37.11	0
2	196822	37.21	0
2	197332	37.31	0
2	197842	37.41	0
2	198352	37.51	0
2	198862	37.61	0
2	199372	37.71	0
2	199882	37.81	0
2	200392	37.91	0
2	200910	38.01	0
2	201420	38.11	0
2	201930	38.21	0
2	202440	38.31	0
2	202950	38.41	0
2	203460	38.51	0
2	203970	38.61	0
2	204480	38.71	0
2	204990	38.81	0
2	205500	38.91	0
2	206018	39.01	0
2	206528	39.11	0
2	207038	39.21	0
2	207548	39.31	0
2	208058	39.41	0
2	208568	39.51	0
2	209078	39.61	0
2	209588	39.71	0
2	210098	39.81	0
2	210608	39.91	0
2	211126	40.01	0
2	211636	40.11	0
2	212146	40.21	0
2	212656	40.31	0
2	213166	40.41	0
2	213676	40.51	0
2	214186	40.61	0
2	214696	40.71	0
2	215206	40.81	0
2	215716	40.91	0
2	216234	41.01	0
2	216744	41.11	0
2	217254	41.21	0
2	217764	41.31	0
2	218274	41.41	0
2	218784	41.51	0
2	219294	41.61	0
2	219804	41.71	0
2	220314	41.81	0
2	220824	41.91	0
2	221342	42.01	0
2	221852	42.11	0
2	222362	42.21	0
2	222872	42.31	0
2	223382	42.41	0
2	223892	42.51	0
2	224402	42.61	0
2	224912	42.71	0
2	225422	42.81	0
2	225932	42.91	0
2	226450	43.01	0
2	226960	43.11	0
2	227470	43.21	0
2	227980	43.31	0
2	228490	43.41	0
2	229000	43.51	0
2	229510	43.61	0
2	230020	43.71	0
2	230530	43.81	0
2	231040	43.91	0
2	231558	44.01	0
2	232068	44.11	0
2	232578	44.21	0
2	233088	44.31	0
2	233598	44.41	0
2	234108	44.51	0
2	234618	44.61	0
2	235128	44.71	0
2	235638	44.81	0
2	236148	44.91	0
2	236666	45.01	0
2	237176	45.11	0
2	237686	45.21	0
2	238196	45.31	0
2	238706	45.41	0
2	239216	45.51	0
2	239726	45.61	0
2	240236	45.71	0
2	240746	45.81	0
2	241256	45.91	0
2	241774	46.01	0
2	242284	46.11	0
2	242794	46.21	0
2	243304	46.31	0
2	243814	46.41	0
2	244324	46.51	0
2	244834	46.61	0
2	245344	46.71	0
2	245854	46.81	0
2	246364	46.91	0
2	246882	47.01	0
2	247392	47.11	0
2	247902	47.21	0
2	248412	47.31	0
2	248922	47.41	0
2	249432	47.51	0
2	249942	47.61	0
2	250452	47.71	0
2	250962	47.81	0
2	251472	47.91	0
2	251990	48.01	0
2	252500	48.11	0
2	253010	48.21	0
2	253520	48.31	0
2	254030	48.41	0
2	254540	48.51	0
2	255050	48.61	0
2	255560	48.71	0
2	256070	48.81	0
2	256580	48.91	0
2	257098	49.01	0
2	257608	49.11	0
2	258118	49.21	0
2	258628	49.31	0
2	259138	49.41	0
2	259648	49.51	0
2	260158	49.61	0
2	260668	49.71	0
2	261178	49.81	0
2	261688	49.91	0
2	262206	50.01	0
2	262716	50.11	0
2	263226	50.21	0
2	263736	50.31	0
2	264246	50.41	0
2	264756	50.51	0
2	265266	50.61	0
2	265776	50.71	0
2	266286	50.81	0
2	266796	50.91	0
2	267314	51.01	0
2	267824	51.11	0
2	268334	51.21	0
2	268844	51.31	0
2	269354	51.41	0
2	269864	51.51	0
2	270374	51.61	0
2	270884	51.71	0
2	271394	51.81	0
2	271904	51.91	0
2	272422	52.01	0
2	272926	52.11	0
2	273424	52.21	0
2	273916	52.31	0
2	274402	52.41	0
2	274882	52.51	0
2	275356	52.61	0
2	275824	52.71	0
2	276292	52.81	0
2	276760	52.91	0
2	277236	53.01	0
2	277704	53.11	0
2	278172	53.21	0
2	278640	53.31	0
2	279108	53.41	0
2	279576	53.51	0
2	280044	53.61	0
2	280512	53.71	0
2	280980	53.81	0
2	281448	53.91	0
2	281924	54.01	0
2	282392	54.11	0
2	282860	54.21	0
2	283328	54.31	0
2	283796	54.41	0
2	284264	54.51	0
2	284732	54.61	0
2	285200	54.71	0
2	285668	54.81	0
2	286136	54.91	0
2	286612	55.01	0
2	287080	55.11	0
2	287548	55.21	0
2	288016	55.31	0
2	288484	55.41	0
2	288952	55.51	0
2	289420	55.61	0
2	289888	55.71	0
2	290356	55.81	0
2	290824	55.91	0
2	291300	56.01	0
2	291768	56.11	0
2	292236	56.21	0
2	292704	56.31	0
2	293172	56.41	0
2	293640	56.51	0
2	294108	56.61	0
2	294576	56.71	0
2	295044	56.81	0
2	295512	56.91	0
2	295988	57.01	0
2	296456	57.11	0
2	296924	57.21	0
2	297392	57.31	0
2	297860	57.41	0
2	298328	57.51	0
2	298796	57.61	0
2	299264	57.71	0
2	299732	57.81	0
2	300200	57.91	0
2	300676	58.01	0
2	301144	58.11	0
2	301612	58.21	0
2	302080	58.31	0
2	302548	58.41	0
2	303016	58.51	0
2	303484	58.61	0
2	303952	58.71	0
2	304420	58.81	0
2	304888	58.91	0
2	305364	59.01	0
2	305832	59.11	0
2	306300	59.21	0
2	306768	59.31	0
2	307236	59.41	0
2	307704	59.51	0
2	308172	59.61	0
2	308640	59.71	0
2	309108	59.81	0
2	309576	59.91	0
2	310052	60.01	0
2	310520	60.11	0
2	310988	60.21	0
2	311456	60.31	0
2	311924	60.41	0
2	312392	60.51	0
2	312860	60.61	0
2	313328	60.71	0
2	313796	60.81	0
2	314264	60.91	0
2	314740	61.01	0
2	315208	61.11	0
2	315676	61.21	0
2	316144	61.31	0
2	316612	61.41	0
2	317080	61.51	0
2	317548	61.61	0
2	318016	61.71	0
2	318484	61.81	0
2	318952	61.91	0
2	319428	62.01	0
2	319896	62.11	0
2	320364	62.21	0
2	320832	62.31	0
2	321300	62.41	0
2	321768	62.51	0
2	322236	62.61	0
2	322704	62.71	0
2	323172	62.81	0
2	323640	62.91	0
2	324116	63.01	0
2	324584	63.11	0
2	325052	63.21	0
2	325520	63.31	0
2	325988	63.41	0
2	326456	63.51	0
2	326924	63.61	0
2	327392	63.71	0
2	327860	63.81	0
2	328328	63.91	0
2	328804	64.01	0
2	329272	64.11	0
2	329740	64.21	0
2	330208	64.31	0
2	330676	64.41	0
2	331144	64.51	0
2	331612	64.61	0
2	332080	64.71	0
2	332548	64.81	0
2	333016	64.91	0
2	333492	65.01	0
2	333960	65.11	0
2	334428	65.21	0
2	334896	65.31	0
2	335364	65.41	0
2	335832	65.51	0
2	336300	65.61	0
2	336768	65.71	0
2	337232	65.81	0
2	337690	65.91	0
2	338154	66.01	0
2	338604	66.11	0
2	339050	66.21	0
2	339492	66.31	0
2	339932	66.41	0
2	340372	66.51	0
2	340812	66.61	0
2	341252	66.71	0
2	341692	66.81	0
2	342132	66.91	0
2	342580	67.01	0
2	343020	67.11	0
2	343460	67.21	0
2	343900	67.31	0
2	344340	67.41	0
2	344780	67.51	0
2	345220	67.61	0
2	345660	67.71	0
2	346100	67.81	0
2	346540	67.91	0
2	346988	68.01	0
2	347428	68.11	0
2	347868	68.21	0
2	348308	68.31	0
2	348748	68.41	0
2	349188	68.51	0
2	349628	68.61	0
2	350068	68.71	0
2	350508	68.81	0
2	350948	68.91	0
2	351396	69.01	0
2	351836	69.11	0
2	352276	69.21	0
2	352716	69.31	0
2	353156	69.41	0
2	353596	69.51	0
2	354036	69.61	0
2	354476	69.71	0
2	354916	69.81	0
2	355356	69.91	0
2	355804	70.01	0
2	356244	70.11	0
2	356684	70.21	0
2	357124	70.31	0
2	357564	70.41	0
2	358004	70.51	0
2	358444	70.61	0
2	358884	70.71	0
2	359324	70.81	0
2	359764	70.91	0
2	360212	71.01	0
2	360652	71.11	0
2	361092	71.21	0
2	361532	71.31	0
2	361972	71.41	0
2	362412	71.51	0
2	362852	71.61	0
2	363292	71.71	0
2	363732	71.81	0
2	364172	71.91	0
2	364620	72.01	0
2	365060	72.11	0
2	365500	72.21	0
2	365940	72.31	0
2	366380	72.41	0
2	366820	72.51	0
2	367260	72.61	0
2	367700	72.71	0
2	368140	72.81	0
2	368580	72.91	0
2	369028	73.01	0
2	369468	73.11	0
2	369908	73.21	0
2	370348	73.31	0
2	370788	73.41	0
2	371228	73.51	0
2	371668	73.61	0
2	372108	73.71	0
2	372548	73.81	0
2	372988	73.91	0
2	373436	74.01	0
2	373876	74.11	0
2	374316	74.21	0
2	374756	74.31	0
2	375196	74.41	0
2	375636	74.51	0
2	376076	74.61	0
2	376516	74.71	0
2	376956	74.81	0
2	377396	74.91	0
2	377844	75.01	0
2	378284	75.11	0
2	378724	75.21	0
2	379164	75.31	0
2	379604	75.41	0
2	380044	75.51	0
2	380484	75.61	0
2	380924	75.71	0
2	381364	75.81	0
2	381804	75.91	0
2	382252	76.01	0
2	382692	76.11	0
2	383132	76.21	0
2	383572	76.31	0
2	384012	76.41	0
2	384452	76.51	0
2	384892	76.61	0
2	385332	76.71	0
2	385772	76.81	0
2	386212	76.91	0
2	386660	77.01	0
2	387100	77.11	0
2	387540	77.21	0
2	387980	77.31	0
2	388420	77.41	0
2	388860	77.51	0
2	389300	77.61	0
2	389740	77.71	0
2	390180	77.81	0
2	390620	77.91	0
2	391068	78.01	0
2	391508	78.11	0
2	391948	78.21	0
2	392388	78.31	0
2	392828	78.41	0
2	393268	78.51	0
2	393708	78.61	0
2	394148	78.71	0
2	394588	78.81	0
2	395028	78.91	0
2	395476	79.01	0
2	395916	79.11	0
2	396356	79.21	0
2	396796	79.31	0
2	397236	79.41	0
2	397676	79.51	0
2	398116	79.61	0
2	398556	79.71	0
2	398996	79.81	0
2	399436	79.91	0
2	399884	80.01	0
2	400324	80.11	0
2	400764	80.21	0
2	401204	80.31	0
2	401644	80.41	0
2	402084	80.51	0
2	402524	80.61	0
2	402964	80.71	0
2	403404	80.81	0
2	403844	80.91	0
2	404292	81.01	0
2	404732	81.11	0
2	405172	81.21	0
2	405612	81.31	0
2	406052	81.41	0
2	406492	81.51	0
2	406932	81.61	0
2	407372	81.71	0
2	407812	81.81	0
2	408252	81.91	0
2	408700	82.01	0
2	409140	82.11	0
2	409580	82.21	0
2	410020	82.31	0
2	410460	82.41	0
2	410900	82.51	0
2	411340	82.61	0
2	411780	82.71	0
2	412220	82.81	0
2	412660	82.91	0
2	413108	83.01	0
2	413548	83.11	0
2	413988	83.21	0
2	414428	83.31	0
2	414868	83.41	0
2	415308	83.51	0
2	415748	83.61	0
2	416188	83.71	0
2	416628	83.81	0
2	417068	83.91	0
2	417516	84.01	0
2	417956	84.11	0
2	418396	84.21	0
2	418836	84.31	0
2	419276	84.41	0
2	419716	84.51	0
2	420156	84.61	0
2	420596	84.71	0
2	421036	84.81	0
2	421476	84.91	0
2	421924	85.01	0
2	422364	85.11	0
2	422804	85.21	0
2	423244	85.31	0
2	423684	85.41	0
2	424124	85.51	0
2	424564	85.61	0
2	425004	85.71	0
2	425444	85.81	0
2	425884	85.91	0
2	426332	86.01	0
2	426772	86.11	0
2	427212	86.21	0
2	427652	86.31	0
2	428092	86.41	0
2	428532	86.51	0
2	428972	86.61	0
2	429412	86.71	0
2	429852	86.81	0
2	430292	86.91	0
2	430740	87.01	0
2	431180	87.11	0
2	431620	87.21	0
2	432060	87.31	0
2	432500	87.41	0
2	432940	87.51	0
2	433380	87.61	0
2	433820	87.71	0
2	434260	87.81	0
2	434700	87.91	0
2	435148	88.01	0
2	435588	88.11	0
2	436028	88.21	0
2	436468	88.31	0
2	436908	88.41	0
2	437348	88.51	0
2	437788	88.61	0
2	438228	88.71	0
2	438668	88.81	0
2	439108	88.91	0
2	439556	89.01	0
2	439996	89.11	0
2	440436	89.21	0
2	440876	89.31	0
2	441316	89.41	0
2	441756	89.51	0
2	442196	89.61	0
2	442636	89.71	0
2	443076	89.81	0
2	443516	89.91	0
2	443964	90.01	0
2	444404	90.11	0
2	444844	90.21	0
2	445284	90.31	0
2	445724	90.41	0
2	446164	90.51	0
2	446604	90.61	0
2	447044	90.71	0
2	447484	90.81	0
2	447924	90.91	0
2	448372	91.01	0
2	448812	91.11	0
2	449252	91.21	0
2	449692	91.31	0
2	450132	91.41	0
2	450572	91.51	0
2	451012	91.61	0
2	451452	91.71	0
2	451892	91.81	0
2	452332	91.91	0
2	452780	92.01	0
2	453220	92.11	0
2	453660	92.21	0
2	454100	92.31	0
2	454540	92.41	0
2	454980	92.51	0
2	455420	92.61	0
2	455860	92.71	0
2	456300	92.81	0
2	456740	92.91	0
2	457188	93.01	0
2	457628	93.11	0
2	458068	93.21	0
2	458508	93.31	0
2	458948	93.41	0
2	459388	93.51	0
2	459828	93.61	0
2	460268	93.71	0
2	460708	93.81	0
2	461148	93.91	0
2	461596	94.01	0
2	462036	94.11	0
2	462476	94.21	0
2	462916	94.31	0
2	463356	94.41	0
2	463796	94.51	0
2	464236	94.61	0
2	464676	94.71	0
2	465116	94.81	0
2	465556	94.91	0
2	466004	95.01	0
2	466444	95.11	0
2	466884	95.21	0
2	467324	95.31	0
2	467764	95.41	0
2	468204	95.51	0
2	468644	95.61	0
2	469084	95.71	0
2	469524	95.81	0
2	469964	95.91	0
2	470412	96.01	0
2	470852	96.11	0
2	471292	96.21	0
2	471732	96.31	0
2	472172	96.41	0
2	472612	96.51	0
2	473052	96.61	0
2	473492	96.71	0
2	473932	96.81	0
2	474372	96.91	0
2	474820	97.01	0
2	475260	97.11	0
2	475700	97.21	0
2	476140	97.31	0
2	476580	97.41	0
2	477020	97.51	0
2	477460	97.61	0
2	477900	97.71	0
2	478340	97.81	0
2	478780	97.91	0
2	479228	98.01	0
2	479668	98.11	0
2	480108	98.21	0
2	480548	98.31	0
2	480988	98.41	0
2	481428	98.51	0
2	481868	98.61	0
2	482308	98.71	0
2	482748	98.81	0
2	483188	98.91	0
2	483636	99.01	0
2	484076	99.11	0
2	484516	99.21	0
2	484956	99.31	0
2	485396	99.41	0
2	485836	99.51	0
2	486276	99.61	0
2	486716	99.71	0
2	487156	99.81	0
2	487596	99.91	0
3	113	1.11	-0.000537287
3	659	1.21	-0.00102256
3	1205	1.31	-0.0014023
3	1751	1.41	-0.00168868
3	2297	1.51	-0.00189332
3	2843	1.61	-0.00202724
3	3389	1.71	-0.00210073
3	3935	1.81	-0.00212335
3	4481	1.91	-0.00210382
3	5035	2.01	-0.00205006
3	5581	2.11	-0.00196919
3	6127	2.21	-0.00186754
3	6673	2.31	-0.00175064
3	7219	2.41	-0.00162335
3	7765	2.51	-0.00148981
3	8311	2.61	-0.00135354
3	8857	2.71	-0.00121748
3	9403	2.81	-0.00108402
3	9949	2.91	-0.000955094
3	10503	3.01	-0.0008322
3	11049	3.11	-0.000716459
3	11595	3.21	-0.00060866
3	12141	3.31	-0.00050931
3	12687	3.41	-0.000418674
3	13233	3.51	-0.000336812
3	13779	3.61	-0.000263615
3	14325	3.71	-0.00019884
3	14871	3.81	-0.000142136
3	15417	3.91	-9.30689e-05
3	15971	4.01	-5.11479e-05
3	16517	4.11	-1.58407e-05
3	17063	4.21	1.34077e-05
3	17609	4.31	3.7161e-05
3	18155	4.41	5.59805e-05
3	18701	4.51	7.0415e-05
3	19247	4.61	8.09934e-05
3	19793	4.71	8.82186e-05
3	20339	4.81	9.25636e-05
3	20885	4.91	9.44677e-05
3	21439	5.01	9.43354e-05
3	21985	5.11	9.25349e-05
3	22531	5.21	8.93982e-05
3	23077	5.31	8.52216e-05
3	23623	5.41	8.02667e-05
3	24169	5.51	7.47624e-05
3	24715	5.61	6.8906e-05
3	25261	5.71	6.28658e-05
3	25807	5.81	5.67832e-05
3	26353	5.91	5.07749e-05
3	26907	6.01	4.49353e-05
3	27453	6.11	3.93388e-05
3	27999	6.21	3.40422e-05
3	28545	6.31	2.90866e-05
3	29091	6.41	2.44995e-05
3	29637	6.51	2.02971e-05
3	30183	6.61	1.64857e-05
3	30729	6.71	1.30632e-05
3	31275	6.81	1.00213e-05
3	31821	6.91	7.34621e-06
3	32375	7.01	5.0199e-06
3	32921	7.11	3.02148e-06
3	33467	7.21	1.32788e-06
3	34013	7.31	-8.52687e-08
3	34559	7.41	-1.24302e-06
3	35105	7.51	-2.17048e-06
3	35651	7.61	-2.89239e-06
3	36197	7.71	-3.43273e-06
3	36743	7.81	-3.81443e-06
3	37289	7.91	-4.05915e-06
3	37843	8.01	-4.18709e-06
3	38389	8.11	-4.21695e-06
3	38935	8.21	-4.16581e-06
3	39481	8.31	-4.04914e-06
3	40027	8.41	-3.88081e-06
3	40573	8.51	-3.67311e-06
3	41119	8.61	-3.43684e-06
3	41665	8.71	-3.18138e-06
3	42211	8.81	-2.91475e-06
3	42757	8.91	-2.64374e-06
3	43311	9.01	-2.37401e-06
3	43857	9.11	-2.11015e-06
3	44403	9.21	-1.85584e-06
3	44949	9.31	-1.61394e-06
3	45495	9.41	-1.38655e-06
3	46041	9.51	-1.17514e-06
3	46587	9.61	-9.8063e-07
3	47133	9.71	-8.03478e-07
3	47679	9.81	-6.4374e-07
3	48225	9.91	-5.01153e-07
3	48946	10.01	-3.75194e-07
3	49498	10.11	-2.65135e-07
3	50050	10.21	-1.70092e-07
3	50602	10.31	-8.90743e-08
3	51154	10.41	-2.10129e-08
3	51706	10.51	3.51982e-08
3	52258	10.61	8.06793e-08
3	52810	10.71	1.16543e-07
3	53362	10.81	1.43872e-07
3	53914	10.91	1.63713e-07
3	54474	11.01	1.77052e-07
3	55026	11.11	1.84819e-07
3	55578	11.21	1.87876e-07
3	56130	11.31	1.87014e-07
3	56682	11.41	1.82953e-07
3	57234	11.51	1.7634e-07
3	57786	11.61	1.67752e-07
3	58338	11.71	1.57699e-07
3	58890	11.81	1.46622e-07
3	59442	11.91	1.34906e-07
3	60002	12.01	1.22874e-07
3	60554	12.11	1.10801e-07
3	61106	12.21	9.89097e-08
3	61658	12.31	8.73804e-08
3	62210	12.41	7.63556e-08
3	62762	12.51	6.59412e-08
3	63314	12.61	5.62153e-08
3	63866	12.71	4.72291e-08
3	64418	12.81	3.90095e-08
3	64970	12.91	3.15666e-08
3	65530	13.01	2.48953e-08
3	66082	13.11	1.8975e-08
3	66634	13.21	1.37796e-08
3	67186	13.31	9.26903e-09
3	67738	13.41	5.40297e-09
3	68290	13.51	2.13376e-09
3	68842	13.61	-5.85487e-10
3	69394	13.71	-2.80593e-09
3	69946	13.81	-4.57732e-09
3	70498	13.91	-5.94866e-09
3	71058	14.01	-6.96758e-09
3	71610	14.11	-7.67812e-09
3	72162	14.21	-8.12292e-09
3	72714	14.31	-8.34106e-09
3	73266	14.41	-8.3709e-09
3	73818	14.51	-8.24443e-09
3	74370	14.61	-7.99361e-09
3	74922	14.71	-7.64544e-09
3	75474	14.81	-7.22338e-09
3	76026	14.91	-6.74589e-09
3	76586	15.01	-6.23359e-09
3	77138	15.11	-5.70139e-09
3	77690	15.21	-5.16138e-09
3	78242	15.31	-4.62634e-09
3	78794	15.41	-4.10481e-09
3	79346	15.51	-3.60387e-09
3	79898	15.61	-3.12781e-09
3	80450	15.71	-2.68088e-09
3	81002	15.81	-2.26663e-09
3	81554	15.91	-1.88649e-09
3	82114	16.01	-1.54046e-09
3	82666	16.11	-1.22782e-09
3	83218	16.21	-9.50706e-10
3	83770	16.31	-7.06279e-10
3	84322	16.41	-4.92406e-10
3	84874	16.51	-3.09086e-10
3	85426	16.61	-1.52767e-10
3	85978	16.71	-2.13163e-11
3	86530	16.81	8.66862e-11
3	87082	16.91	1.73372e-10
3	87642	17.01	2.41585e-10
3	88194	17.11	2.92744e-10
3	88746	17.21	3.29692e-10
3	89298	17.31	3.54561e-10
3	89850	17.41	3.68061e-10
3	90402	17.51	3.72324e-10
3	90954	17.61	3.69482e-10
3	91506	17.71	3.60956e-10
3	92058	17.81	3.46745e-10
3	92610	17.91	3.28981e-10
3	93170	18.01	3.07665e-10
3	93722	18.11	2.86349e-10
3	94274	18.21	2.65032e-10
3	94826	18.31	2.43716e-10
3	95378	18.41	2.20979e-10
3	95930	18.51	1.99663e-10
3	96482	18.61	1.78346e-10
3	97034	18.71	1.5703e-10
3	97586	18.81	1.35714e-10
3	98138	18.91	1.14397e-10
3	98698	19.01	9.30811e-11
3	99250	19.11	7.74492e-11
3	99802	19.21	6.32383e-11
3	100354	19.31	4.90274e-11
3	100906	19.41	3.48166e-11
3	101458	19.51	2.41585e-11
3	102010	19.61	1.7053e-11
3	102562	19.71	9.9476e-12
3	103114	19.81	2.84217e-12
3	103666	19.91	-4.26326e-12
3	104226	20.01	-1.13687e-11
3	104778	20.11	-1.20792e-11
3	105330	20.21	-1.20792e-11
3	105882	20.31	-1.20792e-11
3	106434	20.41	-1.20792e-11
3	106986	20.51	-1.20792e-11
3	107538	20.61	-1.20792e-11
3	108090	20.71	-1.20792e-11
3	108642	20.81	-1.20792e-11
3	109194	20.91	-1.20792e-11
3	109754	21.01	-1.20792e-11
3	110306	21.11	-1.20792e-11
3	110858	21.21	-1.20792e-11
3	111410	21.31	-1.20792e-11
3	111962	21.41	-1.20792e-11
3	112514	21.51	-1.20792e-11
3	113066	21.61	-1.20792e-11
3	113618	21.71	-1.20792e-11
3	114170	21.81	-1.20792e-11
3	114722	21.91	-1.20792e-11
3	115282	22.01	-1.20792e-11
3	115834	22.11	-1.20792e-11
3	116386	22.21	-1.20792e-11
3	116938	22.31	-1.20792e-11
3	117490	22.41	-1.20792e-11
3	118042	22.51	-1.20792e-11
3	118594	22.61	-1.20792e-11
3	119146	22.71	-1.20792e-11
3	119698	22.81	-1.20792e-11
3	120250	22.91	-1.20792e-11
3	120810	23.01	-1.13687e-11
3	121362	23.11	-1.06581e-11
3	121914	23.21	-9.23706e-12
3	122466	23.31	-8.52651e-12
3	123018	23.41	-7.81597e-12
3	123570	23.51	-7.10543e-12
3	124122	23.61	-6.39488e-12
3	124674	23.71	-5.68434e-12
3	125226	23.81	-4.9738e-12
3	125778	23.91	-4.9738e-12
3	126338	24.01	-4.26326e-12
3	126890	24.11	-3.55271e-12
3	127442	24.21	-3.55271e-12
3	127994	24.31	-2.84217e-12
3	128546	24.41	-2.84217e-12
3	129098	24.51	-2.84217e-12
3	129650	24.61	-2.13163e-12
3	130202	24.71	-2.13163e-12
3	130754	24.81	-2.13163e-12
3	131306	24.91	-1.42109e-12
3	131866	25.01	-1.42109e-12
3	132418	25.11	-1.42109e-12
3	132970	25.21	-1.42109e-12
3	133522	25.31	-1.42109e-12
3	134074	25.41	-7.10543e-13
3	134626	25.51	-7.10543e-13
3	135178	25.61	-7.10543e-13
3	135730	25.71	-7.10543e-13
3	136282	25.81	-7.10543e-13
3	136834	25.91	-7.10543e-13
3	137394	26.01	-7.10543e-13
3	137946	26.11	-7.10543e-13
3	138498	26.21	-7.10543e-13
3	139050	26.31	-7.10543e-13
3	139602	26.41	0
3	140154	26.51	0
3	140706	26.61	0
3	141258	26.71	0
3	141810	26.81	0
3	142362	26.91	0
3	142922	27.01	0
3	143474	27.11	0
3	144026	27.21	0
3	144578	27.31	0
3	145130	27.41	0
3	145682	27.51	0
3	146234	27.61	0
3	146786	27.71	0
3	147338	27.81	0
3	147890	27.91	0
3	148450	28.01	0
3	149002	28.11	0
3	149551	28.21	0
3	150100	28.31	0
3	150649	28.41	0
3	151201	28.51	0
3	151753	28.61	0
3	152302	28.71	0
3	152854	28.81	0
3	153406	28.91	0
3	153960	29.01	0
3	154509	29.11	0
3	155058	29.21	0
3	155610	29.31	0
3	156162	29.41	0
3	156708	29.51	0
3	157257	29.61	0
3	157806	29.71	0
3	158352	29.81	0
3	158895	29.91	0
3	159449	30.01	0
3	159995	30.11	0
3	160538	30.21	0
3	161084	30.31	0
3	161630	30.41	0
3	162182	30.51	0
3	162725	30.61	0
3	163253	30.71	0
3	163796	30.81	0
3	164336	30.91	0
3	164881	31.01	0
3	165421	31.11	0
3	165961	31.21	0
3	166498	31.31	0
3	167023	31.41	0
3	167551	31.51	0
3	168082	31.61	0
3	168610	31.71	0
3	169138	31.81	0
3	169663	31.91	0
3	170190	32.01	0
3	170712	32.11	0
3	171240	32.21	0
3	171759	32.31	0
3	172284	32.41	0
3	172797	32.51	0
3	173310	32.61	0
3	173820	32.71	0
3	174330	32.81	0
3	174843	32.91	0
3	175361	33.01	0
3	175871	33.11	0
3	176387	33.21	0
3	176897	33.31	0
3	177410	33.41	0
3	177920	33.51	0
3	178430	33.61	0
3	178940	33.71	0
3	179450	33.81	0
3	179960	33.91	0
3	180478	34.01	0
3	180988	34.11	0
3	181498	34.21	0
3	182008	34.31	0
3	182518	34.41	0
3	183028	34.51	0
3	183538	34.61	0
3	184048	34.71	0
3	184558	34.81	0
3	185068	34.91	0
3	185586	35.01	0
3	186096	35.11	0
3	186606	35.21	0
3	187116	35.31	0
3	187626	35.41	0
3	188136	35.51	0
3	188646	35.61	0
3	189156	35.71	0
3	189666	35.81	0
3	190176	35.91	0
3	190694	36.01	0
3	191204	36.11	0
3	191714	36.21	0
3	192224	36.31	0
3	192734	36.41	0
3	193244	36.51	0
3	193754	36.61	0
3	194264	36.71	0
3	194774	36.81	0
3	195284	36.91	0
3	195802	37.01	0
3	196312	37.11	0
3	196822	37.21	0
3	197332	37.31	0
3	197842	37.41	0
3	198352	37.51	0
3	198862	37.61	0
3	199372	37.71	0
3	199882	37.81	0
3	200392	37.91	0
3	200910	38.01	0
3	201420	38.11	0
3	201930	38.21	0
3	202440	38.31	0
3	202950	38.41	0
3	203460	38.51	0
3	203970	38.61	0
3	204480	38.71	0
3	204990	38.81	0
3	205500	38.91	0
3	206018	39.01	0
3	206528	39.11	0
3	207038	39.21	0
3	207548	39.31	0
3	208058	39.41	0
3	208568	39.51	0
3	209078	39.61	0
3	209588	39.71	0
3	210098	39.81	0
3	210608	39.91	0
3	211126	40.01	0
3	211636	40.11	0
3	212146	40.21	0
3	212656	40.31	0
3	213166	40.41	0
3	213676	40.51	0
3	214186	40.61	0
3	214696	40.71	0
3	215206	40.81	0
3	215716	40.91	0
3	216234	41.01	0
3	216744	41.11	0
3	217254	41.21	0
3	217764	41.31	0
3	218274	41.41	0
3	218784	41.51	0
3	219294	41.61	0
3	219804	41.71	0
3	220314	41.81	0
3	220824	41.91	0
3	221342	42.01	0
3	221852	42.11	0
3	222362	42.21	0
3	222872	42.31	0
3	223382	42.41	0
3	223892	42.51	0
3	224402	42.61	0
3	224912	42.71	0
3	225422	42.81	0
3	225932	42.91	0
3	226450	43.01	0
3	226960	43.11	0
3	227470	43.21	0
3	227980	43.31	0
3	228490	43.41	0
3	229000	43.51	0
3	229510	43.61	0
3	230020	43.71	0
3	230530	43.81	0
3	231040	43.91	0
3	231558	44.01	0
3	232068	44.11	0
3	232578	44.21	0
3	233088	44.31	0
3	233598	44.41	0
3	234108	44.51	0
3	234618	44.61	0
3	235128	44.71	0
3	235638	44.81	0
3	236148	44.91	0
3	236666	45.01	0
3	237176	45.11	0
3	237686	45.21	0
3	238196	45.31	0
3	238706	45.41	0
3	239216	45.51	0
3	239726	45.61	0
3	240236	45.71	0
3	240746	45.81	0
3	241256	45.91	0
3	241774	46.01	0
3	242284	46.11	0
3	242794	46.21	0
3	243304	46.31	0
3	243814	46.41	0
3	244324	46.51	0
3	244834	46.61	0
3	245344	46.71	0
3	245854	46.81	0
3	246364	46.91	0
3	246882	47.01	0
3	247392	47.11	0
3	247902	47.21	0
3	248412	47.31	0
3	248922	47.41	0
3	249432	47.51	0
3	249942	47.61	0
3	250452	47.71	0
3	250962	47.81	0
3	251472	47.91	0
3	251990	48.01	0
3	252500	48.11	0
3	253010	48.21	0
3	253520	48.31	0
3	254030	48.41	0
3	254540	48.51	0
3	255050	48.61	0
3	255560	48.71	0
3	256070	48.81	0
3	256580	48.91	0
3	257098	49.01	0
3	257608	49.11	0
3	258118	49.21	0
3	258628	49.31	0
3	259138	49.41	0
3	259648	49.51	0
3	260158	49.61	0
3	260668	49.71	0
3	261178	49.81	0
3	261688	49.91	0
3	262206	50.01	0
3	262716	50.11	0
3	263226	50.21	0
3	263736	50.31	0
3	264246	50.41	0
3	264756	50.51	0
3	265266	50.61	0
3	265776	50.71	0
3	266286	50.81	0
3	266796	50.91	0
3	267314	51.01	0
3	267824	51.11	0
3	268334	51.21	0
3	268844	51.31	0
3	269354	51.41	0
3	269864	51.51	0
3	270374	51.61	0
3	270884	51.71	0
3	271394	51.81	0
3	271904	51.91	0
3	272422	52.01	0
3	272926	52.11	0
3	273424	52.21	0
3	273916	52.31	0
3	274402	52.41	0
3	274882	52.51	0
3	275356	52.61	0
3	275824	52.71	0
3	276292	52.81	0
3	276760	52.91	0
3	277236	53.01	0
3	277704	53.11	0
3	278172	53.21	0
3	278640	53.31	0
3	279108	53.41	0
3	279576	53.51	0
3	280044	53.61	0
3	280512	53.71	0
3	280980	53.81	0
3	281448	53.91	0
3	281924	54.01	0
3	282392	54.11	0
3	282860	54.21	0
3	283328	54.31	0
3	283796	54.41	0
3	284264	54.51	0
3	284732	54.61	0
3	285200	54.71	0
3	285668	54.81	0
3	286136	54.91	0
3	286612	55.01	0
3	287080	55.11	0
3	287548	55.21	0
3	288016	55.31	0
3	288484	55.41	0
3	288952	55.51	0
3	289420	55.61	0
3	289888	55.71	0
3	290356	55.81	0
3	290824	55.91	0
3	291300	56.01	0
3	291768	56.11	0
3	292236	56.21	0
3	292704	56.31	0
3	293172	56.41	0
3	293640	56.51	0
3	294108	56.61	0
3	294576	56.71	0
3	295044	56.81	0
3	295512	56.91	0
3	295988	57.01	0
3	296456	57.11	0
3	296924	57.21	0
3	297392	57.31	0
3	297860	57.41	0
3	298328	57.51	0
3	298796	57.61	0
3	299264	57.71	0
3	299732	57.81	0
3	300200	57.91	0
3	300676	58.01	0
3	301144	58.11	0
3	301612	58.21	0
3	302080	58.31	0
3	302548	58.41	0
3	303016	58.51	0
3	303484	58.61	0
3	303952	58.71	0
3	304420	58.81	0
3	304888	58.91	0
3	305364	59.01	0
3	305832	59.11	0
3	306300	59.21	0
3	306768	59.31	0
3	307236	59.41	0
3	307704	59.51	0
3	308172	59.61	0
3	308640	59.71	0
3	309108	59.81	0
3	309576	59.91	0
3	310052	60.01	0
3	310520	60.11	0
3	310988	60.21	0
3	311456	60.31	0
3	311924	60.41	0
3	312392	60.51	0
3	312860	60.61	0
3	313328	60.71	0
3	313796	60.81	0
3	314264	60.91	0
3	314740	61.01	0
3	315208	61.11	0
3	315676	61.21	0
3	316144	61.31	0
3	316612	61.41	0
3	317080	61.51	0
3	317548	61.61	0
3	318016	61.71	0
3	318484	61.81	0
3	318952	61.91	0
3	319428	62.01	0
3	319896	62.11	0
3	320364	62.21	0
3	320832	62.31	0
3	321300	62.41	0
3	321768	62.51	0
3	322236	62.61	0
3	322704	62.71	0
3	323172	62.81	0
3	323640	62.91	0
3	324116	63.01	0
3	324584	63.11	0
3	325052	63.21	0
3	325520	63.31	0
3	325988	63.41	0
3	326456	63.51	0
3	326924	63.61	0
3	327392	63.71	0
3	327860	63.81	0
3	328328	63.91	0
3	328804	64.01	0
3	329272	64.11	0
3	329740	64.21	0
3	330208	64.31	0
3	330676	64.41	0
3	331144	64.51	0
3	331612	64.61	0
3	332080	64.71	0
3	332548	64.81	0
3	333016	64.91	0
3	333492	65.01	0
3	333960	65.11	0
3	334428	65.21	0
3	334896	65.31	0
3	335364	65.41	0
3	335832	65.51	0
3	336300	65.61	0
3	336768	65.71	0
3	337232	65.81	0
3	337690	65.91	0
3	338154	66.01	0
3	338604	66.11	0
3	339050	66.21	0
3	339492	66.31	0
3	339932	66.41	0
3	340372	66.51	0
3	340812	66.61	0
3	341252	66.71	0
3	341692	66.81	0
3	342132	66.91	0
3	342580	67.01	0
3	343020	67.11	0
3	343460	67.21	0
3	343900	67.31	0
3	344340	67.41	0
3	344780	67.51	0
3	345220	67.61	0
3	345660	67.71	0
3	346100	67.81	0
3	346540	67.91	0
3	346988	68.01	0
3	347428	68.11	0
3	347868	68.21	0
3	348308	68.31	0
3	348748	68.41	0
3	349188	68.51	0
3	349628	68.61	0
3	350068	68.71	0
3	350508	68.81	0
3	350948	68.91	0
3	351396	69.01	0
3	351836	69.11	0
3	352276	69.21	0
3	352716	69.31	0
3	353156	69.41	0
3	353596	69.51	0
3	354036	69.61	0
3	354476	69.71	0
3	354916	69.81	0
3	355356	69.91	0
3	355804	70.01	0
3	356244	70.11	0
3	356684	70.21	0
3	357124	70.31	0
3	357564	70.41	0
3	358004	70.51	0
3	358444	70.61	0
3	358884	70.71	0
3	359324	70.81	0
3	359764	70.91	0
3	360212	71.01	0
3	360652	71.11	0
3	361092	71.21	0
3	361532	71.31	0
3	361972	71.41	0
3	362412	71.51	0
3	362852	71.61	0
3	363292	71.71	0
3	363732	71.81	0
3	364172	71.91	0
3	364620	72.01	0
3	365060	72.11	0
3	365500	72.21	0
3	365940	72.31	0
3	366380	72.41	0
3	366820	72.51	0
3	367260	72.61	0
3	367700	72.71	0
3	368140	72.81	0
3	368580	72.91	0
3	369028	73.01	0
3	369468	73.11	0
3	369908	73.21	0
3	370348	73.31	0
3	370788	73.41	0
3	371228	73.51	0
3	371668	73.61	0
3	372108	73.71	0
3	372548	73.81	0
3	372988	73.91	0
3	373436	74.01	0
3	373876	74.11	0
3	374316	74.21	0
3	374756	74.31	0
3	375196	74.41	0
3	375636	74.51	0
3	376076	74.61	0
3	376516	74.71	0
3	376956	74.81	0
3	377396	74.91	0
3	377844	75.01	0
3	378284	75.11	0
3	378724	75.21	0
3	379164	75.31	0
3	379604	75.41	0
3	380044	75.51	0
3	380484	75.61	0
3	380924	75.71	0
3	381364	75.81	0
3	381804	75.91	0
3	382252	76.01	0
3	382692	76.11	0
3	383132	76.21	0
3	383572	76.31	0
3	384012	76.41	0
3	384452	76.51	0
3	384892	76.61	0
3	385332	76.71	0
3	385772	76.81	0
3	386212	76.91	0
3	386660	77.01	0
3	387100	77.11	0
3	387540	77.21	0
3	387980	77.31	0
3	388420	77.41	0
3	388860	77.51	0
3	389300	77.61	0
3	389740	77.71	0
3	390180	77.81	0
3	390620	77.91	0
3	391068	78.01	0
3	391508	78.11	0
3	391948	78.21	0
3	392388	78.31	0
3	392828	78.41	0
3	393268	78.51	0
3	393708	78.61	0
3	394148	78.71	0
3	394588	78.81	0
3	395028	78.91	0
3	395476	79.01	0
3	395916	79.11	0
3	396356	79.21	0
3	396796	79.31	0
3	397236	79.41	0
3	397676	79.51	0
3	398116	79.61	0
3	398556	79.71	0
3	398996	79.81	0
3	399436	79.91	0
3	399884	80.01	0
3	400324	80.11	0
3	400764	80.21	0
3	401204	80.31	0
3	401644	80.41	0
3	402084	80.51	0
3	402524	80.61	0
3	402964	80.71	0
3	403404	80.81	0
3	403844	80.91	0
3	404292	81.01	0
3	404732	81.11	0
3	405172	81.21	0
3	405612	81.31	0
3	406052	81.41	0
3	406492	81.51	0
3	406932	81.61	0
3	407372	81.71	0
3	407812	81.81	0
3	408252	81.91	0
3	408700	82.01	0
3	409140	82.11	0
3	409580	82.21	0
3	410020	82.31	0
3	410460	82.41	0
3	410900	82.51	0
3	411340	82.61	0
3	411780	82.71	0
3	412220	82.81	0
3	412660	82.91	0
3	413108	83.01	0
3	413548	83.11	0
3	413988	83.21	0
3	414428	83.31	0
3	414868	83.41	0
3	415308	83.51	0
3	415748	83.61	0
3	416188	83.71	0
3	416628	83.81	0
3	417068	83.91	0
3	417516	84.01	0
3	417956	84.11	0
3	418396	84.21	0
3	418836	84.31	0
3	419276	84.41	0
3	419716	84.51	0
3	420156	84.61	0
3	420596	84.71	0
3	421036	84.81	0
3	421476	84.91	0
3	421924	85.01	0
3	422364	85.11	0
3	422804	85.21	0
3	423244	85.31	0
3	423684	85.41	0
3	424124	85.51	0
3	424564	85.61	0
3	425004	85.71	0
3	425444	85.81	0
3	425884	85.91	0
3	426332	86.01	0
3	426772	86.11	0
3	427212	86.21	0
3	427652	86.31	0
3	428092	86.41	0
3	428532	86.51	0
3	428972	86.61	0
3	429412	86.71	0
3	429852	86.81	0
3	430292	86.91	0
3	430740	87.01	0
3	431180	87.11	0
3	431620	87.21	0
3	432060	87.31	0
3	432500	87.41	0
3	432940	87.51	0
3	433380	87.61	0
3	433820	87.71	0
3	434260	87.81	0
3	434700	87.91	0
3	435148	88.01	0
3	435588	88.11	0
3	436028	88.21	0
3	436468	88.31	0
3	436908	88.41	0
3	437348	88.51	0
3	437788	88.61	0
3	438228	88.71	0
3	438668	88.81	0
3	439108	88.91	0
3	439556	89.01	0
3	439996	89.11	0
3	440436	89.21	0
3	440876	89.31	0
3	441316	89.41	0
3	441756	89.51	0
3	442196	89.61	0
3	442636	89.71	0
3	443076	89.81	0
3	443516	89.91	0
3	443964	90.01	0
3	444404	90.11	0
3	444844	90.21	0
3	445284	90.31	0
3	445724	90.41	0
3	446164	90.51	0
3	446604	90.61	0
3	447044	90.71	0
3	447484	90.81	0
3	447924	90.91	0
3	448372	91.01	0
3	448812	91.11	0
3	449252	91.21	0
3	449692	91.31	0
3	450132	91.41	0
3	450572	91.51	0
3	451012	91.61	0
3	451452	91.71	0
3	451892	91.81	0
3	452332	91.91	0
3	452780	92.01	0
3	453220	92.11	0
3	453660	92.21	0
3	454100	92.31	0
3	454540	92.41	0
3	454980	92.51	0
3	455420	92.61	0
3	455860	92.71	0
3	456300	92.81	0
3	456740	92.91	0
3	457188	93.01	0
3	457628	93.11	0
3	458068	93.21	0
3	458508	93.31	0
3	458948	93.41	0
3	459388	93.51	0
3	459828	93.61	0
3	460268	93.71	0
3	460708	93.81	0
3	461148	93.91	0
3	461596	94.01	0
3	462036	94.11	0
3	462476	94.21	0
3	462916	94.31	0
3	463356	94.41	0
3	463796	94.51	0
[...]
104	364599	72	4
104	369007	73	4
104	373415	74	4
104	377823	75	4
104	382231	76	4
104	386639	77	4
104	391047	78	4
104	395455	79	4
104	399863	80	4
104	404271	81	4
104	408679	82	4
104	413087	83	4
104	417495	84	4
104	421903	85	4
104	426311	86	4
104	430719	87	4
104	435127	88	4
104	439535	89	4
104	443943	90	4
104	448351	91	4
104	452759	92	4
104	457167	93	4
104	461575	94	4
104	465983	95	4
104	470391	96	4
104	474799	97	4
104	479207	98	4
104	483615	99	4
104	488023	100	4
105	4964	2	0.022161
105	10432	3	0.02497
105	15900	4	0.02497
105	21368	5	0.02497
105	26836	6	0.02497
105	32304	7	0.02497
105	37772	8	0.02497
105	43240	9	0.02497
105	48709	10	0.02497
105	54397	11	0.02513
105	59925	12	0.02497
105	65453	13	0.02497
105	70981	14	0.02497
105	76509	15	0.02497
105	82037	16	0.02497
105	87565	17	0.02497
105	93093	18	0.02497
105	98621	19	0.02497
105	104149	20	0.02497
105	109677	21	0.02497
105	115205	22	0.02497
105	120733	23	0.02497
105	126261	24	0.02497
105	131789	25	0.02497
105	137317	26	0.02497
105	142845	27	0.02497
105	148373	28	0.02497
105	153886	29	0.02497
105	159372	30	0.02497
105	164810	31	0.02497
105	170131	32	0.02497
105	175305	33	0.02497
105	180422	34	0.02497
105	185530	35	0.02497
105	190638	36	0.02497
105	195746	37	0.02497
105	200854	38	0.02497
105	205962	39	0.02497
105	211070	40	0.02497
105	216178	41	0.02497
105	221286	42	0.02497
105	226394	43	0.02497
105	231502	44	0.02497
105	236610	45	0.02497
105	241718	46	0.02497
105	246826	47	0.02497
105	251934	48	0.02497
105	257042	49	0.02497
105	262150	50	0.02497
105	267258	51	0.02497
105	272366	52	0.02497
105	277201	53	0.023098
105	281889	54	0.02185
105	286577	55	0.02185
105	291265	56	0.02185
105	295953	57	0.02185
105	300641	58	0.02185
105	305329	59	0.02185
105	310017	60	0.02185
105	314705	61	0.02185
105	319393	62	0.02185
105	324081	63	0.02185
105	328769	64	0.02185
105	333457	65	0.02185
105	338125	66	0.02185
105	342559	67	0.02185
105	346967	68	0.02185
105	351375	69	0.02185
105	355783	70	0.02185
105	360191	71	0.02185
105	364599	72	0.02185
105	369007	73	0.02185
105	373415	74	0.02185
105	377823	75	0.02185
105	382231	76	0.02185
105	386639	77	0.02185
105	391047	78	0.02185
105	395455	79	0.02185
105	399863	80	0.02185
105	404271	81	0.02185
105	408679	82	0.02185
105	413087	83	0.02185
105	417495	84	0.02185
105	421903	85	0.02185
105	426311	86	0.02185
105	430719	87	0.02185
105	435127	88	0.02185
105	439535	89	0.02185
105	443943	90	0.02185
105	448351	91	0.02185
105	452759	92	0.02185
105	457167	93	0.02185
105	461575	94	0.02185
105	465983	95	0.02185
105	470391	96	0.02185
105	474799	97	0.02185
105	479207	98	0.02185
105	483615	99	0.02185
105	488023	100	0.02185
106	4964	2	0
106	10432	3	0
106	15900	4	0
106	21368	5	0
106	26836	6	0
106	32304	7	0
106	37772	8	0
106	43240	9	0
106	48709	10	0
106	54397	11	0
106	59925	12	0
106	65453	13	0
106	70981	14	0
106	76509	15	0
106	82037	16	0
106	87565	17	0
106	93093	18	0
106	98621	19	0
106	104149	20	0
106	109677	21	0
106	115205	22	0
106	120733	23	0
106	126261	24	0
106	131789	25	0
106	137317	26	0
106	142845	27	0
106	148373	28	0
106	153886	29	0
106	159372	30	0
106	164810	31	0
106	170131	32	0
106	175305	33	0
106	180422	34	0
106	185530	35	0
106	190638	36	0
106	195746	37	0
106	200854	38	0
106	205962	39	0
106	211070	40	0
106	216178	41	0
106	221286	42	0
106	226394	43	0
106	231502	44	0
106	236610	45	0
106	241718	46	0
106	246826	47	0
106	251934	48	0
106	257042	49	0
106	262150	50	0
106	267258	51	0
106	272366	52	0
106	277201	53	0
106	281889	54	0
106	286577	55	0
106	291265	56	0
106	295953	57	0
106	300641	58	0
106	305329	59	0
106	310017	60	0
106	314705	61	0
106	319393	62	0
106	324081	63	0
106	328769	64	0
106	333457	65	0
106	338125	66	0
106	342559	67	0
106	346967	68	0
106	351375	69	0
106	355783	70	0
106	360191	71	0
106	364599	72	0
106	369007	73	0
106	373415	74	0
106	377823	75	0
106	382231	76	0
106	386639	77	0
106	391047	78	0
106	395455	79	0
106	399863	80	0
106	404271	81	0
106	408679	82	0
106	413087	83	0
106	417495	84	0
106	421903	85	0
106	426311	86	0
106	430719	87	0
106	435127	88	0
106	439535	89	0
106	443943	90	0
106	448351	91	0
106	452759	92	0
106	457167	93	0
106	461575	94	0
106	465983	95	0
106	470391	96	0
106	474799	97	0
106	479207	98	0
106	483615	99	0
106	488023	100	0
107	4965	2	5
107	10433	3	5
107	15901	4	5
107	21369	5	5
107	26837	6	5
107	32305	7	5
107	37773	8	5
107	43241	9	5
107	48710	10	5
107	54398	11	5
107	59926	12	5
107	65454	13	5
107	70982	14	5
107	76510	15	5
107	82038	16	5
107	87566	17	5
107	93094	18	5
107	98622	19	5
107	104150	20	5
107	109678	21	5
107	115206	22	5
107	120734	23	5
107	126262	24	5
107	131790	25	5
107	137318	26	5
107	142846	27	5
107	148374	28	5
107	153887	29	5
107	159373	30	5
107	164811	31	5
107	170132	32	5
107	175306	33	5
107	180423	34	5
107	185531	35	5
107	190639	36	5
107	195747	37	5
107	200855	38	5
107	205963	39	5
107	211071	40	5
107	216179	41	5
107	221287	42	5
107	226395	43	5
107	231503	44	5
107	236611	45	5
107	241719	46	5
107	246827	47	5
107	251935	48	5
107	257043	49	5
107	262151	50	5
107	267259	51	5
107	272367	52	5
107	277202	53	5
107	281890	54	5
107	286578	55	5
107	291266	56	5
107	295954	57	5
107	300642	58	5
107	305330	59	5
107	310018	60	5
107	314706	61	5
107	319394	62	5
107	324082	63	5
107	328770	64	5
107	333458	65	5
107	338126	66	5
107	342560	67	5
107	346968	68	5
107	351376	69	5
107	355784	70	5
107	360192	71	5
107	364600	72	5
107	369008	73	5
107	373416	74	5
107	377824	75	5
107	382232	76	5
107	386640	77	5
107	391048	78	5
107	395456	79	5
107	399864	80	5
107	404272	81	5
107	408680	82	5
107	413088	83	5
107	417496	84	5
107	421904	85	5
107	426312	86	5
107	430720	87	5
107	435128	88	5
107	439536	89	5
107	443944	90	5
107	448352	91	5
107	452760	92	5
107	457168	93	5
107	461576	94	5
107	465984	95	5
107	470392	96	5
107	474800	97	5
107	479208	98	5
107	483616	99	5
107	488024	100	5
108	4965	2	0.022161
108	10433	3	0.02497
108	15901	4	0.02497
108	21369	5	0.02497
108	26837	6	0.02497
108	32305	7	0.02497
108	37773	8	0.02497
108	43241	9	0.02497
108	48710	10	0.02497
108	54398	11	0.02513
108	59926	12	0.02497
108	65454	13	0.02497
108	70982	14	0.02497
108	76510	15	0.02497
108	82038	16	0.02497
108	87566	17	0.02497
108	93094	18	0.02497
108	98622	19	0.02497
108	104150	20	0.02497
108	109678	21	0.02497
108	115206	22	0.02497
108	120734	23	0.02497
108	126262	24	0.02497
108	131790	25	0.02497
108	137318	26	0.02497
108	142846	27	0.02497
108	148374	28	0.02497
108	153887	29	0.02497
108	159373	30	0.02497
108	164811	31	0.02497
108	170132	32	0.02497
108	175306	33	0.02497
108	180423	34	0.02497
108	185531	35	0.02497
108	190639	36	0.02497
108	195747	37	0.02497
108	200855	38	0.02497
108	205963	39	0.02497
108	211071	40	0.02497
108	216179	41	0.02497
108	221287	42	0.02497
108	226395	43	0.02497
108	231503	44	0.02497
108	236611	45	0.02497
108	241719	46	0.02497
108	246827	47	0.02497
108	251935	48	0.02497
108	257043	49	0.02497
108	262151	50	0.02497
108	267259	51	0.02497
108	272367	52	0.02497
108	277202	53	0.022786
108	281890	54	0.02185
108	286578	55	0.02185
108	291266	56	0.02185
108	295954	57	0.02185
108	300642	58	0.02185
108	305330	59	0.02185
108	310018	60	0.02185
108	314706	61	0.02185
108	319394	62	0.02185
108	324082	63	0.02185
108	328770	64	0.02185
108	333458	65	0.02185
108	338126	66	0.02185
108	342560	67	0.02185
108	346968	68	0.02185
108	351376	69	0.02185
108	355784	70	0.02185
108	360192	71	0.02185
108	364600	72	0.02185
108	369008	73	0.02185
108	373416	74	0.02185
108	377824	75	0.02185
108	382232	76	0.02185
108	386640	77	0.02185
108	391048	78	0.02185
108	395456	79	0.02185
108	399864	80	0.02185
108	404272	81	0.02185
108	408680	82	0.02185
108	413088	83	0.02185
108	417496	84	0.02185
108	421904	85	0.02185
108	426312	86	0.02185
108	430720	87	0.02185
108	435128	88	0.02185
108	439536	89	0.02185
108	443944	90	0.02185
108	448352	91	0.02185
108	452760	92	0.02185
108	457168	93	0.02185
108	461576	94	0.02185
108	465984	95	0.02185
108	470392	96	0.02185
108	474800	97	0.02185
108	479208	98	0.02185
108	483616	99	0.02185
108	488024	100	0.02185
109	4965	2	0
109	10433	3	0
109	15901	4	0
109	21369	5	0
109	26837	6	0
109	32305	7	0
109	37773	8	0
109	43241	9	0
109	48710	10	0
109	54398	11	0
109	59926	12	0
109	65454	13	0
109	70982	14	0
109	76510	15	0
109	82038	16	0
109	87566	17	0
109	93094	18	0
109	98622	19	0
109	104150	20	0
109	109678	21	0
109	115206	22	0
109	120734	23	0
109	126262	24	0
109	131790	25	0
109	137318	26	0
109	142846	27	0
109	148374	28	0
109	153887	29	0
109	159373	30	0
109	164811	31	0
109	170132	32	0
109	175306	33	0
109	180423	34	0
109	185531	35	0
109	190639	36	0
109	195747	37	0
109	200855	38	0
109	205963	39	0
109	211071	40	0
109	216179	41	0
109	221287	42	0
109	226395	43	0
109	231503	44	0
109	236611	45	0
109	241719	46	0
109	246827	47	0
109	251935	48	0
109	257043	49	0
109	262151	50	0
109	267259	51	0
109	272367	52	0
109	277202	53	0
109	281890	54	0
109	286578	55	0
109	291266	56	0
109	295954	57	0
109	300642	58	0
109	305330	59	0
109	310018	60	0
109	314706	61	0
109	319394	62	0
109	324082	63	0
109	328770	64	0
109	333458	65	0
109	338126	66	0
109	342560	67	0
109	346968	68	0
109	351376	69	0
109	355784	70	0
109	360192	71	0
109	364600	72	0
109	369008	73	0
109	373416	74	0
109	377824	75	0
109	382232	76	0
109	386640	77	0
109	391048	78	0
109	395456	79	0
109	399864	80	0
109	404272	81	0
109	408680	82	0
109	413088	83	0
109	417496	84	0
109	421904	85	0
109	426312	86	0
109	430720	87	0
109	435128	88	0
109	439536	89	0
109	443944	90	0
109	448352	91	0
109	452760	92	0
109	457168	93	0
109	461576	94	0
109	465984	95	0
109	470392	96	0
109	474800	97	0
109	479208	98	0
109	483616	99	0
109	488024	100	0
110	4966	2	6
110	10434	3	6
110	15902	4	6
110	21370	5	6
110	26838	6	6
110	32306	7	6
110	37774	8	6
110	43242	9	6
110	48711	10	6
110	54399	11	6
110	59927	12	6
110	65455	13	6
110	70983	14	6
110	76511	15	6
110	82039	16	6
110	87567	17	6
110	93095	18	6
110	98623	19	6
110	104151	20	6
110	109679	21	6
110	115207	22	6
110	120735	23	6
110	126263	24	6
110	131791	25	6
110	137319	26	6
110	142847	27	6
110	148375	28	6
110	153888	29	6
110	159374	30	6
110	164812	31	6
110	170133	32	6
110	175307	33	6
110	180424	34	6
110	185532	35	6
110	190640	36	6
110	195748	37	6
110	200856	38	6
110	205964	39	6
110	211072	40	6
110	216180	41	6
110	221288	42	6
110	226396	43	6
110	231504	44	6
110	236612	45	6
110	241720	46	6
110	246828	47	6
110	251936	48	6
110	257044	49	6
110	262152	50	6
110	267260	51	6
110	272368	52	6
110	277203	53	6
110	281891	54	6
110	286579	55	6
110	291267	56	6
110	295955	57	6
110	300643	58	6
110	305331	59	6
110	310019	60	6
110	314707	61	6
110	319395	62	6
110	324083	63	6
110	328771	64	6
110	333459	65	6
110	338127	66	6
110	342561	67	6
110	346969	68	6
110	351377	69	6
110	355785	70	6
110	360193	71	6
110	364601	72	6
110	369009	73	6
110	373417	74	6
110	377825	75	6
110	382233	76	6
110	386641	77	6
110	391049	78	6
110	395457	79	6
110	399865	80	6
110	404273	81	6
110	408681	82	6
110	413089	83	6
110	417497	84	6
110	421905	85	6
110	426313	86	6
110	430721	87	6
110	435129	88	6
110	439537	89	6
110	443945	90	6
110	448353	91	6
110	452761	92	6
110	457169	93	6
110	461577	94	6
110	465985	95	6
110	470393	96	6
110	474801	97	6
110	479209	98	6
110	483617	99	6
110	488025	100	6
111	4966	2	0.022161
111	10434	3	0.02497
111	15902	4	0.02497
111	21370	5	0.02497
111	26838	6	0.02497
111	32306	7	0.02497
111	37774	8	0.02497
111	43242	9	0.02497
111	48711	10	0.02497
111	54399	11	0.02513
111	59927	12	0.02497
111	65455	13	0.02497
111	70983	14	0.02497
111	76511	15	0.02497
111	82039	16	0.02497
111	87567	17	0.02497
111	93095	18	0.02497
111	98623	19	0.02497
111	104151	20	0.02497
111	109679	21	0.02497
111	115207	22	0.02497
111	120735	23	0.02497
111	126263	24	0.02497
111	131791	25	0.02497
111	137319	26	0.02497
111	142847	27	0.02497
111	148375	28	0.02497
111	153888	29	0.02497
111	159374	30	0.02497
111	164812	31	0.02497
111	170133	32	0.02497
111	175307	33	0.02497
111	180424	34	0.02497
111	185532	35	0.02497
111	190640	36	0.02497
111	195748	37	0.02497
111	200856	38	0.02497
111	205964	39	0.02497
111	211072	40	0.02497
111	216180	41	0.02497
111	221288	42	0.02497
111	226396	43	0.02497
111	231504	44	0.02497
111	236612	45	0.02497
111	241720	46	0.02497
111	246828	47	0.02497
111	251936	48	0.02497
111	257044	49	0.02497
111	262152	50	0.02497
111	267260	51	0.02497
111	272368	52	0.02497
111	277203	53	0.022474
111	281891	54	0.02185
111	286579	55	0.02185
111	291267	56	0.02185
111	295955	57	0.02185
111	300643	58	0.02185
111	305331	59	0.02185
111	310019	60	0.02185
111	314707	61	0.02185
111	319395	62	0.02185
111	324083	63	0.02185
111	328771	64	0.02185
111	333459	65	0.02185
111	338127	66	0.02185
111	342561	67	0.02185
111	346969	68	0.02185
111	351377	69	0.02185
111	355785	70	0.02185
111	360193	71	0.02185
111	364601	72	0.02185
111	369009	73	0.02185
111	373417	74	0.02185
111	377825	75	0.02185
111	382233	76	0.02185
111	386641	77	0.02185
111	391049	78	0.02185
111	395457	79	0.02185
111	399865	80	0.02185
111	404273	81	0.02185
111	408681	82	0.02185
111	413089	83	0.02185
111	417497	84	0.02185
111	421905	85	0.02185
111	426313	86	0.02185
111	430721	87	0.02185
111	435129	88	0.02185
111	439537	89	0.02185
111	443945	90	0.02185
111	448353	91	0.02185
111	452761	92	0.02185
111	457169	93	0.02185
111	461577	94	0.02185
111	465985	95	0.02185
111	470393	96	0.02185
111	474801	97	0.02185
111	479209	98	0.02185
111	483617	99	0.02185
111	488025	100	0.02185
112	4966	2	0
112	10434	3	0
112	15902	4	0
112	21370	5	0
112	26838	6	0
112	32306	7	0
112	37774	8	0
112	43242	9	0
112	48711	10	0
112	54399	11	0
112	59927	12	0
112	65455	13	0
112	70983	14	0
112	76511	15	0
112	82039	16	0
112	87567	17	0
112	93095	18	0
112	98623	19	0
112	104151	20	0
112	109679	21	0
112	115207	22	0
112	120735	23	0
112	126263	24	0
112	131791	25	0
112	137319	26	0
112	142847	27	0
112	148375	28	0
112	153888	29	0
112	159374	30	0
112	164812	31	0
112	170133	32	0
112	175307	33	0
112	180424	34	0
112	185532	35	0
112	190640	36	0
112	195748	37	0
112	200856	38	0
112	205964	39	0
112	211072	40	0
112	216180	41	0
112	221288	42	0
112	226396	43	0
112	231504	44	0
112	236612	45	0
112	241720	46	0
112	246828	47	0
112	251936	48	0
112	257044	49	0
112	262152	50	0
112	267260	51	0
112	272368	52	0
112	277203	53	0
112	281891	54	0
112	286579	55	0
112	291267	56	0
112	295955	57	0
112	300643	58	0
112	305331	59	0
112	310019	60	0
112	314707	61	0
112	319395	62	0
112	324083	63	0
112	328771	64	0
112	333459	65	0
112	338127	66	0
112	342561	67	0
112	346969	68	0
112	351377	69	0
112	355785	70	0
112	360193	71	0
112	364601	72	0
112	369009	73	0
112	373417	74	0
112	377825	75	0
112	382233	76	0
112	386641	77	0
112	391049	78	0
112	395457	79	0
112	399865	80	0
112	404273	81	0
112	408681	82	0
112	413089	83	0
112	417497	84	0
112	421905	85	0
112	426313	86	0
112	430721	87	0
112	435129	88	0
112	439537	89	0
112	443945	90	0
112	448353	91	0
112	452761	92	0
112	457169	93	0
112	461577	94	0
112	465985	95	0
112	470393	96	0
112	474801	97	0
112	479209	98	0
112	483617	99	0
112	488025	100	0
113	4967	2	7
113	10435	3	7
113	15903	4	7
113	21371	5	7
113	26839	6	7
113	32307	7	7
113	37775	8	7
113	43243	9	7
113	48712	10	7
113	54400	11	7
113	59928	12	7
113	65456	13	7
113	70984	14	7
113	76512	15	7
113	82040	16	7
113	87568	17	7
113	93096	18	7
113	98624	19	7
113	104152	20	7
113	109680	21	7
113	115208	22	7
113	120736	23	7
113	126264	24	7
113	131792	25	7
113	137320	26	7
113	142848	27	7
113	148376	28	7
113	153889	29	7
113	159375	30	7
113	164813	31	7
113	170134	32	7
113	175308	33	7
113	180425	34	7
113	185533	35	7
113	190641	36	7
113	195749	37	7
113	200857	38	7
113	205965	39	7
113	211073	40	7
113	216181	41	7
113	221289	42	7
113	226397	43	7
113	231505	44	7
113	236613	45	7
113	241721	46	7
113	246829	47	7
113	251937	48	7
113	257045	49	7
113	262153	50	7
113	267261	51	7
113	272369	52	7
113	277204	53	7
113	281892	54	7
113	286580	55	7
113	291268	56	7
113	295956	57	7
113	300644	58	7
113	305332	59	7
113	310020	60	7
113	314708	61	7
113	319396	62	7
113	324084	63	7
113	328772	64	7
113	333460	65	7
113	338128	66	7
113	342562	67	7
113	346970	68	7
113	351378	69	7
113	355786	70	7
113	360194	71	7
113	364602	72	7
113	369010	73	7
113	373418	74	7
113	377826	75	7
113	382234	76	7
113	386642	77	7
113	391050	78	7
113	395458	79	7
113	399866	80	7
113	404274	81	7
113	408682	82	7
113	413090	83	7
113	417498	84	7
113	421906	85	7
113	426314	86	7
113	430722	87	7
113	435130	88	7
113	439538	89	7
113	443946	90	7
113	448354	91	7
113	452762	92	7
113	457170	93	7
113	461578	94	7
113	465986	95	7
113	470394	96	7
113	474802	97	7
113	479210	98	7
113	483618	99	7
113	488026	100	7
114	4967	2	0.022161
114	10435	3	0.02497
114	15903	4	0.02497
114	21371	5	0.02497
114	26839	6	0.02497
114	32307	7	0.02497
114	37775	8	0.02497
114	43243	9	0.02497
114	48712	10	0.02497
114	54400	11	0.02513
114	59928	12	0.02497
114	65456	13	0.02497
114	70984	14	0.02497
114	76512	15	0.02497
114	82040	16	0.02497
114	87568	17	0.02497
114	93096	18	0.02497
114	98624	19	0.02497
114	104152	20	0.02497
114	109680	21	0.02497
114	115208	22	0.02497
114	120736	23	0.02497
114	126264	24	0.02497
114	131792	25	0.02497
114	137320	26	0.02497
114	142848	27	0.02497
114	148376	28	0.02497
114	153889	29	0.02497
114	159375	30	0.02497
114	164813	31	0.02497
114	170134	32	0.02497
114	175308	33	0.02497
114	180425	34	0.02497
114	185533	35	0.02497
114	190641	36	0.02497
114	195749	37	0.02497
114	200857	38	0.02497
114	205965	39	0.02497
114	211073	40	0.02497
114	216181	41	0.02497
114	221289	42	0.02497
114	226397	43	0.02497
114	231505	44	0.02497
114	236613	45	0.02497
114	241721	46	0.02497
114	246829	47	0.02497
114	251937	48	0.02497
114	257045	49	0.02497
114	262153	50	0.02497
114	267261	51	0.02497
114	272369	52	0.02497
114	277204	53	0.022162
114	281892	54	0.02185
114	286580	55	0.02185
114	291268	56	0.02185
114	295956	57	0.02185
114	300644	58	0.02185
114	305332	59	0.02185
114	310020	60	0.02185
114	314708	61	0.02185
114	319396	62	0.02185
114	324084	63	0.02185
114	328772	64	0.02185
114	333460	65	0.02185
114	338128	66	0.02185
114	342562	67	0.02185
114	346970	68	0.02185
114	351378	69	0.02185
114	355786	70	0.02185
114	360194	71	0.02185
114	364602	72	0.02185
114	369010	73	0.02185
114	373418	74	0.02185
114	377826	75	0.02185
114	382234	76	0.02185
114	386642	77	0.02185
114	391050	78	0.02185
114	395458	79	0.02185
114	399866	80	0.02185
114	404274	81	0.02185
114	408682	82	0.02185
114	413090	83	0.02185
114	417498	84	0.02185
114	421906	85	0.02185
114	426314	86	0.02185
114	430722	87	0.02185
114	435130	88	0.02185
114	439538	89	0.02185
114	443946	90	0.02185
114	448354	91	0.02185
114	452762	92	0.02185
114	457170	93	0.02185
114	461578	94	0.02185
114	465986	95	0.02185
114	470394	96	0.02185
114	474802	97	0.02185
114	479210	98	0.02185
114	483618	99	0.02185
114	488026	100	0.02185
115	4967	2	0
115	10435	3	0
115	15903	4	0
115	21371	5	0
115	26839	6	0
115	32307	7	0
115	37775	8	0
115	43243	9	0
115	48712	10	0
115	54400	11	0
115	59928	12	0
115	65456	13	0
115	70984	14	0
115	76512	15	0
115	82040	16	0
115	87568	17	0
115	93096	18	0
115	98624	19	0
115	104152	20	0
115	109680	21	0
115	115208	22	0
115	120736	23	0
115	126264	24	0
115	131792	25	0
115	137320	26	0
115	142848	27	0
115	148376	28	0
115	153889	29	0
115	159375	30	0
115	164813	31	0
115	170134	32	0
115	175308	33	0
115	180425	34	0
115	185533	35	0
115	190641	36	0
115	195749	37	0
115	200857	38	0
115	205965	39	0
115	211073	40	0
115	216181	41	0
115	221289	42	0
115	226397	43	0
115	231505	44	0
115	236613	45	0
115	241721	46	0
115	246829	47	0
115	251937	48	0
115	257045	49	0
115	262153	50	0
115	267261	51	0
115	272369	52	0
115	277204	53	0
115	281892	54	0
115	286580	55	0
115	291268	56	0
115	295956	57	0
115	300644	58	0
115	305332	59	0
115	310020	60	0
115	314708	61	0
115	319396	62	0
115	324084	63	0
115	328772	64	0
115	333460	65	0
115	338128	66	0
115	342562	67	0
115	346970	68	0
115	351378	69	0
115	355786	70	0
115	360194	71	0
115	364602	72	0
115	369010	73	0
115	373418	74	0
115	377826	75	0
115	382234	76	0
115	386642	77	0
115	391050	78	0
115	395458	79	0
115	399866	80	0
115	404274	81	0
115	408682	82	0
115	413090	83	0
115	417498	84	0
115	421906	85	0
115	426314	86	0
115	430722	87	0
115	435130	88	0
115	439538	89	0
115	443946	90	0
115	448354	91	0
115	452762	92	0
115	457170	93	0
115	461578	94	0
115	465986	95	0
115	470394	96	0
115	474802	97	0
115	479210	98	0
115	483618	99	0
115	488026	100	0

