file 5082269 1720710734                                         
version 3
run BreakRanksNoGui-299-20240711-17:11:54-296892
attr configname BreakRanksNoGui
attr datetime 20240711-17:11:54
attr datetimef 20240711-171154
attr experiment BreakRanksNoGui
attr inifile omnetpp.ini
attr iterationvars "$nCars=16, $platoonSize=12, $nLanes=1, $ploegH=0.5, $controller=1, $headway=0.1, $leaderHeadway=1.2, $leaderSpeed=130, $breakRanksSafetyDistance=20, $minSpeed=120, $maxSpeed=140, $beaconInterval=0.1, $priority=4, $packetSize=200, $sController=\"CACC\", $0=2, $1=0"
attr iterationvarsd nCars=16/platoonSize=12/nLanes=1/ploegH=0.5/controller=1/headway=0.1/leaderHeadway=1.2/leaderSpeed=130/breakRanksSafetyDistance=20/minSpeed=120/maxSpeed=140/beaconInterval=0.1/priority=4/packetSize=200/sController=CACC/2/0
attr iterationvarsf nCars=16,platoonSize=12,nLanes=1,ploegH=0.5,controller=1,headway=0.1,leaderHeadway=1.2,leaderSpeed=130,breakRanksSafetyDistance=20,minSpeed=120,maxSpeed=140,beaconInterval=0.1,priority=4,packetSize=200,sController=CACC,2,0-
attr measurement "$nCars=16, $platoonSize=12, $nLanes=1, $ploegH=0.5, $controller=1, $headway=0.1, $leaderHeadway=1.2, $leaderSpeed=130, $breakRanksSafetyDistance=20, $minSpeed=120, $maxSpeed=140, $beaconInterval=0.1, $priority=4, $packetSize=200, $sController=\"CACC\", $0=2, $1=0"
attr network Highway
attr processid 296892
attr repetition 9
attr replication #9
attr resultdir results
attr runnumber 299
attr seedset 9
itervar beaconInterval 0.1
itervar breakRanksSafetyDistance 20
itervar controller 1
itervar headway 0.1
itervar leaderHeadway 1.2
itervar leaderSpeed 130
itervar maxSpeed 140
itervar minSpeed 120
itervar nCars 16
itervar nLanes 1
itervar packetSize 200
itervar platoonSize 12
itervar ploegH 0.5
itervar priority 4
itervar sController "\"CACC\""
config image-path ../../../veins/images
config repeat 10
config extends BreakRanks
config *.manager.command "\"sumo\""
config *.manager.ignoreGuiCommands true
config output-vector-file "results/BreakRanks_1_0.1_130_20_12 /result_9.vec"
config output-scalar-file "results/BreakRanks_1_0.1_130_20_12 /result_9.sca"
config extends Platooning
config *.node[*].scenario_type "\"BreakRanksScenario\""
config *.manager.command "\"sumo-gui\""
config *.node[*].scenario_type "\"SimpleScenario\""
config cmdenv-express-mode true
config cmdenv-autoflush true
config cmdenv-status-frequency 15s
config num-rngs 6
config network Highway
config debug-on-errors true
config print-undisposed true
config *.playgroundSizeX 65000m
config *.playgroundSizeY 25000m
config *.playgroundSizeZ 50m
config sim-time-limit "100 s"
config *.annotations.draw false
config *.obstacles.debug false
config *.world.useTorus false
config *.world.use2D false
config *.manager.updateInterval 0.01s
config *.manager.host "\"localhost\""
config *.manager.moduleType "\"org.car2x.plexe.PlatoonCar\""
config *.manager.moduleName "\"node\""
config *.manager.moduleDisplayString "\"\""
config *.manager.autoShutdown true
config *.manager.margin 25
config *.connectionManager.sendDirect true
config *.connectionManager.maxInterfDist 2600m
config *.connectionManager.drawMaxIntfDist false
config *.**.nic.mac1609_4.useServiceChannel false
config *.**.nic.mac1609_4.txPower 100mW
config *.**.nic.mac1609_4.bitrate 6Mbps
config *.**.nic.mac1609_4.useAcks true
config *.**.nic.mac1609_4.ackErrorRate 0.0
config *.**.nic.mac1609_4.frameErrorRate 0.0
config *.**.nic.phy80211p.minPowerLevel -94dBm
config *.**.nic.phy80211p.maxTXPower 100mW
config *.**.nic.phy80211p.useNoiseFloor true
config *.**.nic.phy80211p.noiseFloor -95dBm
config *.**.nic.phy80211p.decider "xmldoc(\"config.xml\")"
config *.**.nic.phy80211p.analogueModels "xmldoc(\"config.xml\")"
config *.**.nic.phy80211p.usePropagationDelay true
config *.node[*].mobility.x 0
config *.node[*].mobility.y 0
config *.node[*].mobility.z 1.895
config seed-set 9
config **.seed 9
config *.node[*].prot.rng-0 2
config *.node[*].appl.rng-0 3
config *.node[*].scenario.rng-0 4
config **.traffic.rng-0 5
config *.manager.configFile "\"./sumocfg/freeway.sumo.cfg\""
config *.manager.launchConfig "xmldoc(\"./sumocfg/freeway.launchd.xml\")"
config **.numberOfCars 16
config **.numberOfCarsPerPlatoon 12
config **.numberOfLanes 1
config *.node[*].helper_type "\"PositionHelper\""
config *.node[*].scenario.caccC1 0.5
config *.node[*].scenario.caccXi 1
config *.node[*].scenario.caccOmegaN "0.2 Hz"
config *.node[*].scenario.caccSpacing "2 m"
config *.node[*].scenario.engineTau "0.5 s"
config *.node[*].scenario.ploegH 0.5s
config *.node[*].scenario.ploegKp 0.2
config *.node[*].scenario.ploegKd 0.7
config *.node[*].scenario.useRealisticEngine false
config *.node[*].scenario.useControllerAcceleration true
config *.node[*].scenario.nLanes 1
config **.numericController 1
config **.headway 0.1s
config *.node[*].scenario.accHeadway 0.1s
config *.node[*].scenario.leaderHeadway 1.2s
config *.node[*].scenario.leaderSpeed 130kmph
config *.node[*].appl_type "\"SimplePlatooningApp\""
config *.node[*].appl.*.scalar-recording true
config *.node[*].appl.*.vector-recording true
config *.node[0].appl.breakRanksSafetyDistance 20m
config *.node[*].appl.minSpeed 120kmph
config *.node[*].appl.maxSpeed 140kmph
config *.node[*].protocol_type "\"SimplePlatooningBeaconing\""
config *.node[*].prot.*.scalar-recording true
config *.node[*].prot.*.vector-recording true
config *.node[*].prot.beaconingInterval 0.1s
config *.node[*].prot.priority 4
config *.node[*].prot.packetSize 200
config **.traffic_type "\"PlatoonsTrafficManager\""
config **.traffic.platoonInsertTime "1 s"
config **.traffic.platoonInsertSpeed 130kmph
config **.traffic.nCars 16
config **.traffic.platoonSize 12
config **.traffic.nLanes 1
config **.traffic.platooningVType "\"vtypeauto\""
config **.traffic.controller "\"CACC\""
config **.traffic.platoonInsertDistance 2m
config **.traffic.platoonInsertHeadway 0s
config **.traffic.platoonLeaderHeadway 1.2s
config **.scalar-recording false
config **.vector-recording false

vector 0 Highway.node[0].appl distance ETV
vector 1 Highway.node[0].appl relativeSpeed ETV
vector 2 Highway.node[0].appl nodeId ETV
vector 3 Highway.node[0].appl acceleration ETV
vector 4 Highway.node[0].appl controllerAcceleration ETV
vector 5 Highway.node[0].appl speed ETV
vector 6 Highway.node[0].appl posx ETV
vector 7 Highway.node[0].appl posy ETV
vector 8 Highway.node[1].appl distance ETV
vector 9 Highway.node[1].appl relativeSpeed ETV
vector 10 Highway.node[1].appl nodeId ETV
vector 11 Highway.node[1].appl acceleration ETV
vector 12 Highway.node[1].appl controllerAcceleration ETV
vector 13 Highway.node[1].appl speed ETV
vector 14 Highway.node[1].appl posx ETV
vector 15 Highway.node[1].appl posy ETV
vector 16 Highway.node[2].appl distance ETV
vector 17 Highway.node[2].appl relativeSpeed ETV
vector 18 Highway.node[2].appl nodeId ETV
vector 19 Highway.node[2].appl acceleration ETV
vector 20 Highway.node[2].appl controllerAcceleration ETV
vector 21 Highway.node[2].appl speed ETV
vector 22 Highway.node[2].appl posx ETV
vector 23 Highway.node[2].appl posy ETV
vector 24 Highway.node[3].appl distance ETV
vector 25 Highway.node[3].appl relativeSpeed ETV
vector 26 Highway.node[3].appl nodeId ETV
vector 27 Highway.node[3].appl acceleration ETV
vector 28 Highway.node[3].appl controllerAcceleration ETV
vector 29 Highway.node[3].appl speed ETV
vector 30 Highway.node[3].appl posx ETV
vector 31 Highway.node[3].appl posy ETV
vector 32 Highway.node[4].appl distance ETV
vector 33 Highway.node[4].appl relativeSpeed ETV
vector 34 Highway.node[4].appl nodeId ETV
vector 35 Highway.node[4].appl acceleration ETV
vector 36 Highway.node[4].appl controllerAcceleration ETV
vector 37 Highway.node[4].appl speed ETV
vector 38 Highway.node[4].appl posx ETV
vector 39 Highway.node[4].appl posy ETV
vector 40 Highway.node[5].appl distance ETV
vector 41 Highway.node[5].appl relativeSpeed ETV
vector 42 Highway.node[5].appl nodeId ETV
vector 43 Highway.node[5].appl acceleration ETV
vector 44 Highway.node[5].appl controllerAcceleration ETV
vector 45 Highway.node[5].appl speed ETV
vector 46 Highway.node[5].appl posx ETV
vector 47 Highway.node[5].appl posy ETV
vector 48 Highway.node[6].appl distance ETV
vector 49 Highway.node[6].appl relativeSpeed ETV
vector 50 Highway.node[6].appl nodeId ETV
vector 51 Highway.node[6].appl acceleration ETV
vector 52 Highway.node[6].appl controllerAcceleration ETV
vector 53 Highway.node[6].appl speed ETV
vector 54 Highway.node[6].appl posx ETV
vector 55 Highway.node[6].appl posy ETV
vector 56 Highway.node[7].appl distance ETV
vector 57 Highway.node[7].appl relativeSpeed ETV
vector 58 Highway.node[7].appl nodeId ETV
vector 59 Highway.node[7].appl acceleration ETV
vector 60 Highway.node[7].appl controllerAcceleration ETV
vector 61 Highway.node[7].appl speed ETV
vector 62 Highway.node[7].appl posx ETV
vector 63 Highway.node[7].appl posy ETV
vector 64 Highway.node[8].appl distance ETV
vector 65 Highway.node[8].appl relativeSpeed ETV
vector 66 Highway.node[8].appl nodeId ETV
vector 67 Highway.node[8].appl acceleration ETV
vector 68 Highway.node[8].appl controllerAcceleration ETV
vector 69 Highway.node[8].appl speed ETV
vector 70 Highway.node[8].appl posx ETV
vector 71 Highway.node[8].appl posy ETV
vector 72 Highway.node[9].appl distance ETV
vector 73 Highway.node[9].appl relativeSpeed ETV
vector 74 Highway.node[9].appl nodeId ETV
vector 75 Highway.node[9].appl acceleration ETV
vector 76 Highway.node[9].appl controllerAcceleration ETV
vector 77 Highway.node[9].appl speed ETV
vector 78 Highway.node[9].appl posx ETV
vector 79 Highway.node[9].appl posy ETV
vector 80 Highway.node[10].appl distance ETV
vector 81 Highway.node[10].appl relativeSpeed ETV
vector 82 Highway.node[10].appl nodeId ETV
vector 83 Highway.node[10].appl acceleration ETV
vector 84 Highway.node[10].appl controllerAcceleration ETV
vector 85 Highway.node[10].appl speed ETV
vector 86 Highway.node[10].appl posx ETV
vector 87 Highway.node[10].appl posy ETV
vector 88 Highway.node[11].appl distance ETV
vector 89 Highway.node[11].appl relativeSpeed ETV
vector 90 Highway.node[11].appl nodeId ETV
vector 91 Highway.node[11].appl acceleration ETV
vector 92 Highway.node[11].appl controllerAcceleration ETV
vector 93 Highway.node[11].appl speed ETV
vector 94 Highway.node[11].appl posx ETV
vector 95 Highway.node[11].appl posy ETV
vector 96 Highway.node[12].appl distance ETV
vector 97 Highway.node[12].appl relativeSpeed ETV
vector 98 Highway.node[12].appl nodeId ETV
vector 99 Highway.node[12].appl acceleration ETV
vector 100 Highway.node[12].appl controllerAcceleration ETV
vector 101 Highway.node[12].appl speed ETV
vector 102 Highway.node[12].appl posx ETV
vector 103 Highway.node[12].appl posy ETV
vector 104 Highway.node[13].appl distance ETV
vector 105 Highway.node[13].appl relativeSpeed ETV
vector 106 Highway.node[13].appl nodeId ETV
vector 107 Highway.node[13].appl acceleration ETV
vector 108 Highway.node[13].appl controllerAcceleration ETV
vector 109 Highway.node[13].appl speed ETV
vector 110 Highway.node[13].appl posx ETV
vector 111 Highway.node[13].appl posy ETV
vector 112 Highway.node[14].appl distance ETV
vector 113 Highway.node[14].appl relativeSpeed ETV
vector 114 Highway.node[14].appl nodeId ETV
vector 115 Highway.node[14].appl acceleration ETV
vector 116 Highway.node[14].appl controllerAcceleration ETV
vector 117 Highway.node[14].appl speed ETV
vector 118 Highway.node[14].appl posx ETV
vector 119 Highway.node[14].appl posy ETV
vector 120 Highway.node[15].appl distance ETV
vector 121 Highway.node[15].appl relativeSpeed ETV
vector 122 Highway.node[15].appl nodeId ETV
vector 123 Highway.node[15].appl acceleration ETV
vector 124 Highway.node[15].appl controllerAcceleration ETV
vector 125 Highway.node[15].appl speed ETV
vector 126 Highway.node[15].appl posx ETV
vector 127 Highway.node[15].appl posy ETV
vector 128 Highway.node[8].prot frontDelay ETV
vector 129 Highway.node[8].prot frontDelayId ETV
vector 130 Highway.node[2].prot frontDelay ETV
vector 131 Highway.node[2].prot frontDelayId ETV
vector 132 Highway.node[10].prot frontDelay ETV
vector 133 Highway.node[10].prot frontDelayId ETV
vector 134 Highway.node[7].prot frontDelay ETV
vector 135 Highway.node[7].prot frontDelayId ETV
vector 136 Highway.node[13].prot frontDelay ETV
vector 137 Highway.node[13].prot frontDelayId ETV
vector 138 Highway.node[12].prot frontDelay ETV
vector 139 Highway.node[12].prot frontDelayId ETV
vector 140 Highway.node[3].prot frontDelay ETV
vector 141 Highway.node[3].prot frontDelayId ETV
vector 142 Highway.node[9].prot frontDelay ETV
vector 143 Highway.node[9].prot frontDelayId ETV
vector 144 Highway.node[6].prot frontDelay ETV
vector 145 Highway.node[6].prot frontDelayId ETV
vector 146 Highway.node[15].prot frontDelay ETV
vector 147 Highway.node[15].prot frontDelayId ETV
vector 148 Highway.node[5].prot leaderDelay ETV
vector 149 Highway.node[5].prot leaderDelayId ETV
vector 150 Highway.node[5].prot frontDelay ETV
vector 151 Highway.node[5].prot frontDelayId ETV
vector 152 Highway.node[6].prot leaderDelay ETV
vector 153 Highway.node[6].prot leaderDelayId ETV
vector 154 Highway.node[7].prot leaderDelay ETV
vector 155 Highway.node[7].prot leaderDelayId ETV
vector 156 Highway.node[11].prot frontDelay ETV
vector 157 Highway.node[11].prot frontDelayId ETV
vector 158 Highway.node[14].prot frontDelay ETV
vector 159 Highway.node[14].prot frontDelayId ETV
vector 160 Highway.node[1].prot leaderDelay ETV
vector 161 Highway.node[1].prot leaderDelayId ETV
vector 162 Highway.node[1].prot frontDelay ETV
vector 163 Highway.node[1].prot frontDelayId ETV
vector 164 Highway.node[8].prot leaderDelay ETV
vector 165 Highway.node[8].prot leaderDelayId ETV
vector 166 Highway.node[9].prot leaderDelay ETV
vector 167 Highway.node[9].prot leaderDelayId ETV
vector 168 Highway.node[10].prot leaderDelay ETV
vector 169 Highway.node[10].prot leaderDelayId ETV
vector 170 Highway.node[11].prot leaderDelay ETV
vector 171 Highway.node[11].prot leaderDelayId ETV
vector 172 Highway.node[12].prot leaderDelay ETV
vector 173 Highway.node[12].prot leaderDelayId ETV
vector 174 Highway.node[13].prot leaderDelay ETV
vector 175 Highway.node[13].prot leaderDelayId ETV
vector 176 Highway.node[14].prot leaderDelay ETV
vector 177 Highway.node[14].prot leaderDelayId ETV
vector 178 Highway.node[15].prot leaderDelay ETV
vector 179 Highway.node[15].prot leaderDelayId ETV
vector 180 Highway.node[2].prot leaderDelay ETV
vector 181 Highway.node[2].prot leaderDelayId ETV
vector 182 Highway.node[3].prot leaderDelay ETV
vector 183 Highway.node[3].prot leaderDelayId ETV
vector 184 Highway.node[0].prot nodeId ETV
vector 185 Highway.node[0].prot busyTime ETV
vector 186 Highway.node[0].prot collisions ETV
vector 187 Highway.node[1].prot nodeId ETV
vector 188 Highway.node[1].prot busyTime ETV
vector 189 Highway.node[1].prot collisions ETV
vector 190 Highway.node[2].prot nodeId ETV
vector 191 Highway.node[2].prot busyTime ETV
vector 192 Highway.node[2].prot collisions ETV
vector 193 Highway.node[3].prot nodeId ETV
vector 194 Highway.node[3].prot busyTime ETV
vector 195 Highway.node[3].prot collisions ETV
vector 196 Highway.node[4].prot nodeId ETV
vector 197 Highway.node[4].prot busyTime ETV
vector 198 Highway.node[4].prot collisions ETV
vector 199 Highway.node[5].prot nodeId ETV
vector 200 Highway.node[5].prot busyTime ETV
vector 201 Highway.node[5].prot collisions ETV
vector 202 Highway.node[6].prot nodeId ETV
vector 203 Highway.node[6].prot busyTime ETV
vector 204 Highway.node[6].prot collisions ETV
vector 205 Highway.node[7].prot nodeId ETV
vector 206 Highway.node[7].prot busyTime ETV
vector 207 Highway.node[7].prot collisions ETV
vector 208 Highway.node[8].prot nodeId ETV
vector 209 Highway.node[8].prot busyTime ETV
vector 210 Highway.node[8].prot collisions ETV
vector 211 Highway.node[9].prot nodeId ETV
vector 212 Highway.node[9].prot busyTime ETV
vector 213 Highway.node[9].prot collisions ETV
vector 214 Highway.node[10].prot nodeId ETV
vector 215 Highway.node[10].prot busyTime ETV
vector 216 Highway.node[10].prot collisions ETV
vector 217 Highway.node[11].prot nodeId ETV
vector 218 Highway.node[11].prot busyTime ETV
vector 219 Highway.node[11].prot collisions ETV
vector 220 Highway.node[12].prot nodeId ETV
vector 221 Highway.node[12].prot busyTime ETV
vector 222 Highway.node[12].prot collisions ETV
vector 223 Highway.node[13].prot nodeId ETV
vector 224 Highway.node[13].prot busyTime ETV
vector 225 Highway.node[13].prot collisions ETV
vector 226 Highway.node[14].prot nodeId ETV
vector 227 Highway.node[14].prot busyTime ETV
vector 228 Highway.node[14].prot collisions ETV
vector 229 Highway.node[15].prot nodeId ETV
vector 230 Highway.node[15].prot busyTime ETV
vector 231 Highway.node[15].prot collisions ETV
0	16709 17933 113 1335279 1.11 99.91 989 -1 9263.17 100916.87 943870480.9379
1	34642 17010 113 1335279 1.11 99.91 989 -0.000160959 0 -0.00124511649 1.7023914112061e-07
2	51652 16889 113 1335279 1.11 99.91 989 0 0 0 0
3	68541 19177 113 1335279 1.11 99.91 989 -3.14892e-05 0.000707784 0.010991577126781 6.0508064149601e-06
4	87718 26835 113 1335279 1.11 99.91 989 -4.89399e-05 0.00109259 0.010614843047836 8.6815283230331e-06
5	114553 22816 113 1335279 1.11 99.91 989 36.11 36.1111 35713.866699999 1289666.6073546
6	137369 22767 113 1335279 1.11 99.91 989 91.7299 3659.51 1854985.4227 4530450217.5627
7	160136 21834 113 1335279 1.11 99.91 989 242.45 242.45 239783.05 58135400.472499
8	181970 22540 114 1335280 1.11 99.91 989 -1 19.9999 15613.94432 294279.68470205
9	204510 25078 114 1335280 1.11 99.91 989 -2.49398e-05 1.43318 179.99943882844 170.61146340424
10	229588 17878 114 1335280 1.11 99.91 989 1 1 989 989
11	247466 26829 114 1335280 1.11 99.91 989 -0.714797 0.115811 -11.464732119746 12.988521875225
12	274295 26854 114 1335280 1.11 99.91 989 -1.10017 0.116763 -10.434293704464 16.586815647139
13	301149 23662 114 1335280 1.11 99.91 989 34.6779 36.1111 35504.5235 1274747.2532483
14	324811 23733 114 1335280 1.11 99.91 989 85.7299 3632.63 1834620.0756 4444853707.1679
15	348544 22823 114 1335280 1.11 99.91 989 242.45 245.75 239901.85 58193398.632499
16	371367 23621 115 1335281 1.11 99.91 989 1.99999 43.8967 13150.23799 256935.07390226
17	394988 25441 115 1335281 1.11 99.91 989 -1.04249 0.532935 155.24469375081 86.188986778255
18	420429 18867 115 1335281 1.11 99.91 989 10 10 9890 98900
19	439296 25755 115 1335281 1.11 99.91 989 -1.21068 0.213238 -21.705801995513 74.760027793681
20	465051 25743 115 1335281 1.11 99.91 989 -1.40059 0.213509 -24.325720973859 82.256311165962
21	490794 23701 115 1335281 1.11 99.91 989 29.9536 36.1111 33884.3072 1165383.3951182
22	514495 23714 115 1335281 1.11 99.91 989 31.7299 3416.66 1671930.1147 3759208070.6058
23	538209 22823 115 1335281 1.11 99.91 989 242.45 242.45 239783.05 58135400.472499
24	561032 23069 116 1335282 1.11 99.91 989 -1 19.9005 11124.56239 180024.77803479
25	584101 25105 116 1335282 1.11 99.91 989 -0.000274524 0.508404 179.00987958738 63.866424513487
26	609206 18867 116 1335282 1.11 99.91 989 11 11 10879 119669
27	628073 25679 116 1335282 1.11 99.91 989 -1.4313 0.205165 -31.957379311825 94.480620865753
28	653752 25660 116 1335282 1.11 99.91 989 -1.5 0.205356 -31.302223389854 106.17982007913
29	679412 23671 116 1335282 1.11 99.91 989 29.785 36.1111 33669.3198 1151056.8681408
30	703083 23685 116 1335282 1.11 99.91 989 25.7299 3389.21 1656046.3291 3692367055.7408
31	726768 22823 116 1335282 1.11 99.91 989 242.45 249.05 240020.65 58252180.8725
32	749591 18867 117 1335283 1.11 99.91 989 -1 -1 -989 989
33	768458 17878 117 1335283 1.11 99.91 989 0 0 0 0
34	786336 18867 117 1335283 1.11 99.91 989 12 12 11868 142416
35	805203 20166 117 1335283 1.11 99.91 989 -3.14892e-05 0.000707784 0.010991577126781 6.0508064149601e-06
36	825369 27824 117 1335283 1.11 99.91 989 -4.89399e-05 0.00109259 0.010614843047836 8.6815283230331e-06
37	853193 23805 117 1335283 1.11 99.91 989 36.11 36.1111 35713.866699999 1289666.6073546
38	876998 23612 117 1335283 1.11 99.91 989 9376.9 12944.7 11038020.02 124244218340.68
39	900610 22823 117 1335283 1.11 99.91 989 242.45 242.45 239783.05 58135400.472499
40	923433 21621 118 1335284 1.11 99.91 989 -1 14.9837 5573.22139 79262.764167372
41	945054 22367 118 1335284 1.11 99.91 989 -2.00768e-05 1.03507 129.8383102835 88.991194520249
42	967421 18867 118 1335284 1.11 99.91 989 13 13 12857 167141
43	986288 25592 118 1335284 1.11 99.91 989 -0.393657 0.0836411 -1.0687545570323 3.6235598089886
44	1011880 27274 118 1335284 1.11 99.91 989 -0.518252 0.0843284 -0.57531984334271 4.2175398653531
45	1039154 21985 118 1335284 1.11 99.91 989 35.076 36.1111 35537.5983 1277030.2368801
46	1061139 23705 118 1335284 1.11 99.91 989 9370.9 12921.1 11020745.42 123849635139.6
47	1084844 22823 118 1335284 1.11 99.91 989 242.45 245.75 241185.55 58820100.9725
48	1107667 23690 119 1335285 1.11 99.91 989 2 46.2173 23767.11725 846963.9266777
49	1131357 25032 119 1335285 1.11 99.91 989 0 0.975189 252.39002058197 134.25697417147
50	1156389 18867 119 1335285 1.11 99.91 989 14 14 13846 193844
51	1175256 26385 119 1335285 1.11 99.91 989 -0.611588 0.129391 -1.0623756479533 14.611161757797
52	1201641 26424 119 1335285 1.11 99.91 989 -0.931387 0.130134 -0.28351970953813 17.860847197227
53	1228065 22973 119 1335285 1.11 99.91 989 34.292 36.1111 35331.6391 1262439.4182181
54	1251038 23649 119 1335285 1.11 99.91 989 9364.9 12894.5 11002048.5 123419832814.04
55	1274687 22823 119 1335285 1.11 99.91 989 242.45 242.45 239783.05 58135400.472499
56	1297510 21615 120 1335286 1.11 99.91 989 -1 33.9405 5029.71358 68234.730689716
57	1319125 22245 120 1335286 1.11 99.91 989 0 0.690802 129.87409840687 61.591668402218
58	1341370 18867 120 1335286 1.11 99.91 989 15 15 14835 222525
59	1360237 25664 120 1335286 1.11 99.91 989 -1.5075 1.03031 8.9072587379023 35.748676751431
60	1385901 26814 120 1335286 1.11 99.91 989 -2.51182 1.5 8.8339402348071 72.222658244296
61	1412715 22182 120 1335286 1.11 99.91 989 33.6787 37.0714 35676.5868 1287934.5511085
62	1434897 23640 120 1335286 1.11 99.91 989 9358.9 12922.9 10996984.32 123326049778.93
63	1458537 22823 120 1335286 1.11 99.91 989 242.45 249.05 242558.34999999 59499449.532502
64	1481360 23662 121 1335287 1.11 99.91 989 2 50.4801 16865.97124 359096.20633465
65	1505022 26068 121 1335287 1.11 99.91 989 0 3.19594 246.39992417634 304.02560429004
66	1531090 17878 121 1335287 1.11 99.91 989 2 2 1978 3956
67	1548968 26587 121 1335287 1.11 99.91 989 -1.43422 0.17905 -31.946742933503 53.848246115378
68	1575555 26544 121 1335287 1.11 99.91 989 -1.5 0.180195 -31.319419718596 63.749714107169
69	1602099 23652 121 1335287 1.11 99.91 989 32.9152 36.1111 35287.4683 1259642.7548932
70	1625751 23695 121 1335287 1.11 99.91 989 79.7299 3605.03 1814701.5874 4360994340.4254
71	1649446 22823 121 1335287 1.11 99.91 989 242.45 242.45 239783.05 58135400.472499
72	1672269 23647 122 1335288 1.11 99.91 989 2 43.9988 16315.08229 338142.26055781
73	1695916 26039 122 1335288 1.11 99.91 989 -0.533928 0.957079 169.59305449463 121.85870629464
74	1721955 17878 122 1335288 1.11 99.91 989 3 3 2967 8901
75	1739833 26436 122 1335288 1.11 99.91 989 -1.01248 0.2137 -11.766394721711 33.933879330505
76	1766269 26473 122 1335288 1.11 99.91 989 -1.25864 0.214663 -12.130694055092 38.446550298834
77	1792742 23695 122 1335288 1.11 99.91 989 32.7458 36.1111 35154.9343 1250538.3835152
78	1816437 23700 122 1335288 1.11 99.91 989 73.7299 3585.67 1795333.9793 4279617406.1111
79	1840137 22823 122 1335288 1.11 99.91 989 242.45 245.75 239901.85 58193398.632499
80	1862960 23652 123 1335289 1.11 99.91 989 2 43.9974 15839.5974 324156.24209698
81	1886612 25895 123 1335289 1.11 99.91 989 -1.3819 0.838095 148.52881595554 137.68097639331
82	1912507 17878 123 1335289 1.11 99.91 989 4 4 3956 15824
83	1930385 26307 123 1335289 1.11 99.91 989 -1.18595 0.231382 -26.628670231882 63.667535947929
84	1956692 26303 123 1335289 1.11 99.91 989 -1.34443 0.23229 -30.30793474037 73.32303911232
85	1982995 23693 123 1335289 1.11 99.91 989 32.0671 36.1111 34958.947 1237178.3579718
86	2006688 23720 123 1335289 1.11 99.91 989 67.7299 3560.15 1776342.6642 4199527904.2079
87	2030408 22823 123 1335289 1.11 99.91 989 242.45 242.45 239783.05 58135400.472499
88	2053231 23477 124 1335290 1.11 99.91 989 1.99334 43.995 15421.8714 315829.19126322
89	2076708 25853 124 1335290 1.11 99.91 989 -0.4155 0.756633 171.87140879433 96.912424648384
90	2102561 17878 124 1335290 1.11 99.91 989 5 5 4945 24725
91	2120439 26201 124 1335290 1.11 99.91 989 -1.16056 0.238688 -8.611164563434 47.851314373405
92	2146640 26230 124 1335290 1.11 99.91 989 -1.39244 0.239181 -10.070250113386 53.385228871895
93	2172870 23696 124 1335290 1.11 99.91 989 31.5161 36.1111 34803.0773 1226712.2914997
94	2196566 23697 124 1335290 1.11 99.91 989 61.7299 3538.47 1757840.8462 4121518589.702
95	2220263 22823 124 1335290 1.11 99.91 989 242.45 245.75 239901.85 58193398.632499
96	2243086 23563 125 1335291 1.11 99.91 989 1.99999 47.1111 15033.95448 309524.69818542
97	2266649 25621 125 1335291 1.11 99.91 989 -6.26177e-06 1.38304 211.42430158 119.80979595953
98	2292270 17878 125 1335291 1.11 99.91 989 6 6 5934 35604
99	2310148 26061 125 1335291 1.11 99.91 989 -1.43406 0.23884 -31.94746651128 85.248589505129
100	2336209 26995 125 1335291 1.11 99.91 989 -1.5 0.239416 -31.318306909238 96.838742370097
101	2363204 24700 125 1335291 1.11 99.91 989 31.0744 36.1111 34567.5556 1210776.0887887
102	2387904 24698 125 1335291 1.11 99.91 989 55.7299 3509.03 1739693.7194 4044742261.8729
103	2412602 23812 125 1335291 1.11 99.91 989 242.45 242.45 239783.05 58135400.472499
104	2436414 24577 126 1335292 1.11 99.91 989 1.99598 43.9813 14533.94058 293669.81337084
105	2460991 26688 126 1335292 1.11 99.91 989 -0.331209 0.637261 176.21951624992 80.514327617262
106	2487679 18867 126 1335292 1.11 99.91 989 7 7 6923 48461
107	2506546 26983 126 1335292 1.11 99.91 989 -1.20105 0.234968 -5.256162383655 54.549629098862
108	2533529 26978 126 1335292 1.11 99.91 989 -1.40931 0.23543 -6.2651638892059 59.48418830015
109	2560507 24691 126 1335292 1.11 99.91 989 30.7075 36.1111 34446.929 1202868.6622007
110	2585198 24677 126 1335292 1.11 99.91 989 49.7299 3490.84 1722136.2406 3970841192.346
111	2609875 23812 126 1335292 1.11 99.91 989 242.45 245.75 239901.85 58193398.632499
112	2633687 24298 127 1335293 1.11 99.91 989 1.9804 43.9669 14070.24631 281693.76907241
113	2657985 26589 127 1335293 1.11 99.91 989 -0.693721 0.597898 168.53612825689 81.499320609395
114	2684574 18867 127 1335293 1.11 99.91 989 8 8 7912 63296
115	2703441 26849 127 1335293 1.11 99.91 989 -1.2527 0.228892 -26.758285320955 79.346840529373
116	2730290 26856 127 1335293 1.11 99.91 989 -1.5 0.229324 -28.018419432579 90.281327310417
117	2757146 24664 127 1335293 1.11 99.91 989 30.4037 36.1111 34219.1561 1187535.9496959
118	2781810 24686 127 1335293 1.11 99.91 989 43.7299 3462.17 1704902.1951 3897962164.3524
119	2806496 23812 127 1335293 1.11 99.91 989 242.45 242.45 239783.05 58135400.472499
120	2830308 24524 128 1335294 1.11 99.91 989 1.99999 46.129 13667.60876 274282.5373733
121	2854832 26429 128 1335294 1.11 99.91 989 -5.45276e-06 0.876509 201.84132105942 86.965738908076
122	2881261 18867 128 1335294 1.11 99.91 989 9 9 8901 80109
123	2900128 26788 128 1335294 1.11 99.91 989 -1.20998 0.221349 -11.461105436984 63.865088418128
124	2926916 26809 128 1335294 1.11 99.91 989 -1.40867 0.221614 -10.435274793702 70.735482227688
125	2953725 24683 128 1335294 1.11 99.91 989 30.1571 36.1111 34065.3246 1177381.6555029
126	2978408 24687 128 1335294 1.11 99.91 989 37.7299 3440.71 1688202.7961 3827659246.0709
127	3003095 23812 128 1335294 1.11 99.91 989 242.45 245.75 239901.85 58193398.632499
128	3026907 41363 1514 1335342 1.220822220845 99.920813154332 988 0.099990200831 0.100006875828 98.799994134318 9.8799988656885
129	3068270 28619 1514 1335342 1.220822220845 99.920813154332 988 2 2 1976 3952
130	3096889 41358 1603 1335437 1.221206380956 99.921262782688 988 0.099899200836 0.100097795281 98.799994602563 9.8800007181079
131	3138247 29612 1603 1335437 1.221206380956 99.921262782688 988 10 10 9880 98800
132	3167859 41347 1707 1335535 1.229312501039 99.929317271132 988 0.09998961203 0.100009363688 98.800007970924 9.8800016333735
133	3209206 28603 1707 1335535 1.229312501039 99.929317271132 988 4 4 3952 15808
134	3237809 41367 1790 1335618 1.230762180126 99.930761596663 988 0.09999239065 0.100011519574 98.799997576649 9.879999533523
135	3279176 29596 1790 1335618 1.230762180126 99.930761596663 988 15 15 14820 222300
136	3308772 41356 1840 1335662 1.235858561081 99.935850502611 988 0.099989815119 0.100006871928 98.799995142361 9.8799990674846
137	3350128 28614 1840 1335662 1.235858561081 99.935850502611 988 7 7 6916 48412
138	3378742 41337 1938 1335766 1.237919581095 99.937911639253 988 0.099990200831 0.100006877419 98.799995258989 9.8799990906199
139	3420079 28608 1938 1335766 1.237919581095 99.937911639253 988 6 6 5928 35568
140	3448687 41341 2031 1335865 1.244322681164 99.944328041118 988 0.099989908511 0.100006880396 98.799995560785 9.8799991510306
141	3490028 29593 2031 1335865 1.244322681164 99.944328041118 988 11 11 10868 119548
142	3519621 41356 2135 1335957 1.246409841275 99.946415640238 988 0.099989612812 0.100006879035 98.800008999794 9.8800018390884
143	3560977 28608 2135 1335957 1.246409841275 99.946415640238 988 3 3 2964 8892
144	3589585 41363 2218 1336052 1.25220620014 99.952205677953 988 0.099992392552 0.100011520687 98.799997637925 9.879999545778
145	3630948 29613 2218 1336052 1.25220620014 99.952205677953 988 14 14 13832 193648
146	3660561 41365 2268 1336090 1.256725961358 99.956719123634 988 0.099989914372 0.10000687601 98.799996363107 9.879999311551
147	3701926 28651 2268 1336090 1.256725961358 99.956719123634 988 9 9 8892 80028
148	3730577 41355 2380 1336214 1.27801230021 99.978011756531 988 0.099992393042 0.100011519768 98.799997616433 9.8799995413551
149	3771932 29606 2380 1336214 1.27801230021 99.978011756531 988 13 13 12844 166972
150	3801538 41355 2380 1336214 1.27801230021 99.978011756531 988 0.099992393042 0.100011519768 98.799997616433 9.8799995413551
151	3842893 29606 2380 1336214 1.27801230021 99.978011756531 988 13 13 12844 166972
152	3872499 41363 2386 1336220 1.278012320224 99.978011844481 988 0.099992392096 0.100011520055 98.799997684369 9.8799995549423
153	3913862 29620 2386 1336220 1.278012320224 99.978011844481 988 14 14 13832 193648
154	3943482 41365 2392 1336208 1.278012340238 99.978011752638 988 0.0999923921 0.100011519493 98.799997572512 9.8799995325709
155	3984847 29609 2392 1336208 1.278012340238 99.978011752638 988 15 15 14820 222300
156	4014456 41379 2438 1336260 1.291846041413 99.99183945089 988 0.099989914373 0.100006875938 98.799996610308 9.879999360988
157	4055835 28629 2438 1336260 1.291846041413 99.99183945089 988 5 5 4940 24700
158	4084464 41328 2635 1335125 1.306173261565 99.906173504684 987 0.099989372301 0.100009362927 98.70000344395 9.8700007278566
159	4125792 28598 2635 1335125 1.306173261565 99.906173504684 987 8 8 7896 63168
160	4154390 41332 2727 1335217 1.308754401662 99.908755061467 987 0.099989908448 0.100006878168 98.700003860636 9.8700008109108
161	4195722 28593 2727 1335217 1.308754401662 99.908755061467 987 1 1 987 987
162	4224315 41332 2727 1335217 1.308754401662 99.908755061467 987 0.099989908448 0.100006878168 98.700003860636 9.8700008109108
163	4265647 28593 2727 1335217 1.308754401662 99.908755061467 987 1 1 987 987
164	4294240 41312 2733 1335223 1.308754421676 99.908755152868 987 0.099989908448 0.10000687885 98.700003932023 9.8700008251882
165	4335552 28585 2733 1335223 1.308754421676 99.908755152868 987 2 2 1974 3948
166	4364137 41331 2739 1335229 1.30875444169 99.908755217674 987 0.099989908449 0.100006878173 98.700003976815 9.8700008341466
167	4405468 28592 2739 1335229 1.30875444169 99.908755217674 987 3 3 2961 8883
168	4434060 41316 2745 1335235 1.308754461703 99.908755302572 987 0.099989908449 0.100006878648 98.7000040417 9.8700008471236
169	4475376 28593 2745 1335235 1.308754461703 99.908755302572 987 4 4 3948 15792
170	4503969 41335 2751 1335241 1.308754481717 99.908755375026 987 0.099989908449 0.100006878062 98.70000409414 9.8700008576116
171	4545304 28599 2751 1335241 1.308754481717 99.908755375026 987 5 5 4935 24675
172	4573903 41307 2757 1335247 1.308754501731 99.90875547306 987 0.09998990845 0.10000687885 98.70000417216 9.8700008732156
173	4615210 28594 2757 1335247 1.308754501731 99.90875547306 987 6 6 5922 35532
174	4643804 41312 2763 1335253 1.308754521745 99.908755533865 987 0.099989908453 0.100006877953 98.700004212951 9.8700008813738
175	4685116 28580 2763 1335253 1.308754521745 99.908755533865 987 7 7 6909 48363
176	4713696 41324 2769 1335259 1.308754541759 99.908755629391 987 0.099989908456 0.100006878666 98.700004288463 9.8700008964762
177	4755020 28601 2769 1335259 1.308754541759 99.908755629391 987 8 8 7896 63168
178	4783621 41329 2775 1335265 1.308754561773 99.908755701053 987 0.099989908463 0.100006878171 98.700004340111 9.8700009068059
179	4824950 28608 2775 1335265 1.308754561773 99.908755701053 987 9 9 8883 79947
180	4853558 41316 2781 1335271 1.308754581786 99.908755781197 987 0.09998990847 0.100006878491 98.700004400242 9.870000918832
181	4894874 29589 2781 1335271 1.308754581786 99.908755781197 987 10 10 9870 98700
182	4924463 41305 2787 1335277 1.3087546018 99.908755873018 987 0.099989908482 0.100006878851 98.700004472049 9.8700009331934
183	4965768 29576 2787 1335277 1.3087546018 99.908755873018 987 11 11 10857 119427
184	4995344 1595 11958 1336420 2 100 99 0 0 0 0
185	4996939 2206 11958 1336420 2 100 99 0.03308 0.03919956331 3.70641856331 0.13878537052469
186	4999145 1595 11958 1336420 2 100 99 0 0 0 0
187	5000740 1595 11959 1336421 2 100 99 1 1 99 99
188	5002335 2208 11959 1336421 2 100 99 0.033081 0.038826 3.705758159448 0.13873465645092
189	5004543 1595 11959 1336421 2 100 99 0 0 0 0
190	5006138 1694 11960 1336422 2 100 99 10 10 990 9900
191	5007832 2208 11960 1336422 2 100 99 0.033081 0.038826 3.705759599478 0.13873476472931
192	5010040 1595 11960 1336422 2 100 99 0 0 0 0
193	5011635 1694 11961 1336423 2 100 99 11 11 1089 11979
194	5013329 2208 11961 1336423 2 100 99 0.033081 0.038860759524 3.705759759524 0.13873486463578
195	5015537 1595 11961 1336423 2 100 99 0 0 0 0
196	5017132 1694 11962 1336424 2 100 99 12 12 1188 14256
197	5018826 2200 11962 1336424 2 100 99 0.011241 0.013069758928 1.236177758928 0.015437650512436
198	5021026 1595 11962 1336424 2 100 99 0 0 0 0
199	5022621 1694 11963 1336425 2 100 99 13 13 1287 16731
200	5024315 2198 11963 1336425 2 100 99 0.011241 0.01297 1.23604612609 0.01543424864031
201	5026513 1595 11963 1336425 2 100 99 0 0 0 0
202	5028108 1694 11964 1336426 2 100 99 14 14 1386 19404
203	5029802 2199 11964 1336426 2 100 99 0.011241 0.01297 1.236046252586 0.015434251836912
204	5032001 1595 11964 1336426 2 100 99 0 0 0 0
205	5033596 1694 11965 1336427 2 100 99 15 15 1485 22275
206	5035290 2200 11965 1336427 2 100 99 0.011241 0.013003379186 1.236046379186 0.015434279603255
207	5037490 1595 11965 1336427 2 100 99 0 0 0 0
208	5039085 1595 11966 1336428 2 100 99 2 2 198 396
209	5040680 2208 11966 1336428 2 100 99 0.033081 0.038826 3.705758319308 0.13873466847087
210	5042888 1595 11966 1336428 2 100 99 0 0 0 0
211	5044483 1595 11967 1336429 2 100 99 3 3 297 891
212	5046078 2208 11967 1336429 2 100 99 0.033081 0.038826 3.705758479264 0.13873468049809
213	5048286 1595 11967 1336429 2 100 99 0 0 0 0
214	5049881 1595 11968 1336430 2 100 99 4 4 396 1584
215	5051476 2208 11968 1336430 2 100 99 0.033081 0.038826 3.705758639272 0.13873469252927
216	5053684 1595 11968 1336430 2 100 99 0 0 0 0
217	5055279 1595 11969 1336431 2 100 99 5 5 495 2475
218	5056874 2208 11969 1336431 2 100 99 0.033081 0.038826 3.705758799282 0.13873470456065
219	5059082 1595 11969 1336431 2 100 99 0 0 0 0
220	5060677 1595 11970 1336432 2 100 99 6 6 594 3564
221	5062272 2208 11970 1336432 2 100 99 0.033081 0.038826 3.705758959308 0.13873471659329
222	5064480 1595 11970 1336432 2 100 99 0 0 0 0
223	5066075 1595 11971 1336433 2 100 99 7 7 693 4851
224	5067670 2207 11971 1336433 2 100 99 0.03308 0.038826 3.705758119332 0.13873466246483
225	5069877 1595 11971 1336433 2 100 99 0 0 0 0
226	5071472 1595 11972 1336434 2 100 99 8 8 792 6336
227	5073067 2208 11972 1336434 2 100 99 0.033081 0.038826 3.705759279386 0.13873474066067
228	5075275 1595 11972 1336434 2 100 99 0 0 0 0
229	5076870 1595 11973 1336435 2 100 99 9 9 891 8019
230	5078465 2208 11973 1336435 2 100 99 0.033081 0.038826 3.705759439432 0.13873475269496
231	5080673 1595 11973 1336435 2 100 99 0 0 0 0

