file 2453922 1720451512                                         
version 3
run BreakRanksNoGui-23-20240708-17:11:38-153186
attr configname BreakRanksNoGui
attr datetime 20240708-17:11:38
attr datetimef 20240708-171138
attr experiment BreakRanksNoGui
attr inifile omnetpp.ini
attr iterationvars "$nCars=8, $platoonSize=8, $nLanes=1, $ploegH=0.5, $controller=1, $headway=0.1, $leaderHeadway=1.2, $leaderSpeed=110, $breakRanksSafetyDistance=5, $minSpeed=100, $maxSpeed=120, $beaconInterval=0.1, $priority=4, $packetSize=200, $sController=\"CACC\", $0=2, $1=0"
attr iterationvarsd nCars=8/platoonSize=8/nLanes=1/ploegH=0.5/controller=1/headway=0.1/leaderHeadway=1.2/leaderSpeed=110/breakRanksSafetyDistance=5/minSpeed=100/maxSpeed=120/beaconInterval=0.1/priority=4/packetSize=200/sController=CACC/2/0
attr iterationvarsf nCars=8,platoonSize=8,nLanes=1,ploegH=0.5,controller=1,headway=0.1,leaderHeadway=1.2,leaderSpeed=110,breakRanksSafetyDistance=5,minSpeed=100,maxSpeed=120,beaconInterval=0.1,priority=4,packetSize=200,sController=CACC,2,0-
attr measurement "$nCars=8, $platoonSize=8, $nLanes=1, $ploegH=0.5, $controller=1, $headway=0.1, $leaderHeadway=1.2, $leaderSpeed=110, $breakRanksSafetyDistance=5, $minSpeed=100, $maxSpeed=120, $beaconInterval=0.1, $priority=4, $packetSize=200, $sController=\"CACC\", $0=2, $1=0"
attr network Highway
attr processid 153186
attr repetition 3
attr replication #3
attr resultdir results
attr runnumber 23
attr seedset 3
itervar beaconInterval 0.1
itervar breakRanksSafetyDistance 5
itervar controller 1
itervar headway 0.1
itervar leaderHeadway 1.2
itervar leaderSpeed 110
itervar maxSpeed 120
itervar minSpeed 100
itervar nCars 8
itervar nLanes 1
itervar packetSize 200
itervar platoonSize 8
itervar ploegH 0.5
itervar priority 4
itervar sController "\"CACC\""
config image-path ../../../veins/images
config repeat 10
config extends BreakRanks
config *.manager.command "\"sumo\""
config *.manager.ignoreGuiCommands true
config output-vector-file results/BreakRanks_1_0.1_110_5/result_3.vec
config output-scalar-file results/BreakRanks_1_0.1_110_5/result_3.sca
config extends Platooning
config *.node[*].scenario_type "\"BreakRanksScenario\""
config *.manager.command "\"sumo-gui\""
config *.node[*].scenario_type "\"SimpleScenario\""
config cmdenv-express-mode true
config cmdenv-autoflush true
config cmdenv-status-frequency 15s
config num-rngs 6
config network Highway
config debug-on-errors true
config print-undisposed true
config *.playgroundSizeX 65000m
config *.playgroundSizeY 25000m
config *.playgroundSizeZ 50m
config sim-time-limit "100 s"
config *.annotations.draw false
config *.obstacles.debug false
config *.world.useTorus false
config *.world.use2D false
config *.manager.updateInterval 0.01s
config *.manager.host "\"localhost\""
config *.manager.moduleType "\"org.car2x.plexe.PlatoonCar\""
config *.manager.moduleName "\"node\""
config *.manager.moduleDisplayString "\"\""
config *.manager.autoShutdown true
config *.manager.margin 25
config *.connectionManager.sendDirect true
config *.connectionManager.maxInterfDist 2600m
config *.connectionManager.drawMaxIntfDist false
config *.**.nic.mac1609_4.useServiceChannel false
config *.**.nic.mac1609_4.txPower 100mW
config *.**.nic.mac1609_4.bitrate 6Mbps
config *.**.nic.mac1609_4.useAcks true
config *.**.nic.mac1609_4.ackErrorRate 0.0
config *.**.nic.mac1609_4.frameErrorRate 0.0
config *.**.nic.phy80211p.minPowerLevel -94dBm
config *.**.nic.phy80211p.maxTXPower 100mW
config *.**.nic.phy80211p.useNoiseFloor true
config *.**.nic.phy80211p.noiseFloor -95dBm
config *.**.nic.phy80211p.decider "xmldoc(\"config.xml\")"
config *.**.nic.phy80211p.analogueModels "xmldoc(\"config.xml\")"
config *.**.nic.phy80211p.usePropagationDelay true
config *.node[*].mobility.x 0
config *.node[*].mobility.y 0
config *.node[*].mobility.z 1.895
config seed-set 3
config **.seed 3
config *.node[*].prot.rng-0 2
config *.node[*].appl.rng-0 3
config *.node[*].scenario.rng-0 4
config **.traffic.rng-0 5
config *.manager.configFile "\"./sumocfg/freeway.sumo.cfg\""
config *.manager.launchConfig "xmldoc(\"./sumocfg/freeway.launchd.xml\")"
config **.numberOfCars 8
config **.numberOfCarsPerPlatoon 8
config **.numberOfLanes 1
config *.node[*].helper_type "\"PositionHelper\""
config *.node[*].scenario.caccC1 0.5
config *.node[*].scenario.caccXi 1
config *.node[*].scenario.caccOmegaN "0.2 Hz"
config *.node[*].scenario.caccSpacing "2 m"
config *.node[*].scenario.engineTau "0.5 s"
config *.node[*].scenario.ploegH 0.5s
config *.node[*].scenario.ploegKp 0.2
config *.node[*].scenario.ploegKd 0.7
config *.node[*].scenario.useRealisticEngine false
config *.node[*].scenario.useControllerAcceleration true
config *.node[*].scenario.nLanes 1
config **.numericController 1
config **.headway 0.1s
config *.node[*].scenario.accHeadway 0.1s
config *.node[*].scenario.leaderHeadway 1.2s
config *.node[*].scenario.leaderSpeed 110kmph
config *.node[*].appl_type "\"SimplePlatooningApp\""
config *.node[*].appl.*.scalar-recording true
config *.node[*].appl.*.vector-recording true
config *.node[0].appl.breakRanksSafetyDistance 5m
config *.node[*].appl.minSpeed 100kmph
config *.node[*].appl.maxSpeed 120kmph
config *.node[*].protocol_type "\"SimplePlatooningBeaconing\""
config *.node[*].prot.*.scalar-recording true
config *.node[*].prot.*.vector-recording true
config *.node[*].prot.beaconingInterval 0.1s
config *.node[*].prot.priority 4
config *.node[*].prot.packetSize 200
config **.traffic_type "\"PlatoonsTrafficManager\""
config **.traffic.platoonInsertTime "1 s"
config **.traffic.platoonInsertSpeed 110kmph
config **.traffic.nCars 8
config **.traffic.platoonSize 8
config **.traffic.nLanes 1
config **.traffic.platooningVType "\"vtypeauto\""
config **.traffic.controller "\"CACC\""
config **.traffic.platoonInsertDistance 2m
config **.traffic.platoonInsertHeadway 0s
config **.traffic.platoonLeaderHeadway 1.2s
config **.scalar-recording false
config **.vector-recording false
config output-vector-file results/BreakRanksNoGui_1_0.1_110_5/result_3.vec
config output-scalar-file results/BreakRanksNoGui_1_0.1_110_5/result_3.sca

vector 0 Highway.node[0].appl distance ETV
vector 1 Highway.node[0].appl relativeSpeed ETV
vector 2 Highway.node[0].appl nodeId ETV
vector 3 Highway.node[0].appl acceleration ETV
vector 4 Highway.node[0].appl controllerAcceleration ETV
vector 5 Highway.node[0].appl speed ETV
vector 6 Highway.node[0].appl posx ETV
vector 7 Highway.node[0].appl posy ETV
vector 8 Highway.node[1].appl distance ETV
vector 9 Highway.node[1].appl relativeSpeed ETV
vector 10 Highway.node[1].appl nodeId ETV
vector 11 Highway.node[1].appl acceleration ETV
vector 12 Highway.node[1].appl controllerAcceleration ETV
vector 13 Highway.node[1].appl speed ETV
vector 14 Highway.node[1].appl posx ETV
vector 15 Highway.node[1].appl posy ETV
vector 16 Highway.node[2].appl distance ETV
vector 17 Highway.node[2].appl relativeSpeed ETV
vector 18 Highway.node[2].appl nodeId ETV
vector 19 Highway.node[2].appl acceleration ETV
vector 20 Highway.node[2].appl controllerAcceleration ETV
vector 21 Highway.node[2].appl speed ETV
vector 22 Highway.node[2].appl posx ETV
vector 23 Highway.node[2].appl posy ETV
vector 24 Highway.node[3].appl distance ETV
vector 25 Highway.node[3].appl relativeSpeed ETV
vector 26 Highway.node[3].appl nodeId ETV
vector 27 Highway.node[3].appl acceleration ETV
vector 28 Highway.node[3].appl controllerAcceleration ETV
vector 29 Highway.node[3].appl speed ETV
vector 30 Highway.node[3].appl posx ETV
vector 31 Highway.node[3].appl posy ETV
vector 32 Highway.node[4].appl distance ETV
vector 33 Highway.node[4].appl relativeSpeed ETV
vector 34 Highway.node[4].appl nodeId ETV
vector 35 Highway.node[4].appl acceleration ETV
vector 36 Highway.node[4].appl controllerAcceleration ETV
vector 37 Highway.node[4].appl speed ETV
vector 38 Highway.node[4].appl posx ETV
vector 39 Highway.node[4].appl posy ETV
vector 40 Highway.node[5].appl distance ETV
vector 41 Highway.node[5].appl relativeSpeed ETV
vector 42 Highway.node[5].appl nodeId ETV
vector 43 Highway.node[5].appl acceleration ETV
vector 44 Highway.node[5].appl controllerAcceleration ETV
vector 45 Highway.node[5].appl speed ETV
vector 46 Highway.node[5].appl posx ETV
vector 47 Highway.node[5].appl posy ETV
vector 48 Highway.node[6].appl distance ETV
vector 49 Highway.node[6].appl relativeSpeed ETV
vector 50 Highway.node[6].appl nodeId ETV
vector 51 Highway.node[6].appl acceleration ETV
vector 52 Highway.node[6].appl controllerAcceleration ETV
vector 53 Highway.node[6].appl speed ETV
vector 54 Highway.node[6].appl posx ETV
vector 55 Highway.node[6].appl posy ETV
vector 56 Highway.node[7].appl distance ETV
vector 57 Highway.node[7].appl relativeSpeed ETV
vector 58 Highway.node[7].appl nodeId ETV
vector 59 Highway.node[7].appl acceleration ETV
vector 60 Highway.node[7].appl controllerAcceleration ETV
vector 61 Highway.node[7].appl speed ETV
vector 62 Highway.node[7].appl posx ETV
vector 63 Highway.node[7].appl posy ETV
vector 64 Highway.node[1].prot leaderDelay ETV
vector 65 Highway.node[1].prot leaderDelayId ETV
vector 66 Highway.node[1].prot frontDelay ETV
vector 67 Highway.node[1].prot frontDelayId ETV
vector 68 Highway.node[2].prot leaderDelay ETV
vector 69 Highway.node[2].prot leaderDelayId ETV
vector 70 Highway.node[3].prot leaderDelay ETV
vector 71 Highway.node[3].prot leaderDelayId ETV
vector 72 Highway.node[4].prot leaderDelay ETV
vector 73 Highway.node[4].prot leaderDelayId ETV
vector 74 Highway.node[5].prot leaderDelay ETV
vector 75 Highway.node[5].prot leaderDelayId ETV
vector 76 Highway.node[6].prot leaderDelay ETV
vector 77 Highway.node[6].prot leaderDelayId ETV
vector 78 Highway.node[7].prot leaderDelay ETV
vector 79 Highway.node[7].prot leaderDelayId ETV
vector 80 Highway.node[7].prot frontDelay ETV
vector 81 Highway.node[7].prot frontDelayId ETV
vector 82 Highway.node[2].prot frontDelay ETV
vector 83 Highway.node[2].prot frontDelayId ETV
vector 84 Highway.node[5].prot frontDelay ETV
vector 85 Highway.node[5].prot frontDelayId ETV
vector 86 Highway.node[3].prot frontDelay ETV
vector 87 Highway.node[3].prot frontDelayId ETV
vector 88 Highway.node[6].prot frontDelay ETV
vector 89 Highway.node[6].prot frontDelayId ETV
vector 90 Highway.node[4].prot frontDelay ETV
vector 91 Highway.node[4].prot frontDelayId ETV
vector 92 Highway.node[0].prot nodeId ETV
vector 93 Highway.node[0].prot busyTime ETV
vector 94 Highway.node[0].prot collisions ETV
vector 95 Highway.node[1].prot nodeId ETV
vector 96 Highway.node[1].prot busyTime ETV
vector 97 Highway.node[1].prot collisions ETV
vector 98 Highway.node[2].prot nodeId ETV
vector 99 Highway.node[2].prot busyTime ETV
vector 100 Highway.node[2].prot collisions ETV
vector 101 Highway.node[3].prot nodeId ETV
vector 102 Highway.node[3].prot busyTime ETV
vector 103 Highway.node[3].prot collisions ETV
vector 104 Highway.node[4].prot nodeId ETV
vector 105 Highway.node[4].prot busyTime ETV
vector 106 Highway.node[4].prot collisions ETV
vector 107 Highway.node[5].prot nodeId ETV
vector 108 Highway.node[5].prot busyTime ETV
vector 109 Highway.node[5].prot collisions ETV
vector 110 Highway.node[6].prot nodeId ETV
vector 111 Highway.node[6].prot busyTime ETV
vector 112 Highway.node[6].prot collisions ETV
vector 113 Highway.node[7].prot nodeId ETV
vector 114 Highway.node[7].prot busyTime ETV
vector 115 Highway.node[7].prot collisions ETV
0	11335 17961 113 544538 1.11 99.91 989 -1 38.82 2069.816 97924.53026542
1	29296 16981 113 544538 1.11 99.91 989 0 1.4444 132.8848 191.93880512
2	46277 16521 113 544538 1.11 99.91 989 0 0 0 0
3	62798 19109 113 544538 1.11 99.91 989 -0.00283113 0.000125957 -0.043966303784312 9.6812896349407e-05
4	81907 26489 113 544538 1.11 99.91 989 -0.00437036 0.00019576 -0.042459310034081 0.00013890441444735
5	108396 22451 113 544538 1.11 99.91 989 30.5554 30.56 30219.5304 923377.16656332
6	130847 22290 113 544538 1.11 99.91 989 59.1004 3078 1551296.9489 3185931137.6231
7	153137 21466 113 544538 1.11 99.91 989 242.45 242.45 239783.05 58135400.472499
8	174603 20536 114 544539 1.11 99.91 989 -1 4.99843 2162.6523 11559.562353145
9	195139 21841 114 544539 1.11 99.91 989 -0.000441914 0.238908 29.98442918787 4.7410139438918
10	216980 17510 114 544539 1.11 99.91 989 1 1 989 989
11	234490 26327 114 544539 1.11 99.91 989 -0.0908387 0.929706 14.415234130207 10.637805381962
12	260817 26973 114 544539 1.11 99.91 989 -0.119592 1.43948 14.228502047883 15.605699672362
13	287790 22050 114 544539 1.11 99.91 989 30.3167 32.0644 30708.4536 954004.94546532
14	309840 23356 114 544539 1.11 99.91 989 53.1004 3120.82 1552286.4326 3209266717.1396
15	333196 22455 114 544539 1.11 99.91 989 242.45 245.75 240697.15 58581664.0925
16	355651 22552 115 544540 1.11 99.91 989 -1 43.4363 8765.59789 229191.6453495
17	378203 23843 115 544540 1.11 99.91 989 -0.00010195 2.11349 266.38596499272 305.30389555049
18	402046 17510 115 544540 1.11 99.91 989 2 2 1978 3956
19	419556 26519 115 544540 1.11 99.91 989 -1.33594 1.27846 4.4427769528836 44.278254594373
20	446075 26520 115 544540 1.11 99.91 989 -2.03798 1.5 5.1143406959761 59.133177226434
21	472595 22540 115 544540 1.11 99.91 989 28.4421 31.0884 30201.5908 922516.52279328
22	495135 23336 115 544540 1.11 99.91 989 47.1004 3064.18 1533640.1223 3126775978.8607
23	518471 22455 115 544540 1.11 99.91 989 242.45 249.05 241073.35 58766849.5325
24	540926 23319 116 544541 1.11 99.91 989 1.9995 112.766 22189.18534 1430146.0930914
25	564245 24116 116 544541 1.11 99.91 989 -0.000184629 4.35444 1081.3222886452 3307.1934943099
26	588361 17510 116 544541 1.11 99.91 989 3 3 2967 8901
27	605871 26446 116 544541 1.11 99.91 989 -2.15991 0.595591 -35.552508909367 84.026973728306
28	632317 26564 116 544541 1.11 99.91 989 -2.79842 0.80383 -34.362499434023 104.40056685631
29	658881 22238 116 544541 1.11 99.91 989 25.8498 30.56 28824.7556 842914.41900796
30	681119 23025 116 544541 1.11 99.91 989 41.1004 2920.7 1502679.2049 2978678117.371
31	704144 22455 116 544541 1.11 99.91 989 242.45 242.45 239783.05 58135400.472499
32	726599 23311 117 544542 1.11 99.91 989 1.99959 105.426 17934.73474 1098676.233167
33	749910 25060 117 544542 1.11 99.91 989 -1.03361 4.42924 404.88072679493 947.18947012665
34	774970 17510 117 544542 1.11 99.91 989 4 4 3956 15824
35	792480 25753 117 544542 1.11 99.91 989 -2.42602 1.45447 14.459843364278 200.92094720997
36	818233 25746 117 544542 1.11 99.91 989 -2.80223 1.5 15.486978370332 234.64817071914
37	843979 23325 117 544542 1.11 99.91 989 23.5301 32.1009 29287.8962 870843.45236354
38	867304 23321 117 544542 1.11 99.91 989 35.1004 2960.76 1494489.8578 2954805564.286
39	890625 22455 117 544542 1.11 99.91 989 242.45 249.05 240835.75 58650504.7325
40	913080 22401 118 544543 1.11 99.91 989 -1 71.0041 10393.02281 382635.99014111
41	935481 23590 118 544543 1.11 99.91 989 -4.6739e-05 6.00021 1011.7847475909 5050.3504051967
42	959071 17510 118 544543 1.11 99.91 989 5 5 4945 24725
43	976581 26025 118 544543 1.11 99.91 989 -1.46194 0.0651901 -35.562131462127 43.194605304526
44	1002606 26400 118 544543 1.11 99.91 989 -1.5 0.101251 -34.734597095087 50.501382925493
45	1029006 22107 118 544543 1.11 99.91 989 26.8987 30.56 28813.9661 841973.25241307
46	1051113 23345 118 544543 1.11 99.91 989 29.1004 2907.62 1488205.9234 2934752622.113
47	1074458 22455 118 544543 1.11 99.91 989 242.45 252.35 242234.95 59341870.572501
48	1096913 23303 119 544544 1.11 99.91 989 1.99986 105.756 27415.04033 1894324.787342
49	1120216 24484 119 544544 1.11 99.91 989 -6.21555e-05 3.1327 805.09323130884 1775.933923011
50	1144700 17510 119 544544 1.11 99.91 989 6 6 5934 35604
51	1162210 26572 119 544544 1.11 99.91 989 -0.989811 0.044121 -15.552204929537 13.225972377808
52	1188782 26580 119 544544 1.11 99.91 989 -1.5 0.0685179 -14.557449417433 17.88964136552
53	1215362 21989 119 544544 1.11 99.91 989 28.9314 30.56 29481.195 879225.05239352
54	1237351 23368 119 544544 1.11 99.91 989 23.1004 2968.24 1492399.217 2972524360.8861
55	1260719 22455 119 544544 1.11 99.91 989 242.45 245.75 240624.55 58546220.7725
56	1283174 21714 120 544545 1.11 99.91 989 -1 22.8003 2675.37611 26700.487003423
57	1304888 22966 120 544545 1.11 99.91 989 -1.32876 4.94596 40.864178536169 248.12445707683
58	1327854 17510 120 544545 1.11 99.91 989 7 7 6923 48461
59	1345364 26130 120 544545 1.11 99.91 989 -2.17183 1.49997 24.475362246947 242.36063777483
60	1371494 25877 120 544545 1.11 99.91 989 -2.26022 1.5 25.944862892307 277.44147859982
61	1397371 22505 120 544545 1.11 99.91 989 24.0195 33.1039 30377.0062 936121.48851144
62	1419876 23373 120 544545 1.11 99.91 989 17.1004 3051.62 1493965.5551 3000918406.4301
63	1443249 22455 120 544545 1.11 99.91 989 242.45 252.35 242383.45 59417744.172501
64	1465704 39979 701 544592 1.269543540376 99.969546085664 988 0.099987520329 0.100009073369 98.80000306565 9.8800006261857
65	1505683 27265 701 544592 1.269543540376 99.969546085664 988 1 1 988 988
66	1532948 39979 701 544592 1.269543540376 99.969546085664 988 0.099987520329 0.100009073369 98.80000306565 9.8800006261857
67	1572927 27265 701 544592 1.269543540376 99.969546085664 988 1 1 988 988
68	1600192 39983 707 544580 1.26954356039 99.969545989839 988 0.099987520329 0.10000907337 98.800002949811 9.8800006030179
69	1640175 27259 707 544580 1.26954356039 99.969545989839 988 2 2 1976 3952
70	1667434 39968 713 544610 1.269543580403 99.96954646795 988 0.099987520329 0.100009073372 98.800003407908 9.8800006946373
71	1707402 27247 713 544610 1.269543580403 99.96954646795 988 3 3 2964 8892
72	1734649 39999 719 544604 1.269543600417 99.969546333465 988 0.099987520329 0.100009073374 98.80000325341 9.8800006637377
73	1774648 27262 719 544604 1.269543600417 99.969546333465 988 4 4 3952 15808
74	1801910 40006 725 544616 1.269543620431 99.969546511683 988 0.099987520329 0.100009073378 98.800003411614 9.8800006953785
75	1841916 27287 725 544616 1.269543620431 99.969546511683 988 5 5 4940 24700
76	1869203 39999 731 544598 1.269543640445 99.96954630896 988 0.099987520329 0.100009073383 98.800003188877 9.8800006508311
77	1909202 27267 731 544598 1.269543640445 99.96954630896 988 6 6 5928 35568
78	1936469 39972 737 544586 1.269543660459 99.969546032757 988 0.099987520329 0.10000907339 98.80000289266 9.8800005915877
79	1976441 27246 737 544586 1.269543660459 99.969546032757 988 7 7 6916 48412
80	2003687 40002 842 544733 1.292086700487 99.992089592883 988 0.09998752033 0.100009073405 98.800003412758 9.8800006956083
81	2043689 27281 842 544733 1.292086700487 99.992089592883 988 7 7 6916 48412
82	2070970 40010 908 544787 1.299178800556 99.999169012063 988 0.099987520329 0.100003600378 98.799990731869 9.8799981591845
83	2110980 27282 908 544787 1.299178800556 99.999169012063 988 2 2 1976 3952
84	2138262 40002 974 544859 1.299575860598 99.999579535293 988 0.099987520328 0.100009135584 98.800004195057 9.8800008521287
85	2178264 27267 974 544859 1.299575860598 99.999579535293 988 5 5 4940 24700
86	2205531 39943 1041 544398 1.300193900626 99.900195329353 987 0.099987520329 0.100009009914 98.700001949089 9.8700004029516
87	2245474 27239 1041 544398 1.300193900626 99.900195329353 987 3 3 2961 8883
88	2272713 39957 1110 544449 1.305595960668 99.905597575369 987 0.099987520329 0.100009009825 98.700002135063 9.8700004401482
89	2312670 27236 1110 544449 1.305595960668 99.905597575369 987 6 6 5922 35532
90	2339906 39972 1173 544506 1.306045000696 99.90598155194 987 0.099898020284 0.100093235095 98.699937071606 9.8699891860318
91	2379878 27240 1173 544506 1.306045000696 99.90598155194 987 4 4 3948 15792
92	2407118 1459 4848 544905 2 100 99 0 0 0 0
93	2408577 2737 4848 544905 2 100 99 0.021651436855 0.026134988312 2.47078492923 0.061676920162047
94	2411314 1459 4848 544905 2 100 99 0 0 0 0
95	2412773 1459 4849 544906 2 100 99 1 1 99 99
96	2414232 2735 4849 544906 2 100 99 0.021651456868 0.025902307935 2.470392168645 0.061656775293375
97	2416967 1459 4849 544906 2 100 99 0 0 0 0
98	2418426 1459 4850 544907 2 100 99 2 2 198 396
99	2419885 2733 4850 544907 2 100 99 0.021651476882 0.025902311993 2.470392417923 0.061656786762758
100	2422618 1558 4850 544907 2 100 99 0 0 0 0
101	2424176 1558 4851 544908 2 100 99 3 3 297 891
102	2425734 2832 4851 544908 2 100 99 0.021650456868 0.025902311414 2.470390997838 0.061656723482084
103	2428566 1558 4851 544908 2 100 99 0 0 0 0
104	2430124 1558 4852 544909 2 100 99 4 4 396 1584
105	2431682 2830 4852 544909 2 100 99 0.021651436855 0.02590231137 2.470392193014 0.061656776674599
106	2434512 1558 4852 544909 2 100 99 0 0 0 0
107	2436070 1558 4853 544910 2 100 99 5 5 495 2475
108	2437628 2832 4853 544910 2 100 99 0.021650416841 0.025902309571 2.470391074164 0.061656727579185
109	2440460 1558 4853 544910 2 100 99 0 0 0 0
110	2442018 1558 4854 544911 2 100 99 6 6 594 3564
111	2443576 2834 4854 544911 2 100 99 0.021651396827 0.025902311757 2.470392336732 0.061656783275809
112	2446410 1558 4854 544911 2 100 99 0 0 0 0
113	2447968 1558 4855 544912 2 100 99 7 7 693 4851
114	2449526 2837 4855 544912 2 100 99 0.021651376813 0.025935730894 2.470392674759 0.061656855343984
115	2452363 1558 4855 544912 2 100 99 0 0 0 0

