file 2452678 1720455936                                         
version 3
run BreakRanksNoGui-29-20240708-18:25:22-158436
attr configname BreakRanksNoGui
attr datetime 20240708-18:25:22
attr datetimef 20240708-182522
attr experiment BreakRanksNoGui
attr inifile omnetpp.ini
attr iterationvars "$nCars=8, $platoonSize=8, $nLanes=1, $ploegH=0.5, $controller=1, $headway=0.1, $leaderHeadway=1.2, $leaderSpeed=110, $breakRanksSafetyDistance=10, $minSpeed=100, $maxSpeed=120, $beaconInterval=0.1, $priority=4, $packetSize=200, $sController=\"CACC\", $0=2, $1=0"
attr iterationvarsd nCars=8/platoonSize=8/nLanes=1/ploegH=0.5/controller=1/headway=0.1/leaderHeadway=1.2/leaderSpeed=110/breakRanksSafetyDistance=10/minSpeed=100/maxSpeed=120/beaconInterval=0.1/priority=4/packetSize=200/sController=CACC/2/0
attr iterationvarsf nCars=8,platoonSize=8,nLanes=1,ploegH=0.5,controller=1,headway=0.1,leaderHeadway=1.2,leaderSpeed=110,breakRanksSafetyDistance=10,minSpeed=100,maxSpeed=120,beaconInterval=0.1,priority=4,packetSize=200,sController=CACC,2,0-
attr measurement "$nCars=8, $platoonSize=8, $nLanes=1, $ploegH=0.5, $controller=1, $headway=0.1, $leaderHeadway=1.2, $leaderSpeed=110, $breakRanksSafetyDistance=10, $minSpeed=100, $maxSpeed=120, $beaconInterval=0.1, $priority=4, $packetSize=200, $sController=\"CACC\", $0=2, $1=0"
attr network Highway
attr processid 158436
attr repetition 9
attr replication #9
attr resultdir results
attr runnumber 29
attr seedset 9
itervar beaconInterval 0.1
itervar breakRanksSafetyDistance 10
itervar controller 1
itervar headway 0.1
itervar leaderHeadway 1.2
itervar leaderSpeed 110
itervar maxSpeed 120
itervar minSpeed 100
itervar nCars 8
itervar nLanes 1
itervar packetSize 200
itervar platoonSize 8
itervar ploegH 0.5
itervar priority 4
itervar sController "\"CACC\""
config image-path ../../../veins/images
config repeat 10
config extends BreakRanks
config *.manager.command "\"sumo\""
config *.manager.ignoreGuiCommands true
config output-vector-file results/BreakRanks_1_0.1_110_10/result_9.vec
config output-scalar-file results/BreakRanks_1_0.1_110_10/result_9.sca
config extends Platooning
config *.node[*].scenario_type "\"BreakRanksScenario\""
config *.manager.command "\"sumo-gui\""
config *.node[*].scenario_type "\"SimpleScenario\""
config cmdenv-express-mode true
config cmdenv-autoflush true
config cmdenv-status-frequency 15s
config num-rngs 6
config network Highway
config debug-on-errors true
config print-undisposed true
config *.playgroundSizeX 65000m
config *.playgroundSizeY 25000m
config *.playgroundSizeZ 50m
config sim-time-limit "100 s"
config *.annotations.draw false
config *.obstacles.debug false
config *.world.useTorus false
config *.world.use2D false
config *.manager.updateInterval 0.01s
config *.manager.host "\"localhost\""
config *.manager.moduleType "\"org.car2x.plexe.PlatoonCar\""
config *.manager.moduleName "\"node\""
config *.manager.moduleDisplayString "\"\""
config *.manager.autoShutdown true
config *.manager.margin 25
config *.connectionManager.sendDirect true
config *.connectionManager.maxInterfDist 2600m
config *.connectionManager.drawMaxIntfDist false
config *.**.nic.mac1609_4.useServiceChannel false
config *.**.nic.mac1609_4.txPower 100mW
config *.**.nic.mac1609_4.bitrate 6Mbps
config *.**.nic.mac1609_4.useAcks true
config *.**.nic.mac1609_4.ackErrorRate 0.0
config *.**.nic.mac1609_4.frameErrorRate 0.0
config *.**.nic.phy80211p.minPowerLevel -94dBm
config *.**.nic.phy80211p.maxTXPower 100mW
config *.**.nic.phy80211p.useNoiseFloor true
config *.**.nic.phy80211p.noiseFloor -95dBm
config *.**.nic.phy80211p.decider "xmldoc(\"config.xml\")"
config *.**.nic.phy80211p.analogueModels "xmldoc(\"config.xml\")"
config *.**.nic.phy80211p.usePropagationDelay true
config *.node[*].mobility.x 0
config *.node[*].mobility.y 0
config *.node[*].mobility.z 1.895
config seed-set 9
config **.seed 9
config *.node[*].prot.rng-0 2
config *.node[*].appl.rng-0 3
config *.node[*].scenario.rng-0 4
config **.traffic.rng-0 5
config *.manager.configFile "\"./sumocfg/freeway.sumo.cfg\""
config *.manager.launchConfig "xmldoc(\"./sumocfg/freeway.launchd.xml\")"
config **.numberOfCars 8
config **.numberOfCarsPerPlatoon 8
config **.numberOfLanes 1
config *.node[*].helper_type "\"PositionHelper\""
config *.node[*].scenario.caccC1 0.5
config *.node[*].scenario.caccXi 1
config *.node[*].scenario.caccOmegaN "0.2 Hz"
config *.node[*].scenario.caccSpacing "2 m"
config *.node[*].scenario.engineTau "0.5 s"
config *.node[*].scenario.ploegH 0.5s
config *.node[*].scenario.ploegKp 0.2
config *.node[*].scenario.ploegKd 0.7
config *.node[*].scenario.useRealisticEngine false
config *.node[*].scenario.useControllerAcceleration true
config *.node[*].scenario.nLanes 1
config **.numericController 1
config **.headway 0.1s
config *.node[*].scenario.accHeadway 0.1s
config *.node[*].scenario.leaderHeadway 1.2s
config *.node[*].scenario.leaderSpeed 110kmph
config *.node[*].appl_type "\"SimplePlatooningApp\""
config *.node[*].appl.*.scalar-recording true
config *.node[*].appl.*.vector-recording true
config *.node[0].appl.breakRanksSafetyDistance 10m
config *.node[*].appl.minSpeed 100kmph
config *.node[*].appl.maxSpeed 120kmph
config *.node[*].protocol_type "\"SimplePlatooningBeaconing\""
config *.node[*].prot.*.scalar-recording true
config *.node[*].prot.*.vector-recording true
config *.node[*].prot.beaconingInterval 0.1s
config *.node[*].prot.priority 4
config *.node[*].prot.packetSize 200
config **.traffic_type "\"PlatoonsTrafficManager\""
config **.traffic.platoonInsertTime "1 s"
config **.traffic.platoonInsertSpeed 110kmph
config **.traffic.nCars 8
config **.traffic.platoonSize 8
config **.traffic.nLanes 1
config **.traffic.platooningVType "\"vtypeauto\""
config **.traffic.controller "\"CACC\""
config **.traffic.platoonInsertDistance 2m
config **.traffic.platoonInsertHeadway 0s
config **.traffic.platoonLeaderHeadway 1.2s
config **.scalar-recording false
config **.vector-recording false
config output-vector-file results/BreakRanksNoGui_1_0.1_110_10/result_9.vec
config output-scalar-file results/BreakRanksNoGui_1_0.1_110_10/result_9.sca

vector 0 Highway.node[0].appl distance ETV
vector 1 Highway.node[0].appl relativeSpeed ETV
vector 2 Highway.node[0].appl nodeId ETV
vector 3 Highway.node[0].appl acceleration ETV
vector 4 Highway.node[0].appl controllerAcceleration ETV
vector 5 Highway.node[0].appl speed ETV
vector 6 Highway.node[0].appl posx ETV
vector 7 Highway.node[0].appl posy ETV
vector 8 Highway.node[1].appl distance ETV
vector 9 Highway.node[1].appl relativeSpeed ETV
vector 10 Highway.node[1].appl nodeId ETV
vector 11 Highway.node[1].appl acceleration ETV
vector 12 Highway.node[1].appl controllerAcceleration ETV
vector 13 Highway.node[1].appl speed ETV
vector 14 Highway.node[1].appl posx ETV
vector 15 Highway.node[1].appl posy ETV
vector 16 Highway.node[2].appl distance ETV
vector 17 Highway.node[2].appl relativeSpeed ETV
vector 18 Highway.node[2].appl nodeId ETV
vector 19 Highway.node[2].appl acceleration ETV
vector 20 Highway.node[2].appl controllerAcceleration ETV
vector 21 Highway.node[2].appl speed ETV
vector 22 Highway.node[2].appl posx ETV
vector 23 Highway.node[2].appl posy ETV
vector 24 Highway.node[3].appl distance ETV
vector 25 Highway.node[3].appl relativeSpeed ETV
vector 26 Highway.node[3].appl nodeId ETV
vector 27 Highway.node[3].appl acceleration ETV
vector 28 Highway.node[3].appl controllerAcceleration ETV
vector 29 Highway.node[3].appl speed ETV
vector 30 Highway.node[3].appl posx ETV
vector 31 Highway.node[3].appl posy ETV
vector 32 Highway.node[4].appl distance ETV
vector 33 Highway.node[4].appl relativeSpeed ETV
vector 34 Highway.node[4].appl nodeId ETV
vector 35 Highway.node[4].appl acceleration ETV
vector 36 Highway.node[4].appl controllerAcceleration ETV
vector 37 Highway.node[4].appl speed ETV
vector 38 Highway.node[4].appl posx ETV
vector 39 Highway.node[4].appl posy ETV
vector 40 Highway.node[5].appl distance ETV
vector 41 Highway.node[5].appl relativeSpeed ETV
vector 42 Highway.node[5].appl nodeId ETV
vector 43 Highway.node[5].appl acceleration ETV
vector 44 Highway.node[5].appl controllerAcceleration ETV
vector 45 Highway.node[5].appl speed ETV
vector 46 Highway.node[5].appl posx ETV
vector 47 Highway.node[5].appl posy ETV
vector 48 Highway.node[6].appl distance ETV
vector 49 Highway.node[6].appl relativeSpeed ETV
vector 50 Highway.node[6].appl nodeId ETV
vector 51 Highway.node[6].appl acceleration ETV
vector 52 Highway.node[6].appl controllerAcceleration ETV
vector 53 Highway.node[6].appl speed ETV
vector 54 Highway.node[6].appl posx ETV
vector 55 Highway.node[6].appl posy ETV
vector 56 Highway.node[7].appl distance ETV
vector 57 Highway.node[7].appl relativeSpeed ETV
vector 58 Highway.node[7].appl nodeId ETV
vector 59 Highway.node[7].appl acceleration ETV
vector 60 Highway.node[7].appl controllerAcceleration ETV
vector 61 Highway.node[7].appl speed ETV
vector 62 Highway.node[7].appl posx ETV
vector 63 Highway.node[7].appl posy ETV
vector 64 Highway.node[2].prot frontDelay ETV
vector 65 Highway.node[2].prot frontDelayId ETV
vector 66 Highway.node[7].prot frontDelay ETV
vector 67 Highway.node[7].prot frontDelayId ETV
vector 68 Highway.node[3].prot frontDelay ETV
vector 69 Highway.node[3].prot frontDelayId ETV
vector 70 Highway.node[6].prot frontDelay ETV
vector 71 Highway.node[6].prot frontDelayId ETV
vector 72 Highway.node[5].prot frontDelay ETV
vector 73 Highway.node[5].prot frontDelayId ETV
vector 74 Highway.node[4].prot frontDelay ETV
vector 75 Highway.node[4].prot frontDelayId ETV
vector 76 Highway.node[1].prot leaderDelay ETV
vector 77 Highway.node[1].prot leaderDelayId ETV
vector 78 Highway.node[1].prot frontDelay ETV
vector 79 Highway.node[1].prot frontDelayId ETV
vector 80 Highway.node[2].prot leaderDelay ETV
vector 81 Highway.node[2].prot leaderDelayId ETV
vector 82 Highway.node[3].prot leaderDelay ETV
vector 83 Highway.node[3].prot leaderDelayId ETV
vector 84 Highway.node[4].prot leaderDelay ETV
vector 85 Highway.node[4].prot leaderDelayId ETV
vector 86 Highway.node[5].prot leaderDelay ETV
vector 87 Highway.node[5].prot leaderDelayId ETV
vector 88 Highway.node[6].prot leaderDelay ETV
vector 89 Highway.node[6].prot leaderDelayId ETV
vector 90 Highway.node[7].prot leaderDelay ETV
vector 91 Highway.node[7].prot leaderDelayId ETV
vector 92 Highway.node[0].prot nodeId ETV
vector 93 Highway.node[0].prot busyTime ETV
vector 94 Highway.node[0].prot collisions ETV
vector 95 Highway.node[1].prot nodeId ETV
vector 96 Highway.node[1].prot busyTime ETV
vector 97 Highway.node[1].prot collisions ETV
vector 98 Highway.node[2].prot nodeId ETV
vector 99 Highway.node[2].prot busyTime ETV
vector 100 Highway.node[2].prot collisions ETV
vector 101 Highway.node[3].prot nodeId ETV
vector 102 Highway.node[3].prot busyTime ETV
vector 103 Highway.node[3].prot collisions ETV
vector 104 Highway.node[4].prot nodeId ETV
vector 105 Highway.node[4].prot busyTime ETV
vector 106 Highway.node[4].prot collisions ETV
vector 107 Highway.node[5].prot nodeId ETV
vector 108 Highway.node[5].prot busyTime ETV
vector 109 Highway.node[5].prot collisions ETV
vector 110 Highway.node[6].prot nodeId ETV
vector 111 Highway.node[6].prot busyTime ETV
vector 112 Highway.node[6].prot collisions ETV
vector 113 Highway.node[7].prot nodeId ETV
vector 114 Highway.node[7].prot busyTime ETV
vector 115 Highway.node[7].prot collisions ETV
0	11345 17510 113 545086 1.11 99.91 989 -1 -1 -989 989
1	28855 16521 113 545086 1.11 99.91 989 0 0 0 0
2	45376 16521 113 545086 1.11 99.91 989 0 0 0 0
3	61897 19109 113 545086 1.11 99.91 989 -0.00283113 0.000125957 -0.043966303784312 9.6812896349407e-05
4	81006 26489 113 545086 1.11 99.91 989 -0.00437036 0.00019576 -0.042459310034081 0.00013890441444735
5	107495 22451 113 545086 1.11 99.91 989 30.5554 30.56 30219.5304 923377.16656332
6	129946 22360 113 545086 1.11 99.91 989 67.2304 3086.13 1559337.5215 3211220601.7681
7	152306 21466 113 545086 1.11 99.91 989 242.45 242.45 239783.05 58135400.472499
8	173772 21238 114 545087 1.11 99.91 989 -1 32.4794 6611.79163 83196.218166596
9	195010 22525 114 545087 1.11 99.91 989 -0.000570904 3 229.9898025567 483.70877853148
10	217535 17510 114 545087 1.11 99.91 989 1 1 989 989
11	235045 26663 114 545087 1.11 99.91 989 -1.46296 0.0651894 -35.562657160421 43.431609560225
12	261708 26621 114 545087 1.11 99.91 989 -1.5 0.101223 -34.686978926018 50.903357013167
13	288329 22556 114 545087 1.11 99.91 989 26.8987 30.56 29203.5612 864598.28020624
14	310885 23337 114 545087 1.11 99.91 989 61.2304 2978.71 1534680.9913 3100532225.1986
15	334222 22455 114 545087 1.11 99.91 989 242.45 245.75 240703.75 58584886.2125
16	356677 23312 115 545088 1.11 99.91 989 1.99967 65.8514 17732.57818 637504.35462265
17	379989 24886 115 545088 1.11 99.91 989 -6.53874e-05 1.62477 499.30137861142 673.55273519751
18	404875 17510 115 545088 1.11 99.91 989 2 2 1978 3956
19	422385 26623 115 545088 1.11 99.91 989 -0.999727 0.0795856 -15.562578719608 15.727254007229
20	449008 26588 115 545088 1.11 99.91 989 -1.5 0.0800966 -14.695094500747 21.141027229958
21	475596 22494 115 545088 1.11 99.91 989 28.9308 30.56 29640.2388 888741.88642886
22	498090 23356 115 545088 1.11 99.91 989 55.2304 3016.28 1529225.3774 3095933786.1918
23	521446 22455 115 545088 1.11 99.91 989 242.45 242.45 239783.05 58135400.472499
24	543901 23305 116 545089 1.11 99.91 989 1.99962 34.8006 12497.39168 253254.67701735
25	567206 25078 116 545089 1.11 99.91 989 -0.000137834 2.22359 328.10549255798 349.24254915752
26	592284 17510 116 545089 1.11 99.91 989 3 3 2967 8901
27	609794 25838 116 545089 1.11 99.91 989 -1.79531 0.26622 -17.5328200863 60.976276937346
28	635632 25847 116 545089 1.11 99.91 989 -2.38145 0.295128 -16.25974683209 75.40841739055
29	661479 23342 116 545089 1.11 99.91 989 26.7245 30.56 29312.1327 869904.71650053
30	684821 23320 116 545089 1.11 99.91 989 49.2304 2977.48 1512771.2395 3030684207.4055
31	708141 22455 116 545089 1.11 99.91 989 242.45 242.45 239783.05 58135400.472499
32	730596 21939 117 545090 1.11 99.91 989 -1 9.98192 4705.29568 42354.808716344
33	752535 23225 117 545090 1.11 99.91 989 -0.00291805 0.374119 79.82034924462 20.587412231069
34	775760 17510 117 545090 1.11 99.91 989 4 4 3956 15824
35	793270 26399 117 545090 1.11 99.91 989 -0.492306 0.102939 -5.569829592792 9.0886298127636
36	819669 26391 117 545090 1.11 99.91 989 -0.599993 0.103223 -5.0240239547789 10.495198013847
37	846060 22380 117 545090 1.11 99.91 989 28.7576 30.56 29749.8575 895147.31811097
38	868440 23345 117 545090 1.11 99.91 989 43.2304 3015.19 1509198.1746 3034772864.4932
39	891785 22455 117 545090 1.11 99.91 989 242.45 249.05 241459.45 58958806.572501
40	914240 23297 118 545091 1.11 99.91 989 1.99922 56.0774 15466.5688 487231.34915976
41	937537 25179 118 545091 1.11 99.91 989 -1.07703 1.24827 33.714795054419 203.00560604455
42	962716 17510 118 545091 1.11 99.91 989 5 5 4945 24725
43	980226 25802 118 545091 1.11 99.91 989 -1.53096 1.11116 -32.20243291107 85.874296310557
44	1006028 25780 118 545091 1.11 99.91 989 -1.59734 1.5 -32.031668865919 98.392040584517
45	1031808 23303 118 545091 1.11 99.91 989 25.7486 30.56 29024.088 853367.95806516
46	1055111 23340 118 545091 1.11 99.91 989 37.2304 2936.74 1488356.8744 2944927030.8504
47	1078451 22455 118 545091 1.11 99.91 989 242.45 245.75 240261.55 58369004.1725
48	1100906 23020 119 545092 1.11 99.91 989 -1 65.8763 13488.47513 425413.73368777
49	1123926 24667 119 545092 1.11 99.91 989 -3.78716 1.48725 38.980301275273 538.85652737565
50	1148593 17510 119 545092 1.11 99.91 989 6 6 5934 35604
51	1166103 25546 119 545092 1.11 99.91 989 -1.25616 1.30399 14.63795104822 71.5975215423
52	1191649 25545 119 545092 1.11 99.91 989 -1.42728 1.5 14.81483765363 92.783256855218
53	1217194 23339 119 545092 1.11 99.91 989 28.3156 32.0901 29551.9695 883772.20322137
54	1240533 23292 119 545092 1.11 99.91 989 31.2304 2983.3 1484911.1505 2948368939.0139
55	1263825 22455 119 545092 1.11 99.91 989 242.45 249.05 241400.05 58929415.452501
56	1286280 22121 120 545093 1.11 99.91 989 -1 42.8213 5599.13073 80446.630866985
57	1308401 23332 120 545093 1.11 99.91 989 -2.06166e-05 3.09012 196.45563771682 340.45671432224
58	1331733 17510 120 545093 1.11 99.91 989 7 7 6923 48461
59	1349243 26169 120 545093 1.11 99.91 989 -0.983566 0.104454 -15.562530874714 22.264777707513
60	1375412 26177 120 545093 1.11 99.91 989 -1.5 0.104661 -14.689717326309 27.859334537121
61	1401589 22483 120 545093 1.11 99.91 989 28.1538 30.56 29242.169 865224.6085038
62	1424072 23346 120 545093 1.11 99.91 989 25.2304 2946.47 1471608.8159 2898646749.9574
63	1447418 22455 120 545093 1.11 99.91 989 242.45 252.35 242390.05 59424320.4125
64	1469873 40028 703 545148 1.22081946032 99.920817845784 988 0.099987440284 0.100003440283 98.79999882577 9.8799997760311
65	1509901 27281 703 545148 1.22081946032 99.920817845784 988 2 2 1976 3952
66	1537182 39992 770 545215 1.230758560389 99.930756862136 988 0.099987440283 0.10000900825 98.799998742053 9.8799997594841
67	1577174 27254 770 545215 1.230758560389 99.930756862136 988 7 7 6916 48412
68	1604428 39988 837 545276 1.244324640444 99.944322980324 988 0.099987440284 0.100009302445 98.799998780186 9.8799997673282
69	1644416 27255 837 545276 1.244324640444 99.944322980324 988 3 3 2964 8892
70	1671671 40018 904 545343 1.252209700486 99.952208273069 988 0.099987440285 0.100009109092 98.799999012889 9.8799998140846
71	1711689 27284 904 545343 1.252209700486 99.952208273069 988 6 6 5928 35568
72	1738973 40013 1038 545495 1.278015800556 99.978014643132 988 0.099987440284 0.100009302471 98.799999282882 9.8799998678779
73	1778986 27268 1038 545495 1.278015800556 99.978014643132 988 5 5 4940 24700
74	1806254 40003 1106 545545 1.29367482057 99.993673634038 988 0.099987440286 0.100009109145 98.799999253774 9.8799998621883
75	1846257 27258 1106 545545 1.29367482057 99.993673634038 988 4 4 3952 15808
76	1873515 39955 1167 545066 1.308748880611 99.908759719856 987 0.099987440286 0.10000150623 98.70001127955 9.8700022665105
77	1913470 27238 1167 545066 1.308748880611 99.908759719856 987 1 1 987 987
78	1940708 39955 1167 545066 1.308748880611 99.908759719856 987 0.099987440286 0.10000150623 98.70001127955 9.8700022665105
79	1980663 27238 1167 545066 1.308748880611 99.908759719856 987 1 1 987 987
80	2007901 39979 1173 545048 1.308748900625 99.908759594375 987 0.099987440286 0.100001505564 98.700011134055 9.8700022374115
81	2047880 27260 1173 545048 1.308748900625 99.908759594375 987 2 2 1974 3948
82	2075140 39958 1179 545072 1.308748920638 99.9087597238 987 0.099987440286 0.10000150563 98.700011243466 9.8700022592937
83	2115098 27234 1179 545072 1.308748920638 99.9087597238 987 3 3 2961 8883
84	2142332 39965 1185 545054 1.308748940652 99.908759598261 987 0.099987440286 0.10000150523 98.700011097914 9.8700022301833
85	2182297 27245 1185 545054 1.308748940652 99.908759598261 987 4 4 3948 15792
86	2209542 39973 1191 545084 1.308748960666 99.908759859787 987 0.099987440286 0.100001506117 98.700011339426 9.8700022784857
87	2249515 27242 1191 545084 1.308748960666 99.908759859787 987 5 5 4935 24675
88	2276757 39982 1197 545060 1.30874898068 99.908759705083 987 0.099987440286 0.100001504557 98.700011164708 9.8700022435421
89	2316739 27259 1197 545060 1.30874898068 99.908759705083 987 6 6 5922 35532
90	2343998 39955 1203 545078 1.308749000694 99.908759827746 987 0.099987440286 0.100001505563 98.700011267357 9.8700022640719
91	2383953 27253 1203 545078 1.308749000694 99.908759827746 987 7 7 6909 48363
92	2411206 1459 4960 545565 2 100 99 0 0 0 0
93	2412665 2067 4960 545565 2 100 99 0.02216 0.026131612026 2.471294612026 0.061699236084077
94	2414732 1459 4960 545565 2 100 99 0 0 0 0
95	2416191 1459 4961 545566 2 100 99 1 1 99 99
96	2417650 2068 4961 545566 2 100 99 0.022161 0.025898 2.470902092734 0.061679099152037
97	2419718 1459 4961 545566 2 100 99 0 0 0 0
98	2421177 1459 4962 545567 2 100 99 2 2 198 396
99	2422636 2068 4962 545567 2 100 99 0.022161 0.025898 2.470902185864 0.061679103829983
100	2424704 1558 4962 545567 2 100 99 0 0 0 0
101	2426262 1558 4963 545568 2 100 99 3 3 297 891
102	2427820 2167 4963 545568 2 100 99 0.022161 0.025898 2.470902279092 0.061679108512869
103	2429987 1558 4963 545568 2 100 99 0 0 0 0
104	2431545 1558 4964 545569 2 100 99 4 4 396 1584
105	2433103 2167 4964 545569 2 100 99 0.022161 0.025898 2.470902372366 0.061679113198083
106	2435270 1558 4964 545569 2 100 99 0 0 0 0
107	2436828 1558 4965 545570 2 100 99 5 5 495 2475
108	2438386 2167 4965 545570 2 100 99 0.022161 0.025898 2.470902465668 0.06167911788472
109	2440553 1558 4965 545570 2 100 99 0 0 0 0
110	2442111 1558 4966 545571 2 100 99 6 6 594 3564
111	2443669 2167 4966 545571 2 100 99 0.022161 0.025898 2.470902558966 0.061679122571175
112	2445836 1558 4966 545571 2 100 99 0 0 0 0
113	2447394 1558 4967 545572 2 100 99 7 7 693 4851
114	2448952 2167 4967 545572 2 100 99 0.022161 0.025931652278 2.470902652278 0.061679182178867
115	2451119 1558 4967 545572 2 100 99 0 0 0 0

