file 2449493 1720583701                                         
version 3
run BreakRanksNoGui-20-20240710-05:54:51-234949
attr configname BreakRanksNoGui
attr datetime 20240710-05:54:51
attr datetimef 20240710-055451
attr experiment BreakRanksNoGui
attr inifile omnetpp.ini
attr iterationvars "$nCars=8, $platoonSize=8, $nLanes=1, $ploegH=0.5, $controller=1, $headway=0.1, $leaderHeadway=1.2, $leaderSpeed=130, $breakRanksSafetyDistance=5, $minSpeed=120, $maxSpeed=140, $beaconInterval=0.1, $priority=4, $packetSize=200, $sController=\"CACC\", $0=2, $1=0"
attr iterationvarsd nCars=8/platoonSize=8/nLanes=1/ploegH=0.5/controller=1/headway=0.1/leaderHeadway=1.2/leaderSpeed=130/breakRanksSafetyDistance=5/minSpeed=120/maxSpeed=140/beaconInterval=0.1/priority=4/packetSize=200/sController=CACC/2/0
attr iterationvarsf nCars=8,platoonSize=8,nLanes=1,ploegH=0.5,controller=1,headway=0.1,leaderHeadway=1.2,leaderSpeed=130,breakRanksSafetyDistance=5,minSpeed=120,maxSpeed=140,beaconInterval=0.1,priority=4,packetSize=200,sController=CACC,2,0-
attr measurement "$nCars=8, $platoonSize=8, $nLanes=1, $ploegH=0.5, $controller=1, $headway=0.1, $leaderHeadway=1.2, $leaderSpeed=130, $breakRanksSafetyDistance=5, $minSpeed=120, $maxSpeed=140, $beaconInterval=0.1, $priority=4, $packetSize=200, $sController=\"CACC\", $0=2, $1=0"
attr network Highway
attr processid 234949
attr repetition 0
attr replication #0
attr resultdir results
attr runnumber 20
attr seedset 0
itervar beaconInterval 0.1
itervar breakRanksSafetyDistance 5
itervar controller 1
itervar headway 0.1
itervar leaderHeadway 1.2
itervar leaderSpeed 130
itervar maxSpeed 140
itervar minSpeed 120
itervar nCars 8
itervar nLanes 1
itervar packetSize 200
itervar platoonSize 8
itervar ploegH 0.5
itervar priority 4
itervar sController "\"CACC\""
config image-path ../../../veins/images
config repeat 10
config extends BreakRanks
config *.manager.command "\"sumo\""
config *.manager.ignoreGuiCommands true
config output-vector-file results/BreakRanks_1_0.1_130_5/result_0.vec
config output-scalar-file results/BreakRanks_1_0.1_130_5/result_0.sca
config extends Platooning
config *.node[*].scenario_type "\"BreakRanksScenario\""
config *.manager.command "\"sumo-gui\""
config *.node[*].scenario_type "\"SimpleScenario\""
config cmdenv-express-mode true
config cmdenv-autoflush true
config cmdenv-status-frequency 15s
config num-rngs 6
config network Highway
config debug-on-errors true
config print-undisposed true
config *.playgroundSizeX 65000m
config *.playgroundSizeY 25000m
config *.playgroundSizeZ 50m
config sim-time-limit "100 s"
config *.annotations.draw false
config *.obstacles.debug false
config *.world.useTorus false
config *.world.use2D false
config *.manager.updateInterval 0.01s
config *.manager.host "\"localhost\""
config *.manager.moduleType "\"org.car2x.plexe.PlatoonCar\""
config *.manager.moduleName "\"node\""
config *.manager.moduleDisplayString "\"\""
config *.manager.autoShutdown true
config *.manager.margin 25
config *.connectionManager.sendDirect true
config *.connectionManager.maxInterfDist 2600m
config *.connectionManager.drawMaxIntfDist false
config *.**.nic.mac1609_4.useServiceChannel false
config *.**.nic.mac1609_4.txPower 100mW
config *.**.nic.mac1609_4.bitrate 6Mbps
config *.**.nic.mac1609_4.useAcks true
config *.**.nic.mac1609_4.ackErrorRate 0.0
config *.**.nic.mac1609_4.frameErrorRate 0.0
config *.**.nic.phy80211p.minPowerLevel -94dBm
config *.**.nic.phy80211p.maxTXPower 100mW
config *.**.nic.phy80211p.useNoiseFloor true
config *.**.nic.phy80211p.noiseFloor -95dBm
config *.**.nic.phy80211p.decider "xmldoc(\"config.xml\")"
config *.**.nic.phy80211p.analogueModels "xmldoc(\"config.xml\")"
config *.**.nic.phy80211p.usePropagationDelay true
config *.node[*].mobility.x 0
config *.node[*].mobility.y 0
config *.node[*].mobility.z 1.895
config seed-set 0
config **.seed 0
config *.node[*].prot.rng-0 2
config *.node[*].appl.rng-0 3
config *.node[*].scenario.rng-0 4
config **.traffic.rng-0 5
config *.manager.configFile "\"./sumocfg/freeway.sumo.cfg\""
config *.manager.launchConfig "xmldoc(\"./sumocfg/freeway.launchd.xml\")"
config **.numberOfCars 8
config **.numberOfCarsPerPlatoon 8
config **.numberOfLanes 1
config *.node[*].helper_type "\"PositionHelper\""
config *.node[*].scenario.caccC1 0.5
config *.node[*].scenario.caccXi 1
config *.node[*].scenario.caccOmegaN "0.2 Hz"
config *.node[*].scenario.caccSpacing "2 m"
config *.node[*].scenario.engineTau "0.5 s"
config *.node[*].scenario.ploegH 0.5s
config *.node[*].scenario.ploegKp 0.2
config *.node[*].scenario.ploegKd 0.7
config *.node[*].scenario.useRealisticEngine false
config *.node[*].scenario.useControllerAcceleration true
config *.node[*].scenario.nLanes 1
config **.numericController 1
config **.headway 0.1s
config *.node[*].scenario.accHeadway 0.1s
config *.node[*].scenario.leaderHeadway 1.2s
config *.node[*].scenario.leaderSpeed 130kmph
config *.node[*].appl_type "\"SimplePlatooningApp\""
config *.node[*].appl.*.scalar-recording true
config *.node[*].appl.*.vector-recording true
config *.node[0].appl.breakRanksSafetyDistance 5m
config *.node[*].appl.minSpeed 120kmph
config *.node[*].appl.maxSpeed 140kmph
config *.node[*].protocol_type "\"SimplePlatooningBeaconing\""
config *.node[*].prot.*.scalar-recording true
config *.node[*].prot.*.vector-recording true
config *.node[*].prot.beaconingInterval 0.1s
config *.node[*].prot.priority 4
config *.node[*].prot.packetSize 200
config **.traffic_type "\"PlatoonsTrafficManager\""
config **.traffic.platoonInsertTime "1 s"
config **.traffic.platoonInsertSpeed 130kmph
config **.traffic.nCars 8
config **.traffic.platoonSize 8
config **.traffic.nLanes 1
config **.traffic.platooningVType "\"vtypeauto\""
config **.traffic.controller "\"CACC\""
config **.traffic.platoonInsertDistance 2m
config **.traffic.platoonInsertHeadway 0s
config **.traffic.platoonLeaderHeadway 1.2s
config **.scalar-recording false
config **.vector-recording false

vector 0 Highway.node[0].appl distance ETV
vector 1 Highway.node[0].appl relativeSpeed ETV
vector 2 Highway.node[0].appl nodeId ETV
vector 3 Highway.node[0].appl acceleration ETV
vector 4 Highway.node[0].appl controllerAcceleration ETV
vector 5 Highway.node[0].appl speed ETV
vector 6 Highway.node[0].appl posx ETV
vector 7 Highway.node[0].appl posy ETV
vector 8 Highway.node[1].appl distance ETV
vector 9 Highway.node[1].appl relativeSpeed ETV
vector 10 Highway.node[1].appl nodeId ETV
vector 11 Highway.node[1].appl acceleration ETV
vector 12 Highway.node[1].appl controllerAcceleration ETV
vector 13 Highway.node[1].appl speed ETV
vector 14 Highway.node[1].appl posx ETV
vector 15 Highway.node[1].appl posy ETV
vector 16 Highway.node[2].appl distance ETV
vector 17 Highway.node[2].appl relativeSpeed ETV
vector 18 Highway.node[2].appl nodeId ETV
vector 19 Highway.node[2].appl acceleration ETV
vector 20 Highway.node[2].appl controllerAcceleration ETV
vector 21 Highway.node[2].appl speed ETV
vector 22 Highway.node[2].appl posx ETV
vector 23 Highway.node[2].appl posy ETV
vector 24 Highway.node[3].appl distance ETV
vector 25 Highway.node[3].appl relativeSpeed ETV
vector 26 Highway.node[3].appl nodeId ETV
vector 27 Highway.node[3].appl acceleration ETV
vector 28 Highway.node[3].appl controllerAcceleration ETV
vector 29 Highway.node[3].appl speed ETV
vector 30 Highway.node[3].appl posx ETV
vector 31 Highway.node[3].appl posy ETV
vector 32 Highway.node[4].appl distance ETV
vector 33 Highway.node[4].appl relativeSpeed ETV
vector 34 Highway.node[4].appl nodeId ETV
vector 35 Highway.node[4].appl acceleration ETV
vector 36 Highway.node[4].appl controllerAcceleration ETV
vector 37 Highway.node[4].appl speed ETV
vector 38 Highway.node[4].appl posx ETV
vector 39 Highway.node[4].appl posy ETV
vector 40 Highway.node[5].appl distance ETV
vector 41 Highway.node[5].appl relativeSpeed ETV
vector 42 Highway.node[5].appl nodeId ETV
vector 43 Highway.node[5].appl acceleration ETV
vector 44 Highway.node[5].appl controllerAcceleration ETV
vector 45 Highway.node[5].appl speed ETV
vector 46 Highway.node[5].appl posx ETV
vector 47 Highway.node[5].appl posy ETV
vector 48 Highway.node[6].appl distance ETV
vector 49 Highway.node[6].appl relativeSpeed ETV
vector 50 Highway.node[6].appl nodeId ETV
vector 51 Highway.node[6].appl acceleration ETV
vector 52 Highway.node[6].appl controllerAcceleration ETV
vector 53 Highway.node[6].appl speed ETV
vector 54 Highway.node[6].appl posx ETV
vector 55 Highway.node[6].appl posy ETV
vector 56 Highway.node[7].appl distance ETV
vector 57 Highway.node[7].appl relativeSpeed ETV
vector 58 Highway.node[7].appl nodeId ETV
vector 59 Highway.node[7].appl acceleration ETV
vector 60 Highway.node[7].appl controllerAcceleration ETV
vector 61 Highway.node[7].appl speed ETV
vector 62 Highway.node[7].appl posx ETV
vector 63 Highway.node[7].appl posy ETV
vector 64 Highway.node[3].prot frontDelay ETV
vector 65 Highway.node[3].prot frontDelayId ETV
vector 66 Highway.node[2].prot frontDelay ETV
vector 67 Highway.node[2].prot frontDelayId ETV
vector 68 Highway.node[7].prot frontDelay ETV
vector 69 Highway.node[7].prot frontDelayId ETV
vector 70 Highway.node[1].prot leaderDelay ETV
vector 71 Highway.node[1].prot leaderDelayId ETV
vector 72 Highway.node[1].prot frontDelay ETV
vector 73 Highway.node[1].prot frontDelayId ETV
vector 74 Highway.node[2].prot leaderDelay ETV
vector 75 Highway.node[2].prot leaderDelayId ETV
vector 76 Highway.node[3].prot leaderDelay ETV
vector 77 Highway.node[3].prot leaderDelayId ETV
vector 78 Highway.node[4].prot leaderDelay ETV
vector 79 Highway.node[4].prot leaderDelayId ETV
vector 80 Highway.node[5].prot leaderDelay ETV
vector 81 Highway.node[5].prot leaderDelayId ETV
vector 82 Highway.node[6].prot leaderDelay ETV
vector 83 Highway.node[6].prot leaderDelayId ETV
vector 84 Highway.node[7].prot leaderDelay ETV
vector 85 Highway.node[7].prot leaderDelayId ETV
vector 86 Highway.node[5].prot frontDelay ETV
vector 87 Highway.node[5].prot frontDelayId ETV
vector 88 Highway.node[4].prot frontDelay ETV
vector 89 Highway.node[4].prot frontDelayId ETV
vector 90 Highway.node[6].prot frontDelay ETV
vector 91 Highway.node[6].prot frontDelayId ETV
vector 92 Highway.node[0].prot nodeId ETV
vector 93 Highway.node[0].prot busyTime ETV
vector 94 Highway.node[0].prot collisions ETV
vector 95 Highway.node[1].prot nodeId ETV
vector 96 Highway.node[1].prot busyTime ETV
vector 97 Highway.node[1].prot collisions ETV
vector 98 Highway.node[2].prot nodeId ETV
vector 99 Highway.node[2].prot busyTime ETV
vector 100 Highway.node[2].prot collisions ETV
vector 101 Highway.node[3].prot nodeId ETV
vector 102 Highway.node[3].prot busyTime ETV
vector 103 Highway.node[3].prot collisions ETV
vector 104 Highway.node[4].prot nodeId ETV
vector 105 Highway.node[4].prot busyTime ETV
vector 106 Highway.node[4].prot collisions ETV
vector 107 Highway.node[5].prot nodeId ETV
vector 108 Highway.node[5].prot busyTime ETV
vector 109 Highway.node[5].prot collisions ETV
vector 110 Highway.node[6].prot nodeId ETV
vector 111 Highway.node[6].prot busyTime ETV
vector 112 Highway.node[6].prot collisions ETV
vector 113 Highway.node[7].prot nodeId ETV
vector 114 Highway.node[7].prot busyTime ETV
vector 115 Highway.node[7].prot collisions ETV
0	11185 18197 113 544538 1.11 99.91 989 -1 54.6085 4958.2924 249897.60012858
1	29382 17221 113 544538 1.11 99.91 989 0 1.8889 264.446 499.5120494
2	46603 16521 113 544538 1.11 99.91 989 0 0 0 0
3	63124 18809 113 544538 1.11 99.91 989 -3.14892e-05 0.000707784 0.010991577126781 6.0508064149601e-06
4	81933 26467 113 544538 1.11 99.91 989 -4.89399e-05 0.00109259 0.010614843047836 8.6815283230331e-06
5	108400 22448 113 544538 1.11 99.91 989 36.11 36.1111 35713.866699999 1289666.6073546
6	130848 22316 113 544538 1.11 99.91 989 53.6899 3621.47 1817363.8604 4390754044.7921
7	153164 21466 113 544538 1.11 99.91 989 242.45 242.45 239783.05 58135400.472499
8	174630 20515 114 544539 1.11 99.91 989 -1 4.99843 2162.77848 11560.173422159
9	195145 21817 114 544539 1.11 99.91 989 -1.58028e-05 0.238853 29.984424773715 4.7387920542946
10	216962 17510 114 544539 1.11 99.91 989 1 1 989 989
11	234472 26333 114 544539 1.11 99.91 989 -0.0908437 1.17144 18.919620030786 17.294140251609
12	260805 26914 114 544539 1.11 99.91 989 -0.119596 1.5 18.760782406029 24.117960430527
13	287719 22061 114 544539 1.11 99.91 989 35.8722 38.0812 36360.8967 1337670.757395
14	309780 23352 114 544539 1.11 99.91 989 47.6899 3680.07 1821163.4603 4436391834.0402
15	333132 22455 114 544539 1.11 99.91 989 242.45 245.75 240538.75 58504333.2125
16	355587 22916 115 544540 1.11 99.91 989 -1 93.885 16252.36794 798680.73167751
17	378503 23963 115 544540 1.11 99.91 989 0 4.57376 1041.4792394368 3664.1997228253
18	402466 17510 115 544540 1.11 99.91 989 2 2 1978 3956
19	419976 26152 115 544540 1.11 99.91 989 -1.69706 0.343858 -21.048065067383 36.456778829067
20	446128 26665 115 544540 1.11 99.91 989 -2.58918 0.495893 -19.754468655468 51.544562377214
21	472793 22067 115 544540 1.11 99.91 989 33.4265 36.1111 34880.0451 1231116.9193156
22	494860 23365 115 544540 1.11 99.91 989 41.6899 3526.19 1786617.5221 4237863111.3776
23	518225 22455 115 544540 1.11 99.91 989 242.45 245.75 240641.05 58554276.0725
24	540680 23309 116 544541 1.11 99.91 989 2 48.1855 18004.74428 719680.99093037
25	563989 25550 116 544541 1.11 99.91 989 -0.331704 5.74461 194.402024542 715.36861598544
26	589539 17510 116 544541 1.11 99.91 989 3 3 2967 8901
27	607049 26245 116 544541 1.11 99.91 989 -2.62078 1.49799 0.23020334232198 195.20573687649
28	633294 26157 116 544541 1.11 99.91 989 -3.35351 1.5 2.042369685212 233.9229344548
29	659451 23335 116 544541 1.11 99.91 989 30.3665 36.4428 35398.9618 1268038.2082521
30	682786 23336 116 544541 1.11 99.91 989 35.6899 3571.97 1784786.7836 4248816026.6391
31	706122 22455 116 544541 1.11 99.91 989 242.45 242.45 239783.05 58135400.472499
32	728577 22935 117 544542 1.11 99.91 989 -1 42.0186 12397.73639 399319.30259534
33	751512 24589 117 544542 1.11 99.91 989 -0.00195684 5.41899 263.0821329231 707.13174201829
34	776101 17510 117 544542 1.11 99.91 989 4 4 3956 15824
35	793611 25719 117 544542 1.11 99.91 989 -2.91474 1.49387 18.905974626285 306.93900398491
36	819330 25519 117 544542 1.11 99.91 989 -3.35731 1.5 21.371882523687 365.26504718082
37	844849 23322 117 544542 1.11 99.91 989 28.2 38.1026 34770.5231 1225295.068295
38	868171 23319 117 544542 1.11 99.91 989 29.6899 3503.04 1762464.3605 4129532535.9316
39	891490 22455 117 544542 1.11 99.91 989 242.45 245.75 240891.85 58676716.6325
40	913945 23191 118 544543 1.11 99.91 989 2 81.955 20067.3071 1023703.4901886
41	937136 25172 118 544543 1.11 99.91 989 -5.98389e-06 3.91936 692.41960543612 1765.9332235313
42	962308 17510 118 544543 1.11 99.91 989 5 5 4945 24725
43	979818 26183 118 544543 1.11 99.91 989 -2.98011 1.49954 -21.061544620514 325.23169308814
44	1006001 26071 118 544543 1.11 99.91 989 -3.35673 1.5 -18.381780657718 380.85692782729
45	1032072 22405 118 544543 1.11 99.91 989 27.1164 36.1111 34496.1251 1206195.1731383
46	1054477 23017 118 544543 1.11 99.91 989 23.6899 3469.8 1752795.1285 4089031419.832
47	1077494 22455 118 544543 1.11 99.91 989 242.45 242.45 239783.05 58135400.472499
48	1099949 21456 119 544544 1.11 99.91 989 -1 4.93633 1792.43867 8728.8885550131
49	1121405 22573 119 544544 1.11 99.91 989 -0.000418569 0.115417 29.366867110547 2.3941185180767
50	1143978 17510 119 544544 1.11 99.91 989 6 6 5934 35604
51	1161488 26567 119 544544 1.11 99.91 989 -0.703903 0.0398757 -11.060518301549 7.382138966689
52	1188055 26498 119 544544 1.11 99.91 989 -1.08158 0.0487683 -10.326889298623 9.7456745014819
53	1214553 22017 119 544544 1.11 99.91 989 34.9512 36.1111 35135.3956 1248433.0494415
54	1236570 23360 119 544544 1.11 99.91 989 17.6899 3527.67 1761336.6633 4157577142.5994
55	1259930 22455 119 544544 1.11 99.91 989 242.45 252.35 242984.05 59716271.412501
56	1282385 22044 120 544545 1.11 99.91 989 -1 58.3919 6295.09282 194461.63713626
57	1304429 23286 120 544545 1.11 99.91 989 -1.93752e-05 4.16755 199.23366821045 390.52822918215
58	1327715 17510 120 544545 1.11 99.91 989 7 7 6923 48461
59	1345225 26326 120 544545 1.11 99.91 989 -1.2453 0.078713 -21.046288133297 21.714416187894
60	1371551 26339 120 544545 1.11 99.91 989 -1.5 0.102855 -19.811494267559 27.808459246178
61	1397890 22535 120 544545 1.11 99.91 989 33.8699 36.1111 34746.3856 1221521.5815519
62	1420425 23351 120 544545 1.11 99.91 989 11.6899 3482.82 1747080.4398 4087951168.285
63	1443776 22455 120 544545 1.11 99.91 989 242.45 252.35 242192.05 59319881.352501
64	1466231 40020 702 544593 1.213890580403 99.913884950438 988 0.099987560389 0.100009008183 98.799994930424 9.8799989989623
65	1506251 27277 702 544593 1.213890580403 99.913884950438 988 3 3 2964 8892
66	1533528 40008 769 544660 1.229640600417 99.929648824655 988 0.099987560391 0.100009072281 98.800008784627 9.8800017696783
67	1573536 27264 769 544660 1.229640600417 99.929648824655 988 2 2 1976 3952
68	1600800 40005 841 544732 1.254412700486 99.95442097029 988 0.099987560391 0.100009134851 98.800008830193 9.8800017787059
69	1640805 27260 841 544732 1.254412700486 99.95442097029 988 7 7 6916 48412
70	1668065 40016 898 544783 1.254874820569 99.954805329738 988 0.099909560393 0.100093427664 98.799918069558 9.8799852723663
71	1708081 27274 898 544783 1.254874820569 99.954805329738 988 1 1 988 988
72	1735355 40016 898 544783 1.254874820569 99.954805329738 988 0.099909560393 0.100093427664 98.799918069558 9.8799852723663
73	1775371 27274 898 544783 1.254874820569 99.954805329738 988 1 1 988 988
74	1802645 40007 904 544795 1.254874840583 99.954805452086 988 0.099909560393 0.100093427738 98.799918171892 9.8799852928332
75	1842652 27262 904 544795 1.254874840583 99.954805452086 988 2 2 1976 3952
76	1869914 39995 910 544777 1.254874860597 99.954805299009 988 0.099909560393 0.100093427026 98.799917998801 9.879985258215
77	1909909 27260 910 544777 1.254874860597 99.954805299009 988 3 3 2964 8892
78	1937169 40026 916 544801 1.25487488061 99.9548055288 988 0.099909560393 0.10009342647 98.799918208579 9.8799853001707
79	1977195 27269 916 544801 1.25487488061 99.9548055288 988 4 4 3952 15808
80	2004464 39993 922 544813 1.254874900624 99.954805640191 988 0.099909560393 0.100093427738 98.799918299956 9.8799853184459
81	2044457 27265 922 544813 1.254874900624 99.954805640191 988 5 5 4940 24700
82	2071722 40029 928 544789 1.254874920638 99.95480544774 988 0.099909560393 0.100093427404 98.799918087491 9.8799852759532
83	2111751 27277 928 544789 1.254874920638 99.95480544774 988 6 6 5928 35568
84	2139028 40013 934 544807 1.254874940652 99.954805597918 988 0.099909560393 0.100093427736 98.799918217655 9.8799853019858
85	2179041 27268 934 544807 1.254874940652 99.954805597918 988 7 7 6916 48412
86	2206309 40003 1037 544928 1.265731020708 99.9657397817 988 0.099987560391 0.100009134882 98.800009321381 9.880001876939
87	2246312 27264 1037 544928 1.265731020708 99.9657397817 988 5 5 4940 24700
88	2273576 39974 1107 544452 1.303542040722 99.903548498926 987 0.099987560389 0.100009072266 98.700007018593 9.8700014164751
89	2313550 27239 1107 544452 1.303542040722 99.903548498926 987 4 4 3948 15792
90	2340789 39987 1173 544518 1.30514808075 99.905141803849 987 0.099987560389 0.100009008177 98.699994283488 9.8699988695455
91	2380776 27248 1173 544518 1.30514808075 99.905141803849 987 6 6 5922 35532
92	2408024 1459 4894 544951 2 100 99 0 0 0 0
93	2409483 2068 4894 544951 2 100 99 0.021849 0.026130677684 2.470982677684 0.061685500454225
94	2411551 1459 4894 544951 2 100 99 0 0 0 0
95	2413010 1459 4895 544952 2 100 99 1 1 99 99
96	2414469 2068 4895 544952 2 100 99 0.021849 0.025898 2.470590059378 0.06166536635656
97	2416537 1459 4895 544952 2 100 99 0 0 0 0
98	2417996 1459 4896 544953 2 100 99 2 2 198 396
99	2419455 2067 4896 544953 2 100 99 0.021849 0.025898 2.47059011912 0.061665369357412
100	2421522 1558 4896 544953 2 100 99 0 0 0 0
101	2423080 1558 4897 544954 2 100 99 3 3 297 891
102	2424638 2167 4897 544954 2 100 99 0.021848 0.025898 2.470589178974 0.061665328666896
103	2426805 1558 4897 544954 2 100 99 0 0 0 0
104	2428363 1558 4898 544955 2 100 99 4 4 396 1584
105	2429921 2167 4898 544955 2 100 99 0.021849 0.025898 2.470590238882 0.0616653753731
106	2432088 1558 4898 544955 2 100 99 0 0 0 0
107	2433646 1558 4899 544956 2 100 99 5 5 495 2475
108	2435204 2165 4899 544956 2 100 99 0.021848 0.025898 2.4705892988 0.061665334685813
109	2437369 1558 4899 544956 2 100 99 0 0 0 0
110	2438927 1558 4900 544957 2 100 99 6 6 594 3564
111	2440485 2167 4900 544957 2 100 99 0.021849 0.025898 2.470590358738 0.061665381393538
112	2442652 1558 4900 544957 2 100 99 0 0 0 0
113	2444210 1558 4901 544958 2 100 99 7 7 693 4851
114	2445768 2166 4901 544958 2 100 99 0.021849 0.02593141869 2.47059041869 0.061665438944276
115	2447934 1558 4901 544958 2 100 99 0 0 0 0

