version 3
run BreakRanksNoGui-23-20240710-05:55:22-234982
attr configname BreakRanksNoGui
attr datetime 20240710-05:55:22
attr datetimef 20240710-055522
attr experiment BreakRanksNoGui
attr inifile omnetpp.ini
attr iterationvars "$nCars=8, $platoonSize=8, $nLanes=1, $ploegH=0.5, $controller=1, $headway=0.1, $leaderHeadway=1.2, $leaderSpeed=130, $breakRanksSafetyDistance=5, $minSpeed=120, $maxSpeed=140, $beaconInterval=0.1, $priority=4, $packetSize=200, $sController=\"CACC\", $0=2, $1=0"
attr iterationvarsd nCars=8/platoonSize=8/nLanes=1/ploegH=0.5/controller=1/headway=0.1/leaderHeadway=1.2/leaderSpeed=130/breakRanksSafetyDistance=5/minSpeed=120/maxSpeed=140/beaconInterval=0.1/priority=4/packetSize=200/sController=CACC/2/0
attr iterationvarsf nCars=8,platoonSize=8,nLanes=1,ploegH=0.5,controller=1,headway=0.1,leaderHeadway=1.2,leaderSpeed=130,breakRanksSafetyDistance=5,minSpeed=120,maxSpeed=140,beaconInterval=0.1,priority=4,packetSize=200,sController=CACC,2,0-
attr measurement "$nCars=8, $platoonSize=8, $nLanes=1, $ploegH=0.5, $controller=1, $headway=0.1, $leaderHeadway=1.2, $leaderSpeed=130, $breakRanksSafetyDistance=5, $minSpeed=120, $maxSpeed=140, $beaconInterval=0.1, $priority=4, $packetSize=200, $sController=\"CACC\", $0=2, $1=0"
attr network Highway
attr processid 234982
attr repetition 3
attr replication #3
attr resultdir results
attr runnumber 23
attr seedset 3
itervar beaconInterval 0.1
itervar breakRanksSafetyDistance 5
itervar controller 1
itervar headway 0.1
itervar leaderHeadway 1.2
itervar leaderSpeed 130
itervar maxSpeed 140
itervar minSpeed 120
itervar nCars 8
itervar nLanes 1
itervar packetSize 200
itervar platoonSize 8
itervar ploegH 0.5
itervar priority 4
itervar sController "\"CACC\""
config image-path ../../../veins/images
config repeat 10
config extends BreakRanks
config *.manager.command "\"sumo\""
config *.manager.ignoreGuiCommands true
config output-vector-file results/BreakRanks_1_0.1_130_5/result_3.vec
config output-scalar-file results/BreakRanks_1_0.1_130_5/result_3.sca
config extends Platooning
config *.node[*].scenario_type "\"BreakRanksScenario\""
config *.manager.command "\"sumo-gui\""
config *.node[*].scenario_type "\"SimpleScenario\""
config cmdenv-express-mode true
config cmdenv-autoflush true
config cmdenv-status-frequency 15s
config num-rngs 6
config network Highway
config debug-on-errors true
config print-undisposed true
config *.playgroundSizeX 65000m
config *.playgroundSizeY 25000m
config *.playgroundSizeZ 50m
config sim-time-limit "100 s"
config *.annotations.draw false
config *.obstacles.debug false
config *.world.useTorus false
config *.world.use2D false
config *.manager.updateInterval 0.01s
config *.manager.host "\"localhost\""
config *.manager.moduleType "\"org.car2x.plexe.PlatoonCar\""
config *.manager.moduleName "\"node\""
config *.manager.moduleDisplayString "\"\""
config *.manager.autoShutdown true
config *.manager.margin 25
config *.connectionManager.sendDirect true
config *.connectionManager.maxInterfDist 2600m
config *.connectionManager.drawMaxIntfDist false
config *.**.nic.mac1609_4.useServiceChannel false
config *.**.nic.mac1609_4.txPower 100mW
config *.**.nic.mac1609_4.bitrate 6Mbps
config *.**.nic.mac1609_4.useAcks true
config *.**.nic.mac1609_4.ackErrorRate 0.0
config *.**.nic.mac1609_4.frameErrorRate 0.0
config *.**.nic.phy80211p.minPowerLevel -94dBm
config *.**.nic.phy80211p.maxTXPower 100mW
config *.**.nic.phy80211p.useNoiseFloor true
config *.**.nic.phy80211p.noiseFloor -95dBm
config *.**.nic.phy80211p.decider "xmldoc(\"config.xml\")"
config *.**.nic.phy80211p.analogueModels "xmldoc(\"config.xml\")"
config *.**.nic.phy80211p.usePropagationDelay true
config *.node[*].mobility.x 0
config *.node[*].mobility.y 0
config *.node[*].mobility.z 1.895
config seed-set 3
config **.seed 3
config *.node[*].prot.rng-0 2
config *.node[*].appl.rng-0 3
config *.node[*].scenario.rng-0 4
config **.traffic.rng-0 5
config *.manager.configFile "\"./sumocfg/freeway.sumo.cfg\""
config *.manager.launchConfig "xmldoc(\"./sumocfg/freeway.launchd.xml\")"
config **.numberOfCars 8
config **.numberOfCarsPerPlatoon 8
config **.numberOfLanes 1
config *.node[*].helper_type "\"PositionHelper\""
config *.node[*].scenario.caccC1 0.5
config *.node[*].scenario.caccXi 1
config *.node[*].scenario.caccOmegaN "0.2 Hz"
config *.node[*].scenario.caccSpacing "2 m"
config *.node[*].scenario.engineTau "0.5 s"
config *.node[*].scenario.ploegH 0.5s
config *.node[*].scenario.ploegKp 0.2
config *.node[*].scenario.ploegKd 0.7
config *.node[*].scenario.useRealisticEngine false
config *.node[*].scenario.useControllerAcceleration true
config *.node[*].scenario.nLanes 1
config **.numericController 1
config **.headway 0.1s
config *.node[*].scenario.accHeadway 0.1s
config *.node[*].scenario.leaderHeadway 1.2s
config *.node[*].scenario.leaderSpeed 130kmph
config *.node[*].appl_type "\"SimplePlatooningApp\""
config *.node[*].appl.*.scalar-recording true
config *.node[*].appl.*.vector-recording true
config *.node[0].appl.breakRanksSafetyDistance 5m
config *.node[*].appl.minSpeed 120kmph
config *.node[*].appl.maxSpeed 140kmph
config *.node[*].protocol_type "\"SimplePlatooningBeaconing\""
config *.node[*].prot.*.scalar-recording true
config *.node[*].prot.*.vector-recording true
config *.node[*].prot.beaconingInterval 0.1s
config *.node[*].prot.priority 4
config *.node[*].prot.packetSize 200
config **.traffic_type "\"PlatoonsTrafficManager\""
config **.traffic.platoonInsertTime "1 s"
config **.traffic.platoonInsertSpeed 130kmph
config **.traffic.nCars 8
config **.traffic.platoonSize 8
config **.traffic.nLanes 1
config **.traffic.platooningVType "\"vtypeauto\""
config **.traffic.controller "\"CACC\""
config **.traffic.platoonInsertDistance 2m
config **.traffic.platoonInsertHeadway 0s
config **.traffic.platoonLeaderHeadway 1.2s
config **.scalar-recording false
config **.vector-recording false

vector 0 Highway.node[0].appl distance ETV
vector 1 Highway.node[0].appl relativeSpeed ETV
vector 2 Highway.node[0].appl nodeId ETV
vector 3 Highway.node[0].appl acceleration ETV
vector 4 Highway.node[0].appl controllerAcceleration ETV
vector 5 Highway.node[0].appl speed ETV
vector 6 Highway.node[0].appl posx ETV
vector 7 Highway.node[0].appl posy ETV
vector 8 Highway.node[1].appl distance ETV
vector 9 Highway.node[1].appl relativeSpeed ETV
vector 10 Highway.node[1].appl nodeId ETV
vector 11 Highway.node[1].appl acceleration ETV
vector 12 Highway.node[1].appl controllerAcceleration ETV
vector 13 Highway.node[1].appl speed ETV
vector 14 Highway.node[1].appl posx ETV
vector 15 Highway.node[1].appl posy ETV
vector 16 Highway.node[2].appl distance ETV
vector 17 Highway.node[2].appl relativeSpeed ETV
vector 18 Highway.node[2].appl nodeId ETV
vector 19 Highway.node[2].appl acceleration ETV
vector 20 Highway.node[2].appl controllerAcceleration ETV
vector 21 Highway.node[2].appl speed ETV
vector 22 Highway.node[2].appl posx ETV
vector 23 Highway.node[2].appl posy ETV
vector 24 Highway.node[3].appl distance ETV
vector 25 Highway.node[3].appl relativeSpeed ETV
vector 26 Highway.node[3].appl nodeId ETV
vector 27 Highway.node[3].appl acceleration ETV
vector 28 Highway.node[3].appl controllerAcceleration ETV
vector 29 Highway.node[3].appl speed ETV
vector 30 Highway.node[3].appl posx ETV
vector 31 Highway.node[3].appl posy ETV
vector 32 Highway.node[4].appl distance ETV
vector 33 Highway.node[4].appl relativeSpeed ETV
vector 34 Highway.node[4].appl nodeId ETV
vector 35 Highway.node[4].appl acceleration ETV
vector 36 Highway.node[4].appl controllerAcceleration ETV
vector 37 Highway.node[4].appl speed ETV
vector 38 Highway.node[4].appl posx ETV
vector 39 Highway.node[4].appl posy ETV
vector 40 Highway.node[5].appl distance ETV
vector 41 Highway.node[5].appl relativeSpeed ETV
vector 42 Highway.node[5].appl nodeId ETV
vector 43 Highway.node[5].appl acceleration ETV
vector 44 Highway.node[5].appl controllerAcceleration ETV
vector 45 Highway.node[5].appl speed ETV
vector 46 Highway.node[5].appl posx ETV
vector 47 Highway.node[5].appl posy ETV
vector 48 Highway.node[6].appl distance ETV
vector 49 Highway.node[6].appl relativeSpeed ETV
vector 50 Highway.node[6].appl nodeId ETV
vector 51 Highway.node[6].appl acceleration ETV
vector 52 Highway.node[6].appl controllerAcceleration ETV
vector 53 Highway.node[6].appl speed ETV
vector 54 Highway.node[6].appl posx ETV
vector 55 Highway.node[6].appl posy ETV
vector 56 Highway.node[7].appl distance ETV
vector 57 Highway.node[7].appl relativeSpeed ETV
vector 58 Highway.node[7].appl nodeId ETV
vector 59 Highway.node[7].appl acceleration ETV
vector 60 Highway.node[7].appl controllerAcceleration ETV
vector 61 Highway.node[7].appl speed ETV
vector 62 Highway.node[7].appl posx ETV
vector 63 Highway.node[7].appl posy ETV
vector 64 Highway.node[1].prot leaderDelay ETV
vector 65 Highway.node[1].prot leaderDelayId ETV
vector 66 Highway.node[1].prot frontDelay ETV
vector 67 Highway.node[1].prot frontDelayId ETV
vector 68 Highway.node[2].prot leaderDelay ETV
vector 69 Highway.node[2].prot leaderDelayId ETV
vector 70 Highway.node[3].prot leaderDelay ETV
vector 71 Highway.node[3].prot leaderDelayId ETV
vector 72 Highway.node[4].prot leaderDelay ETV
vector 73 Highway.node[4].prot leaderDelayId ETV
vector 74 Highway.node[5].prot leaderDelay ETV
vector 75 Highway.node[5].prot leaderDelayId ETV
vector 76 Highway.node[6].prot leaderDelay ETV
vector 77 Highway.node[6].prot leaderDelayId ETV
vector 78 Highway.node[7].prot leaderDelay ETV
vector 79 Highway.node[7].prot leaderDelayId ETV
vector 80 Highway.node[7].prot frontDelay ETV
vector 81 Highway.node[7].prot frontDelayId ETV
vector 82 Highway.node[2].prot frontDelay ETV
vector 83 Highway.node[2].prot frontDelayId ETV
vector 84 Highway.node[5].prot frontDelay ETV
vector 85 Highway.node[5].prot frontDelayId ETV
vector 86 Highway.node[3].prot frontDelay ETV
vector 87 Highway.node[3].prot frontDelayId ETV
vector 88 Highway.node[6].prot frontDelay ETV
vector 89 Highway.node[6].prot frontDelayId ETV
vector 90 Highway.node[4].prot frontDelay ETV
vector 91 Highway.node[4].prot frontDelayId ETV
vector 92 Highway.node[0].prot nodeId ETV
vector 93 Highway.node[0].prot busyTime ETV
vector 94 Highway.node[0].prot collisions ETV
vector 95 Highway.node[1].prot nodeId ETV
vector 96 Highway.node[1].prot busyTime ETV
vector 97 Highway.node[1].prot collisions ETV
vector 98 Highway.node[2].prot nodeId ETV
vector 99 Highway.node[2].prot busyTime ETV
vector 100 Highway.node[2].prot collisions ETV
vector 101 Highway.node[3].prot nodeId ETV
vector 102 Highway.node[3].prot busyTime ETV
vector 103 Highway.node[3].prot collisions ETV
vector 104 Highway.node[4].prot nodeId ETV
vector 105 Highway.node[4].prot busyTime ETV
vector 106 Highway.node[4].prot collisions ETV
vector 107 Highway.node[5].prot nodeId ETV
vector 108 Highway.node[5].prot busyTime ETV
vector 109 Highway.node[5].prot collisions ETV
vector 110 Highway.node[6].prot nodeId ETV
vector 111 Highway.node[6].prot busyTime ETV
vector 112 Highway.node[6].prot collisions ETV
vector 113 Highway.node[7].prot nodeId ETV
vector 114 Highway.node[7].prot busyTime ETV
vector 115 Highway.node[7].prot collisions ETV
0	113	1.11	-1
0	659	1.21	-1
0	1205	1.31	-1
0	1751	1.41	-1
0	2297	1.51	-1
0	2843	1.61	-1
0	3389	1.71	-1
0	3935	1.81	-1
0	4481	1.91	-1
0	5035	2.01	-1
0	5581	2.11	-1
0	6127	2.21	-1
0	6673	2.31	-1
0	7219	2.41	-1
0	7765	2.51	-1
0	8311	2.61	-1
0	8857	2.71	-1
0	9403	2.81	-1
0	9949	2.91	-1
0	10503	3.01	-1
0	11049	3.11	-1
0	11595	3.21	-1
0	12141	3.31	-1
0	12687	3.41	-1
0	13233	3.51	-1
0	13779	3.61	-1
0	14325	3.71	-1
0	14871	3.81	-1
0	15417	3.91	-1
0	15971	4.01	-1
0	16517	4.11	-1
0	17063	4.21	-1
0	17609	4.31	-1
0	18155	4.41	-1
0	18701	4.51	-1
0	19247	4.61	-1
0	19793	4.71	-1
0	20339	4.81	-1
0	20885	4.91	-1
0	21439	5.01	-1
0	21985	5.11	-1
0	22531	5.21	-1
0	23077	5.31	-1
0	23623	5.41	-1
0	24169	5.51	-1
0	24715	5.61	-1
0	25261	5.71	-1
0	25807	5.81	-1
0	26353	5.91	-1
0	26907	6.01	-1
0	27453	6.11	-1
0	27999	6.21	-1
0	28545	6.31	-1
0	29091	6.41	-1
0	29637	6.51	-1
0	30183	6.61	-1
0	30729	6.71	-1
0	31275	6.81	-1
0	31821	6.91	-1
0	32375	7.01	-1
0	32921	7.11	-1
0	33467	7.21	-1
0	34013	7.31	-1
0	34559	7.41	-1
0	35105	7.51	-1
0	35651	7.61	-1
0	36197	7.71	-1
0	36743	7.81	-1
0	37289	7.91	-1
0	37843	8.01	-1
0	38389	8.11	-1
0	38935	8.21	-1
0	39481	8.31	-1
0	40027	8.41	-1
0	40573	8.51	-1
0	41119	8.61	-1
0	41665	8.71	-1
0	42211	8.81	-1
0	42757	8.91	-1
0	43311	9.01	-1
0	43857	9.11	-1
0	44403	9.21	-1
0	44949	9.31	-1
0	45495	9.41	-1
0	46041	9.51	-1
0	46587	9.61	-1
0	47133	9.71	-1
0	47679	9.81	-1
0	48225	9.91	-1
0	48853	10.01	-1
0	49406	10.11	-1
0	49959	10.21	-1
0	50512	10.31	-1
0	51065	10.41	-1
0	51618	10.51	-1
0	52171	10.61	-1
0	52724	10.71	-1
0	53277	10.81	-1
0	53830	10.91	-1
0	54391	11.01	-1
0	54944	11.11	-1
0	55497	11.21	-1
0	56050	11.31	-1
0	56603	11.41	-1
0	57156	11.51	-1
0	57709	11.61	-1
0	58262	11.71	-1
0	58815	11.81	-1
0	59368	11.91	-1
0	59929	12.01	-1
0	60482	12.11	-1
0	61035	12.21	-1
0	61588	12.31	-1
0	62141	12.41	-1
0	62694	12.51	-1
0	63247	12.61	-1
0	63800	12.71	-1
0	64353	12.81	-1
0	64906	12.91	-1
0	65467	13.01	-1
0	66020	13.11	-1
0	66573	13.21	-1
0	67126	13.31	-1
0	67679	13.41	-1
0	68232	13.51	-1
0	68785	13.61	-1
0	69338	13.71	-1
0	69891	13.81	-1
0	70444	13.91	-1
0	71005	14.01	-1
0	71558	14.11	-1
0	72111	14.21	-1
0	72664	14.31	-1
0	73217	14.41	-1
0	73770	14.51	-1
0	74323	14.61	-1
0	74876	14.71	-1
0	75429	14.81	-1
0	75982	14.91	-1
0	76543	15.01	-1
0	77096	15.11	-1
0	77649	15.21	-1
0	78202	15.31	-1
0	78755	15.41	-1
0	79308	15.51	-1
0	79861	15.61	-1
0	80414	15.71	-1
0	80967	15.81	-1
0	81520	15.91	-1
0	82081	16.01	-1
0	82634	16.11	-1
0	83187	16.21	-1
0	83740	16.31	-1
0	84293	16.41	-1
0	84846	16.51	-1
0	85399	16.61	-1
0	85952	16.71	-1
0	86505	16.81	-1
0	87058	16.91	-1
0	87619	17.01	-1
0	88172	17.11	-1
0	88725	17.21	-1
0	89278	17.31	-1
0	89831	17.41	-1
0	90384	17.51	-1
0	90937	17.61	-1
0	91490	17.71	-1
0	92043	17.81	-1
0	92596	17.91	-1
0	93157	18.01	-1
0	93710	18.11	-1
0	94263	18.21	-1
0	94816	18.31	-1
0	95369	18.41	-1
0	95922	18.51	-1
0	96475	18.61	-1
0	97028	18.71	-1
0	97581	18.81	-1
0	98134	18.91	-1
0	98695	19.01	-1
0	99248	19.11	-1
0	99801	19.21	-1
0	100354	19.31	-1
0	100907	19.41	-1
0	101460	19.51	-1
0	102013	19.61	-1
0	102566	19.71	-1
0	103119	19.81	-1
0	103672	19.91	-1
0	104233	20.01	-1
0	104786	20.11	-1
0	105339	20.21	-1
0	105892	20.31	-1
0	106445	20.41	-1
0	106998	20.51	-1
0	107551	20.61	-1
0	108104	20.71	-1
0	108657	20.81	-1
0	109210	20.91	-1
0	109771	21.01	-1
0	110324	21.11	-1
0	110877	21.21	-1
0	111430	21.31	-1
0	111983	21.41	-1
0	112536	21.51	-1
0	113089	21.61	-1
0	113642	21.71	-1
0	114195	21.81	-1
0	114748	21.91	-1
0	115309	22.01	-1
0	115862	22.11	-1
0	116415	22.21	-1
0	116968	22.31	-1
0	117521	22.41	-1
0	118074	22.51	-1
0	118627	22.61	-1
0	119180	22.71	-1
0	119733	22.81	-1
0	120286	22.91	-1
0	120847	23.01	-1
0	121400	23.11	-1
0	121953	23.21	-1
0	122506	23.31	-1
0	123059	23.41	-1
0	123612	23.51	-1
0	124165	23.61	-1
0	124718	23.71	-1
0	125271	23.81	-1
0	125824	23.91	-1
0	126385	24.01	-1
0	126938	24.11	-1
0	127491	24.21	-1
0	128044	24.31	-1
0	128597	24.41	-1
0	129150	24.51	-1
0	129703	24.61	-1
0	130256	24.71	-1
0	130809	24.81	-1
0	131362	24.91	-1
0	131923	25.01	-1
0	132476	25.11	-1
0	133029	25.21	-1
0	133582	25.31	-1
0	134135	25.41	-1
0	134688	25.51	-1
0	135241	25.61	-1
0	135794	25.71	-1
0	136347	25.81	-1
0	136900	25.91	-1
0	137461	26.01	-1
0	138014	26.11	-1
0	138567	26.21	-1
0	139120	26.31	-1
0	139673	26.41	-1
0	140226	26.51	-1
0	140779	26.61	-1
0	141332	26.71	-1
0	141885	26.81	-1
0	142438	26.91	-1
0	142999	27.01	-1
0	143552	27.11	-1
0	144105	27.21	-1
0	144658	27.31	-1
0	145211	27.41	-1
0	145764	27.51	-1
0	146317	27.61	-1
0	146870	27.71	-1
0	147423	27.81	-1
0	147976	27.91	-1
0	148537	28.01	-1
0	149090	28.11	-1
0	149643	28.21	-1
0	150196	28.31	-1
0	150749	28.41	-1
0	151302	28.51	-1
0	151855	28.61	-1
0	152408	28.71	-1
0	152961	28.81	-1
0	153514	28.91	-1
0	154075	29.01	-1
0	154628	29.11	-1
0	155181	29.21	-1
0	155734	29.31	-1
0	156287	29.41	-1
0	156840	29.51	-1
0	157393	29.61	-1
0	157946	29.71	-1
0	158499	29.81	-1
0	159052	29.91	-1
0	159613	30.01	-1
0	160166	30.11	-1
0	160719	30.21	-1
0	161272	30.31	-1
0	161825	30.41	-1
0	162378	30.51	-1
0	162931	30.61	-1
0	163484	30.71	-1
0	164037	30.81	-1
0	164590	30.91	-1
0	165151	31.01	-1
0	165704	31.11	-1
0	166257	31.21	-1
0	166810	31.31	-1
0	167363	31.41	-1
0	167916	31.51	-1
0	168469	31.61	-1
0	169022	31.71	-1
0	169575	31.81	-1
0	170128	31.91	-1
0	170689	32.01	-1
0	171242	32.11	-1
0	171795	32.21	-1
0	172348	32.31	-1
0	172901	32.41	-1
0	173454	32.51	-1
0	174007	32.61	-1
0	174560	32.71	-1
0	175113	32.81	-1
0	175666	32.91	-1
0	176227	33.01	-1
0	176780	33.11	-1
0	177333	33.21	-1
0	177886	33.31	-1
0	178439	33.41	-1
0	178992	33.51	-1
0	179545	33.61	-1
0	180098	33.71	-1
0	180651	33.81	-1
0	181204	33.91	-1
0	181765	34.01	-1
0	182318	34.11	-1
0	182871	34.21	-1
0	183424	34.31	-1
0	183977	34.41	-1
0	184530	34.51	-1
0	185083	34.61	-1
0	185636	34.71	-1
0	186189	34.81	-1
0	186742	34.91	-1
0	187303	35.01	-1
0	187856	35.11	-1
0	188409	35.21	-1
0	188962	35.31	-1
0	189515	35.41	-1
0	190068	35.51	-1
0	190621	35.61	-1
0	191174	35.71	-1
0	191727	35.81	-1
0	192280	35.91	-1
0	192841	36.01	-1
0	193394	36.11	-1
0	193947	36.21	-1
0	194500	36.31	-1
0	195146	36.41	-1
0	195698	36.51	-1
0	196250	36.61	-1
0	196802	36.71	-1
0	197354	36.81	-1
0	197906	36.91	-1
0	198466	37.01	-1
0	199018	37.11	-1
0	199570	37.21	-1
0	200122	37.31	-1
0	200674	37.41	-1
0	201226	37.51	-1
0	201778	37.61	-1
0	202330	37.71	-1
0	202882	37.81	-1
0	203434	37.91	-1
0	203994	38.01	-1
0	204546	38.11	-1
0	205098	38.21	-1
0	205650	38.31	-1
0	206202	38.41	-1
0	206754	38.51	-1
0	207306	38.61	-1
0	207858	38.71	-1
0	208410	38.81	-1
0	208962	38.91	-1
0	209522	39.01	-1
0	210074	39.11	-1
0	210626	39.21	-1
0	211178	39.31	-1
0	211730	39.41	-1
0	212282	39.51	-1
0	212834	39.61	-1
0	213386	39.71	-1
0	213938	39.81	-1
0	214490	39.91	-1
0	215050	40.01	-1
0	215602	40.11	-1
0	216154	40.21	-1
0	216706	40.31	-1
0	217258	40.41	-1
0	217810	40.51	-1
0	218362	40.61	-1
0	218914	40.71	-1
0	219466	40.81	-1
0	220018	40.91	-1
0	220578	41.01	-1
0	221130	41.11	-1
0	221682	41.21	-1
0	222234	41.31	-1
0	222786	41.41	-1
0	223431	41.51	-1
0	223982	41.61	-1
0	224533	41.71	-1
0	225084	41.81	-1
0	225635	41.91	-1
0	226194	42.01	-1
0	226745	42.11	-1
0	227296	42.21	-1
0	227847	42.31	-1
0	228398	42.41	-1
0	228949	42.51	-1
0	229500	42.61	-1
0	230051	42.71	-1
0	230602	42.81	-1
0	231153	42.91	-1
0	231712	43.01	-1
0	232263	43.11	-1
0	232814	43.21	-1
0	233365	43.31	-1
0	233916	43.41	-1
0	234467	43.51	-1
0	235018	43.61	-1
0	235569	43.71	-1
0	236120	43.81	-1
0	236671	43.91	-1
0	237230	44.01	-1
0	237781	44.11	-1
0	238332	44.21	-1
0	238883	44.31	-1
0	239434	44.41	-1
0	239985	44.51	-1
0	240536	44.61	-1
0	241087	44.71	-1
0	241638	44.81	-1
0	242189	44.91	-1
0	242748	45.01	-1
0	243299	45.11	-1
0	243850	45.21	-1
0	244401	45.31	-1
0	244952	45.41	-1
0	245503	45.51	-1
0	246054	45.61	-1
0	246605	45.71	-1
0	247156	45.81	-1
0	247707	45.91	-1
0	248266	46.01	-1
0	248817	46.11	-1
0	249461	46.21	-1
0	250011	46.31	-1
0	250561	46.41	-1
0	251111	46.51	-1
0	251661	46.61	-1
0	252211	46.71	-1
0	252761	46.81	-1
0	253311	46.91	-1
0	253869	47.01	-1
0	254419	47.11	-1
0	254969	47.21	-1
0	255519	47.31	-1
0	256069	47.41	-1
0	256619	47.51	-1
0	257169	47.61	-1
0	257719	47.71	-1
0	258269	47.81	-1
0	258819	47.91	-1
0	259377	48.01	-1
0	259927	48.11	-1
0	260477	48.21	-1
0	261027	48.31	-1
0	261577	48.41	-1
0	262127	48.51	-1
0	262677	48.61	-1
0	263227	48.71	-1
0	263777	48.81	-1
0	264327	48.91	-1
0	264885	49.01	-1
0	265435	49.11	-1
0	265985	49.21	-1
0	266535	49.31	-1
0	267085	49.41	-1
0	267635	49.51	-1
0	268185	49.61	-1
0	268735	49.71	-1
0	269285	49.81	-1
0	269835	49.91	-1
0	270393	50.01	-1
0	270943	50.11	-1
0	271493	50.21	-1
0	272043	50.31	-1
0	272593	50.41	-1
0	273143	50.51	-1
0	273693	50.61	-1
0	274336	50.71	-1
0	274885	50.81	-1
0	275434	50.91	-1
0	275991	51.01	-1
0	276540	51.11	-1
0	277089	51.21	-1
0	277638	51.31	-1
0	278187	51.41	-1
0	278736	51.51	-1
0	279285	51.61	-1
0	279834	51.71	-1
0	280383	51.81	-1
0	280932	51.91	-1
0	281489	52.01	-1
0	282038	52.11	-1
0	282587	52.21	-1
0	283136	52.31	-1
0	283685	52.41	-1
0	284234	52.51	-1
0	284783	52.61	-1
0	285332	52.71	-1
0	285881	52.81	-1
0	286430	52.91	-1
0	286987	53.01	-1
0	287536	53.11	-1
0	288085	53.21	-1
0	288634	53.31	-1
0	289183	53.41	-1
0	289732	53.51	-1
0	290281	53.61	-1
0	290830	53.71	-1
0	291379	53.81	-1
0	291928	53.91	-1
0	292485	54.01	-1
0	293034	54.11	-1
0	293583	54.21	-1
0	294132	54.31	-1
0	294681	54.41	-1
0	295230	54.51	-1
0	295779	54.61	-1
0	296328	54.71	-1
0	296877	54.81	-1
0	297519	54.91	-1
0	298075	55.01	-1
0	298623	55.11	-1
0	299171	55.21	-1
0	299719	55.31	-1
0	300267	55.41	-1
0	300815	55.51	-1
0	301363	55.61	-1
0	301911	55.71	-1
0	302459	55.81	-1
0	303007	55.91	-1
0	303563	56.01	-1
0	304111	56.11	-1
0	304659	56.21	-1
0	305207	56.31	-1
0	305755	56.41	-1
0	306303	56.51	-1
0	306851	56.61	-1
0	307399	56.71	-1
0	307947	56.81	-1
0	308495	56.91	-1
0	309051	57.01	-1
0	309599	57.11	-1
0	310147	57.21	-1
0	310695	57.31	-1
0	311243	57.41	-1
0	311791	57.51	-1
0	312339	57.61	-1
0	312887	57.71	-1
0	313435	57.81	-1
0	313983	57.91	-1
0	314539	58.01	-1
0	315087	58.11	-1
0	315635	58.21	-1
0	316183	58.31	-1
0	316731	58.41	-1
0	317279	58.51	-1
0	317827	58.61	-1
0	318375	58.71	-1
0	318923	58.81	-1
0	319471	58.91	-1
0	320120	59.01	-1
0	320667	59.11	-1
0	321214	59.21	-1
0	321761	59.31	-1
0	322308	59.41	-1
0	322855	59.51	-1
0	323402	59.61	-1
0	323949	59.71	-1
0	324496	59.81	-1
0	325043	59.91	-1
0	325598	60.01	-1
0	326145	60.11	-1
0	326692	60.21	-1
0	327239	60.31	-1
0	327786	60.41	-1
0	328333	60.51	-1
0	328880	60.61	-1
0	329427	60.71	-1
0	329974	60.81	-1
0	330521	60.91	-1
0	331076	61.01	-1
0	331623	61.11	-1
0	332170	61.21	-1
0	332717	61.31	-1
0	333264	61.41	-1
0	333811	61.51	-1
0	334358	61.61	-1
0	334905	61.71	-1
0	335452	61.81	-1
0	335999	61.91	-1
0	336554	62.01	-1
0	337101	62.11	-1
0	337648	62.21	-1
0	338195	62.31	-1
0	338742	62.41	-1
0	339289	62.51	-1
0	339836	62.61	-1
0	340383	62.71	-1
0	340930	62.81	-1
0	341477	62.91	-1
0	342776	63.01	-1
0	343322	63.11	-1
0	343868	63.21	-1
0	344414	63.31	-1
0	344960	63.41	-1
0	345506	63.51	-1
0	346052	63.61	-1
0	346598	63.71	-1
0	347144	63.81	-1
0	347690	63.91	-1
0	348244	64.01	-1
0	348790	64.11	-1
0	349336	64.21	-1
0	349882	64.31	-1
0	350428	64.41	-1
0	350974	64.51	-1
0	351520	64.61	-1
0	352066	64.71	-1
0	352612	64.81	-1
0	353158	64.91	-1
0	353712	65.01	-1
0	354258	65.11	-1
0	354804	65.21	-1
0	355350	65.31	-1
0	355896	65.41	-1
0	356442	65.51	-1
0	356988	65.61	-1
0	357534	65.71	-1
0	358080	65.81	-1
0	358626	65.91	-1
0	359180	66.01	-1
0	359726	66.11	-1
0	360272	66.21	-1
0	360818	66.31	-1
0	361364	66.41	-1
0	361910	66.51	-1
0	362456	66.61	-1
0	363002	66.71	-1
0	363548	66.81	-1
0	364094	66.91	-1
0	364648	67.01	-1
0	365194	67.11	-1
0	365740	67.21	-1
0	366286	67.31	-1
0	366832	67.41	-1
0	367378	67.51	-1
0	367924	67.61	-1
0	368470	67.71	-1
0	369016	67.81	-1
0	369562	67.91	-1
0	370116	68.01	-1
0	370662	68.11	-1
0	371208	68.21	-1
0	371754	68.31	-1
0	372300	68.41	-1
0	372846	68.51	-1
0	373392	68.61	-1
0	373938	68.71	-1
0	374484	68.81	-1
0	375030	68.91	-1
0	375584	69.01	-1
0	376130	69.11	-1
0	376676	69.21	-1
0	377222	69.31	-1
0	377768	69.41	-1
0	378314	69.51	-1
0	378860	69.61	-1
0	379406	69.71	-1
0	379952	69.81	-1
0	380498	69.91	-1
0	381052	70.01	-1
0	381598	70.11	-1
0	382144	70.21	-1
0	382690	70.31	-1
0	383236	70.41	-1
0	383782	70.51	-1
0	384328	70.61	-1
0	384874	70.71	-1
0	385420	70.81	-1
0	385966	70.91	-1
0	386520	71.01	-1
0	387066	71.11	-1
0	387612	71.21	-1
0	388158	71.31	-1
0	388704	71.41	-1
0	389250	71.51	-1
0	389796	71.61	-1
0	390342	71.71	-1
0	390888	71.81	-1
0	391434	71.91	-1
0	391988	72.01	-1
0	392534	72.11	-1
0	393080	72.21	-1
0	393626	72.31	-1
0	394172	72.41	-1
0	394718	72.51	-1
0	395264	72.61	-1
0	395810	72.71	-1
0	396356	72.81	-1
0	396902	72.91	-1
0	397456	73.01	-1
0	398002	73.11	-1
0	398548	73.21	-1
0	399094	73.31	-1
0	399640	73.41	-1
0	400186	73.51	-1
0	400732	73.61	-1
0	401278	73.71	-1
0	401824	73.81	-1
0	402370	73.91	-1
0	402924	74.01	-1
0	403470	74.11	-1
0	404016	74.21	-1
0	404562	74.31	-1
0	405108	74.41	-1
0	405654	74.51	-1
0	406200	74.61	-1
0	406746	74.71	-1
0	407292	74.81	-1
0	407838	74.91	-1
0	408392	75.01	-1
0	408938	75.11	-1
0	409484	75.21	-1
0	410030	75.31	-1
0	410576	75.41	-1
0	411122	75.51	-1
0	411668	75.61	-1
0	412214	75.71	-1
0	412760	75.81	-1
0	413306	75.91	-1
0	413860	76.01	-1
0	414406	76.11	-1
0	414952	76.21	-1
0	415498	76.31	-1
0	416044	76.41	-1
0	416590	76.51	-1
0	417136	76.61	-1
0	417682	76.71	-1
0	418228	76.81	-1
0	418774	76.91	-1
0	419328	77.01	-1
0	419874	77.11	-1
0	420420	77.21	-1
0	420966	77.31	-1
0	421512	77.41	-1
0	422058	77.51	-1
0	422604	77.61	-1
0	423150	77.71	-1
0	423696	77.81	-1
0	424242	77.91	-1
0	424796	78.01	-1
0	425342	78.11	-1
0	425888	78.21	-1
0	426434	78.31	-1
0	426980	78.41	-1
0	427526	78.51	-1
0	428072	78.61	-1
0	428618	78.71	-1
0	429164	78.81	-1
0	429710	78.91	-1
0	430264	79.01	-1
0	430810	79.11	-1
0	431356	79.21	-1
0	431902	79.31	-1
0	432448	79.41	-1
0	432994	79.51	-1
0	433540	79.61	-1
0	434086	79.71	-1
0	434632	79.81	-1
0	435178	79.91	-1
0	435732	80.01	-1
0	436278	80.11	-1
0	436824	80.21	-1
0	437370	80.31	-1
0	437916	80.41	-1
0	438462	80.51	-1
0	439008	80.61	-1
0	439554	80.71	-1
0	440100	80.81	-1
0	440646	80.91	-1
0	441200	81.01	-1
0	441746	81.11	-1
0	442292	81.21	-1
0	442838	81.31	-1
0	443384	81.41	-1
0	443930	81.51	-1
0	444476	81.61	-1
0	445022	81.71	-1
0	445568	81.81	-1
0	446114	81.91	-1
0	446668	82.01	-1
0	447214	82.11	-1
0	447760	82.21	-1
0	448306	82.31	-1
0	448852	82.41	-1
0	449398	82.51	-1
0	449944	82.61	-1
0	450490	82.71	-1
0	451036	82.81	-1
0	451582	82.91	-1
0	452136	83.01	-1
0	452682	83.11	-1
0	453228	83.21	-1
0	453774	83.31	-1
0	454320	83.41	-1
0	454866	83.51	-1
0	455412	83.61	-1
0	455958	83.71	-1
0	456504	83.81	-1
0	457050	83.91	-1
0	457604	84.01	-1
0	458150	84.11	-1
0	458696	84.21	-1
0	459242	84.31	-1
0	459788	84.41	-1
0	460334	84.51	-1
0	460880	84.61	-1
0	461426	84.71	-1
0	461972	84.81	-1
0	462518	84.91	-1
0	463072	85.01	-1
0	463618	85.11	-1
0	464164	85.21	-1
0	464710	85.31	-1
0	465256	85.41	-1
0	465802	85.51	-1
0	466348	85.61	-1
0	466894	85.71	-1
0	467440	85.81	-1
0	467986	85.91	-1
0	468540	86.01	-1
0	469086	86.11	-1
0	469632	86.21	-1
0	470178	86.31	-1
0	470724	86.41	-1
0	471270	86.51	-1
0	471816	86.61	-1
0	472362	86.71	-1
0	472908	86.81	-1
0	473454	86.91	-1
0	474008	87.01	-1
0	474554	87.11	-1
0	475100	87.21	-1
0	475646	87.31	-1
0	476192	87.41	-1
0	476738	87.51	-1
0	477284	87.61	-1
0	477830	87.71	-1
0	478376	87.81	-1
0	478922	87.91	-1
0	479476	88.01	-1
0	480022	88.11	-1
0	480568	88.21	-1
0	481114	88.31	-1
0	481660	88.41	-1
0	482206	88.51	-1
0	482752	88.61	-1
0	483298	88.71	-1
0	483844	88.81	-1
0	484390	88.91	-1
0	484944	89.01	-1
0	485490	89.11	-1
0	486036	89.21	-1
0	486582	89.31	-1
0	487128	89.41	-1
0	487674	89.51	-1
0	488220	89.61	-1
0	488766	89.71	-1
0	489312	89.81	-1
0	489858	89.91	-1
0	490412	90.01	-1
0	490958	90.11	-1
0	491504	90.21	-1
0	492050	90.31	-1
0	492596	90.41	-1
0	493142	90.51	-1
0	493688	90.61	-1
0	494234	90.71	-1
0	494780	90.81	-1
0	495326	90.91	-1
0	495880	91.01	-1
0	496426	91.11	-1
0	496972	91.21	-1
0	497518	91.31	-1
0	498064	91.41	-1
0	498610	91.51	-1
0	499156	91.61	-1
0	499702	91.71	-1
0	500248	91.81	-1
0	500794	91.91	-1
0	501348	92.01	-1
0	501894	92.11	-1
0	502440	92.21	-1
0	502986	92.31	-1
0	503532	92.41	-1
0	504078	92.51	-1
0	504624	92.61	-1
0	505170	92.71	-1
0	505716	92.81	-1
0	506262	92.91	-1
0	506816	93.01	-1
0	507362	93.11	-1
0	507908	93.21	-1
0	508454	93.31	-1
0	509000	93.41	-1
0	509546	93.51	-1
0	510092	93.61	-1
0	510638	93.71	-1
0	511184	93.81	-1
0	511730	93.91	-1
0	512284	94.01	-1
0	512830	94.11	-1
0	513376	94.21	-1
0	513922	94.31	-1
0	514468	94.41	-1
0	515014	94.51	-1
0	515560	94.61	-1
0	516106	94.71	-1
0	516652	94.81	-1
0	517198	94.91	-1
0	517752	95.01	-1
0	518298	95.11	-1
0	518844	95.21	-1
0	519390	95.31	-1
0	519936	95.41	-1
0	520482	95.51	-1
0	521028	95.61	-1
0	521574	95.71	-1
0	522120	95.81	-1
0	522666	95.91	-1
0	523220	96.01	-1
0	523766	96.11	-1
0	524312	96.21	-1
0	524858	96.31	-1
0	525404	96.41	-1
0	525950	96.51	-1
0	526496	96.61	-1
0	527042	96.71	-1
0	527588	96.81	-1
0	528134	96.91	-1
0	528688	97.01	-1
0	529234	97.11	-1
0	529780	97.21	-1
0	530326	97.31	-1
0	530872	97.41	-1
0	531418	97.51	-1
0	531964	97.61	-1
0	532510	97.71	-1
0	533056	97.81	-1
0	533602	97.91	-1
0	534156	98.01	-1
0	534702	98.11	-1
0	535248	98.21	-1
0	535794	98.31	-1
0	536340	98.41	-1
0	536886	98.51	-1
0	537432	98.61	-1
0	537978	98.71	-1
0	538524	98.81	-1
0	539070	98.91	-1
0	539624	99.01	-1
0	540170	99.11	-1
0	540716	99.21	-1
0	541262	99.31	-1
0	541808	99.41	-1
0	542354	99.51	-1
0	542900	99.61	-1
0	543446	99.71	-1
0	543992	99.81	-1
0	544538	99.91	-1
1	113	1.11	0
1	659	1.21	0
1	1205	1.31	0
1	1751	1.41	0
1	2297	1.51	0
1	2843	1.61	0
1	3389	1.71	0
1	3935	1.81	0
1	4481	1.91	0
1	5035	2.01	0
1	5581	2.11	0
1	6127	2.21	0
1	6673	2.31	0
1	7219	2.41	0
1	7765	2.51	0
1	8311	2.61	0
1	8857	2.71	0
1	9403	2.81	0
1	9949	2.91	0
1	10503	3.01	0
1	11049	3.11	0
1	11595	3.21	0
1	12141	3.31	0
1	12687	3.41	0
1	13233	3.51	0
1	13779	3.61	0
1	14325	3.71	0
1	14871	3.81	0
1	15417	3.91	0
1	15971	4.01	0
1	16517	4.11	0
1	17063	4.21	0
1	17609	4.31	0
1	18155	4.41	0
1	18701	4.51	0
1	19247	4.61	0
1	19793	4.71	0
1	20339	4.81	0
1	20885	4.91	0
1	21439	5.01	0
1	21985	5.11	0
1	22531	5.21	0
1	23077	5.31	0
1	23623	5.41	0
1	24169	5.51	0
1	24715	5.61	0
1	25261	5.71	0
1	25807	5.81	0
1	26353	5.91	0
1	26907	6.01	0
1	27453	6.11	0
1	27999	6.21	0
1	28545	6.31	0
1	29091	6.41	0
1	29637	6.51	0
1	30183	6.61	0
1	30729	6.71	0
1	31275	6.81	0
1	31821	6.91	0
1	32375	7.01	0
1	32921	7.11	0
1	33467	7.21	0
1	34013	7.31	0
1	34559	7.41	0
1	35105	7.51	0
1	35651	7.61	0
1	36197	7.71	0
1	36743	7.81	0
1	37289	7.91	0
1	37843	8.01	0
1	38389	8.11	0
1	38935	8.21	0
1	39481	8.31	0
1	40027	8.41	0
1	40573	8.51	0
1	41119	8.61	0
1	41665	8.71	0
1	42211	8.81	0
1	42757	8.91	0
1	43311	9.01	0
1	43857	9.11	0
1	44403	9.21	0
1	44949	9.31	0
1	45495	9.41	0
1	46041	9.51	0
1	46587	9.61	0
1	47133	9.71	0
1	47679	9.81	0
1	48225	9.91	0
1	48853	10.01	0
1	49406	10.11	0
1	49959	10.21	0
1	50512	10.31	0
1	51065	10.41	0
1	51618	10.51	0
1	52171	10.61	0
1	52724	10.71	0
1	53277	10.81	0
1	53830	10.91	0
1	54391	11.01	0
1	54944	11.11	0
1	55497	11.21	0
1	56050	11.31	0
1	56603	11.41	0
1	57156	11.51	0
1	57709	11.61	0
1	58262	11.71	0
1	58815	11.81	0
1	59368	11.91	0
1	59929	12.01	0
1	60482	12.11	0
1	61035	12.21	0
1	61588	12.31	0
1	62141	12.41	0
1	62694	12.51	0
1	63247	12.61	0
1	63800	12.71	0
1	64353	12.81	0
1	64906	12.91	0
1	65467	13.01	0
1	66020	13.11	0
1	66573	13.21	0
1	67126	13.31	0
1	67679	13.41	0
1	68232	13.51	0
1	68785	13.61	0
1	69338	13.71	0
1	69891	13.81	0
1	70444	13.91	0
1	71005	14.01	0
1	71558	14.11	0
1	72111	14.21	0
1	72664	14.31	0
1	73217	14.41	0
1	73770	14.51	0
1	74323	14.61	0
1	74876	14.71	0
1	75429	14.81	0
1	75982	14.91	0
1	76543	15.01	0
1	77096	15.11	0
1	77649	15.21	0
1	78202	15.31	0
1	78755	15.41	0
1	79308	15.51	0
1	79861	15.61	0
1	80414	15.71	0
1	80967	15.81	0
1	81520	15.91	0
1	82081	16.01	0
1	82634	16.11	0
1	83187	16.21	0
1	83740	16.31	0
1	84293	16.41	0
1	84846	16.51	0
1	85399	16.61	0
1	85952	16.71	0
1	86505	16.81	0
1	87058	16.91	0
1	87619	17.01	0
1	88172	17.11	0
1	88725	17.21	0
1	89278	17.31	0
1	89831	17.41	0
1	90384	17.51	0
1	90937	17.61	0
1	91490	17.71	0
1	92043	17.81	0
1	92596	17.91	0
1	93157	18.01	0
1	93710	18.11	0
1	94263	18.21	0
1	94816	18.31	0
1	95369	18.41	0
1	95922	18.51	0
1	96475	18.61	0
1	97028	18.71	0
1	97581	18.81	0
1	98134	18.91	0
1	98695	19.01	0
1	99248	19.11	0
1	99801	19.21	0
1	100354	19.31	0
1	100907	19.41	0
1	101460	19.51	0
1	102013	19.61	0
1	102566	19.71	0
1	103119	19.81	0
1	103672	19.91	0
1	104233	20.01	0
1	104786	20.11	0
1	105339	20.21	0
1	105892	20.31	0
1	106445	20.41	0
1	106998	20.51	0
1	107551	20.61	0
1	108104	20.71	0
1	108657	20.81	0
1	109210	20.91	0
1	109771	21.01	0
1	110324	21.11	0
1	110877	21.21	0
1	111430	21.31	0
1	111983	21.41	0
1	112536	21.51	0
1	113089	21.61	0
1	113642	21.71	0
1	114195	21.81	0
1	114748	21.91	0
1	115309	22.01	0
1	115862	22.11	0
1	116415	22.21	0
1	116968	22.31	0
1	117521	22.41	0
1	118074	22.51	0
1	118627	22.61	0
1	119180	22.71	0
1	119733	22.81	0
1	120286	22.91	0
1	120847	23.01	0
1	121400	23.11	0
1	121953	23.21	0
1	122506	23.31	0
1	123059	23.41	0
1	123612	23.51	0
1	124165	23.61	0
1	124718	23.71	0
1	125271	23.81	0
1	125824	23.91	0
1	126385	24.01	0
1	126938	24.11	0
1	127491	24.21	0
1	128044	24.31	0
1	128597	24.41	0
1	129150	24.51	0
1	129703	24.61	0
1	130256	24.71	0
1	130809	24.81	0
1	131362	24.91	0
1	131923	25.01	0
1	132476	25.11	0
1	133029	25.21	0
1	133582	25.31	0
1	134135	25.41	0
1	134688	25.51	0
1	135241	25.61	0
1	135794	25.71	0
1	136347	25.81	0
1	136900	25.91	0
1	137461	26.01	0
1	138014	26.11	0
1	138567	26.21	0
1	139120	26.31	0
1	139673	26.41	0
1	140226	26.51	0
1	140779	26.61	0
1	141332	26.71	0
1	141885	26.81	0
1	142438	26.91	0
1	142999	27.01	0
1	143552	27.11	0
1	144105	27.21	0
1	144658	27.31	0
1	145211	27.41	0
1	145764	27.51	0
1	146317	27.61	0
1	146870	27.71	0
1	147423	27.81	0
1	147976	27.91	0
1	148537	28.01	0
1	149090	28.11	0
1	149643	28.21	0
1	150196	28.31	0
1	150749	28.41	0
1	151302	28.51	0
1	151855	28.61	0
1	152408	28.71	0
1	152961	28.81	0
1	153514	28.91	0
1	154075	29.01	0
1	154628	29.11	0
1	155181	29.21	0
1	155734	29.31	0
1	156287	29.41	0
1	156840	29.51	0
1	157393	29.61	0
1	157946	29.71	0
1	158499	29.81	0
1	159052	29.91	0
1	159613	30.01	0
1	160166	30.11	0
1	160719	30.21	0
1	161272	30.31	0
1	161825	30.41	0
1	162378	30.51	0
1	162931	30.61	0
1	163484	30.71	0
1	164037	30.81	0
1	164590	30.91	0
1	165151	31.01	0
1	165704	31.11	0
1	166257	31.21	0
1	166810	31.31	0
1	167363	31.41	0
1	167916	31.51	0
1	168469	31.61	0
1	169022	31.71	0
1	169575	31.81	0
1	170128	31.91	0
1	170689	32.01	0
1	171242	32.11	0
1	171795	32.21	0
1	172348	32.31	0
1	172901	32.41	0
1	173454	32.51	0
1	174007	32.61	0
1	174560	32.71	0
1	175113	32.81	0
1	175666	32.91	0
1	176227	33.01	0
1	176780	33.11	0
1	177333	33.21	0
1	177886	33.31	0
1	178439	33.41	0
1	178992	33.51	0
1	179545	33.61	0
1	180098	33.71	0
1	180651	33.81	0
1	181204	33.91	0
1	181765	34.01	0
1	182318	34.11	0
1	182871	34.21	0
1	183424	34.31	0
1	183977	34.41	0
1	184530	34.51	0
1	185083	34.61	0
1	185636	34.71	0
1	186189	34.81	0
1	186742	34.91	0
1	187303	35.01	0
1	187856	35.11	0
1	188409	35.21	0
1	188962	35.31	0
1	189515	35.41	0
1	190068	35.51	0
1	190621	35.61	0
1	191174	35.71	0
1	191727	35.81	0
1	192280	35.91	0
1	192841	36.01	0
1	193394	36.11	0
1	193947	36.21	0
1	194500	36.31	0
1	195146	36.41	0
1	195698	36.51	0
1	196250	36.61	0
1	196802	36.71	0
1	197354	36.81	0
1	197906	36.91	0
1	198466	37.01	0
1	199018	37.11	0
1	199570	37.21	0
1	200122	37.31	0
1	200674	37.41	0
1	201226	37.51	0
1	201778	37.61	0
1	202330	37.71	0
1	202882	37.81	0
1	203434	37.91	0
1	203994	38.01	0
1	204546	38.11	0
1	205098	38.21	0
1	205650	38.31	0
1	206202	38.41	0
1	206754	38.51	0
1	207306	38.61	0
1	207858	38.71	0
1	208410	38.81	0
1	208962	38.91	0
1	209522	39.01	0
1	210074	39.11	0
1	210626	39.21	0
1	211178	39.31	0
1	211730	39.41	0
1	212282	39.51	0
1	212834	39.61	0
1	213386	39.71	0
1	213938	39.81	0
1	214490	39.91	0
1	215050	40.01	0
1	215602	40.11	0
1	216154	40.21	0
1	216706	40.31	0
1	217258	40.41	0
1	217810	40.51	0
1	218362	40.61	0
1	218914	40.71	0
1	219466	40.81	0
1	220018	40.91	0
1	220578	41.01	0
1	221130	41.11	0
1	221682	41.21	0
1	222234	41.31	0
1	222786	41.41	0
1	223431	41.51	0
1	223982	41.61	0
1	224533	41.71	0
1	225084	41.81	0
1	225635	41.91	0
1	226194	42.01	0
1	226745	42.11	0
1	227296	42.21	0
1	227847	42.31	0
1	228398	42.41	0
1	228949	42.51	0
1	229500	42.61	0
1	230051	42.71	0
1	230602	42.81	0
1	231153	42.91	0
1	231712	43.01	0
1	232263	43.11	0
1	232814	43.21	0
1	233365	43.31	0
1	233916	43.41	0
1	234467	43.51	0
1	235018	43.61	0
1	235569	43.71	0
1	236120	43.81	0
1	236671	43.91	0
1	237230	44.01	0
1	237781	44.11	0
1	238332	44.21	0
1	238883	44.31	0
1	239434	44.41	0
1	239985	44.51	0
1	240536	44.61	0
1	241087	44.71	0
1	241638	44.81	0
1	242189	44.91	0
1	242748	45.01	0
1	243299	45.11	0
1	243850	45.21	0
1	244401	45.31	0
1	244952	45.41	0
1	245503	45.51	0
1	246054	45.61	0
1	246605	45.71	0
1	247156	45.81	0
1	247707	45.91	0
1	248266	46.01	0
1	248817	46.11	0
1	249461	46.21	0
1	250011	46.31	0
1	250561	46.41	0
1	251111	46.51	0
1	251661	46.61	0
1	252211	46.71	0
1	252761	46.81	0
1	253311	46.91	0
1	253869	47.01	0
1	254419	47.11	0
1	254969	47.21	0
1	255519	47.31	0
1	256069	47.41	0
1	256619	47.51	0
1	257169	47.61	0
1	257719	47.71	0
1	258269	47.81	0
1	258819	47.91	0
1	259377	48.01	0
1	259927	48.11	0
1	260477	48.21	0
1	261027	48.31	0
1	261577	48.41	0
1	262127	48.51	0
1	262677	48.61	0
1	263227	48.71	0
1	263777	48.81	0
1	264327	48.91	0
1	264885	49.01	0
1	265435	49.11	0
1	265985	49.21	0
1	266535	49.31	0
1	267085	49.41	0
1	267635	49.51	0
1	268185	49.61	0
1	268735	49.71	0
1	269285	49.81	0
1	269835	49.91	0
1	270393	50.01	0
1	270943	50.11	0
1	271493	50.21	0
1	272043	50.31	0
1	272593	50.41	0
1	273143	50.51	0
1	273693	50.61	0
1	274336	50.71	0
1	274885	50.81	0
1	275434	50.91	0
1	275991	51.01	0
1	276540	51.11	0
1	277089	51.21	0
1	277638	51.31	0
1	278187	51.41	0
1	278736	51.51	0
1	279285	51.61	0
1	279834	51.71	0
1	280383	51.81	0
1	280932	51.91	0
1	281489	52.01	0
1	282038	52.11	0
1	282587	52.21	0
1	283136	52.31	0
1	283685	52.41	0
1	284234	52.51	0
1	284783	52.61	0
1	285332	52.71	0
1	285881	52.81	0
1	286430	52.91	0
1	286987	53.01	0
1	287536	53.11	0
1	288085	53.21	0
1	288634	53.31	0
1	289183	53.41	0
1	289732	53.51	0
1	290281	53.61	0
1	290830	53.71	0
1	291379	53.81	0
1	291928	53.91	0
1	292485	54.01	0
1	293034	54.11	0
1	293583	54.21	0
1	294132	54.31	0
1	294681	54.41	0
1	295230	54.51	0
1	295779	54.61	0
1	296328	54.71	0
1	296877	54.81	0
1	297519	54.91	0
1	298075	55.01	0
1	298623	55.11	0
1	299171	55.21	0
1	299719	55.31	0
1	300267	55.41	0
1	300815	55.51	0
1	301363	55.61	0
1	301911	55.71	0
1	302459	55.81	0
1	303007	55.91	0
1	303563	56.01	0
1	304111	56.11	0
1	304659	56.21	0
1	305207	56.31	0
1	305755	56.41	0
1	306303	56.51	0
1	306851	56.61	0
1	307399	56.71	0
1	307947	56.81	0
1	308495	56.91	0
1	309051	57.01	0
1	309599	57.11	0
1	310147	57.21	0
1	310695	57.31	0
1	311243	57.41	0
1	311791	57.51	0
1	312339	57.61	0
1	312887	57.71	0
1	313435	57.81	0
1	313983	57.91	0
1	314539	58.01	0
1	315087	58.11	0
1	315635	58.21	0
1	316183	58.31	0
1	316731	58.41	0
1	317279	58.51	0
1	317827	58.61	0
1	318375	58.71	0
1	318923	58.81	0
1	319471	58.91	0
1	320120	59.01	0
1	320667	59.11	0
1	321214	59.21	0
1	321761	59.31	0
1	322308	59.41	0
1	322855	59.51	0
1	323402	59.61	0
1	323949	59.71	0
1	324496	59.81	0
1	325043	59.91	0
1	325598	60.01	0
1	326145	60.11	0
1	326692	60.21	0
1	327239	60.31	0
1	327786	60.41	0
1	328333	60.51	0
1	328880	60.61	0
1	329427	60.71	0
1	329974	60.81	0
1	330521	60.91	0
1	331076	61.01	0
1	331623	61.11	0
1	332170	61.21	0
1	332717	61.31	0
1	333264	61.41	0
1	333811	61.51	0
1	334358	61.61	0
1	334905	61.71	0
1	335452	61.81	0
1	335999	61.91	0
1	336554	62.01	0
1	337101	62.11	0
1	337648	62.21	0
1	338195	62.31	0
1	338742	62.41	0
1	339289	62.51	0
1	339836	62.61	0
1	340383	62.71	0
1	340930	62.81	0
1	341477	62.91	0
1	342776	63.01	0
1	343322	63.11	0
1	343868	63.21	0
1	344414	63.31	0
1	344960	63.41	0
1	345506	63.51	0
1	346052	63.61	0
1	346598	63.71	0
1	347144	63.81	0
1	347690	63.91	0
1	348244	64.01	0
1	348790	64.11	0
1	349336	64.21	0
1	349882	64.31	0
1	350428	64.41	0
1	350974	64.51	0
1	351520	64.61	0
1	352066	64.71	0
1	352612	64.81	0
1	353158	64.91	0
1	353712	65.01	0
1	354258	65.11	0
1	354804	65.21	0
1	355350	65.31	0
1	355896	65.41	0
1	356442	65.51	0
1	356988	65.61	0
1	357534	65.71	0
1	358080	65.81	0
1	358626	65.91	0
1	359180	66.01	0
1	359726	66.11	0
1	360272	66.21	0
1	360818	66.31	0
1	361364	66.41	0
1	361910	66.51	0
1	362456	66.61	0
1	363002	66.71	0
1	363548	66.81	0
1	364094	66.91	0
1	364648	67.01	0
1	365194	67.11	0
1	365740	67.21	0
1	366286	67.31	0
1	366832	67.41	0
1	367378	67.51	0
1	367924	67.61	0
1	368470	67.71	0
1	369016	67.81	0
1	369562	67.91	0
1	370116	68.01	0
1	370662	68.11	0
1	371208	68.21	0
1	371754	68.31	0
1	372300	68.41	0
1	372846	68.51	0
1	373392	68.61	0
1	373938	68.71	0
1	374484	68.81	0
1	375030	68.91	0
1	375584	69.01	0
1	376130	69.11	0
1	376676	69.21	0
1	377222	69.31	0
1	377768	69.41	0
1	378314	69.51	0
1	378860	69.61	0
1	379406	69.71	0
1	379952	69.81	0
1	380498	69.91	0
1	381052	70.01	0
1	381598	70.11	0
1	382144	70.21	0
1	382690	70.31	0
1	383236	70.41	0
1	383782	70.51	0
1	384328	70.61	0
1	384874	70.71	0
1	385420	70.81	0
1	385966	70.91	0
1	386520	71.01	0
1	387066	71.11	0
1	387612	71.21	0
1	388158	71.31	0
1	388704	71.41	0
1	389250	71.51	0
1	389796	71.61	0
1	390342	71.71	0
1	390888	71.81	0
1	391434	71.91	0
1	391988	72.01	0
1	392534	72.11	0
1	393080	72.21	0
1	393626	72.31	0
1	394172	72.41	0
1	394718	72.51	0
1	395264	72.61	0
1	395810	72.71	0
1	396356	72.81	0
1	396902	72.91	0
1	397456	73.01	0
1	398002	73.11	0
1	398548	73.21	0
1	399094	73.31	0
1	399640	73.41	0
1	400186	73.51	0
1	400732	73.61	0
1	401278	73.71	0
1	401824	73.81	0
1	402370	73.91	0
1	402924	74.01	0
1	403470	74.11	0
1	404016	74.21	0
1	404562	74.31	0
1	405108	74.41	0
1	405654	74.51	0
1	406200	74.61	0
1	406746	74.71	0
1	407292	74.81	0
1	407838	74.91	0
1	408392	75.01	0
1	408938	75.11	0
1	409484	75.21	0
1	410030	75.31	0
1	410576	75.41	0
1	411122	75.51	0
1	411668	75.61	0
1	412214	75.71	0
1	412760	75.81	0
1	413306	75.91	0
1	413860	76.01	0
1	414406	76.11	0
1	414952	76.21	0
1	415498	76.31	0
1	416044	76.41	0
1	416590	76.51	0
1	417136	76.61	0
1	417682	76.71	0
1	418228	76.81	0
1	418774	76.91	0
1	419328	77.01	0
1	419874	77.11	0
1	420420	77.21	0
1	420966	77.31	0
1	421512	77.41	0
1	422058	77.51	0
1	422604	77.61	0
1	423150	77.71	0
1	423696	77.81	0
1	424242	77.91	0
1	424796	78.01	0
1	425342	78.11	0
1	425888	78.21	0
1	426434	78.31	0
1	426980	78.41	0
1	427526	78.51	0
1	428072	78.61	0
1	428618	78.71	0
1	429164	78.81	0
1	429710	78.91	0
1	430264	79.01	0
1	430810	79.11	0
1	431356	79.21	0
1	431902	79.31	0
1	432448	79.41	0
1	432994	79.51	0
1	433540	79.61	0
1	434086	79.71	0
1	434632	79.81	0
1	435178	79.91	0
1	435732	80.01	0
1	436278	80.11	0
1	436824	80.21	0
1	437370	80.31	0
1	437916	80.41	0
1	438462	80.51	0
1	439008	80.61	0
1	439554	80.71	0
1	440100	80.81	0
1	440646	80.91	0
1	441200	81.01	0
1	441746	81.11	0
1	442292	81.21	0
1	442838	81.31	0
1	443384	81.41	0
1	443930	81.51	0
1	444476	81.61	0
1	445022	81.71	0
1	445568	81.81	0
1	446114	81.91	0
1	446668	82.01	0
1	447214	82.11	0
1	447760	82.21	0
1	448306	82.31	0
1	448852	82.41	0
1	449398	82.51	0
1	449944	82.61	0
1	450490	82.71	0
1	451036	82.81	0
1	451582	82.91	0
1	452136	83.01	0
1	452682	83.11	0
1	453228	83.21	0
1	453774	83.31	0
1	454320	83.41	0
1	454866	83.51	0
1	455412	83.61	0
1	455958	83.71	0
1	456504	83.81	0
1	457050	83.91	0
1	457604	84.01	0
1	458150	84.11	0
1	458696	84.21	0
1	459242	84.31	0
1	459788	84.41	0
1	460334	84.51	0
1	460880	84.61	0
1	461426	84.71	0
1	461972	84.81	0
1	462518	84.91	0
1	463072	85.01	0
1	463618	85.11	0
1	464164	85.21	0
1	464710	85.31	0
1	465256	85.41	0
1	465802	85.51	0
1	466348	85.61	0
1	466894	85.71	0
1	467440	85.81	0
1	467986	85.91	0
1	468540	86.01	0
1	469086	86.11	0
1	469632	86.21	0
1	470178	86.31	0
1	470724	86.41	0
1	471270	86.51	0
1	471816	86.61	0
1	472362	86.71	0
1	472908	86.81	0
1	473454	86.91	0
1	474008	87.01	0
1	474554	87.11	0
1	475100	87.21	0
1	475646	87.31	0
1	476192	87.41	0
1	476738	87.51	0
1	477284	87.61	0
1	477830	87.71	0
1	478376	87.81	0
1	478922	87.91	0
1	479476	88.01	0
1	480022	88.11	0
1	480568	88.21	0
1	481114	88.31	0
1	481660	88.41	0
1	482206	88.51	0
1	482752	88.61	0
1	483298	88.71	0
1	483844	88.81	0
1	484390	88.91	0
1	484944	89.01	0
1	485490	89.11	0
1	486036	89.21	0
1	486582	89.31	0
1	487128	89.41	0
1	487674	89.51	0
1	488220	89.61	0
1	488766	89.71	0
1	489312	89.81	0
1	489858	89.91	0
1	490412	90.01	0
1	490958	90.11	0
1	491504	90.21	0
1	492050	90.31	0
1	492596	90.41	0
1	493142	90.51	0
1	493688	90.61	0
1	494234	90.71	0
1	494780	90.81	0
1	495326	90.91	0
1	495880	91.01	0
1	496426	91.11	0
1	496972	91.21	0
1	497518	91.31	0
1	498064	91.41	0
1	498610	91.51	0
1	499156	91.61	0
1	499702	91.71	0
1	500248	91.81	0
1	500794	91.91	0
1	501348	92.01	0
1	501894	92.11	0
1	502440	92.21	0
1	502986	92.31	0
1	503532	92.41	0
1	504078	92.51	0
1	504624	92.61	0
1	505170	92.71	0
1	505716	92.81	0
1	506262	92.91	0
1	506816	93.01	0
1	507362	93.11	0
1	507908	93.21	0
1	508454	93.31	0
1	509000	93.41	0
1	509546	93.51	0
1	510092	93.61	0
1	510638	93.71	0
1	511184	93.81	0
1	511730	93.91	0
1	512284	94.01	0
1	512830	94.11	0
1	513376	94.21	0
1	513922	94.31	0
1	514468	94.41	0
1	515014	94.51	0
1	515560	94.61	0
1	516106	94.71	0
1	516652	94.81	0
1	517198	94.91	0
1	517752	95.01	0
1	518298	95.11	0
1	518844	95.21	0
1	519390	95.31	0
1	519936	95.41	0
1	520482	95.51	0
1	521028	95.61	0
1	521574	95.71	0
1	522120	95.81	0
1	522666	95.91	0
1	523220	96.01	0
1	523766	96.11	0
1	524312	96.21	0
1	524858	96.31	0
1	525404	96.41	0
1	525950	96.51	0
1	526496	96.61	0
1	527042	96.71	0
1	527588	96.81	0
1	528134	96.91	0
1	528688	97.01	0
1	529234	97.11	0
1	529780	97.21	0
1	530326	97.31	0
1	530872	97.41	0
1	531418	97.51	0
1	531964	97.61	0
1	532510	97.71	0
1	533056	97.81	0
1	533602	97.91	0
1	534156	98.01	0
1	534702	98.11	0
1	535248	98.21	0
1	535794	98.31	0
1	536340	98.41	0
1	536886	98.51	0
1	537432	98.61	0
1	537978	98.71	0
1	538524	98.81	0
1	539070	98.91	0
1	539624	99.01	0
1	540170	99.11	0
1	540716	99.21	0
1	541262	99.31	0
1	541808	99.41	0
1	542354	99.51	0
1	542900	99.61	0
1	543446	99.71	0
1	543992	99.81	0
1	544538	99.91	0
2	113	1.11	0
2	659	1.21	0
2	1205	1.31	0
2	1751	1.41	0
2	2297	1.51	0
2	2843	1.61	0
2	3389	1.71	0
2	3935	1.81	0
2	4481	1.91	0
2	5035	2.01	0
2	5581	2.11	0
2	6127	2.21	0
2	6673	2.31	0
2	7219	2.41	0
2	7765	2.51	0
2	8311	2.61	0
2	8857	2.71	0
2	9403	2.81	0
2	9949	2.91	0
2	10503	3.01	0
2	11049	3.11	0
2	11595	3.21	0
2	12141	3.31	0
2	12687	3.41	0
2	13233	3.51	0
2	13779	3.61	0
2	14325	3.71	0
2	14871	3.81	0
2	15417	3.91	0
2	15971	4.01	0
2	16517	4.11	0
2	17063	4.21	0
2	17609	4.31	0
2	18155	4.41	0
2	18701	4.51	0
2	19247	4.61	0
2	19793	4.71	0
2	20339	4.81	0
2	20885	4.91	0
2	21439	5.01	0
2	21985	5.11	0
2	22531	5.21	0
2	23077	5.31	0
2	23623	5.41	0
2	24169	5.51	0
2	24715	5.61	0
2	25261	5.71	0
2	25807	5.81	0
2	26353	5.91	0
2	26907	6.01	0
2	27453	6.11	0
2	27999	6.21	0
2	28545	6.31	0
2	29091	6.41	0
2	29637	6.51	0
2	30183	6.61	0
2	30729	6.71	0
2	31275	6.81	0
2	31821	6.91	0
2	32375	7.01	0
2	32921	7.11	0
2	33467	7.21	0
2	34013	7.31	0
2	34559	7.41	0
2	35105	7.51	0
2	35651	7.61	0
2	36197	7.71	0
2	36743	7.81	0
2	37289	7.91	0
2	37843	8.01	0
2	38389	8.11	0
2	38935	8.21	0
2	39481	8.31	0
2	40027	8.41	0
2	40573	8.51	0
2	41119	8.61	0
2	41665	8.71	0
2	42211	8.81	0
2	42757	8.91	0
2	43311	9.01	0
2	43857	9.11	0
2	44403	9.21	0
2	44949	9.31	0
2	45495	9.41	0
2	46041	9.51	0
2	46587	9.61	0
2	47133	9.71	0
2	47679	9.81	0
2	48225	9.91	0
2	48853	10.01	0
2	49406	10.11	0
2	49959	10.21	0
2	50512	10.31	0
2	51065	10.41	0
2	51618	10.51	0
2	52171	10.61	0
2	52724	10.71	0
2	53277	10.81	0
2	53830	10.91	0
2	54391	11.01	0
2	54944	11.11	0
2	55497	11.21	0
2	56050	11.31	0
2	56603	11.41	0
2	57156	11.51	0
2	57709	11.61	0
2	58262	11.71	0
2	58815	11.81	0
2	59368	11.91	0
2	59929	12.01	0
2	60482	12.11	0
2	61035	12.21	0
2	61588	12.31	0
2	62141	12.41	0
2	62694	12.51	0
2	63247	12.61	0
2	63800	12.71	0
2	64353	12.81	0
2	64906	12.91	0
2	65467	13.01	0
2	66020	13.11	0
2	66573	13.21	0
2	67126	13.31	0
2	67679	13.41	0
2	68232	13.51	0
2	68785	13.61	0
2	69338	13.71	0
2	69891	13.81	0
2	70444	13.91	0
2	71005	14.01	0
2	71558	14.11	0
2	72111	14.21	0
2	72664	14.31	0
2	73217	14.41	0
2	73770	14.51	0
2	74323	14.61	0
2	74876	14.71	0
2	75429	14.81	0
2	75982	14.91	0
2	76543	15.01	0
2	77096	15.11	0
2	77649	15.21	0
2	78202	15.31	0
2	78755	15.41	0
2	79308	15.51	0
2	79861	15.61	0
2	80414	15.71	0
2	80967	15.81	0
2	81520	15.91	0
2	82081	16.01	0
2	82634	16.11	0
2	83187	16.21	0
2	83740	16.31	0
2	84293	16.41	0
2	84846	16.51	0
2	85399	16.61	0
2	85952	16.71	0
2	86505	16.81	0
2	87058	16.91	0
2	87619	17.01	0
2	88172	17.11	0
2	88725	17.21	0
2	89278	17.31	0
2	89831	17.41	0
2	90384	17.51	0
2	90937	17.61	0
2	91490	17.71	0
2	92043	17.81	0
2	92596	17.91	0
2	93157	18.01	0
2	93710	18.11	0
2	94263	18.21	0
2	94816	18.31	0
2	95369	18.41	0
2	95922	18.51	0
2	96475	18.61	0
2	97028	18.71	0
2	97581	18.81	0
2	98134	18.91	0
2	98695	19.01	0
2	99248	19.11	0
2	99801	19.21	0
2	100354	19.31	0
2	100907	19.41	0
2	101460	19.51	0
2	102013	19.61	0
2	102566	19.71	0
2	103119	19.81	0
2	103672	19.91	0
2	104233	20.01	0
2	104786	20.11	0
2	105339	20.21	0
2	105892	20.31	0
2	106445	20.41	0
2	106998	20.51	0
2	107551	20.61	0
2	108104	20.71	0
2	108657	20.81	0
2	109210	20.91	0
2	109771	21.01	0
2	110324	21.11	0
2	110877	21.21	0
2	111430	21.31	0
2	111983	21.41	0
2	112536	21.51	0
2	113089	21.61	0
2	113642	21.71	0
2	114195	21.81	0
2	114748	21.91	0
2	115309	22.01	0
2	115862	22.11	0
2	116415	22.21	0
2	116968	22.31	0
2	117521	22.41	0
2	118074	22.51	0
2	118627	22.61	0
2	119180	22.71	0
2	119733	22.81	0
2	120286	22.91	0
2	120847	23.01	0
2	121400	23.11	0
2	121953	23.21	0
2	122506	23.31	0
2	123059	23.41	0
2	123612	23.51	0
2	124165	23.61	0
2	124718	23.71	0
2	125271	23.81	0
2	125824	23.91	0
2	126385	24.01	0
2	126938	24.11	0
2	127491	24.21	0
2	128044	24.31	0
2	128597	24.41	0
2	129150	24.51	0
2	129703	24.61	0
2	130256	24.71	0
2	130809	24.81	0
2	131362	24.91	0
2	131923	25.01	0
2	132476	25.11	0
2	133029	25.21	0
2	133582	25.31	0
2	134135	25.41	0
2	134688	25.51	0
2	135241	25.61	0
2	135794	25.71	0
2	136347	25.81	0
2	136900	25.91	0
2	137461	26.01	0
2	138014	26.11	0
2	138567	26.21	0
2	139120	26.31	0
2	139673	26.41	0
2	140226	26.51	0
2	140779	26.61	0
2	141332	26.71	0
2	141885	26.81	0
2	142438	26.91	0
2	142999	27.01	0
2	143552	27.11	0
2	144105	27.21	0
2	144658	27.31	0
2	145211	27.41	0
2	145764	27.51	0
2	146317	27.61	0
2	146870	27.71	0
2	147423	27.81	0
2	147976	27.91	0
2	148537	28.01	0
2	149090	28.11	0
2	149643	28.21	0
2	150196	28.31	0
2	150749	28.41	0
2	151302	28.51	0
2	151855	28.61	0
2	152408	28.71	0
2	152961	28.81	0
2	153514	28.91	0
2	154075	29.01	0
2	154628	29.11	0
2	155181	29.21	0
2	155734	29.31	0
2	156287	29.41	0
2	156840	29.51	0
2	157393	29.61	0
2	157946	29.71	0
2	158499	29.81	0
2	159052	29.91	0
2	159613	30.01	0
2	160166	30.11	0
2	160719	30.21	0
2	161272	30.31	0
2	161825	30.41	0
2	162378	30.51	0
2	162931	30.61	0
2	163484	30.71	0
2	164037	30.81	0
2	164590	30.91	0
2	165151	31.01	0
2	165704	31.11	0
2	166257	31.21	0
2	166810	31.31	0
2	167363	31.41	0
2	167916	31.51	0
2	168469	31.61	0
2	169022	31.71	0
2	169575	31.81	0
2	170128	31.91	0
2	170689	32.01	0
2	171242	32.11	0
2	171795	32.21	0
2	172348	32.31	0
2	172901	32.41	0
2	173454	32.51	0
2	174007	32.61	0
2	174560	32.71	0
2	175113	32.81	0
2	175666	32.91	0
2	176227	33.01	0
2	176780	33.11	0
2	177333	33.21	0
2	177886	33.31	0
2	178439	33.41	0
2	178992	33.51	0
2	179545	33.61	0
2	180098	33.71	0
2	180651	33.81	0
2	181204	33.91	0
2	181765	34.01	0
2	182318	34.11	0
2	182871	34.21	0
2	183424	34.31	0
2	183977	34.41	0
2	184530	34.51	0
2	185083	34.61	0
2	185636	34.71	0
2	186189	34.81	0
2	186742	34.91	0
2	187303	35.01	0
2	187856	35.11	0
2	188409	35.21	0
2	188962	35.31	0
2	189515	35.41	0
2	190068	35.51	0
2	190621	35.61	0
2	191174	35.71	0
2	191727	35.81	0
2	192280	35.91	0
2	192841	36.01	0
2	193394	36.11	0
2	193947	36.21	0
2	194500	36.31	0
2	195146	36.41	0
2	195698	36.51	0
2	196250	36.61	0
2	196802	36.71	0
2	197354	36.81	0
2	197906	36.91	0
2	198466	37.01	0
2	199018	37.11	0
2	199570	37.21	0
2	200122	37.31	0
2	200674	37.41	0
2	201226	37.51	0
2	201778	37.61	0
2	202330	37.71	0
2	202882	37.81	0
2	203434	37.91	0
2	203994	38.01	0
2	204546	38.11	0
2	205098	38.21	0
2	205650	38.31	0
2	206202	38.41	0
2	206754	38.51	0
2	207306	38.61	0
2	207858	38.71	0
2	208410	38.81	0
2	208962	38.91	0
2	209522	39.01	0
2	210074	39.11	0
2	210626	39.21	0
2	211178	39.31	0
2	211730	39.41	0
2	212282	39.51	0
2	212834	39.61	0
2	213386	39.71	0
2	213938	39.81	0
2	214490	39.91	0
2	215050	40.01	0
2	215602	40.11	0
2	216154	40.21	0
2	216706	40.31	0
2	217258	40.41	0
2	217810	40.51	0
2	218362	40.61	0
2	218914	40.71	0
2	219466	40.81	0
2	220018	40.91	0
2	220578	41.01	0
2	221130	41.11	0
2	221682	41.21	0
2	222234	41.31	0
2	222786	41.41	0
2	223431	41.51	0
2	223982	41.61	0
2	224533	41.71	0
2	225084	41.81	0
2	225635	41.91	0
2	226194	42.01	0
2	226745	42.11	0
2	227296	42.21	0
2	227847	42.31	0
2	228398	42.41	0
2	228949	42.51	0
2	229500	42.61	0
2	230051	42.71	0
2	230602	42.81	0
2	231153	42.91	0
2	231712	43.01	0
2	232263	43.11	0
2	232814	43.21	0
2	233365	43.31	0
2	233916	43.41	0
2	234467	43.51	0
2	235018	43.61	0
2	235569	43.71	0
2	236120	43.81	0
2	236671	43.91	0
2	237230	44.01	0
2	237781	44.11	0
2	238332	44.21	0
2	238883	44.31	0
2	239434	44.41	0
2	239985	44.51	0
2	240536	44.61	0
2	241087	44.71	0
2	241638	44.81	0
2	242189	44.91	0
2	242748	45.01	0
2	243299	45.11	0
2	243850	45.21	0
2	244401	45.31	0
2	244952	45.41	0
2	245503	45.51	0
2	246054	45.61	0
2	246605	45.71	0
2	247156	45.81	0
2	247707	45.91	0
2	248266	46.01	0
2	248817	46.11	0
2	249461	46.21	0
2	250011	46.31	0
2	250561	46.41	0
2	251111	46.51	0
2	251661	46.61	0
2	252211	46.71	0
2	252761	46.81	0
2	253311	46.91	0
2	253869	47.01	0
2	254419	47.11	0
2	254969	47.21	0
2	255519	47.31	0
2	256069	47.41	0
2	256619	47.51	0
2	257169	47.61	0
2	257719	47.71	0
2	258269	47.81	0
2	258819	47.91	0
2	259377	48.01	0
2	259927	48.11	0
2	260477	48.21	0
2	261027	48.31	0
2	261577	48.41	0
2	262127	48.51	0
2	262677	48.61	0
2	263227	48.71	0
2	263777	48.81	0
2	264327	48.91	0
2	264885	49.01	0
2	265435	49.11	0
2	265985	49.21	0
2	266535	49.31	0
2	267085	49.41	0
2	267635	49.51	0
2	268185	49.61	0
2	268735	49.71	0
2	269285	49.81	0
2	269835	49.91	0
2	270393	50.01	0
2	270943	50.11	0
2	271493	50.21	0
2	272043	50.31	0
2	272593	50.41	0
2	273143	50.51	0
2	273693	50.61	0
2	274336	50.71	0
2	274885	50.81	0
2	275434	50.91	0
2	275991	51.01	0
2	276540	51.11	0
2	277089	51.21	0
2	277638	51.31	0
2	278187	51.41	0
2	278736	51.51	0
2	279285	51.61	0
2	279834	51.71	0
2	280383	51.81	0
2	280932	51.91	0
2	281489	52.01	0
2	282038	52.11	0
2	282587	52.21	0
2	283136	52.31	0
2	283685	52.41	0
2	284234	52.51	0
2	284783	52.61	0
2	285332	52.71	0
2	285881	52.81	0
2	286430	52.91	0
2	286987	53.01	0
2	287536	53.11	0
2	288085	53.21	0
2	288634	53.31	0
2	289183	53.41	0
2	289732	53.51	0
2	290281	53.61	0
2	290830	53.71	0
2	291379	53.81	0
2	291928	53.91	0
2	292485	54.01	0
2	293034	54.11	0
2	293583	54.21	0
2	294132	54.31	0
2	294681	54.41	0
2	295230	54.51	0
2	295779	54.61	0
2	296328	54.71	0
2	296877	54.81	0
2	297519	54.91	0
2	298075	55.01	0
2	298623	55.11	0
2	299171	55.21	0
2	299719	55.31	0
2	300267	55.41	0
2	300815	55.51	0
2	301363	55.61	0
2	301911	55.71	0
2	302459	55.81	0
2	303007	55.91	0
2	303563	56.01	0
2	304111	56.11	0
2	304659	56.21	0
2	305207	56.31	0
2	305755	56.41	0
2	306303	56.51	0
2	306851	56.61	0
2	307399	56.71	0
2	307947	56.81	0
2	308495	56.91	0
2	309051	57.01	0
2	309599	57.11	0
2	310147	57.21	0
2	310695	57.31	0
2	311243	57.41	0
2	311791	57.51	0
2	312339	57.61	0
2	312887	57.71	0
2	313435	57.81	0
2	313983	57.91	0
2	314539	58.01	0
2	315087	58.11	0
2	315635	58.21	0
2	316183	58.31	0
2	316731	58.41	0
2	317279	58.51	0
2	317827	58.61	0
2	318375	58.71	0
2	318923	58.81	0
2	319471	58.91	0
2	320120	59.01	0
2	320667	59.11	0
2	321214	59.21	0
2	321761	59.31	0
2	322308	59.41	0
2	322855	59.51	0
2	323402	59.61	0
2	323949	59.71	0
2	324496	59.81	0
2	325043	59.91	0
2	325598	60.01	0
2	326145	60.11	0
2	326692	60.21	0
2	327239	60.31	0
2	327786	60.41	0
2	328333	60.51	0
2	328880	60.61	0
2	329427	60.71	0
2	329974	60.81	0
2	330521	60.91	0
2	331076	61.01	0
2	331623	61.11	0
2	332170	61.21	0
2	332717	61.31	0
2	333264	61.41	0
2	333811	61.51	0
2	334358	61.61	0
2	334905	61.71	0
2	335452	61.81	0
2	335999	61.91	0
2	336554	62.01	0
2	337101	62.11	0
2	337648	62.21	0
2	338195	62.31	0
2	338742	62.41	0
2	339289	62.51	0
2	339836	62.61	0
2	340383	62.71	0
2	340930	62.81	0
2	341477	62.91	0
2	342776	63.01	0
2	343322	63.11	0
2	343868	63.21	0
2	344414	63.31	0
2	344960	63.41	0
2	345506	63.51	0
2	346052	63.61	0
2	346598	63.71	0
2	347144	63.81	0
2	347690	63.91	0
2	348244	64.01	0
2	348790	64.11	0
2	349336	64.21	0
2	349882	64.31	0
2	350428	64.41	0
2	350974	64.51	0
2	351520	64.61	0
2	352066	64.71	0
2	352612	64.81	0
2	353158	64.91	0
2	353712	65.01	0
2	354258	65.11	0
2	354804	65.21	0
2	355350	65.31	0
2	355896	65.41	0
2	356442	65.51	0
2	356988	65.61	0
2	357534	65.71	0
2	358080	65.81	0
2	358626	65.91	0
2	359180	66.01	0
2	359726	66.11	0
2	360272	66.21	0
2	360818	66.31	0
2	361364	66.41	0
2	361910	66.51	0
2	362456	66.61	0
2	363002	66.71	0
2	363548	66.81	0
2	364094	66.91	0
2	364648	67.01	0
2	365194	67.11	0
2	365740	67.21	0
2	366286	67.31	0
2	366832	67.41	0
2	367378	67.51	0
2	367924	67.61	0
2	368470	67.71	0
2	369016	67.81	0
2	369562	67.91	0
2	370116	68.01	0
2	370662	68.11	0
2	371208	68.21	0
2	371754	68.31	0
2	372300	68.41	0
2	372846	68.51	0
2	373392	68.61	0
2	373938	68.71	0
2	374484	68.81	0
2	375030	68.91	0
2	375584	69.01	0
2	376130	69.11	0
2	376676	69.21	0
2	377222	69.31	0
2	377768	69.41	0
2	378314	69.51	0
2	378860	69.61	0
2	379406	69.71	0
2	379952	69.81	0
2	380498	69.91	0
2	381052	70.01	0
2	381598	70.11	0
2	382144	70.21	0
2	382690	70.31	0
2	383236	70.41	0
2	383782	70.51	0
2	384328	70.61	0
2	384874	70.71	0
2	385420	70.81	0
2	385966	70.91	0
2	386520	71.01	0
2	387066	71.11	0
2	387612	71.21	0
2	388158	71.31	0
2	388704	71.41	0
2	389250	71.51	0
2	389796	71.61	0
2	390342	71.71	0
2	390888	71.81	0
2	391434	71.91	0
2	391988	72.01	0
2	392534	72.11	0
2	393080	72.21	0
2	393626	72.31	0
2	394172	72.41	0
2	394718	72.51	0
2	395264	72.61	0
2	395810	72.71	0
2	396356	72.81	0
2	396902	72.91	0
2	397456	73.01	0
2	398002	73.11	0
2	398548	73.21	0
2	399094	73.31	0
2	399640	73.41	0
2	400186	73.51	0
2	400732	73.61	0
2	401278	73.71	0
2	401824	73.81	0
2	402370	73.91	0
2	402924	74.01	0
2	403470	74.11	0
2	404016	74.21	0
2	404562	74.31	0
2	405108	74.41	0
2	405654	74.51	0
2	406200	74.61	0
2	406746	74.71	0
2	407292	74.81	0
2	407838	74.91	0
2	408392	75.01	0
2	408938	75.11	0
2	409484	75.21	0
2	410030	75.31	0
2	410576	75.41	0
2	411122	75.51	0
2	411668	75.61	0
2	412214	75.71	0
2	412760	75.81	0
2	413306	75.91	0
2	413860	76.01	0
2	414406	76.11	0
2	414952	76.21	0
2	415498	76.31	0
2	416044	76.41	0
2	416590	76.51	0
2	417136	76.61	0
2	417682	76.71	0
2	418228	76.81	0
2	418774	76.91	0
2	419328	77.01	0
2	419874	77.11	0
2	420420	77.21	0
2	420966	77.31	0
2	421512	77.41	0
2	422058	77.51	0
2	422604	77.61	0
2	423150	77.71	0
2	423696	77.81	0
2	424242	77.91	0
2	424796	78.01	0
2	425342	78.11	0
2	425888	78.21	0
2	426434	78.31	0
2	426980	78.41	0
2	427526	78.51	0
2	428072	78.61	0
2	428618	78.71	0
2	429164	78.81	0
2	429710	78.91	0
2	430264	79.01	0
2	430810	79.11	0
2	431356	79.21	0
2	431902	79.31	0
2	432448	79.41	0
2	432994	79.51	0
2	433540	79.61	0
2	434086	79.71	0
2	434632	79.81	0
2	435178	79.91	0
2	435732	80.01	0
2	436278	80.11	0
2	436824	80.21	0
2	437370	80.31	0
2	437916	80.41	0
2	438462	80.51	0
2	439008	80.61	0
2	439554	80.71	0
2	440100	80.81	0
2	440646	80.91	0
2	441200	81.01	0
2	441746	81.11	0
2	442292	81.21	0
2	442838	81.31	0
2	443384	81.41	0
2	443930	81.51	0
2	444476	81.61	0
2	445022	81.71	0
2	445568	81.81	0
2	446114	81.91	0
2	446668	82.01	0
2	447214	82.11	0
2	447760	82.21	0
2	448306	82.31	0
2	448852	82.41	0
2	449398	82.51	0
2	449944	82.61	0
2	450490	82.71	0
2	451036	82.81	0
2	451582	82.91	0
2	452136	83.01	0
2	452682	83.11	0
2	453228	83.21	0
2	453774	83.31	0
2	454320	83.41	0
2	454866	83.51	0
2	455412	83.61	0
2	455958	83.71	0
2	456504	83.81	0
2	457050	83.91	0
2	457604	84.01	0
2	458150	84.11	0
2	458696	84.21	0
2	459242	84.31	0
2	459788	84.41	0
2	460334	84.51	0
2	460880	84.61	0
2	461426	84.71	0
2	461972	84.81	0
2	462518	84.91	0
2	463072	85.01	0
2	463618	85.11	0
2	464164	85.21	0
2	464710	85.31	0
2	465256	85.41	0
2	465802	85.51	0
2	466348	85.61	0
2	466894	85.71	0
2	467440	85.81	0
2	467986	85.91	0
2	468540	86.01	0
2	469086	86.11	0
2	469632	86.21	0
2	470178	86.31	0
2	470724	86.41	0
2	471270	86.51	0
2	471816	86.61	0
2	472362	86.71	0
2	472908	86.81	0
2	473454	86.91	0
2	474008	87.01	0
2	474554	87.11	0
2	475100	87.21	0
2	475646	87.31	0
2	476192	87.41	0
2	476738	87.51	0
2	477284	87.61	0
2	477830	87.71	0
2	478376	87.81	0
2	478922	87.91	0
2	479476	88.01	0
2	480022	88.11	0
2	480568	88.21	0
2	481114	88.31	0
2	481660	88.41	0
2	482206	88.51	0
2	482752	88.61	0
2	483298	88.71	0
2	483844	88.81	0
2	484390	88.91	0
2	484944	89.01	0
2	485490	89.11	0
2	486036	89.21	0
2	486582	89.31	0
2	487128	89.41	0
2	487674	89.51	0
2	488220	89.61	0
2	488766	89.71	0
2	489312	89.81	0
2	489858	89.91	0
2	490412	90.01	0
2	490958	90.11	0
2	491504	90.21	0
2	492050	90.31	0
2	492596	90.41	0
2	493142	90.51	0
2	493688	90.61	0
2	494234	90.71	0
2	494780	90.81	0
2	495326	90.91	0
2	495880	91.01	0
2	496426	91.11	0
2	496972	91.21	0
2	497518	91.31	0
2	498064	91.41	0
2	498610	91.51	0
2	499156	91.61	0
2	499702	91.71	0
2	500248	91.81	0
2	500794	91.91	0
2	501348	92.01	0
2	501894	92.11	0
2	502440	92.21	0
2	502986	92.31	0
2	503532	92.41	0
2	504078	92.51	0
2	504624	92.61	0
2	505170	92.71	0
2	505716	92.81	0
2	506262	92.91	0
2	506816	93.01	0
2	507362	93.11	0
2	507908	93.21	0
2	508454	93.31	0
2	509000	93.41	0
2	509546	93.51	0
2	510092	93.61	0
2	510638	93.71	0
2	511184	93.81	0
2	511730	93.91	0
2	512284	94.01	0
2	512830	94.11	0
2	513376	94.21	0
2	513922	94.31	0
2	514468	94.41	0
2	515014	94.51	0
2	515560	94.61	0
2	516106	94.71	0
2	516652	94.81	0
2	517198	94.91	0
2	517752	95.01	0
2	518298	95.11	0
2	518844	95.21	0
2	519390	95.31	0
2	519936	95.41	0
2	520482	95.51	0
2	521028	95.61	0
2	521574	95.71	0
2	522120	95.81	0
2	522666	95.91	0
2	523220	96.01	0
2	523766	96.11	0
2	524312	96.21	0
2	524858	96.31	0
2	525404	96.41	0
2	525950	96.51	0
2	526496	96.61	0
2	527042	96.71	0
2	527588	96.81	0
2	528134	96.91	0
2	528688	97.01	0
2	529234	97.11	0
2	529780	97.21	0
2	530326	97.31	0
2	530872	97.41	0
2	531418	97.51	0
2	531964	97.61	0
2	532510	97.71	0
2	533056	97.81	0
2	533602	97.91	0
2	534156	98.01	0
2	534702	98.11	0
2	535248	98.21	0
2	535794	98.31	0
2	536340	98.41	0
2	536886	98.51	0
2	537432	98.61	0
2	537978	98.71	0
2	538524	98.81	0
2	539070	98.91	0
2	539624	99.01	0
2	540170	99.11	0
2	540716	99.21	0
2	541262	99.31	0
2	541808	99.41	0
2	542354	99.51	0
2	542900	99.61	0
2	543446	99.71	0
2	543992	99.81	0
2	544538	99.91	0
3	113	1.11	0.000179096
3	659	1.21	0.000340852
3	1205	1.31	0.000467435
3	1751	1.41	0.000562893
3	2297	1.51	0.000631106
3	2843	1.61	0.000675745
3	3389	1.71	0.000700245
3	3935	1.81	0.000707784
3	4481	1.91	0.000701273
3	5035	2.01	0.000683354
3	5581	2.11	0.000656398
3	6127	2.21	0.000622512
3	6673	2.31	0.000583548
3	7219	2.41	0.000541117
3	7765	2.51	0.000496604
3	8311	2.61	0.000451181
3	8857	2.71	0.000405825
3	9403	2.81	0.00036134
3	9949	2.91	0.000318365
3	10503	3.01	0.0002774
3	11049	3.11	0.00023882
3	11595	3.21	0.000202887
3	12141	3.31	0.00016977
3	12687	3.41	0.000139558
3	13233	3.51	0.000112271
3	13779	3.61	8.78717e-05
3	14325	3.71	6.628e-05
3	14871	3.81	4.73785e-05
3	15417	3.91	3.1023e-05
3	15971	4.01	1.70493e-05
3	16517	4.11	5.28023e-06
3	17063	4.21	-4.46922e-06
3	17609	4.31	-1.2387e-05
3	18155	4.41	-1.86602e-05
3	18701	4.51	-2.34717e-05
3	19247	4.61	-2.69978e-05
3	19793	4.71	-2.94062e-05
3	20339	4.81	-3.08545e-05
3	20885	4.91	-3.14892e-05
3	21439	5.01	-3.14451e-05
3	21985	5.11	-3.0845e-05
3	22531	5.21	-2.97994e-05
3	23077	5.31	-2.84072e-05
3	23623	5.41	-2.67556e-05
3	24169	5.51	-2.49208e-05
3	24715	5.61	-2.29687e-05
3	25261	5.71	-2.09553e-05
3	25807	5.81	-1.89277e-05
3	26353	5.91	-1.6925e-05
3	26907	6.01	-1.49784e-05
3	27453	6.11	-1.31129e-05
3	27999	6.21	-1.13474e-05
3	28545	6.31	-9.69553e-06
3	29091	6.41	-8.16651e-06
3	29637	6.51	-6.76571e-06
3	30183	6.61	-5.49522e-06
3	30729	6.71	-4.35441e-06
3	31275	6.81	-3.34045e-06
3	31821	6.91	-2.44874e-06
3	32375	7.01	-1.6733e-06
3	32921	7.11	-1.00716e-06
3	33467	7.21	-4.42628e-07
3	34013	7.31	2.84224e-08
3	34559	7.41	4.14339e-07
3	35105	7.51	7.23492e-07
3	35651	7.61	9.6413e-07
3	36197	7.71	1.14424e-06
3	36743	7.81	1.27148e-06
3	37289	7.91	1.35305e-06
3	37843	8.01	1.3957e-06
3	38389	8.11	1.40565e-06
3	38935	8.21	1.3886e-06
3	39481	8.31	1.34971e-06
3	40027	8.41	1.2936e-06
3	40573	8.51	1.22437e-06
3	41119	8.61	1.14561e-06
3	41665	8.71	1.06046e-06
3	42211	8.81	9.71582e-07
3	42757	8.91	8.81246e-07
3	43311	9.01	7.91334e-07
3	43857	9.11	7.03381e-07
3	44403	9.21	6.18613e-07
3	44949	9.31	5.37979e-07
3	45495	9.41	4.62183e-07
3	46041	9.51	3.91714e-07
3	46587	9.61	3.26878e-07
3	47133	9.71	2.67827e-07
3	47679	9.81	2.14581e-07
3	48225	9.91	1.67052e-07
3	48853	10.01	1.25066e-07
3	49406	10.11	8.83794e-08
3	49959	10.21	5.66978e-08
3	50512	10.31	2.96922e-08
3	51065	10.41	7.00453e-09
3	51618	10.51	-1.17325e-08
3	52171	10.61	-2.68933e-08
3	52724	10.71	-3.88482e-08
3	53277	10.81	-4.79581e-08
3	53830	10.91	-5.45704e-08
3	54391	11.01	-5.90177e-08
3	54944	11.11	-6.16069e-08
3	55497	11.21	-6.26265e-08
3	56050	11.31	-6.23395e-08
3	56603	11.41	-6.09859e-08
3	57156	11.51	-5.87811e-08
3	57709	11.61	-5.59183e-08
3	58262	11.71	-5.25674e-08
3	58815	11.81	-4.88761e-08
3	59368	11.91	-4.4971e-08
3	59929	12.01	-4.09599e-08
3	60482	12.11	-3.69354e-08
3	61035	12.21	-3.29713e-08
3	61588	12.31	-2.9128e-08
3	62141	12.41	-2.54531e-08
3	62694	12.51	-2.19821e-08
3	63247	12.61	-1.87399e-08
3	63800	12.71	-1.57428e-08
3	64353	12.81	-1.30029e-08
3	64906	12.91	-1.05217e-08
3	65467	13.01	-8.29772e-09
3	66020	13.11	-6.32454e-09
3	66573	13.21	-4.59224e-09
3	67126	13.31	-3.08802e-09
3	67679	13.41	-1.79838e-09
3	68232	13.51	-7.08411e-10
3	68785	13.61	1.98241e-10
3	69338	13.71	9.37916e-10
3	69891	13.81	1.52767e-09
3	70444	13.91	1.98384e-09
3	71005	14.01	2.32276e-09
3	71558	14.11	2.55937e-09
3	72111	14.21	2.70788e-09
3	72664	14.31	2.78249e-09
3	73217	14.41	2.79243e-09
3	73770	14.51	2.7498e-09
3	74323	14.61	2.66525e-09
3	74876	14.71	2.54872e-09
3	75429	14.81	2.40803e-09
3	75982	14.91	2.24887e-09
3	76543	15.01	2.07763e-09
3	77096	15.11	1.89999e-09
3	77649	15.21	1.72236e-09
3	78202	15.31	1.54472e-09
3	78755	15.41	1.37064e-09
3	79308	15.51	1.20295e-09
3	79861	15.61	1.04379e-09
3	80414	15.71	8.94573e-10
3	80967	15.81	7.56017e-10
3	81520	15.91	6.29541e-10
3	82081	16.01	5.13012e-10
3	82634	16.11	4.09273e-10
3	83187	16.21	3.16902e-10
3	83740	16.31	2.3519e-10
3	84293	16.41	1.63425e-10
3	84846	16.51	1.02318e-10
3	85399	16.61	4.9738e-11
3	85952	16.71	5.68434e-12
3	86505	16.81	-3.05533e-11
3	87058	16.91	-5.8975e-11
3	87619	17.01	-8.10019e-11
3	88172	17.11	-9.80549e-11
3	88725	17.21	-1.11555e-10
3	89278	17.31	-1.18661e-10
3	89831	17.41	-1.23634e-10
3	90384	17.51	-1.23634e-10
3	90937	17.61	-1.23634e-10
3	91490	17.71	-1.21503e-10
3	92043	17.81	-1.14397e-10
3	92596	17.91	-1.07292e-10
3	93157	18.01	-1.00187e-10
3	93710	18.11	-9.30811e-11
3	94263	18.21	-8.59757e-11
3	94816	18.31	-7.88702e-11
3	95369	18.41	-7.17648e-11
3	95922	18.51	-6.46594e-11
3	96475	18.61	-5.7554e-11
3	97028	18.71	-5.04485e-11
3	97581	18.81	-4.33431e-11
3	98134	18.91	-3.62377e-11
3	98695	19.01	-2.91323e-11
3	99248	19.11	-2.20268e-11
3	99801	19.21	-1.7053e-11
3	100354	19.31	-1.49214e-11
3	100907	19.41	-1.35003e-11
3	101460	19.51	-1.27898e-11
3	102013	19.61	-1.13687e-11
3	102566	19.71	-9.9476e-12
3	103119	19.81	-9.23706e-12
3	103672	19.91	-8.52651e-12
3	104233	20.01	-7.81597e-12
3	104786	20.11	-7.10543e-12
3	105339	20.21	-6.39488e-12
3	105892	20.31	-5.68434e-12
3	106445	20.41	-4.9738e-12
3	106998	20.51	-4.26326e-12
3	107551	20.61	-4.26326e-12
3	108104	20.71	-3.55271e-12
3	108657	20.81	-3.55271e-12
3	109210	20.91	-2.84217e-12
3	109771	21.01	-2.84217e-12
3	110324	21.11	-2.84217e-12
3	110877	21.21	-2.13163e-12
3	111430	21.31	-2.13163e-12
3	111983	21.41	-2.13163e-12
3	112536	21.51	-1.42109e-12
3	113089	21.61	-1.42109e-12
3	113642	21.71	-1.42109e-12
3	114195	21.81	-1.42109e-12
3	114748	21.91	-1.42109e-12
3	115309	22.01	-7.10543e-13
3	115862	22.11	-7.10543e-13
3	116415	22.21	-7.10543e-13
3	116968	22.31	-7.10543e-13
3	117521	22.41	-7.10543e-13
3	118074	22.51	-7.10543e-13
3	118627	22.61	-7.10543e-13
3	119180	22.71	-7.10543e-13
3	119733	22.81	-7.10543e-13
3	120286	22.91	-7.10543e-13
3	120847	23.01	0
3	121400	23.11	0
3	121953	23.21	0
3	122506	23.31	0
3	123059	23.41	0
3	123612	23.51	0
3	124165	23.61	0
3	124718	23.71	0
3	125271	23.81	0
3	125824	23.91	0
3	126385	24.01	0
3	126938	24.11	0
3	127491	24.21	0
3	128044	24.31	0
3	128597	24.41	0
3	129150	24.51	0
3	129703	24.61	0
3	130256	24.71	0
3	130809	24.81	0
3	131362	24.91	0
3	131923	25.01	0
3	132476	25.11	0
3	133029	25.21	0
3	133582	25.31	0
3	134135	25.41	0
3	134688	25.51	0
3	135241	25.61	0
3	135794	25.71	0
3	136347	25.81	0
3	136900	25.91	0
3	137461	26.01	0
3	138014	26.11	0
3	138567	26.21	0
3	139120	26.31	0
3	139673	26.41	0
3	140226	26.51	0
3	140779	26.61	0
3	141332	26.71	0
3	141885	26.81	0
3	142438	26.91	0
3	142999	27.01	0
3	143552	27.11	0
3	144105	27.21	0
3	144658	27.31	0
3	145211	27.41	0
3	145764	27.51	0
3	146317	27.61	0
3	146870	27.71	0
3	147423	27.81	0
3	147976	27.91	0
3	148537	28.01	0
3	149090	28.11	0
3	149643	28.21	0
3	150196	28.31	0
3	150749	28.41	0
3	151302	28.51	0
3	151855	28.61	0
3	152408	28.71	0
3	152961	28.81	0
3	153514	28.91	0
3	154075	29.01	0
3	154628	29.11	0
3	155181	29.21	0
3	155734	29.31	0
3	156287	29.41	0
3	156840	29.51	0
3	157393	29.61	0
3	157946	29.71	0
3	158499	29.81	0
3	159052	29.91	0
3	159613	30.01	0
3	160166	30.11	0
3	160719	30.21	0
3	161272	30.31	0
3	161825	30.41	0
3	162378	30.51	0
3	162931	30.61	0
3	163484	30.71	0
3	164037	30.81	0
3	164590	30.91	0
3	165151	31.01	0
3	165704	31.11	0
3	166257	31.21	0
3	166810	31.31	0
3	167363	31.41	0
3	167916	31.51	0
3	168469	31.61	0
3	169022	31.71	0
3	169575	31.81	0
3	170128	31.91	0
3	170689	32.01	0
3	171242	32.11	0
3	171795	32.21	0
3	172348	32.31	0
3	172901	32.41	0
3	173454	32.51	0
3	174007	32.61	0
3	174560	32.71	0
3	175113	32.81	0
3	175666	32.91	0
3	176227	33.01	0
3	176780	33.11	0
3	177333	33.21	0
3	177886	33.31	0
3	178439	33.41	0
3	178992	33.51	0
3	179545	33.61	0
3	180098	33.71	0
3	180651	33.81	0
3	181204	33.91	0
3	181765	34.01	0
3	182318	34.11	0
3	182871	34.21	0
3	183424	34.31	0
3	183977	34.41	0
3	184530	34.51	0
3	185083	34.61	0
3	185636	34.71	0
3	186189	34.81	0
3	186742	34.91	0
3	187303	35.01	0
3	187856	35.11	0
3	188409	35.21	0
3	188962	35.31	0
3	189515	35.41	0
3	190068	35.51	0
3	190621	35.61	0
3	191174	35.71	0
3	191727	35.81	0
3	192280	35.91	0
3	192841	36.01	0
3	193394	36.11	0
3	193947	36.21	0
3	194500	36.31	0
3	195146	36.41	0
3	195698	36.51	0
3	196250	36.61	0
3	196802	36.71	0
3	197354	36.81	0
3	197906	36.91	0
3	198466	37.01	0
3	199018	37.11	0
3	199570	37.21	0
3	200122	37.31	0
3	200674	37.41	0
3	201226	37.51	0
3	201778	37.61	0
3	202330	37.71	0
3	202882	37.81	0
3	203434	37.91	0
3	203994	38.01	0
3	204546	38.11	0
3	205098	38.21	0
3	205650	38.31	0
3	206202	38.41	0
3	206754	38.51	0
3	207306	38.61	0
3	207858	38.71	0
3	208410	38.81	0
3	208962	38.91	0
3	209522	39.01	0
3	210074	39.11	0
3	210626	39.21	0
3	211178	39.31	0
3	211730	39.41	0
3	212282	39.51	0
3	212834	39.61	0
3	213386	39.71	0
3	213938	39.81	0
3	214490	39.91	0
3	215050	40.01	0
3	215602	40.11	0
3	216154	40.21	0
3	216706	40.31	0
3	217258	40.41	0
3	217810	40.51	0
3	218362	40.61	0
3	218914	40.71	0
3	219466	40.81	0
3	220018	40.91	0
3	220578	41.01	0
3	221130	41.11	0
3	221682	41.21	0
3	222234	41.31	0
3	222786	41.41	0
3	223431	41.51	0
3	223982	41.61	0
3	224533	41.71	0
3	225084	41.81	0
3	225635	41.91	0
3	226194	42.01	0
3	226745	42.11	0
3	227296	42.21	0
3	227847	42.31	0
3	228398	42.41	0
3	228949	42.51	0
3	229500	42.61	0
3	230051	42.71	0
3	230602	42.81	0
3	231153	42.91	0
3	231712	43.01	0
3	232263	43.11	0
3	232814	43.21	0
3	233365	43.31	0
3	233916	43.41	0
3	234467	43.51	0
3	235018	43.61	0
3	235569	43.71	0
3	236120	43.81	0
3	236671	43.91	0
3	237230	44.01	0
3	237781	44.11	0
3	238332	44.21	0
3	238883	44.31	0
3	239434	44.41	0
3	239985	44.51	0
3	240536	44.61	0
3	241087	44.71	0
3	241638	44.81	0
3	242189	44.91	0
3	242748	45.01	0
3	243299	45.11	0
3	243850	45.21	0
3	244401	45.31	0
3	244952	45.41	0
3	245503	45.51	0
3	246054	45.61	0
3	246605	45.71	0
3	247156	45.81	0
3	247707	45.91	0
3	248266	46.01	0
3	248817	46.11	0
3	249461	46.21	0
3	250011	46.31	0
3	250561	46.41	0
3	251111	46.51	0
3	251661	46.61	0
3	252211	46.71	0
3	252761	46.81	0
3	253311	46.91	0
3	253869	47.01	0
3	254419	47.11	0
3	254969	47.21	0
3	255519	47.31	0
3	256069	47.41	0
3	256619	47.51	0
3	257169	47.61	0
3	257719	47.71	0
3	258269	47.81	0
3	258819	47.91	0
3	259377	48.01	0
3	259927	48.11	0
3	260477	48.21	0
3	261027	48.31	0
3	261577	48.41	0
3	262127	48.51	0
3	262677	48.61	0
3	263227	48.71	0
3	263777	48.81	0
3	264327	48.91	0
3	264885	49.01	0
3	265435	49.11	0
3	265985	49.21	0
3	266535	49.31	0
3	267085	49.41	0
3	267635	49.51	0
3	268185	49.61	0
3	268735	49.71	0
3	269285	49.81	0
3	269835	49.91	0
3	270393	50.01	0
3	270943	50.11	0
3	271493	50.21	0
3	272043	50.31	0
3	272593	50.41	0
3	273143	50.51	0
3	273693	50.61	0
3	274336	50.71	0
3	274885	50.81	0
3	275434	50.91	0
3	275991	51.01	0
3	276540	51.11	0
3	277089	51.21	0
3	277638	51.31	0
3	278187	51.41	0
3	278736	51.51	0
3	279285	51.61	0
3	279834	51.71	0
3	280383	51.81	0
3	280932	51.91	0
3	281489	52.01	0
3	282038	52.11	0
3	282587	52.21	0
3	283136	52.31	0
3	283685	52.41	0
3	284234	52.51	0
3	284783	52.61	0
3	285332	52.71	0
3	285881	52.81	0
3	286430	52.91	0
3	286987	53.01	0
3	287536	53.11	0
3	288085	53.21	0
3	288634	53.31	0
3	289183	53.41	0
3	289732	53.51	0
3	290281	53.61	0
3	290830	53.71	0
3	291379	53.81	0
3	291928	53.91	0
3	292485	54.01	0
3	293034	54.11	0
3	293583	54.21	0
3	294132	54.31	0
3	294681	54.41	0
3	295230	54.51	0
3	295779	54.61	0
3	296328	54.71	0
3	296877	54.81	0
3	297519	54.91	0
3	298075	55.01	0
3	298623	55.11	0
3	299171	55.21	0
3	299719	55.31	0
3	300267	55.41	0
3	300815	55.51	0
3	301363	55.61	0
3	301911	55.71	0
3	302459	55.81	0
3	303007	55.91	0
3	303563	56.01	0
3	304111	56.11	0
3	304659	56.21	0
3	305207	56.31	0
3	305755	56.41	0
3	306303	56.51	0
3	306851	56.61	0
3	307399	56.71	0
3	307947	56.81	0
3	308495	56.91	0
3	309051	57.01	0
3	309599	57.11	0
3	310147	57.21	0
3	310695	57.31	0
3	311243	57.41	0
3	311791	57.51	0
3	312339	57.61	0
3	312887	57.71	0
3	313435	57.81	0
3	313983	57.91	0
3	314539	58.01	0
3	315087	58.11	0
3	315635	58.21	0
3	316183	58.31	0
3	316731	58.41	0
3	317279	58.51	0
3	317827	58.61	0
3	318375	58.71	0
3	318923	58.81	0
3	319471	58.91	0
3	320120	59.01	0
3	320667	59.11	0
3	321214	59.21	0
3	321761	59.31	0
3	322308	59.41	0
3	322855	59.51	0
3	323402	59.61	0
3	323949	59.71	0
3	324496	59.81	0
3	325043	59.91	0
3	325598	60.01	0
3	326145	60.11	0
3	326692	60.21	0
3	327239	60.31	0
3	327786	60.41	0
3	328333	60.51	0
3	328880	60.61	0
3	329427	60.71	0
3	329974	60.81	0
3	330521	60.91	0
3	331076	61.01	0
3	331623	61.11	0
3	332170	61.21	0
3	332717	61.31	0
3	333264	61.41	0
3	333811	61.51	0
3	334358	61.61	0
3	334905	61.71	0
3	335452	61.81	0
3	335999	61.91	0
3	336554	62.01	0
3	337101	62.11	0
3	337648	62.21	0
3	338195	62.31	0
3	338742	62.41	0
3	339289	62.51	0
3	339836	62.61	0
3	340383	62.71	0
3	340930	62.81	0
3	341477	62.91	0
3	342776	63.01	0
3	343322	63.11	0
3	343868	63.21	0
3	344414	63.31	0
3	344960	63.41	0
3	345506	63.51	0
3	346052	63.61	0
3	346598	63.71	0
3	347144	63.81	0
3	347690	63.91	0
3	348244	64.01	0
3	348790	64.11	0
3	349336	64.21	0
3	349882	64.31	0
3	350428	64.41	0
3	350974	64.51	0
3	351520	64.61	0
3	352066	64.71	0
3	352612	64.81	0
3	353158	64.91	0
3	353712	65.01	0
3	354258	65.11	0
3	354804	65.21	0
3	355350	65.31	0
3	355896	65.41	0
3	356442	65.51	0
3	356988	65.61	0
3	357534	65.71	0
3	358080	65.81	0
3	358626	65.91	0
3	359180	66.01	0
3	359726	66.11	0
3	360272	66.21	0
3	360818	66.31	0
3	361364	66.41	0
3	361910	66.51	0
3	362456	66.61	0
3	363002	66.71	0
3	363548	66.81	0
3	364094	66.91	0
3	364648	67.01	0
3	365194	67.11	0
3	365740	67.21	0
3	366286	67.31	0
3	366832	67.41	0
3	367378	67.51	0
3	367924	67.61	0
3	368470	67.71	0
3	369016	67.81	0
3	369562	67.91	0
3	370116	68.01	0
3	370662	68.11	0
3	371208	68.21	0
3	371754	68.31	0
3	372300	68.41	0
3	372846	68.51	0
3	373392	68.61	0
3	373938	68.71	0
3	374484	68.81	0
3	375030	68.91	0
3	375584	69.01	0
3	376130	69.11	0
3	376676	69.21	0
3	377222	69.31	0
3	377768	69.41	0
3	378314	69.51	0
3	378860	69.61	0
3	379406	69.71	0
3	379952	69.81	0
3	380498	69.91	0
3	381052	70.01	0
3	381598	70.11	0
3	382144	70.21	0
3	382690	70.31	0
3	383236	70.41	0
3	383782	70.51	0
3	384328	70.61	0
3	384874	70.71	0
3	385420	70.81	0
3	385966	70.91	0
3	386520	71.01	0
3	387066	71.11	0
3	387612	71.21	0
3	388158	71.31	0
3	388704	71.41	0
3	389250	71.51	0
3	389796	71.61	0
3	390342	71.71	0
3	390888	71.81	0
3	391434	71.91	0
3	391988	72.01	0
3	392534	72.11	0
3	393080	72.21	0
3	393626	72.31	0
3	394172	72.41	0
3	394718	72.51	0
3	395264	72.61	0
3	395810	72.71	0
3	396356	72.81	0
3	396902	72.91	0
3	397456	73.01	0
3	398002	73.11	0
3	398548	73.21	0
3	399094	73.31	0
3	399640	73.41	0
3	400186	73.51	0
3	400732	73.61	0
3	401278	73.71	0
3	401824	73.81	0
3	402370	73.91	0
3	402924	74.01	0
3	403470	74.11	0
3	404016	74.21	0
3	404562	74.31	0
3	405108	74.41	0
3	405654	74.51	0
3	406200	74.61	0
3	406746	74.71	0
3	407292	74.81	0
3	407838	74.91	0
3	408392	75.01	0
3	408938	75.11	0
3	409484	75.21	0
3	410030	75.31	0
3	410576	75.41	0
3	411122	75.51	0
3	411668	75.61	0
3	412214	75.71	0
3	412760	75.81	0
3	413306	75.91	0
3	413860	76.01	0
3	414406	76.11	0
3	414952	76.21	0
3	415498	76.31	0
3	416044	76.41	0
3	416590	76.51	0
3	417136	76.61	0
3	417682	76.71	0
3	418228	76.81	0
3	418774	76.91	0
3	419328	77.01	0
3	419874	77.11	0
3	420420	77.21	0
3	420966	77.31	0
3	421512	77.41	0
3	422058	77.51	0
3	422604	77.61	0
3	423150	77.71	0
3	423696	77.81	0
3	424242	77.91	0
3	424796	78.01	0
3	425342	78.11	0
3	425888	78.21	0
3	426434	78.31	0
3	426980	78.41	0
3	427526	78.51	0
3	428072	78.61	0
3	428618	78.71	0
3	429164	78.81	0
3	429710	78.91	0
3	430264	79.01	0
3	430810	79.11	0
3	431356	79.21	0
3	431902	79.31	0
3	432448	79.41	0
3	432994	79.51	0
3	433540	79.61	0
3	434086	79.71	0
3	434632	79.81	0
3	435178	79.91	0
3	435732	80.01	0
3	436278	80.11	0
3	436824	80.21	0
3	437370	80.31	0
3	437916	80.41	0
3	438462	80.51	0
3	439008	80.61	0
3	439554	80.71	0
3	440100	80.81	0
3	440646	80.91	0
3	441200	81.01	0
3	441746	81.11	0
3	442292	81.21	0
3	442838	81.31	0
3	443384	81.41	0
3	443930	81.51	0
3	444476	81.61	0
3	445022	81.71	0
3	445568	81.81	0
3	446114	81.91	0
3	446668	82.01	0
3	447214	82.11	0
3	447760	82.21	0
3	448306	82.31	0
3	448852	82.41	0
3	449398	82.51	0
3	449944	82.61	0
3	450490	82.71	0
3	451036	82.81	0
3	451582	82.91	0
3	452136	83.01	0
3	452682	83.11	0
3	453228	83.21	0
3	453774	83.31	0
3	454320	83.41	0
3	454866	83.51	0
3	455412	83.61	0
3	455958	83.71	0
3	456504	83.81	0
3	457050	83.91	0
3	457604	84.01	0
3	458150	84.11	0
3	458696	84.21	0
3	459242	84.31	0
3	459788	84.41	0
3	460334	84.51	0
3	460880	84.61	0
3	461426	84.71	0
3	461972	84.81	0
3	462518	84.91	0
3	463072	85.01	0
3	463618	85.11	0
3	464164	85.21	0
3	464710	85.31	0
3	465256	85.41	0
3	465802	85.51	0
3	466348	85.61	0
3	466894	85.71	0
3	467440	85.81	0
3	467986	85.91	0
3	468540	86.01	0
3	469086	86.11	0
3	469632	86.21	0
3	470178	86.31	0
3	470724	86.41	0
3	471270	86.51	0
3	471816	86.61	0
3	472362	86.71	0
3	472908	86.81	0
3	473454	86.91	0
3	474008	87.01	0
3	474554	87.11	0
3	475100	87.21	0
3	475646	87.31	0
3	476192	87.41	0
3	476738	87.51	0
3	477284	87.61	0
3	477830	87.71	0
3	478376	87.81	0
3	478922	87.91	0
3	479476	88.01	0
3	480022	88.11	0
3	480568	88.21	0
3	481114	88.31	0
3	481660	88.41	0
3	482206	88.51	0
3	482752	88.61	0
3	483298	88.71	0
3	483844	88.81	0
3	484390	88.91	0
3	484944	89.01	0
3	485490	89.11	0
3	486036	89.21	0
3	486582	89.31	0
3	487128	89.41	0
3	487674	89.51	0
3	488220	89.61	0
3	488766	89.71	0
3	489312	89.81	0
3	489858	89.91	0
3	490412	90.01	0
3	490958	90.11	0
3	491504	90.21	0
3	492050	90.31	0
3	492596	90.41	0
3	493142	90.51	0
3	493688	90.61	0
3	494234	90.71	0
3	494780	90.81	0
3	495326	90.91	0
3	495880	91.01	0
3	496426	91.11	0
3	496972	91.21	0
3	497518	91.31	0
3	498064	91.41	0
3	498610	91.51	0
3	499156	91.61	0
3	499702	91.71	0
3	500248	91.81	0
3	500794	91.91	0
3	501348	92.01	0
3	501894	92.11	0
3	502440	92.21	0
3	502986	92.31	0
3	503532	92.41	0
3	504078	92.51	0
3	504624	92.61	0
3	505170	92.71	0
3	505716	92.81	0
3	506262	92.91	0
3	506816	93.01	0
3	507362	93.11	0
3	507908	93.21	0
3	508454	93.31	0
3	509000	93.41	0
3	509546	93.51	0
3	510092	93.61	0
3	510638	93.71	0
3	511184	93.81	0
3	511730	93.91	0
3	512284	94.01	0
3	512830	94.11	0
3	513376	94.21	0
3	513922	94.31	0
3	514468	94.41	0
3	515014	94.51	0
3	515560	94.61	0
3	516106	94.71	0
3	516652	94.81	0
3	517198	94.91	0
3	517752	95.01	0
3	518298	95.11	0
3	518844	95.21	0
3	519390	95.31	0
3	519936	95.41	0
3	520482	95.51	0
3	521028	95.61	0
3	521574	95.71	0
3	522120	95.81	0
3	522666	95.91	0
3	523220	96.01	0
3	523766	96.11	0
3	524312	96.21	0
3	524858	96.31	0
3	525404	96.41	0
3	525950	96.51	0
3	526496	96.61	0
[...]
105	441017	81	0.024978150149
105	446485	82	0.024964632442
105	451953	83	0.024977096155
105	457421	84	0.024963549335
105	462889	85	0.024975994764
105	468357	86	0.024962433846
105	473825	87	0.02497486747
105	479293	88	0.024974296322
105	484761	89	0.024960720797
105	490229	90	0.024973141119
105	495697	91	0.024972558111
105	501165	92	0.024971972091
105	506633	93	0.02497138334
105	512101	94	0.024970792116
105	517569	95	0.024970198649
105	523037	96	0.024969603155
105	528505	97	0.02496900582
105	533973	98	0.024968406823
105	539441	99	0.024967806315
105	544909	100	0.02496720444
106	4852	2	0
106	10320	3	0
106	15788	4	0
106	21256	5	0
106	26724	6	0
106	32192	7	0
106	37660	8	0
106	43128	9	0
106	48597	10	0
106	54201	11	0
106	59739	12	0
106	65277	13	0
106	70815	14	0
106	76353	15	0
106	81891	16	0
106	87429	17	0
106	92967	18	0
106	98505	19	0
106	104043	20	0
106	109581	21	0
106	115119	22	0
106	120657	23	0
106	126195	24	0
106	131733	25	0
106	137271	26	0
106	142809	27	0
106	148347	28	0
106	153885	29	0
106	159423	30	0
106	164961	31	0
106	170499	32	0
106	176037	33	0
106	181575	34	0
106	187113	35	0
106	192651	36	0
106	198277	37	0
106	203805	38	0
106	209333	39	0
106	214861	40	0
106	220389	41	0
106	226006	42	0
106	231524	43	0
106	237042	44	0
106	242560	45	0
106	248078	46	0
106	253682	47	0
106	259190	48	0
106	264698	49	0
106	270206	50	0
106	275805	51	0
106	281303	52	0
106	286801	53	0
106	292299	54	0
106	297890	55	0
106	303378	56	0
106	308866	57	0
106	314354	58	0
106	319842	59	0
106	325414	60	0
106	330892	61	0
106	336370	62	0
106	341848	63	0
106	348061	64	0
106	353529	65	0
106	358997	66	0
106	364465	67	0
106	369933	68	0
106	375401	69	0
106	380869	70	0
106	386337	71	0
106	391805	72	0
106	397273	73	0
106	402741	74	0
106	408209	75	0
106	413677	76	0
106	419145	77	0
106	424613	78	0
106	430081	79	0
106	435549	80	0
106	441017	81	0
106	446485	82	0
106	451953	83	0
106	457421	84	0
106	462889	85	0
106	468357	86	0
106	473825	87	0
106	479293	88	0
106	484761	89	0
106	490229	90	0
106	495697	91	0
106	501165	92	0
106	506633	93	0
106	512101	94	0
106	517569	95	0
106	523037	96	0
106	528505	97	0
106	533973	98	0
106	539441	99	0
106	544909	100	0
107	4853	2	5
107	10321	3	5
107	15789	4	5
107	21257	5	5
107	26725	6	5
107	32193	7	5
107	37661	8	5
107	43129	9	5
107	48598	10	5
107	54202	11	5
107	59740	12	5
107	65278	13	5
107	70816	14	5
107	76354	15	5
107	81892	16	5
107	87430	17	5
107	92968	18	5
107	98506	19	5
107	104044	20	5
107	109582	21	5
107	115120	22	5
107	120658	23	5
107	126196	24	5
107	131734	25	5
107	137272	26	5
107	142810	27	5
107	148348	28	5
107	153886	29	5
107	159424	30	5
107	164962	31	5
107	170500	32	5
107	176038	33	5
107	181576	34	5
107	187114	35	5
107	192652	36	5
107	198278	37	5
107	203806	38	5
107	209334	39	5
107	214862	40	5
107	220390	41	5
107	226007	42	5
107	231525	43	5
107	237043	44	5
107	242561	45	5
107	248079	46	5
107	253683	47	5
107	259191	48	5
107	264699	49	5
107	270207	50	5
107	275806	51	5
107	281304	52	5
107	286802	53	5
107	292300	54	5
107	297891	55	5
107	303379	56	5
107	308867	57	5
107	314355	58	5
107	319843	59	5
107	325415	60	5
107	330893	61	5
107	336371	62	5
107	341849	63	5
107	348062	64	5
107	353530	65	5
107	358998	66	5
107	364466	67	5
107	369934	68	5
107	375402	69	5
107	380870	70	5
107	386338	71	5
107	391806	72	5
107	397274	73	5
107	402742	74	5
107	408210	75	5
107	413678	76	5
107	419146	77	5
107	424614	78	5
107	430082	79	5
107	435550	80	5
107	441018	81	5
107	446486	82	5
107	451954	83	5
107	457422	84	5
107	462890	85	5
107	468358	86	5
107	473826	87	5
107	479294	88	5
107	484762	89	5
107	490230	90	5
107	495698	91	5
107	501166	92	5
107	506634	93	5
107	512102	94	5
107	517570	95	5
107	523038	96	5
107	528506	97	5
107	533974	98	5
107	539442	99	5
107	544910	100	5
108	4853	2	0.021650416812
108	10321	3	0.024977796369
108	15789	4	0.024964796353
108	21257	5	0.02497779635
108	26725	6	0.02496479634
108	32193	7	0.02496479634
108	37661	8	0.02497779634
108	43129	9	0.02496479634
108	48598	10	0.02497779634
108	54202	11	0.025009715225
108	59740	12	0.024977782009
108	65278	13	0.024964746334
108	70816	14	0.024964688807
108	76354	15	0.024977612805
108	81892	16	0.024964522055
108	87430	17	0.024977420102
108	92968	18	0.024964310143
108	98506	19	0.024977195048
108	104044	20	0.024964077242
108	109582	21	0.024963958776
108	115120	22	0.024976841346
108	120658	23	0.024963726318
108	126196	24	0.024976614759
108	131734	25	0.024963507468
108	137272	26	0.024976405029
108	142810	27	0.02496330785
108	148348	28	0.02497621616
108	153886	29	0.024963130066
108	159424	30	0.024976049587
108	164962	31	0.02497597464
108	170500	32	0.024962905085
108	176038	33	0.024975840739
108	181576	34	0.024962781381
108	187114	35	0.024975726754
108	192652	36	0.024962676612
108	198278	37	0.025092512594
108	203806	38	0.024962588678
108	209334	39	0.024975550358
108	214862	40	0.024962515445
108	220390	41	0.024975483684
108	226007	42	0.025079335722
108	231525	43	0.024975428673
108	237043	44	0.024962404966
108	242561	45	0.024975383521
108	248079	46	0.024962364142
108	253683	47	0.025092167664
108	259191	48	0.024962330847
108	264699	49	0.02497531662
108	270207	50	0.02496230381
108	275806	51	0.025092053414
108	281304	52	0.024962281934
108	286802	53	0.024975272637
108	292300	54	0.024962264289
108	297891	55	0.025125256801
108	303379	56	0.024962250092
108	308867	57	0.024975244082
108	314355	58	0.0249622387
108	319843	59	0.024975233885
108	325415	60	0.025078870849
108	330893	61	0.024975225741
108	336371	62	0.0249622223
108	341849	63	0.02497521924
108	348062	64	0.025902370002
108	353530	65	0.024961988772
108	358998	66	0.024974511158
108	364466	67	0.024973718178
108	369934	68	0.02495969075
108	375402	69	0.024971538059
108	380870	70	0.024970419324
108	386338	71	0.024969420518
108	391806	72	0.024968604338
108	397274	73	0.024980972985
108	402742	74	0.024967523761
108	408210	75	0.024967205376
108	413678	76	0.024966930763
108	419146	77	0.024966647658
108	424614	78	0.024979342439
108	430082	79	0.024966009026
108	435550	80	0.024965619394
108	441018	81	0.024978148131
108	446486	82	0.024964630616
108	451954	83	0.024977094501
108	457422	84	0.024963547838
108	462890	85	0.024975993409
108	468358	86	0.02496243262
108	473826	87	0.02497486636
108	479294	88	0.024974295318
108	484762	89	0.024960719888
108	490230	90	0.024973140296
108	495698	91	0.024972557367
108	501166	92	0.024971971417
108	506634	93	0.024971382731
108	512102	94	0.024970791564
108	517570	95	0.024970198151
108	523038	96	0.024969602704
108	528506	97	0.024969005412
108	533974	98	0.024968406453
108	539442	99	0.024967805982
108	544910	100	0.024967204137
109	4853	2	0
109	10321	3	0
109	15789	4	0
109	21257	5	0
109	26725	6	0
109	32193	7	0
109	37661	8	0
109	43129	9	0
109	48598	10	0
109	54202	11	0
109	59740	12	0
109	65278	13	0
109	70816	14	0
109	76354	15	0
109	81892	16	0
109	87430	17	0
109	92968	18	0
109	98506	19	0
109	104044	20	0
109	109582	21	0
109	115120	22	0
109	120658	23	0
109	126196	24	0
109	131734	25	0
109	137272	26	0
109	142810	27	0
109	148348	28	0
109	153886	29	0
109	159424	30	0
109	164962	31	0
109	170500	32	0
109	176038	33	0
109	181576	34	0
109	187114	35	0
109	192652	36	0
109	198278	37	0
109	203806	38	0
109	209334	39	0
109	214862	40	0
109	220390	41	0
109	226007	42	0
109	231525	43	0
109	237043	44	0
109	242561	45	0
109	248079	46	0
109	253683	47	0
109	259191	48	0
109	264699	49	0
109	270207	50	0
109	275806	51	0
109	281304	52	0
109	286802	53	0
109	292300	54	0
109	297891	55	0
109	303379	56	0
109	308867	57	0
109	314355	58	0
109	319843	59	0
109	325415	60	0
109	330893	61	0
109	336371	62	0
109	341849	63	0
109	348062	64	0
109	353530	65	0
109	358998	66	0
109	364466	67	0
109	369934	68	0
109	375402	69	0
109	380870	70	0
109	386338	71	0
109	391806	72	0
109	397274	73	0
109	402742	74	0
109	408210	75	0
109	413678	76	0
109	419146	77	0
109	424614	78	0
109	430082	79	0
109	435550	80	0
109	441018	81	0
109	446486	82	0
109	451954	83	0
109	457422	84	0
109	462890	85	0
109	468358	86	0
109	473826	87	0
109	479294	88	0
109	484762	89	0
109	490230	90	0
109	495698	91	0
109	501166	92	0
109	506634	93	0
109	512102	94	0
109	517570	95	0
109	523038	96	0
109	528506	97	0
109	533974	98	0
109	539442	99	0
109	544910	100	0
110	4854	2	6
110	10322	3	6
110	15790	4	6
110	21258	5	6
110	26726	6	6
110	32194	7	6
110	37662	8	6
110	43130	9	6
110	48599	10	6
110	54203	11	6
110	59741	12	6
110	65279	13	6
110	70817	14	6
110	76355	15	6
110	81893	16	6
110	87431	17	6
110	92969	18	6
110	98507	19	6
110	104045	20	6
110	109583	21	6
110	115121	22	6
110	120659	23	6
110	126197	24	6
110	131735	25	6
110	137273	26	6
110	142811	27	6
110	148349	28	6
110	153887	29	6
110	159425	30	6
110	164963	31	6
110	170501	32	6
110	176039	33	6
110	181577	34	6
110	187115	35	6
110	192653	36	6
110	198279	37	6
110	203807	38	6
110	209335	39	6
110	214863	40	6
110	220391	41	6
110	226008	42	6
110	231526	43	6
110	237044	44	6
110	242562	45	6
110	248080	46	6
110	253684	47	6
110	259192	48	6
110	264700	49	6
110	270208	50	6
110	275807	51	6
110	281305	52	6
110	286803	53	6
110	292301	54	6
110	297892	55	6
110	303380	56	6
110	308868	57	6
110	314356	58	6
110	319844	59	6
110	325416	60	6
110	330894	61	6
110	336372	62	6
110	341850	63	6
110	348063	64	6
110	353531	65	6
110	358999	66	6
110	364467	67	6
110	369935	68	6
110	375403	69	6
110	380871	70	6
110	386339	71	6
110	391807	72	6
110	397275	73	6
110	402743	74	6
110	408211	75	6
110	413679	76	6
110	419147	77	6
110	424615	78	6
110	430083	79	6
110	435551	80	6
110	441019	81	6
110	446487	82	6
110	451955	83	6
110	457423	84	6
110	462891	85	6
110	468359	86	6
110	473827	87	6
110	479295	88	6
110	484763	89	6
110	490231	90	6
110	495699	91	6
110	501167	92	6
110	506635	93	6
110	512103	94	6
110	517571	95	6
110	523039	96	6
110	528507	97	6
110	533975	98	6
110	539443	99	6
110	544911	100	6
111	4854	2	0.021651396799
111	10322	3	0.024977796368
111	15790	4	0.024964796353
111	21258	5	0.02497779635
111	26726	6	0.02496479634
111	32194	7	0.02496479634
111	37662	8	0.02497779634
111	43130	9	0.02496479634
111	48599	10	0.02497779634
111	54203	11	0.025009715219
111	59741	12	0.02497778199
111	65279	13	0.024964746299
111	70817	14	0.02496468875
111	76355	15	0.024977612717
111	81893	16	0.024964521929
111	87431	17	0.024977419938
111	92969	18	0.024964309939
111	98507	19	0.024977194806
111	104045	20	0.024964076965
111	109583	21	0.024963958469
111	115121	22	0.024976841014
111	120659	23	0.024963725965
111	126197	24	0.024976614391
111	131735	25	0.02496350709
111	137273	26	0.024976404645
111	142811	27	0.024963307465
111	148349	28	0.024976215779
111	153887	29	0.024963129689
111	159425	30	0.024976049221
111	164963	31	0.024975974283
111	170501	32	0.024962904742
111	176039	33	0.024975840411
111	181577	34	0.024962781068
111	187115	35	0.024975726457
111	192653	36	0.024962676332
111	198279	37	0.025092512331
111	203807	38	0.02496258843
111	209335	39	0.024975550128
111	214863	40	0.024962515229
111	220391	41	0.024975483485
111	226008	42	0.025079335537
111	231526	43	0.024975428503
111	237044	44	0.024962404808
111	242562	45	0.024975383375
111	248080	46	0.024962364009
111	253684	47	0.025092167543
111	259192	48	0.024962330735
111	264700	49	0.024975316518
111	270208	50	0.024962303717
111	275807	51	0.02509205333
111	281305	52	0.024962281856
111	286803	53	0.024975272567
111	292301	54	0.024962264226
111	297892	55	0.025091957948
111	303380	56	0.024962250039
111	308868	57	0.024975244036
111	314356	58	0.024962238658
111	319844	59	0.024975233846
111	325416	60	0.025112229551
111	330894	61	0.024975225709
111	336372	62	0.024962222273
111	341850	63	0.024975219214
111	348063	64	0.025902370178
111	353531	65	0.024961999418
111	358999	66	0.024974531329
111	364467	67	0.024973746543
111	369935	68	0.024959724653
111	375403	69	0.024971575254
111	380871	70	0.024970452463
111	386339	71	0.024969449064
111	391807	72	0.024968627962
111	397275	73	0.024980991635
111	402743	74	0.024967537507
111	408211	75	0.024967215754
111	413679	76	0.024966940223
111	419147	77	0.024966657216
111	424615	78	0.024979352168
111	430083	79	0.024966018815
111	435551	80	0.024965629191
111	441019	81	0.024978157931
111	446487	82	0.024964640423
111	451955	83	0.024977104322
111	457423	84	0.024963557671
111	462891	85	0.024976003257
111	468359	86	0.024962442481
111	473827	87	0.024974876236
111	479295	88	0.024974309981
111	484763	89	0.024960729854
111	490231	90	0.024973150265
111	495699	91	0.024972567341
111	501167	92	0.024971981395
111	506635	93	0.024971392712
111	512103	94	0.024970801549
111	517571	95	0.024970208138
111	523039	96	0.024969612695
111	528507	97	0.024969015406
111	533975	98	0.024968416449
111	539443	99	0.024967815981
111	544911	100	0.024967214138
112	4854	2	0
112	10322	3	0
112	15790	4	0
112	21258	5	0
112	26726	6	0
112	32194	7	0
112	37662	8	0
112	43130	9	0
112	48599	10	0
112	54203	11	0
112	59741	12	0
112	65279	13	0
112	70817	14	0
112	76355	15	0
112	81893	16	0
112	87431	17	0
112	92969	18	0
112	98507	19	0
112	104045	20	0
112	109583	21	0
112	115121	22	0
112	120659	23	0
112	126197	24	0
112	131735	25	0
112	137273	26	0
112	142811	27	0
112	148349	28	0
112	153887	29	0
112	159425	30	0
112	164963	31	0
112	170501	32	0
112	176039	33	0
112	181577	34	0
112	187115	35	0
112	192653	36	0
112	198279	37	0
112	203807	38	0
112	209335	39	0
112	214863	40	0
112	220391	41	0
112	226008	42	0
112	231526	43	0
112	237044	44	0
112	242562	45	0
112	248080	46	0
112	253684	47	0
112	259192	48	0
112	264700	49	0
112	270208	50	0
112	275807	51	0
112	281305	52	0
112	286803	53	0
112	292301	54	0
112	297892	55	0
112	303380	56	0
112	308868	57	0
112	314356	58	0
112	319844	59	0
112	325416	60	0
112	330894	61	0
112	336372	62	0
112	341850	63	0
112	348063	64	0
112	353531	65	0
112	358999	66	0
112	364467	67	0
112	369935	68	0
112	375403	69	0
112	380871	70	0
112	386339	71	0
112	391807	72	0
112	397275	73	0
112	402743	74	0
112	408211	75	0
112	413679	76	0
112	419147	77	0
112	424615	78	0
112	430083	79	0
112	435551	80	0
112	441019	81	0
112	446487	82	0
112	451955	83	0
112	457423	84	0
112	462891	85	0
112	468359	86	0
112	473827	87	0
112	479295	88	0
112	484763	89	0
112	490231	90	0
112	495699	91	0
112	501167	92	0
112	506635	93	0
112	512103	94	0
112	517571	95	0
112	523039	96	0
112	528507	97	0
112	533975	98	0
112	539443	99	0
112	544911	100	0
113	4855	2	7
113	10323	3	7
113	15791	4	7
113	21259	5	7
113	26727	6	7
113	32195	7	7
113	37663	8	7
113	43131	9	7
113	48600	10	7
113	54204	11	7
113	59742	12	7
113	65280	13	7
113	70818	14	7
113	76356	15	7
113	81894	16	7
113	87432	17	7
113	92970	18	7
113	98508	19	7
113	104046	20	7
113	109584	21	7
113	115122	22	7
113	120660	23	7
113	126198	24	7
113	131736	25	7
113	137274	26	7
113	142812	27	7
113	148350	28	7
113	153888	29	7
113	159426	30	7
113	164964	31	7
113	170502	32	7
113	176040	33	7
113	181578	34	7
113	187116	35	7
113	192654	36	7
113	198280	37	7
113	203808	38	7
113	209336	39	7
113	214864	40	7
113	220392	41	7
113	226009	42	7
113	231527	43	7
113	237045	44	7
113	242563	45	7
113	248081	46	7
113	253685	47	7
113	259193	48	7
113	264701	49	7
113	270209	50	7
113	275808	51	7
113	281306	52	7
113	286804	53	7
113	292302	54	7
113	297893	55	7
113	303381	56	7
113	308869	57	7
113	314357	58	7
113	319845	59	7
113	325417	60	7
113	330895	61	7
113	336373	62	7
113	341851	63	7
113	348064	64	7
113	353532	65	7
113	359000	66	7
113	364468	67	7
113	369936	68	7
113	375404	69	7
113	380872	70	7
113	386340	71	7
113	391808	72	7
113	397276	73	7
113	402744	74	7
113	408212	75	7
113	413680	76	7
113	419148	77	7
113	424616	78	7
113	430084	79	7
113	435552	80	7
113	441020	81	7
113	446488	82	7
113	451956	83	7
113	457424	84	7
113	462892	85	7
113	468360	86	7
113	473828	87	7
113	479296	88	7
113	484764	89	7
113	490232	90	7
113	495700	91	7
113	501168	92	7
113	506636	93	7
113	512104	94	7
113	517572	95	7
113	523040	96	7
113	528508	97	7
113	533976	98	7
113	539444	99	7
113	544912	100	7
114	4855	2	0.021651376785
114	10323	3	0.024977796368
114	15791	4	0.024964796353
114	21259	5	0.02497779635
114	26727	6	0.02496479634
114	32195	7	0.02496479634
114	37663	8	0.02497779634
114	43131	9	0.02496479634
114	48600	10	0.02497779634
114	54204	11	0.025009715222
114	59742	12	0.024977781988
114	65280	13	0.024964746282
114	70818	14	0.024964688715
114	76356	15	0.024977612657
114	81894	16	0.024964521845
114	87432	17	0.024977419822
114	92970	18	0.024964309793
114	98508	19	0.024977194629
114	104046	20	0.024964076757
114	109584	21	0.024963958232
114	115122	22	0.02497684075
114	120660	23	0.024963725676
114	126198	24	0.024976614083
114	131736	25	0.024963506765
114	137274	26	0.024976404307
114	142812	27	0.024963307118
114	148350	28	0.024976215426
114	153888	29	0.024963129335
114	159426	30	0.024976048867
114	164964	31	0.024975973933
114	170502	32	0.024962904398
114	176040	33	0.024975840076
114	181578	34	0.024962780742
114	187116	35	0.024975726143
114	192654	36	0.024962676031
114	198280	37	0.025092512042
114	203808	38	0.024962588155
114	209336	39	0.024975549867
114	214864	40	0.024962514983
114	220392	41	0.024975483254
114	226009	42	0.025079335318
114	231527	43	0.024975428299
114	237045	44	0.024962404618
114	242563	45	0.024975383198
114	248081	46	0.024962363844
114	253685	47	0.02509216739
114	259193	48	0.024962330593
114	264701	49	0.024975316388
114	270209	50	0.024962303597
114	275808	51	0.025092053218
114	281306	52	0.024962281755
114	286804	53	0.024975272474
114	292302	54	0.02496226414
114	297893	55	0.02509195787
114	303381	56	0.024962249967
114	308869	57	0.024975243971
114	314357	58	0.024962238598
114	319845	59	0.024975233792
114	325417	60	0.025078870766
114	330895	61	0.024975225664
114	336373	62	0.024962222232
114	341851	63	0.024975219178
114	348064	64	0.025935789445
114	353532	65	0.024961994567
114	359000	66	0.024974522737
114	364468	67	0.024973736543
114	369936	68	0.024959714607
114	375404	69	0.02497156539
114	380872	70	0.024970442682
114	386340	71	0.024969436404
114	391808	72	0.024968618283
114	397276	73	0.024980981956
114	402744	74	0.024967527831
114	408212	75	0.024967206077
114	413680	76	0.024966930541
114	419148	77	0.024966647529
114	424616	78	0.024979342472
114	430084	79	0.024966009109
114	435552	80	0.024965619473
114	441020	81	0.024978148198
114	446488	82	0.024964630676
114	451956	83	0.02497709456
114	457424	84	0.024963547892
114	462892	85	0.02497599346
114	468360	86	0.024962432669
114	473828	87	0.024974866407
114	479296	88	0.024974295361
114	484764	89	0.024960719929
114	490232	90	0.024973140335
114	495700	91	0.024972557403
114	501168	92	0.024971971453
114	506636	93	0.024971382763
114	512104	94	0.024970791596
114	517572	95	0.02497019818
114	523040	96	0.024969602731
114	528508	97	0.024969005439
114	533976	98	0.024968406479
114	539444	99	0.024967806005
114	544912	100	0.024967204161
115	4855	2	0
115	10323	3	0
115	15791	4	0
115	21259	5	0
115	26727	6	0
115	32195	7	0
115	37663	8	0
115	43131	9	0
115	48600	10	0
115	54204	11	0
115	59742	12	0
115	65280	13	0
115	70818	14	0
115	76356	15	0
115	81894	16	0
115	87432	17	0
115	92970	18	0
115	98508	19	0
115	104046	20	0
115	109584	21	0
115	115122	22	0
115	120660	23	0
115	126198	24	0
115	131736	25	0
115	137274	26	0
115	142812	27	0
115	148350	28	0
115	153888	29	0
115	159426	30	0
115	164964	31	0
115	170502	32	0
115	176040	33	0
115	181578	34	0
115	187116	35	0
115	192654	36	0
115	198280	37	0
115	203808	38	0
115	209336	39	0
115	214864	40	0
115	220392	41	0
115	226009	42	0
115	231527	43	0
115	237045	44	0
115	242563	45	0
115	248081	46	0
115	253685	47	0
115	259193	48	0
115	264701	49	0
115	270209	50	0
115	275808	51	0
115	281306	52	0
115	286804	53	0
115	292302	54	0
115	297893	55	0
115	303381	56	0
115	308869	57	0
115	314357	58	0
115	319845	59	0
115	325417	60	0
115	330895	61	0
115	336373	62	0
115	341851	63	0
115	348064	64	0
115	353532	65	0
115	359000	66	0
115	364468	67	0
115	369936	68	0
115	375404	69	0
115	380872	70	0
115	386340	71	0
115	391808	72	0
115	397276	73	0
115	402744	74	0
115	408212	75	0
115	413680	76	0
115	419148	77	0
115	424616	78	0
115	430084	79	0
115	435552	80	0
115	441020	81	0
115	446488	82	0
115	451956	83	0
115	457424	84	0
115	462892	85	0
115	468360	86	0
115	473828	87	0
115	479296	88	0
115	484764	89	0
115	490232	90	0
115	495700	91	0
115	501168	92	0
115	506636	93	0
115	512104	94	0
115	517572	95	0
115	523040	96	0
115	528508	97	0
115	533976	98	0
115	539444	99	0
115	544912	100	0

