version 3
run BreakRanksNoGui-26-20240710-05:55:53-235016
attr configname BreakRanksNoGui
attr datetime 20240710-05:55:53
attr datetimef 20240710-055553
attr experiment BreakRanksNoGui
attr inifile omnetpp.ini
attr iterationvars "$nCars=8, $platoonSize=8, $nLanes=1, $ploegH=0.5, $controller=1, $headway=0.1, $leaderHeadway=1.2, $leaderSpeed=130, $breakRanksSafetyDistance=5, $minSpeed=120, $maxSpeed=140, $beaconInterval=0.1, $priority=4, $packetSize=200, $sController=\"CACC\", $0=2, $1=0"
attr iterationvarsd nCars=8/platoonSize=8/nLanes=1/ploegH=0.5/controller=1/headway=0.1/leaderHeadway=1.2/leaderSpeed=130/breakRanksSafetyDistance=5/minSpeed=120/maxSpeed=140/beaconInterval=0.1/priority=4/packetSize=200/sController=CACC/2/0
attr iterationvarsf nCars=8,platoonSize=8,nLanes=1,ploegH=0.5,controller=1,headway=0.1,leaderHeadway=1.2,leaderSpeed=130,breakRanksSafetyDistance=5,minSpeed=120,maxSpeed=140,beaconInterval=0.1,priority=4,packetSize=200,sController=CACC,2,0-
attr measurement "$nCars=8, $platoonSize=8, $nLanes=1, $ploegH=0.5, $controller=1, $headway=0.1, $leaderHeadway=1.2, $leaderSpeed=130, $breakRanksSafetyDistance=5, $minSpeed=120, $maxSpeed=140, $beaconInterval=0.1, $priority=4, $packetSize=200, $sController=\"CACC\", $0=2, $1=0"
attr network Highway
attr processid 235016
attr repetition 6
attr replication #6
attr resultdir results
attr runnumber 26
attr seedset 6
itervar beaconInterval 0.1
itervar breakRanksSafetyDistance 5
itervar controller 1
itervar headway 0.1
itervar leaderHeadway 1.2
itervar leaderSpeed 130
itervar maxSpeed 140
itervar minSpeed 120
itervar nCars 8
itervar nLanes 1
itervar packetSize 200
itervar platoonSize 8
itervar ploegH 0.5
itervar priority 4
itervar sController "\"CACC\""
config image-path ../../../veins/images
config repeat 10
config extends BreakRanks
config *.manager.command "\"sumo\""
config *.manager.ignoreGuiCommands true
config output-vector-file results/BreakRanks_1_0.1_130_5/result_6.vec
config output-scalar-file results/BreakRanks_1_0.1_130_5/result_6.sca
config extends Platooning
config *.node[*].scenario_type "\"BreakRanksScenario\""
config *.manager.command "\"sumo-gui\""
config *.node[*].scenario_type "\"SimpleScenario\""
config cmdenv-express-mode true
config cmdenv-autoflush true
config cmdenv-status-frequency 15s
config num-rngs 6
config network Highway
config debug-on-errors true
config print-undisposed true
config *.playgroundSizeX 65000m
config *.playgroundSizeY 25000m
config *.playgroundSizeZ 50m
config sim-time-limit "100 s"
config *.annotations.draw false
config *.obstacles.debug false
config *.world.useTorus false
config *.world.use2D false
config *.manager.updateInterval 0.01s
config *.manager.host "\"localhost\""
config *.manager.moduleType "\"org.car2x.plexe.PlatoonCar\""
config *.manager.moduleName "\"node\""
config *.manager.moduleDisplayString "\"\""
config *.manager.autoShutdown true
config *.manager.margin 25
config *.connectionManager.sendDirect true
config *.connectionManager.maxInterfDist 2600m
config *.connectionManager.drawMaxIntfDist false
config *.**.nic.mac1609_4.useServiceChannel false
config *.**.nic.mac1609_4.txPower 100mW
config *.**.nic.mac1609_4.bitrate 6Mbps
config *.**.nic.mac1609_4.useAcks true
config *.**.nic.mac1609_4.ackErrorRate 0.0
config *.**.nic.mac1609_4.frameErrorRate 0.0
config *.**.nic.phy80211p.minPowerLevel -94dBm
config *.**.nic.phy80211p.maxTXPower 100mW
config *.**.nic.phy80211p.useNoiseFloor true
config *.**.nic.phy80211p.noiseFloor -95dBm
config *.**.nic.phy80211p.decider "xmldoc(\"config.xml\")"
config *.**.nic.phy80211p.analogueModels "xmldoc(\"config.xml\")"
config *.**.nic.phy80211p.usePropagationDelay true
config *.node[*].mobility.x 0
config *.node[*].mobility.y 0
config *.node[*].mobility.z 1.895
config seed-set 6
config **.seed 6
config *.node[*].prot.rng-0 2
config *.node[*].appl.rng-0 3
config *.node[*].scenario.rng-0 4
config **.traffic.rng-0 5
config *.manager.configFile "\"./sumocfg/freeway.sumo.cfg\""
config *.manager.launchConfig "xmldoc(\"./sumocfg/freeway.launchd.xml\")"
config **.numberOfCars 8
config **.numberOfCarsPerPlatoon 8
config **.numberOfLanes 1
config *.node[*].helper_type "\"PositionHelper\""
config *.node[*].scenario.caccC1 0.5
config *.node[*].scenario.caccXi 1
config *.node[*].scenario.caccOmegaN "0.2 Hz"
config *.node[*].scenario.caccSpacing "2 m"
config *.node[*].scenario.engineTau "0.5 s"
config *.node[*].scenario.ploegH 0.5s
config *.node[*].scenario.ploegKp 0.2
config *.node[*].scenario.ploegKd 0.7
config *.node[*].scenario.useRealisticEngine false
config *.node[*].scenario.useControllerAcceleration true
config *.node[*].scenario.nLanes 1
config **.numericController 1
config **.headway 0.1s
config *.node[*].scenario.accHeadway 0.1s
config *.node[*].scenario.leaderHeadway 1.2s
config *.node[*].scenario.leaderSpeed 130kmph
config *.node[*].appl_type "\"SimplePlatooningApp\""
config *.node[*].appl.*.scalar-recording true
config *.node[*].appl.*.vector-recording true
config *.node[0].appl.breakRanksSafetyDistance 5m
config *.node[*].appl.minSpeed 120kmph
config *.node[*].appl.maxSpeed 140kmph
config *.node[*].protocol_type "\"SimplePlatooningBeaconing\""
config *.node[*].prot.*.scalar-recording true
config *.node[*].prot.*.vector-recording true
config *.node[*].prot.beaconingInterval 0.1s
config *.node[*].prot.priority 4
config *.node[*].prot.packetSize 200
config **.traffic_type "\"PlatoonsTrafficManager\""
config **.traffic.platoonInsertTime "1 s"
config **.traffic.platoonInsertSpeed 130kmph
config **.traffic.nCars 8
config **.traffic.platoonSize 8
config **.traffic.nLanes 1
config **.traffic.platooningVType "\"vtypeauto\""
config **.traffic.controller "\"CACC\""
config **.traffic.platoonInsertDistance 2m
config **.traffic.platoonInsertHeadway 0s
config **.traffic.platoonLeaderHeadway 1.2s
config **.scalar-recording false
config **.vector-recording false

vector 0 Highway.node[0].appl distance ETV
vector 1 Highway.node[0].appl relativeSpeed ETV
vector 2 Highway.node[0].appl nodeId ETV
vector 3 Highway.node[0].appl acceleration ETV
vector 4 Highway.node[0].appl controllerAcceleration ETV
vector 5 Highway.node[0].appl speed ETV
vector 6 Highway.node[0].appl posx ETV
vector 7 Highway.node[0].appl posy ETV
vector 8 Highway.node[1].appl distance ETV
vector 9 Highway.node[1].appl relativeSpeed ETV
vector 10 Highway.node[1].appl nodeId ETV
vector 11 Highway.node[1].appl acceleration ETV
vector 12 Highway.node[1].appl controllerAcceleration ETV
vector 13 Highway.node[1].appl speed ETV
vector 14 Highway.node[1].appl posx ETV
vector 15 Highway.node[1].appl posy ETV
vector 16 Highway.node[2].appl distance ETV
vector 17 Highway.node[2].appl relativeSpeed ETV
vector 18 Highway.node[2].appl nodeId ETV
vector 19 Highway.node[2].appl acceleration ETV
vector 20 Highway.node[2].appl controllerAcceleration ETV
vector 21 Highway.node[2].appl speed ETV
vector 22 Highway.node[2].appl posx ETV
vector 23 Highway.node[2].appl posy ETV
vector 24 Highway.node[3].appl distance ETV
vector 25 Highway.node[3].appl relativeSpeed ETV
vector 26 Highway.node[3].appl nodeId ETV
vector 27 Highway.node[3].appl acceleration ETV
vector 28 Highway.node[3].appl controllerAcceleration ETV
vector 29 Highway.node[3].appl speed ETV
vector 30 Highway.node[3].appl posx ETV
vector 31 Highway.node[3].appl posy ETV
vector 32 Highway.node[4].appl distance ETV
vector 33 Highway.node[4].appl relativeSpeed ETV
vector 34 Highway.node[4].appl nodeId ETV
vector 35 Highway.node[4].appl acceleration ETV
vector 36 Highway.node[4].appl controllerAcceleration ETV
vector 37 Highway.node[4].appl speed ETV
vector 38 Highway.node[4].appl posx ETV
vector 39 Highway.node[4].appl posy ETV
vector 40 Highway.node[5].appl distance ETV
vector 41 Highway.node[5].appl relativeSpeed ETV
vector 42 Highway.node[5].appl nodeId ETV
vector 43 Highway.node[5].appl acceleration ETV
vector 44 Highway.node[5].appl controllerAcceleration ETV
vector 45 Highway.node[5].appl speed ETV
vector 46 Highway.node[5].appl posx ETV
vector 47 Highway.node[5].appl posy ETV
vector 48 Highway.node[6].appl distance ETV
vector 49 Highway.node[6].appl relativeSpeed ETV
vector 50 Highway.node[6].appl nodeId ETV
vector 51 Highway.node[6].appl acceleration ETV
vector 52 Highway.node[6].appl controllerAcceleration ETV
vector 53 Highway.node[6].appl speed ETV
vector 54 Highway.node[6].appl posx ETV
vector 55 Highway.node[6].appl posy ETV
vector 56 Highway.node[7].appl distance ETV
vector 57 Highway.node[7].appl relativeSpeed ETV
vector 58 Highway.node[7].appl nodeId ETV
vector 59 Highway.node[7].appl acceleration ETV
vector 60 Highway.node[7].appl controllerAcceleration ETV
vector 61 Highway.node[7].appl speed ETV
vector 62 Highway.node[7].appl posx ETV
vector 63 Highway.node[7].appl posy ETV
vector 64 Highway.node[1].prot leaderDelay ETV
vector 65 Highway.node[1].prot leaderDelayId ETV
vector 66 Highway.node[1].prot frontDelay ETV
vector 67 Highway.node[1].prot frontDelayId ETV
vector 68 Highway.node[2].prot leaderDelay ETV
vector 69 Highway.node[2].prot leaderDelayId ETV
vector 70 Highway.node[3].prot leaderDelay ETV
vector 71 Highway.node[3].prot leaderDelayId ETV
vector 72 Highway.node[4].prot leaderDelay ETV
vector 73 Highway.node[4].prot leaderDelayId ETV
vector 74 Highway.node[5].prot leaderDelay ETV
vector 75 Highway.node[5].prot leaderDelayId ETV
vector 76 Highway.node[6].prot leaderDelay ETV
vector 77 Highway.node[6].prot leaderDelayId ETV
vector 78 Highway.node[7].prot leaderDelay ETV
vector 79 Highway.node[7].prot leaderDelayId ETV
vector 80 Highway.node[7].prot frontDelay ETV
vector 81 Highway.node[7].prot frontDelayId ETV
vector 82 Highway.node[3].prot frontDelay ETV
vector 83 Highway.node[3].prot frontDelayId ETV
vector 84 Highway.node[6].prot frontDelay ETV
vector 85 Highway.node[6].prot frontDelayId ETV
vector 86 Highway.node[2].prot frontDelay ETV
vector 87 Highway.node[2].prot frontDelayId ETV
vector 88 Highway.node[4].prot frontDelay ETV
vector 89 Highway.node[4].prot frontDelayId ETV
vector 90 Highway.node[5].prot frontDelay ETV
vector 91 Highway.node[5].prot frontDelayId ETV
vector 92 Highway.node[0].prot nodeId ETV
vector 93 Highway.node[0].prot busyTime ETV
vector 94 Highway.node[0].prot collisions ETV
vector 95 Highway.node[1].prot nodeId ETV
vector 96 Highway.node[1].prot busyTime ETV
vector 97 Highway.node[1].prot collisions ETV
vector 98 Highway.node[2].prot nodeId ETV
vector 99 Highway.node[2].prot busyTime ETV
vector 100 Highway.node[2].prot collisions ETV
vector 101 Highway.node[3].prot nodeId ETV
vector 102 Highway.node[3].prot busyTime ETV
vector 103 Highway.node[3].prot collisions ETV
vector 104 Highway.node[4].prot nodeId ETV
vector 105 Highway.node[4].prot busyTime ETV
vector 106 Highway.node[4].prot collisions ETV
vector 107 Highway.node[5].prot nodeId ETV
vector 108 Highway.node[5].prot busyTime ETV
vector 109 Highway.node[5].prot collisions ETV
vector 110 Highway.node[6].prot nodeId ETV
vector 111 Highway.node[6].prot busyTime ETV
vector 112 Highway.node[6].prot collisions ETV
vector 113 Highway.node[7].prot nodeId ETV
vector 114 Highway.node[7].prot busyTime ETV
vector 115 Highway.node[7].prot collisions ETV
0	113	1.11	-1
0	659	1.21	-1
0	1205	1.31	-1
0	1751	1.41	-1
0	2297	1.51	-1
0	2843	1.61	-1
0	3389	1.71	-1
0	3935	1.81	-1
0	4481	1.91	-1
0	5035	2.01	-1
0	5581	2.11	-1
0	6127	2.21	-1
0	6673	2.31	-1
0	7219	2.41	-1
0	7765	2.51	-1
0	8311	2.61	-1
0	8857	2.71	-1
0	9403	2.81	-1
0	9949	2.91	-1
0	10503	3.01	-1
0	11049	3.11	-1
0	11595	3.21	-1
0	12141	3.31	-1
0	12687	3.41	-1
0	13233	3.51	-1
0	13779	3.61	-1
0	14325	3.71	-1
0	14871	3.81	-1
0	15417	3.91	-1
0	15971	4.01	-1
0	16517	4.11	-1
0	17063	4.21	-1
0	17609	4.31	-1
0	18155	4.41	-1
0	18701	4.51	-1
0	19247	4.61	-1
0	19793	4.71	-1
0	20339	4.81	-1
0	20885	4.91	-1
0	21439	5.01	-1
0	21985	5.11	-1
0	22531	5.21	-1
0	23077	5.31	-1
0	23623	5.41	-1
0	24169	5.51	-1
0	24715	5.61	-1
0	25261	5.71	-1
0	25807	5.81	-1
0	26353	5.91	-1
0	26907	6.01	-1
0	27453	6.11	-1
0	27999	6.21	-1
0	28545	6.31	-1
0	29091	6.41	-1
0	29637	6.51	-1
0	30183	6.61	-1
0	30729	6.71	-1
0	31275	6.81	-1
0	31821	6.91	-1
0	32375	7.01	-1
0	32921	7.11	-1
0	33467	7.21	-1
0	34013	7.31	-1
0	34559	7.41	-1
0	35105	7.51	-1
0	35651	7.61	-1
0	36197	7.71	-1
0	36743	7.81	-1
0	37289	7.91	-1
0	37843	8.01	-1
0	38389	8.11	-1
0	38935	8.21	-1
0	39481	8.31	-1
0	40027	8.41	-1
0	40573	8.51	-1
0	41119	8.61	-1
0	41665	8.71	-1
0	42211	8.81	-1
0	42757	8.91	-1
0	43311	9.01	-1
0	43857	9.11	-1
0	44403	9.21	-1
0	44949	9.31	-1
0	45495	9.41	-1
0	46041	9.51	-1
0	46587	9.61	-1
0	47133	9.71	-1
0	47679	9.81	-1
0	48225	9.91	-1
0	48853	10.01	-1
0	49406	10.11	-1
0	49959	10.21	-1
0	50512	10.31	-1
0	51065	10.41	-1
0	51618	10.51	-1
0	52171	10.61	-1
0	52724	10.71	-1
0	53277	10.81	-1
0	53830	10.91	-1
0	54391	11.01	-1
0	54944	11.11	-1
0	55497	11.21	-1
0	56050	11.31	-1
0	56603	11.41	-1
0	57156	11.51	-1
0	57709	11.61	-1
0	58262	11.71	-1
0	58815	11.81	-1
0	59368	11.91	-1
0	59929	12.01	-1
0	60482	12.11	-1
0	61035	12.21	-1
0	61588	12.31	-1
0	62141	12.41	-1
0	62694	12.51	-1
0	63247	12.61	-1
0	63800	12.71	-1
0	64353	12.81	-1
0	64906	12.91	-1
0	65467	13.01	-1
0	66020	13.11	-1
0	66573	13.21	-1
0	67126	13.31	-1
0	67679	13.41	-1
0	68232	13.51	-1
0	68785	13.61	-1
0	69338	13.71	-1
0	69891	13.81	-1
0	70444	13.91	-1
0	71005	14.01	-1
0	71558	14.11	-1
0	72111	14.21	-1
0	72664	14.31	-1
0	73217	14.41	-1
0	73770	14.51	-1
0	74323	14.61	-1
0	74876	14.71	-1
0	75429	14.81	-1
0	75982	14.91	-1
0	76543	15.01	-1
0	77096	15.11	-1
0	77649	15.21	-1
0	78202	15.31	-1
0	78755	15.41	-1
0	79308	15.51	-1
0	79861	15.61	-1
0	80414	15.71	-1
0	80967	15.81	-1
0	81520	15.91	-1
0	82081	16.01	-1
0	82634	16.11	-1
0	83187	16.21	-1
0	83740	16.31	-1
0	84293	16.41	-1
0	84846	16.51	-1
0	85399	16.61	-1
0	85952	16.71	-1
0	86505	16.81	-1
0	87058	16.91	-1
0	87619	17.01	-1
0	88172	17.11	-1
0	88725	17.21	-1
0	89278	17.31	-1
0	89831	17.41	-1
0	90384	17.51	-1
0	90937	17.61	-1
0	91490	17.71	-1
0	92043	17.81	-1
0	92596	17.91	-1
0	93157	18.01	-1
0	93710	18.11	-1
0	94263	18.21	-1
0	94816	18.31	-1
0	95369	18.41	-1
0	95922	18.51	-1
0	96475	18.61	-1
0	97028	18.71	-1
0	97581	18.81	-1
0	98134	18.91	-1
0	98695	19.01	-1
0	99248	19.11	-1
0	99801	19.21	-1
0	100354	19.31	-1
0	100907	19.41	-1
0	101460	19.51	-1
0	102013	19.61	-1
0	102566	19.71	-1
0	103119	19.81	-1
0	103672	19.91	-1
0	104233	20.01	-1
0	104786	20.11	-1
0	105339	20.21	-1
0	105892	20.31	-1
0	106445	20.41	-1
0	106998	20.51	-1
0	107551	20.61	-1
0	108104	20.71	-1
0	108657	20.81	-1
0	109210	20.91	-1
0	109771	21.01	-1
0	110324	21.11	-1
0	110877	21.21	-1
0	111430	21.31	-1
0	111983	21.41	-1
0	112536	21.51	-1
0	113089	21.61	-1
0	113642	21.71	-1
0	114195	21.81	-1
0	114748	21.91	-1
0	115309	22.01	-1
0	115862	22.11	-1
0	116415	22.21	-1
0	116968	22.31	-1
0	117521	22.41	-1
0	118074	22.51	-1
0	118627	22.61	-1
0	119180	22.71	-1
0	119733	22.81	-1
0	120286	22.91	-1
0	120847	23.01	-1
0	121400	23.11	-1
0	121953	23.21	-1
0	122506	23.31	-1
0	123059	23.41	-1
0	123612	23.51	-1
0	124165	23.61	-1
0	124718	23.71	-1
0	125271	23.81	-1
0	125824	23.91	-1
0	126385	24.01	-1
0	126938	24.11	-1
0	127491	24.21	-1
0	128044	24.31	-1
0	128597	24.41	-1
0	129150	24.51	-1
0	129703	24.61	-1
0	130256	24.71	-1
0	130809	24.81	-1
0	131362	24.91	-1
0	131923	25.01	-1
0	132476	25.11	-1
0	133029	25.21	-1
0	133582	25.31	-1
0	134135	25.41	-1
0	134688	25.51	-1
0	135241	25.61	-1
0	135794	25.71	-1
0	136347	25.81	-1
0	136900	25.91	-1
0	137461	26.01	-1
0	138014	26.11	-1
0	138567	26.21	-1
0	139120	26.31	-1
0	139673	26.41	-1
0	140226	26.51	-1
0	140779	26.61	-1
0	141332	26.71	-1
0	141885	26.81	-1
0	142438	26.91	-1
0	142999	27.01	-1
0	143552	27.11	-1
0	144105	27.21	-1
0	144658	27.31	-1
0	145211	27.41	-1
0	145764	27.51	-1
0	146317	27.61	-1
0	146870	27.71	-1
0	147423	27.81	-1
0	147976	27.91	-1
0	148537	28.01	-1
0	149090	28.11	-1
0	149643	28.21	-1
0	150196	28.31	-1
0	150749	28.41	-1
0	151302	28.51	-1
0	151855	28.61	-1
0	152408	28.71	-1
0	152961	28.81	-1
0	153514	28.91	-1
0	154075	29.01	-1
0	154628	29.11	-1
0	155181	29.21	-1
0	155734	29.31	-1
0	156287	29.41	-1
0	156840	29.51	-1
0	157393	29.61	-1
0	157946	29.71	-1
0	158499	29.81	-1
0	159052	29.91	-1
0	159613	30.01	-1
0	160166	30.11	-1
0	160719	30.21	-1
0	161272	30.31	-1
0	161825	30.41	-1
0	162378	30.51	-1
0	162931	30.61	-1
0	163484	30.71	-1
0	164037	30.81	-1
0	164590	30.91	-1
0	165151	31.01	-1
0	165704	31.11	-1
0	166257	31.21	-1
0	166810	31.31	-1
0	167363	31.41	-1
0	167916	31.51	-1
0	168469	31.61	-1
0	169022	31.71	-1
0	169575	31.81	-1
0	170128	31.91	-1
0	170689	32.01	-1
0	171242	32.11	-1
0	171795	32.21	-1
0	172348	32.31	-1
0	172901	32.41	-1
0	173454	32.51	-1
0	174007	32.61	-1
0	174560	32.71	-1
0	175113	32.81	-1
0	175666	32.91	-1
0	176227	33.01	-1
0	176780	33.11	-1
0	177333	33.21	-1
0	177886	33.31	-1
0	178439	33.41	-1
0	178992	33.51	-1
0	179545	33.61	-1
0	180098	33.71	-1
0	180651	33.81	-1
0	181204	33.91	-1
0	181765	34.01	-1
0	182318	34.11	-1
0	182871	34.21	-1
0	183424	34.31	-1
0	183977	34.41	-1
0	184530	34.51	-1
0	185083	34.61	-1
0	185636	34.71	-1
0	186189	34.81	-1
0	186742	34.91	-1
0	187303	35.01	-1
0	187856	35.11	-1
0	188409	35.21	-1
0	188962	35.31	-1
0	189515	35.41	-1
0	190068	35.51	-1
0	190621	35.61	-1
0	191174	35.71	-1
0	191727	35.81	-1
0	192280	35.91	-1
0	192841	36.01	-1
0	193394	36.11	-1
0	193947	36.21	-1
0	194500	36.31	-1
0	195146	36.41	-1
0	195698	36.51	-1
0	196250	36.61	-1
0	196802	36.71	-1
0	197354	36.81	-1
0	197906	36.91	-1
0	198466	37.01	-1
0	199018	37.11	-1
0	199570	37.21	-1
0	200122	37.31	-1
0	200674	37.41	-1
0	201226	37.51	-1
0	201778	37.61	-1
0	202330	37.71	-1
0	202882	37.81	-1
0	203434	37.91	-1
0	203994	38.01	-1
0	204546	38.11	-1
0	205098	38.21	-1
0	205650	38.31	-1
0	206202	38.41	-1
0	206754	38.51	-1
0	207306	38.61	-1
0	207858	38.71	-1
0	208410	38.81	-1
0	208962	38.91	-1
0	209522	39.01	-1
0	210074	39.11	-1
0	210626	39.21	-1
0	211178	39.31	-1
0	211730	39.41	-1
0	212282	39.51	-1
0	212834	39.61	-1
0	213386	39.71	-1
0	213938	39.81	-1
0	214490	39.91	-1
0	215050	40.01	-1
0	215602	40.11	-1
0	216154	40.21	-1
0	216706	40.31	-1
0	217258	40.41	-1
0	217810	40.51	-1
0	218362	40.61	-1
0	218914	40.71	-1
0	219466	40.81	-1
0	220018	40.91	-1
0	220578	41.01	-1
0	221130	41.11	-1
0	221682	41.21	-1
0	222234	41.31	-1
0	222786	41.41	-1
0	223431	41.51	-1
0	223982	41.61	-1
0	224533	41.71	-1
0	225084	41.81	-1
0	225635	41.91	-1
0	226194	42.01	-1
0	226745	42.11	-1
0	227296	42.21	-1
0	227847	42.31	-1
0	228398	42.41	-1
0	228949	42.51	-1
0	229500	42.61	-1
0	230051	42.71	-1
0	230602	42.81	-1
0	231153	42.91	-1
0	231712	43.01	-1
0	232263	43.11	-1
0	232814	43.21	-1
0	233365	43.31	-1
0	233916	43.41	-1
0	234467	43.51	-1
0	235018	43.61	-1
0	235569	43.71	-1
0	236120	43.81	-1
0	236671	43.91	-1
0	237230	44.01	-1
0	237781	44.11	-1
0	238332	44.21	-1
0	238883	44.31	-1
0	239434	44.41	-1
0	239985	44.51	-1
0	240536	44.61	-1
0	241087	44.71	-1
0	241638	44.81	-1
0	242189	44.91	-1
0	242748	45.01	-1
0	243299	45.11	-1
0	243850	45.21	-1
0	244401	45.31	-1
0	244952	45.41	-1
0	245503	45.51	-1
0	246054	45.61	-1
0	246605	45.71	-1
0	247156	45.81	-1
0	247707	45.91	-1
0	248266	46.01	-1
0	248817	46.11	-1
0	249461	46.21	-1
0	250011	46.31	-1
0	250561	46.41	-1
0	251111	46.51	-1
0	251661	46.61	-1
0	252211	46.71	-1
0	252761	46.81	-1
0	253311	46.91	-1
0	253869	47.01	-1
0	254419	47.11	-1
0	254969	47.21	-1
0	255519	47.31	-1
0	256069	47.41	-1
0	256619	47.51	-1
0	257169	47.61	-1
0	257719	47.71	-1
0	258269	47.81	-1
0	258819	47.91	-1
0	259377	48.01	-1
0	259927	48.11	-1
0	260477	48.21	-1
0	261027	48.31	-1
0	261577	48.41	-1
0	262127	48.51	-1
0	262677	48.61	-1
0	263227	48.71	-1
0	263777	48.81	-1
0	264327	48.91	-1
0	264885	49.01	-1
0	265435	49.11	-1
0	265985	49.21	-1
0	266535	49.31	-1
0	267085	49.41	-1
0	267635	49.51	-1
0	268185	49.61	-1
0	268735	49.71	-1
0	269285	49.81	-1
0	269835	49.91	-1
0	270393	50.01	-1
0	270943	50.11	-1
0	271493	50.21	-1
0	272043	50.31	-1
0	272593	50.41	-1
0	273143	50.51	-1
0	273693	50.61	-1
0	274336	50.71	-1
0	274885	50.81	-1
0	275434	50.91	-1
0	275991	51.01	-1
0	276540	51.11	-1
0	277089	51.21	-1
0	277638	51.31	-1
0	278187	51.41	-1
0	278736	51.51	-1
0	279285	51.61	-1
0	279834	51.71	-1
0	280383	51.81	-1
0	280932	51.91	-1
0	281489	52.01	-1
0	282038	52.11	-1
0	282587	52.21	-1
0	283136	52.31	-1
0	283685	52.41	-1
0	284234	52.51	-1
0	284783	52.61	-1
0	285332	52.71	-1
0	285881	52.81	-1
0	286430	52.91	-1
0	286987	53.01	-1
0	287536	53.11	-1
0	288085	53.21	-1
0	288634	53.31	-1
0	289183	53.41	-1
0	289732	53.51	-1
0	290281	53.61	-1
0	290830	53.71	-1
0	291379	53.81	-1
0	291928	53.91	-1
0	292485	54.01	-1
0	293034	54.11	-1
0	293583	54.21	-1
0	294132	54.31	-1
0	294681	54.41	-1
0	295230	54.51	-1
0	295779	54.61	-1
0	296328	54.71	-1
0	296877	54.81	-1
0	297519	54.91	-1
0	298075	55.01	-1
0	298623	55.11	-1
0	299171	55.21	-1
0	299719	55.31	-1
0	300267	55.41	-1
0	300815	55.51	-1
0	301363	55.61	-1
0	301911	55.71	-1
0	302459	55.81	-1
0	303007	55.91	-1
0	303563	56.01	-1
0	304111	56.11	-1
0	304659	56.21	-1
0	305207	56.31	-1
0	305755	56.41	-1
0	306303	56.51	-1
0	306851	56.61	-1
0	307399	56.71	-1
0	307947	56.81	-1
0	308495	56.91	-1
0	309051	57.01	-1
0	309599	57.11	-1
0	310147	57.21	-1
0	310695	57.31	-1
0	311243	57.41	-1
0	311791	57.51	-1
0	312339	57.61	-1
0	312887	57.71	-1
0	313435	57.81	-1
0	313983	57.91	-1
0	314539	58.01	-1
0	315087	58.11	-1
0	315635	58.21	-1
0	316183	58.31	-1
0	316731	58.41	-1
0	317279	58.51	-1
0	317827	58.61	-1
0	318375	58.71	-1
0	318923	58.81	-1
0	319471	58.91	-1
0	320120	59.01	-1
0	320667	59.11	-1
0	321214	59.21	-1
0	321761	59.31	-1
0	322308	59.41	-1
0	322855	59.51	-1
0	323402	59.61	-1
0	323949	59.71	-1
0	324496	59.81	-1
0	325043	59.91	-1
0	325598	60.01	-1
0	326145	60.11	-1
0	326692	60.21	-1
0	327239	60.31	-1
0	327786	60.41	-1
0	328333	60.51	-1
0	328880	60.61	-1
0	329427	60.71	-1
0	329974	60.81	-1
0	330521	60.91	-1
0	331076	61.01	-1
0	331623	61.11	-1
0	332170	61.21	-1
0	332717	61.31	-1
0	333264	61.41	-1
0	333811	61.51	-1
0	334358	61.61	-1
0	334905	61.71	-1
0	335452	61.81	-1
0	335999	61.91	-1
0	336554	62.01	-1
0	337101	62.11	-1
0	337648	62.21	-1
0	338195	62.31	-1
0	338742	62.41	-1
0	339289	62.51	-1
0	339836	62.61	-1
0	340383	62.71	-1
0	340930	62.81	-1
0	341477	62.91	-1
0	342802	63.01	-1
0	343348	63.11	-1
0	343894	63.21	-1
0	344440	63.31	-1
0	344986	63.41	-1
0	345532	63.51	-1
0	346078	63.61	-1
0	346624	63.71	-1
0	347170	63.81	-1
0	347716	63.91	-1
0	348270	64.01	-1
0	348816	64.11	-1
0	349362	64.21	-1
0	349908	64.31	-1
0	350454	64.41	-1
0	351000	64.51	-1
0	351546	64.61	-1
0	352092	64.71	-1
0	352638	64.81	-1
0	353184	64.91	-1
0	353738	65.01	-1
0	354284	65.11	-1
0	354830	65.21	-1
0	355376	65.31	-1
0	355922	65.41	-1
0	356468	65.51	-1
0	357014	65.61	-1
0	357560	65.71	-1
0	358106	65.81	-1
0	358652	65.91	-1
0	359206	66.01	-1
0	359752	66.11	-1
0	360298	66.21	-1
0	360844	66.31	-1
0	361390	66.41	-1
0	361936	66.51	-1
0	362482	66.61	-1
0	363028	66.71	-1
0	363574	66.81	-1
0	364120	66.91	-1
0	364674	67.01	-1
0	365220	67.11	-1
0	365766	67.21	-1
0	366312	67.31	-1
0	366858	67.41	-1
0	367404	67.51	-1
0	367950	67.61	-1
0	368496	67.71	-1
0	369042	67.81	-1
0	369588	67.91	-1
0	370142	68.01	-1
0	370688	68.11	-1
0	371234	68.21	-1
0	371780	68.31	-1
0	372326	68.41	-1
0	372872	68.51	-1
0	373418	68.61	-1
0	373964	68.71	-1
0	374510	68.81	-1
0	375056	68.91	-1
0	375610	69.01	-1
0	376156	69.11	-1
0	376702	69.21	-1
0	377248	69.31	-1
0	377794	69.41	-1
0	378340	69.51	-1
0	378886	69.61	-1
0	379432	69.71	-1
0	379978	69.81	-1
0	380524	69.91	-1
0	381078	70.01	-1
0	381624	70.11	-1
0	382170	70.21	-1
0	382716	70.31	-1
0	383262	70.41	-1
0	383808	70.51	-1
0	384354	70.61	-1
0	384900	70.71	-1
0	385446	70.81	-1
0	385992	70.91	-1
0	386546	71.01	-1
0	387092	71.11	-1
0	387638	71.21	-1
0	388184	71.31	-1
0	388730	71.41	-1
0	389276	71.51	-1
0	389822	71.61	-1
0	390368	71.71	-1
0	390914	71.81	-1
0	391460	71.91	-1
0	392014	72.01	-1
0	392560	72.11	-1
0	393106	72.21	-1
0	393652	72.31	-1
0	394198	72.41	-1
0	394744	72.51	-1
0	395290	72.61	-1
0	395836	72.71	-1
0	396382	72.81	-1
0	396928	72.91	-1
0	397482	73.01	-1
0	398028	73.11	-1
0	398574	73.21	-1
0	399120	73.31	-1
0	399666	73.41	-1
0	400212	73.51	-1
0	400758	73.61	-1
0	401304	73.71	-1
0	401850	73.81	-1
0	402396	73.91	-1
0	402950	74.01	-1
0	403496	74.11	-1
0	404042	74.21	-1
0	404588	74.31	-1
0	405134	74.41	-1
0	405680	74.51	-1
0	406226	74.61	-1
0	406772	74.71	-1
0	407318	74.81	-1
0	407864	74.91	-1
0	408418	75.01	-1
0	408964	75.11	-1
0	409510	75.21	-1
0	410056	75.31	-1
0	410602	75.41	-1
0	411148	75.51	-1
0	411694	75.61	-1
0	412240	75.71	-1
0	412786	75.81	-1
0	413332	75.91	-1
0	413886	76.01	-1
0	414432	76.11	-1
0	414978	76.21	-1
0	415524	76.31	-1
0	416070	76.41	-1
0	416616	76.51	-1
0	417162	76.61	-1
0	417708	76.71	-1
0	418254	76.81	-1
0	418800	76.91	-1
0	419354	77.01	-1
0	419900	77.11	-1
0	420446	77.21	-1
0	420992	77.31	-1
0	421538	77.41	-1
0	422084	77.51	-1
0	422630	77.61	-1
0	423176	77.71	-1
0	423722	77.81	-1
0	424268	77.91	-1
0	424822	78.01	-1
0	425368	78.11	-1
0	425914	78.21	-1
0	426460	78.31	-1
0	427006	78.41	-1
0	427552	78.51	-1
0	428098	78.61	-1
0	428644	78.71	-1
0	429190	78.81	-1
0	429736	78.91	-1
0	430290	79.01	-1
0	430836	79.11	-1
0	431382	79.21	-1
0	431928	79.31	-1
0	432474	79.41	-1
0	433020	79.51	-1
0	433566	79.61	-1
0	434112	79.71	-1
0	434658	79.81	-1
0	435204	79.91	-1
0	435758	80.01	-1
0	436304	80.11	-1
0	436850	80.21	-1
0	437396	80.31	-1
0	437942	80.41	-1
0	438488	80.51	-1
0	439034	80.61	-1
0	439580	80.71	-1
0	440126	80.81	-1
0	440672	80.91	-1
0	441226	81.01	-1
0	441772	81.11	-1
0	442318	81.21	-1
0	442864	81.31	-1
0	443410	81.41	-1
0	443956	81.51	-1
0	444502	81.61	-1
0	445048	81.71	-1
0	445594	81.81	-1
0	446140	81.91	-1
0	446694	82.01	-1
0	447240	82.11	-1
0	447786	82.21	-1
0	448332	82.31	-1
0	448878	82.41	-1
0	449424	82.51	-1
0	449970	82.61	-1
0	450516	82.71	-1
0	451062	82.81	-1
0	451608	82.91	-1
0	452162	83.01	-1
0	452708	83.11	-1
0	453254	83.21	-1
0	453800	83.31	-1
0	454346	83.41	-1
0	454892	83.51	-1
0	455438	83.61	-1
0	455984	83.71	-1
0	456530	83.81	-1
0	457076	83.91	-1
0	457630	84.01	-1
0	458176	84.11	-1
0	458722	84.21	-1
0	459268	84.31	-1
0	459814	84.41	-1
0	460360	84.51	-1
0	460906	84.61	-1
0	461452	84.71	-1
0	461998	84.81	-1
0	462544	84.91	-1
0	463098	85.01	-1
0	463644	85.11	-1
0	464190	85.21	-1
0	464736	85.31	-1
0	465282	85.41	-1
0	465828	85.51	-1
0	466374	85.61	-1
0	466920	85.71	-1
0	467466	85.81	-1
0	468012	85.91	-1
0	468566	86.01	-1
0	469112	86.11	-1
0	469658	86.21	-1
0	470204	86.31	-1
0	470750	86.41	-1
0	471296	86.51	-1
0	471842	86.61	-1
0	472388	86.71	-1
0	472934	86.81	-1
0	473480	86.91	-1
0	474034	87.01	-1
0	474580	87.11	-1
0	475126	87.21	-1
0	475672	87.31	-1
0	476218	87.41	-1
0	476764	87.51	-1
0	477310	87.61	-1
0	477856	87.71	-1
0	478402	87.81	-1
0	478948	87.91	-1
0	479502	88.01	-1
0	480048	88.11	-1
0	480594	88.21	-1
0	481140	88.31	-1
0	481686	88.41	-1
0	482232	88.51	-1
0	482778	88.61	-1
0	483324	88.71	-1
0	483870	88.81	-1
0	484416	88.91	-1
0	484970	89.01	-1
0	485516	89.11	-1
0	486062	89.21	-1
0	486608	89.31	-1
0	487154	89.41	-1
0	487700	89.51	-1
0	488246	89.61	-1
0	488792	89.71	-1
0	489338	89.81	-1
0	489884	89.91	-1
0	490438	90.01	-1
0	490984	90.11	-1
0	491530	90.21	-1
0	492076	90.31	-1
0	492622	90.41	-1
0	493168	90.51	-1
0	493714	90.61	-1
0	494260	90.71	-1
0	494806	90.81	-1
0	495352	90.91	-1
0	495906	91.01	-1
0	496452	91.11	-1
0	496998	91.21	-1
0	497544	91.31	-1
0	498090	91.41	-1
0	498636	91.51	-1
0	499182	91.61	-1
0	499728	91.71	-1
0	500274	91.81	-1
0	500820	91.91	-1
0	501374	92.01	-1
0	501920	92.11	-1
0	502466	92.21	-1
0	503012	92.31	-1
0	503558	92.41	-1
0	504104	92.51	-1
0	504650	92.61	-1
0	505196	92.71	-1
0	505742	92.81	-1
0	506288	92.91	-1
0	506842	93.01	-1
0	507388	93.11	-1
0	507934	93.21	-1
0	508480	93.31	-1
0	509026	93.41	-1
0	509572	93.51	-1
0	510118	93.61	-1
0	510664	93.71	-1
0	511210	93.81	-1
0	511756	93.91	-1
0	512310	94.01	-1
0	512856	94.11	-1
0	513402	94.21	-1
0	513948	94.31	-1
0	514494	94.41	-1
0	515040	94.51	-1
0	515586	94.61	-1
0	516132	94.71	-1
0	516678	94.81	-1
0	517224	94.91	-1
0	517778	95.01	-1
0	518324	95.11	-1
0	518870	95.21	-1
0	519416	95.31	-1
0	519962	95.41	-1
0	520508	95.51	-1
0	521054	95.61	-1
0	521600	95.71	-1
0	522146	95.81	-1
0	522692	95.91	-1
0	523246	96.01	-1
0	523792	96.11	-1
0	524338	96.21	-1
0	524884	96.31	-1
0	525430	96.41	-1
0	525976	96.51	-1
0	526522	96.61	-1
0	527068	96.71	-1
0	527614	96.81	-1
0	528160	96.91	-1
0	528714	97.01	-1
0	529260	97.11	-1
0	529806	97.21	-1
0	530352	97.31	-1
0	530898	97.41	-1
0	531444	97.51	-1
0	531990	97.61	-1
0	532536	97.71	-1
0	533082	97.81	-1
0	533628	97.91	-1
0	534182	98.01	-1
0	534728	98.11	-1
0	535274	98.21	-1
0	535820	98.31	-1
0	536366	98.41	-1
0	536912	98.51	-1
0	537458	98.61	-1
0	538004	98.71	-1
0	538550	98.81	-1
0	539096	98.91	-1
0	539650	99.01	-1
0	540196	99.11	-1
0	540742	99.21	-1
0	541288	99.31	-1
0	541834	99.41	-1
0	542380	99.51	-1
0	542926	99.61	-1
0	543472	99.71	-1
0	544018	99.81	-1
0	544564	99.91	-1
1	113	1.11	0
1	659	1.21	0
1	1205	1.31	0
1	1751	1.41	0
1	2297	1.51	0
1	2843	1.61	0
1	3389	1.71	0
1	3935	1.81	0
1	4481	1.91	0
1	5035	2.01	0
1	5581	2.11	0
1	6127	2.21	0
1	6673	2.31	0
1	7219	2.41	0
1	7765	2.51	0
1	8311	2.61	0
1	8857	2.71	0
1	9403	2.81	0
1	9949	2.91	0
1	10503	3.01	0
1	11049	3.11	0
1	11595	3.21	0
1	12141	3.31	0
1	12687	3.41	0
1	13233	3.51	0
1	13779	3.61	0
1	14325	3.71	0
1	14871	3.81	0
1	15417	3.91	0
1	15971	4.01	0
1	16517	4.11	0
1	17063	4.21	0
1	17609	4.31	0
1	18155	4.41	0
1	18701	4.51	0
1	19247	4.61	0
1	19793	4.71	0
1	20339	4.81	0
1	20885	4.91	0
1	21439	5.01	0
1	21985	5.11	0
1	22531	5.21	0
1	23077	5.31	0
1	23623	5.41	0
1	24169	5.51	0
1	24715	5.61	0
1	25261	5.71	0
1	25807	5.81	0
1	26353	5.91	0
1	26907	6.01	0
1	27453	6.11	0
1	27999	6.21	0
1	28545	6.31	0
1	29091	6.41	0
1	29637	6.51	0
1	30183	6.61	0
1	30729	6.71	0
1	31275	6.81	0
1	31821	6.91	0
1	32375	7.01	0
1	32921	7.11	0
1	33467	7.21	0
1	34013	7.31	0
1	34559	7.41	0
1	35105	7.51	0
1	35651	7.61	0
1	36197	7.71	0
1	36743	7.81	0
1	37289	7.91	0
1	37843	8.01	0
1	38389	8.11	0
1	38935	8.21	0
1	39481	8.31	0
1	40027	8.41	0
1	40573	8.51	0
1	41119	8.61	0
1	41665	8.71	0
1	42211	8.81	0
1	42757	8.91	0
1	43311	9.01	0
1	43857	9.11	0
1	44403	9.21	0
1	44949	9.31	0
1	45495	9.41	0
1	46041	9.51	0
1	46587	9.61	0
1	47133	9.71	0
1	47679	9.81	0
1	48225	9.91	0
1	48853	10.01	0
1	49406	10.11	0
1	49959	10.21	0
1	50512	10.31	0
1	51065	10.41	0
1	51618	10.51	0
1	52171	10.61	0
1	52724	10.71	0
1	53277	10.81	0
1	53830	10.91	0
1	54391	11.01	0
1	54944	11.11	0
1	55497	11.21	0
1	56050	11.31	0
1	56603	11.41	0
1	57156	11.51	0
1	57709	11.61	0
1	58262	11.71	0
1	58815	11.81	0
1	59368	11.91	0
1	59929	12.01	0
1	60482	12.11	0
1	61035	12.21	0
1	61588	12.31	0
1	62141	12.41	0
1	62694	12.51	0
1	63247	12.61	0
1	63800	12.71	0
1	64353	12.81	0
1	64906	12.91	0
1	65467	13.01	0
1	66020	13.11	0
1	66573	13.21	0
1	67126	13.31	0
1	67679	13.41	0
1	68232	13.51	0
1	68785	13.61	0
1	69338	13.71	0
1	69891	13.81	0
1	70444	13.91	0
1	71005	14.01	0
1	71558	14.11	0
1	72111	14.21	0
1	72664	14.31	0
1	73217	14.41	0
1	73770	14.51	0
1	74323	14.61	0
1	74876	14.71	0
1	75429	14.81	0
1	75982	14.91	0
1	76543	15.01	0
1	77096	15.11	0
1	77649	15.21	0
1	78202	15.31	0
1	78755	15.41	0
1	79308	15.51	0
1	79861	15.61	0
1	80414	15.71	0
1	80967	15.81	0
1	81520	15.91	0
1	82081	16.01	0
1	82634	16.11	0
1	83187	16.21	0
1	83740	16.31	0
1	84293	16.41	0
1	84846	16.51	0
1	85399	16.61	0
1	85952	16.71	0
1	86505	16.81	0
1	87058	16.91	0
1	87619	17.01	0
1	88172	17.11	0
1	88725	17.21	0
1	89278	17.31	0
1	89831	17.41	0
1	90384	17.51	0
1	90937	17.61	0
1	91490	17.71	0
1	92043	17.81	0
1	92596	17.91	0
1	93157	18.01	0
1	93710	18.11	0
1	94263	18.21	0
1	94816	18.31	0
1	95369	18.41	0
1	95922	18.51	0
1	96475	18.61	0
1	97028	18.71	0
1	97581	18.81	0
1	98134	18.91	0
1	98695	19.01	0
1	99248	19.11	0
1	99801	19.21	0
1	100354	19.31	0
1	100907	19.41	0
1	101460	19.51	0
1	102013	19.61	0
1	102566	19.71	0
1	103119	19.81	0
1	103672	19.91	0
1	104233	20.01	0
1	104786	20.11	0
1	105339	20.21	0
1	105892	20.31	0
1	106445	20.41	0
1	106998	20.51	0
1	107551	20.61	0
1	108104	20.71	0
1	108657	20.81	0
1	109210	20.91	0
1	109771	21.01	0
1	110324	21.11	0
1	110877	21.21	0
1	111430	21.31	0
1	111983	21.41	0
1	112536	21.51	0
1	113089	21.61	0
1	113642	21.71	0
1	114195	21.81	0
1	114748	21.91	0
1	115309	22.01	0
1	115862	22.11	0
1	116415	22.21	0
1	116968	22.31	0
1	117521	22.41	0
1	118074	22.51	0
1	118627	22.61	0
1	119180	22.71	0
1	119733	22.81	0
1	120286	22.91	0
1	120847	23.01	0
1	121400	23.11	0
1	121953	23.21	0
1	122506	23.31	0
1	123059	23.41	0
1	123612	23.51	0
1	124165	23.61	0
1	124718	23.71	0
1	125271	23.81	0
1	125824	23.91	0
1	126385	24.01	0
1	126938	24.11	0
1	127491	24.21	0
1	128044	24.31	0
1	128597	24.41	0
1	129150	24.51	0
1	129703	24.61	0
1	130256	24.71	0
1	130809	24.81	0
1	131362	24.91	0
1	131923	25.01	0
1	132476	25.11	0
1	133029	25.21	0
1	133582	25.31	0
1	134135	25.41	0
1	134688	25.51	0
1	135241	25.61	0
1	135794	25.71	0
1	136347	25.81	0
1	136900	25.91	0
1	137461	26.01	0
1	138014	26.11	0
1	138567	26.21	0
1	139120	26.31	0
1	139673	26.41	0
1	140226	26.51	0
1	140779	26.61	0
1	141332	26.71	0
1	141885	26.81	0
1	142438	26.91	0
1	142999	27.01	0
1	143552	27.11	0
1	144105	27.21	0
1	144658	27.31	0
1	145211	27.41	0
1	145764	27.51	0
1	146317	27.61	0
1	146870	27.71	0
1	147423	27.81	0
1	147976	27.91	0
1	148537	28.01	0
1	149090	28.11	0
1	149643	28.21	0
1	150196	28.31	0
1	150749	28.41	0
1	151302	28.51	0
1	151855	28.61	0
1	152408	28.71	0
1	152961	28.81	0
1	153514	28.91	0
1	154075	29.01	0
1	154628	29.11	0
1	155181	29.21	0
1	155734	29.31	0
1	156287	29.41	0
1	156840	29.51	0
1	157393	29.61	0
1	157946	29.71	0
1	158499	29.81	0
1	159052	29.91	0
1	159613	30.01	0
1	160166	30.11	0
1	160719	30.21	0
1	161272	30.31	0
1	161825	30.41	0
1	162378	30.51	0
1	162931	30.61	0
1	163484	30.71	0
1	164037	30.81	0
1	164590	30.91	0
1	165151	31.01	0
1	165704	31.11	0
1	166257	31.21	0
1	166810	31.31	0
1	167363	31.41	0
1	167916	31.51	0
1	168469	31.61	0
1	169022	31.71	0
1	169575	31.81	0
1	170128	31.91	0
1	170689	32.01	0
1	171242	32.11	0
1	171795	32.21	0
1	172348	32.31	0
1	172901	32.41	0
1	173454	32.51	0
1	174007	32.61	0
1	174560	32.71	0
1	175113	32.81	0
1	175666	32.91	0
1	176227	33.01	0
1	176780	33.11	0
1	177333	33.21	0
1	177886	33.31	0
1	178439	33.41	0
1	178992	33.51	0
1	179545	33.61	0
1	180098	33.71	0
1	180651	33.81	0
1	181204	33.91	0
1	181765	34.01	0
1	182318	34.11	0
1	182871	34.21	0
1	183424	34.31	0
1	183977	34.41	0
1	184530	34.51	0
1	185083	34.61	0
1	185636	34.71	0
1	186189	34.81	0
1	186742	34.91	0
1	187303	35.01	0
1	187856	35.11	0
1	188409	35.21	0
1	188962	35.31	0
1	189515	35.41	0
1	190068	35.51	0
1	190621	35.61	0
1	191174	35.71	0
1	191727	35.81	0
1	192280	35.91	0
1	192841	36.01	0
1	193394	36.11	0
1	193947	36.21	0
1	194500	36.31	0
1	195146	36.41	0
1	195698	36.51	0
1	196250	36.61	0
1	196802	36.71	0
1	197354	36.81	0
1	197906	36.91	0
1	198466	37.01	0
1	199018	37.11	0
1	199570	37.21	0
1	200122	37.31	0
1	200674	37.41	0
1	201226	37.51	0
1	201778	37.61	0
1	202330	37.71	0
1	202882	37.81	0
1	203434	37.91	0
1	203994	38.01	0
1	204546	38.11	0
1	205098	38.21	0
1	205650	38.31	0
1	206202	38.41	0
1	206754	38.51	0
1	207306	38.61	0
1	207858	38.71	0
1	208410	38.81	0
1	208962	38.91	0
1	209522	39.01	0
1	210074	39.11	0
1	210626	39.21	0
1	211178	39.31	0
1	211730	39.41	0
1	212282	39.51	0
1	212834	39.61	0
1	213386	39.71	0
1	213938	39.81	0
1	214490	39.91	0
1	215050	40.01	0
1	215602	40.11	0
1	216154	40.21	0
1	216706	40.31	0
1	217258	40.41	0
1	217810	40.51	0
1	218362	40.61	0
1	218914	40.71	0
1	219466	40.81	0
1	220018	40.91	0
1	220578	41.01	0
1	221130	41.11	0
1	221682	41.21	0
1	222234	41.31	0
1	222786	41.41	0
1	223431	41.51	0
1	223982	41.61	0
1	224533	41.71	0
1	225084	41.81	0
1	225635	41.91	0
1	226194	42.01	0
1	226745	42.11	0
1	227296	42.21	0
1	227847	42.31	0
1	228398	42.41	0
1	228949	42.51	0
1	229500	42.61	0
1	230051	42.71	0
1	230602	42.81	0
1	231153	42.91	0
1	231712	43.01	0
1	232263	43.11	0
1	232814	43.21	0
1	233365	43.31	0
1	233916	43.41	0
1	234467	43.51	0
1	235018	43.61	0
1	235569	43.71	0
1	236120	43.81	0
1	236671	43.91	0
1	237230	44.01	0
1	237781	44.11	0
1	238332	44.21	0
1	238883	44.31	0
1	239434	44.41	0
1	239985	44.51	0
1	240536	44.61	0
1	241087	44.71	0
1	241638	44.81	0
1	242189	44.91	0
1	242748	45.01	0
1	243299	45.11	0
1	243850	45.21	0
1	244401	45.31	0
1	244952	45.41	0
1	245503	45.51	0
1	246054	45.61	0
1	246605	45.71	0
1	247156	45.81	0
1	247707	45.91	0
1	248266	46.01	0
1	248817	46.11	0
1	249461	46.21	0
1	250011	46.31	0
1	250561	46.41	0
1	251111	46.51	0
1	251661	46.61	0
1	252211	46.71	0
1	252761	46.81	0
1	253311	46.91	0
1	253869	47.01	0
1	254419	47.11	0
1	254969	47.21	0
1	255519	47.31	0
1	256069	47.41	0
1	256619	47.51	0
1	257169	47.61	0
1	257719	47.71	0
1	258269	47.81	0
1	258819	47.91	0
1	259377	48.01	0
1	259927	48.11	0
1	260477	48.21	0
1	261027	48.31	0
1	261577	48.41	0
1	262127	48.51	0
1	262677	48.61	0
1	263227	48.71	0
1	263777	48.81	0
1	264327	48.91	0
1	264885	49.01	0
1	265435	49.11	0
1	265985	49.21	0
1	266535	49.31	0
1	267085	49.41	0
1	267635	49.51	0
1	268185	49.61	0
1	268735	49.71	0
1	269285	49.81	0
1	269835	49.91	0
1	270393	50.01	0
1	270943	50.11	0
1	271493	50.21	0
1	272043	50.31	0
1	272593	50.41	0
1	273143	50.51	0
1	273693	50.61	0
1	274336	50.71	0
1	274885	50.81	0
1	275434	50.91	0
1	275991	51.01	0
1	276540	51.11	0
1	277089	51.21	0
1	277638	51.31	0
1	278187	51.41	0
1	278736	51.51	0
1	279285	51.61	0
1	279834	51.71	0
1	280383	51.81	0
1	280932	51.91	0
1	281489	52.01	0
1	282038	52.11	0
1	282587	52.21	0
1	283136	52.31	0
1	283685	52.41	0
1	284234	52.51	0
1	284783	52.61	0
1	285332	52.71	0
1	285881	52.81	0
1	286430	52.91	0
1	286987	53.01	0
1	287536	53.11	0
1	288085	53.21	0
1	288634	53.31	0
1	289183	53.41	0
1	289732	53.51	0
1	290281	53.61	0
1	290830	53.71	0
1	291379	53.81	0
1	291928	53.91	0
1	292485	54.01	0
1	293034	54.11	0
1	293583	54.21	0
1	294132	54.31	0
1	294681	54.41	0
1	295230	54.51	0
1	295779	54.61	0
1	296328	54.71	0
1	296877	54.81	0
1	297519	54.91	0
1	298075	55.01	0
1	298623	55.11	0
1	299171	55.21	0
1	299719	55.31	0
1	300267	55.41	0
1	300815	55.51	0
1	301363	55.61	0
1	301911	55.71	0
1	302459	55.81	0
1	303007	55.91	0
1	303563	56.01	0
1	304111	56.11	0
1	304659	56.21	0
1	305207	56.31	0
1	305755	56.41	0
1	306303	56.51	0
1	306851	56.61	0
1	307399	56.71	0
1	307947	56.81	0
1	308495	56.91	0
1	309051	57.01	0
1	309599	57.11	0
1	310147	57.21	0
1	310695	57.31	0
1	311243	57.41	0
1	311791	57.51	0
1	312339	57.61	0
1	312887	57.71	0
1	313435	57.81	0
1	313983	57.91	0
1	314539	58.01	0
1	315087	58.11	0
1	315635	58.21	0
1	316183	58.31	0
1	316731	58.41	0
1	317279	58.51	0
1	317827	58.61	0
1	318375	58.71	0
1	318923	58.81	0
1	319471	58.91	0
1	320120	59.01	0
1	320667	59.11	0
1	321214	59.21	0
1	321761	59.31	0
1	322308	59.41	0
1	322855	59.51	0
1	323402	59.61	0
1	323949	59.71	0
1	324496	59.81	0
1	325043	59.91	0
1	325598	60.01	0
1	326145	60.11	0
1	326692	60.21	0
1	327239	60.31	0
1	327786	60.41	0
1	328333	60.51	0
1	328880	60.61	0
1	329427	60.71	0
1	329974	60.81	0
1	330521	60.91	0
1	331076	61.01	0
1	331623	61.11	0
1	332170	61.21	0
1	332717	61.31	0
1	333264	61.41	0
1	333811	61.51	0
1	334358	61.61	0
1	334905	61.71	0
1	335452	61.81	0
1	335999	61.91	0
1	336554	62.01	0
1	337101	62.11	0
1	337648	62.21	0
1	338195	62.31	0
1	338742	62.41	0
1	339289	62.51	0
1	339836	62.61	0
1	340383	62.71	0
1	340930	62.81	0
1	341477	62.91	0
1	342802	63.01	0
1	343348	63.11	0
1	343894	63.21	0
1	344440	63.31	0
1	344986	63.41	0
1	345532	63.51	0
1	346078	63.61	0
1	346624	63.71	0
1	347170	63.81	0
1	347716	63.91	0
1	348270	64.01	0
1	348816	64.11	0
1	349362	64.21	0
1	349908	64.31	0
1	350454	64.41	0
1	351000	64.51	0
1	351546	64.61	0
1	352092	64.71	0
1	352638	64.81	0
1	353184	64.91	0
1	353738	65.01	0
1	354284	65.11	0
1	354830	65.21	0
1	355376	65.31	0
1	355922	65.41	0
1	356468	65.51	0
1	357014	65.61	0
1	357560	65.71	0
1	358106	65.81	0
1	358652	65.91	0
1	359206	66.01	0
1	359752	66.11	0
1	360298	66.21	0
1	360844	66.31	0
1	361390	66.41	0
1	361936	66.51	0
1	362482	66.61	0
1	363028	66.71	0
1	363574	66.81	0
1	364120	66.91	0
1	364674	67.01	0
1	365220	67.11	0
1	365766	67.21	0
1	366312	67.31	0
1	366858	67.41	0
1	367404	67.51	0
1	367950	67.61	0
1	368496	67.71	0
1	369042	67.81	0
1	369588	67.91	0
1	370142	68.01	0
1	370688	68.11	0
1	371234	68.21	0
1	371780	68.31	0
1	372326	68.41	0
1	372872	68.51	0
1	373418	68.61	0
1	373964	68.71	0
1	374510	68.81	0
1	375056	68.91	0
1	375610	69.01	0
1	376156	69.11	0
1	376702	69.21	0
1	377248	69.31	0
1	377794	69.41	0
1	378340	69.51	0
1	378886	69.61	0
1	379432	69.71	0
1	379978	69.81	0
1	380524	69.91	0
1	381078	70.01	0
1	381624	70.11	0
1	382170	70.21	0
1	382716	70.31	0
1	383262	70.41	0
1	383808	70.51	0
1	384354	70.61	0
1	384900	70.71	0
1	385446	70.81	0
1	385992	70.91	0
1	386546	71.01	0
1	387092	71.11	0
1	387638	71.21	0
1	388184	71.31	0
1	388730	71.41	0
1	389276	71.51	0
1	389822	71.61	0
1	390368	71.71	0
1	390914	71.81	0
1	391460	71.91	0
1	392014	72.01	0
1	392560	72.11	0
1	393106	72.21	0
1	393652	72.31	0
1	394198	72.41	0
1	394744	72.51	0
1	395290	72.61	0
1	395836	72.71	0
1	396382	72.81	0
1	396928	72.91	0
1	397482	73.01	0
1	398028	73.11	0
1	398574	73.21	0
1	399120	73.31	0
1	399666	73.41	0
1	400212	73.51	0
1	400758	73.61	0
1	401304	73.71	0
1	401850	73.81	0
1	402396	73.91	0
1	402950	74.01	0
1	403496	74.11	0
1	404042	74.21	0
1	404588	74.31	0
1	405134	74.41	0
1	405680	74.51	0
1	406226	74.61	0
1	406772	74.71	0
1	407318	74.81	0
1	407864	74.91	0
1	408418	75.01	0
1	408964	75.11	0
1	409510	75.21	0
1	410056	75.31	0
1	410602	75.41	0
1	411148	75.51	0
1	411694	75.61	0
1	412240	75.71	0
1	412786	75.81	0
1	413332	75.91	0
1	413886	76.01	0
1	414432	76.11	0
1	414978	76.21	0
1	415524	76.31	0
1	416070	76.41	0
1	416616	76.51	0
1	417162	76.61	0
1	417708	76.71	0
1	418254	76.81	0
1	418800	76.91	0
1	419354	77.01	0
1	419900	77.11	0
1	420446	77.21	0
1	420992	77.31	0
1	421538	77.41	0
1	422084	77.51	0
1	422630	77.61	0
1	423176	77.71	0
1	423722	77.81	0
1	424268	77.91	0
1	424822	78.01	0
1	425368	78.11	0
1	425914	78.21	0
1	426460	78.31	0
1	427006	78.41	0
1	427552	78.51	0
1	428098	78.61	0
1	428644	78.71	0
1	429190	78.81	0
1	429736	78.91	0
1	430290	79.01	0
1	430836	79.11	0
1	431382	79.21	0
1	431928	79.31	0
1	432474	79.41	0
1	433020	79.51	0
1	433566	79.61	0
1	434112	79.71	0
1	434658	79.81	0
1	435204	79.91	0
1	435758	80.01	0
1	436304	80.11	0
1	436850	80.21	0
1	437396	80.31	0
1	437942	80.41	0
1	438488	80.51	0
1	439034	80.61	0
1	439580	80.71	0
1	440126	80.81	0
1	440672	80.91	0
1	441226	81.01	0
1	441772	81.11	0
1	442318	81.21	0
1	442864	81.31	0
1	443410	81.41	0
1	443956	81.51	0
1	444502	81.61	0
1	445048	81.71	0
1	445594	81.81	0
1	446140	81.91	0
1	446694	82.01	0
1	447240	82.11	0
1	447786	82.21	0
1	448332	82.31	0
1	448878	82.41	0
1	449424	82.51	0
1	449970	82.61	0
1	450516	82.71	0
1	451062	82.81	0
1	451608	82.91	0
1	452162	83.01	0
1	452708	83.11	0
1	453254	83.21	0
1	453800	83.31	0
1	454346	83.41	0
1	454892	83.51	0
1	455438	83.61	0
1	455984	83.71	0
1	456530	83.81	0
1	457076	83.91	0
1	457630	84.01	0
1	458176	84.11	0
1	458722	84.21	0
1	459268	84.31	0
1	459814	84.41	0
1	460360	84.51	0
1	460906	84.61	0
1	461452	84.71	0
1	461998	84.81	0
1	462544	84.91	0
1	463098	85.01	0
1	463644	85.11	0
1	464190	85.21	0
1	464736	85.31	0
1	465282	85.41	0
1	465828	85.51	0
1	466374	85.61	0
1	466920	85.71	0
1	467466	85.81	0
1	468012	85.91	0
1	468566	86.01	0
1	469112	86.11	0
1	469658	86.21	0
1	470204	86.31	0
1	470750	86.41	0
1	471296	86.51	0
1	471842	86.61	0
1	472388	86.71	0
1	472934	86.81	0
1	473480	86.91	0
1	474034	87.01	0
1	474580	87.11	0
1	475126	87.21	0
1	475672	87.31	0
1	476218	87.41	0
1	476764	87.51	0
1	477310	87.61	0
1	477856	87.71	0
1	478402	87.81	0
1	478948	87.91	0
1	479502	88.01	0
1	480048	88.11	0
1	480594	88.21	0
1	481140	88.31	0
1	481686	88.41	0
1	482232	88.51	0
1	482778	88.61	0
1	483324	88.71	0
1	483870	88.81	0
1	484416	88.91	0
1	484970	89.01	0
1	485516	89.11	0
1	486062	89.21	0
1	486608	89.31	0
1	487154	89.41	0
1	487700	89.51	0
1	488246	89.61	0
1	488792	89.71	0
1	489338	89.81	0
1	489884	89.91	0
1	490438	90.01	0
1	490984	90.11	0
1	491530	90.21	0
1	492076	90.31	0
1	492622	90.41	0
1	493168	90.51	0
1	493714	90.61	0
1	494260	90.71	0
1	494806	90.81	0
1	495352	90.91	0
1	495906	91.01	0
1	496452	91.11	0
1	496998	91.21	0
1	497544	91.31	0
1	498090	91.41	0
1	498636	91.51	0
1	499182	91.61	0
1	499728	91.71	0
1	500274	91.81	0
1	500820	91.91	0
1	501374	92.01	0
1	501920	92.11	0
1	502466	92.21	0
1	503012	92.31	0
1	503558	92.41	0
1	504104	92.51	0
1	504650	92.61	0
1	505196	92.71	0
1	505742	92.81	0
1	506288	92.91	0
1	506842	93.01	0
1	507388	93.11	0
1	507934	93.21	0
1	508480	93.31	0
1	509026	93.41	0
1	509572	93.51	0
1	510118	93.61	0
1	510664	93.71	0
1	511210	93.81	0
1	511756	93.91	0
1	512310	94.01	0
1	512856	94.11	0
1	513402	94.21	0
1	513948	94.31	0
1	514494	94.41	0
1	515040	94.51	0
1	515586	94.61	0
1	516132	94.71	0
1	516678	94.81	0
1	517224	94.91	0
1	517778	95.01	0
1	518324	95.11	0
1	518870	95.21	0
1	519416	95.31	0
1	519962	95.41	0
1	520508	95.51	0
1	521054	95.61	0
1	521600	95.71	0
1	522146	95.81	0
1	522692	95.91	0
1	523246	96.01	0
1	523792	96.11	0
1	524338	96.21	0
1	524884	96.31	0
1	525430	96.41	0
1	525976	96.51	0
1	526522	96.61	0
1	527068	96.71	0
1	527614	96.81	0
1	528160	96.91	0
1	528714	97.01	0
1	529260	97.11	0
1	529806	97.21	0
1	530352	97.31	0
1	530898	97.41	0
1	531444	97.51	0
1	531990	97.61	0
1	532536	97.71	0
1	533082	97.81	0
1	533628	97.91	0
1	534182	98.01	0
1	534728	98.11	0
1	535274	98.21	0
1	535820	98.31	0
1	536366	98.41	0
1	536912	98.51	0
1	537458	98.61	0
1	538004	98.71	0
1	538550	98.81	0
1	539096	98.91	0
1	539650	99.01	0
1	540196	99.11	0
1	540742	99.21	0
1	541288	99.31	0
1	541834	99.41	0
1	542380	99.51	0
1	542926	99.61	0
1	543472	99.71	0
1	544018	99.81	0
1	544564	99.91	0
2	113	1.11	0
2	659	1.21	0
2	1205	1.31	0
2	1751	1.41	0
2	2297	1.51	0
2	2843	1.61	0
2	3389	1.71	0
2	3935	1.81	0
2	4481	1.91	0
2	5035	2.01	0
2	5581	2.11	0
2	6127	2.21	0
2	6673	2.31	0
2	7219	2.41	0
2	7765	2.51	0
2	8311	2.61	0
2	8857	2.71	0
2	9403	2.81	0
2	9949	2.91	0
2	10503	3.01	0
2	11049	3.11	0
2	11595	3.21	0
2	12141	3.31	0
2	12687	3.41	0
2	13233	3.51	0
2	13779	3.61	0
2	14325	3.71	0
2	14871	3.81	0
2	15417	3.91	0
2	15971	4.01	0
2	16517	4.11	0
2	17063	4.21	0
2	17609	4.31	0
2	18155	4.41	0
2	18701	4.51	0
2	19247	4.61	0
2	19793	4.71	0
2	20339	4.81	0
2	20885	4.91	0
2	21439	5.01	0
2	21985	5.11	0
2	22531	5.21	0
2	23077	5.31	0
2	23623	5.41	0
2	24169	5.51	0
2	24715	5.61	0
2	25261	5.71	0
2	25807	5.81	0
2	26353	5.91	0
2	26907	6.01	0
2	27453	6.11	0
2	27999	6.21	0
2	28545	6.31	0
2	29091	6.41	0
2	29637	6.51	0
2	30183	6.61	0
2	30729	6.71	0
2	31275	6.81	0
2	31821	6.91	0
2	32375	7.01	0
2	32921	7.11	0
2	33467	7.21	0
2	34013	7.31	0
2	34559	7.41	0
2	35105	7.51	0
2	35651	7.61	0
2	36197	7.71	0
2	36743	7.81	0
2	37289	7.91	0
2	37843	8.01	0
2	38389	8.11	0
2	38935	8.21	0
2	39481	8.31	0
2	40027	8.41	0
2	40573	8.51	0
2	41119	8.61	0
2	41665	8.71	0
2	42211	8.81	0
2	42757	8.91	0
2	43311	9.01	0
2	43857	9.11	0
2	44403	9.21	0
2	44949	9.31	0
2	45495	9.41	0
2	46041	9.51	0
2	46587	9.61	0
2	47133	9.71	0
2	47679	9.81	0
2	48225	9.91	0
2	48853	10.01	0
2	49406	10.11	0
2	49959	10.21	0
2	50512	10.31	0
2	51065	10.41	0
2	51618	10.51	0
2	52171	10.61	0
2	52724	10.71	0
2	53277	10.81	0
2	53830	10.91	0
2	54391	11.01	0
2	54944	11.11	0
2	55497	11.21	0
2	56050	11.31	0
2	56603	11.41	0
2	57156	11.51	0
2	57709	11.61	0
2	58262	11.71	0
2	58815	11.81	0
2	59368	11.91	0
2	59929	12.01	0
2	60482	12.11	0
2	61035	12.21	0
2	61588	12.31	0
2	62141	12.41	0
2	62694	12.51	0
2	63247	12.61	0
2	63800	12.71	0
2	64353	12.81	0
2	64906	12.91	0
2	65467	13.01	0
2	66020	13.11	0
2	66573	13.21	0
2	67126	13.31	0
2	67679	13.41	0
2	68232	13.51	0
2	68785	13.61	0
2	69338	13.71	0
2	69891	13.81	0
2	70444	13.91	0
2	71005	14.01	0
2	71558	14.11	0
2	72111	14.21	0
2	72664	14.31	0
2	73217	14.41	0
2	73770	14.51	0
2	74323	14.61	0
2	74876	14.71	0
2	75429	14.81	0
2	75982	14.91	0
2	76543	15.01	0
2	77096	15.11	0
2	77649	15.21	0
2	78202	15.31	0
2	78755	15.41	0
2	79308	15.51	0
2	79861	15.61	0
2	80414	15.71	0
2	80967	15.81	0
2	81520	15.91	0
2	82081	16.01	0
2	82634	16.11	0
2	83187	16.21	0
2	83740	16.31	0
2	84293	16.41	0
2	84846	16.51	0
2	85399	16.61	0
2	85952	16.71	0
2	86505	16.81	0
2	87058	16.91	0
2	87619	17.01	0
2	88172	17.11	0
2	88725	17.21	0
2	89278	17.31	0
2	89831	17.41	0
2	90384	17.51	0
2	90937	17.61	0
2	91490	17.71	0
2	92043	17.81	0
2	92596	17.91	0
2	93157	18.01	0
2	93710	18.11	0
2	94263	18.21	0
2	94816	18.31	0
2	95369	18.41	0
2	95922	18.51	0
2	96475	18.61	0
2	97028	18.71	0
2	97581	18.81	0
2	98134	18.91	0
2	98695	19.01	0
2	99248	19.11	0
2	99801	19.21	0
2	100354	19.31	0
2	100907	19.41	0
2	101460	19.51	0
2	102013	19.61	0
2	102566	19.71	0
2	103119	19.81	0
2	103672	19.91	0
2	104233	20.01	0
2	104786	20.11	0
2	105339	20.21	0
2	105892	20.31	0
2	106445	20.41	0
2	106998	20.51	0
2	107551	20.61	0
2	108104	20.71	0
2	108657	20.81	0
2	109210	20.91	0
2	109771	21.01	0
2	110324	21.11	0
2	110877	21.21	0
2	111430	21.31	0
2	111983	21.41	0
2	112536	21.51	0
2	113089	21.61	0
2	113642	21.71	0
2	114195	21.81	0
2	114748	21.91	0
2	115309	22.01	0
2	115862	22.11	0
2	116415	22.21	0
2	116968	22.31	0
2	117521	22.41	0
2	118074	22.51	0
2	118627	22.61	0
2	119180	22.71	0
2	119733	22.81	0
2	120286	22.91	0
2	120847	23.01	0
2	121400	23.11	0
2	121953	23.21	0
2	122506	23.31	0
2	123059	23.41	0
2	123612	23.51	0
2	124165	23.61	0
2	124718	23.71	0
2	125271	23.81	0
2	125824	23.91	0
2	126385	24.01	0
2	126938	24.11	0
2	127491	24.21	0
2	128044	24.31	0
2	128597	24.41	0
2	129150	24.51	0
2	129703	24.61	0
2	130256	24.71	0
2	130809	24.81	0
2	131362	24.91	0
2	131923	25.01	0
2	132476	25.11	0
2	133029	25.21	0
2	133582	25.31	0
2	134135	25.41	0
2	134688	25.51	0
2	135241	25.61	0
2	135794	25.71	0
2	136347	25.81	0
2	136900	25.91	0
2	137461	26.01	0
2	138014	26.11	0
2	138567	26.21	0
2	139120	26.31	0
2	139673	26.41	0
2	140226	26.51	0
2	140779	26.61	0
2	141332	26.71	0
2	141885	26.81	0
2	142438	26.91	0
2	142999	27.01	0
2	143552	27.11	0
2	144105	27.21	0
2	144658	27.31	0
2	145211	27.41	0
2	145764	27.51	0
2	146317	27.61	0
2	146870	27.71	0
2	147423	27.81	0
2	147976	27.91	0
2	148537	28.01	0
2	149090	28.11	0
2	149643	28.21	0
2	150196	28.31	0
2	150749	28.41	0
2	151302	28.51	0
2	151855	28.61	0
2	152408	28.71	0
2	152961	28.81	0
2	153514	28.91	0
2	154075	29.01	0
2	154628	29.11	0
2	155181	29.21	0
2	155734	29.31	0
2	156287	29.41	0
2	156840	29.51	0
2	157393	29.61	0
2	157946	29.71	0
2	158499	29.81	0
2	159052	29.91	0
2	159613	30.01	0
2	160166	30.11	0
2	160719	30.21	0
2	161272	30.31	0
2	161825	30.41	0
2	162378	30.51	0
2	162931	30.61	0
2	163484	30.71	0
2	164037	30.81	0
2	164590	30.91	0
2	165151	31.01	0
2	165704	31.11	0
2	166257	31.21	0
2	166810	31.31	0
2	167363	31.41	0
2	167916	31.51	0
2	168469	31.61	0
2	169022	31.71	0
2	169575	31.81	0
2	170128	31.91	0
2	170689	32.01	0
2	171242	32.11	0
2	171795	32.21	0
2	172348	32.31	0
2	172901	32.41	0
2	173454	32.51	0
2	174007	32.61	0
2	174560	32.71	0
2	175113	32.81	0
2	175666	32.91	0
2	176227	33.01	0
2	176780	33.11	0
2	177333	33.21	0
2	177886	33.31	0
2	178439	33.41	0
2	178992	33.51	0
2	179545	33.61	0
2	180098	33.71	0
2	180651	33.81	0
2	181204	33.91	0
2	181765	34.01	0
2	182318	34.11	0
2	182871	34.21	0
2	183424	34.31	0
2	183977	34.41	0
2	184530	34.51	0
2	185083	34.61	0
2	185636	34.71	0
2	186189	34.81	0
2	186742	34.91	0
2	187303	35.01	0
2	187856	35.11	0
2	188409	35.21	0
2	188962	35.31	0
2	189515	35.41	0
2	190068	35.51	0
2	190621	35.61	0
2	191174	35.71	0
2	191727	35.81	0
2	192280	35.91	0
2	192841	36.01	0
2	193394	36.11	0
2	193947	36.21	0
2	194500	36.31	0
2	195146	36.41	0
2	195698	36.51	0
2	196250	36.61	0
2	196802	36.71	0
2	197354	36.81	0
2	197906	36.91	0
2	198466	37.01	0
2	199018	37.11	0
2	199570	37.21	0
2	200122	37.31	0
2	200674	37.41	0
2	201226	37.51	0
2	201778	37.61	0
2	202330	37.71	0
2	202882	37.81	0
2	203434	37.91	0
2	203994	38.01	0
2	204546	38.11	0
2	205098	38.21	0
2	205650	38.31	0
2	206202	38.41	0
2	206754	38.51	0
2	207306	38.61	0
2	207858	38.71	0
2	208410	38.81	0
2	208962	38.91	0
2	209522	39.01	0
2	210074	39.11	0
2	210626	39.21	0
2	211178	39.31	0
2	211730	39.41	0
2	212282	39.51	0
2	212834	39.61	0
2	213386	39.71	0
2	213938	39.81	0
2	214490	39.91	0
2	215050	40.01	0
2	215602	40.11	0
2	216154	40.21	0
2	216706	40.31	0
2	217258	40.41	0
2	217810	40.51	0
2	218362	40.61	0
2	218914	40.71	0
2	219466	40.81	0
2	220018	40.91	0
2	220578	41.01	0
2	221130	41.11	0
2	221682	41.21	0
2	222234	41.31	0
2	222786	41.41	0
2	223431	41.51	0
2	223982	41.61	0
2	224533	41.71	0
2	225084	41.81	0
2	225635	41.91	0
2	226194	42.01	0
2	226745	42.11	0
2	227296	42.21	0
2	227847	42.31	0
2	228398	42.41	0
2	228949	42.51	0
2	229500	42.61	0
2	230051	42.71	0
2	230602	42.81	0
2	231153	42.91	0
2	231712	43.01	0
2	232263	43.11	0
2	232814	43.21	0
2	233365	43.31	0
2	233916	43.41	0
2	234467	43.51	0
2	235018	43.61	0
2	235569	43.71	0
2	236120	43.81	0
2	236671	43.91	0
2	237230	44.01	0
2	237781	44.11	0
2	238332	44.21	0
2	238883	44.31	0
2	239434	44.41	0
2	239985	44.51	0
2	240536	44.61	0
2	241087	44.71	0
2	241638	44.81	0
2	242189	44.91	0
2	242748	45.01	0
2	243299	45.11	0
2	243850	45.21	0
2	244401	45.31	0
2	244952	45.41	0
2	245503	45.51	0
2	246054	45.61	0
2	246605	45.71	0
2	247156	45.81	0
2	247707	45.91	0
2	248266	46.01	0
2	248817	46.11	0
2	249461	46.21	0
2	250011	46.31	0
2	250561	46.41	0
2	251111	46.51	0
2	251661	46.61	0
2	252211	46.71	0
2	252761	46.81	0
2	253311	46.91	0
2	253869	47.01	0
2	254419	47.11	0
2	254969	47.21	0
2	255519	47.31	0
2	256069	47.41	0
2	256619	47.51	0
2	257169	47.61	0
2	257719	47.71	0
2	258269	47.81	0
2	258819	47.91	0
2	259377	48.01	0
2	259927	48.11	0
2	260477	48.21	0
2	261027	48.31	0
2	261577	48.41	0
2	262127	48.51	0
2	262677	48.61	0
2	263227	48.71	0
2	263777	48.81	0
2	264327	48.91	0
2	264885	49.01	0
2	265435	49.11	0
2	265985	49.21	0
2	266535	49.31	0
2	267085	49.41	0
2	267635	49.51	0
2	268185	49.61	0
2	268735	49.71	0
2	269285	49.81	0
2	269835	49.91	0
2	270393	50.01	0
2	270943	50.11	0
2	271493	50.21	0
2	272043	50.31	0
2	272593	50.41	0
2	273143	50.51	0
2	273693	50.61	0
2	274336	50.71	0
2	274885	50.81	0
2	275434	50.91	0
2	275991	51.01	0
2	276540	51.11	0
2	277089	51.21	0
2	277638	51.31	0
2	278187	51.41	0
2	278736	51.51	0
2	279285	51.61	0
2	279834	51.71	0
2	280383	51.81	0
2	280932	51.91	0
2	281489	52.01	0
2	282038	52.11	0
2	282587	52.21	0
2	283136	52.31	0
2	283685	52.41	0
2	284234	52.51	0
2	284783	52.61	0
2	285332	52.71	0
2	285881	52.81	0
2	286430	52.91	0
2	286987	53.01	0
2	287536	53.11	0
2	288085	53.21	0
2	288634	53.31	0
2	289183	53.41	0
2	289732	53.51	0
2	290281	53.61	0
2	290830	53.71	0
2	291379	53.81	0
2	291928	53.91	0
2	292485	54.01	0
2	293034	54.11	0
2	293583	54.21	0
2	294132	54.31	0
2	294681	54.41	0
2	295230	54.51	0
2	295779	54.61	0
2	296328	54.71	0
2	296877	54.81	0
2	297519	54.91	0
2	298075	55.01	0
2	298623	55.11	0
2	299171	55.21	0
2	299719	55.31	0
2	300267	55.41	0
2	300815	55.51	0
2	301363	55.61	0
2	301911	55.71	0
2	302459	55.81	0
2	303007	55.91	0
2	303563	56.01	0
2	304111	56.11	0
2	304659	56.21	0
2	305207	56.31	0
2	305755	56.41	0
2	306303	56.51	0
2	306851	56.61	0
2	307399	56.71	0
2	307947	56.81	0
2	308495	56.91	0
2	309051	57.01	0
2	309599	57.11	0
2	310147	57.21	0
2	310695	57.31	0
2	311243	57.41	0
2	311791	57.51	0
2	312339	57.61	0
2	312887	57.71	0
2	313435	57.81	0
2	313983	57.91	0
2	314539	58.01	0
2	315087	58.11	0
2	315635	58.21	0
2	316183	58.31	0
2	316731	58.41	0
2	317279	58.51	0
2	317827	58.61	0
2	318375	58.71	0
2	318923	58.81	0
2	319471	58.91	0
2	320120	59.01	0
2	320667	59.11	0
2	321214	59.21	0
2	321761	59.31	0
2	322308	59.41	0
2	322855	59.51	0
2	323402	59.61	0
2	323949	59.71	0
2	324496	59.81	0
2	325043	59.91	0
2	325598	60.01	0
2	326145	60.11	0
2	326692	60.21	0
2	327239	60.31	0
2	327786	60.41	0
2	328333	60.51	0
2	328880	60.61	0
2	329427	60.71	0
2	329974	60.81	0
2	330521	60.91	0
2	331076	61.01	0
2	331623	61.11	0
2	332170	61.21	0
2	332717	61.31	0
2	333264	61.41	0
2	333811	61.51	0
2	334358	61.61	0
2	334905	61.71	0
2	335452	61.81	0
2	335999	61.91	0
2	336554	62.01	0
2	337101	62.11	0
2	337648	62.21	0
2	338195	62.31	0
2	338742	62.41	0
2	339289	62.51	0
2	339836	62.61	0
2	340383	62.71	0
2	340930	62.81	0
2	341477	62.91	0
2	342802	63.01	0
2	343348	63.11	0
2	343894	63.21	0
2	344440	63.31	0
2	344986	63.41	0
2	345532	63.51	0
2	346078	63.61	0
2	346624	63.71	0
2	347170	63.81	0
2	347716	63.91	0
2	348270	64.01	0
2	348816	64.11	0
2	349362	64.21	0
2	349908	64.31	0
2	350454	64.41	0
2	351000	64.51	0
2	351546	64.61	0
2	352092	64.71	0
2	352638	64.81	0
2	353184	64.91	0
2	353738	65.01	0
2	354284	65.11	0
2	354830	65.21	0
2	355376	65.31	0
2	355922	65.41	0
2	356468	65.51	0
2	357014	65.61	0
2	357560	65.71	0
2	358106	65.81	0
2	358652	65.91	0
2	359206	66.01	0
2	359752	66.11	0
2	360298	66.21	0
2	360844	66.31	0
2	361390	66.41	0
2	361936	66.51	0
2	362482	66.61	0
2	363028	66.71	0
2	363574	66.81	0
2	364120	66.91	0
2	364674	67.01	0
2	365220	67.11	0
2	365766	67.21	0
2	366312	67.31	0
2	366858	67.41	0
2	367404	67.51	0
2	367950	67.61	0
2	368496	67.71	0
2	369042	67.81	0
2	369588	67.91	0
2	370142	68.01	0
2	370688	68.11	0
2	371234	68.21	0
2	371780	68.31	0
2	372326	68.41	0
2	372872	68.51	0
2	373418	68.61	0
2	373964	68.71	0
2	374510	68.81	0
2	375056	68.91	0
2	375610	69.01	0
2	376156	69.11	0
2	376702	69.21	0
2	377248	69.31	0
2	377794	69.41	0
2	378340	69.51	0
2	378886	69.61	0
2	379432	69.71	0
2	379978	69.81	0
2	380524	69.91	0
2	381078	70.01	0
2	381624	70.11	0
2	382170	70.21	0
2	382716	70.31	0
2	383262	70.41	0
2	383808	70.51	0
2	384354	70.61	0
2	384900	70.71	0
2	385446	70.81	0
2	385992	70.91	0
2	386546	71.01	0
2	387092	71.11	0
2	387638	71.21	0
2	388184	71.31	0
2	388730	71.41	0
2	389276	71.51	0
2	389822	71.61	0
2	390368	71.71	0
2	390914	71.81	0
2	391460	71.91	0
2	392014	72.01	0
2	392560	72.11	0
2	393106	72.21	0
2	393652	72.31	0
2	394198	72.41	0
2	394744	72.51	0
2	395290	72.61	0
2	395836	72.71	0
2	396382	72.81	0
2	396928	72.91	0
2	397482	73.01	0
2	398028	73.11	0
2	398574	73.21	0
2	399120	73.31	0
2	399666	73.41	0
2	400212	73.51	0
2	400758	73.61	0
2	401304	73.71	0
2	401850	73.81	0
2	402396	73.91	0
2	402950	74.01	0
2	403496	74.11	0
2	404042	74.21	0
2	404588	74.31	0
2	405134	74.41	0
2	405680	74.51	0
2	406226	74.61	0
2	406772	74.71	0
2	407318	74.81	0
2	407864	74.91	0
2	408418	75.01	0
2	408964	75.11	0
2	409510	75.21	0
2	410056	75.31	0
2	410602	75.41	0
2	411148	75.51	0
2	411694	75.61	0
2	412240	75.71	0
2	412786	75.81	0
2	413332	75.91	0
2	413886	76.01	0
2	414432	76.11	0
2	414978	76.21	0
2	415524	76.31	0
2	416070	76.41	0
2	416616	76.51	0
2	417162	76.61	0
2	417708	76.71	0
2	418254	76.81	0
2	418800	76.91	0
2	419354	77.01	0
2	419900	77.11	0
2	420446	77.21	0
2	420992	77.31	0
2	421538	77.41	0
2	422084	77.51	0
2	422630	77.61	0
2	423176	77.71	0
2	423722	77.81	0
2	424268	77.91	0
2	424822	78.01	0
2	425368	78.11	0
2	425914	78.21	0
2	426460	78.31	0
2	427006	78.41	0
2	427552	78.51	0
2	428098	78.61	0
2	428644	78.71	0
2	429190	78.81	0
2	429736	78.91	0
2	430290	79.01	0
2	430836	79.11	0
2	431382	79.21	0
2	431928	79.31	0
2	432474	79.41	0
2	433020	79.51	0
2	433566	79.61	0
2	434112	79.71	0
2	434658	79.81	0
2	435204	79.91	0
2	435758	80.01	0
2	436304	80.11	0
2	436850	80.21	0
2	437396	80.31	0
2	437942	80.41	0
2	438488	80.51	0
2	439034	80.61	0
2	439580	80.71	0
2	440126	80.81	0
2	440672	80.91	0
2	441226	81.01	0
2	441772	81.11	0
2	442318	81.21	0
2	442864	81.31	0
2	443410	81.41	0
2	443956	81.51	0
2	444502	81.61	0
2	445048	81.71	0
2	445594	81.81	0
2	446140	81.91	0
2	446694	82.01	0
2	447240	82.11	0
2	447786	82.21	0
2	448332	82.31	0
2	448878	82.41	0
2	449424	82.51	0
2	449970	82.61	0
2	450516	82.71	0
2	451062	82.81	0
2	451608	82.91	0
2	452162	83.01	0
2	452708	83.11	0
2	453254	83.21	0
2	453800	83.31	0
2	454346	83.41	0
2	454892	83.51	0
2	455438	83.61	0
2	455984	83.71	0
2	456530	83.81	0
2	457076	83.91	0
2	457630	84.01	0
2	458176	84.11	0
2	458722	84.21	0
2	459268	84.31	0
2	459814	84.41	0
2	460360	84.51	0
2	460906	84.61	0
2	461452	84.71	0
2	461998	84.81	0
2	462544	84.91	0
2	463098	85.01	0
2	463644	85.11	0
2	464190	85.21	0
2	464736	85.31	0
2	465282	85.41	0
2	465828	85.51	0
2	466374	85.61	0
2	466920	85.71	0
2	467466	85.81	0
2	468012	85.91	0
2	468566	86.01	0
2	469112	86.11	0
2	469658	86.21	0
2	470204	86.31	0
2	470750	86.41	0
2	471296	86.51	0
2	471842	86.61	0
2	472388	86.71	0
2	472934	86.81	0
2	473480	86.91	0
2	474034	87.01	0
2	474580	87.11	0
2	475126	87.21	0
2	475672	87.31	0
2	476218	87.41	0
2	476764	87.51	0
2	477310	87.61	0
2	477856	87.71	0
2	478402	87.81	0
2	478948	87.91	0
2	479502	88.01	0
2	480048	88.11	0
2	480594	88.21	0
2	481140	88.31	0
2	481686	88.41	0
2	482232	88.51	0
2	482778	88.61	0
2	483324	88.71	0
2	483870	88.81	0
2	484416	88.91	0
2	484970	89.01	0
2	485516	89.11	0
2	486062	89.21	0
2	486608	89.31	0
2	487154	89.41	0
2	487700	89.51	0
2	488246	89.61	0
2	488792	89.71	0
2	489338	89.81	0
2	489884	89.91	0
2	490438	90.01	0
2	490984	90.11	0
2	491530	90.21	0
2	492076	90.31	0
2	492622	90.41	0
2	493168	90.51	0
2	493714	90.61	0
2	494260	90.71	0
2	494806	90.81	0
2	495352	90.91	0
2	495906	91.01	0
2	496452	91.11	0
2	496998	91.21	0
2	497544	91.31	0
2	498090	91.41	0
2	498636	91.51	0
2	499182	91.61	0
2	499728	91.71	0
2	500274	91.81	0
2	500820	91.91	0
2	501374	92.01	0
2	501920	92.11	0
2	502466	92.21	0
2	503012	92.31	0
2	503558	92.41	0
2	504104	92.51	0
2	504650	92.61	0
2	505196	92.71	0
2	505742	92.81	0
2	506288	92.91	0
2	506842	93.01	0
2	507388	93.11	0
2	507934	93.21	0
2	508480	93.31	0
2	509026	93.41	0
2	509572	93.51	0
2	510118	93.61	0
2	510664	93.71	0
2	511210	93.81	0
2	511756	93.91	0
2	512310	94.01	0
2	512856	94.11	0
2	513402	94.21	0
2	513948	94.31	0
2	514494	94.41	0
2	515040	94.51	0
2	515586	94.61	0
2	516132	94.71	0
2	516678	94.81	0
2	517224	94.91	0
2	517778	95.01	0
2	518324	95.11	0
2	518870	95.21	0
2	519416	95.31	0
2	519962	95.41	0
2	520508	95.51	0
2	521054	95.61	0
2	521600	95.71	0
2	522146	95.81	0
2	522692	95.91	0
2	523246	96.01	0
2	523792	96.11	0
2	524338	96.21	0
2	524884	96.31	0
2	525430	96.41	0
2	525976	96.51	0
2	526522	96.61	0
2	527068	96.71	0
2	527614	96.81	0
2	528160	96.91	0
2	528714	97.01	0
2	529260	97.11	0
2	529806	97.21	0
2	530352	97.31	0
2	530898	97.41	0
2	531444	97.51	0
2	531990	97.61	0
2	532536	97.71	0
2	533082	97.81	0
2	533628	97.91	0
2	534182	98.01	0
2	534728	98.11	0
2	535274	98.21	0
2	535820	98.31	0
2	536366	98.41	0
2	536912	98.51	0
2	537458	98.61	0
2	538004	98.71	0
2	538550	98.81	0
2	539096	98.91	0
2	539650	99.01	0
2	540196	99.11	0
2	540742	99.21	0
2	541288	99.31	0
2	541834	99.41	0
2	542380	99.51	0
2	542926	99.61	0
2	543472	99.71	0
2	544018	99.81	0
2	544564	99.91	0
3	113	1.11	0.000179096
3	659	1.21	0.000340852
3	1205	1.31	0.000467435
3	1751	1.41	0.000562893
3	2297	1.51	0.000631106
3	2843	1.61	0.000675745
3	3389	1.71	0.000700245
3	3935	1.81	0.000707784
3	4481	1.91	0.000701273
3	5035	2.01	0.000683354
3	5581	2.11	0.000656398
3	6127	2.21	0.000622512
3	6673	2.31	0.000583548
3	7219	2.41	0.000541117
3	7765	2.51	0.000496604
3	8311	2.61	0.000451181
3	8857	2.71	0.000405825
3	9403	2.81	0.00036134
3	9949	2.91	0.000318365
3	10503	3.01	0.0002774
3	11049	3.11	0.00023882
3	11595	3.21	0.000202887
3	12141	3.31	0.00016977
3	12687	3.41	0.000139558
3	13233	3.51	0.000112271
3	13779	3.61	8.78717e-05
3	14325	3.71	6.628e-05
3	14871	3.81	4.73785e-05
3	15417	3.91	3.1023e-05
3	15971	4.01	1.70493e-05
3	16517	4.11	5.28023e-06
3	17063	4.21	-4.46922e-06
3	17609	4.31	-1.2387e-05
3	18155	4.41	-1.86602e-05
3	18701	4.51	-2.34717e-05
3	19247	4.61	-2.69978e-05
3	19793	4.71	-2.94062e-05
3	20339	4.81	-3.08545e-05
3	20885	4.91	-3.14892e-05
3	21439	5.01	-3.14451e-05
3	21985	5.11	-3.0845e-05
3	22531	5.21	-2.97994e-05
3	23077	5.31	-2.84072e-05
3	23623	5.41	-2.67556e-05
3	24169	5.51	-2.49208e-05
3	24715	5.61	-2.29687e-05
3	25261	5.71	-2.09553e-05
3	25807	5.81	-1.89277e-05
3	26353	5.91	-1.6925e-05
3	26907	6.01	-1.49784e-05
3	27453	6.11	-1.31129e-05
3	27999	6.21	-1.13474e-05
3	28545	6.31	-9.69553e-06
3	29091	6.41	-8.16651e-06
3	29637	6.51	-6.76571e-06
3	30183	6.61	-5.49522e-06
3	30729	6.71	-4.35441e-06
3	31275	6.81	-3.34045e-06
3	31821	6.91	-2.44874e-06
3	32375	7.01	-1.6733e-06
3	32921	7.11	-1.00716e-06
3	33467	7.21	-4.42628e-07
3	34013	7.31	2.84224e-08
3	34559	7.41	4.14339e-07
3	35105	7.51	7.23492e-07
3	35651	7.61	9.6413e-07
3	36197	7.71	1.14424e-06
3	36743	7.81	1.27148e-06
3	37289	7.91	1.35305e-06
3	37843	8.01	1.3957e-06
3	38389	8.11	1.40565e-06
3	38935	8.21	1.3886e-06
3	39481	8.31	1.34971e-06
3	40027	8.41	1.2936e-06
3	40573	8.51	1.22437e-06
3	41119	8.61	1.14561e-06
3	41665	8.71	1.06046e-06
3	42211	8.81	9.71582e-07
3	42757	8.91	8.81246e-07
3	43311	9.01	7.91334e-07
3	43857	9.11	7.03381e-07
3	44403	9.21	6.18613e-07
3	44949	9.31	5.37979e-07
3	45495	9.41	4.62183e-07
3	46041	9.51	3.91714e-07
3	46587	9.61	3.26878e-07
3	47133	9.71	2.67827e-07
3	47679	9.81	2.14581e-07
3	48225	9.91	1.67052e-07
3	48853	10.01	1.25066e-07
3	49406	10.11	8.83794e-08
3	49959	10.21	5.66978e-08
3	50512	10.31	2.96922e-08
3	51065	10.41	7.00453e-09
3	51618	10.51	-1.17325e-08
3	52171	10.61	-2.68933e-08
3	52724	10.71	-3.88482e-08
3	53277	10.81	-4.79581e-08
3	53830	10.91	-5.45704e-08
3	54391	11.01	-5.90177e-08
3	54944	11.11	-6.16069e-08
3	55497	11.21	-6.26265e-08
3	56050	11.31	-6.23395e-08
3	56603	11.41	-6.09859e-08
3	57156	11.51	-5.87811e-08
3	57709	11.61	-5.59183e-08
3	58262	11.71	-5.25674e-08
3	58815	11.81	-4.88761e-08
3	59368	11.91	-4.4971e-08
3	59929	12.01	-4.09599e-08
3	60482	12.11	-3.69354e-08
3	61035	12.21	-3.29713e-08
3	61588	12.31	-2.9128e-08
3	62141	12.41	-2.54531e-08
3	62694	12.51	-2.19821e-08
3	63247	12.61	-1.87399e-08
3	63800	12.71	-1.57428e-08
3	64353	12.81	-1.30029e-08
3	64906	12.91	-1.05217e-08
3	65467	13.01	-8.29772e-09
3	66020	13.11	-6.32454e-09
3	66573	13.21	-4.59224e-09
3	67126	13.31	-3.08802e-09
3	67679	13.41	-1.79838e-09
3	68232	13.51	-7.08411e-10
3	68785	13.61	1.98241e-10
3	69338	13.71	9.37916e-10
3	69891	13.81	1.52767e-09
3	70444	13.91	1.98384e-09
3	71005	14.01	2.32276e-09
3	71558	14.11	2.55937e-09
3	72111	14.21	2.70788e-09
3	72664	14.31	2.78249e-09
3	73217	14.41	2.79243e-09
3	73770	14.51	2.7498e-09
3	74323	14.61	2.66525e-09
3	74876	14.71	2.54872e-09
3	75429	14.81	2.40803e-09
3	75982	14.91	2.24887e-09
3	76543	15.01	2.07763e-09
3	77096	15.11	1.89999e-09
3	77649	15.21	1.72236e-09
3	78202	15.31	1.54472e-09
3	78755	15.41	1.37064e-09
3	79308	15.51	1.20295e-09
3	79861	15.61	1.04379e-09
3	80414	15.71	8.94573e-10
3	80967	15.81	7.56017e-10
3	81520	15.91	6.29541e-10
3	82081	16.01	5.13012e-10
3	82634	16.11	4.09273e-10
3	83187	16.21	3.16902e-10
3	83740	16.31	2.3519e-10
3	84293	16.41	1.63425e-10
3	84846	16.51	1.02318e-10
3	85399	16.61	4.9738e-11
3	85952	16.71	5.68434e-12
3	86505	16.81	-3.05533e-11
3	87058	16.91	-5.8975e-11
3	87619	17.01	-8.10019e-11
3	88172	17.11	-9.80549e-11
3	88725	17.21	-1.11555e-10
3	89278	17.31	-1.18661e-10
3	89831	17.41	-1.23634e-10
3	90384	17.51	-1.23634e-10
3	90937	17.61	-1.23634e-10
3	91490	17.71	-1.21503e-10
3	92043	17.81	-1.14397e-10
3	92596	17.91	-1.07292e-10
3	93157	18.01	-1.00187e-10
3	93710	18.11	-9.30811e-11
3	94263	18.21	-8.59757e-11
3	94816	18.31	-7.88702e-11
3	95369	18.41	-7.17648e-11
3	95922	18.51	-6.46594e-11
3	96475	18.61	-5.7554e-11
3	97028	18.71	-5.04485e-11
3	97581	18.81	-4.33431e-11
3	98134	18.91	-3.62377e-11
3	98695	19.01	-2.91323e-11
3	99248	19.11	-2.20268e-11
3	99801	19.21	-1.7053e-11
3	100354	19.31	-1.49214e-11
3	100907	19.41	-1.35003e-11
3	101460	19.51	-1.27898e-11
3	102013	19.61	-1.13687e-11
3	102566	19.71	-9.9476e-12
3	103119	19.81	-9.23706e-12
3	103672	19.91	-8.52651e-12
3	104233	20.01	-7.81597e-12
3	104786	20.11	-7.10543e-12
3	105339	20.21	-6.39488e-12
3	105892	20.31	-5.68434e-12
3	106445	20.41	-4.9738e-12
3	106998	20.51	-4.26326e-12
3	107551	20.61	-4.26326e-12
3	108104	20.71	-3.55271e-12
3	108657	20.81	-3.55271e-12
3	109210	20.91	-2.84217e-12
3	109771	21.01	-2.84217e-12
3	110324	21.11	-2.84217e-12
3	110877	21.21	-2.13163e-12
3	111430	21.31	-2.13163e-12
3	111983	21.41	-2.13163e-12
3	112536	21.51	-1.42109e-12
3	113089	21.61	-1.42109e-12
3	113642	21.71	-1.42109e-12
3	114195	21.81	-1.42109e-12
3	114748	21.91	-1.42109e-12
3	115309	22.01	-7.10543e-13
3	115862	22.11	-7.10543e-13
3	116415	22.21	-7.10543e-13
3	116968	22.31	-7.10543e-13
3	117521	22.41	-7.10543e-13
3	118074	22.51	-7.10543e-13
3	118627	22.61	-7.10543e-13
3	119180	22.71	-7.10543e-13
3	119733	22.81	-7.10543e-13
3	120286	22.91	-7.10543e-13
3	120847	23.01	0
3	121400	23.11	0
3	121953	23.21	0
3	122506	23.31	0
3	123059	23.41	0
3	123612	23.51	0
3	124165	23.61	0
3	124718	23.71	0
3	125271	23.81	0
3	125824	23.91	0
3	126385	24.01	0
3	126938	24.11	0
3	127491	24.21	0
3	128044	24.31	0
3	128597	24.41	0
3	129150	24.51	0
3	129703	24.61	0
3	130256	24.71	0
3	130809	24.81	0
3	131362	24.91	0
3	131923	25.01	0
3	132476	25.11	0
3	133029	25.21	0
3	133582	25.31	0
3	134135	25.41	0
3	134688	25.51	0
3	135241	25.61	0
3	135794	25.71	0
3	136347	25.81	0
3	136900	25.91	0
3	137461	26.01	0
3	138014	26.11	0
3	138567	26.21	0
3	139120	26.31	0
3	139673	26.41	0
3	140226	26.51	0
3	140779	26.61	0
3	141332	26.71	0
3	141885	26.81	0
3	142438	26.91	0
3	142999	27.01	0
3	143552	27.11	0
3	144105	27.21	0
3	144658	27.31	0
3	145211	27.41	0
3	145764	27.51	0
3	146317	27.61	0
3	146870	27.71	0
3	147423	27.81	0
3	147976	27.91	0
3	148537	28.01	0
3	149090	28.11	0
3	149643	28.21	0
3	150196	28.31	0
3	150749	28.41	0
3	151302	28.51	0
3	151855	28.61	0
3	152408	28.71	0
3	152961	28.81	0
3	153514	28.91	0
3	154075	29.01	0
3	154628	29.11	0
3	155181	29.21	0
3	155734	29.31	0
3	156287	29.41	0
3	156840	29.51	0
3	157393	29.61	0
3	157946	29.71	0
3	158499	29.81	0
3	159052	29.91	0
3	159613	30.01	0
3	160166	30.11	0
3	160719	30.21	0
3	161272	30.31	0
3	161825	30.41	0
3	162378	30.51	0
3	162931	30.61	0
3	163484	30.71	0
3	164037	30.81	0
3	164590	30.91	0
3	165151	31.01	0
3	165704	31.11	0
3	166257	31.21	0
3	166810	31.31	0
3	167363	31.41	0
3	167916	31.51	0
3	168469	31.61	0
3	169022	31.71	0
3	169575	31.81	0
3	170128	31.91	0
3	170689	32.01	0
3	171242	32.11	0
3	171795	32.21	0
3	172348	32.31	0
3	172901	32.41	0
3	173454	32.51	0
3	174007	32.61	0
3	174560	32.71	0
3	175113	32.81	0
3	175666	32.91	0
3	176227	33.01	0
3	176780	33.11	0
3	177333	33.21	0
3	177886	33.31	0
3	178439	33.41	0
3	178992	33.51	0
3	179545	33.61	0
3	180098	33.71	0
3	180651	33.81	0
3	181204	33.91	0
3	181765	34.01	0
3	182318	34.11	0
3	182871	34.21	0
3	183424	34.31	0
3	183977	34.41	0
3	184530	34.51	0
3	185083	34.61	0
3	185636	34.71	0
3	186189	34.81	0
3	186742	34.91	0
3	187303	35.01	0
3	187856	35.11	0
3	188409	35.21	0
3	188962	35.31	0
3	189515	35.41	0
3	190068	35.51	0
3	190621	35.61	0
3	191174	35.71	0
3	191727	35.81	0
3	192280	35.91	0
3	192841	36.01	0
3	193394	36.11	0
3	193947	36.21	0
3	194500	36.31	0
3	195146	36.41	0
3	195698	36.51	0
3	196250	36.61	0
3	196802	36.71	0
3	197354	36.81	0
3	197906	36.91	0
3	198466	37.01	0
3	199018	37.11	0
3	199570	37.21	0
3	200122	37.31	0
3	200674	37.41	0
3	201226	37.51	0
3	201778	37.61	0
3	202330	37.71	0
3	202882	37.81	0
3	203434	37.91	0
3	203994	38.01	0
3	204546	38.11	0
3	205098	38.21	0
3	205650	38.31	0
3	206202	38.41	0
3	206754	38.51	0
3	207306	38.61	0
3	207858	38.71	0
3	208410	38.81	0
3	208962	38.91	0
3	209522	39.01	0
3	210074	39.11	0
3	210626	39.21	0
3	211178	39.31	0
3	211730	39.41	0
3	212282	39.51	0
3	212834	39.61	0
3	213386	39.71	0
3	213938	39.81	0
3	214490	39.91	0
3	215050	40.01	0
3	215602	40.11	0
3	216154	40.21	0
3	216706	40.31	0
3	217258	40.41	0
3	217810	40.51	0
3	218362	40.61	0
3	218914	40.71	0
3	219466	40.81	0
3	220018	40.91	0
3	220578	41.01	0
3	221130	41.11	0
3	221682	41.21	0
3	222234	41.31	0
3	222786	41.41	0
3	223431	41.51	0
3	223982	41.61	0
3	224533	41.71	0
3	225084	41.81	0
3	225635	41.91	0
3	226194	42.01	0
3	226745	42.11	0
3	227296	42.21	0
3	227847	42.31	0
3	228398	42.41	0
3	228949	42.51	0
3	229500	42.61	0
3	230051	42.71	0
3	230602	42.81	0
3	231153	42.91	0
3	231712	43.01	0
3	232263	43.11	0
3	232814	43.21	0
3	233365	43.31	0
3	233916	43.41	0
3	234467	43.51	0
3	235018	43.61	0
3	235569	43.71	0
3	236120	43.81	0
3	236671	43.91	0
3	237230	44.01	0
3	237781	44.11	0
3	238332	44.21	0
3	238883	44.31	0
3	239434	44.41	0
3	239985	44.51	0
3	240536	44.61	0
3	241087	44.71	0
3	241638	44.81	0
3	242189	44.91	0
3	242748	45.01	0
3	243299	45.11	0
3	243850	45.21	0
3	244401	45.31	0
3	244952	45.41	0
3	245503	45.51	0
3	246054	45.61	0
3	246605	45.71	0
3	247156	45.81	0
3	247707	45.91	0
3	248266	46.01	0
3	248817	46.11	0
3	249461	46.21	0
3	250011	46.31	0
3	250561	46.41	0
3	251111	46.51	0
3	251661	46.61	0
3	252211	46.71	0
3	252761	46.81	0
3	253311	46.91	0
3	253869	47.01	0
3	254419	47.11	0
3	254969	47.21	0
3	255519	47.31	0
3	256069	47.41	0
3	256619	47.51	0
3	257169	47.61	0
3	257719	47.71	0
3	258269	47.81	0
3	258819	47.91	0
3	259377	48.01	0
3	259927	48.11	0
3	260477	48.21	0
3	261027	48.31	0
3	261577	48.41	0
3	262127	48.51	0
3	262677	48.61	0
3	263227	48.71	0
3	263777	48.81	0
3	264327	48.91	0
3	264885	49.01	0
3	265435	49.11	0
3	265985	49.21	0
3	266535	49.31	0
3	267085	49.41	0
3	267635	49.51	0
3	268185	49.61	0
3	268735	49.71	0
3	269285	49.81	0
3	269835	49.91	0
3	270393	50.01	0
3	270943	50.11	0
3	271493	50.21	0
3	272043	50.31	0
3	272593	50.41	0
3	273143	50.51	0
3	273693	50.61	0
3	274336	50.71	0
3	274885	50.81	0
3	275434	50.91	0
3	275991	51.01	0
3	276540	51.11	0
3	277089	51.21	0
3	277638	51.31	0
3	278187	51.41	0
3	278736	51.51	0
3	279285	51.61	0
3	279834	51.71	0
3	280383	51.81	0
3	280932	51.91	0
3	281489	52.01	0
3	282038	52.11	0
3	282587	52.21	0
3	283136	52.31	0
3	283685	52.41	0
3	284234	52.51	0
3	284783	52.61	0
3	285332	52.71	0
3	285881	52.81	0
3	286430	52.91	0
3	286987	53.01	0
3	287536	53.11	0
3	288085	53.21	0
3	288634	53.31	0
3	289183	53.41	0
3	289732	53.51	0
3	290281	53.61	0
3	290830	53.71	0
3	291379	53.81	0
3	291928	53.91	0
3	292485	54.01	0
3	293034	54.11	0
3	293583	54.21	0
3	294132	54.31	0
3	294681	54.41	0
3	295230	54.51	0
3	295779	54.61	0
3	296328	54.71	0
3	296877	54.81	0
3	297519	54.91	0
3	298075	55.01	0
3	298623	55.11	0
3	299171	55.21	0
3	299719	55.31	0
3	300267	55.41	0
3	300815	55.51	0
3	301363	55.61	0
3	301911	55.71	0
3	302459	55.81	0
3	303007	55.91	0
3	303563	56.01	0
3	304111	56.11	0
3	304659	56.21	0
3	305207	56.31	0
3	305755	56.41	0
3	306303	56.51	0
3	306851	56.61	0
3	307399	56.71	0
3	307947	56.81	0
3	308495	56.91	0
3	309051	57.01	0
3	309599	57.11	0
3	310147	57.21	0
3	310695	57.31	0
3	311243	57.41	0
3	311791	57.51	0
3	312339	57.61	0
3	312887	57.71	0
3	313435	57.81	0
3	313983	57.91	0
3	314539	58.01	0
3	315087	58.11	0
3	315635	58.21	0
3	316183	58.31	0
3	316731	58.41	0
3	317279	58.51	0
3	317827	58.61	0
3	318375	58.71	0
3	318923	58.81	0
3	319471	58.91	0
3	320120	59.01	0
3	320667	59.11	0
3	321214	59.21	0
3	321761	59.31	0
3	322308	59.41	0
3	322855	59.51	0
3	323402	59.61	0
3	323949	59.71	0
3	324496	59.81	0
3	325043	59.91	0
3	325598	60.01	0
3	326145	60.11	0
3	326692	60.21	0
3	327239	60.31	0
3	327786	60.41	0
3	328333	60.51	0
3	328880	60.61	0
3	329427	60.71	0
3	329974	60.81	0
3	330521	60.91	0
3	331076	61.01	0
3	331623	61.11	0
3	332170	61.21	0
3	332717	61.31	0
3	333264	61.41	0
3	333811	61.51	0
3	334358	61.61	0
3	334905	61.71	0
3	335452	61.81	0
3	335999	61.91	0
3	336554	62.01	0
3	337101	62.11	0
3	337648	62.21	0
3	338195	62.31	0
3	338742	62.41	0
3	339289	62.51	0
3	339836	62.61	0
3	340383	62.71	0
3	340930	62.81	0
3	341477	62.91	0
3	342802	63.01	0
3	343348	63.11	0
3	343894	63.21	0
3	344440	63.31	0
3	344986	63.41	0
3	345532	63.51	0
3	346078	63.61	0
3	346624	63.71	0
3	347170	63.81	0
3	347716	63.91	0
3	348270	64.01	0
3	348816	64.11	0
3	349362	64.21	0
3	349908	64.31	0
3	350454	64.41	0
3	351000	64.51	0
3	351546	64.61	0
3	352092	64.71	0
3	352638	64.81	0
3	353184	64.91	0
3	353738	65.01	0
3	354284	65.11	0
3	354830	65.21	0
3	355376	65.31	0
3	355922	65.41	0
3	356468	65.51	0
3	357014	65.61	0
3	357560	65.71	0
3	358106	65.81	0
3	358652	65.91	0
3	359206	66.01	0
3	359752	66.11	0
3	360298	66.21	0
3	360844	66.31	0
3	361390	66.41	0
3	361936	66.51	0
3	362482	66.61	0
3	363028	66.71	0
3	363574	66.81	0
3	364120	66.91	0
3	364674	67.01	0
3	365220	67.11	0
3	365766	67.21	0
3	366312	67.31	0
3	366858	67.41	0
3	367404	67.51	0
3	367950	67.61	0
3	368496	67.71	0
3	369042	67.81	0
3	369588	67.91	0
3	370142	68.01	0
3	370688	68.11	0
3	371234	68.21	0
3	371780	68.31	0
3	372326	68.41	0
3	372872	68.51	0
3	373418	68.61	0
3	373964	68.71	0
3	374510	68.81	0
3	375056	68.91	0
3	375610	69.01	0
3	376156	69.11	0
3	376702	69.21	0
3	377248	69.31	0
3	377794	69.41	0
3	378340	69.51	0
3	378886	69.61	0
3	379432	69.71	0
3	379978	69.81	0
3	380524	69.91	0
3	381078	70.01	0
3	381624	70.11	0
3	382170	70.21	0
3	382716	70.31	0
3	383262	70.41	0
3	383808	70.51	0
3	384354	70.61	0
3	384900	70.71	0
3	385446	70.81	0
3	385992	70.91	0
3	386546	71.01	0
3	387092	71.11	0
3	387638	71.21	0
3	388184	71.31	0
3	388730	71.41	0
3	389276	71.51	0
3	389822	71.61	0
3	390368	71.71	0
3	390914	71.81	0
3	391460	71.91	0
3	392014	72.01	0
3	392560	72.11	0
3	393106	72.21	0
3	393652	72.31	0
3	394198	72.41	0
3	394744	72.51	0
3	395290	72.61	0
3	395836	72.71	0
3	396382	72.81	0
3	396928	72.91	0
3	397482	73.01	0
3	398028	73.11	0
3	398574	73.21	0
3	399120	73.31	0
3	399666	73.41	0
3	400212	73.51	0
3	400758	73.61	0
3	401304	73.71	0
3	401850	73.81	0
3	402396	73.91	0
3	402950	74.01	0
3	403496	74.11	0
3	404042	74.21	0
3	404588	74.31	0
3	405134	74.41	0
3	405680	74.51	0
3	406226	74.61	0
3	406772	74.71	0
3	407318	74.81	0
3	407864	74.91	0
3	408418	75.01	0
3	408964	75.11	0
3	409510	75.21	0
3	410056	75.31	0
3	410602	75.41	0
3	411148	75.51	0
3	411694	75.61	0
3	412240	75.71	0
3	412786	75.81	0
3	413332	75.91	0
3	413886	76.01	0
3	414432	76.11	0
3	414978	76.21	0
3	415524	76.31	0
3	416070	76.41	0
3	416616	76.51	0
3	417162	76.61	0
3	417708	76.71	0
3	418254	76.81	0
3	418800	76.91	0
3	419354	77.01	0
3	419900	77.11	0
3	420446	77.21	0
3	420992	77.31	0
3	421538	77.41	0
3	422084	77.51	0
3	422630	77.61	0
3	423176	77.71	0
3	423722	77.81	0
3	424268	77.91	0
3	424822	78.01	0
3	425368	78.11	0
3	425914	78.21	0
3	426460	78.31	0
3	427006	78.41	0
3	427552	78.51	0
3	428098	78.61	0
3	428644	78.71	0
3	429190	78.81	0
3	429736	78.91	0
3	430290	79.01	0
3	430836	79.11	0
3	431382	79.21	0
3	431928	79.31	0
3	432474	79.41	0
3	433020	79.51	0
3	433566	79.61	0
3	434112	79.71	0
3	434658	79.81	0
3	435204	79.91	0
3	435758	80.01	0
3	436304	80.11	0
3	436850	80.21	0
3	437396	80.31	0
3	437942	80.41	0
3	438488	80.51	0
3	439034	80.61	0
3	439580	80.71	0
3	440126	80.81	0
3	440672	80.91	0
3	441226	81.01	0
3	441772	81.11	0
3	442318	81.21	0
3	442864	81.31	0
3	443410	81.41	0
3	443956	81.51	0
3	444502	81.61	0
3	445048	81.71	0
3	445594	81.81	0
3	446140	81.91	0
3	446694	82.01	0
3	447240	82.11	0
3	447786	82.21	0
3	448332	82.31	0
3	448878	82.41	0
3	449424	82.51	0
3	449970	82.61	0
3	450516	82.71	0
3	451062	82.81	0
3	451608	82.91	0
3	452162	83.01	0
3	452708	83.11	0
3	453254	83.21	0
3	453800	83.31	0
3	454346	83.41	0
3	454892	83.51	0
3	455438	83.61	0
3	455984	83.71	0
3	456530	83.81	0
3	457076	83.91	0
3	457630	84.01	0
3	458176	84.11	0
3	458722	84.21	0
3	459268	84.31	0
3	459814	84.41	0
3	460360	84.51	0
3	460906	84.61	0
3	461452	84.71	0
3	461998	84.81	0
3	462544	84.91	0
3	463098	85.01	0
3	463644	85.11	0
3	464190	85.21	0
3	464736	85.31	0
3	465282	85.41	0
3	465828	85.51	0
3	466374	85.61	0
3	466920	85.71	0
3	467466	85.81	0
3	468012	85.91	0
3	468566	86.01	0
3	469112	86.11	0
3	469658	86.21	0
3	470204	86.31	0
3	470750	86.41	0
3	471296	86.51	0
3	471842	86.61	0
3	472388	86.71	0
3	472934	86.81	0
3	473480	86.91	0
3	474034	87.01	0
3	474580	87.11	0
3	475126	87.21	0
3	475672	87.31	0
3	476218	87.41	0
3	476764	87.51	0
3	477310	87.61	0
3	477856	87.71	0
3	478402	87.81	0
3	478948	87.91	0
3	479502	88.01	0
3	480048	88.11	0
3	480594	88.21	0
3	481140	88.31	0
3	481686	88.41	0
3	482232	88.51	0
3	482778	88.61	0
3	483324	88.71	0
3	483870	88.81	0
3	484416	88.91	0
3	484970	89.01	0
3	485516	89.11	0
3	486062	89.21	0
3	486608	89.31	0
3	487154	89.41	0
3	487700	89.51	0
3	488246	89.61	0
3	488792	89.71	0
3	489338	89.81	0
3	489884	89.91	0
3	490438	90.01	0
3	490984	90.11	0
3	491530	90.21	0
3	492076	90.31	0
3	492622	90.41	0
3	493168	90.51	0
3	493714	90.61	0
3	494260	90.71	0
3	494806	90.81	0
3	495352	90.91	0
3	495906	91.01	0
3	496452	91.11	0
3	496998	91.21	0
3	497544	91.31	0
3	498090	91.41	0
3	498636	91.51	0
3	499182	91.61	0
3	499728	91.71	0
3	500274	91.81	0
3	500820	91.91	0
3	501374	92.01	0
3	501920	92.11	0
3	502466	92.21	0
3	503012	92.31	0
3	503558	92.41	0
3	504104	92.51	0
3	504650	92.61	0
3	505196	92.71	0
3	505742	92.81	0
3	506288	92.91	0
3	506842	93.01	0
3	507388	93.11	0
3	507934	93.21	0
3	508480	93.31	0
3	509026	93.41	0
3	509572	93.51	0
3	510118	93.61	0
3	510664	93.71	0
3	511210	93.81	0
3	511756	93.91	0
3	512310	94.01	0
3	512856	94.11	0
3	513402	94.21	0
3	513948	94.31	0
3	514494	94.41	0
3	515040	94.51	0
3	515586	94.61	0
3	516132	94.71	0
3	516678	94.81	0
3	517224	94.91	0
3	517778	95.01	0
3	518324	95.11	0
3	518870	95.21	0
3	519416	95.31	0
3	519962	95.41	0
3	520508	95.51	0
3	521054	95.61	0
3	521600	95.71	0
3	522146	95.81	0
3	522692	95.91	0
3	523246	96.01	0
3	523792	96.11	0
3	524338	96.21	0
3	524884	96.31	0
3	525430	96.41	0
3	525976	96.51	0
3	526522	96.61	0
[...]
105	435512	80	0.024980065377
105	440980	81	0.024967071459
105	446448	82	0.024967082014
105	451916	83	0.024967096391
105	457384	84	0.024967114136
105	462852	85	0.024980134643
105	468320	86	0.024967157147
105	473788	87	0.024967184614
105	479256	88	0.024967253392
105	484724	89	0.02496728413
105	490192	90	0.024980311187
105	495660	91	0.02496731066
105	501128	92	0.024967176131
105	506596	93	0.024966917455
105	512064	94	0.024979634867
105	517532	95	0.024966347818
105	523000	96	0.024966062522
105	528468	97	0.024978805038
105	533936	98	0.024965517789
105	539404	99	0.024965230074
105	544872	100	0.024977940766
106	4789	2	0
106	10257	3	0
106	15725	4	0
106	21193	5	0
106	26661	6	0
106	32129	7	0
106	37597	8	0
106	43065	9	0
106	48534	10	0
106	54138	11	0
106	59676	12	0
106	65214	13	0
106	70752	14	0
106	76290	15	0
106	81828	16	0
106	87366	17	0
106	92904	18	0
106	98442	19	0
106	103980	20	0
106	109518	21	0
106	115056	22	0
106	120594	23	0
106	126132	24	0
106	131670	25	0
106	137208	26	0
106	142746	27	0
106	148284	28	0
106	153822	29	0
106	159360	30	0
106	164898	31	0
106	170436	32	0
106	175974	33	0
106	181512	34	0
106	187050	35	0
106	192588	36	0
106	198214	37	0
106	203742	38	0
106	209270	39	0
106	214798	40	0
106	220326	41	0
106	225943	42	0
106	231461	43	0
106	236979	44	0
106	242497	45	0
106	248015	46	0
106	253619	47	0
106	259127	48	0
106	264635	49	0
106	270143	50	0
106	275742	51	0
106	281240	52	0
106	286738	53	0
106	292236	54	0
106	297827	55	0
106	303315	56	0
106	308803	57	0
106	314291	58	0
106	319779	59	0
106	325351	60	0
106	330829	61	0
106	336307	62	0
106	341785	63	0
106	348024	64	0
106	353492	65	0
106	358960	66	0
106	364428	67	0
106	369896	68	0
106	375364	69	0
106	380832	70	0
106	386300	71	0
106	391768	72	0
106	397236	73	0
106	402704	74	0
106	408172	75	0
106	413640	76	0
106	419108	77	0
106	424576	78	0
106	430044	79	0
106	435512	80	0
106	440980	81	0
106	446448	82	0
106	451916	83	0
106	457384	84	0
106	462852	85	0
106	468320	86	0
106	473788	87	0
106	479256	88	0
106	484724	89	0
106	490192	90	0
106	495660	91	0
106	501128	92	0
106	506596	93	0
106	512064	94	0
106	517532	95	0
106	523000	96	0
106	528468	97	0
106	533936	98	0
106	539404	99	0
106	544872	100	0
107	4790	2	5
107	10258	3	5
107	15726	4	5
107	21194	5	5
107	26662	6	5
107	32130	7	5
107	37598	8	5
107	43066	9	5
107	48535	10	5
107	54139	11	5
107	59677	12	5
107	65215	13	5
107	70753	14	5
107	76291	15	5
107	81829	16	5
107	87367	17	5
107	92905	18	5
107	98443	19	5
107	103981	20	5
107	109519	21	5
107	115057	22	5
107	120595	23	5
107	126133	24	5
107	131671	25	5
107	137209	26	5
107	142747	27	5
107	148285	28	5
107	153823	29	5
107	159361	30	5
107	164899	31	5
107	170437	32	5
107	175975	33	5
107	181513	34	5
107	187051	35	5
107	192589	36	5
107	198215	37	5
107	203743	38	5
107	209271	39	5
107	214799	40	5
107	220327	41	5
107	225944	42	5
107	231462	43	5
107	236980	44	5
107	242498	45	5
107	248016	46	5
107	253620	47	5
107	259128	48	5
107	264636	49	5
107	270144	50	5
107	275743	51	5
107	281241	52	5
107	286739	53	5
107	292237	54	5
107	297828	55	5
107	303316	56	5
107	308804	57	5
107	314292	58	5
107	319780	59	5
107	325352	60	5
107	330830	61	5
107	336308	62	5
107	341786	63	5
107	348025	64	5
107	353493	65	5
107	358961	66	5
107	364429	67	5
107	369897	68	5
107	375365	69	5
107	380833	70	5
107	386301	71	5
107	391769	72	5
107	397237	73	5
107	402705	74	5
107	408173	75	5
107	413641	76	5
107	419109	77	5
107	424577	78	5
107	430045	79	5
107	435513	80	5
107	440981	81	5
107	446449	82	5
107	451917	83	5
107	457385	84	5
107	462853	85	5
107	468321	86	5
107	473789	87	5
107	479257	88	5
107	484725	89	5
107	490193	90	5
107	495661	91	5
107	501129	92	5
107	506597	93	5
107	512065	94	5
107	517533	95	5
107	523001	96	5
107	528469	97	5
107	533937	98	5
107	539405	99	5
107	544873	100	5
108	4790	2	0.021463536907
108	10258	3	0.024964796364
108	15726	4	0.02497779636
108	21194	5	0.024964796355
108	26662	6	0.024977796343
108	32130	7	0.02496479634
108	37598	8	0.02496479634
108	43066	9	0.02497779634
108	48535	10	0.02496479634
108	54139	11	0.025022755345
108	59677	12	0.024964782536
108	65215	13	0.024977747476
108	70753	14	0.024964690633
108	76291	15	0.024977615273
108	81829	16	0.024964525076
108	87367	17	0.024964423553
108	92905	18	0.024977313912
108	98443	19	0.024964198996
108	103981	20	0.024977081264
108	109519	21	0.024963962786
108	115057	22	0.024976845282
108	120595	23	0.024963730123
108	126133	24	0.024976618381
108	131671	25	0.024963510898
108	137209	26	0.024976408246
108	142747	27	0.024963310843
108	148285	28	0.024976218918
108	153823	29	0.024963132606
108	159361	30	0.024976051916
108	164899	31	0.024962976761
108	170437	32	0.024975907014
108	175975	33	0.024962842491
108	181513	34	0.024975782962
108	187051	35	0.024962728187
108	192589	36	0.024975677897
108	198215	37	0.025079572462
108	203743	38	0.024975589721
108	209271	39	0.024962551294
108	214799	40	0.024975516283
108	220327	41	0.024975484438
108	225944	42	0.025079395769
108	231462	43	0.024962429278
108	236980	44	0.024975405512
108	242498	45	0.024962384006
108	248016	46	0.024975364569
108	253620	47	0.025079168051
108	259128	48	0.024975331193
108	264636	49	0.024962316931
108	270144	50	0.024975304091
108	275743	51	0.025079053653
108	281241	52	0.024975282153
108	286739	53	0.024962272826
108	292237	54	0.024975264459
108	297828	55	0.025112256953
108	303316	56	0.024975250232
108	308804	57	0.024962244198
108	314292	58	0.024975238807
108	319780	59	0.024975233981
108	325352	60	0.025078870938
108	330830	61	0.024975225816
108	336308	62	0.024962222368
108	341786	63	0.024975219298
108	348025	64	0.025889294412
108	353493	65	0.024975029909
108	358961	66	0.024974664293
108	364429	67	0.024960971762
108	369897	68	0.024972993184
108	375365	69	0.024971878076
108	380833	70	0.024970828406
108	386301	71	0.024969889599
108	391769	72	0.02496911262
108	397237	73	0.024968469101
108	402705	74	0.02496795139
108	408173	75	0.024967556119
108	413641	76	0.02498028387
108	419109	77	0.02496713368
108	424577	78	0.02496708031
108	430045	79	0.024967071546
108	435513	80	0.024980075759
108	440981	81	0.024967084135
108	446449	82	0.024967095709
108	451917	83	0.02496711056
108	457385	84	0.024967128505
108	462853	85	0.024980149072
108	468321	86	0.024967171566
108	473789	87	0.024967196912
108	479257	88	0.024967267897
108	484725	89	0.024967298537
108	490193	90	0.024980325503
108	495661	91	0.024967324889
108	501129	92	0.02496719028
108	506597	93	0.024966931531
108	512065	94	0.024979648875
108	517533	95	0.024966361764
108	523001	96	0.024966075743
108	528469	97	0.024978818909
108	533937	98	0.02496553161
108	539405	99	0.02496524385
108	544873	100	0.0249779545
109	4790	2	0
109	10258	3	0
109	15726	4	0
109	21194	5	0
109	26662	6	0
109	32130	7	0
109	37598	8	0
109	43066	9	0
109	48535	10	0
109	54139	11	0
109	59677	12	0
109	65215	13	0
109	70753	14	0
109	76291	15	0
109	81829	16	0
109	87367	17	0
109	92905	18	0
109	98443	19	0
109	103981	20	0
109	109519	21	0
109	115057	22	0
109	120595	23	0
109	126133	24	0
109	131671	25	0
109	137209	26	0
109	142747	27	0
109	148285	28	0
109	153823	29	0
109	159361	30	0
109	164899	31	0
109	170437	32	0
109	175975	33	0
109	181513	34	0
109	187051	35	0
109	192589	36	0
109	198215	37	0
109	203743	38	0
109	209271	39	0
109	214799	40	0
109	220327	41	0
109	225944	42	0
109	231462	43	0
109	236980	44	0
109	242498	45	0
109	248016	46	0
109	253620	47	0
109	259128	48	0
109	264636	49	0
109	270144	50	0
109	275743	51	0
109	281241	52	0
109	286739	53	0
109	292237	54	0
109	297828	55	0
109	303316	56	0
109	308804	57	0
109	314292	58	0
109	319780	59	0
109	325352	60	0
109	330830	61	0
109	336308	62	0
109	341786	63	0
109	348025	64	0
109	353493	65	0
109	358961	66	0
109	364429	67	0
109	369897	68	0
109	375365	69	0
109	380833	70	0
109	386301	71	0
109	391769	72	0
109	397237	73	0
109	402705	74	0
109	408173	75	0
109	413641	76	0
109	419109	77	0
109	424577	78	0
109	430045	79	0
109	435513	80	0
109	440981	81	0
109	446449	82	0
109	451917	83	0
109	457385	84	0
109	462853	85	0
109	468321	86	0
109	473789	87	0
109	479257	88	0
109	484725	89	0
109	490193	90	0
109	495661	91	0
109	501129	92	0
109	506597	93	0
109	512065	94	0
109	517533	95	0
109	523001	96	0
109	528469	97	0
109	533937	98	0
109	539405	99	0
109	544873	100	0
110	4791	2	6
110	10259	3	6
110	15727	4	6
110	21195	5	6
110	26663	6	6
110	32131	7	6
110	37599	8	6
110	43067	9	6
110	48536	10	6
110	54140	11	6
110	59678	12	6
110	65216	13	6
110	70754	14	6
110	76292	15	6
110	81830	16	6
110	87368	17	6
110	92906	18	6
110	98444	19	6
110	103982	20	6
110	109520	21	6
110	115058	22	6
110	120596	23	6
110	126134	24	6
110	131672	25	6
110	137210	26	6
110	142748	27	6
110	148286	28	6
110	153824	29	6
110	159362	30	6
110	164900	31	6
110	170438	32	6
110	175976	33	6
110	181514	34	6
110	187052	35	6
110	192590	36	6
110	198216	37	6
110	203744	38	6
110	209272	39	6
110	214800	40	6
110	220328	41	6
110	225945	42	6
110	231463	43	6
110	236981	44	6
110	242499	45	6
110	248017	46	6
110	253621	47	6
110	259129	48	6
110	264637	49	6
110	270145	50	6
110	275744	51	6
110	281242	52	6
110	286740	53	6
110	292238	54	6
110	297829	55	6
110	303317	56	6
110	308805	57	6
110	314293	58	6
110	319781	59	6
110	325353	60	6
110	330831	61	6
110	336309	62	6
110	341787	63	6
110	348026	64	6
110	353494	65	6
110	358962	66	6
110	364430	67	6
110	369898	68	6
110	375366	69	6
110	380834	70	6
110	386302	71	6
110	391770	72	6
110	397238	73	6
110	402706	74	6
110	408174	75	6
110	413642	76	6
110	419110	77	6
110	424578	78	6
110	430046	79	6
110	435514	80	6
110	440982	81	6
110	446450	82	6
110	451918	83	6
110	457386	84	6
110	462854	85	6
110	468322	86	6
110	473790	87	6
110	479258	88	6
110	484726	89	6
110	490194	90	6
110	495662	91	6
110	501130	92	6
110	506598	93	6
110	512066	94	6
110	517534	95	6
110	523002	96	6
110	528470	97	6
110	533938	98	6
110	539406	99	6
110	544874	100	6
111	4791	2	0.021463516893
111	10259	3	0.024964796364
111	15727	4	0.02497779636
111	21195	5	0.024964796355
111	26663	6	0.024977796343
111	32131	7	0.02496479634
111	37599	8	0.02496479634
111	43067	9	0.02497779634
111	48536	10	0.02496479634
111	54140	11	0.025022755346
111	59678	12	0.024964782529
111	65216	13	0.024977747446
111	70754	14	0.024964690574
111	76292	15	0.024977615178
111	81830	16	0.024964524943
111	87368	17	0.024964423381
111	92906	18	0.024977313701
111	98444	19	0.024964198749
111	103982	20	0.024977080984
111	109520	21	0.024963962477
111	115058	22	0.024976844948
111	120596	23	0.02496372977
111	126134	24	0.024976618014
111	131672	25	0.024963510521
111	137210	26	0.024976407864
111	142748	27	0.02496331046
111	148286	28	0.024976218538
111	153824	29	0.024963132232
111	159362	30	0.024976051551
111	164900	31	0.024962976407
111	170438	32	0.024975906672
111	175976	33	0.024962842164
111	181514	34	0.024975782651
111	187052	35	0.024962727891
111	192590	36	0.024975677617
111	198216	37	0.025079572199
111	203744	38	0.024975589475
111	209272	39	0.024962551063
111	214800	40	0.024975516069
111	220328	41	0.024975484238
111	225945	42	0.025079395584
111	231463	43	0.024962429108
111	236981	44	0.024975405354
111	242499	45	0.024962383861
111	248017	46	0.024975364436
111	253621	47	0.025079167929
111	259129	48	0.024975331081
111	264637	49	0.024962316829
111	270145	50	0.024975303998
111	275744	51	0.025079053568
111	281242	52	0.024975282076
111	286740	53	0.024962272756
111	292238	54	0.024975264396
111	297829	55	0.025078958099
111	303317	56	0.02497525018
111	308805	57	0.024962244151
111	314293	58	0.024975238764
111	319781	59	0.024975233943
111	325353	60	0.025112229637
111	330831	61	0.024975225785
111	336309	62	0.02496222234
111	341787	63	0.024975219273
111	348026	64	0.025889288151
111	353494	65	0.024975034375
111	358962	66	0.024974671268
111	364430	67	0.024960973185
111	369898	68	0.024972985218
111	375366	69	0.024971853508
111	380834	70	0.024970807725
111	386302	71	0.024969873118
111	391770	72	0.024969101853
111	397238	73	0.024968463302
111	402706	74	0.024967950568
111	408174	75	0.024967560274
111	413642	76	0.024980292995
111	419110	77	0.024967147482
111	424578	78	0.024967096647
111	430046	79	0.024967088233
111	435514	80	0.024980091976
111	440982	81	0.02496709914
111	446450	82	0.024967103593
111	451918	83	0.024967100625
111	457386	84	0.024967113232
111	462854	85	0.024980132935
111	468322	86	0.02496715517
111	473790	87	0.02496718112
111	479258	88	0.024967251219
111	484726	89	0.024967281858
111	490194	90	0.024980308825
111	495662	91	0.024967308211
111	501130	92	0.024967173602
111	506598	93	0.024966914853
111	512066	94	0.024979632196
111	517534	95	0.024966345086
111	523002	96	0.024966058807
111	528470	97	0.024978802248
111	533938	98	0.024965514947
111	539406	99	0.024965227185
111	544874	100	0.024977937833
112	4791	2	0
112	10259	3	0
112	15727	4	0
112	21195	5	0
112	26663	6	0
112	32131	7	0
112	37599	8	0
112	43067	9	0
112	48536	10	0
112	54140	11	0
112	59678	12	0
112	65216	13	0
112	70754	14	0
112	76292	15	0
112	81830	16	0
112	87368	17	0
112	92906	18	0
112	98444	19	0
112	103982	20	0
112	109520	21	0
112	115058	22	0
112	120596	23	0
112	126134	24	0
112	131672	25	0
112	137210	26	0
112	142748	27	0
112	148286	28	0
112	153824	29	0
112	159362	30	0
112	164900	31	0
112	170438	32	0
112	175976	33	0
112	181514	34	0
112	187052	35	0
112	192590	36	0
112	198216	37	0
112	203744	38	0
112	209272	39	0
112	214800	40	0
112	220328	41	0
112	225945	42	0
112	231463	43	0
112	236981	44	0
112	242499	45	0
112	248017	46	0
112	253621	47	0
112	259129	48	0
112	264637	49	0
112	270145	50	0
112	275744	51	0
112	281242	52	0
112	286740	53	0
112	292238	54	0
112	297829	55	0
112	303317	56	0
112	308805	57	0
112	314293	58	0
112	319781	59	0
112	325353	60	0
112	330831	61	0
112	336309	62	0
112	341787	63	0
112	348026	64	0
112	353494	65	0
112	358962	66	0
112	364430	67	0
112	369898	68	0
112	375366	69	0
112	380834	70	0
112	386302	71	0
112	391770	72	0
112	397238	73	0
112	402706	74	0
112	408174	75	0
112	413642	76	0
112	419110	77	0
112	424578	78	0
112	430046	79	0
112	435514	80	0
112	440982	81	0
112	446450	82	0
112	451918	83	0
112	457386	84	0
112	462854	85	0
112	468322	86	0
112	473790	87	0
112	479258	88	0
112	484726	89	0
112	490194	90	0
112	495662	91	0
112	501130	92	0
112	506598	93	0
112	512066	94	0
112	517534	95	0
112	523002	96	0
112	528470	97	0
112	533938	98	0
112	539406	99	0
112	544874	100	0
113	4792	2	7
113	10260	3	7
113	15728	4	7
113	21196	5	7
113	26664	6	7
113	32132	7	7
113	37600	8	7
113	43068	9	7
113	48537	10	7
113	54141	11	7
113	59679	12	7
113	65217	13	7
113	70755	14	7
113	76293	15	7
113	81831	16	7
113	87369	17	7
113	92907	18	7
113	98445	19	7
113	103983	20	7
113	109521	21	7
113	115059	22	7
113	120597	23	7
113	126135	24	7
113	131673	25	7
113	137211	26	7
113	142749	27	7
113	148287	28	7
113	153825	29	7
113	159363	30	7
113	164901	31	7
113	170439	32	7
113	175977	33	7
113	181515	34	7
113	187053	35	7
113	192591	36	7
113	198217	37	7
113	203745	38	7
113	209273	39	7
113	214801	40	7
113	220329	41	7
113	225946	42	7
113	231464	43	7
113	236982	44	7
113	242500	45	7
113	248018	46	7
113	253622	47	7
113	259130	48	7
113	264638	49	7
113	270146	50	7
113	275745	51	7
113	281243	52	7
113	286741	53	7
113	292239	54	7
113	297830	55	7
113	303318	56	7
113	308806	57	7
113	314294	58	7
113	319782	59	7
113	325354	60	7
113	330832	61	7
113	336310	62	7
113	341788	63	7
113	348027	64	7
113	353495	65	7
113	358963	66	7
113	364431	67	7
113	369899	68	7
113	375367	69	7
113	380835	70	7
113	386303	71	7
113	391771	72	7
113	397239	73	7
113	402707	74	7
113	408175	75	7
113	413643	76	7
113	419111	77	7
113	424579	78	7
113	430047	79	7
113	435515	80	7
113	440983	81	7
113	446451	82	7
113	451919	83	7
113	457387	84	7
113	462855	85	7
113	468323	86	7
113	473791	87	7
113	479259	88	7
113	484727	89	7
113	490195	90	7
113	495663	91	7
113	501131	92	7
113	506599	93	7
113	512067	94	7
113	517535	95	7
113	523003	96	7
113	528471	97	7
113	533939	98	7
113	539407	99	7
113	544875	100	7
114	4792	2	0.021463496879
114	10260	3	0.024964796364
114	15728	4	0.02497779636
114	21196	5	0.024964796355
114	26664	6	0.024977796343
114	32132	7	0.02496479634
114	37600	8	0.02496479634
114	43068	9	0.02497779634
114	48537	10	0.02496479634
114	54141	11	0.025022755343
114	59679	12	0.024964782521
114	65217	13	0.024977747429
114	70755	14	0.02496469054
114	76293	15	0.024977615123
114	81831	16	0.024964524861
114	87369	17	0.024964423269
114	92907	18	0.024977313557
114	98445	19	0.024964198573
114	103983	20	0.024977080776
114	109521	21	0.02496396224
114	115059	22	0.024976844684
114	120597	23	0.024963729481
114	126135	24	0.024976617704
114	131673	25	0.024963510196
114	137211	26	0.024976407525
114	142749	27	0.024963310113
114	148287	28	0.024976218185
114	153825	29	0.024963131877
114	159363	30	0.024976051196
114	164901	31	0.024962976057
114	170439	32	0.024975906329
114	175977	33	0.024962841828
114	181515	34	0.024975782325
114	187053	35	0.024962727577
114	192591	36	0.024975677316
114	198217	37	0.02507957191
114	203745	38	0.0249755892
114	209273	39	0.024962550803
114	214801	40	0.024975515823
114	220329	41	0.024975484006
114	225946	42	0.025079395367
114	231464	43	0.024962428903
114	236982	44	0.024975405164
114	242500	45	0.024962383684
114	248018	46	0.024975364271
114	253622	47	0.025079167777
114	259130	48	0.02497533094
114	264638	49	0.024962316698
114	270146	50	0.024975303877
114	275745	51	0.025079053458
114	281243	52	0.024975281974
114	286741	53	0.024962272663
114	292239	54	0.024975264309
114	297830	55	0.025078958022
114	303318	56	0.024975250108
114	308806	57	0.024962244086
114	314294	58	0.024975238705
114	319782	59	0.024975233888
114	325354	60	0.025078870854
114	330832	61	0.02497522574
114	336310	62	0.0249622223
114	341788	63	0.024975219236
114	348027	64	0.025922714162
114	353495	65	0.024975039913
114	358963	66	0.024974681
114	364431	67	0.024960990136
114	369899	68	0.024972985481
114	375367	69	0.024971854468
114	380835	70	0.02497080746
114	386303	71	0.024969870964
114	391771	72	0.024969101323
114	397239	73	0.024968462684
114	402707	74	0.024967949926
114	408175	75	0.024967559608
114	413643	76	0.024980292275
114	419111	77	0.024967146634
114	424579	78	0.024967095578
114	430047	79	0.024967086755
114	435515	80	0.024980089556
114	440983	81	0.024967094278
114	446451	82	0.024967096925
114	451919	83	0.02496710178
114	457387	84	0.024967115208
114	462855	85	0.024980134176
114	468323	86	0.024967155998
114	473791	87	0.024967183018
114	479259	88	0.02496725149
114	484727	89	0.024967282086
114	490195	90	0.02498030902
114	495663	91	0.02496730838
114	501131	92	0.024967173751
114	506599	93	0.024966914984
114	512067	94	0.024979632314
114	517535	95	0.02496634519
114	523003	96	0.024966059414
114	528471	97	0.024978802298
114	533939	98	0.024965514993
114	539407	99	0.024965227227
114	544875	100	0.024977937872
115	4792	2	0
115	10260	3	0
115	15728	4	0
115	21196	5	0
115	26664	6	0
115	32132	7	0
115	37600	8	0
115	43068	9	0
115	48537	10	0
115	54141	11	0
115	59679	12	0
115	65217	13	0
115	70755	14	0
115	76293	15	0
115	81831	16	0
115	87369	17	0
115	92907	18	0
115	98445	19	0
115	103983	20	0
115	109521	21	0
115	115059	22	0
115	120597	23	0
115	126135	24	0
115	131673	25	0
115	137211	26	0
115	142749	27	0
115	148287	28	0
115	153825	29	0
115	159363	30	0
115	164901	31	0
115	170439	32	0
115	175977	33	0
115	181515	34	0
115	187053	35	0
115	192591	36	0
115	198217	37	0
115	203745	38	0
115	209273	39	0
115	214801	40	0
115	220329	41	0
115	225946	42	0
115	231464	43	0
115	236982	44	0
115	242500	45	0
115	248018	46	0
115	253622	47	0
115	259130	48	0
115	264638	49	0
115	270146	50	0
115	275745	51	0
115	281243	52	0
115	286741	53	0
115	292239	54	0
115	297830	55	0
115	303318	56	0
115	308806	57	0
115	314294	58	0
115	319782	59	0
115	325354	60	0
115	330832	61	0
115	336310	62	0
115	341788	63	0
115	348027	64	0
115	353495	65	0
115	358963	66	0
115	364431	67	0
115	369899	68	0
115	375367	69	0
115	380835	70	0
115	386303	71	0
115	391771	72	0
115	397239	73	0
115	402707	74	0
115	408175	75	0
115	413643	76	0
115	419111	77	0
115	424579	78	0
115	430047	79	0
115	435515	80	0
115	440983	81	0
115	446451	82	0
115	451919	83	0
115	457387	84	0
115	462855	85	0
115	468323	86	0
115	473791	87	0
115	479259	88	0
115	484727	89	0
115	490195	90	0
115	495663	91	0
115	501131	92	0
115	506599	93	0
115	512067	94	0
115	517535	95	0
115	523003	96	0
115	528471	97	0
115	533939	98	0
115	539407	99	0
115	544875	100	0

