file 2447216 1720583773                                         
version 3
run BreakRanksNoGui-27-20240710-05:56:04-235027
attr configname BreakRanksNoGui
attr datetime 20240710-05:56:04
attr datetimef 20240710-055604
attr experiment BreakRanksNoGui
attr inifile omnetpp.ini
attr iterationvars "$nCars=8, $platoonSize=8, $nLanes=1, $ploegH=0.5, $controller=1, $headway=0.1, $leaderHeadway=1.2, $leaderSpeed=130, $breakRanksSafetyDistance=5, $minSpeed=120, $maxSpeed=140, $beaconInterval=0.1, $priority=4, $packetSize=200, $sController=\"CACC\", $0=2, $1=0"
attr iterationvarsd nCars=8/platoonSize=8/nLanes=1/ploegH=0.5/controller=1/headway=0.1/leaderHeadway=1.2/leaderSpeed=130/breakRanksSafetyDistance=5/minSpeed=120/maxSpeed=140/beaconInterval=0.1/priority=4/packetSize=200/sController=CACC/2/0
attr iterationvarsf nCars=8,platoonSize=8,nLanes=1,ploegH=0.5,controller=1,headway=0.1,leaderHeadway=1.2,leaderSpeed=130,breakRanksSafetyDistance=5,minSpeed=120,maxSpeed=140,beaconInterval=0.1,priority=4,packetSize=200,sController=CACC,2,0-
attr measurement "$nCars=8, $platoonSize=8, $nLanes=1, $ploegH=0.5, $controller=1, $headway=0.1, $leaderHeadway=1.2, $leaderSpeed=130, $breakRanksSafetyDistance=5, $minSpeed=120, $maxSpeed=140, $beaconInterval=0.1, $priority=4, $packetSize=200, $sController=\"CACC\", $0=2, $1=0"
attr network Highway
attr processid 235027
attr repetition 7
attr replication #7
attr resultdir results
attr runnumber 27
attr seedset 7
itervar beaconInterval 0.1
itervar breakRanksSafetyDistance 5
itervar controller 1
itervar headway 0.1
itervar leaderHeadway 1.2
itervar leaderSpeed 130
itervar maxSpeed 140
itervar minSpeed 120
itervar nCars 8
itervar nLanes 1
itervar packetSize 200
itervar platoonSize 8
itervar ploegH 0.5
itervar priority 4
itervar sController "\"CACC\""
config image-path ../../../veins/images
config repeat 10
config extends BreakRanks
config *.manager.command "\"sumo\""
config *.manager.ignoreGuiCommands true
config output-vector-file results/BreakRanks_1_0.1_130_5/result_7.vec
config output-scalar-file results/BreakRanks_1_0.1_130_5/result_7.sca
config extends Platooning
config *.node[*].scenario_type "\"BreakRanksScenario\""
config *.manager.command "\"sumo-gui\""
config *.node[*].scenario_type "\"SimpleScenario\""
config cmdenv-express-mode true
config cmdenv-autoflush true
config cmdenv-status-frequency 15s
config num-rngs 6
config network Highway
config debug-on-errors true
config print-undisposed true
config *.playgroundSizeX 65000m
config *.playgroundSizeY 25000m
config *.playgroundSizeZ 50m
config sim-time-limit "100 s"
config *.annotations.draw false
config *.obstacles.debug false
config *.world.useTorus false
config *.world.use2D false
config *.manager.updateInterval 0.01s
config *.manager.host "\"localhost\""
config *.manager.moduleType "\"org.car2x.plexe.PlatoonCar\""
config *.manager.moduleName "\"node\""
config *.manager.moduleDisplayString "\"\""
config *.manager.autoShutdown true
config *.manager.margin 25
config *.connectionManager.sendDirect true
config *.connectionManager.maxInterfDist 2600m
config *.connectionManager.drawMaxIntfDist false
config *.**.nic.mac1609_4.useServiceChannel false
config *.**.nic.mac1609_4.txPower 100mW
config *.**.nic.mac1609_4.bitrate 6Mbps
config *.**.nic.mac1609_4.useAcks true
config *.**.nic.mac1609_4.ackErrorRate 0.0
config *.**.nic.mac1609_4.frameErrorRate 0.0
config *.**.nic.phy80211p.minPowerLevel -94dBm
config *.**.nic.phy80211p.maxTXPower 100mW
config *.**.nic.phy80211p.useNoiseFloor true
config *.**.nic.phy80211p.noiseFloor -95dBm
config *.**.nic.phy80211p.decider "xmldoc(\"config.xml\")"
config *.**.nic.phy80211p.analogueModels "xmldoc(\"config.xml\")"
config *.**.nic.phy80211p.usePropagationDelay true
config *.node[*].mobility.x 0
config *.node[*].mobility.y 0
config *.node[*].mobility.z 1.895
config seed-set 7
config **.seed 7
config *.node[*].prot.rng-0 2
config *.node[*].appl.rng-0 3
config *.node[*].scenario.rng-0 4
config **.traffic.rng-0 5
config *.manager.configFile "\"./sumocfg/freeway.sumo.cfg\""
config *.manager.launchConfig "xmldoc(\"./sumocfg/freeway.launchd.xml\")"
config **.numberOfCars 8
config **.numberOfCarsPerPlatoon 8
config **.numberOfLanes 1
config *.node[*].helper_type "\"PositionHelper\""
config *.node[*].scenario.caccC1 0.5
config *.node[*].scenario.caccXi 1
config *.node[*].scenario.caccOmegaN "0.2 Hz"
config *.node[*].scenario.caccSpacing "2 m"
config *.node[*].scenario.engineTau "0.5 s"
config *.node[*].scenario.ploegH 0.5s
config *.node[*].scenario.ploegKp 0.2
config *.node[*].scenario.ploegKd 0.7
config *.node[*].scenario.useRealisticEngine false
config *.node[*].scenario.useControllerAcceleration true
config *.node[*].scenario.nLanes 1
config **.numericController 1
config **.headway 0.1s
config *.node[*].scenario.accHeadway 0.1s
config *.node[*].scenario.leaderHeadway 1.2s
config *.node[*].scenario.leaderSpeed 130kmph
config *.node[*].appl_type "\"SimplePlatooningApp\""
config *.node[*].appl.*.scalar-recording true
config *.node[*].appl.*.vector-recording true
config *.node[0].appl.breakRanksSafetyDistance 5m
config *.node[*].appl.minSpeed 120kmph
config *.node[*].appl.maxSpeed 140kmph
config *.node[*].protocol_type "\"SimplePlatooningBeaconing\""
config *.node[*].prot.*.scalar-recording true
config *.node[*].prot.*.vector-recording true
config *.node[*].prot.beaconingInterval 0.1s
config *.node[*].prot.priority 4
config *.node[*].prot.packetSize 200
config **.traffic_type "\"PlatoonsTrafficManager\""
config **.traffic.platoonInsertTime "1 s"
config **.traffic.platoonInsertSpeed 130kmph
config **.traffic.nCars 8
config **.traffic.platoonSize 8
config **.traffic.nLanes 1
config **.traffic.platooningVType "\"vtypeauto\""
config **.traffic.controller "\"CACC\""
config **.traffic.platoonInsertDistance 2m
config **.traffic.platoonInsertHeadway 0s
config **.traffic.platoonLeaderHeadway 1.2s
config **.scalar-recording false
config **.vector-recording false

vector 0 Highway.node[0].appl distance ETV
vector 1 Highway.node[0].appl relativeSpeed ETV
vector 2 Highway.node[0].appl nodeId ETV
vector 3 Highway.node[0].appl acceleration ETV
vector 4 Highway.node[0].appl controllerAcceleration ETV
vector 5 Highway.node[0].appl speed ETV
vector 6 Highway.node[0].appl posx ETV
vector 7 Highway.node[0].appl posy ETV
vector 8 Highway.node[1].appl distance ETV
vector 9 Highway.node[1].appl relativeSpeed ETV
vector 10 Highway.node[1].appl nodeId ETV
vector 11 Highway.node[1].appl acceleration ETV
vector 12 Highway.node[1].appl controllerAcceleration ETV
vector 13 Highway.node[1].appl speed ETV
vector 14 Highway.node[1].appl posx ETV
vector 15 Highway.node[1].appl posy ETV
vector 16 Highway.node[2].appl distance ETV
vector 17 Highway.node[2].appl relativeSpeed ETV
vector 18 Highway.node[2].appl nodeId ETV
vector 19 Highway.node[2].appl acceleration ETV
vector 20 Highway.node[2].appl controllerAcceleration ETV
vector 21 Highway.node[2].appl speed ETV
vector 22 Highway.node[2].appl posx ETV
vector 23 Highway.node[2].appl posy ETV
vector 24 Highway.node[3].appl distance ETV
vector 25 Highway.node[3].appl relativeSpeed ETV
vector 26 Highway.node[3].appl nodeId ETV
vector 27 Highway.node[3].appl acceleration ETV
vector 28 Highway.node[3].appl controllerAcceleration ETV
vector 29 Highway.node[3].appl speed ETV
vector 30 Highway.node[3].appl posx ETV
vector 31 Highway.node[3].appl posy ETV
vector 32 Highway.node[4].appl distance ETV
vector 33 Highway.node[4].appl relativeSpeed ETV
vector 34 Highway.node[4].appl nodeId ETV
vector 35 Highway.node[4].appl acceleration ETV
vector 36 Highway.node[4].appl controllerAcceleration ETV
vector 37 Highway.node[4].appl speed ETV
vector 38 Highway.node[4].appl posx ETV
vector 39 Highway.node[4].appl posy ETV
vector 40 Highway.node[5].appl distance ETV
vector 41 Highway.node[5].appl relativeSpeed ETV
vector 42 Highway.node[5].appl nodeId ETV
vector 43 Highway.node[5].appl acceleration ETV
vector 44 Highway.node[5].appl controllerAcceleration ETV
vector 45 Highway.node[5].appl speed ETV
vector 46 Highway.node[5].appl posx ETV
vector 47 Highway.node[5].appl posy ETV
vector 48 Highway.node[6].appl distance ETV
vector 49 Highway.node[6].appl relativeSpeed ETV
vector 50 Highway.node[6].appl nodeId ETV
vector 51 Highway.node[6].appl acceleration ETV
vector 52 Highway.node[6].appl controllerAcceleration ETV
vector 53 Highway.node[6].appl speed ETV
vector 54 Highway.node[6].appl posx ETV
vector 55 Highway.node[6].appl posy ETV
vector 56 Highway.node[7].appl distance ETV
vector 57 Highway.node[7].appl relativeSpeed ETV
vector 58 Highway.node[7].appl nodeId ETV
vector 59 Highway.node[7].appl acceleration ETV
vector 60 Highway.node[7].appl controllerAcceleration ETV
vector 61 Highway.node[7].appl speed ETV
vector 62 Highway.node[7].appl posx ETV
vector 63 Highway.node[7].appl posy ETV
vector 64 Highway.node[4].prot frontDelay ETV
vector 65 Highway.node[4].prot frontDelayId ETV
vector 66 Highway.node[3].prot frontDelay ETV
vector 67 Highway.node[3].prot frontDelayId ETV
vector 68 Highway.node[7].prot frontDelay ETV
vector 69 Highway.node[7].prot frontDelayId ETV
vector 70 Highway.node[2].prot frontDelay ETV
vector 71 Highway.node[2].prot frontDelayId ETV
vector 72 Highway.node[6].prot frontDelay ETV
vector 73 Highway.node[6].prot frontDelayId ETV
vector 74 Highway.node[5].prot frontDelay ETV
vector 75 Highway.node[5].prot frontDelayId ETV
vector 76 Highway.node[1].prot leaderDelay ETV
vector 77 Highway.node[1].prot leaderDelayId ETV
vector 78 Highway.node[1].prot frontDelay ETV
vector 79 Highway.node[1].prot frontDelayId ETV
vector 80 Highway.node[2].prot leaderDelay ETV
vector 81 Highway.node[2].prot leaderDelayId ETV
vector 82 Highway.node[3].prot leaderDelay ETV
vector 83 Highway.node[3].prot leaderDelayId ETV
vector 84 Highway.node[4].prot leaderDelay ETV
vector 85 Highway.node[4].prot leaderDelayId ETV
vector 86 Highway.node[5].prot leaderDelay ETV
vector 87 Highway.node[5].prot leaderDelayId ETV
vector 88 Highway.node[6].prot leaderDelay ETV
vector 89 Highway.node[6].prot leaderDelayId ETV
vector 90 Highway.node[7].prot leaderDelay ETV
vector 91 Highway.node[7].prot leaderDelayId ETV
vector 92 Highway.node[0].prot nodeId ETV
vector 93 Highway.node[0].prot busyTime ETV
vector 94 Highway.node[0].prot collisions ETV
vector 95 Highway.node[1].prot nodeId ETV
vector 96 Highway.node[1].prot busyTime ETV
vector 97 Highway.node[1].prot collisions ETV
vector 98 Highway.node[2].prot nodeId ETV
vector 99 Highway.node[2].prot busyTime ETV
vector 100 Highway.node[2].prot collisions ETV
vector 101 Highway.node[3].prot nodeId ETV
vector 102 Highway.node[3].prot busyTime ETV
vector 103 Highway.node[3].prot collisions ETV
vector 104 Highway.node[4].prot nodeId ETV
vector 105 Highway.node[4].prot busyTime ETV
vector 106 Highway.node[4].prot collisions ETV
vector 107 Highway.node[5].prot nodeId ETV
vector 108 Highway.node[5].prot busyTime ETV
vector 109 Highway.node[5].prot collisions ETV
vector 110 Highway.node[6].prot nodeId ETV
vector 111 Highway.node[6].prot busyTime ETV
vector 112 Highway.node[6].prot collisions ETV
vector 113 Highway.node[7].prot nodeId ETV
vector 114 Highway.node[7].prot busyTime ETV
vector 115 Highway.node[7].prot collisions ETV
0	11185 17510 113 544537 1.11 99.91 989 -1 -1 -989 989
1	28695 16521 113 544537 1.11 99.91 989 0 0 0 0
2	45216 16521 113 544537 1.11 99.91 989 0 0 0 0
3	61737 18809 113 544537 1.11 99.91 989 -3.14892e-05 0.000707784 0.010991577126781 6.0508064149601e-06
4	80546 26467 113 544537 1.11 99.91 989 -4.89399e-05 0.00109259 0.010614843047836 8.6815283230331e-06
5	107013 22448 113 544537 1.11 99.91 989 36.11 36.1111 35713.866699999 1289666.6073546
6	129461 22343 113 544537 1.11 99.91 989 51.5199 3619.3 1815217.7308 4382871342.8188
7	151804 21466 113 544537 1.11 99.91 989 242.45 242.45 239783.05 58135400.472499
8	173270 21130 114 544538 1.11 99.91 989 -1 58.4861 7205.79483 223550.29593348
9	194400 21838 114 544538 1.11 99.91 989 -2.36679e-05 3 395.98442504775 1102.7385588185
10	216238 17510 114 544538 1.11 99.91 989 1 1 989 989
11	233748 26383 114 544538 1.11 99.91 989 -1.25468 0.0558372 -21.057440747698 20.606690240911
12	260131 26841 114 544538 1.11 99.91 989 -1.5 0.0867305 -20.192852698058 26.881375622679
13	286972 22061 114 544538 1.11 99.91 989 33.9133 36.1111 34927.6815 1234475.3406243
14	309033 23353 114 544538 1.11 99.91 989 45.5199 3534.78 1793340.6796 4265284678.5776
15	332386 22455 114 544538 1.11 99.91 989 242.45 245.75 241000.75 58729881.6125
16	354841 23308 115 544539 1.11 99.91 989 2 44.4361 15783.15169 520401.2474517
17	378149 25083 115 544539 1.11 99.91 989 0 2.68458 334.42053100066 462.59948362753
18	403232 17510 115 544539 1.11 99.91 989 2 2 1978 3956
19	420742 25905 115 544539 1.11 99.91 989 -1.69706 0.297067 -0.825100581961 38.751383461804
20	446647 25897 115 544539 1.11 99.91 989 -2.58918 0.335067 0.47192504500479 53.589839225025
21	472544 23335 115 544539 1.11 99.91 989 33.4265 36.1111 35349.462 1263824.0838999
22	495879 23327 115 544539 1.11 99.91 989 39.5199 3570.86 1790466.667 4268933995.8572
23	519206 22455 115 544539 1.11 99.91 989 242.45 242.45 239783.05 58135400.472499
24	541661 23286 116 544540 1.11 99.91 989 2 44.0477 14368.28061 452166.31556272
25	564947 24986 116 544540 1.11 99.91 989 -2.63739e-07 3.30642 420.5408246435 737.92144720251
26	589933 17510 116 544540 1.11 99.91 989 3 3 2967 8901
27	607443 25706 116 544540 1.11 99.91 989 -2.62078 0.597421 -2.0839638937071 134.63249096841
28	633149 25713 116 544540 1.11 99.91 989 -3.35351 0.641242 -0.46769669617343 163.59260443454
29	658862 23325 116 544540 1.11 99.91 989 30.3304 36.1111 34928.9212 1235333.0478891
30	682187 23333 116 544540 1.11 99.91 989 33.5199 3522.81 1772142.417 4175880038.9718
31	705520 22455 116 544540 1.11 99.91 989 242.45 242.45 239783.05 58135400.472499
32	727975 23255 117 544541 1.11 99.91 989 2 65.5018 18204.7357 826281.42642174
33	751230 25193 117 544541 1.11 99.91 989 -1.97954 3.72248 47.374695649403 847.67508839552
34	776423 17510 117 544541 1.11 99.91 989 4 4 3956 15824
35	793933 25837 117 544541 1.11 99.91 989 -2.91474 1.49785 -19.106353343432 293.66298258612
36	819770 25744 117 544541 1.11 99.91 989 -3.35731 1.5 -17.469689909239 330.36578347834
37	845514 23338 117 544541 1.11 99.91 989 27.566 36.1111 34620.2353 1215508.717128
38	868852 23324 117 544541 1.11 99.91 989 27.5199 3486.03 1759015.5532 4115020177.9113
39	892176 22455 117 544541 1.11 99.91 989 242.45 245.75 240716.95 58591330.4525
40	914631 21986 118 544542 1.11 99.91 989 -1 54.4885 4271.0564 88173.090170847
41	936617 23247 118 544542 1.11 99.91 989 -0.00142146 11.6539 491.82848573374 3982.1875574893
42	959864 17510 118 544542 1.11 99.91 989 5 5 4945 24725
43	977374 26047 118 544542 1.11 99.91 989 -2.98011 1.49992 8.9529619192633 424.48163958224
44	1003421 25790 118 544542 1.11 99.91 989 -3.35673 1.5 11.331899573728 469.91597774651
45	1029211 22612 118 544542 1.11 99.91 989 25.3512 37.1034 35041.7322 1247072.3804356
46	1051823 23363 118 544542 1.11 99.91 989 21.5199 3522.04 1754039.4769 4105831840.9141
47	1075186 22455 118 544542 1.11 99.91 989 242.45 252.35 242779.45 59616755.952501
48	1097641 21480 119 544543 1.11 99.91 989 -1 4.93628 1792.89921 8731.4914151751
49	1119121 22584 119 544543 1.11 99.91 989 -0.000951425 0.115096 29.36635689343 2.3915652160255
50	1141705 17510 119 544543 1.11 99.91 989 6 6 5934 35604
51	1159215 25290 119 544543 1.11 99.91 989 -0.198144 0.583983 8.9391602642394 5.524738661931
52	1184505 26481 119 544543 1.11 99.91 989 -0.233397 0.908435 9.2262973597207 7.9449713182646
53	1210986 22012 119 544543 1.11 99.91 989 35.2705 37.0405 35854.0435 1300175.7369987
54	1232998 23375 119 544543 1.11 99.91 989 15.5199 3597.27 1772102.4197 4230821743.0442
55	1256373 22455 119 544543 1.11 99.91 989 242.45 249.05 241815.85 59133193.092501
56	1278828 22554 120 544544 1.11 99.91 989 -1 56.4428 12579.93169 480970.67839094
57	1301382 23924 120 544544 1.11 99.91 989 -0.889881 2.69115 319.45513061483 701.36403067233
58	1325306 17510 120 544544 1.11 99.91 989 7 7 6923 48461
59	1342816 26331 120 544544 1.11 99.91 989 -0.698984 0.443356 -11.039578232824 11.461325957811
60	1369147 26317 120 544544 1.11 99.91 989 -1.06707 0.646056 -9.8618036579981 14.665323887757
61	1395464 22407 120 544544 1.11 99.91 989 34.3089 36.1111 35064.6166 1243465.2066484
62	1417871 23372 120 544544 1.11 99.91 989 9.5199 3512.43 1750064.9201 4112370784.3443
63	1441243 22455 120 544544 1.11 99.91 989 242.45 249.05 241934.65 59191975.332501
64	1463698 40006 702 544592 1.214462500346 99.91446081768 988 0.099987480335 0.100009013718 98.799998797666 9.8799997705223
65	1503704 27273 702 544592 1.214462500346 99.91446081768 988 4 4 3952 15808
66	1530977 40014 769 544653 1.22169752036 99.921696014986 988 0.099987480333 0.100008815429 98.799998974958 9.879999805487
67	1570991 27274 769 544653 1.22169752036 99.921696014986 988 3 3 2964 8892
68	1598265 40028 903 544805 1.247009640443 99.947008617767 988 0.099987480334 0.100009075768 98.799999457656 9.8799999028803
69	1638293 27284 903 544805 1.247009640443 99.947008617767 988 7 7 6916 48412
70	1665577 40028 970 544860 1.254140740512 99.954139664291 988 0.099987480334 0.100009075771 98.799999404111 9.8799998922229
71	1705605 27290 970 544860 1.254140740512 99.954139664291 988 2 2 1976 3952
72	1732895 40018 1038 544940 1.273478820567 99.973477842452 988 0.099987480334 0.100008815629 98.799999502217 9.8799999109369
73	1772913 27269 1038 544940 1.273478820567 99.973477842452 988 6 6 5928 35568
74	1800182 39989 1105 544983 1.285042840581 99.985041836156 988 0.099987480333 0.100008739415 98.799999475907 9.8799999057558
75	1840171 27258 1105 544983 1.285042840581 99.985041836156 988 5 5 4940 24700
76	1867429 40009 1166 545056 1.293967920636 99.993967441237 988 0.099987480334 0.100009075781 98.800000000933 9.8800000113754
77	1907438 27275 1166 545056 1.293967920636 99.993967441237 988 1 1 988 988
78	1934713 40009 1166 545056 1.293967920636 99.993967441237 988 0.099987480334 0.100009075781 98.800000000933 9.8800000113754
79	1974722 27275 1166 545056 1.293967920636 99.993967441237 988 1 1 988 988
80	2001997 40027 1172 545050 1.29396794065 99.993967320076 988 0.099987480334 0.100009075781 98.799999859758 9.8799999831405
81	2042024 27282 1172 545050 1.29396794065 99.993967320076 988 2 2 1976 3952
82	2069306 40007 1178 545062 1.293967960664 99.993967480384 988 0.099987480334 0.100009075782 98.800000000052 9.8800000111993
83	2109313 27281 1178 545062 1.293967960664 99.993967480384 988 3 3 2964 8892
84	2136594 40005 1184 545080 1.293967980677 99.993967603728 988 0.099987480334 0.100009075784 98.800000103383 9.8800000318655
85	2176599 27265 1184 545080 1.293967980677 99.993967603728 988 4 4 3952 15808
86	2203864 40009 1190 545068 1.293968000691 99.993967484313 988 0.099987480334 0.100009075786 98.799999963954 9.8800000039797
87	2243873 27260 1190 545068 1.293968000691 99.993967484313 988 5 5 4940 24700
88	2271133 40024 1196 545044 1.293968020705 99.993967232514 988 0.099987480334 0.10000907579 98.799999692141 9.879999949617
89	2311157 27276 1196 545044 1.293968020705 99.993967232514 988 6 6 5928 35568
90	2338433 40031 1202 545074 1.293968040719 99.993967515975 988 0.099987480334 0.100009075795 98.799999955588 9.8800000023065
91	2378464 27283 1202 545074 1.293968040719 99.993967515975 988 7 7 6916 48412
92	2405747 1459 5026 545082 2 100 99 0 0 0 0
93	2407206 2068 5026 545082 2 100 99 0.022473 0.026130677684 2.471606677684 0.061713157382225
94	2409274 1459 5026 545082 2 100 99 0 0 0 0
95	2410733 1459 5027 545083 2 100 99 1 1 99 99
96	2412192 2068 5027 545083 2 100 99 0.022473 0.025898 2.471214059378 0.06169302328456
97	2414260 1459 5027 545083 2 100 99 0 0 0 0
98	2415719 1459 5028 545084 2 100 99 2 2 198 396
99	2417178 2067 5028 545084 2 100 99 0.022473 0.025898 2.47121411912 0.061693026285412
100	2419245 1558 5028 545084 2 100 99 0 0 0 0
101	2420803 1558 5029 545085 2 100 99 3 3 297 891
102	2422361 2167 5029 545085 2 100 99 0.022473 0.025898 2.471214178972 0.061693029291795
103	2424528 1558 5029 545085 2 100 99 0 0 0 0
104	2426086 1558 5030 545086 2 100 99 4 4 396 1584
105	2427644 2167 5030 545086 2 100 99 0.022473 0.025898 2.471214238866 0.061693032300296
106	2429811 1558 5030 545086 2 100 99 0 0 0 0
107	2431369 1558 5031 545087 2 100 99 5 5 495 2475
108	2432927 2165 5031 545087 2 100 99 0.022473 0.025898 2.4712142988 0.061693035310813
109	2435092 1558 5031 545087 2 100 99 0 0 0 0
110	2436650 1558 5032 545088 2 100 99 6 6 594 3564
111	2438208 2167 5032 545088 2 100 99 0.022473 0.025898 2.471214358738 0.061693038321538
112	2440375 1558 5032 545088 2 100 99 0 0 0 0
113	2441933 1558 5033 545089 2 100 99 7 7 693 4851
114	2443491 2166 5033 545089 2 100 99 0.022473 0.02593141869 2.47121441869 0.061693095872276
115	2445657 1558 5033 545089 2 100 99 0 0 0 0

