file 2454229 1720583753                                         
version 3
run BreakRanksNoGui-25-20240710-05:55:43-235005
attr configname BreakRanksNoGui
attr datetime 20240710-05:55:43
attr datetimef 20240710-055543
attr experiment BreakRanksNoGui
attr inifile omnetpp.ini
attr iterationvars "$nCars=8, $platoonSize=8, $nLanes=1, $ploegH=0.5, $controller=1, $headway=0.1, $leaderHeadway=1.2, $leaderSpeed=130, $breakRanksSafetyDistance=5, $minSpeed=120, $maxSpeed=140, $beaconInterval=0.1, $priority=4, $packetSize=200, $sController=\"CACC\", $0=2, $1=0"
attr iterationvarsd nCars=8/platoonSize=8/nLanes=1/ploegH=0.5/controller=1/headway=0.1/leaderHeadway=1.2/leaderSpeed=130/breakRanksSafetyDistance=5/minSpeed=120/maxSpeed=140/beaconInterval=0.1/priority=4/packetSize=200/sController=CACC/2/0
attr iterationvarsf nCars=8,platoonSize=8,nLanes=1,ploegH=0.5,controller=1,headway=0.1,leaderHeadway=1.2,leaderSpeed=130,breakRanksSafetyDistance=5,minSpeed=120,maxSpeed=140,beaconInterval=0.1,priority=4,packetSize=200,sController=CACC,2,0-
attr measurement "$nCars=8, $platoonSize=8, $nLanes=1, $ploegH=0.5, $controller=1, $headway=0.1, $leaderHeadway=1.2, $leaderSpeed=130, $breakRanksSafetyDistance=5, $minSpeed=120, $maxSpeed=140, $beaconInterval=0.1, $priority=4, $packetSize=200, $sController=\"CACC\", $0=2, $1=0"
attr network Highway
attr processid 235005
attr repetition 5
attr replication #5
attr resultdir results
attr runnumber 25
attr seedset 5
itervar beaconInterval 0.1
itervar breakRanksSafetyDistance 5
itervar controller 1
itervar headway 0.1
itervar leaderHeadway 1.2
itervar leaderSpeed 130
itervar maxSpeed 140
itervar minSpeed 120
itervar nCars 8
itervar nLanes 1
itervar packetSize 200
itervar platoonSize 8
itervar ploegH 0.5
itervar priority 4
itervar sController "\"CACC\""
config image-path ../../../veins/images
config repeat 10
config extends BreakRanks
config *.manager.command "\"sumo\""
config *.manager.ignoreGuiCommands true
config output-vector-file results/BreakRanks_1_0.1_130_5/result_5.vec
config output-scalar-file results/BreakRanks_1_0.1_130_5/result_5.sca
config extends Platooning
config *.node[*].scenario_type "\"BreakRanksScenario\""
config *.manager.command "\"sumo-gui\""
config *.node[*].scenario_type "\"SimpleScenario\""
config cmdenv-express-mode true
config cmdenv-autoflush true
config cmdenv-status-frequency 15s
config num-rngs 6
config network Highway
config debug-on-errors true
config print-undisposed true
config *.playgroundSizeX 65000m
config *.playgroundSizeY 25000m
config *.playgroundSizeZ 50m
config sim-time-limit "100 s"
config *.annotations.draw false
config *.obstacles.debug false
config *.world.useTorus false
config *.world.use2D false
config *.manager.updateInterval 0.01s
config *.manager.host "\"localhost\""
config *.manager.moduleType "\"org.car2x.plexe.PlatoonCar\""
config *.manager.moduleName "\"node\""
config *.manager.moduleDisplayString "\"\""
config *.manager.autoShutdown true
config *.manager.margin 25
config *.connectionManager.sendDirect true
config *.connectionManager.maxInterfDist 2600m
config *.connectionManager.drawMaxIntfDist false
config *.**.nic.mac1609_4.useServiceChannel false
config *.**.nic.mac1609_4.txPower 100mW
config *.**.nic.mac1609_4.bitrate 6Mbps
config *.**.nic.mac1609_4.useAcks true
config *.**.nic.mac1609_4.ackErrorRate 0.0
config *.**.nic.mac1609_4.frameErrorRate 0.0
config *.**.nic.phy80211p.minPowerLevel -94dBm
config *.**.nic.phy80211p.maxTXPower 100mW
config *.**.nic.phy80211p.useNoiseFloor true
config *.**.nic.phy80211p.noiseFloor -95dBm
config *.**.nic.phy80211p.decider "xmldoc(\"config.xml\")"
config *.**.nic.phy80211p.analogueModels "xmldoc(\"config.xml\")"
config *.**.nic.phy80211p.usePropagationDelay true
config *.node[*].mobility.x 0
config *.node[*].mobility.y 0
config *.node[*].mobility.z 1.895
config seed-set 5
config **.seed 5
config *.node[*].prot.rng-0 2
config *.node[*].appl.rng-0 3
config *.node[*].scenario.rng-0 4
config **.traffic.rng-0 5
config *.manager.configFile "\"./sumocfg/freeway.sumo.cfg\""
config *.manager.launchConfig "xmldoc(\"./sumocfg/freeway.launchd.xml\")"
config **.numberOfCars 8
config **.numberOfCarsPerPlatoon 8
config **.numberOfLanes 1
config *.node[*].helper_type "\"PositionHelper\""
config *.node[*].scenario.caccC1 0.5
config *.node[*].scenario.caccXi 1
config *.node[*].scenario.caccOmegaN "0.2 Hz"
config *.node[*].scenario.caccSpacing "2 m"
config *.node[*].scenario.engineTau "0.5 s"
config *.node[*].scenario.ploegH 0.5s
config *.node[*].scenario.ploegKp 0.2
config *.node[*].scenario.ploegKd 0.7
config *.node[*].scenario.useRealisticEngine false
config *.node[*].scenario.useControllerAcceleration true
config *.node[*].scenario.nLanes 1
config **.numericController 1
config **.headway 0.1s
config *.node[*].scenario.accHeadway 0.1s
config *.node[*].scenario.leaderHeadway 1.2s
config *.node[*].scenario.leaderSpeed 130kmph
config *.node[*].appl_type "\"SimplePlatooningApp\""
config *.node[*].appl.*.scalar-recording true
config *.node[*].appl.*.vector-recording true
config *.node[0].appl.breakRanksSafetyDistance 5m
config *.node[*].appl.minSpeed 120kmph
config *.node[*].appl.maxSpeed 140kmph
config *.node[*].protocol_type "\"SimplePlatooningBeaconing\""
config *.node[*].prot.*.scalar-recording true
config *.node[*].prot.*.vector-recording true
config *.node[*].prot.beaconingInterval 0.1s
config *.node[*].prot.priority 4
config *.node[*].prot.packetSize 200
config **.traffic_type "\"PlatoonsTrafficManager\""
config **.traffic.platoonInsertTime "1 s"
config **.traffic.platoonInsertSpeed 130kmph
config **.traffic.nCars 8
config **.traffic.platoonSize 8
config **.traffic.nLanes 1
config **.traffic.platooningVType "\"vtypeauto\""
config **.traffic.controller "\"CACC\""
config **.traffic.platoonInsertDistance 2m
config **.traffic.platoonInsertHeadway 0s
config **.traffic.platoonLeaderHeadway 1.2s
config **.scalar-recording false
config **.vector-recording false

vector 0 Highway.node[0].appl distance ETV
vector 1 Highway.node[0].appl relativeSpeed ETV
vector 2 Highway.node[0].appl nodeId ETV
vector 3 Highway.node[0].appl acceleration ETV
vector 4 Highway.node[0].appl controllerAcceleration ETV
vector 5 Highway.node[0].appl speed ETV
vector 6 Highway.node[0].appl posx ETV
vector 7 Highway.node[0].appl posy ETV
vector 8 Highway.node[1].appl distance ETV
vector 9 Highway.node[1].appl relativeSpeed ETV
vector 10 Highway.node[1].appl nodeId ETV
vector 11 Highway.node[1].appl acceleration ETV
vector 12 Highway.node[1].appl controllerAcceleration ETV
vector 13 Highway.node[1].appl speed ETV
vector 14 Highway.node[1].appl posx ETV
vector 15 Highway.node[1].appl posy ETV
vector 16 Highway.node[2].appl distance ETV
vector 17 Highway.node[2].appl relativeSpeed ETV
vector 18 Highway.node[2].appl nodeId ETV
vector 19 Highway.node[2].appl acceleration ETV
vector 20 Highway.node[2].appl controllerAcceleration ETV
vector 21 Highway.node[2].appl speed ETV
vector 22 Highway.node[2].appl posx ETV
vector 23 Highway.node[2].appl posy ETV
vector 24 Highway.node[3].appl distance ETV
vector 25 Highway.node[3].appl relativeSpeed ETV
vector 26 Highway.node[3].appl nodeId ETV
vector 27 Highway.node[3].appl acceleration ETV
vector 28 Highway.node[3].appl controllerAcceleration ETV
vector 29 Highway.node[3].appl speed ETV
vector 30 Highway.node[3].appl posx ETV
vector 31 Highway.node[3].appl posy ETV
vector 32 Highway.node[4].appl distance ETV
vector 33 Highway.node[4].appl relativeSpeed ETV
vector 34 Highway.node[4].appl nodeId ETV
vector 35 Highway.node[4].appl acceleration ETV
vector 36 Highway.node[4].appl controllerAcceleration ETV
vector 37 Highway.node[4].appl speed ETV
vector 38 Highway.node[4].appl posx ETV
vector 39 Highway.node[4].appl posy ETV
vector 40 Highway.node[5].appl distance ETV
vector 41 Highway.node[5].appl relativeSpeed ETV
vector 42 Highway.node[5].appl nodeId ETV
vector 43 Highway.node[5].appl acceleration ETV
vector 44 Highway.node[5].appl controllerAcceleration ETV
vector 45 Highway.node[5].appl speed ETV
vector 46 Highway.node[5].appl posx ETV
vector 47 Highway.node[5].appl posy ETV
vector 48 Highway.node[6].appl distance ETV
vector 49 Highway.node[6].appl relativeSpeed ETV
vector 50 Highway.node[6].appl nodeId ETV
vector 51 Highway.node[6].appl acceleration ETV
vector 52 Highway.node[6].appl controllerAcceleration ETV
vector 53 Highway.node[6].appl speed ETV
vector 54 Highway.node[6].appl posx ETV
vector 55 Highway.node[6].appl posy ETV
vector 56 Highway.node[7].appl distance ETV
vector 57 Highway.node[7].appl relativeSpeed ETV
vector 58 Highway.node[7].appl nodeId ETV
vector 59 Highway.node[7].appl acceleration ETV
vector 60 Highway.node[7].appl controllerAcceleration ETV
vector 61 Highway.node[7].appl speed ETV
vector 62 Highway.node[7].appl posx ETV
vector 63 Highway.node[7].appl posy ETV
vector 64 Highway.node[2].prot frontDelay ETV
vector 65 Highway.node[2].prot frontDelayId ETV
vector 66 Highway.node[6].prot frontDelay ETV
vector 67 Highway.node[6].prot frontDelayId ETV
vector 68 Highway.node[3].prot frontDelay ETV
vector 69 Highway.node[3].prot frontDelayId ETV
vector 70 Highway.node[4].prot frontDelay ETV
vector 71 Highway.node[4].prot frontDelayId ETV
vector 72 Highway.node[5].prot frontDelay ETV
vector 73 Highway.node[5].prot frontDelayId ETV
vector 74 Highway.node[1].prot leaderDelay ETV
vector 75 Highway.node[1].prot leaderDelayId ETV
vector 76 Highway.node[1].prot frontDelay ETV
vector 77 Highway.node[1].prot frontDelayId ETV
vector 78 Highway.node[2].prot leaderDelay ETV
vector 79 Highway.node[2].prot leaderDelayId ETV
vector 80 Highway.node[3].prot leaderDelay ETV
vector 81 Highway.node[3].prot leaderDelayId ETV
vector 82 Highway.node[4].prot leaderDelay ETV
vector 83 Highway.node[4].prot leaderDelayId ETV
vector 84 Highway.node[5].prot leaderDelay ETV
vector 85 Highway.node[5].prot leaderDelayId ETV
vector 86 Highway.node[6].prot leaderDelay ETV
vector 87 Highway.node[6].prot leaderDelayId ETV
vector 88 Highway.node[7].prot leaderDelay ETV
vector 89 Highway.node[7].prot leaderDelayId ETV
vector 90 Highway.node[7].prot frontDelay ETV
vector 91 Highway.node[7].prot frontDelayId ETV
vector 92 Highway.node[0].prot nodeId ETV
vector 93 Highway.node[0].prot busyTime ETV
vector 94 Highway.node[0].prot collisions ETV
vector 95 Highway.node[1].prot nodeId ETV
vector 96 Highway.node[1].prot busyTime ETV
vector 97 Highway.node[1].prot collisions ETV
vector 98 Highway.node[2].prot nodeId ETV
vector 99 Highway.node[2].prot busyTime ETV
vector 100 Highway.node[2].prot collisions ETV
vector 101 Highway.node[3].prot nodeId ETV
vector 102 Highway.node[3].prot busyTime ETV
vector 103 Highway.node[3].prot collisions ETV
vector 104 Highway.node[4].prot nodeId ETV
vector 105 Highway.node[4].prot busyTime ETV
vector 106 Highway.node[4].prot collisions ETV
vector 107 Highway.node[5].prot nodeId ETV
vector 108 Highway.node[5].prot busyTime ETV
vector 109 Highway.node[5].prot collisions ETV
vector 110 Highway.node[6].prot nodeId ETV
vector 111 Highway.node[6].prot busyTime ETV
vector 112 Highway.node[6].prot collisions ETV
vector 113 Highway.node[7].prot nodeId ETV
vector 114 Highway.node[7].prot busyTime ETV
vector 115 Highway.node[7].prot collisions ETV
0	11185 17510 113 544537 1.11 99.91 989 -1 -1 -989 989
1	28695 16521 113 544537 1.11 99.91 989 0 0 0 0
2	45216 16521 113 544537 1.11 99.91 989 0 0 0 0
3	61737 18809 113 544537 1.11 99.91 989 -3.14892e-05 0.000707784 0.010991577126781 6.0508064149601e-06
4	80546 26467 113 544537 1.11 99.91 989 -4.89399e-05 0.00109259 0.010614843047836 8.6815283230331e-06
5	107013 22448 113 544537 1.11 99.91 989 36.11 36.1111 35713.866699999 1289666.6073546
6	129461 22345 113 544537 1.11 99.91 989 58.4099 3626.19 1822031.9411 4407931994.9126
7	151806 21466 113 544537 1.11 99.91 989 242.45 242.45 239783.05 58135400.472499
8	173272 20520 114 544538 1.11 99.91 989 -1 4.99843 2162.79063 11560.233421858
9	193792 21838 114 544538 1.11 99.91 989 -2.36679e-05 0.238847 29.984425047748 4.7385588184921
10	215630 17510 114 544538 1.11 99.91 989 1 1 989 989
11	233140 26982 114 544538 1.11 99.91 989 -0.714571 0.0318733 -11.060376503101 6.3648058807308
12	260122 26891 114 544538 1.11 99.91 989 -1.0979 0.04951 -10.321157719603 8.7063022727967
13	287013 22027 114 544538 1.11 99.91 989 34.9505 36.1111 35284.1593 1259078.012149
14	309040 23358 114 544538 1.11 99.91 989 52.4099 3577.27 1806509.7439 4330094416.1841
15	332398 22455 114 544538 1.11 99.91 989 242.45 245.75 241000.75 58729881.6125
16	354853 23258 115 544539 1.11 99.91 989 2 44.4361 15783.75949 520405.21349637
17	378111 25111 115 544539 1.11 99.91 989 0 2.68458 334.42054074181 462.5937651052
18	403222 17510 115 544539 1.11 99.91 989 2 2 1978 3956
19	420732 25918 115 544539 1.11 99.91 989 -1.69706 0.297067 -0.82511413069 38.75118655605
20	446650 25922 115 544539 1.11 99.91 989 -2.58918 0.335066 0.4719218289311 53.589578574579
21	472572 23330 115 544539 1.11 99.91 989 33.4265 36.1111 35349.4613 1263824.0281995
22	495902 23354 115 544539 1.11 99.91 989 46.4099 3577.75 1797280.2702 4293652692.6646
23	519256 22455 115 544539 1.11 99.91 989 242.45 242.45 239783.05 58135400.472499
24	541711 23284 116 544540 1.11 99.91 989 2 44.0477 14367.98431 452164.858807
25	564995 24987 116 544540 1.11 99.91 989 -0.000137676 3.30642 420.54082977042 737.92642322005
26	589982 17510 116 544540 1.11 99.91 989 3 3 2967 8901
27	607492 25711 116 544540 1.11 99.91 989 -2.62078 0.597421 -2.0839703267285 134.63161036554
28	633203 25709 116 544540 1.11 99.91 989 -3.35351 0.641242 -0.46767047647529 163.59645913427
29	658912 23342 116 544540 1.11 99.91 989 30.3304 36.1111 34928.9216 1235333.070232
30	682254 23339 116 544540 1.11 99.91 989 40.4099 3529.7 1778956.342 4200346602.5543
31	705593 22455 116 544540 1.11 99.91 989 242.45 242.45 239783.05 58135400.472499
32	728048 23231 117 544541 1.11 99.91 989 2 76.2075 15974.91115 659003.77469104
33	751279 24754 117 544541 1.11 99.91 989 -5.49714e-05 3.25272 795.74212763294 1777.9273517754
34	776033 17510 117 544541 1.11 99.91 989 4 4 3956 15824
35	793543 26131 117 544541 1.11 99.91 989 -2.91475 0.845447 -31.043150873223 229.01469542443
36	819674 26184 117 544541 1.11 99.91 989 -3.35732 0.889232 -29.53439901135 260.35935572506
37	845858 22579 117 544541 1.11 99.91 989 27.566 36.1111 34108.09 1180865.708353
38	868437 23352 117 544541 1.11 99.91 989 34.4099 3441.76 1757792.0311 4088775892.5647
39	891789 22455 117 544541 1.11 99.91 989 242.45 242.45 239783.05 58135400.472499
40	914244 23222 118 544542 1.11 99.91 989 1.99999 44.2548 15424.6792 543667.59459115
41	937466 25273 118 544542 1.11 99.91 989 -0.00726855 9.33993 466.01326348006 2525.4646650772
42	962739 17510 118 544542 1.11 99.91 989 5 5 4945 24725
43	980249 25672 118 544542 1.11 99.91 989 -2.98011 1.49996 -10.98011694697 384.66339417986
44	1005921 25491 118 544542 1.11 99.91 989 -3.35673 1.5 -10.076026683448 432.06717679996
45	1031412 23324 118 544542 1.11 99.91 989 25.6501 36.1111 34580.0979 1213328.8210011
46	1054736 23343 118 544542 1.11 99.91 989 28.4099 3482.86 1756045.1418 4098512641.9538
47	1078079 22455 118 544542 1.11 99.91 989 242.45 249.05 241426.45 58942064.352501
48	1100534 21473 119 544543 1.11 99.91 989 -1 4.93633 1793.33681 8733.4639378453
49	1122007 22595 119 544543 1.11 99.91 989 -0.00117036 0.114664 29.366826716502 2.3833315811714
50	1144602 17510 119 544543 1.11 99.91 989 6 6 5934 35604
51	1162112 26587 119 544543 1.11 99.91 989 -0.703911 0.0397591 -11.060485136007 7.3790776666413
52	1188699 26479 119 544543 1.11 99.91 989 -1.0816 0.0487689 -10.326397092406 9.7523448843224
53	1215178 22016 119 544543 1.11 99.91 989 34.9512 36.1111 35135.3946 1248432.8868122
54	1237194 23362 119 544543 1.11 99.91 989 22.4099 3532.39 1766003.3591 4174224060.6547
55	1260556 22455 119 544543 1.11 99.91 989 242.45 249.05 242218.45 59332399.572502
56	1283011 23178 120 544544 1.11 99.91 989 1.99742 49.7657 18849.2397 769769.07757334
57	1306189 25674 120 544544 1.11 99.91 989 -0.917063 0.106565 -27.290803533578 24.585496963545
58	1331863 17510 120 544544 1.11 99.91 989 7 7 6923 48461
59	1349373 26253 120 544544 1.11 99.91 989 -0.401758 0.137235 -10.904501233579 4.279102274852
60	1375626 26243 120 544544 1.11 99.91 989 -0.465233 0.393837 -10.122268570002 5.4631098344925
61	1401869 23337 120 544544 1.11 99.91 989 35.0132 36.1498 35162.8334 1250345.4550066
62	1425206 23345 120 544544 1.11 99.91 989 16.4099 3529.14 1759758.6172 4153749793.6393
63	1448551 22455 120 544544 1.11 99.91 989 242.45 245.75 241000.75 58729881.6125
64	1471006 39974 702 544574 1.21723162043 99.917225634189 988 0.099987600416 0.100009254574 98.799994614175 9.8799989356335
65	1510980 27243 702 544574 1.21723162043 99.917225634189 988 2 2 1976 3952
66	1538223 39993 771 544661 1.244031700485 99.944026104832 988 0.099987600416 0.100009254582 98.799995004763 9.8799990137447
67	1578216 27275 771 544661 1.244031700485 99.944026104832 988 6 6 5928 35568
68	1605491 40015 837 544721 1.248211760527 99.948219415086 988 0.099987600416 0.100003600422 98.799995254975 9.8799990634433
69	1645506 27281 837 544721 1.248211760527 99.948219415086 988 3 3 2964 8892
70	1672787 40015 904 544806 1.253002780541 99.9529977089 988 0.099987600417 0.100009059623 98.799995528775 9.8799991183965
71	1712802 27288 904 544806 1.253002780541 99.9529977089 988 4 4 3952 15808
72	1740090 39970 971 544843 1.266282800555 99.966277846398 988 0.099987600416 0.100009254588 98.799995646259 9.87999914205
73	1780060 27275 971 544843 1.266282800555 99.966277846398 988 5 5 4940 24700
74	1807335 40022 1100 544984 1.296353000694 99.996348489024 988 0.099987600416 0.10000925461 98.799996088746 9.8799992305418
75	1847357 27299 1100 544984 1.296353000694 99.996348489024 988 1 1 988 988
76	1874656 40022 1100 544984 1.296353000694 99.996348489024 988 0.099987600416 0.10000925461 98.799996088746 9.8799992305418
77	1914678 27299 1100 544984 1.296353000694 99.996348489024 988 1 1 988 988
78	1941977 39997 1106 544978 1.296353020708 99.996348486749 988 0.099987600416 0.10000925461 98.799996066457 9.879999226084
79	1981974 27279 1106 544978 1.296353020708 99.996348486749 988 2 2 1976 3952
80	2009253 39980 1112 544996 1.296353040722 99.996348647057 988 0.099987600416 0.100009254611 98.799996206751 9.8799992541428
81	2049233 27271 1112 544996 1.296353040722 99.996348647057 988 3 3 2964 8892
82	2076504 40008 1118 545014 1.296353060735 99.996348941257 988 0.099987600416 0.100009254613 98.799996480938 9.8799993089802
83	2116512 27277 1118 545014 1.296353060735 99.996348941257 988 4 4 3952 15808
84	2143789 40000 1124 545008 1.296353080749 99.996348803558 988 0.099987600417 0.100009254615 98.799996323225 9.8799992774376
85	2183789 27267 1124 545008 1.296353080749 99.996348803558 988 5 5 4940 24700
86	2211056 39994 1130 544990 1.296353100763 99.996348639119 988 0.099987600416 0.100009254619 98.799996138772 9.879999240547
87	2251050 27272 1130 544990 1.296353100763 99.996348639119 988 6 6 5928 35568
88	2278322 39993 1136 545002 1.296353120777 99.996348649393 988 0.099987600416 0.100009254624 98.799996129032 9.879999238599
89	2318315 27264 1136 545002 1.296353120777 99.996348649393 988 7 7 6916 48412
90	2345579 39944 1173 544499 1.305928120777 99.90593448843 987 0.099987600418 0.10000919177 98.700006968069 9.8700014065568
91	2385523 27236 1173 544499 1.305928120777 99.90593448843 987 7 7 6909 48363
92	2412759 1459 4960 545016 2 100 99 0 0 0 0
93	2414218 2068 4960 545016 2 100 99 0.022161 0.026130677688 2.471294677688 0.061699231574434
94	2416286 1459 4960 545016 2 100 99 0 0 0 0
95	2417745 1459 4961 545017 2 100 99 1 1 99 99
96	2419204 2068 4961 545017 2 100 99 0.022161 0.025898 2.470902059378 0.06167909747656
97	2421272 1459 4961 545017 2 100 99 0 0 0 0
98	2422731 1459 4962 545018 2 100 99 2 2 198 396
99	2424190 2067 4962 545018 2 100 99 0.022161 0.025898 2.47090211912 0.061679100477412
100	2426257 1558 4962 545018 2 100 99 0 0 0 0
101	2427815 1558 4963 545019 2 100 99 3 3 297 891
102	2429373 2167 4963 545019 2 100 99 0.022161 0.025898 2.470902178974 0.061679103483896
103	2431540 1558 4963 545019 2 100 99 0 0 0 0
104	2433098 1558 4964 545020 2 100 99 4 4 396 1584
105	2434656 2167 4964 545020 2 100 99 0.022161 0.025898 2.470902238868 0.061679106492397
106	2436823 1558 4964 545020 2 100 99 0 0 0 0
107	2438381 1558 4965 545021 2 100 99 5 5 495 2475
108	2439939 2167 4965 545021 2 100 99 0.022161 0.025898 2.470902298802 0.061679109502914
109	2442106 1558 4965 545021 2 100 99 0 0 0 0
110	2443664 1558 4966 545022 2 100 99 6 6 594 3564
111	2445222 2165 4966 545022 2 100 99 0.02216 0.025898 2.47090135874 0.061679068192639
112	2447387 1558 4966 545022 2 100 99 0 0 0 0
113	2448945 1558 4967 545023 2 100 99 7 7 693 4851
114	2450503 2167 4967 545023 2 100 99 0.022161 0.025931418692 2.470902418692 0.06167917006438
115	2452670 1558 4967 545023 2 100 99 0 0 0 0

