file 2455932 1720455829                                         
version 3
run BreakRanksNoGui-22-20240708-18:23:35-158271
attr configname BreakRanksNoGui
attr datetime 20240708-18:23:35
attr datetimef 20240708-182335
attr experiment BreakRanksNoGui
attr inifile omnetpp.ini
attr iterationvars "$nCars=8, $platoonSize=8, $nLanes=1, $ploegH=0.5, $controller=1, $headway=0.1, $leaderHeadway=1.2, $leaderSpeed=110, $breakRanksSafetyDistance=10, $minSpeed=100, $maxSpeed=120, $beaconInterval=0.1, $priority=4, $packetSize=200, $sController=\"CACC\", $0=2, $1=0"
attr iterationvarsd nCars=8/platoonSize=8/nLanes=1/ploegH=0.5/controller=1/headway=0.1/leaderHeadway=1.2/leaderSpeed=110/breakRanksSafetyDistance=10/minSpeed=100/maxSpeed=120/beaconInterval=0.1/priority=4/packetSize=200/sController=CACC/2/0
attr iterationvarsf nCars=8,platoonSize=8,nLanes=1,ploegH=0.5,controller=1,headway=0.1,leaderHeadway=1.2,leaderSpeed=110,breakRanksSafetyDistance=10,minSpeed=100,maxSpeed=120,beaconInterval=0.1,priority=4,packetSize=200,sController=CACC,2,0-
attr measurement "$nCars=8, $platoonSize=8, $nLanes=1, $ploegH=0.5, $controller=1, $headway=0.1, $leaderHeadway=1.2, $leaderSpeed=110, $breakRanksSafetyDistance=10, $minSpeed=100, $maxSpeed=120, $beaconInterval=0.1, $priority=4, $packetSize=200, $sController=\"CACC\", $0=2, $1=0"
attr network Highway
attr processid 158271
attr repetition 2
attr replication #2
attr resultdir results
attr runnumber 22
attr seedset 2
itervar beaconInterval 0.1
itervar breakRanksSafetyDistance 10
itervar controller 1
itervar headway 0.1
itervar leaderHeadway 1.2
itervar leaderSpeed 110
itervar maxSpeed 120
itervar minSpeed 100
itervar nCars 8
itervar nLanes 1
itervar packetSize 200
itervar platoonSize 8
itervar ploegH 0.5
itervar priority 4
itervar sController "\"CACC\""
config image-path ../../../veins/images
config repeat 10
config extends BreakRanks
config *.manager.command "\"sumo\""
config *.manager.ignoreGuiCommands true
config output-vector-file results/BreakRanks_1_0.1_110_10/result_2.vec
config output-scalar-file results/BreakRanks_1_0.1_110_10/result_2.sca
config extends Platooning
config *.node[*].scenario_type "\"BreakRanksScenario\""
config *.manager.command "\"sumo-gui\""
config *.node[*].scenario_type "\"SimpleScenario\""
config cmdenv-express-mode true
config cmdenv-autoflush true
config cmdenv-status-frequency 15s
config num-rngs 6
config network Highway
config debug-on-errors true
config print-undisposed true
config *.playgroundSizeX 65000m
config *.playgroundSizeY 25000m
config *.playgroundSizeZ 50m
config sim-time-limit "100 s"
config *.annotations.draw false
config *.obstacles.debug false
config *.world.useTorus false
config *.world.use2D false
config *.manager.updateInterval 0.01s
config *.manager.host "\"localhost\""
config *.manager.moduleType "\"org.car2x.plexe.PlatoonCar\""
config *.manager.moduleName "\"node\""
config *.manager.moduleDisplayString "\"\""
config *.manager.autoShutdown true
config *.manager.margin 25
config *.connectionManager.sendDirect true
config *.connectionManager.maxInterfDist 2600m
config *.connectionManager.drawMaxIntfDist false
config *.**.nic.mac1609_4.useServiceChannel false
config *.**.nic.mac1609_4.txPower 100mW
config *.**.nic.mac1609_4.bitrate 6Mbps
config *.**.nic.mac1609_4.useAcks true
config *.**.nic.mac1609_4.ackErrorRate 0.0
config *.**.nic.mac1609_4.frameErrorRate 0.0
config *.**.nic.phy80211p.minPowerLevel -94dBm
config *.**.nic.phy80211p.maxTXPower 100mW
config *.**.nic.phy80211p.useNoiseFloor true
config *.**.nic.phy80211p.noiseFloor -95dBm
config *.**.nic.phy80211p.decider "xmldoc(\"config.xml\")"
config *.**.nic.phy80211p.analogueModels "xmldoc(\"config.xml\")"
config *.**.nic.phy80211p.usePropagationDelay true
config *.node[*].mobility.x 0
config *.node[*].mobility.y 0
config *.node[*].mobility.z 1.895
config seed-set 2
config **.seed 2
config *.node[*].prot.rng-0 2
config *.node[*].appl.rng-0 3
config *.node[*].scenario.rng-0 4
config **.traffic.rng-0 5
config *.manager.configFile "\"./sumocfg/freeway.sumo.cfg\""
config *.manager.launchConfig "xmldoc(\"./sumocfg/freeway.launchd.xml\")"
config **.numberOfCars 8
config **.numberOfCarsPerPlatoon 8
config **.numberOfLanes 1
config *.node[*].helper_type "\"PositionHelper\""
config *.node[*].scenario.caccC1 0.5
config *.node[*].scenario.caccXi 1
config *.node[*].scenario.caccOmegaN "0.2 Hz"
config *.node[*].scenario.caccSpacing "2 m"
config *.node[*].scenario.engineTau "0.5 s"
config *.node[*].scenario.ploegH 0.5s
config *.node[*].scenario.ploegKp 0.2
config *.node[*].scenario.ploegKd 0.7
config *.node[*].scenario.useRealisticEngine false
config *.node[*].scenario.useControllerAcceleration true
config *.node[*].scenario.nLanes 1
config **.numericController 1
config **.headway 0.1s
config *.node[*].scenario.accHeadway 0.1s
config *.node[*].scenario.leaderHeadway 1.2s
config *.node[*].scenario.leaderSpeed 110kmph
config *.node[*].appl_type "\"SimplePlatooningApp\""
config *.node[*].appl.*.scalar-recording true
config *.node[*].appl.*.vector-recording true
config *.node[0].appl.breakRanksSafetyDistance 10m
config *.node[*].appl.minSpeed 100kmph
config *.node[*].appl.maxSpeed 120kmph
config *.node[*].protocol_type "\"SimplePlatooningBeaconing\""
config *.node[*].prot.*.scalar-recording true
config *.node[*].prot.*.vector-recording true
config *.node[*].prot.beaconingInterval 0.1s
config *.node[*].prot.priority 4
config *.node[*].prot.packetSize 200
config **.traffic_type "\"PlatoonsTrafficManager\""
config **.traffic.platoonInsertTime "1 s"
config **.traffic.platoonInsertSpeed 110kmph
config **.traffic.nCars 8
config **.traffic.platoonSize 8
config **.traffic.nLanes 1
config **.traffic.platooningVType "\"vtypeauto\""
config **.traffic.controller "\"CACC\""
config **.traffic.platoonInsertDistance 2m
config **.traffic.platoonInsertHeadway 0s
config **.traffic.platoonLeaderHeadway 1.2s
config **.scalar-recording false
config **.vector-recording false
config output-vector-file results/BreakRanksNoGui_1_0.1_110_10/result_2.vec
config output-scalar-file results/BreakRanksNoGui_1_0.1_110_10/result_2.sca

vector 0 Highway.node[0].appl distance ETV
vector 1 Highway.node[0].appl relativeSpeed ETV
vector 2 Highway.node[0].appl nodeId ETV
vector 3 Highway.node[0].appl acceleration ETV
vector 4 Highway.node[0].appl controllerAcceleration ETV
vector 5 Highway.node[0].appl speed ETV
vector 6 Highway.node[0].appl posx ETV
vector 7 Highway.node[0].appl posy ETV
vector 8 Highway.node[1].appl distance ETV
vector 9 Highway.node[1].appl relativeSpeed ETV
vector 10 Highway.node[1].appl nodeId ETV
vector 11 Highway.node[1].appl acceleration ETV
vector 12 Highway.node[1].appl controllerAcceleration ETV
vector 13 Highway.node[1].appl speed ETV
vector 14 Highway.node[1].appl posx ETV
vector 15 Highway.node[1].appl posy ETV
vector 16 Highway.node[2].appl distance ETV
vector 17 Highway.node[2].appl relativeSpeed ETV
vector 18 Highway.node[2].appl nodeId ETV
vector 19 Highway.node[2].appl acceleration ETV
vector 20 Highway.node[2].appl controllerAcceleration ETV
vector 21 Highway.node[2].appl speed ETV
vector 22 Highway.node[2].appl posx ETV
vector 23 Highway.node[2].appl posy ETV
vector 24 Highway.node[3].appl distance ETV
vector 25 Highway.node[3].appl relativeSpeed ETV
vector 26 Highway.node[3].appl nodeId ETV
vector 27 Highway.node[3].appl acceleration ETV
vector 28 Highway.node[3].appl controllerAcceleration ETV
vector 29 Highway.node[3].appl speed ETV
vector 30 Highway.node[3].appl posx ETV
vector 31 Highway.node[3].appl posy ETV
vector 32 Highway.node[4].appl distance ETV
vector 33 Highway.node[4].appl relativeSpeed ETV
vector 34 Highway.node[4].appl nodeId ETV
vector 35 Highway.node[4].appl acceleration ETV
vector 36 Highway.node[4].appl controllerAcceleration ETV
vector 37 Highway.node[4].appl speed ETV
vector 38 Highway.node[4].appl posx ETV
vector 39 Highway.node[4].appl posy ETV
vector 40 Highway.node[5].appl distance ETV
vector 41 Highway.node[5].appl relativeSpeed ETV
vector 42 Highway.node[5].appl nodeId ETV
vector 43 Highway.node[5].appl acceleration ETV
vector 44 Highway.node[5].appl controllerAcceleration ETV
vector 45 Highway.node[5].appl speed ETV
vector 46 Highway.node[5].appl posx ETV
vector 47 Highway.node[5].appl posy ETV
vector 48 Highway.node[6].appl distance ETV
vector 49 Highway.node[6].appl relativeSpeed ETV
vector 50 Highway.node[6].appl nodeId ETV
vector 51 Highway.node[6].appl acceleration ETV
vector 52 Highway.node[6].appl controllerAcceleration ETV
vector 53 Highway.node[6].appl speed ETV
vector 54 Highway.node[6].appl posx ETV
vector 55 Highway.node[6].appl posy ETV
vector 56 Highway.node[7].appl distance ETV
vector 57 Highway.node[7].appl relativeSpeed ETV
vector 58 Highway.node[7].appl nodeId ETV
vector 59 Highway.node[7].appl acceleration ETV
vector 60 Highway.node[7].appl controllerAcceleration ETV
vector 61 Highway.node[7].appl speed ETV
vector 62 Highway.node[7].appl posx ETV
vector 63 Highway.node[7].appl posy ETV
vector 64 Highway.node[7].prot frontDelay ETV
vector 65 Highway.node[7].prot frontDelayId ETV
vector 66 Highway.node[6].prot frontDelay ETV
vector 67 Highway.node[6].prot frontDelayId ETV
vector 68 Highway.node[1].prot leaderDelay ETV
vector 69 Highway.node[1].prot leaderDelayId ETV
vector 70 Highway.node[1].prot frontDelay ETV
vector 71 Highway.node[1].prot frontDelayId ETV
vector 72 Highway.node[2].prot leaderDelay ETV
vector 73 Highway.node[2].prot leaderDelayId ETV
vector 74 Highway.node[3].prot leaderDelay ETV
vector 75 Highway.node[3].prot leaderDelayId ETV
vector 76 Highway.node[4].prot leaderDelay ETV
vector 77 Highway.node[4].prot leaderDelayId ETV
vector 78 Highway.node[5].prot leaderDelay ETV
vector 79 Highway.node[5].prot leaderDelayId ETV
vector 80 Highway.node[6].prot leaderDelay ETV
vector 81 Highway.node[6].prot leaderDelayId ETV
vector 82 Highway.node[7].prot leaderDelay ETV
vector 83 Highway.node[7].prot leaderDelayId ETV
vector 84 Highway.node[4].prot frontDelay ETV
vector 85 Highway.node[4].prot frontDelayId ETV
vector 86 Highway.node[3].prot frontDelay ETV
vector 87 Highway.node[3].prot frontDelayId ETV
vector 88 Highway.node[5].prot frontDelay ETV
vector 89 Highway.node[5].prot frontDelayId ETV
vector 90 Highway.node[2].prot frontDelay ETV
vector 91 Highway.node[2].prot frontDelayId ETV
vector 92 Highway.node[0].prot nodeId ETV
vector 93 Highway.node[0].prot busyTime ETV
vector 94 Highway.node[0].prot collisions ETV
vector 95 Highway.node[1].prot nodeId ETV
vector 96 Highway.node[1].prot busyTime ETV
vector 97 Highway.node[1].prot collisions ETV
vector 98 Highway.node[2].prot nodeId ETV
vector 99 Highway.node[2].prot busyTime ETV
vector 100 Highway.node[2].prot collisions ETV
vector 101 Highway.node[3].prot nodeId ETV
vector 102 Highway.node[3].prot busyTime ETV
vector 103 Highway.node[3].prot collisions ETV
vector 104 Highway.node[4].prot nodeId ETV
vector 105 Highway.node[4].prot busyTime ETV
vector 106 Highway.node[4].prot collisions ETV
vector 107 Highway.node[5].prot nodeId ETV
vector 108 Highway.node[5].prot busyTime ETV
vector 109 Highway.node[5].prot collisions ETV
vector 110 Highway.node[6].prot nodeId ETV
vector 111 Highway.node[6].prot busyTime ETV
vector 112 Highway.node[6].prot collisions ETV
vector 113 Highway.node[7].prot nodeId ETV
vector 114 Highway.node[7].prot busyTime ETV
vector 115 Highway.node[7].prot collisions ETV
0	11345 17510 113 545088 1.11 99.91 989 -1 -1 -989 989
1	28855 16521 113 545088 1.11 99.91 989 0 0 0 0
2	45376 16521 113 545088 1.11 99.91 989 0 0 0 0
3	61897 19109 113 545088 1.11 99.91 989 -0.00283113 0.000125957 -0.043966303784312 9.6812896349407e-05
4	81006 26489 113 545088 1.11 99.91 989 -0.00437036 0.00019576 -0.042459310034081 0.00013890441444735
5	107495 22451 113 545088 1.11 99.91 989 30.5554 30.56 30219.5304 923377.16656332
6	129946 22338 113 545088 1.11 99.91 989 54.6404 3073.54 1546886.0081 3172113239.691
7	152284 21466 113 545088 1.11 99.91 989 242.45 242.45 239783.05 58135400.472499
8	173750 20981 114 545089 1.11 99.91 989 -1 9.99897 5305.36776 50735.053156223
9	194731 22522 114 545089 1.11 99.91 989 -0.000441914 0.637018 79.98979316187 33.706438828461
10	217253 17510 114 545089 1.11 99.91 989 1 1 989 989
11	234763 26754 114 545089 1.11 99.91 989 -0.357252 0.0514756 -5.5697965803295 2.8938833447807
12	261517 26779 114 545089 1.11 99.91 989 -0.54781 0.0518986 -5.0227940045797 3.6577107036709
13	288296 22387 114 545089 1.11 99.91 989 29.9186 30.56 29989.5937 909441.71294303
14	310683 23348 114 545089 1.11 99.91 989 48.6404 3044.57 1532532.2196 3118866755.4698
15	334031 22455 114 545089 1.11 99.91 989 242.45 245.75 240703.75 58584886.2125
16	356486 23308 115 545090 1.11 99.91 989 1.99959 65.8514 17729.37253 637470.77482196
17	379794 24931 115 545090 1.11 99.91 989 -0.000131373 1.62477 499.30125285252 673.62871920085
18	404725 17510 115 545090 1.11 99.91 989 2 2 1978 3956
19	422235 26588 115 545090 1.11 99.91 989 -0.999726 0.0796982 -15.562521785688 15.731979087931
20	448823 26578 115 545090 1.11 99.91 989 -1.5 0.0802382 -14.693720721505 21.100497901235
21	475401 22486 115 545090 1.11 99.91 989 28.9308 30.56 29640.2395 888741.99482643
22	497887 23353 115 545090 1.11 99.91 989 42.6404 3003.69 1516776.9772 3057588411.8789
23	521240 22455 115 545090 1.11 99.91 989 242.45 242.45 239783.05 58135400.472499
24	543695 23306 116 545091 1.11 99.91 989 1.99958 34.8006 12495.79508 253236.01063295
25	567001 25094 116 545091 1.11 99.91 989 -0.000101157 2.2236 328.1056525962 349.26554525573
26	592095 17510 116 545091 1.11 99.91 989 3 3 2967 8901
27	609605 25827 116 545091 1.11 99.91 989 -1.79531 0.26622 -17.53280061541 60.994402088726
28	635432 25822 116 545091 1.11 99.91 989 -2.38145 0.295128 -16.26017150203 75.394221962987
29	661254 23342 116 545091 1.11 99.91 989 26.7245 30.56 29312.1336 869904.96671708
30	684596 23329 116 545091 1.11 99.91 989 36.6404 2964.89 1500324.4705 2992755552.2595
31	707925 22455 116 545091 1.11 99.91 989 242.45 242.45 239783.05 58135400.472499
32	730380 21936 117 545092 1.11 99.91 989 -1 9.98185 4706.09794 42355.819264576
33	752316 23214 117 545092 1.11 99.91 989 -5.87299e-05 0.373022 79.81963229091 20.509381423735
34	775530 17510 117 545092 1.11 99.91 989 4 4 3956 15824
35	793040 26377 117 545092 1.11 99.91 989 -0.49242 0.28986 4.428479733874 8.585585927896
36	819417 26398 117 545092 1.11 99.91 989 -0.595114 0.450786 4.7263453514252 9.9842599336902
37	845815 22383 117 545092 1.11 99.91 989 28.7565 31.0201 30019.2065 911577.67513783
38	868198 23360 117 545092 1.11 99.91 989 30.6404 3029.48 1500376.8247 3016832620.4071
39	891558 22455 117 545092 1.11 99.91 989 242.45 249.05 241624.45 59040448.572501
40	914013 23299 118 545093 1.11 99.91 989 1.99981 51.9362 16799.78857 560780.31578814
41	937312 25333 118 545093 1.11 99.91 989 -1.34099 0.336052 -50.33470827887 112.8955219376
42	962645 17510 118 545093 1.11 99.91 989 5 5 4945 24725
43	980155 25941 118 545093 1.11 99.91 989 -0.513101 0.647995 -4.616944018481 14.051962757096
44	1006096 25923 118 545093 1.11 99.91 989 -0.614823 1.11215 -4.02232669717 18.794774271695
45	1032019 23330 118 545093 1.11 99.91 989 28.5151 31.346 29800.229 898346.05198456
46	1055349 23326 118 545093 1.11 99.91 989 24.6404 3001.63 1487704.9563 2970899142.6379
47	1078675 22455 118 545093 1.11 99.91 989 242.45 245.75 240703.75 58584886.2125
48	1101130 23309 119 545094 1.11 99.91 989 2 64.7844 17347.42684 641976.80690214
49	1124439 24892 119 545094 1.11 99.91 989 -0.591083 1.80141 349.26792277634 428.44864755496
50	1149331 17510 119 545094 1.11 99.91 989 6 6 5934 35604
51	1166841 26137 119 545094 1.11 99.91 989 -1.45989 0.106062 -35.549097875409 51.768051747011
52	1192978 26085 119 545094 1.11 99.91 989 -1.5 0.120024 -34.419757879058 59.438275673579
53	1219063 22559 119 545094 1.11 99.91 989 26.8795 30.56 28803.3891 840852.85787913
54	1241622 23114 119 545094 1.11 99.91 989 18.6404 2896.1 1463570.0996 2863516948.6478
55	1264736 22455 119 545094 1.11 99.91 989 242.45 242.45 239783.05 58135400.472499
56	1287191 23018 120 545095 1.11 99.91 989 -1 63.7511 15726.36957 617622.54856865
57	1310209 24347 120 545095 1.11 99.91 989 -2.0248e-05 1.89279 389.47504673305 447.96794571925
58	1334556 17510 120 545095 1.11 99.91 989 7 7 6923 48461
59	1352066 26166 120 545095 1.11 99.91 989 -0.983552 0.104275 -15.562545234398 22.217191964402
60	1378232 26177 120 545095 1.11 99.91 989 -1.5 0.104526 -14.689875870698 27.808993845864
61	1404409 22498 120 545095 1.11 99.91 989 28.1573 30.56 29242.1709 865223.78298625
62	1426907 23355 120 545095 1.11 99.91 989 12.6404 2933.88 1459160.8816 2861755782.4033
63	1450262 22455 120 545095 1.11 99.91 989 242.45 252.35 241033.75 58749259.2125
64	1472717 39982 702 545125 1.21212246032 99.912122054374 988 0.099987440285 0.100009208516 98.80000003436 9.8800000183776
65	1512699 27249 702 545125 1.21212246032 99.912122054374 988 7 7 6916 48412
66	1539948 39988 837 545296 1.247587520362 99.947587633032 988 0.099987440285 0.100009208537 98.800000552976 9.8800001221005
67	1579936 27257 837 545296 1.247587520362 99.947587633032 988 6 6 5928 35568
68	1607193 40006 899 545328 1.262193620431 99.962193617966 988 0.099987440285 0.100009112287 98.799987437841 9.8799974989867
69	1647199 27274 899 545328 1.262193620431 99.962193617966 988 1 1 988 988
70	1674473 40006 899 545328 1.262193620431 99.962193617966 988 0.099987440285 0.100009112287 98.799987437841 9.8799974989867
71	1714479 27274 899 545328 1.262193620431 99.962193617966 988 1 1 988 988
72	1741753 40002 905 545340 1.262193640445 99.962193753921 988 0.099987440285 0.100009112289 98.799987553782 9.8799975221749
73	1781755 27255 905 545340 1.262193640445 99.962193753921 988 2 2 1976 3952
74	1809010 39989 911 545352 1.262193660458 99.962193883386 988 0.099987440285 0.100009112291 98.799987663233 9.8799975440651
75	1848999 27272 911 545352 1.262193660458 99.962193883386 988 3 3 2964 8892
76	1876271 39994 917 545334 1.262193680472 99.962193669113 988 0.099987440285 0.100009112295 98.799987428947 9.8799974972079
77	1916265 27264 917 545334 1.262193680472 99.962193669113 988 4 4 3952 15808
78	1943529 40023 923 545346 1.262193700486 99.962193760812 988 0.099987440285 0.100009112302 98.799987500632 9.8799975115449
79	1983552 27277 923 545346 1.262193700486 99.962193760812 988 5 5 4940 24700
80	2010829 40002 929 545364 1.2621937205 99.962194113187 988 0.099987440285 0.100009112312 98.799987832993 9.8799975780171
81	2050831 27263 929 545364 1.2621937205 99.962194113187 988 6 6 5928 35568
82	2078094 40000 935 545358 1.262193740514 99.962193986902 988 0.099987440285 0.100009112326 98.799987686694 9.8799975487573
83	2118094 27266 935 545358 1.262193740514 99.962193986902 988 7 7 6916 48412
84	2145360 40018 972 545413 1.276565680472 99.976566100492 988 0.099987440282 0.100009093919 98.800000860325 9.8800001836236
85	2185378 27279 972 545413 1.276565680472 99.976566100492 988 4 4 3952 15808
86	2212657 40013 1039 545474 1.287856700486 99.987857142335 988 0.099987440285 0.100009112296 98.799987882154 9.8799975878504
87	2252670 27280 1039 545474 1.287856700486 99.987857142335 988 3 3 2964 8892
88	2279950 40014 1106 545541 1.297496740514 99.997497196021 988 0.099987440285 0.10000920855 98.800000895812 9.8800001904549
89	2319964 27272 1106 545541 1.297496740514 99.997497196021 988 5 5 4940 24700
90	2347236 39981 1173 545062 1.302586800556 99.902585569269 987 0.099987440283 0.100009105786 98.699999209018 9.8699998533187
91	2387217 27243 1173 545062 1.302586800556 99.902585569269 987 2 2 1974 3948
92	2414460 1459 4960 545567 2 100 99 0 0 0 0
93	2415919 2068 4960 545567 2 100 99 0.022161 0.026131612022 2.471295612022 0.061699280404868
94	2417987 1459 4960 545567 2 100 99 0 0 0 0
95	2419446 1459 4961 545568 2 100 99 1 1 99 99
96	2420905 2067 4961 545568 2 100 99 0.02216 0.025898 2.470901092734 0.061679054831037
97	2422972 1459 4961 545568 2 100 99 0 0 0 0
98	2424431 1459 4962 545569 2 100 99 2 2 198 396
99	2425890 2068 4962 545569 2 100 99 0.022161 0.025898 2.470902185862 0.061679103829883
100	2427958 1558 4962 545569 2 100 99 0 0 0 0
101	2429516 1558 4963 545570 2 100 99 3 3 297 891
102	2431074 2167 4963 545570 2 100 99 0.022161 0.025898 2.470902279104 0.061679108513472
103	2433241 1558 4963 545570 2 100 99 0 0 0 0
104	2434799 1558 4964 545571 2 100 99 4 4 396 1584
105	2436357 2167 4964 545571 2 100 99 0.022161 0.025898 2.470902372378 0.061679113198686
106	2438524 1558 4964 545571 2 100 99 0 0 0 0
107	2440082 1558 4965 545572 2 100 99 5 5 495 2475
108	2441640 2167 4965 545572 2 100 99 0.022161 0.025898 2.470902465666 0.06167911788462
109	2443807 1558 4965 545572 2 100 99 0 0 0 0
110	2445365 1558 4966 545573 2 100 99 6 6 594 3564
111	2446923 2167 4966 545573 2 100 99 0.022161 0.025898 2.470902558964 0.061679122571074
112	2449090 1558 4966 545573 2 100 99 0 0 0 0
113	2450648 1558 4967 545574 2 100 99 7 7 693 4851
114	2452206 2167 4967 545574 2 100 99 0.022161 0.025931652276 2.470902652276 0.061679182178763
115	2454373 1558 4967 545574 2 100 99 0 0 0 0

