file 2457028 1720455845                                         
version 3
run BreakRanksNoGui-23-20240708-18:23:50-158284
attr configname BreakRanksNoGui
attr datetime 20240708-18:23:50
attr datetimef 20240708-182350
attr experiment BreakRanksNoGui
attr inifile omnetpp.ini
attr iterationvars "$nCars=8, $platoonSize=8, $nLanes=1, $ploegH=0.5, $controller=1, $headway=0.1, $leaderHeadway=1.2, $leaderSpeed=110, $breakRanksSafetyDistance=10, $minSpeed=100, $maxSpeed=120, $beaconInterval=0.1, $priority=4, $packetSize=200, $sController=\"CACC\", $0=2, $1=0"
attr iterationvarsd nCars=8/platoonSize=8/nLanes=1/ploegH=0.5/controller=1/headway=0.1/leaderHeadway=1.2/leaderSpeed=110/breakRanksSafetyDistance=10/minSpeed=100/maxSpeed=120/beaconInterval=0.1/priority=4/packetSize=200/sController=CACC/2/0
attr iterationvarsf nCars=8,platoonSize=8,nLanes=1,ploegH=0.5,controller=1,headway=0.1,leaderHeadway=1.2,leaderSpeed=110,breakRanksSafetyDistance=10,minSpeed=100,maxSpeed=120,beaconInterval=0.1,priority=4,packetSize=200,sController=CACC,2,0-
attr measurement "$nCars=8, $platoonSize=8, $nLanes=1, $ploegH=0.5, $controller=1, $headway=0.1, $leaderHeadway=1.2, $leaderSpeed=110, $breakRanksSafetyDistance=10, $minSpeed=100, $maxSpeed=120, $beaconInterval=0.1, $priority=4, $packetSize=200, $sController=\"CACC\", $0=2, $1=0"
attr network Highway
attr processid 158284
attr repetition 3
attr replication #3
attr resultdir results
attr runnumber 23
attr seedset 3
itervar beaconInterval 0.1
itervar breakRanksSafetyDistance 10
itervar controller 1
itervar headway 0.1
itervar leaderHeadway 1.2
itervar leaderSpeed 110
itervar maxSpeed 120
itervar minSpeed 100
itervar nCars 8
itervar nLanes 1
itervar packetSize 200
itervar platoonSize 8
itervar ploegH 0.5
itervar priority 4
itervar sController "\"CACC\""
config image-path ../../../veins/images
config repeat 10
config extends BreakRanks
config *.manager.command "\"sumo\""
config *.manager.ignoreGuiCommands true
config output-vector-file results/BreakRanks_1_0.1_110_10/result_3.vec
config output-scalar-file results/BreakRanks_1_0.1_110_10/result_3.sca
config extends Platooning
config *.node[*].scenario_type "\"BreakRanksScenario\""
config *.manager.command "\"sumo-gui\""
config *.node[*].scenario_type "\"SimpleScenario\""
config cmdenv-express-mode true
config cmdenv-autoflush true
config cmdenv-status-frequency 15s
config num-rngs 6
config network Highway
config debug-on-errors true
config print-undisposed true
config *.playgroundSizeX 65000m
config *.playgroundSizeY 25000m
config *.playgroundSizeZ 50m
config sim-time-limit "100 s"
config *.annotations.draw false
config *.obstacles.debug false
config *.world.useTorus false
config *.world.use2D false
config *.manager.updateInterval 0.01s
config *.manager.host "\"localhost\""
config *.manager.moduleType "\"org.car2x.plexe.PlatoonCar\""
config *.manager.moduleName "\"node\""
config *.manager.moduleDisplayString "\"\""
config *.manager.autoShutdown true
config *.manager.margin 25
config *.connectionManager.sendDirect true
config *.connectionManager.maxInterfDist 2600m
config *.connectionManager.drawMaxIntfDist false
config *.**.nic.mac1609_4.useServiceChannel false
config *.**.nic.mac1609_4.txPower 100mW
config *.**.nic.mac1609_4.bitrate 6Mbps
config *.**.nic.mac1609_4.useAcks true
config *.**.nic.mac1609_4.ackErrorRate 0.0
config *.**.nic.mac1609_4.frameErrorRate 0.0
config *.**.nic.phy80211p.minPowerLevel -94dBm
config *.**.nic.phy80211p.maxTXPower 100mW
config *.**.nic.phy80211p.useNoiseFloor true
config *.**.nic.phy80211p.noiseFloor -95dBm
config *.**.nic.phy80211p.decider "xmldoc(\"config.xml\")"
config *.**.nic.phy80211p.analogueModels "xmldoc(\"config.xml\")"
config *.**.nic.phy80211p.usePropagationDelay true
config *.node[*].mobility.x 0
config *.node[*].mobility.y 0
config *.node[*].mobility.z 1.895
config seed-set 3
config **.seed 3
config *.node[*].prot.rng-0 2
config *.node[*].appl.rng-0 3
config *.node[*].scenario.rng-0 4
config **.traffic.rng-0 5
config *.manager.configFile "\"./sumocfg/freeway.sumo.cfg\""
config *.manager.launchConfig "xmldoc(\"./sumocfg/freeway.launchd.xml\")"
config **.numberOfCars 8
config **.numberOfCarsPerPlatoon 8
config **.numberOfLanes 1
config *.node[*].helper_type "\"PositionHelper\""
config *.node[*].scenario.caccC1 0.5
config *.node[*].scenario.caccXi 1
config *.node[*].scenario.caccOmegaN "0.2 Hz"
config *.node[*].scenario.caccSpacing "2 m"
config *.node[*].scenario.engineTau "0.5 s"
config *.node[*].scenario.ploegH 0.5s
config *.node[*].scenario.ploegKp 0.2
config *.node[*].scenario.ploegKd 0.7
config *.node[*].scenario.useRealisticEngine false
config *.node[*].scenario.useControllerAcceleration true
config *.node[*].scenario.nLanes 1
config **.numericController 1
config **.headway 0.1s
config *.node[*].scenario.accHeadway 0.1s
config *.node[*].scenario.leaderHeadway 1.2s
config *.node[*].scenario.leaderSpeed 110kmph
config *.node[*].appl_type "\"SimplePlatooningApp\""
config *.node[*].appl.*.scalar-recording true
config *.node[*].appl.*.vector-recording true
config *.node[0].appl.breakRanksSafetyDistance 10m
config *.node[*].appl.minSpeed 100kmph
config *.node[*].appl.maxSpeed 120kmph
config *.node[*].protocol_type "\"SimplePlatooningBeaconing\""
config *.node[*].prot.*.scalar-recording true
config *.node[*].prot.*.vector-recording true
config *.node[*].prot.beaconingInterval 0.1s
config *.node[*].prot.priority 4
config *.node[*].prot.packetSize 200
config **.traffic_type "\"PlatoonsTrafficManager\""
config **.traffic.platoonInsertTime "1 s"
config **.traffic.platoonInsertSpeed 110kmph
config **.traffic.nCars 8
config **.traffic.platoonSize 8
config **.traffic.nLanes 1
config **.traffic.platooningVType "\"vtypeauto\""
config **.traffic.controller "\"CACC\""
config **.traffic.platoonInsertDistance 2m
config **.traffic.platoonInsertHeadway 0s
config **.traffic.platoonLeaderHeadway 1.2s
config **.scalar-recording false
config **.vector-recording false
config output-vector-file results/BreakRanksNoGui_1_0.1_110_10/result_3.vec
config output-scalar-file results/BreakRanksNoGui_1_0.1_110_10/result_3.sca

vector 0 Highway.node[0].appl distance ETV
vector 1 Highway.node[0].appl relativeSpeed ETV
vector 2 Highway.node[0].appl nodeId ETV
vector 3 Highway.node[0].appl acceleration ETV
vector 4 Highway.node[0].appl controllerAcceleration ETV
vector 5 Highway.node[0].appl speed ETV
vector 6 Highway.node[0].appl posx ETV
vector 7 Highway.node[0].appl posy ETV
vector 8 Highway.node[1].appl distance ETV
vector 9 Highway.node[1].appl relativeSpeed ETV
vector 10 Highway.node[1].appl nodeId ETV
vector 11 Highway.node[1].appl acceleration ETV
vector 12 Highway.node[1].appl controllerAcceleration ETV
vector 13 Highway.node[1].appl speed ETV
vector 14 Highway.node[1].appl posx ETV
vector 15 Highway.node[1].appl posy ETV
vector 16 Highway.node[2].appl distance ETV
vector 17 Highway.node[2].appl relativeSpeed ETV
vector 18 Highway.node[2].appl nodeId ETV
vector 19 Highway.node[2].appl acceleration ETV
vector 20 Highway.node[2].appl controllerAcceleration ETV
vector 21 Highway.node[2].appl speed ETV
vector 22 Highway.node[2].appl posx ETV
vector 23 Highway.node[2].appl posy ETV
vector 24 Highway.node[3].appl distance ETV
vector 25 Highway.node[3].appl relativeSpeed ETV
vector 26 Highway.node[3].appl nodeId ETV
vector 27 Highway.node[3].appl acceleration ETV
vector 28 Highway.node[3].appl controllerAcceleration ETV
vector 29 Highway.node[3].appl speed ETV
vector 30 Highway.node[3].appl posx ETV
vector 31 Highway.node[3].appl posy ETV
vector 32 Highway.node[4].appl distance ETV
vector 33 Highway.node[4].appl relativeSpeed ETV
vector 34 Highway.node[4].appl nodeId ETV
vector 35 Highway.node[4].appl acceleration ETV
vector 36 Highway.node[4].appl controllerAcceleration ETV
vector 37 Highway.node[4].appl speed ETV
vector 38 Highway.node[4].appl posx ETV
vector 39 Highway.node[4].appl posy ETV
vector 40 Highway.node[5].appl distance ETV
vector 41 Highway.node[5].appl relativeSpeed ETV
vector 42 Highway.node[5].appl nodeId ETV
vector 43 Highway.node[5].appl acceleration ETV
vector 44 Highway.node[5].appl controllerAcceleration ETV
vector 45 Highway.node[5].appl speed ETV
vector 46 Highway.node[5].appl posx ETV
vector 47 Highway.node[5].appl posy ETV
vector 48 Highway.node[6].appl distance ETV
vector 49 Highway.node[6].appl relativeSpeed ETV
vector 50 Highway.node[6].appl nodeId ETV
vector 51 Highway.node[6].appl acceleration ETV
vector 52 Highway.node[6].appl controllerAcceleration ETV
vector 53 Highway.node[6].appl speed ETV
vector 54 Highway.node[6].appl posx ETV
vector 55 Highway.node[6].appl posy ETV
vector 56 Highway.node[7].appl distance ETV
vector 57 Highway.node[7].appl relativeSpeed ETV
vector 58 Highway.node[7].appl nodeId ETV
vector 59 Highway.node[7].appl acceleration ETV
vector 60 Highway.node[7].appl controllerAcceleration ETV
vector 61 Highway.node[7].appl speed ETV
vector 62 Highway.node[7].appl posx ETV
vector 63 Highway.node[7].appl posy ETV
vector 64 Highway.node[1].prot leaderDelay ETV
vector 65 Highway.node[1].prot leaderDelayId ETV
vector 66 Highway.node[1].prot frontDelay ETV
vector 67 Highway.node[1].prot frontDelayId ETV
vector 68 Highway.node[2].prot leaderDelay ETV
vector 69 Highway.node[2].prot leaderDelayId ETV
vector 70 Highway.node[3].prot leaderDelay ETV
vector 71 Highway.node[3].prot leaderDelayId ETV
vector 72 Highway.node[4].prot leaderDelay ETV
vector 73 Highway.node[4].prot leaderDelayId ETV
vector 74 Highway.node[5].prot leaderDelay ETV
vector 75 Highway.node[5].prot leaderDelayId ETV
vector 76 Highway.node[6].prot leaderDelay ETV
vector 77 Highway.node[6].prot leaderDelayId ETV
vector 78 Highway.node[7].prot leaderDelay ETV
vector 79 Highway.node[7].prot leaderDelayId ETV
vector 80 Highway.node[7].prot frontDelay ETV
vector 81 Highway.node[7].prot frontDelayId ETV
vector 82 Highway.node[2].prot frontDelay ETV
vector 83 Highway.node[2].prot frontDelayId ETV
vector 84 Highway.node[5].prot frontDelay ETV
vector 85 Highway.node[5].prot frontDelayId ETV
vector 86 Highway.node[3].prot frontDelay ETV
vector 87 Highway.node[3].prot frontDelayId ETV
vector 88 Highway.node[6].prot frontDelay ETV
vector 89 Highway.node[6].prot frontDelayId ETV
vector 90 Highway.node[4].prot frontDelay ETV
vector 91 Highway.node[4].prot frontDelayId ETV
vector 92 Highway.node[0].prot nodeId ETV
vector 93 Highway.node[0].prot busyTime ETV
vector 94 Highway.node[0].prot collisions ETV
vector 95 Highway.node[1].prot nodeId ETV
vector 96 Highway.node[1].prot busyTime ETV
vector 97 Highway.node[1].prot collisions ETV
vector 98 Highway.node[2].prot nodeId ETV
vector 99 Highway.node[2].prot busyTime ETV
vector 100 Highway.node[2].prot collisions ETV
vector 101 Highway.node[3].prot nodeId ETV
vector 102 Highway.node[3].prot busyTime ETV
vector 103 Highway.node[3].prot collisions ETV
vector 104 Highway.node[4].prot nodeId ETV
vector 105 Highway.node[4].prot busyTime ETV
vector 106 Highway.node[4].prot collisions ETV
vector 107 Highway.node[5].prot nodeId ETV
vector 108 Highway.node[5].prot busyTime ETV
vector 109 Highway.node[5].prot collisions ETV
vector 110 Highway.node[6].prot nodeId ETV
vector 111 Highway.node[6].prot busyTime ETV
vector 112 Highway.node[6].prot collisions ETV
vector 113 Highway.node[7].prot nodeId ETV
vector 114 Highway.node[7].prot busyTime ETV
vector 115 Highway.node[7].prot collisions ETV
0	11345 17510 113 545089 1.11 99.91 989 -1 -1 -989 989
1	28855 16521 113 545089 1.11 99.91 989 0 0 0 0
2	45376 16521 113 545089 1.11 99.91 989 0 0 0 0
3	61897 19109 113 545089 1.11 99.91 989 -0.00283113 0.000125957 -0.043966303784312 9.6812896349407e-05
4	81006 26489 113 545089 1.11 99.91 989 -0.00437036 0.00019576 -0.042459310034081 0.00013890441444735
5	107495 22451 113 545089 1.11 99.91 989 30.5554 30.56 30219.5304 923377.16656332
6	129946 22290 113 545089 1.11 99.91 989 59.1004 3078 1551296.9489 3185931137.6231
7	152236 21466 113 545089 1.11 99.91 989 242.45 242.45 239783.05 58135400.472499
8	173702 20986 114 545090 1.11 99.91 989 -1 9.99899 5316.36675 50834.032957243
9	194688 22530 114 545090 1.11 99.91 989 -0.000441914 0.637018 79.98995086187 33.706438853331
10	217218 17510 114 545090 1.11 99.91 989 1 1 989 989
11	234728 26762 114 545090 1.11 99.91 989 -0.357254 0.0514756 -5.56979926539 2.8938989589795
12	261490 26771 114 545090 1.11 99.91 989 -0.547813 0.0518986 -5.0227955275022 3.6577312967854
13	288261 22392 114 545090 1.11 99.91 989 29.9186 30.56 29990.1491 909475.34541219
14	310653 23342 114 545090 1.11 99.91 989 53.1004 3049.09 1536959.1216 3132641241.5782
15	333995 22455 114 545090 1.11 99.91 989 242.45 245.75 240700.45 58583275.1525
16	356450 23324 115 545091 1.11 99.91 989 1.99962 37.6303 14612.71953 358101.57813289
17	379774 25286 115 545091 1.11 99.91 989 -0.00010195 1.25671 216.36433389992 127.39790511472
18	405060 17510 115 545091 1.11 99.91 989 2 2 1978 3956
19	422570 26021 115 545091 1.11 99.91 989 -0.794369 0.139058 -1.033480164 12.029623795507
20	448591 26025 115 545091 1.11 99.91 989 -1.21064 0.156878 -0.20797832620999 15.710502003521
21	474616 23337 115 545091 1.11 99.91 989 29.2989 30.56 29923.1743 905486.25187363
22	497953 23327 115 545091 1.11 99.91 989 47.1004 3036.37 1524289.7963 3088473491.7994
23	521280 22455 115 545091 1.11 99.91 989 242.45 242.45 239783.05 58135400.472499
24	543735 22016 116 545092 1.11 99.91 989 -1 10.3892 5048.93511 46405.120966427
25	565751 23376 116 545092 1.11 99.91 989 -0.000306167 0.847157 84.323626351033 25.826993222003
26	589127 17510 116 545092 1.11 99.91 989 3 3 2967 8901
27	606637 26379 116 545092 1.11 99.91 989 -1.7368 0.918971 -5.5396543583962 44.762750379683
28	633016 26401 116 545092 1.11 99.91 989 -2.37988 1.4296 -4.1966309355301 78.70318766701
29	659417 22552 116 545092 1.11 99.91 989 28.5716 30.56 29803.4709 898329.50155805
30	681969 23358 116 545092 1.11 99.91 989 41.1004 3018.42 1512201.3739 3046781490.7835
31	705327 22455 116 545092 1.11 99.91 989 242.45 249.05 241538.65 58998277.872501
32	727782 22993 117 545093 1.11 99.91 989 -1 85.4663 16337.05112 727691.46024955
33	750775 23714 117 545093 1.11 99.91 989 -8.90343e-05 3.00435 715.72219429523 1927.9647088092
34	774489 17510 117 545093 1.11 99.91 989 4 4 3956 15824
35	791999 26280 117 545093 1.11 99.91 989 -1.46264 0.103184 -35.562591898602 49.618268571712
36	818279 26215 117 545093 1.11 99.91 989 -1.5 0.10361 -34.685097011632 57.60356525608
37	844494 22551 117 545093 1.11 99.91 989 26.8987 30.56 28967.3066 850504.71142544
38	867045 23347 117 545093 1.11 99.91 989 35.1004 2928.95 1490949.9208 2954720522.0079
39	890392 22455 117 545093 1.11 99.91 989 242.45 252.35 241796.05 59126554.152501
40	912847 23249 118 545094 1.11 99.91 989 1.99976 66.4512 18350.1744 727563.84617022
41	936096 24939 118 545094 1.11 99.91 989 -0.52077 1.45266 361.09344556878 352.18875652203
42	961035 17510 118 545094 1.11 99.91 989 5 5 4945 24725
43	978545 26236 118 545094 1.11 99.91 989 -1.34064 0.141876 -15.553988027176 26.210469095785
44	1004781 26220 118 545094 1.11 99.91 989 -1.57225 0.220487 -14.749617161063 35.981504589142
45	1031001 22496 118 545094 1.11 99.91 989 28.5115 30.56 29397.938 874382.9106899
46	1053497 23338 118 545094 1.11 99.91 989 29.1004 2965.92 1485939.7104 2950830734.2877
47	1076835 22455 118 545094 1.11 99.91 989 242.45 242.45 239783.05 58135400.472499
48	1099290 23316 119 545095 1.11 99.91 989 1.99986 92.9261 25058.96182 1629857.3805024
49	1122606 24008 119 545095 1.11 99.91 989 -0.746336 1.09136 330.26985125864 273.50698189157
50	1146614 17510 119 545095 1.11 99.91 989 6 6 5934 35604
51	1164124 26179 119 545095 1.11 99.91 989 -0.991208 0.120938 -15.549359328249 23.12502319627
52	1190303 26173 119 545095 1.11 99.91 989 -1.5 0.187732 -14.434971734567 28.554919625198
53	1216476 22514 119 545095 1.11 99.91 989 28.3161 30.56 29320.3869 869818.46791885
54	1238990 23358 119 545095 1.11 99.91 989 23.1004 2952.16 1474670.999 2912517400.2592
55	1262348 22455 119 545095 1.11 99.91 989 242.45 249.05 240865.45 58664917.1525
56	1284803 22209 120 545096 1.11 99.91 989 -1 37.3957 6058.93629 100048.94784264
57	1307012 23475 120 545096 1.11 99.91 989 -1.54712 0.283664 45.559027330251 59.204957846697
58	1330487 17510 120 545096 1.11 99.91 989 7 7 6923 48461
59	1347997 25935 120 545096 1.11 99.91 989 -1.27508 1.43382 -5.5626412462087 79.647533382473
60	1373932 25884 120 545096 1.11 99.91 989 -1.3884 1.5 -4.9885547857893 92.276994927164
61	1399816 22873 120 545096 1.11 99.91 989 26.8319 30.56 29356.9358 872248.00431674
62	1422689 23364 120 545096 1.11 99.91 989 17.1004 2949.77 1463766.3811 2876252938.9544
63	1446053 22455 120 545096 1.11 99.91 989 242.45 252.35 242535.25 59497189.0325
64	1468508 40006 701 545131 1.269543540376 99.969538452378 988 0.099987520329 0.100009769572 98.799995432364 9.8799991000915
65	1508514 27264 701 545131 1.269543540376 99.969538452378 988 1 1 988 988
66	1535778 40006 701 545131 1.269543540376 99.969538452378 988 0.099987520329 0.100009769572 98.799995432364 9.8799991000915
67	1575784 27264 701 545131 1.269543540376 99.969538452378 988 1 1 988 988
68	1603048 40004 707 545137 1.26954356039 99.969538494091 988 0.099987520329 0.100009769572 98.799995454063 9.8799991044313
69	1643052 27269 707 545137 1.26954356039 99.969538494091 988 2 2 1976 3952
70	1670321 40016 713 545143 1.269543580403 99.969538555265 988 0.099987520329 0.100009769573 98.799995495223 9.8799991126633
71	1710337 27276 713 545143 1.269543580403 99.969538555265 988 3 3 2964 8892
72	1737613 40017 719 545167 1.269543600417 99.969538853564 988 0.099987520329 0.100009769575 98.799995773509 9.8799991683205
73	1777630 27269 719 545167 1.269543600417 99.969538853564 988 4 4 3952 15808
74	1804899 39992 725 545149 1.269543620431 99.969538729382 988 0.099987520329 0.100009769577 98.799995629313 9.8799991394813
75	1844891 27262 725 545149 1.269543620431 99.969538729382 988 5 5 4940 24700
76	1872153 40008 731 545155 1.269543640445 99.969538775408 988 0.099987520329 0.10000976958 98.799995655325 9.8799991446837
77	1912161 27283 731 545155 1.269543640445 99.969538775408 988 6 6 5928 35568
78	1939444 39998 737 545161 1.269543660459 99.969538784326 988 0.099987520329 0.100009769586 98.799995644229 9.8799991424644
79	1979442 27257 737 545161 1.269543660459 99.969538784326 988 7 7 6916 48412
80	2006699 40001 842 545266 1.292086700487 99.992081830987 988 0.09998752033 0.100009769596 98.799995650862 9.8799991437919
81	2046700 27258 842 545266 1.292086700487 99.992081830987 988 7 7 6916 48412
82	2073958 40022 908 545332 1.299178800556 99.999174174981 988 0.099987520329 0.100009576352 98.799995894787 9.8799991925068
83	2113980 27288 908 545332 1.299178800556 99.999174174981 988 2 2 1976 3952
84	2141268 40000 974 545410 1.299575860598 99.999584658891 988 0.099987520328 0.100009673888 98.800009318655 9.8800018775682
85	2181268 27272 974 545410 1.299575860598 99.999584658891 988 5 5 4940 24700
86	2208540 39963 1041 544925 1.300193900626 99.90018780757 987 0.099987520329 0.10000936766 98.699994427306 9.8699988991995
87	2248503 27246 1041 544925 1.300193900626 99.90018780757 987 3 3 2961 8883
88	2275749 39963 1110 544988 1.305595960668 99.905590025932 987 0.099987520329 0.100009337449 98.699994585626 9.8699989306518
89	2315712 27243 1110 544988 1.305595960668 99.905590025932 987 6 6 5922 35532
90	2342955 39998 1173 545087 1.306045000696 99.905974453687 987 0.099909670093 0.10009268125 98.699929973353 9.8699877263915
91	2382953 27257 1173 545087 1.306045000696 99.905974453687 987 4 4 3948 15792
92	2410210 1459 4848 545456 2 100 99 0 0 0 0
93	2411669 2741 4848 545456 2 100 99 0.021651436855 0.026130600373 2.470793580099 0.061677333600603
94	2414410 1459 4848 545456 2 100 99 0 0 0 0
95	2415869 1459 4849 545457 2 100 99 1 1 99 99
96	2417328 2734 4849 545457 2 100 99 0.021651456868 0.025896987352 2.470400155972 0.061657157331446
97	2420062 1459 4849 545457 2 100 99 0 0 0 0
98	2421521 1459 4850 545458 2 100 99 2 2 198 396
99	2422980 2734 4850 545458 2 100 99 0.021651476882 0.02589698895 2.470400292802 0.06165716404316
100	2425714 1558 4850 545458 2 100 99 0 0 0 0
101	2427272 1558 4851 545459 2 100 99 3 3 297 891
102	2428830 2836 4851 545459 2 100 99 0.021650456868 0.025896988341 2.470399322127 0.061657122350088
103	2431666 1558 4851 545459 2 100 99 0 0 0 0
104	2433224 1558 4852 545460 2 100 99 4 4 396 1584
105	2434782 2839 4852 545460 2 100 99 0.021651436855 0.025896986196 2.470400119311 0.061657154800859
106	2437621 1558 4852 545460 2 100 99 0 0 0 0
107	2439179 1558 4853 545461 2 100 99 5 5 495 2475
108	2440737 2832 4853 545461 2 100 99 0.021650416841 0.025896988765 2.470399337168 0.061657122532679
109	2443569 1558 4853 545461 2 100 99 0 0 0 0
110	2445127 1558 4854 545462 2 100 99 6 6 594 3564
111	2446685 2834 4854 545462 2 100 99 0.021651396827 0.025896988394 2.470400384369 0.061657169214149
112	2449519 1558 4854 545462 2 100 99 0 0 0 0
113	2451077 1558 4855 545463 2 100 99 7 7 693 4851
114	2452635 2834 4855 545463 2 100 99 0.021651376813 0.025930639163 2.470400468344 0.061657228058873
115	2455469 1558 4855 545463 2 100 99 0 0 0 0

