version 3
run BreakRanksNoGui-294-20240711-15:02:27-293149
attr configname BreakRanksNoGui
attr datetime 20240711-15:02:27
attr datetimef 20240711-150227
attr experiment BreakRanksNoGui
attr inifile omnetpp.ini
attr iterationvars "$nCars=3, $platoonSize=2, $nLanes=1, $ploegH=0.5, $controller=1, $headway=0.1, $leaderHeadway=1.2, $leaderSpeed=130, $breakRanksSafetyDistance=20, $minSpeed=120, $maxSpeed=140, $beaconInterval=0.1, $priority=4, $packetSize=200, $sController=\"CACC\", $0=2, $1=0"
attr iterationvarsd nCars=3/platoonSize=2/nLanes=1/ploegH=0.5/controller=1/headway=0.1/leaderHeadway=1.2/leaderSpeed=130/breakRanksSafetyDistance=20/minSpeed=120/maxSpeed=140/beaconInterval=0.1/priority=4/packetSize=200/sController=CACC/2/0
attr iterationvarsf nCars=3,platoonSize=2,nLanes=1,ploegH=0.5,controller=1,headway=0.1,leaderHeadway=1.2,leaderSpeed=130,breakRanksSafetyDistance=20,minSpeed=120,maxSpeed=140,beaconInterval=0.1,priority=4,packetSize=200,sController=CACC,2,0-
attr measurement "$nCars=3, $platoonSize=2, $nLanes=1, $ploegH=0.5, $controller=1, $headway=0.1, $leaderHeadway=1.2, $leaderSpeed=130, $breakRanksSafetyDistance=20, $minSpeed=120, $maxSpeed=140, $beaconInterval=0.1, $priority=4, $packetSize=200, $sController=\"CACC\", $0=2, $1=0"
attr network Highway
attr processid 293149
attr repetition 4
attr replication #4
attr resultdir results
attr runnumber 294
attr seedset 4
itervar beaconInterval 0.1
itervar breakRanksSafetyDistance 20
itervar controller 1
itervar headway 0.1
itervar leaderHeadway 1.2
itervar leaderSpeed 130
itervar maxSpeed 140
itervar minSpeed 120
itervar nCars 3
itervar nLanes 1
itervar packetSize 200
itervar platoonSize 2
itervar ploegH 0.5
itervar priority 4
itervar sController "\"CACC\""
config image-path ../../../veins/images
config repeat 10
config extends BreakRanks
config *.manager.command "\"sumo\""
config *.manager.ignoreGuiCommands true
config output-vector-file "results/BreakRanks_1_0.1_130_20_2 /result_4.vec"
config output-scalar-file "results/BreakRanks_1_0.1_130_20_2 /result_4.sca"
config extends Platooning
config *.node[*].scenario_type "\"BreakRanksScenario\""
config *.manager.command "\"sumo-gui\""
config *.node[*].scenario_type "\"SimpleScenario\""
config cmdenv-express-mode true
config cmdenv-autoflush true
config cmdenv-status-frequency 15s
config num-rngs 6
config network Highway
config debug-on-errors true
config print-undisposed true
config *.playgroundSizeX 65000m
config *.playgroundSizeY 25000m
config *.playgroundSizeZ 50m
config sim-time-limit "100 s"
config *.annotations.draw false
config *.obstacles.debug false
config *.world.useTorus false
config *.world.use2D false
config *.manager.updateInterval 0.01s
config *.manager.host "\"localhost\""
config *.manager.moduleType "\"org.car2x.plexe.PlatoonCar\""
config *.manager.moduleName "\"node\""
config *.manager.moduleDisplayString "\"\""
config *.manager.autoShutdown true
config *.manager.margin 25
config *.connectionManager.sendDirect true
config *.connectionManager.maxInterfDist 2600m
config *.connectionManager.drawMaxIntfDist false
config *.**.nic.mac1609_4.useServiceChannel false
config *.**.nic.mac1609_4.txPower 100mW
config *.**.nic.mac1609_4.bitrate 6Mbps
config *.**.nic.mac1609_4.useAcks true
config *.**.nic.mac1609_4.ackErrorRate 0.0
config *.**.nic.mac1609_4.frameErrorRate 0.0
config *.**.nic.phy80211p.minPowerLevel -94dBm
config *.**.nic.phy80211p.maxTXPower 100mW
config *.**.nic.phy80211p.useNoiseFloor true
config *.**.nic.phy80211p.noiseFloor -95dBm
config *.**.nic.phy80211p.decider "xmldoc(\"config.xml\")"
config *.**.nic.phy80211p.analogueModels "xmldoc(\"config.xml\")"
config *.**.nic.phy80211p.usePropagationDelay true
config *.node[*].mobility.x 0
config *.node[*].mobility.y 0
config *.node[*].mobility.z 1.895
config seed-set 4
config **.seed 4
config *.node[*].prot.rng-0 2
config *.node[*].appl.rng-0 3
config *.node[*].scenario.rng-0 4
config **.traffic.rng-0 5
config *.manager.configFile "\"./sumocfg/freeway.sumo.cfg\""
config *.manager.launchConfig "xmldoc(\"./sumocfg/freeway.launchd.xml\")"
config **.numberOfCars 3
config **.numberOfCarsPerPlatoon 2
config **.numberOfLanes 1
config *.node[*].helper_type "\"PositionHelper\""
config *.node[*].scenario.caccC1 0.5
config *.node[*].scenario.caccXi 1
config *.node[*].scenario.caccOmegaN "0.2 Hz"
config *.node[*].scenario.caccSpacing "2 m"
config *.node[*].scenario.engineTau "0.5 s"
config *.node[*].scenario.ploegH 0.5s
config *.node[*].scenario.ploegKp 0.2
config *.node[*].scenario.ploegKd 0.7
config *.node[*].scenario.useRealisticEngine false
config *.node[*].scenario.useControllerAcceleration true
config *.node[*].scenario.nLanes 1
config **.numericController 1
config **.headway 0.1s
config *.node[*].scenario.accHeadway 0.1s
config *.node[*].scenario.leaderHeadway 1.2s
config *.node[*].scenario.leaderSpeed 130kmph
config *.node[*].appl_type "\"SimplePlatooningApp\""
config *.node[*].appl.*.scalar-recording true
config *.node[*].appl.*.vector-recording true
config *.node[0].appl.breakRanksSafetyDistance 20m
config *.node[*].appl.minSpeed 120kmph
config *.node[*].appl.maxSpeed 140kmph
config *.node[*].protocol_type "\"SimplePlatooningBeaconing\""
config *.node[*].prot.*.scalar-recording true
config *.node[*].prot.*.vector-recording true
config *.node[*].prot.beaconingInterval 0.1s
config *.node[*].prot.priority 4
config *.node[*].prot.packetSize 200
config **.traffic_type "\"PlatoonsTrafficManager\""
config **.traffic.platoonInsertTime "1 s"
config **.traffic.platoonInsertSpeed 130kmph
config **.traffic.nCars 3
config **.traffic.platoonSize 2
config **.traffic.nLanes 1
config **.traffic.platooningVType "\"vtypeauto\""
config **.traffic.controller "\"CACC\""
config **.traffic.platoonInsertDistance 2m
config **.traffic.platoonInsertHeadway 0s
config **.traffic.platoonLeaderHeadway 1.2s
config **.scalar-recording false
config **.vector-recording false

vector 0 Highway.node[0].appl distance ETV
vector 1 Highway.node[0].appl relativeSpeed ETV
vector 2 Highway.node[0].appl nodeId ETV
vector 3 Highway.node[0].appl acceleration ETV
vector 4 Highway.node[0].appl controllerAcceleration ETV
vector 5 Highway.node[0].appl speed ETV
vector 6 Highway.node[0].appl posx ETV
vector 7 Highway.node[0].appl posy ETV
vector 8 Highway.node[1].appl distance ETV
vector 9 Highway.node[1].appl relativeSpeed ETV
vector 10 Highway.node[1].appl nodeId ETV
vector 11 Highway.node[1].appl acceleration ETV
vector 12 Highway.node[1].appl controllerAcceleration ETV
vector 13 Highway.node[1].appl speed ETV
vector 14 Highway.node[1].appl posx ETV
vector 15 Highway.node[1].appl posy ETV
vector 16 Highway.node[2].appl distance ETV
vector 17 Highway.node[2].appl relativeSpeed ETV
vector 18 Highway.node[2].appl nodeId ETV
vector 19 Highway.node[2].appl acceleration ETV
vector 20 Highway.node[2].appl controllerAcceleration ETV
vector 21 Highway.node[2].appl speed ETV
vector 22 Highway.node[2].appl posx ETV
vector 23 Highway.node[2].appl posy ETV
vector 24 Highway.node[1].prot leaderDelay ETV
vector 25 Highway.node[1].prot leaderDelayId ETV
vector 26 Highway.node[1].prot frontDelay ETV
vector 27 Highway.node[1].prot frontDelayId ETV
vector 28 Highway.node[0].prot nodeId ETV
vector 29 Highway.node[0].prot busyTime ETV
vector 30 Highway.node[0].prot collisions ETV
vector 31 Highway.node[1].prot nodeId ETV
vector 32 Highway.node[1].prot busyTime ETV
vector 33 Highway.node[1].prot collisions ETV
vector 34 Highway.node[2].prot nodeId ETV
vector 35 Highway.node[2].prot busyTime ETV
vector 36 Highway.node[2].prot collisions ETV
0	113	1.11	9341.16
0	172	1.21	9341.16
0	231	1.31	9341.16
0	290	1.41	9341.16
0	349	1.51	9341.16
0	408	1.61	9341.16
0	467	1.71	9341.16
0	526	1.81	-1
0	585	1.91	-1
0	647	2.01	-1
0	706	2.11	-1
0	765	2.21	-1
0	824	2.31	-1
0	883	2.41	-1
0	942	2.51	-1
0	1001	2.61	-1
0	1060	2.71	-1
0	1119	2.81	-1
0	1178	2.91	-1
0	1240	3.01	-1
0	1299	3.11	-1
0	1358	3.21	-1
0	1417	3.31	-1
0	1476	3.41	-1
0	1535	3.51	-1
0	1594	3.61	-1
0	1653	3.71	-1
0	1712	3.81	-1
0	1771	3.91	-1
0	1833	4.01	-1
0	1892	4.11	-1
0	1951	4.21	-1
0	2010	4.31	-1
0	2069	4.41	-1
0	2128	4.51	-1
0	2187	4.61	-1
0	2246	4.71	-1
0	2305	4.81	-1
0	2364	4.91	-1
0	2426	5.01	-1
0	2485	5.11	-1
0	2544	5.21	-1
0	2603	5.31	-1
0	2662	5.41	-1
0	2721	5.51	-1
0	2780	5.61	-1
0	2839	5.71	-1
0	2898	5.81	-1
0	2957	5.91	-1
0	3019	6.01	-1
0	3078	6.11	-1
0	3137	6.21	-1
0	3196	6.31	-1
0	3255	6.41	-1
0	3314	6.51	-1
0	3373	6.61	-1
0	3432	6.71	-1
0	3491	6.81	-1
0	3550	6.91	-1
0	3612	7.01	-1
0	3671	7.11	-1
0	3730	7.21	-1
0	3789	7.31	-1
0	3848	7.41	-1
0	3907	7.51	-1
0	3966	7.61	-1
0	4025	7.71	-1
0	4084	7.81	-1
0	4143	7.91	-1
0	4205	8.01	-1
0	4264	8.11	-1
0	4323	8.21	-1
0	4382	8.31	-1
0	4441	8.41	-1
0	4500	8.51	-1
0	4559	8.61	-1
0	4618	8.71	-1
0	4677	8.81	-1
0	4736	8.91	-1
0	4798	9.01	-1
0	4857	9.11	-1
0	4916	9.21	-1
0	4975	9.31	-1
0	5034	9.41	-1
0	5093	9.51	-1
0	5152	9.61	-1
0	5211	9.71	-1
0	5270	9.81	-1
0	5329	9.91	-1
0	5422	10.01	-1
0	5482	10.11	-1
0	5542	10.21	-1
0	5602	10.31	-1
0	5662	10.41	-1
0	5722	10.51	-1
0	5782	10.61	-1
0	5842	10.71	-1
0	5902	10.81	-1
0	5962	10.91	-1
0	6025	11.01	-1
0	6085	11.11	-1
0	6145	11.21	-1
0	6205	11.31	-1
0	6265	11.41	-1
0	6325	11.51	-1
0	6385	11.61	-1
0	6445	11.71	-1
0	6505	11.81	-1
0	6565	11.91	-1
0	6628	12.01	-1
0	6688	12.11	-1
0	6748	12.21	-1
0	6808	12.31	-1
0	6868	12.41	-1
0	6928	12.51	-1
0	6988	12.61	-1
0	7048	12.71	-1
0	7108	12.81	-1
0	7168	12.91	-1
0	7231	13.01	-1
0	7291	13.11	-1
0	7351	13.21	-1
0	7411	13.31	-1
0	7471	13.41	-1
0	7531	13.51	-1
0	7591	13.61	-1
0	7651	13.71	-1
0	7711	13.81	-1
0	7771	13.91	-1
0	7834	14.01	-1
0	7894	14.11	-1
0	7954	14.21	-1
0	8014	14.31	-1
0	8074	14.41	-1
0	8134	14.51	-1
0	8194	14.61	-1
0	8254	14.71	-1
0	8314	14.81	-1
0	8374	14.91	-1
0	8437	15.01	-1
0	8497	15.11	-1
0	8557	15.21	-1
0	8617	15.31	-1
0	8677	15.41	-1
0	8737	15.51	-1
0	8797	15.61	-1
0	8857	15.71	-1
0	8917	15.81	-1
0	8977	15.91	-1
0	9040	16.01	-1
0	9100	16.11	-1
0	9160	16.21	-1
0	9220	16.31	-1
0	9280	16.41	-1
0	9340	16.51	-1
0	9400	16.61	-1
0	9460	16.71	-1
0	9520	16.81	-1
0	9580	16.91	-1
0	9643	17.01	-1
0	9703	17.11	-1
0	9763	17.21	-1
0	9823	17.31	-1
0	9883	17.41	-1
0	9943	17.51	-1
0	10003	17.61	-1
0	10063	17.71	-1
0	10123	17.81	-1
0	10183	17.91	-1
0	10246	18.01	-1
0	10306	18.11	-1
0	10366	18.21	-1
0	10426	18.31	-1
0	10486	18.41	-1
0	10546	18.51	-1
0	10606	18.61	-1
0	10666	18.71	-1
0	10726	18.81	-1
0	10786	18.91	-1
0	10849	19.01	-1
0	10909	19.11	-1
0	10969	19.21	-1
0	11029	19.31	-1
0	11089	19.41	-1
0	11149	19.51	-1
0	11209	19.61	-1
0	11269	19.71	-1
0	11329	19.81	-1
0	11389	19.91	-1
0	11452	20.01	-1
0	11512	20.11	-1
0	11572	20.21	-1
0	11632	20.31	-1
0	11692	20.41	-1
0	11752	20.51	-1
0	11812	20.61	-1
0	11872	20.71	-1
0	11932	20.81	-1
0	11992	20.91	-1
0	12055	21.01	-1
0	12115	21.11	-1
0	12175	21.21	-1
0	12235	21.31	-1
0	12295	21.41	-1
0	12355	21.51	-1
0	12415	21.61	-1
0	12475	21.71	-1
0	12535	21.81	-1
0	12595	21.91	-1
0	12658	22.01	-1
0	12718	22.11	-1
0	12778	22.21	-1
0	12838	22.31	-1
0	12898	22.41	-1
0	12958	22.51	-1
0	13018	22.61	-1
0	13078	22.71	-1
0	13138	22.81	-1
0	13198	22.91	-1
0	13261	23.01	-1
0	13321	23.11	-1
0	13381	23.21	-1
0	13441	23.31	-1
0	13501	23.41	-1
0	13561	23.51	-1
0	13621	23.61	-1
0	13681	23.71	-1
0	13741	23.81	-1
0	13801	23.91	-1
0	13864	24.01	-1
0	13924	24.11	-1
0	13984	24.21	-1
0	14044	24.31	-1
0	14104	24.41	-1
0	14164	24.51	-1
0	14224	24.61	-1
0	14284	24.71	-1
0	14344	24.81	-1
0	14404	24.91	-1
0	14467	25.01	-1
0	14527	25.11	-1
0	14587	25.21	-1
0	14647	25.31	-1
0	14707	25.41	-1
0	14767	25.51	-1
0	14827	25.61	-1
0	14887	25.71	-1
0	14947	25.81	-1
0	15007	25.91	-1
0	15070	26.01	-1
0	15130	26.11	-1
0	15190	26.21	-1
0	15250	26.31	-1
0	15310	26.41	-1
0	15370	26.51	-1
0	15430	26.61	-1
0	15490	26.71	-1
0	15550	26.81	-1
0	15610	26.91	-1
0	15673	27.01	-1
0	15733	27.11	-1
0	15793	27.21	-1
0	15853	27.31	-1
0	15913	27.41	-1
0	15973	27.51	-1
0	16033	27.61	-1
0	16093	27.71	-1
0	16153	27.81	-1
0	16213	27.91	-1
0	16276	28.01	-1
0	16336	28.11	-1
0	16396	28.21	-1
0	16456	28.31	-1
0	16516	28.41	-1
0	16576	28.51	-1
0	16636	28.61	-1
0	16696	28.71	-1
0	16756	28.81	-1
0	16816	28.91	-1
0	16879	29.01	-1
0	16939	29.11	-1
0	16999	29.21	-1
0	17059	29.31	-1
0	17119	29.41	-1
0	17179	29.51	-1
0	17239	29.61	-1
0	17299	29.71	-1
0	17359	29.81	-1
0	17419	29.91	-1
0	17482	30.01	-1
0	17542	30.11	-1
0	17602	30.21	-1
0	17662	30.31	-1
0	17722	30.41	-1
0	17782	30.51	-1
0	17842	30.61	-1
0	17902	30.71	-1
0	17962	30.81	-1
0	18022	30.91	-1
0	18085	31.01	-1
0	18145	31.11	-1
0	18205	31.21	-1
0	18265	31.31	-1
0	18325	31.41	-1
0	18385	31.51	-1
0	18445	31.61	-1
0	18505	31.71	-1
0	18565	31.81	-1
0	18625	31.91	-1
0	18688	32.01	-1
0	18748	32.11	-1
0	18808	32.21	-1
0	18868	32.31	-1
0	18928	32.41	-1
0	18988	32.51	-1
0	19048	32.61	-1
0	19108	32.71	-1
0	19168	32.81	-1
0	19228	32.91	-1
0	19291	33.01	-1
0	19351	33.11	-1
0	19411	33.21	-1
0	19471	33.31	-1
0	19531	33.41	-1
0	19591	33.51	-1
0	19651	33.61	-1
0	19711	33.71	-1
0	19771	33.81	-1
0	19831	33.91	-1
0	19894	34.01	-1
0	19954	34.11	-1
0	20014	34.21	-1
0	20074	34.31	-1
0	20134	34.41	-1
0	20194	34.51	-1
0	20254	34.61	-1
0	20314	34.71	-1
0	20374	34.81	-1
0	20434	34.91	-1
0	20497	35.01	-1
0	20557	35.11	-1
0	20617	35.21	-1
0	20677	35.31	-1
0	20737	35.41	-1
0	20797	35.51	-1
0	20857	35.61	-1
0	20917	35.71	-1
0	20977	35.81	-1
0	21037	35.91	-1
0	21100	36.01	-1
0	21160	36.11	-1
0	21220	36.21	-1
0	21280	36.31	-1
0	21340	36.41	-1
0	21400	36.51	-1
0	21460	36.61	-1
0	21520	36.71	-1
0	21580	36.81	-1
0	21640	36.91	-1
0	21703	37.01	-1
0	21763	37.11	-1
0	21823	37.21	-1
0	21883	37.31	-1
0	21943	37.41	-1
0	22003	37.51	-1
0	22063	37.61	-1
0	22123	37.71	-1
0	22183	37.81	-1
0	22243	37.91	-1
0	22306	38.01	-1
0	22366	38.11	-1
0	22426	38.21	-1
0	22486	38.31	-1
0	22546	38.41	-1
0	22606	38.51	-1
0	22666	38.61	-1
0	22726	38.71	-1
0	22786	38.81	-1
0	22846	38.91	-1
0	22909	39.01	-1
0	22969	39.11	-1
0	23029	39.21	-1
0	23089	39.31	-1
0	23149	39.41	-1
0	23209	39.51	-1
0	23269	39.61	-1
0	23329	39.71	-1
0	23389	39.81	-1
0	23449	39.91	-1
0	23512	40.01	-1
0	23572	40.11	-1
0	23632	40.21	-1
0	23692	40.31	-1
0	23752	40.41	-1
0	23812	40.51	-1
0	23872	40.61	-1
0	23932	40.71	-1
0	23992	40.81	-1
0	24052	40.91	-1
0	24115	41.01	-1
0	24175	41.11	-1
0	24235	41.21	-1
0	24295	41.31	-1
0	24355	41.41	-1
0	24415	41.51	-1
0	24475	41.61	-1
0	24535	41.71	-1
0	24595	41.81	-1
0	24655	41.91	-1
0	24718	42.01	-1
0	24778	42.11	-1
0	24838	42.21	-1
0	24898	42.31	-1
0	24958	42.41	-1
0	25018	42.51	-1
0	25078	42.61	-1
0	25138	42.71	-1
0	25198	42.81	-1
0	25258	42.91	-1
0	25321	43.01	-1
0	25381	43.11	-1
0	25441	43.21	-1
0	25501	43.31	-1
0	25561	43.41	-1
0	25621	43.51	-1
0	25681	43.61	-1
0	25741	43.71	-1
0	25801	43.81	-1
0	25861	43.91	-1
0	25924	44.01	-1
0	25984	44.11	-1
0	26044	44.21	-1
0	26104	44.31	-1
0	26164	44.41	-1
0	26224	44.51	-1
0	26284	44.61	-1
0	26344	44.71	-1
0	26404	44.81	-1
0	26464	44.91	-1
0	26527	45.01	-1
0	26587	45.11	-1
0	26647	45.21	-1
0	26707	45.31	-1
0	26767	45.41	-1
0	26827	45.51	-1
0	26887	45.61	-1
0	26947	45.71	-1
0	27007	45.81	-1
0	27067	45.91	-1
0	27130	46.01	-1
0	27190	46.11	-1
0	27250	46.21	-1
0	27310	46.31	-1
0	27370	46.41	-1
0	27430	46.51	-1
0	27490	46.61	-1
0	27550	46.71	-1
0	27610	46.81	-1
0	27670	46.91	-1
0	27733	47.01	-1
0	27793	47.11	-1
0	27853	47.21	-1
0	27913	47.31	-1
0	27973	47.41	-1
0	28033	47.51	-1
0	28093	47.61	-1
0	28153	47.71	-1
0	28213	47.81	-1
0	28339	47.91	-1
0	28401	48.01	-1
0	28460	48.11	-1
0	28519	48.21	-1
0	28578	48.31	-1
0	28637	48.41	-1
0	28696	48.51	-1
0	28755	48.61	-1
0	28814	48.71	-1
0	28873	48.81	-1
0	28932	48.91	-1
0	28994	49.01	-1
0	29053	49.11	-1
0	29112	49.21	-1
0	29171	49.31	-1
0	29230	49.41	-1
0	29289	49.51	-1
0	29348	49.61	-1
0	29407	49.71	-1
0	29466	49.81	-1
0	29525	49.91	-1
0	29587	50.01	-1
0	29646	50.11	-1
0	29705	50.21	-1
0	29764	50.31	-1
0	29823	50.41	-1
0	29882	50.51	-1
0	29941	50.61	-1
0	30000	50.71	-1
0	30059	50.81	-1
0	30118	50.91	-1
0	30180	51.01	-1
0	30239	51.11	-1
0	30298	51.21	-1
0	30357	51.31	-1
0	30416	51.41	-1
0	30475	51.51	-1
0	30534	51.61	-1
0	30593	51.71	-1
0	30652	51.81	-1
0	30711	51.91	-1
0	30773	52.01	-1
0	30832	52.11	-1
0	30891	52.21	-1
0	30950	52.31	-1
0	31009	52.41	-1
0	31068	52.51	-1
0	31127	52.61	-1
0	31186	52.71	-1
0	31245	52.81	-1
0	31304	52.91	-1
0	31366	53.01	-1
0	31425	53.11	-1
0	31484	53.21	-1
0	31543	53.31	-1
0	31602	53.41	-1
0	31661	53.51	-1
0	31720	53.61	-1
0	31779	53.71	-1
0	31838	53.81	-1
0	31897	53.91	-1
0	31959	54.01	-1
0	32018	54.11	-1
0	32077	54.21	-1
0	32136	54.31	-1
0	32195	54.41	-1
0	32254	54.51	-1
0	32313	54.61	-1
0	32372	54.71	-1
0	32431	54.81	-1
0	32490	54.91	-1
0	32552	55.01	-1
0	32611	55.11	-1
0	32670	55.21	-1
0	32729	55.31	-1
0	32788	55.41	-1
0	32847	55.51	-1
0	32906	55.61	-1
0	32965	55.71	-1
0	33024	55.81	-1
0	33083	55.91	-1
0	33145	56.01	-1
0	33204	56.11	-1
0	33263	56.21	-1
0	33322	56.31	-1
0	33381	56.41	-1
0	33440	56.51	-1
0	33499	56.61	-1
0	33558	56.71	-1
0	33617	56.81	-1
0	33676	56.91	-1
0	33738	57.01	-1
0	33797	57.11	-1
0	33856	57.21	-1
0	33915	57.31	-1
0	33974	57.41	-1
0	34033	57.51	-1
0	34092	57.61	-1
0	34151	57.71	-1
0	34210	57.81	-1
0	34269	57.91	-1
0	34331	58.01	-1
0	34390	58.11	-1
0	34449	58.21	-1
0	34508	58.31	-1
0	34567	58.41	-1
0	34626	58.51	-1
0	34685	58.61	-1
0	34744	58.71	-1
0	34803	58.81	-1
0	34862	58.91	-1
0	34924	59.01	-1
0	34983	59.11	-1
0	35042	59.21	-1
0	35101	59.31	-1
0	35160	59.41	-1
0	35219	59.51	-1
0	35278	59.61	-1
0	35337	59.71	-1
0	35396	59.81	-1
0	35455	59.91	-1
0	35517	60.01	-1
0	35576	60.11	-1
0	35635	60.21	-1
0	35694	60.31	-1
0	35753	60.41	-1
0	35812	60.51	-1
0	35871	60.61	-1
0	35930	60.71	-1
0	35989	60.81	-1
0	36048	60.91	-1
0	36110	61.01	-1
0	36169	61.11	-1
0	36228	61.21	-1
0	36287	61.31	-1
0	36346	61.41	-1
0	36405	61.51	-1
0	36464	61.61	-1
0	36523	61.71	-1
0	36582	61.81	-1
0	36641	61.91	-1
0	36703	62.01	-1
0	36762	62.11	-1
0	36821	62.21	-1
0	36880	62.31	-1
0	36939	62.41	-1
0	36998	62.51	-1
0	37057	62.61	-1
0	37116	62.71	-1
0	37175	62.81	-1
0	37234	62.91	-1
0	37296	63.01	-1
0	37355	63.11	-1
0	37414	63.21	-1
0	37473	63.31	-1
0	37532	63.41	-1
0	37591	63.51	-1
0	37650	63.61	-1
0	37709	63.71	-1
0	37768	63.81	-1
0	37827	63.91	-1
0	37889	64.01	-1
0	37948	64.11	-1
0	38007	64.21	-1
0	38066	64.31	-1
0	38125	64.41	-1
0	38184	64.51	-1
0	38243	64.61	-1
0	38302	64.71	-1
0	38361	64.81	-1
0	38420	64.91	-1
0	38482	65.01	-1
0	38541	65.11	-1
0	38600	65.21	-1
0	38659	65.31	-1
0	38718	65.41	-1
0	38777	65.51	-1
0	38836	65.61	-1
0	38895	65.71	-1
0	38954	65.81	-1
0	39013	65.91	-1
0	39075	66.01	-1
0	39134	66.11	-1
0	39193	66.21	-1
0	39252	66.31	-1
0	39311	66.41	-1
0	39370	66.51	-1
0	39429	66.61	-1
0	39488	66.71	-1
0	39547	66.81	-1
0	39606	66.91	-1
0	39668	67.01	-1
0	39727	67.11	-1
0	39786	67.21	-1
0	39845	67.31	-1
0	39904	67.41	-1
0	39963	67.51	-1
0	40022	67.61	-1
0	40081	67.71	-1
0	40140	67.81	-1
0	40199	67.91	-1
0	40261	68.01	-1
0	40320	68.11	-1
0	40379	68.21	-1
0	40438	68.31	-1
0	40497	68.41	-1
0	40556	68.51	-1
0	40615	68.61	-1
0	40674	68.71	-1
0	40733	68.81	-1
0	40792	68.91	-1
0	40854	69.01	-1
0	40913	69.11	-1
0	40972	69.21	-1
0	41031	69.31	-1
0	41090	69.41	-1
0	41149	69.51	-1
0	41208	69.61	-1
0	41267	69.71	-1
0	41326	69.81	-1
0	41385	69.91	-1
0	41447	70.01	-1
0	41506	70.11	-1
0	41565	70.21	-1
0	41624	70.31	-1
0	41683	70.41	-1
0	41742	70.51	-1
0	41801	70.61	-1
0	41860	70.71	-1
0	41919	70.81	-1
0	41978	70.91	-1
0	42040	71.01	-1
0	42099	71.11	-1
0	42158	71.21	-1
0	42217	71.31	-1
0	42276	71.41	-1
0	42335	71.51	-1
0	42394	71.61	-1
0	42453	71.71	-1
0	42512	71.81	-1
0	42571	71.91	-1
0	42633	72.01	-1
0	42692	72.11	-1
0	42751	72.21	-1
0	42810	72.31	-1
0	42869	72.41	-1
0	42928	72.51	-1
0	42987	72.61	-1
0	43046	72.71	-1
0	43105	72.81	-1
0	43164	72.91	-1
0	43226	73.01	-1
0	43285	73.11	-1
0	43344	73.21	-1
0	43403	73.31	-1
0	43462	73.41	-1
0	43521	73.51	-1
0	43580	73.61	-1
0	43639	73.71	-1
0	43698	73.81	-1
0	43757	73.91	-1
0	43819	74.01	-1
0	43878	74.11	-1
0	43937	74.21	-1
0	43996	74.31	-1
0	44055	74.41	-1
0	44114	74.51	-1
0	44173	74.61	-1
0	44232	74.71	-1
0	44291	74.81	-1
0	44350	74.91	-1
0	44412	75.01	-1
0	44471	75.11	-1
0	44530	75.21	-1
0	44589	75.31	-1
0	44648	75.41	-1
0	44707	75.51	-1
0	44766	75.61	-1
0	44825	75.71	-1
0	44884	75.81	-1
0	44943	75.91	-1
0	45005	76.01	-1
0	45064	76.11	-1
0	45123	76.21	-1
0	45182	76.31	-1
0	45241	76.41	-1
0	45300	76.51	-1
0	45359	76.61	-1
0	45418	76.71	-1
0	45477	76.81	-1
0	45536	76.91	-1
0	45598	77.01	-1
0	45657	77.11	-1
0	45716	77.21	-1
0	45775	77.31	-1
0	45834	77.41	-1
0	45893	77.51	-1
0	45952	77.61	-1
0	46011	77.71	-1
0	46070	77.81	-1
0	46129	77.91	-1
0	46191	78.01	-1
0	46250	78.11	-1
0	46309	78.21	-1
0	46368	78.31	-1
0	46427	78.41	-1
0	46486	78.51	-1
0	46545	78.61	-1
0	46604	78.71	-1
0	46663	78.81	-1
0	46722	78.91	-1
0	46784	79.01	-1
0	46843	79.11	-1
0	46902	79.21	-1
0	46961	79.31	-1
0	47020	79.41	-1
0	47079	79.51	-1
0	47138	79.61	-1
0	47197	79.71	-1
0	47256	79.81	-1
0	47315	79.91	-1
0	47377	80.01	-1
0	47436	80.11	-1
0	47495	80.21	-1
0	47554	80.31	-1
0	47613	80.41	-1
0	47672	80.51	-1
0	47731	80.61	-1
0	47790	80.71	-1
0	47849	80.81	-1
0	47908	80.91	-1
0	47970	81.01	-1
0	48029	81.11	-1
0	48088	81.21	-1
0	48147	81.31	-1
0	48206	81.41	-1
0	48265	81.51	-1
0	48324	81.61	-1
0	48383	81.71	-1
0	48442	81.81	-1
0	48501	81.91	-1
0	48563	82.01	-1
0	48622	82.11	-1
0	48681	82.21	-1
0	48740	82.31	-1
0	48799	82.41	-1
0	48858	82.51	-1
0	48917	82.61	-1
0	48976	82.71	-1
0	49035	82.81	-1
0	49094	82.91	-1
0	49156	83.01	-1
0	49215	83.11	-1
0	49274	83.21	-1
0	49333	83.31	-1
0	49392	83.41	-1
0	49451	83.51	-1
0	49510	83.61	-1
0	49569	83.71	-1
0	49628	83.81	-1
0	49687	83.91	-1
0	49749	84.01	-1
0	49808	84.11	-1
0	49867	84.21	-1
0	49926	84.31	-1
0	49985	84.41	-1
0	50044	84.51	-1
0	50103	84.61	-1
0	50162	84.71	-1
0	50221	84.81	-1
0	50280	84.91	-1
0	50342	85.01	-1
0	50401	85.11	-1
0	50460	85.21	-1
0	50519	85.31	-1
0	50578	85.41	-1
0	50637	85.51	-1
0	50696	85.61	-1
0	50755	85.71	-1
0	50814	85.81	-1
0	50873	85.91	-1
0	50935	86.01	-1
0	50994	86.11	-1
0	51053	86.21	-1
0	51112	86.31	-1
0	51171	86.41	-1
0	51230	86.51	-1
0	51289	86.61	-1
0	51348	86.71	-1
0	51407	86.81	-1
0	51466	86.91	-1
0	51528	87.01	-1
0	51587	87.11	-1
0	51646	87.21	-1
0	51705	87.31	-1
0	51764	87.41	-1
0	51823	87.51	-1
0	51882	87.61	-1
0	51941	87.71	-1
0	52000	87.81	-1
0	52059	87.91	-1
0	52121	88.01	-1
0	52180	88.11	-1
0	52239	88.21	-1
0	52298	88.31	-1
0	52357	88.41	-1
0	52416	88.51	-1
0	52475	88.61	-1
0	52534	88.71	-1
0	52593	88.81	-1
0	52652	88.91	-1
0	52714	89.01	-1
0	52773	89.11	-1
0	52832	89.21	-1
0	52891	89.31	-1
0	52950	89.41	-1
0	53009	89.51	-1
0	53068	89.61	-1
0	53127	89.71	-1
0	53186	89.81	-1
0	53245	89.91	-1
0	53307	90.01	-1
0	53366	90.11	-1
0	53425	90.21	-1
0	53484	90.31	-1
0	53543	90.41	-1
0	53602	90.51	-1
0	53661	90.61	-1
0	53720	90.71	-1
0	53779	90.81	-1
0	53838	90.91	-1
0	53900	91.01	-1
0	53959	91.11	-1
0	54018	91.21	-1
0	54077	91.31	-1
0	54136	91.41	-1
0	54195	91.51	-1
0	54254	91.61	-1
0	54313	91.71	-1
0	54372	91.81	-1
0	54431	91.91	-1
0	54493	92.01	-1
0	54552	92.11	-1
0	54611	92.21	-1
0	54670	92.31	-1
0	54729	92.41	-1
0	54788	92.51	-1
0	54847	92.61	-1
0	54906	92.71	-1
0	54965	92.81	-1
0	55024	92.91	-1
0	55086	93.01	-1
0	55145	93.11	-1
0	55204	93.21	-1
0	55263	93.31	-1
0	55322	93.41	-1
0	55381	93.51	-1
0	55440	93.61	-1
0	55499	93.71	-1
0	55558	93.81	-1
0	55617	93.91	-1
0	55679	94.01	-1
0	55738	94.11	-1
0	55797	94.21	-1
0	55856	94.31	-1
0	55915	94.41	-1
0	55974	94.51	-1
0	56033	94.61	-1
0	56092	94.71	-1
0	56151	94.81	-1
0	56210	94.91	-1
0	56272	95.01	-1
0	56331	95.11	-1
0	56390	95.21	-1
0	56449	95.31	-1
0	56508	95.41	-1
0	56567	95.51	-1
0	56626	95.61	-1
0	56685	95.71	-1
0	56744	95.81	-1
0	56803	95.91	-1
0	56865	96.01	-1
0	56924	96.11	-1
0	56983	96.21	-1
0	57042	96.31	-1
0	57101	96.41	-1
0	57160	96.51	-1
0	57219	96.61	-1
0	57278	96.71	-1
0	57337	96.81	-1
0	57396	96.91	-1
0	57458	97.01	-1
0	57517	97.11	-1
0	57576	97.21	-1
0	57635	97.31	-1
0	57694	97.41	-1
0	57753	97.51	-1
0	57812	97.61	-1
0	57871	97.71	-1
0	57930	97.81	-1
0	57989	97.91	-1
0	58051	98.01	-1
0	58110	98.11	-1
0	58169	98.21	-1
0	58228	98.31	-1
0	58287	98.41	-1
0	58346	98.51	-1
0	58405	98.61	-1
0	58464	98.71	-1
0	58523	98.81	-1
0	58582	98.91	-1
0	58644	99.01	-1
0	58703	99.11	-1
0	58762	99.21	-1
0	58821	99.31	-1
0	58880	99.41	-1
0	58939	99.51	-1
0	58998	99.61	-1
0	59057	99.71	-1
0	59116	99.81	-1
0	59175	99.91	-1
1	113	1.11	0
1	172	1.21	0
1	231	1.31	0
1	290	1.41	0
1	349	1.51	0
1	408	1.61	0
1	467	1.71	0
1	526	1.81	0
1	585	1.91	0
1	647	2.01	0
1	706	2.11	0
1	765	2.21	0
1	824	2.31	0
1	883	2.41	0
1	942	2.51	0
1	1001	2.61	0
1	1060	2.71	0
1	1119	2.81	0
1	1178	2.91	0
1	1240	3.01	0
1	1299	3.11	0
1	1358	3.21	0
1	1417	3.31	0
1	1476	3.41	0
1	1535	3.51	0
1	1594	3.61	0
1	1653	3.71	0
1	1712	3.81	0
1	1771	3.91	0
1	1833	4.01	0
1	1892	4.11	0
1	1951	4.21	0
1	2010	4.31	0
1	2069	4.41	0
1	2128	4.51	0
1	2187	4.61	0
1	2246	4.71	0
1	2305	4.81	0
1	2364	4.91	0
1	2426	5.01	0
1	2485	5.11	0
1	2544	5.21	0
1	2603	5.31	0
1	2662	5.41	0
1	2721	5.51	0
1	2780	5.61	0
1	2839	5.71	0
1	2898	5.81	0
1	2957	5.91	0
1	3019	6.01	0
1	3078	6.11	0
1	3137	6.21	0
1	3196	6.31	0
1	3255	6.41	0
1	3314	6.51	0
1	3373	6.61	0
1	3432	6.71	0
1	3491	6.81	0
1	3550	6.91	0
1	3612	7.01	0
1	3671	7.11	0
1	3730	7.21	0
1	3789	7.31	0
1	3848	7.41	0
1	3907	7.51	0
1	3966	7.61	0
1	4025	7.71	0
1	4084	7.81	0
1	4143	7.91	0
1	4205	8.01	0
1	4264	8.11	0
1	4323	8.21	0
1	4382	8.31	0
1	4441	8.41	0
1	4500	8.51	0
1	4559	8.61	0
1	4618	8.71	0
1	4677	8.81	0
1	4736	8.91	0
1	4798	9.01	0
1	4857	9.11	0
1	4916	9.21	0
1	4975	9.31	0
1	5034	9.41	0
1	5093	9.51	0
1	5152	9.61	0
1	5211	9.71	0
1	5270	9.81	0
1	5329	9.91	0
1	5422	10.01	0
1	5482	10.11	0
1	5542	10.21	0
1	5602	10.31	0
1	5662	10.41	0
1	5722	10.51	0
1	5782	10.61	0
1	5842	10.71	0
1	5902	10.81	0
1	5962	10.91	0
1	6025	11.01	0
1	6085	11.11	0
1	6145	11.21	0
1	6205	11.31	0
1	6265	11.41	0
1	6325	11.51	0
1	6385	11.61	0
1	6445	11.71	0
1	6505	11.81	0
1	6565	11.91	0
1	6628	12.01	0
1	6688	12.11	0
1	6748	12.21	0
1	6808	12.31	0
1	6868	12.41	0
1	6928	12.51	0
1	6988	12.61	0
1	7048	12.71	0
1	7108	12.81	0
1	7168	12.91	0
1	7231	13.01	0
1	7291	13.11	0
1	7351	13.21	0
1	7411	13.31	0
1	7471	13.41	0
1	7531	13.51	0
1	7591	13.61	0
1	7651	13.71	0
1	7711	13.81	0
1	7771	13.91	0
1	7834	14.01	0
1	7894	14.11	0
1	7954	14.21	0
1	8014	14.31	0
1	8074	14.41	0
1	8134	14.51	0
1	8194	14.61	0
1	8254	14.71	0
1	8314	14.81	0
1	8374	14.91	0
1	8437	15.01	0
1	8497	15.11	0
1	8557	15.21	0
1	8617	15.31	0
1	8677	15.41	0
1	8737	15.51	0
1	8797	15.61	0
1	8857	15.71	0
1	8917	15.81	0
1	8977	15.91	0
1	9040	16.01	0
1	9100	16.11	0
1	9160	16.21	0
1	9220	16.31	0
1	9280	16.41	0
1	9340	16.51	0
1	9400	16.61	0
1	9460	16.71	0
1	9520	16.81	0
1	9580	16.91	0
1	9643	17.01	0
1	9703	17.11	0
1	9763	17.21	0
1	9823	17.31	0
1	9883	17.41	0
1	9943	17.51	0
1	10003	17.61	0
1	10063	17.71	0
1	10123	17.81	0
1	10183	17.91	0
1	10246	18.01	0
1	10306	18.11	0
1	10366	18.21	0
1	10426	18.31	0
1	10486	18.41	0
1	10546	18.51	0
1	10606	18.61	0
1	10666	18.71	0
1	10726	18.81	0
1	10786	18.91	0
1	10849	19.01	0
1	10909	19.11	0
1	10969	19.21	0
1	11029	19.31	0
1	11089	19.41	0
1	11149	19.51	0
1	11209	19.61	0
1	11269	19.71	0
1	11329	19.81	0
1	11389	19.91	0
1	11452	20.01	0
1	11512	20.11	0
1	11572	20.21	0
1	11632	20.31	0
1	11692	20.41	0
1	11752	20.51	0
1	11812	20.61	0
1	11872	20.71	0
1	11932	20.81	0
1	11992	20.91	0
1	12055	21.01	0
1	12115	21.11	0
1	12175	21.21	0
1	12235	21.31	0
1	12295	21.41	0
1	12355	21.51	0
1	12415	21.61	0
1	12475	21.71	0
1	12535	21.81	0
1	12595	21.91	0
1	12658	22.01	0
1	12718	22.11	0
1	12778	22.21	0
1	12838	22.31	0
1	12898	22.41	0
1	12958	22.51	0
1	13018	22.61	0
1	13078	22.71	0
1	13138	22.81	0
1	13198	22.91	0
1	13261	23.01	0
1	13321	23.11	0
1	13381	23.21	0
1	13441	23.31	0
1	13501	23.41	0
1	13561	23.51	0
1	13621	23.61	0
1	13681	23.71	0
1	13741	23.81	0
1	13801	23.91	0
1	13864	24.01	0
1	13924	24.11	0
1	13984	24.21	0
1	14044	24.31	0
1	14104	24.41	0
1	14164	24.51	0
1	14224	24.61	0
1	14284	24.71	0
1	14344	24.81	0
1	14404	24.91	0
1	14467	25.01	0
1	14527	25.11	0
1	14587	25.21	0
1	14647	25.31	0
1	14707	25.41	0
1	14767	25.51	0
1	14827	25.61	0
1	14887	25.71	0
1	14947	25.81	0
1	15007	25.91	0
1	15070	26.01	0
1	15130	26.11	0
1	15190	26.21	0
1	15250	26.31	0
1	15310	26.41	0
1	15370	26.51	0
1	15430	26.61	0
1	15490	26.71	0
1	15550	26.81	0
1	15610	26.91	0
1	15673	27.01	0
1	15733	27.11	0
1	15793	27.21	0
1	15853	27.31	0
1	15913	27.41	0
1	15973	27.51	0
1	16033	27.61	0
1	16093	27.71	0
1	16153	27.81	0
1	16213	27.91	0
1	16276	28.01	0
1	16336	28.11	0
1	16396	28.21	0
1	16456	28.31	0
1	16516	28.41	0
1	16576	28.51	0
1	16636	28.61	0
1	16696	28.71	0
1	16756	28.81	0
1	16816	28.91	0
1	16879	29.01	0
1	16939	29.11	0
1	16999	29.21	0
1	17059	29.31	0
1	17119	29.41	0
1	17179	29.51	0
1	17239	29.61	0
1	17299	29.71	0
1	17359	29.81	0
1	17419	29.91	0
1	17482	30.01	0
1	17542	30.11	0
1	17602	30.21	0
1	17662	30.31	0
1	17722	30.41	0
1	17782	30.51	0
1	17842	30.61	0
1	17902	30.71	0
1	17962	30.81	0
1	18022	30.91	0
1	18085	31.01	0
1	18145	31.11	0
1	18205	31.21	0
1	18265	31.31	0
1	18325	31.41	0
1	18385	31.51	0
1	18445	31.61	0
1	18505	31.71	0
1	18565	31.81	0
1	18625	31.91	0
1	18688	32.01	0
1	18748	32.11	0
1	18808	32.21	0
1	18868	32.31	0
1	18928	32.41	0
1	18988	32.51	0
1	19048	32.61	0
1	19108	32.71	0
1	19168	32.81	0
1	19228	32.91	0
1	19291	33.01	0
1	19351	33.11	0
1	19411	33.21	0
1	19471	33.31	0
1	19531	33.41	0
1	19591	33.51	0
1	19651	33.61	0
1	19711	33.71	0
1	19771	33.81	0
1	19831	33.91	0
1	19894	34.01	0
1	19954	34.11	0
1	20014	34.21	0
1	20074	34.31	0
1	20134	34.41	0
1	20194	34.51	0
1	20254	34.61	0
1	20314	34.71	0
1	20374	34.81	0
1	20434	34.91	0
1	20497	35.01	0
1	20557	35.11	0
1	20617	35.21	0
1	20677	35.31	0
1	20737	35.41	0
1	20797	35.51	0
1	20857	35.61	0
1	20917	35.71	0
1	20977	35.81	0
1	21037	35.91	0
1	21100	36.01	0
1	21160	36.11	0
1	21220	36.21	0
1	21280	36.31	0
1	21340	36.41	0
1	21400	36.51	0
1	21460	36.61	0
1	21520	36.71	0
1	21580	36.81	0
1	21640	36.91	0
1	21703	37.01	0
1	21763	37.11	0
1	21823	37.21	0
1	21883	37.31	0
1	21943	37.41	0
1	22003	37.51	0
1	22063	37.61	0
1	22123	37.71	0
1	22183	37.81	0
1	22243	37.91	0
1	22306	38.01	0
1	22366	38.11	0
1	22426	38.21	0
1	22486	38.31	0
1	22546	38.41	0
1	22606	38.51	0
1	22666	38.61	0
1	22726	38.71	0
1	22786	38.81	0
1	22846	38.91	0
1	22909	39.01	0
1	22969	39.11	0
1	23029	39.21	0
1	23089	39.31	0
1	23149	39.41	0
1	23209	39.51	0
1	23269	39.61	0
1	23329	39.71	0
1	23389	39.81	0
1	23449	39.91	0
1	23512	40.01	0
1	23572	40.11	0
1	23632	40.21	0
1	23692	40.31	0
1	23752	40.41	0
1	23812	40.51	0
1	23872	40.61	0
1	23932	40.71	0
1	23992	40.81	0
1	24052	40.91	0
1	24115	41.01	0
1	24175	41.11	0
1	24235	41.21	0
1	24295	41.31	0
1	24355	41.41	0
1	24415	41.51	0
1	24475	41.61	0
1	24535	41.71	0
1	24595	41.81	0
1	24655	41.91	0
1	24718	42.01	0
1	24778	42.11	0
1	24838	42.21	0
1	24898	42.31	0
1	24958	42.41	0
1	25018	42.51	0
1	25078	42.61	0
1	25138	42.71	0
1	25198	42.81	0
1	25258	42.91	0
1	25321	43.01	0
1	25381	43.11	0
1	25441	43.21	0
1	25501	43.31	0
1	25561	43.41	0
1	25621	43.51	0
1	25681	43.61	0
1	25741	43.71	0
1	25801	43.81	0
1	25861	43.91	0
1	25924	44.01	0
1	25984	44.11	0
1	26044	44.21	0
1	26104	44.31	0
1	26164	44.41	0
1	26224	44.51	0
1	26284	44.61	0
1	26344	44.71	0
1	26404	44.81	0
1	26464	44.91	0
1	26527	45.01	0
1	26587	45.11	0
1	26647	45.21	0
1	26707	45.31	0
1	26767	45.41	0
1	26827	45.51	0
1	26887	45.61	0
1	26947	45.71	0
1	27007	45.81	0
1	27067	45.91	0
1	27130	46.01	0
1	27190	46.11	0
1	27250	46.21	0
1	27310	46.31	0
1	27370	46.41	0
1	27430	46.51	0
1	27490	46.61	0
1	27550	46.71	0
1	27610	46.81	0
1	27670	46.91	0
1	27733	47.01	0
1	27793	47.11	0
1	27853	47.21	0
1	27913	47.31	0
1	27973	47.41	0
1	28033	47.51	0
1	28093	47.61	0
1	28153	47.71	0
1	28213	47.81	0
1	28339	47.91	0
1	28401	48.01	0
1	28460	48.11	0
1	28519	48.21	0
1	28578	48.31	0
1	28637	48.41	0
1	28696	48.51	0
1	28755	48.61	0
1	28814	48.71	0
1	28873	48.81	0
1	28932	48.91	0
1	28994	49.01	0
1	29053	49.11	0
1	29112	49.21	0
1	29171	49.31	0
1	29230	49.41	0
1	29289	49.51	0
1	29348	49.61	0
1	29407	49.71	0
1	29466	49.81	0
1	29525	49.91	0
1	29587	50.01	0
1	29646	50.11	0
1	29705	50.21	0
1	29764	50.31	0
1	29823	50.41	0
1	29882	50.51	0
1	29941	50.61	0
1	30000	50.71	0
1	30059	50.81	0
1	30118	50.91	0
1	30180	51.01	0
1	30239	51.11	0
1	30298	51.21	0
1	30357	51.31	0
1	30416	51.41	0
1	30475	51.51	0
1	30534	51.61	0
1	30593	51.71	0
1	30652	51.81	0
1	30711	51.91	0
1	30773	52.01	0
1	30832	52.11	0
1	30891	52.21	0
1	30950	52.31	0
1	31009	52.41	0
1	31068	52.51	0
1	31127	52.61	0
1	31186	52.71	0
1	31245	52.81	0
1	31304	52.91	0
1	31366	53.01	0
1	31425	53.11	0
1	31484	53.21	0
1	31543	53.31	0
1	31602	53.41	0
1	31661	53.51	0
1	31720	53.61	0
1	31779	53.71	0
1	31838	53.81	0
1	31897	53.91	0
1	31959	54.01	0
1	32018	54.11	0
1	32077	54.21	0
1	32136	54.31	0
1	32195	54.41	0
1	32254	54.51	0
1	32313	54.61	0
1	32372	54.71	0
1	32431	54.81	0
1	32490	54.91	0
1	32552	55.01	0
1	32611	55.11	0
1	32670	55.21	0
1	32729	55.31	0
1	32788	55.41	0
1	32847	55.51	0
1	32906	55.61	0
1	32965	55.71	0
1	33024	55.81	0
1	33083	55.91	0
1	33145	56.01	0
1	33204	56.11	0
1	33263	56.21	0
1	33322	56.31	0
1	33381	56.41	0
1	33440	56.51	0
1	33499	56.61	0
1	33558	56.71	0
1	33617	56.81	0
1	33676	56.91	0
1	33738	57.01	0
1	33797	57.11	0
1	33856	57.21	0
1	33915	57.31	0
1	33974	57.41	0
1	34033	57.51	0
1	34092	57.61	0
1	34151	57.71	0
1	34210	57.81	0
1	34269	57.91	0
1	34331	58.01	0
1	34390	58.11	0
1	34449	58.21	0
1	34508	58.31	0
1	34567	58.41	0
1	34626	58.51	0
1	34685	58.61	0
1	34744	58.71	0
1	34803	58.81	0
1	34862	58.91	0
1	34924	59.01	0
1	34983	59.11	0
1	35042	59.21	0
1	35101	59.31	0
1	35160	59.41	0
1	35219	59.51	0
1	35278	59.61	0
1	35337	59.71	0
1	35396	59.81	0
1	35455	59.91	0
1	35517	60.01	0
1	35576	60.11	0
1	35635	60.21	0
1	35694	60.31	0
1	35753	60.41	0
1	35812	60.51	0
1	35871	60.61	0
1	35930	60.71	0
1	35989	60.81	0
1	36048	60.91	0
1	36110	61.01	0
1	36169	61.11	0
1	36228	61.21	0
1	36287	61.31	0
1	36346	61.41	0
1	36405	61.51	0
1	36464	61.61	0
1	36523	61.71	0
1	36582	61.81	0
1	36641	61.91	0
1	36703	62.01	0
1	36762	62.11	0
1	36821	62.21	0
1	36880	62.31	0
1	36939	62.41	0
1	36998	62.51	0
1	37057	62.61	0
1	37116	62.71	0
1	37175	62.81	0
1	37234	62.91	0
1	37296	63.01	0
1	37355	63.11	0
1	37414	63.21	0
1	37473	63.31	0
1	37532	63.41	0
1	37591	63.51	0
1	37650	63.61	0
1	37709	63.71	0
1	37768	63.81	0
1	37827	63.91	0
1	37889	64.01	0
1	37948	64.11	0
1	38007	64.21	0
1	38066	64.31	0
1	38125	64.41	0
1	38184	64.51	0
1	38243	64.61	0
1	38302	64.71	0
1	38361	64.81	0
1	38420	64.91	0
1	38482	65.01	0
1	38541	65.11	0
1	38600	65.21	0
1	38659	65.31	0
1	38718	65.41	0
1	38777	65.51	0
1	38836	65.61	0
1	38895	65.71	0
1	38954	65.81	0
1	39013	65.91	0
1	39075	66.01	0
1	39134	66.11	0
1	39193	66.21	0
1	39252	66.31	0
1	39311	66.41	0
1	39370	66.51	0
1	39429	66.61	0
1	39488	66.71	0
1	39547	66.81	0
1	39606	66.91	0
1	39668	67.01	0
1	39727	67.11	0
1	39786	67.21	0
1	39845	67.31	0
1	39904	67.41	0
1	39963	67.51	0
1	40022	67.61	0
1	40081	67.71	0
1	40140	67.81	0
1	40199	67.91	0
1	40261	68.01	0
1	40320	68.11	0
1	40379	68.21	0
1	40438	68.31	0
1	40497	68.41	0
1	40556	68.51	0
1	40615	68.61	0
1	40674	68.71	0
1	40733	68.81	0
1	40792	68.91	0
1	40854	69.01	0
1	40913	69.11	0
1	40972	69.21	0
1	41031	69.31	0
1	41090	69.41	0
1	41149	69.51	0
1	41208	69.61	0
1	41267	69.71	0
1	41326	69.81	0
1	41385	69.91	0
1	41447	70.01	0
1	41506	70.11	0
1	41565	70.21	0
1	41624	70.31	0
1	41683	70.41	0
1	41742	70.51	0
1	41801	70.61	0
1	41860	70.71	0
1	41919	70.81	0
1	41978	70.91	0
1	42040	71.01	0
1	42099	71.11	0
1	42158	71.21	0
1	42217	71.31	0
1	42276	71.41	0
1	42335	71.51	0
1	42394	71.61	0
1	42453	71.71	0
1	42512	71.81	0
1	42571	71.91	0
1	42633	72.01	0
1	42692	72.11	0
1	42751	72.21	0
1	42810	72.31	0
1	42869	72.41	0
1	42928	72.51	0
1	42987	72.61	0
1	43046	72.71	0
1	43105	72.81	0
1	43164	72.91	0
1	43226	73.01	0
1	43285	73.11	0
1	43344	73.21	0
1	43403	73.31	0
1	43462	73.41	0
1	43521	73.51	0
1	43580	73.61	0
1	43639	73.71	0
1	43698	73.81	0
1	43757	73.91	0
1	43819	74.01	0
1	43878	74.11	0
1	43937	74.21	0
1	43996	74.31	0
1	44055	74.41	0
1	44114	74.51	0
1	44173	74.61	0
1	44232	74.71	0
1	44291	74.81	0
1	44350	74.91	0
1	44412	75.01	0
1	44471	75.11	0
1	44530	75.21	0
1	44589	75.31	0
1	44648	75.41	0
1	44707	75.51	0
1	44766	75.61	0
1	44825	75.71	0
1	44884	75.81	0
1	44943	75.91	0
1	45005	76.01	0
1	45064	76.11	0
1	45123	76.21	0
1	45182	76.31	0
1	45241	76.41	0
1	45300	76.51	0
1	45359	76.61	0
1	45418	76.71	0
1	45477	76.81	0
1	45536	76.91	0
1	45598	77.01	0
1	45657	77.11	0
1	45716	77.21	0
1	45775	77.31	0
1	45834	77.41	0
1	45893	77.51	0
1	45952	77.61	0
1	46011	77.71	0
1	46070	77.81	0
1	46129	77.91	0
1	46191	78.01	0
1	46250	78.11	0
1	46309	78.21	0
1	46368	78.31	0
1	46427	78.41	0
1	46486	78.51	0
1	46545	78.61	0
1	46604	78.71	0
1	46663	78.81	0
1	46722	78.91	0
1	46784	79.01	0
1	46843	79.11	0
1	46902	79.21	0
1	46961	79.31	0
1	47020	79.41	0
1	47079	79.51	0
1	47138	79.61	0
1	47197	79.71	0
1	47256	79.81	0
1	47315	79.91	0
1	47377	80.01	0
1	47436	80.11	0
1	47495	80.21	0
1	47554	80.31	0
1	47613	80.41	0
1	47672	80.51	0
1	47731	80.61	0
1	47790	80.71	0
1	47849	80.81	0
1	47908	80.91	0
1	47970	81.01	0
1	48029	81.11	0
1	48088	81.21	0
1	48147	81.31	0
1	48206	81.41	0
1	48265	81.51	0
1	48324	81.61	0
1	48383	81.71	0
1	48442	81.81	0
1	48501	81.91	0
1	48563	82.01	0
1	48622	82.11	0
1	48681	82.21	0
1	48740	82.31	0
1	48799	82.41	0
1	48858	82.51	0
1	48917	82.61	0
1	48976	82.71	0
1	49035	82.81	0
1	49094	82.91	0
1	49156	83.01	0
1	49215	83.11	0
1	49274	83.21	0
1	49333	83.31	0
1	49392	83.41	0
1	49451	83.51	0
1	49510	83.61	0
1	49569	83.71	0
1	49628	83.81	0
1	49687	83.91	0
1	49749	84.01	0
1	49808	84.11	0
1	49867	84.21	0
1	49926	84.31	0
1	49985	84.41	0
1	50044	84.51	0
1	50103	84.61	0
1	50162	84.71	0
1	50221	84.81	0
1	50280	84.91	0
1	50342	85.01	0
1	50401	85.11	0
1	50460	85.21	0
1	50519	85.31	0
1	50578	85.41	0
1	50637	85.51	0
1	50696	85.61	0
1	50755	85.71	0
1	50814	85.81	0
1	50873	85.91	0
1	50935	86.01	0
1	50994	86.11	0
1	51053	86.21	0
1	51112	86.31	0
1	51171	86.41	0
1	51230	86.51	0
1	51289	86.61	0
1	51348	86.71	0
1	51407	86.81	0
1	51466	86.91	0
1	51528	87.01	0
1	51587	87.11	0
1	51646	87.21	0
1	51705	87.31	0
1	51764	87.41	0
1	51823	87.51	0
1	51882	87.61	0
1	51941	87.71	0
1	52000	87.81	0
1	52059	87.91	0
1	52121	88.01	0
1	52180	88.11	0
1	52239	88.21	0
1	52298	88.31	0
1	52357	88.41	0
1	52416	88.51	0
1	52475	88.61	0
1	52534	88.71	0
1	52593	88.81	0
1	52652	88.91	0
1	52714	89.01	0
1	52773	89.11	0
1	52832	89.21	0
1	52891	89.31	0
1	52950	89.41	0
1	53009	89.51	0
1	53068	89.61	0
1	53127	89.71	0
1	53186	89.81	0
1	53245	89.91	0
1	53307	90.01	0
1	53366	90.11	0
1	53425	90.21	0
1	53484	90.31	0
1	53543	90.41	0
1	53602	90.51	0
1	53661	90.61	0
1	53720	90.71	0
1	53779	90.81	0
1	53838	90.91	0
1	53900	91.01	0
1	53959	91.11	0
1	54018	91.21	0
1	54077	91.31	0
1	54136	91.41	0
1	54195	91.51	0
1	54254	91.61	0
1	54313	91.71	0
1	54372	91.81	0
1	54431	91.91	0
1	54493	92.01	0
1	54552	92.11	0
1	54611	92.21	0
1	54670	92.31	0
1	54729	92.41	0
1	54788	92.51	0
1	54847	92.61	0
1	54906	92.71	0
1	54965	92.81	0
1	55024	92.91	0
1	55086	93.01	0
1	55145	93.11	0
1	55204	93.21	0
1	55263	93.31	0
1	55322	93.41	0
1	55381	93.51	0
1	55440	93.61	0
1	55499	93.71	0
1	55558	93.81	0
1	55617	93.91	0
1	55679	94.01	0
1	55738	94.11	0
1	55797	94.21	0
1	55856	94.31	0
1	55915	94.41	0
1	55974	94.51	0
1	56033	94.61	0
1	56092	94.71	0
1	56151	94.81	0
1	56210	94.91	0
1	56272	95.01	0
1	56331	95.11	0
1	56390	95.21	0
1	56449	95.31	0
1	56508	95.41	0
1	56567	95.51	0
1	56626	95.61	0
1	56685	95.71	0
1	56744	95.81	0
1	56803	95.91	0
1	56865	96.01	0
1	56924	96.11	0
1	56983	96.21	0
1	57042	96.31	0
1	57101	96.41	0
1	57160	96.51	0
1	57219	96.61	0
1	57278	96.71	0
1	57337	96.81	0
1	57396	96.91	0
1	57458	97.01	0
1	57517	97.11	0
1	57576	97.21	0
1	57635	97.31	0
1	57694	97.41	0
1	57753	97.51	0
1	57812	97.61	0
1	57871	97.71	0
1	57930	97.81	0
1	57989	97.91	0
1	58051	98.01	0
1	58110	98.11	0
1	58169	98.21	0
1	58228	98.31	0
1	58287	98.41	0
1	58346	98.51	0
1	58405	98.61	0
1	58464	98.71	0
1	58523	98.81	0
1	58582	98.91	0
1	58644	99.01	0
1	58703	99.11	0
1	58762	99.21	0
1	58821	99.31	0
1	58880	99.41	0
1	58939	99.51	0
1	58998	99.61	0
1	59057	99.71	0
1	59116	99.81	0
1	59175	99.91	0
2	113	1.11	0
2	172	1.21	0
2	231	1.31	0
2	290	1.41	0
2	349	1.51	0
2	408	1.61	0
2	467	1.71	0
2	526	1.81	0
2	585	1.91	0
2	647	2.01	0
2	706	2.11	0
2	765	2.21	0
2	824	2.31	0
2	883	2.41	0
2	942	2.51	0
2	1001	2.61	0
2	1060	2.71	0
2	1119	2.81	0
2	1178	2.91	0
2	1240	3.01	0
2	1299	3.11	0
2	1358	3.21	0
2	1417	3.31	0
2	1476	3.41	0
2	1535	3.51	0
2	1594	3.61	0
2	1653	3.71	0
2	1712	3.81	0
2	1771	3.91	0
2	1833	4.01	0
2	1892	4.11	0
2	1951	4.21	0
2	2010	4.31	0
2	2069	4.41	0
2	2128	4.51	0
2	2187	4.61	0
2	2246	4.71	0
2	2305	4.81	0
2	2364	4.91	0
2	2426	5.01	0
2	2485	5.11	0
2	2544	5.21	0
2	2603	5.31	0
2	2662	5.41	0
2	2721	5.51	0
2	2780	5.61	0
2	2839	5.71	0
2	2898	5.81	0
2	2957	5.91	0
2	3019	6.01	0
2	3078	6.11	0
2	3137	6.21	0
2	3196	6.31	0
2	3255	6.41	0
2	3314	6.51	0
2	3373	6.61	0
2	3432	6.71	0
2	3491	6.81	0
2	3550	6.91	0
2	3612	7.01	0
2	3671	7.11	0
2	3730	7.21	0
2	3789	7.31	0
2	3848	7.41	0
2	3907	7.51	0
2	3966	7.61	0
2	4025	7.71	0
2	4084	7.81	0
2	4143	7.91	0
2	4205	8.01	0
2	4264	8.11	0
2	4323	8.21	0
2	4382	8.31	0
2	4441	8.41	0
2	4500	8.51	0
2	4559	8.61	0
2	4618	8.71	0
2	4677	8.81	0
2	4736	8.91	0
2	4798	9.01	0
2	4857	9.11	0
2	4916	9.21	0
2	4975	9.31	0
2	5034	9.41	0
2	5093	9.51	0
2	5152	9.61	0
2	5211	9.71	0
2	5270	9.81	0
2	5329	9.91	0
2	5422	10.01	0
2	5482	10.11	0
2	5542	10.21	0
2	5602	10.31	0
2	5662	10.41	0
2	5722	10.51	0
2	5782	10.61	0
2	5842	10.71	0
2	5902	10.81	0
2	5962	10.91	0
2	6025	11.01	0
2	6085	11.11	0
2	6145	11.21	0
2	6205	11.31	0
2	6265	11.41	0
2	6325	11.51	0
2	6385	11.61	0
2	6445	11.71	0
2	6505	11.81	0
2	6565	11.91	0
2	6628	12.01	0
2	6688	12.11	0
2	6748	12.21	0
2	6808	12.31	0
2	6868	12.41	0
2	6928	12.51	0
2	6988	12.61	0
2	7048	12.71	0
2	7108	12.81	0
2	7168	12.91	0
2	7231	13.01	0
2	7291	13.11	0
2	7351	13.21	0
2	7411	13.31	0
2	7471	13.41	0
2	7531	13.51	0
2	7591	13.61	0
2	7651	13.71	0
2	7711	13.81	0
2	7771	13.91	0
2	7834	14.01	0
2	7894	14.11	0
2	7954	14.21	0
2	8014	14.31	0
2	8074	14.41	0
2	8134	14.51	0
2	8194	14.61	0
2	8254	14.71	0
2	8314	14.81	0
2	8374	14.91	0
2	8437	15.01	0
2	8497	15.11	0
2	8557	15.21	0
2	8617	15.31	0
2	8677	15.41	0
2	8737	15.51	0
2	8797	15.61	0
2	8857	15.71	0
2	8917	15.81	0
2	8977	15.91	0
2	9040	16.01	0
2	9100	16.11	0
2	9160	16.21	0
2	9220	16.31	0
2	9280	16.41	0
2	9340	16.51	0
2	9400	16.61	0
2	9460	16.71	0
2	9520	16.81	0
2	9580	16.91	0
2	9643	17.01	0
2	9703	17.11	0
2	9763	17.21	0
2	9823	17.31	0
2	9883	17.41	0
2	9943	17.51	0
2	10003	17.61	0
2	10063	17.71	0
2	10123	17.81	0
2	10183	17.91	0
2	10246	18.01	0
2	10306	18.11	0
2	10366	18.21	0
2	10426	18.31	0
2	10486	18.41	0
2	10546	18.51	0
2	10606	18.61	0
2	10666	18.71	0
2	10726	18.81	0
2	10786	18.91	0
2	10849	19.01	0
2	10909	19.11	0
2	10969	19.21	0
2	11029	19.31	0
2	11089	19.41	0
2	11149	19.51	0
2	11209	19.61	0
2	11269	19.71	0
2	11329	19.81	0
2	11389	19.91	0
2	11452	20.01	0
2	11512	20.11	0
2	11572	20.21	0
2	11632	20.31	0
2	11692	20.41	0
2	11752	20.51	0
2	11812	20.61	0
2	11872	20.71	0
2	11932	20.81	0
2	11992	20.91	0
2	12055	21.01	0
2	12115	21.11	0
2	12175	21.21	0
2	12235	21.31	0
2	12295	21.41	0
2	12355	21.51	0
2	12415	21.61	0
2	12475	21.71	0
2	12535	21.81	0
2	12595	21.91	0
2	12658	22.01	0
2	12718	22.11	0
2	12778	22.21	0
2	12838	22.31	0
2	12898	22.41	0
2	12958	22.51	0
2	13018	22.61	0
2	13078	22.71	0
2	13138	22.81	0
2	13198	22.91	0
2	13261	23.01	0
2	13321	23.11	0
2	13381	23.21	0
2	13441	23.31	0
2	13501	23.41	0
2	13561	23.51	0
2	13621	23.61	0
2	13681	23.71	0
2	13741	23.81	0
2	13801	23.91	0
2	13864	24.01	0
2	13924	24.11	0
2	13984	24.21	0
2	14044	24.31	0
2	14104	24.41	0
2	14164	24.51	0
2	14224	24.61	0
2	14284	24.71	0
2	14344	24.81	0
2	14404	24.91	0
2	14467	25.01	0
2	14527	25.11	0
2	14587	25.21	0
2	14647	25.31	0
2	14707	25.41	0
2	14767	25.51	0
2	14827	25.61	0
2	14887	25.71	0
2	14947	25.81	0
2	15007	25.91	0
2	15070	26.01	0
2	15130	26.11	0
2	15190	26.21	0
2	15250	26.31	0
2	15310	26.41	0
2	15370	26.51	0
2	15430	26.61	0
2	15490	26.71	0
2	15550	26.81	0
2	15610	26.91	0
2	15673	27.01	0
2	15733	27.11	0
2	15793	27.21	0
2	15853	27.31	0
2	15913	27.41	0
2	15973	27.51	0
2	16033	27.61	0
2	16093	27.71	0
2	16153	27.81	0
2	16213	27.91	0
2	16276	28.01	0
2	16336	28.11	0
2	16396	28.21	0
2	16456	28.31	0
2	16516	28.41	0
2	16576	28.51	0
2	16636	28.61	0
2	16696	28.71	0
2	16756	28.81	0
2	16816	28.91	0
2	16879	29.01	0
2	16939	29.11	0
2	16999	29.21	0
2	17059	29.31	0
2	17119	29.41	0
2	17179	29.51	0
2	17239	29.61	0
2	17299	29.71	0
2	17359	29.81	0
2	17419	29.91	0
2	17482	30.01	0
2	17542	30.11	0
2	17602	30.21	0
2	17662	30.31	0
2	17722	30.41	0
2	17782	30.51	0
2	17842	30.61	0
2	17902	30.71	0
2	17962	30.81	0
2	18022	30.91	0
2	18085	31.01	0
2	18145	31.11	0
2	18205	31.21	0
2	18265	31.31	0
2	18325	31.41	0
2	18385	31.51	0
2	18445	31.61	0
2	18505	31.71	0
2	18565	31.81	0
2	18625	31.91	0
2	18688	32.01	0
2	18748	32.11	0
2	18808	32.21	0
2	18868	32.31	0
2	18928	32.41	0
2	18988	32.51	0
2	19048	32.61	0
2	19108	32.71	0
2	19168	32.81	0
2	19228	32.91	0
2	19291	33.01	0
2	19351	33.11	0
2	19411	33.21	0
2	19471	33.31	0
2	19531	33.41	0
2	19591	33.51	0
2	19651	33.61	0
2	19711	33.71	0
2	19771	33.81	0
2	19831	33.91	0
2	19894	34.01	0
2	19954	34.11	0
2	20014	34.21	0
2	20074	34.31	0
2	20134	34.41	0
2	20194	34.51	0
2	20254	34.61	0
2	20314	34.71	0
2	20374	34.81	0
2	20434	34.91	0
2	20497	35.01	0
2	20557	35.11	0
2	20617	35.21	0
2	20677	35.31	0
2	20737	35.41	0
2	20797	35.51	0
2	20857	35.61	0
2	20917	35.71	0
2	20977	35.81	0
2	21037	35.91	0
2	21100	36.01	0
2	21160	36.11	0
2	21220	36.21	0
2	21280	36.31	0
2	21340	36.41	0
2	21400	36.51	0
2	21460	36.61	0
2	21520	36.71	0
2	21580	36.81	0
2	21640	36.91	0
2	21703	37.01	0
2	21763	37.11	0
2	21823	37.21	0
2	21883	37.31	0
2	21943	37.41	0
2	22003	37.51	0
2	22063	37.61	0
2	22123	37.71	0
2	22183	37.81	0
2	22243	37.91	0
2	22306	38.01	0
2	22366	38.11	0
2	22426	38.21	0
2	22486	38.31	0
2	22546	38.41	0
2	22606	38.51	0
2	22666	38.61	0
2	22726	38.71	0
2	22786	38.81	0
2	22846	38.91	0
2	22909	39.01	0
2	22969	39.11	0
2	23029	39.21	0
2	23089	39.31	0
2	23149	39.41	0
2	23209	39.51	0
2	23269	39.61	0
2	23329	39.71	0
2	23389	39.81	0
2	23449	39.91	0
2	23512	40.01	0
2	23572	40.11	0
2	23632	40.21	0
2	23692	40.31	0
2	23752	40.41	0
2	23812	40.51	0
2	23872	40.61	0
2	23932	40.71	0
2	23992	40.81	0
2	24052	40.91	0
2	24115	41.01	0
2	24175	41.11	0
2	24235	41.21	0
2	24295	41.31	0
2	24355	41.41	0
2	24415	41.51	0
2	24475	41.61	0
2	24535	41.71	0
2	24595	41.81	0
2	24655	41.91	0
2	24718	42.01	0
2	24778	42.11	0
2	24838	42.21	0
2	24898	42.31	0
2	24958	42.41	0
2	25018	42.51	0
2	25078	42.61	0
2	25138	42.71	0
2	25198	42.81	0
2	25258	42.91	0
2	25321	43.01	0
2	25381	43.11	0
2	25441	43.21	0
2	25501	43.31	0
2	25561	43.41	0
2	25621	43.51	0
2	25681	43.61	0
2	25741	43.71	0
2	25801	43.81	0
2	25861	43.91	0
2	25924	44.01	0
2	25984	44.11	0
2	26044	44.21	0
2	26104	44.31	0
2	26164	44.41	0
2	26224	44.51	0
2	26284	44.61	0
2	26344	44.71	0
2	26404	44.81	0
2	26464	44.91	0
2	26527	45.01	0
2	26587	45.11	0
2	26647	45.21	0
2	26707	45.31	0
2	26767	45.41	0
2	26827	45.51	0
2	26887	45.61	0
2	26947	45.71	0
2	27007	45.81	0
2	27067	45.91	0
2	27130	46.01	0
2	27190	46.11	0
2	27250	46.21	0
2	27310	46.31	0
2	27370	46.41	0
2	27430	46.51	0
2	27490	46.61	0
2	27550	46.71	0
2	27610	46.81	0
2	27670	46.91	0
2	27733	47.01	0
2	27793	47.11	0
2	27853	47.21	0
2	27913	47.31	0
2	27973	47.41	0
2	28033	47.51	0
2	28093	47.61	0
2	28153	47.71	0
2	28213	47.81	0
2	28339	47.91	0
2	28401	48.01	0
2	28460	48.11	0
2	28519	48.21	0
2	28578	48.31	0
2	28637	48.41	0
2	28696	48.51	0
2	28755	48.61	0
2	28814	48.71	0
2	28873	48.81	0
2	28932	48.91	0
2	28994	49.01	0
2	29053	49.11	0
2	29112	49.21	0
2	29171	49.31	0
2	29230	49.41	0
2	29289	49.51	0
2	29348	49.61	0
2	29407	49.71	0
2	29466	49.81	0
2	29525	49.91	0
2	29587	50.01	0
2	29646	50.11	0
2	29705	50.21	0
2	29764	50.31	0
2	29823	50.41	0
2	29882	50.51	0
2	29941	50.61	0
2	30000	50.71	0
2	30059	50.81	0
2	30118	50.91	0
2	30180	51.01	0
2	30239	51.11	0
2	30298	51.21	0
2	30357	51.31	0
2	30416	51.41	0
2	30475	51.51	0
2	30534	51.61	0
2	30593	51.71	0
2	30652	51.81	0
2	30711	51.91	0
2	30773	52.01	0
2	30832	52.11	0
2	30891	52.21	0
2	30950	52.31	0
2	31009	52.41	0
2	31068	52.51	0
2	31127	52.61	0
2	31186	52.71	0
2	31245	52.81	0
2	31304	52.91	0
2	31366	53.01	0
2	31425	53.11	0
2	31484	53.21	0
2	31543	53.31	0
2	31602	53.41	0
2	31661	53.51	0
2	31720	53.61	0
2	31779	53.71	0
2	31838	53.81	0
2	31897	53.91	0
2	31959	54.01	0
2	32018	54.11	0
2	32077	54.21	0
2	32136	54.31	0
2	32195	54.41	0
2	32254	54.51	0
2	32313	54.61	0
2	32372	54.71	0
2	32431	54.81	0
2	32490	54.91	0
2	32552	55.01	0
2	32611	55.11	0
2	32670	55.21	0
2	32729	55.31	0
2	32788	55.41	0
2	32847	55.51	0
2	32906	55.61	0
2	32965	55.71	0
2	33024	55.81	0
2	33083	55.91	0
2	33145	56.01	0
2	33204	56.11	0
2	33263	56.21	0
2	33322	56.31	0
2	33381	56.41	0
2	33440	56.51	0
2	33499	56.61	0
2	33558	56.71	0
2	33617	56.81	0
2	33676	56.91	0
2	33738	57.01	0
2	33797	57.11	0
2	33856	57.21	0
2	33915	57.31	0
2	33974	57.41	0
2	34033	57.51	0
2	34092	57.61	0
2	34151	57.71	0
2	34210	57.81	0
2	34269	57.91	0
2	34331	58.01	0
2	34390	58.11	0
2	34449	58.21	0
2	34508	58.31	0
2	34567	58.41	0
2	34626	58.51	0
2	34685	58.61	0
2	34744	58.71	0
2	34803	58.81	0
2	34862	58.91	0
2	34924	59.01	0
2	34983	59.11	0
2	35042	59.21	0
2	35101	59.31	0
2	35160	59.41	0
2	35219	59.51	0
2	35278	59.61	0
2	35337	59.71	0
2	35396	59.81	0
2	35455	59.91	0
2	35517	60.01	0
2	35576	60.11	0
2	35635	60.21	0
2	35694	60.31	0
2	35753	60.41	0
2	35812	60.51	0
2	35871	60.61	0
2	35930	60.71	0
2	35989	60.81	0
2	36048	60.91	0
2	36110	61.01	0
2	36169	61.11	0
2	36228	61.21	0
2	36287	61.31	0
2	36346	61.41	0
2	36405	61.51	0
2	36464	61.61	0
2	36523	61.71	0
2	36582	61.81	0
2	36641	61.91	0
2	36703	62.01	0
2	36762	62.11	0
2	36821	62.21	0
2	36880	62.31	0
2	36939	62.41	0
2	36998	62.51	0
2	37057	62.61	0
2	37116	62.71	0
2	37175	62.81	0
2	37234	62.91	0
2	37296	63.01	0
2	37355	63.11	0
2	37414	63.21	0
2	37473	63.31	0
2	37532	63.41	0
2	37591	63.51	0
2	37650	63.61	0
2	37709	63.71	0
2	37768	63.81	0
2	37827	63.91	0
2	37889	64.01	0
2	37948	64.11	0
2	38007	64.21	0
2	38066	64.31	0
2	38125	64.41	0
2	38184	64.51	0
2	38243	64.61	0
2	38302	64.71	0
2	38361	64.81	0
2	38420	64.91	0
2	38482	65.01	0
2	38541	65.11	0
2	38600	65.21	0
2	38659	65.31	0
2	38718	65.41	0
2	38777	65.51	0
2	38836	65.61	0
2	38895	65.71	0
2	38954	65.81	0
2	39013	65.91	0
2	39075	66.01	0
2	39134	66.11	0
2	39193	66.21	0
2	39252	66.31	0
2	39311	66.41	0
2	39370	66.51	0
2	39429	66.61	0
2	39488	66.71	0
2	39547	66.81	0
2	39606	66.91	0
2	39668	67.01	0
2	39727	67.11	0
2	39786	67.21	0
2	39845	67.31	0
2	39904	67.41	0
2	39963	67.51	0
2	40022	67.61	0
2	40081	67.71	0
2	40140	67.81	0
2	40199	67.91	0
2	40261	68.01	0
2	40320	68.11	0
2	40379	68.21	0
2	40438	68.31	0
2	40497	68.41	0
2	40556	68.51	0
2	40615	68.61	0
2	40674	68.71	0
2	40733	68.81	0
2	40792	68.91	0
2	40854	69.01	0
2	40913	69.11	0
2	40972	69.21	0
2	41031	69.31	0
2	41090	69.41	0
2	41149	69.51	0
2	41208	69.61	0
2	41267	69.71	0
2	41326	69.81	0
2	41385	69.91	0
2	41447	70.01	0
2	41506	70.11	0
2	41565	70.21	0
2	41624	70.31	0
2	41683	70.41	0
2	41742	70.51	0
2	41801	70.61	0
2	41860	70.71	0
2	41919	70.81	0
2	41978	70.91	0
2	42040	71.01	0
2	42099	71.11	0
2	42158	71.21	0
2	42217	71.31	0
2	42276	71.41	0
2	42335	71.51	0
2	42394	71.61	0
2	42453	71.71	0
2	42512	71.81	0
2	42571	71.91	0
2	42633	72.01	0
2	42692	72.11	0
2	42751	72.21	0
2	42810	72.31	0
2	42869	72.41	0
2	42928	72.51	0
2	42987	72.61	0
2	43046	72.71	0
2	43105	72.81	0
2	43164	72.91	0
2	43226	73.01	0
2	43285	73.11	0
2	43344	73.21	0
2	43403	73.31	0
2	43462	73.41	0
2	43521	73.51	0
2	43580	73.61	0
2	43639	73.71	0
2	43698	73.81	0
2	43757	73.91	0
2	43819	74.01	0
2	43878	74.11	0
2	43937	74.21	0
2	43996	74.31	0
2	44055	74.41	0
2	44114	74.51	0
2	44173	74.61	0
2	44232	74.71	0
2	44291	74.81	0
2	44350	74.91	0
2	44412	75.01	0
2	44471	75.11	0
2	44530	75.21	0
2	44589	75.31	0
2	44648	75.41	0
2	44707	75.51	0
2	44766	75.61	0
2	44825	75.71	0
2	44884	75.81	0
2	44943	75.91	0
2	45005	76.01	0
2	45064	76.11	0
2	45123	76.21	0
2	45182	76.31	0
2	45241	76.41	0
2	45300	76.51	0
2	45359	76.61	0
2	45418	76.71	0
2	45477	76.81	0
2	45536	76.91	0
2	45598	77.01	0
2	45657	77.11	0
2	45716	77.21	0
2	45775	77.31	0
2	45834	77.41	0
2	45893	77.51	0
2	45952	77.61	0
2	46011	77.71	0
2	46070	77.81	0
2	46129	77.91	0
2	46191	78.01	0
2	46250	78.11	0
2	46309	78.21	0
2	46368	78.31	0
2	46427	78.41	0
2	46486	78.51	0
2	46545	78.61	0
2	46604	78.71	0
2	46663	78.81	0
2	46722	78.91	0
2	46784	79.01	0
2	46843	79.11	0
2	46902	79.21	0
2	46961	79.31	0
2	47020	79.41	0
2	47079	79.51	0
2	47138	79.61	0
2	47197	79.71	0
2	47256	79.81	0
2	47315	79.91	0
2	47377	80.01	0
2	47436	80.11	0
2	47495	80.21	0
2	47554	80.31	0
2	47613	80.41	0
2	47672	80.51	0
2	47731	80.61	0
2	47790	80.71	0
2	47849	80.81	0
2	47908	80.91	0
2	47970	81.01	0
2	48029	81.11	0
2	48088	81.21	0
2	48147	81.31	0
2	48206	81.41	0
2	48265	81.51	0
2	48324	81.61	0
2	48383	81.71	0
2	48442	81.81	0
2	48501	81.91	0
2	48563	82.01	0
2	48622	82.11	0
2	48681	82.21	0
2	48740	82.31	0
2	48799	82.41	0
2	48858	82.51	0
2	48917	82.61	0
2	48976	82.71	0
2	49035	82.81	0
2	49094	82.91	0
2	49156	83.01	0
2	49215	83.11	0
2	49274	83.21	0
2	49333	83.31	0
2	49392	83.41	0
2	49451	83.51	0
2	49510	83.61	0
2	49569	83.71	0
2	49628	83.81	0
2	49687	83.91	0
2	49749	84.01	0
2	49808	84.11	0
2	49867	84.21	0
2	49926	84.31	0
2	49985	84.41	0
2	50044	84.51	0
2	50103	84.61	0
2	50162	84.71	0
2	50221	84.81	0
2	50280	84.91	0
2	50342	85.01	0
2	50401	85.11	0
2	50460	85.21	0
2	50519	85.31	0
2	50578	85.41	0
2	50637	85.51	0
2	50696	85.61	0
2	50755	85.71	0
2	50814	85.81	0
2	50873	85.91	0
2	50935	86.01	0
2	50994	86.11	0
2	51053	86.21	0
2	51112	86.31	0
2	51171	86.41	0
2	51230	86.51	0
2	51289	86.61	0
2	51348	86.71	0
2	51407	86.81	0
2	51466	86.91	0
2	51528	87.01	0
2	51587	87.11	0
2	51646	87.21	0
2	51705	87.31	0
2	51764	87.41	0
2	51823	87.51	0
2	51882	87.61	0
2	51941	87.71	0
2	52000	87.81	0
2	52059	87.91	0
2	52121	88.01	0
2	52180	88.11	0
2	52239	88.21	0
2	52298	88.31	0
2	52357	88.41	0
2	52416	88.51	0
2	52475	88.61	0
2	52534	88.71	0
2	52593	88.81	0
2	52652	88.91	0
2	52714	89.01	0
2	52773	89.11	0
2	52832	89.21	0
2	52891	89.31	0
2	52950	89.41	0
2	53009	89.51	0
2	53068	89.61	0
2	53127	89.71	0
2	53186	89.81	0
2	53245	89.91	0
2	53307	90.01	0
2	53366	90.11	0
2	53425	90.21	0
2	53484	90.31	0
2	53543	90.41	0
2	53602	90.51	0
2	53661	90.61	0
2	53720	90.71	0
2	53779	90.81	0
2	53838	90.91	0
2	53900	91.01	0
2	53959	91.11	0
2	54018	91.21	0
2	54077	91.31	0
2	54136	91.41	0
2	54195	91.51	0
2	54254	91.61	0
2	54313	91.71	0
2	54372	91.81	0
2	54431	91.91	0
2	54493	92.01	0
2	54552	92.11	0
2	54611	92.21	0
2	54670	92.31	0
2	54729	92.41	0
2	54788	92.51	0
2	54847	92.61	0
2	54906	92.71	0
2	54965	92.81	0
2	55024	92.91	0
2	55086	93.01	0
2	55145	93.11	0
2	55204	93.21	0
2	55263	93.31	0
2	55322	93.41	0
2	55381	93.51	0
2	55440	93.61	0
2	55499	93.71	0
2	55558	93.81	0
2	55617	93.91	0
2	55679	94.01	0
2	55738	94.11	0
2	55797	94.21	0
2	55856	94.31	0
2	55915	94.41	0
2	55974	94.51	0
2	56033	94.61	0
2	56092	94.71	0
2	56151	94.81	0
2	56210	94.91	0
2	56272	95.01	0
2	56331	95.11	0
2	56390	95.21	0
2	56449	95.31	0
2	56508	95.41	0
2	56567	95.51	0
2	56626	95.61	0
2	56685	95.71	0
2	56744	95.81	0
2	56803	95.91	0
2	56865	96.01	0
2	56924	96.11	0
2	56983	96.21	0
2	57042	96.31	0
2	57101	96.41	0
2	57160	96.51	0
2	57219	96.61	0
2	57278	96.71	0
2	57337	96.81	0
2	57396	96.91	0
2	57458	97.01	0
2	57517	97.11	0
2	57576	97.21	0
2	57635	97.31	0
2	57694	97.41	0
2	57753	97.51	0
2	57812	97.61	0
2	57871	97.71	0
2	57930	97.81	0
2	57989	97.91	0
2	58051	98.01	0
2	58110	98.11	0
2	58169	98.21	0
2	58228	98.31	0
2	58287	98.41	0
2	58346	98.51	0
2	58405	98.61	0
2	58464	98.71	0
2	58523	98.81	0
2	58582	98.91	0
2	58644	99.01	0
2	58703	99.11	0
2	58762	99.21	0
2	58821	99.31	0
2	58880	99.41	0
2	58939	99.51	0
2	58998	99.61	0
2	59057	99.71	0
2	59116	99.81	0
2	59175	99.91	0
3	113	1.11	0.000179096
3	172	1.21	0.000340852
3	231	1.31	0.000467435
3	290	1.41	0.000562893
3	349	1.51	0.000631106
3	408	1.61	0.000675745
3	467	1.71	0.000700245
3	526	1.81	0.000707784
3	585	1.91	0.000701273
3	647	2.01	0.000683354
3	706	2.11	0.000656398
3	765	2.21	0.000622512
3	824	2.31	0.000583548
3	883	2.41	0.000541117
3	942	2.51	0.000496604
3	1001	2.61	0.000451181
3	1060	2.71	0.000405825
3	1119	2.81	0.00036134
3	1178	2.91	0.000318365
3	1240	3.01	0.0002774
3	1299	3.11	0.00023882
3	1358	3.21	0.000202887
3	1417	3.31	0.00016977
3	1476	3.41	0.000139558
3	1535	3.51	0.000112271
3	1594	3.61	8.78717e-05
3	1653	3.71	6.628e-05
3	1712	3.81	4.73785e-05
3	1771	3.91	3.1023e-05
3	1833	4.01	1.70493e-05
3	1892	4.11	5.28023e-06
3	1951	4.21	-4.46922e-06
3	2010	4.31	-1.2387e-05
3	2069	4.41	-1.86602e-05
3	2128	4.51	-2.34717e-05
3	2187	4.61	-2.69978e-05
3	2246	4.71	-2.94062e-05
3	2305	4.81	-3.08545e-05
3	2364	4.91	-3.14892e-05
3	2426	5.01	-3.14451e-05
3	2485	5.11	-3.0845e-05
3	2544	5.21	-2.97994e-05
3	2603	5.31	-2.84072e-05
3	2662	5.41	-2.67556e-05
3	2721	5.51	-2.49208e-05
3	2780	5.61	-2.29687e-05
3	2839	5.71	-2.09553e-05
3	2898	5.81	-1.89277e-05
3	2957	5.91	-1.6925e-05
3	3019	6.01	-1.49784e-05
3	3078	6.11	-1.31129e-05
3	3137	6.21	-1.13474e-05
3	3196	6.31	-9.69553e-06
3	3255	6.41	-8.16651e-06
3	3314	6.51	-6.76571e-06
3	3373	6.61	-5.49522e-06
3	3432	6.71	-4.35441e-06
3	3491	6.81	-3.34045e-06
3	3550	6.91	-2.44874e-06
3	3612	7.01	-1.6733e-06
3	3671	7.11	-1.00716e-06
3	3730	7.21	-4.42628e-07
3	3789	7.31	2.84224e-08
3	3848	7.41	4.14339e-07
3	3907	7.51	7.23492e-07
3	3966	7.61	9.6413e-07
3	4025	7.71	1.14424e-06
3	4084	7.81	1.27148e-06
3	4143	7.91	1.35305e-06
3	4205	8.01	1.3957e-06
3	4264	8.11	1.40565e-06
3	4323	8.21	1.3886e-06
3	4382	8.31	1.34971e-06
3	4441	8.41	1.2936e-06
3	4500	8.51	1.22437e-06
3	4559	8.61	1.14561e-06
3	4618	8.71	1.06046e-06
3	4677	8.81	9.71582e-07
3	4736	8.91	8.81246e-07
3	4798	9.01	7.91334e-07
3	4857	9.11	7.03381e-07
3	4916	9.21	6.18613e-07
3	4975	9.31	5.37979e-07
3	5034	9.41	4.62183e-07
3	5093	9.51	3.91714e-07
3	5152	9.61	3.26878e-07
3	5211	9.71	2.67827e-07
3	5270	9.81	2.14581e-07
3	5329	9.91	1.67052e-07
3	5422	10.01	1.25066e-07
3	5482	10.11	8.83794e-08
3	5542	10.21	5.66978e-08
3	5602	10.31	2.96922e-08
3	5662	10.41	7.00453e-09
3	5722	10.51	-1.17325e-08
3	5782	10.61	-2.68933e-08
3	5842	10.71	-3.88482e-08
3	5902	10.81	-4.79581e-08
3	5962	10.91	-5.45704e-08
3	6025	11.01	-5.90177e-08
3	6085	11.11	-6.16069e-08
3	6145	11.21	-6.26265e-08
3	6205	11.31	-6.23395e-08
3	6265	11.41	-6.09859e-08
3	6325	11.51	-5.87811e-08
3	6385	11.61	-5.59183e-08
3	6445	11.71	-5.25674e-08
3	6505	11.81	-4.88761e-08
3	6565	11.91	-4.4971e-08
3	6628	12.01	-4.09599e-08
3	6688	12.11	-3.69354e-08
3	6748	12.21	-3.29713e-08
3	6808	12.31	-2.9128e-08
3	6868	12.41	-2.54531e-08
3	6928	12.51	-2.19821e-08
3	6988	12.61	-1.87399e-08
3	7048	12.71	-1.57428e-08
3	7108	12.81	-1.30029e-08
3	7168	12.91	-1.05217e-08
3	7231	13.01	-8.29772e-09
3	7291	13.11	-6.32454e-09
3	7351	13.21	-4.59224e-09
3	7411	13.31	-3.08802e-09
3	7471	13.41	-1.79838e-09
3	7531	13.51	-7.08411e-10
3	7591	13.61	1.98241e-10
3	7651	13.71	9.37916e-10
3	7711	13.81	1.52767e-09
3	7771	13.91	1.98384e-09
3	7834	14.01	2.32276e-09
3	7894	14.11	2.55937e-09
3	7954	14.21	2.70788e-09
3	8014	14.31	2.78249e-09
3	8074	14.41	2.79243e-09
3	8134	14.51	2.7498e-09
3	8194	14.61	2.66525e-09
3	8254	14.71	2.54872e-09
3	8314	14.81	2.40803e-09
3	8374	14.91	2.24887e-09
3	8437	15.01	2.07763e-09
3	8497	15.11	1.89999e-09
3	8557	15.21	1.72236e-09
3	8617	15.31	1.54472e-09
3	8677	15.41	1.37064e-09
3	8737	15.51	1.20295e-09
3	8797	15.61	1.04379e-09
3	8857	15.71	8.94573e-10
3	8917	15.81	7.56017e-10
3	8977	15.91	6.29541e-10
3	9040	16.01	5.13012e-10
3	9100	16.11	4.09273e-10
3	9160	16.21	3.16902e-10
3	9220	16.31	2.3519e-10
3	9280	16.41	1.63425e-10
3	9340	16.51	1.02318e-10
3	9400	16.61	4.9738e-11
3	9460	16.71	5.68434e-12
3	9520	16.81	-3.05533e-11
3	9580	16.91	-5.8975e-11
3	9643	17.01	-8.10019e-11
3	9703	17.11	-9.80549e-11
3	9763	17.21	-1.11555e-10
3	9823	17.31	-1.18661e-10
3	9883	17.41	-1.23634e-10
3	9943	17.51	-1.23634e-10
3	10003	17.61	-1.23634e-10
3	10063	17.71	-1.21503e-10
3	10123	17.81	-1.14397e-10
3	10183	17.91	-1.07292e-10
3	10246	18.01	-1.00187e-10
3	10306	18.11	-9.30811e-11
3	10366	18.21	-8.59757e-11
3	10426	18.31	-7.88702e-11
3	10486	18.41	-7.17648e-11
3	10546	18.51	-6.46594e-11
3	10606	18.61	-5.7554e-11
3	10666	18.71	-5.04485e-11
3	10726	18.81	-4.33431e-11
3	10786	18.91	-3.62377e-11
3	10849	19.01	-2.91323e-11
3	10909	19.11	-2.20268e-11
3	10969	19.21	-1.7053e-11
3	11029	19.31	-1.49214e-11
3	11089	19.41	-1.35003e-11
3	11149	19.51	-1.27898e-11
3	11209	19.61	-1.13687e-11
3	11269	19.71	-9.9476e-12
3	11329	19.81	-9.23706e-12
3	11389	19.91	-8.52651e-12
3	11452	20.01	-7.81597e-12
3	11512	20.11	-7.10543e-12
3	11572	20.21	-6.39488e-12
3	11632	20.31	-5.68434e-12
3	11692	20.41	-4.9738e-12
3	11752	20.51	-4.26326e-12
3	11812	20.61	-4.26326e-12
3	11872	20.71	-3.55271e-12
3	11932	20.81	-3.55271e-12
3	11992	20.91	-2.84217e-12
3	12055	21.01	-2.84217e-12
3	12115	21.11	-2.84217e-12
3	12175	21.21	-2.13163e-12
3	12235	21.31	-2.13163e-12
3	12295	21.41	-2.13163e-12
3	12355	21.51	-1.42109e-12
3	12415	21.61	-1.42109e-12
3	12475	21.71	-1.42109e-12
3	12535	21.81	-1.42109e-12
3	12595	21.91	-1.42109e-12
3	12658	22.01	-7.10543e-13
3	12718	22.11	-7.10543e-13
3	12778	22.21	-7.10543e-13
3	12838	22.31	-7.10543e-13
3	12898	22.41	-7.10543e-13
3	12958	22.51	-7.10543e-13
3	13018	22.61	-7.10543e-13
3	13078	22.71	-7.10543e-13
3	13138	22.81	-7.10543e-13
3	13198	22.91	-7.10543e-13
3	13261	23.01	0
3	13321	23.11	0
3	13381	23.21	0
3	13441	23.31	0
3	13501	23.41	0
3	13561	23.51	0
3	13621	23.61	0
3	13681	23.71	0
3	13741	23.81	0
3	13801	23.91	0
3	13864	24.01	0
3	13924	24.11	0
3	13984	24.21	0
3	14044	24.31	0
3	14104	24.41	0
3	14164	24.51	0
3	14224	24.61	0
3	14284	24.71	0
3	14344	24.81	0
3	14404	24.91	0
3	14467	25.01	0
3	14527	25.11	0
3	14587	25.21	0
3	14647	25.31	0
3	14707	25.41	0
3	14767	25.51	0
3	14827	25.61	0
3	14887	25.71	0
3	14947	25.81	0
3	15007	25.91	0
3	15070	26.01	0
3	15130	26.11	0
3	15190	26.21	0
3	15250	26.31	0
3	15310	26.41	0
3	15370	26.51	0
3	15430	26.61	0
3	15490	26.71	0
3	15550	26.81	0
3	15610	26.91	0
3	15673	27.01	0
3	15733	27.11	0
3	15793	27.21	0
3	15853	27.31	0
3	15913	27.41	0
3	15973	27.51	0
3	16033	27.61	0
3	16093	27.71	0
3	16153	27.81	0
3	16213	27.91	0
3	16276	28.01	0
3	16336	28.11	0
3	16396	28.21	0
3	16456	28.31	0
3	16516	28.41	0
3	16576	28.51	0
3	16636	28.61	0
3	16696	28.71	0
3	16756	28.81	0
3	16816	28.91	0
3	16879	29.01	0
3	16939	29.11	0
3	16999	29.21	0
3	17059	29.31	0
3	17119	29.41	0
3	17179	29.51	0
3	17239	29.61	0
3	17299	29.71	0
3	17359	29.81	0
3	17419	29.91	0
3	17482	30.01	0
3	17542	30.11	0
3	17602	30.21	0
3	17662	30.31	0
3	17722	30.41	0
3	17782	30.51	0
3	17842	30.61	0
3	17902	30.71	0
3	17962	30.81	0
3	18022	30.91	0
3	18085	31.01	0
3	18145	31.11	0
3	18205	31.21	0
3	18265	31.31	0
3	18325	31.41	0
3	18385	31.51	0
3	18445	31.61	0
3	18505	31.71	0
3	18565	31.81	0
3	18625	31.91	0
3	18688	32.01	0
3	18748	32.11	0
3	18808	32.21	0
3	18868	32.31	0
3	18928	32.41	0
3	18988	32.51	0
3	19048	32.61	0
3	19108	32.71	0
3	19168	32.81	0
3	19228	32.91	0
3	19291	33.01	0
3	19351	33.11	0
3	19411	33.21	0
3	19471	33.31	0
3	19531	33.41	0
3	19591	33.51	0
3	19651	33.61	0
3	19711	33.71	0
3	19771	33.81	0
3	19831	33.91	0
3	19894	34.01	0
3	19954	34.11	0
3	20014	34.21	0
3	20074	34.31	0
3	20134	34.41	0
3	20194	34.51	0
3	20254	34.61	0
3	20314	34.71	0
3	20374	34.81	0
3	20434	34.91	0
3	20497	35.01	0
3	20557	35.11	0
3	20617	35.21	0
3	20677	35.31	0
3	20737	35.41	0
3	20797	35.51	0
3	20857	35.61	0
3	20917	35.71	0
3	20977	35.81	0
3	21037	35.91	0
3	21100	36.01	0
3	21160	36.11	0
3	21220	36.21	0
3	21280	36.31	0
3	21340	36.41	0
3	21400	36.51	0
3	21460	36.61	0
3	21520	36.71	0
3	21580	36.81	0
3	21640	36.91	0
3	21703	37.01	0
3	21763	37.11	0
3	21823	37.21	0
3	21883	37.31	0
3	21943	37.41	0
3	22003	37.51	0
3	22063	37.61	0
3	22123	37.71	0
3	22183	37.81	0
3	22243	37.91	0
3	22306	38.01	0
3	22366	38.11	0
3	22426	38.21	0
3	22486	38.31	0
3	22546	38.41	0
3	22606	38.51	0
3	22666	38.61	0
3	22726	38.71	0
3	22786	38.81	0
3	22846	38.91	0
3	22909	39.01	0
3	22969	39.11	0
3	23029	39.21	0
3	23089	39.31	0
3	23149	39.41	0
3	23209	39.51	0
3	23269	39.61	0
3	23329	39.71	0
3	23389	39.81	0
3	23449	39.91	0
3	23512	40.01	0
3	23572	40.11	0
3	23632	40.21	0
3	23692	40.31	0
3	23752	40.41	0
3	23812	40.51	0
3	23872	40.61	0
3	23932	40.71	0
3	23992	40.81	0
3	24052	40.91	0
3	24115	41.01	0
3	24175	41.11	0
3	24235	41.21	0
3	24295	41.31	0
3	24355	41.41	0
3	24415	41.51	0
3	24475	41.61	0
3	24535	41.71	0
3	24595	41.81	0
3	24655	41.91	0
3	24718	42.01	0
3	24778	42.11	0
3	24838	42.21	0
3	24898	42.31	0
3	24958	42.41	0
3	25018	42.51	0
3	25078	42.61	0
3	25138	42.71	0
3	25198	42.81	0
3	25258	42.91	0
3	25321	43.01	0
3	25381	43.11	0
3	25441	43.21	0
3	25501	43.31	0
3	25561	43.41	0
3	25621	43.51	0
3	25681	43.61	0
3	25741	43.71	0
3	25801	43.81	0
3	25861	43.91	0
3	25924	44.01	0
3	25984	44.11	0
3	26044	44.21	0
3	26104	44.31	0
3	26164	44.41	0
3	26224	44.51	0
3	26284	44.61	0
3	26344	44.71	0
3	26404	44.81	0
3	26464	44.91	0
3	26527	45.01	0
3	26587	45.11	0
3	26647	45.21	0
3	26707	45.31	0
3	26767	45.41	0
3	26827	45.51	0
3	26887	45.61	0
3	26947	45.71	0
3	27007	45.81	0
3	27067	45.91	0
3	27130	46.01	0
3	27190	46.11	0
3	27250	46.21	0
3	27310	46.31	0
3	27370	46.41	0
3	27430	46.51	0
3	27490	46.61	0
3	27550	46.71	0
3	27610	46.81	0
3	27670	46.91	0
3	27733	47.01	0
3	27793	47.11	0
3	27853	47.21	0
3	27913	47.31	0
3	27973	47.41	0
3	28033	47.51	0
3	28093	47.61	0
3	28153	47.71	0
3	28213	47.81	0
3	28339	47.91	0
3	28401	48.01	0
3	28460	48.11	0
3	28519	48.21	0
3	28578	48.31	0
3	28637	48.41	0
3	28696	48.51	0
3	28755	48.61	0
3	28814	48.71	0
3	28873	48.81	0
3	28932	48.91	0
3	28994	49.01	0
3	29053	49.11	0
3	29112	49.21	0
3	29171	49.31	0
3	29230	49.41	0
3	29289	49.51	0
3	29348	49.61	0
3	29407	49.71	0
3	29466	49.81	0
3	29525	49.91	0
3	29587	50.01	0
3	29646	50.11	0
3	29705	50.21	0
3	29764	50.31	0
3	29823	50.41	0
3	29882	50.51	0
3	29941	50.61	0
3	30000	50.71	0
3	30059	50.81	0
3	30118	50.91	0
3	30180	51.01	0
3	30239	51.11	0
3	30298	51.21	0
3	30357	51.31	0
3	30416	51.41	0
3	30475	51.51	0
3	30534	51.61	0
3	30593	51.71	0
3	30652	51.81	0
3	30711	51.91	0
3	30773	52.01	0
3	30832	52.11	0
3	30891	52.21	0
3	30950	52.31	0
3	31009	52.41	0
3	31068	52.51	0
3	31127	52.61	0
3	31186	52.71	0
3	31245	52.81	0
3	31304	52.91	0
3	31366	53.01	0
3	31425	53.11	0
3	31484	53.21	0
3	31543	53.31	0
3	31602	53.41	0
3	31661	53.51	0
3	31720	53.61	0
3	31779	53.71	0
3	31838	53.81	0
3	31897	53.91	0
3	31959	54.01	0
3	32018	54.11	0
3	32077	54.21	0
3	32136	54.31	0
3	32195	54.41	0
3	32254	54.51	0
3	32313	54.61	0
3	32372	54.71	0
3	32431	54.81	0
3	32490	54.91	0
3	32552	55.01	0
3	32611	55.11	0
3	32670	55.21	0
3	32729	55.31	0
3	32788	55.41	0
3	32847	55.51	0
3	32906	55.61	0
3	32965	55.71	0
3	33024	55.81	0
3	33083	55.91	0
3	33145	56.01	0
3	33204	56.11	0
3	33263	56.21	0
3	33322	56.31	0
3	33381	56.41	0
3	33440	56.51	0
3	33499	56.61	0
3	33558	56.71	0
3	33617	56.81	0
3	33676	56.91	0
3	33738	57.01	0
3	33797	57.11	0
3	33856	57.21	0
3	33915	57.31	0
3	33974	57.41	0
3	34033	57.51	0
3	34092	57.61	0
3	34151	57.71	0
3	34210	57.81	0
3	34269	57.91	0
3	34331	58.01	0
3	34390	58.11	0
3	34449	58.21	0
3	34508	58.31	0
3	34567	58.41	0
3	34626	58.51	0
3	34685	58.61	0
3	34744	58.71	0
3	34803	58.81	0
3	34862	58.91	0
3	34924	59.01	0
3	34983	59.11	0
3	35042	59.21	0
3	35101	59.31	0
3	35160	59.41	0
3	35219	59.51	0
3	35278	59.61	0
3	35337	59.71	0
3	35396	59.81	0
3	35455	59.91	0
3	35517	60.01	0
3	35576	60.11	0
3	35635	60.21	0
3	35694	60.31	0
3	35753	60.41	0
3	35812	60.51	0
3	35871	60.61	0
3	35930	60.71	0
3	35989	60.81	0
3	36048	60.91	0
3	36110	61.01	0
3	36169	61.11	0
3	36228	61.21	0
3	36287	61.31	0
3	36346	61.41	0
3	36405	61.51	0
3	36464	61.61	0
3	36523	61.71	0
3	36582	61.81	0
3	36641	61.91	0
3	36703	62.01	0
3	36762	62.11	0
3	36821	62.21	0
3	36880	62.31	0
3	36939	62.41	0
3	36998	62.51	0
3	37057	62.61	0
3	37116	62.71	0
3	37175	62.81	0
3	37234	62.91	0
3	37296	63.01	0
3	37355	63.11	0
3	37414	63.21	0
3	37473	63.31	0
3	37532	63.41	0
3	37591	63.51	0
3	37650	63.61	0
3	37709	63.71	0
3	37768	63.81	0
3	37827	63.91	0
3	37889	64.01	0
3	37948	64.11	0
3	38007	64.21	0
3	38066	64.31	0
3	38125	64.41	0
3	38184	64.51	0
3	38243	64.61	0
3	38302	64.71	0
3	38361	64.81	0
3	38420	64.91	0
3	38482	65.01	0
3	38541	65.11	0
3	38600	65.21	0
3	38659	65.31	0
3	38718	65.41	0
3	38777	65.51	0
3	38836	65.61	0
3	38895	65.71	0
3	38954	65.81	0
3	39013	65.91	0
3	39075	66.01	0
3	39134	66.11	0
3	39193	66.21	0
3	39252	66.31	0
3	39311	66.41	0
3	39370	66.51	0
3	39429	66.61	0
3	39488	66.71	0
3	39547	66.81	0
3	39606	66.91	0
3	39668	67.01	0
3	39727	67.11	0
3	39786	67.21	0
3	39845	67.31	0
3	39904	67.41	0
3	39963	67.51	0
3	40022	67.61	0
3	40081	67.71	0
3	40140	67.81	0
3	40199	67.91	0
3	40261	68.01	0
3	40320	68.11	0
3	40379	68.21	0
3	40438	68.31	0
3	40497	68.41	0
3	40556	68.51	0
3	40615	68.61	0
3	40674	68.71	0
3	40733	68.81	0
3	40792	68.91	0
3	40854	69.01	0
3	40913	69.11	0
3	40972	69.21	0
3	41031	69.31	0
3	41090	69.41	0
3	41149	69.51	0
3	41208	69.61	0
3	41267	69.71	0
3	41326	69.81	0
3	41385	69.91	0
3	41447	70.01	0
3	41506	70.11	0
3	41565	70.21	0
3	41624	70.31	0
3	41683	70.41	0
3	41742	70.51	0
3	41801	70.61	0
3	41860	70.71	0
3	41919	70.81	0
3	41978	70.91	0
3	42040	71.01	0
3	42099	71.11	0
3	42158	71.21	0
3	42217	71.31	0
3	42276	71.41	0
3	42335	71.51	0
3	42394	71.61	0
3	42453	71.71	0
3	42512	71.81	0
3	42571	71.91	0
3	42633	72.01	0
3	42692	72.11	0
3	42751	72.21	0
3	42810	72.31	0
3	42869	72.41	0
3	42928	72.51	0
3	42987	72.61	0
3	43046	72.71	0
3	43105	72.81	0
3	43164	72.91	0
3	43226	73.01	0
3	43285	73.11	0
3	43344	73.21	0
3	43403	73.31	0
3	43462	73.41	0
3	43521	73.51	0
3	43580	73.61	0
3	43639	73.71	0
3	43698	73.81	0
3	43757	73.91	0
3	43819	74.01	0
3	43878	74.11	0
3	43937	74.21	0
3	43996	74.31	0
3	44055	74.41	0
3	44114	74.51	0
3	44173	74.61	0
3	44232	74.71	0
3	44291	74.81	0
3	44350	74.91	0
3	44412	75.01	0
3	44471	75.11	0
3	44530	75.21	0
3	44589	75.31	0
3	44648	75.41	0
3	44707	75.51	0
3	44766	75.61	0
3	44825	75.71	0
3	44884	75.81	0
3	44943	75.91	0
3	45005	76.01	0
3	45064	76.11	0
3	45123	76.21	0
3	45182	76.31	0
3	45241	76.41	0
3	45300	76.51	0
3	45359	76.61	0
3	45418	76.71	0
3	45477	76.81	0
3	45536	76.91	0
3	45598	77.01	0
3	45657	77.11	0
3	45716	77.21	0
3	45775	77.31	0
3	45834	77.41	0
3	45893	77.51	0
3	45952	77.61	0
3	46011	77.71	0
3	46070	77.81	0
3	46129	77.91	0
3	46191	78.01	0
3	46250	78.11	0
3	46309	78.21	0
3	46368	78.31	0
3	46427	78.41	0
3	46486	78.51	0
3	46545	78.61	0
3	46604	78.71	0
3	46663	78.81	0
3	46722	78.91	0
3	46784	79.01	0
3	46843	79.11	0
3	46902	79.21	0
3	46961	79.31	0
3	47020	79.41	0
3	47079	79.51	0
3	47138	79.61	0
3	47197	79.71	0
3	47256	79.81	0
3	47315	79.91	0
3	47377	80.01	0
3	47436	80.11	0
3	47495	80.21	0
3	47554	80.31	0
3	47613	80.41	0
3	47672	80.51	0
3	47731	80.61	0
3	47790	80.71	0
3	47849	80.81	0
3	47908	80.91	0
3	47970	81.01	0
3	48029	81.11	0
3	48088	81.21	0
3	48147	81.31	0
3	48206	81.41	0
3	48265	81.51	0
3	48324	81.61	0
3	48383	81.71	0
3	48442	81.81	0
3	48501	81.91	0
3	48563	82.01	0
3	48622	82.11	0
3	48681	82.21	0
3	48740	82.31	0
3	48799	82.41	0
3	48858	82.51	0
3	48917	82.61	0
3	48976	82.71	0
3	49035	82.81	0
3	49094	82.91	0
3	49156	83.01	0
3	49215	83.11	0
3	49274	83.21	0
3	49333	83.31	0
3	49392	83.41	0
3	49451	83.51	0
3	49510	83.61	0
3	49569	83.71	0
3	49628	83.81	0
3	49687	83.91	0
3	49749	84.01	0
3	49808	84.11	0
3	49867	84.21	0
3	49926	84.31	0
3	49985	84.41	0
3	50044	84.51	0
3	50103	84.61	0
3	50162	84.71	0
3	50221	84.81	0
3	50280	84.91	0
3	50342	85.01	0
3	50401	85.11	0
3	50460	85.21	0
3	50519	85.31	0
3	50578	85.41	0
3	50637	85.51	0
3	50696	85.61	0
3	50755	85.71	0
3	50814	85.81	0
3	50873	85.91	0
3	50935	86.01	0
3	50994	86.11	0
3	51053	86.21	0
3	51112	86.31	0
3	51171	86.41	0
3	51230	86.51	0
3	51289	86.61	0
3	51348	86.71	0
3	51407	86.81	0
3	51466	86.91	0
3	51528	87.01	0
3	51587	87.11	0
3	51646	87.21	0
3	51705	87.31	0
3	51764	87.41	0
3	51823	87.51	0
3	51882	87.61	0
3	51941	87.71	0
3	52000	87.81	0
3	52059	87.91	0
3	52121	88.01	0
3	52180	88.11	0
3	52239	88.21	0
3	52298	88.31	0
3	52357	88.41	0
3	52416	88.51	0
3	52475	88.61	0
3	52534	88.71	0
3	52593	88.81	0
3	52652	88.91	0
3	52714	89.01	0
3	52773	89.11	0
3	52832	89.21	0
3	52891	89.31	0
3	52950	89.41	0
3	53009	89.51	0
3	53068	89.61	0
3	53127	89.71	0
3	53186	89.81	0
3	53245	89.91	0
3	53307	90.01	0
3	53366	90.11	0
3	53425	90.21	0
3	53484	90.31	0
3	53543	90.41	0
3	53602	90.51	0
3	53661	90.61	0
3	53720	90.71	0
3	53779	90.81	0
3	53838	90.91	0
3	53900	91.01	0
3	53959	91.11	0
3	54018	91.21	0
3	54077	91.31	0
3	54136	91.41	0
3	54195	91.51	0
3	54254	91.61	0
3	54313	91.71	0
3	54372	91.81	0
3	54431	91.91	0
3	54493	92.01	0
3	54552	92.11	0
3	54611	92.21	0
3	54670	92.31	0
3	54729	92.41	0
3	54788	92.51	0
3	54847	92.61	0
3	54906	92.71	0
3	54965	92.81	0
3	55024	92.91	0
3	55086	93.01	0
3	55145	93.11	0
3	55204	93.21	0
3	55263	93.31	0
3	55322	93.41	0
3	55381	93.51	0
3	55440	93.61	0
3	55499	93.71	0
3	55558	93.81	0
3	55617	93.91	0
3	55679	94.01	0
3	55738	94.11	0
3	55797	94.21	0
3	55856	94.31	0
3	55915	94.41	0
3	55974	94.51	0
3	56033	94.61	0
3	56092	94.71	0
3	56151	94.81	0
3	56210	94.91	0
3	56272	95.01	0
3	56331	95.11	0
3	56390	95.21	0
3	56449	95.31	0
3	56508	95.41	0
3	56567	95.51	0
3	56626	95.61	0
3	56685	95.71	0
3	56744	95.81	0
3	56803	95.91	0
3	56865	96.01	0
3	56924	96.11	0
3	56983	96.21	0
3	57042	96.31	0
3	57101	96.41	0
3	57160	96.51	0
3	57219	96.61	0
3	57278	96.71	0
3	57337	96.81	0
3	57396	96.91	0
3	57458	97.01	0
3	57517	97.11	0
3	57576	97.21	0
3	57635	97.31	0
3	57694	97.41	0
3	57753	97.51	0
3	57812	97.61	0
3	57871	97.71	0
3	57930	97.81	0
3	57989	97.91	0
3	58051	98.01	0
3	58110	98.11	0
3	58169	98.21	0
3	58228	98.31	0
3	58287	98.41	0
3	58346	98.51	0
3	58405	98.61	0
3	58464	98.71	0
3	58523	98.81	0
3	58582	98.91	0
3	58644	99.01	0
3	58703	99.11	0
3	58762	99.21	0
3	58821	99.31	0
3	58880	99.41	0
3	58939	99.51	0
3	58998	99.61	0
3	59057	99.71	0
3	59116	99.81	0
3	59175	99.91	0
4	113	1.11	0.00109259
4	172	1.21	0.00106709
4	231	1.31	0.00102704
4	290	1.41	0.000975759
4	349	1.51	0.00091619
4	408	1.61	0.000850891
4	467	1.71	0.000782061
4	526	1.81	0.00071157
4	585	1.91	0.00064098
4	647	2.01	0.000571575
4	706	2.11	0.000504387
4	765	2.21	0.000440223
4	824	2.31	0.000379691
4	883	2.41	0.000323223
4	942	2.51	0.000271102
4	1001	2.61	0.000223482
4	1060	2.71	0.000180409
4	1119	2.81	0.000141839
4	1178	2.91	0.000107653
4	1240	3.01	7.76787e-05
4	1299	3.11	5.16957e-05
4	1358	3.21	2.94534e-05
4	1417	3.31	1.06787e-05
4	1476	3.41	-4.91459e-06
4	1535	3.51	-1.76184e-05
4	1594	3.61	-2.7724e-05
4	1653	3.71	-3.55168e-05
4	1712	3.81	-4.12726e-05
4	1771	3.91	-4.52541e-05
4	1833	4.01	-4.77086e-05
4	1892	4.11	-4.88665e-05
4	1951	4.21	-4.89399e-05
4	2010	4.31	-4.81224e-05
4	2069	4.41	-4.65886e-05
4	2128	4.51	-4.44947e-05
4	2187	4.61	-4.1979e-05
4	2246	4.71	-3.91623e-05
4	2305	4.81	-3.61492e-05
4	2364	4.91	-3.3029e-05
4	2426	5.01	-2.9877e-05
4	2485	5.11	-2.67554e-05
4	2544	5.21	-2.37147e-05
4	2603	5.31	-2.07949e-05
4	2662	5.41	-1.80267e-05
4	2721	5.51	-1.54325e-05
4	2780	5.61	-1.30275e-05
4	2839	5.71	-1.0821e-05
4	2898	5.81	-8.81673e-06
4	2957	5.91	-7.01443e-06
4	3019	6.01	-5.4101e-06
4	3078	6.11	-3.99696e-06
4	3137	6.21	-2.766e-06
4	3196	6.31	-1.70658e-06
4	3255	6.41	-8.06872e-07
4	3314	6.51	-5.43281e-08
4	3373	6.61	5.63994e-07
4	3432	6.71	1.06112e-06
4	3491	6.81	1.4499e-06
4	3550	6.91	1.74283e-06
4	3612	7.01	1.95188e-06
4	3671	7.11	2.08836e-06
4	3730	7.21	2.16287e-06
4	3789	7.31	2.1852e-06
4	3848	7.41	2.16432e-06
4	3907	7.51	2.10838e-06
4	3966	7.61	2.02467e-06
4	4025	7.71	1.91968e-06
4	4084	7.81	1.79913e-06
4	4143	7.91	1.66796e-06
4	4205	8.01	1.53044e-06
4	4264	8.11	1.39018e-06
4	4323	8.21	1.25018e-06
4	4382	8.31	1.11291e-06
4	4441	8.41	9.80339e-07
4	4500	8.51	8.54002e-07
4	4559	8.61	7.35044e-07
4	4618	8.71	6.24274e-07
4	4677	8.81	5.22206e-07
4	4736	8.91	4.2911e-07
4	4798	9.01	3.45041e-07
4	4857	9.11	2.69888e-07
4	4916	9.21	2.03394e-07
4	4975	9.31	1.45199e-07
4	5034	9.41	9.48539e-08
4	5093	9.51	5.18526e-08
4	5152	9.61	1.56462e-08
4	5211	9.71	-1.43366e-08
4	5270	9.81	-3.86756e-08
4	5329	9.91	-5.79483e-08
4	5422	10.01	-7.27191e-08
4	5482	10.11	-8.35328e-08
4	5542	10.21	-9.09047e-08
4	5602	10.31	-9.53222e-08
4	5662	10.41	-9.72364e-08
4	5722	10.51	-9.7063e-08
4	5782	10.61	-9.51793e-08
4	5842	10.71	-9.19272e-08
4	5902	10.81	-8.76099e-08
4	5962	10.91	-8.24976e-08
4	6025	11.01	-7.68239e-08
4	6085	11.11	-7.07914e-08
4	6145	11.21	-6.45734e-08
4	6205	11.31	-5.83135e-08
4	6265	11.41	-5.21325e-08
4	6325	11.51	-4.6127e-08
4	6385	11.61	-4.0373e-08
4	6445	11.71	-3.49289e-08
4	6505	11.81	-2.98357e-08
4	6565	11.91	-2.51227e-08
4	6628	12.01	-2.08054e-08
4	6688	12.11	-1.6891e-08
4	6748	12.21	-1.33767e-08
4	6808	12.31	-1.02538e-08
4	6868	12.41	-7.50759e-09
4	6928	12.51	-5.12017e-09
4	6988	12.61	-3.07026e-09
4	7048	12.71	-1.33298e-09
4	7108	12.81	1.15818e-10
4	7168	12.91	1.30242e-09
4	7231	13.01	2.25242e-09
4	7291	13.11	2.99138e-09
4	7351	13.21	3.54419e-09
4	7411	13.31	3.93356e-09
4	7471	13.41	4.18297e-09
4	7531	13.51	4.31157e-09
4	7591	13.61	4.34071e-09
4	7651	13.71	4.28599e-09
4	7711	13.81	4.16449e-09
4	7771	13.91	3.99041e-09
4	7834	14.01	3.77582e-09
4	7894	14.11	3.53211e-09
4	7954	14.21	3.2685e-09
4	8014	14.31	2.99423e-09
4	8074	14.41	2.71498e-09
4	8134	14.51	2.43716e-09
4	8194	14.61	2.16573e-09
4	8254	14.71	1.90425e-09
4	8314	14.81	1.65556e-09
4	8374	14.91	1.4218e-09
4	8437	15.01	1.20437e-09
4	8497	15.11	1.00471e-09
4	8557	15.21	8.22808e-10
4	8617	15.31	6.57963e-10
4	8677	15.41	5.11591e-10
4	8737	15.51	3.82272e-10
4	8797	15.61	2.69296e-10
4	8857	15.71	1.71951e-10
4	8917	15.81	8.88178e-11
4	8977	15.91	1.84741e-11
4	9040	16.01	-3.90799e-11
4	9100	16.11	-8.52651e-11
4	9160	16.21	-1.22213e-10
4	9220	16.31	-1.49925e-10
4	9280	16.41	-1.7053e-10
4	9340	16.51	-1.84031e-10
4	9400	16.61	-1.91847e-10
4	9460	16.71	-1.94689e-10
4	9520	16.81	-1.93268e-10
4	9580	16.91	-1.89004e-10
4	9643	17.01	-1.81899e-10
4	9703	17.11	-1.73372e-10
4	9763	17.21	-1.62714e-10
4	9823	17.31	-1.51346e-10
4	9883	17.41	-1.39266e-10
4	9943	17.51	-1.26477e-10
4	10003	17.61	-1.14397e-10
4	10063	17.71	-1.02318e-10
4	10123	17.81	-9.02389e-11
4	10183	17.91	-7.88702e-11
4	10246	18.01	-6.89226e-11
4	10306	18.11	-5.8975e-11
4	10366	18.21	-4.9738e-11
4	10426	18.31	-4.1922e-11
4	10486	18.41	-3.41061e-11
4	10546	18.51	-2.70006e-11
4	10606	18.61	-2.13163e-11
4	10666	18.71	-1.56319e-11
4	10726	18.81	-1.06581e-11
4	10786	18.91	-7.10543e-12
4	10849	19.01	-3.55271e-12
4	10909	19.11	-7.10543e-13
4	10969	19.21	7.10543e-13
4	11029	19.31	2.84217e-12
4	11089	19.41	4.26326e-12
4	11149	19.51	4.9738e-12
4	11209	19.61	6.39488e-12
4	11269	19.71	7.81597e-12
4	11329	19.81	8.52651e-12
4	11389	19.91	9.23706e-12
4	11452	20.01	9.9476e-12
4	11512	20.11	1.06581e-11
4	11572	20.21	1.13687e-11
4	11632	20.31	1.20792e-11
4	11692	20.41	1.27898e-11
4	11752	20.51	1.35003e-11
4	11812	20.61	1.35003e-11
4	11872	20.71	1.42109e-11
4	11932	20.81	1.42109e-11
4	11992	20.91	1.49214e-11
4	12055	21.01	1.49214e-11
4	12115	21.11	1.49214e-11
4	12175	21.21	1.56319e-11
4	12235	21.31	1.56319e-11
4	12295	21.41	1.56319e-11
4	12355	21.51	1.63425e-11
4	12415	21.61	1.63425e-11
4	12475	21.71	1.63425e-11
4	12535	21.81	1.63425e-11
4	12595	21.91	1.63425e-11
4	12658	22.01	1.7053e-11
4	12718	22.11	1.7053e-11
4	12778	22.21	1.7053e-11
4	12838	22.31	1.7053e-11
4	12898	22.41	1.7053e-11
4	12958	22.51	1.7053e-11
4	13018	22.61	1.7053e-11
4	13078	22.71	1.7053e-11
4	13138	22.81	1.7053e-11
4	13198	22.91	1.7053e-11
4	13261	23.01	1.77636e-11
4	13321	23.11	1.77636e-11
4	13381	23.21	1.77636e-11
4	13441	23.31	1.77636e-11
4	13501	23.41	1.77636e-11
4	13561	23.51	1.77636e-11
4	13621	23.61	1.77636e-11
4	13681	23.71	1.77636e-11
4	13741	23.81	1.77636e-11
4	13801	23.91	1.77636e-11
4	13864	24.01	1.77636e-11
4	13924	24.11	1.77636e-11
4	13984	24.21	1.77636e-11
4	14044	24.31	1.77636e-11
4	14104	24.41	1.77636e-11
4	14164	24.51	1.77636e-11
4	14224	24.61	1.77636e-11
4	14284	24.71	1.77636e-11
4	14344	24.81	1.77636e-11
4	14404	24.91	1.77636e-11
4	14467	25.01	1.77636e-11
4	14527	25.11	1.77636e-11
4	14587	25.21	1.77636e-11
4	14647	25.31	1.77636e-11
4	14707	25.41	1.77636e-11
4	14767	25.51	1.77636e-11
4	14827	25.61	1.77636e-11
4	14887	25.71	1.77636e-11
4	14947	25.81	1.77636e-11
4	15007	25.91	1.77636e-11
4	15070	26.01	1.77636e-11
4	15130	26.11	1.77636e-11
4	15190	26.21	1.77636e-11
4	15250	26.31	1.77636e-11
4	15310	26.41	1.77636e-11
4	15370	26.51	1.77636e-11
4	15430	26.61	1.77636e-11
4	15490	26.71	1.77636e-11
4	15550	26.81	1.77636e-11
4	15610	26.91	1.77636e-11
4	15673	27.01	1.77636e-11
4	15733	27.11	1.77636e-11
4	15793	27.21	1.77636e-11
4	15853	27.31	1.77636e-11
4	15913	27.41	1.77636e-11
4	15973	27.51	1.77636e-11
4	16033	27.61	1.77636e-11
4	16093	27.71	1.77636e-11
4	16153	27.81	1.77636e-11
4	16213	27.91	1.77636e-11
4	16276	28.01	1.77636e-11
4	16336	28.11	1.77636e-11
4	16396	28.21	1.77636e-11
4	16456	28.31	1.77636e-11
[...]
27	46214	78.041805087784	1
27	46273	78.141802843881	1
27	46332	78.241800602054	1
27	46391	78.341811362302	1
27	46450	78.441809124625	1
27	46509	78.541806889024	1
27	46568	78.641804655499	1
27	46627	78.741802424049	1
27	46686	78.841800194674	1
27	46745	78.941810967375	1
27	46807	79.041808742152	1
27	46866	79.141806519004	1
27	46925	79.241804297931	1
27	46984	79.341802078934	1
27	47043	79.441799862013	1
27	47102	79.541810647167	1
27	47161	79.641808434396	1
27	47220	79.741806223701	1
27	47279	79.841804015082	1
27	47338	79.941801808538	1
27	47400	80.041799604069	1
27	47459	80.141810401676	1
27	47518	80.241808201359	1
27	47577	80.341806003117	1
27	47636	80.44180380695	1
27	47695	80.541801612859	1
27	47754	80.641799420844	1
27	47813	80.741810230904	1
27	47872	80.841808043039	1
27	47931	80.94180585725	1
27	47993	81.041803673537	1
27	48052	81.141801491899	1
27	48111	81.241799312336	1
27	48170	81.341810134849	1
27	48229	81.441807959438	1
27	48288	81.541805786102	1
27	48347	81.641803614841	1
27	48406	81.741801445656	1
27	48465	81.841799278547	1
27	48524	81.941810113513	1
27	48586	82.041807950554	1
27	48645	82.141805789671	1
27	48704	82.241803630864	1
27	48763	82.341801474132	1
27	48822	82.441799319475	1
27	48881	82.541810166894	1
27	48940	82.641808016389	1
27	48999	82.741805867959	1
27	49058	82.841803721604	1
27	49117	82.941801577325	1
27	49179	83.041799435122	1
27	49238	83.141810294994	1
27	49297	83.241808156941	1
27	49356	83.341806020964	1
27	49415	83.441803887063	1
27	49474	83.541801755237	1
27	49533	83.641799625486	1
27	49592	83.741810497811	1
27	49651	83.841808372212	1
27	49710	83.941806248688	1
27	49772	84.041804127239	1
27	49831	84.141802007866	1
27	49890	84.241799890569	1
27	49949	84.341810775347	1
27	50008	84.4418086622	1
27	50067	84.541806551129	1
27	50126	84.641804442134	1
27	50185	84.741802335214	1
27	50244	84.841800230369	1
27	50303	84.9418111276	1
27	50365	85.041809026907	1
27	50424	85.141806928289	1
27	50483	85.241804831746	1
27	50542	85.341802737279	1
27	50601	85.441800644888	1
27	50660	85.541811554572	1
27	50719	85.641809466332	1
27	50778	85.741807380167	1
27	50837	85.841805296078	1
27	50896	85.941803214064	1
27	50958	86.041801134126	1
27	51017	86.141799056263	1
27	51076	86.241809980476	1
27	51135	86.341807906764	1
27	51194	86.441805835128	1
27	51253	86.541803765567	1
27	51312	86.641801698082	1
27	51371	86.741799632672	1
27	51430	86.841810569338	1
27	51489	86.941808508079	1
27	51551	87.041806448896	1
27	51610	87.141804391788	1
27	51669	87.241802336756	1
27	51728	87.341800283799	1
27	51787	87.441811232918	1
27	51846	87.541809184112	1
27	51905	87.641807137382	1
27	51964	87.741805092727	1
27	52023	87.841803050148	1
27	52082	87.941801009644	1
27	52144	88.041811971216	1
27	52203	88.141809934863	1
27	52262	88.241807900586	1
27	52321	88.341805868384	1
27	52380	88.441803838258	1
27	52439	88.541801810207	1
27	52498	88.641799784232	1
27	52557	88.741810760332	1
27	52616	88.841808738508	1
27	52675	88.941806718759	1
27	52737	89.041804701086	1
27	52796	89.141802685488	1
27	52855	89.241800671966	1
27	52914	89.341811660519	1
27	52973	89.441809651148	1
27	53032	89.541807643852	1
27	53091	89.641805638632	1
27	53150	89.741803635487	1
27	53209	89.841801634418	1
27	53268	89.941799635424	1
27	53330	90.041810638506	1
27	53389	90.141808643663	1
27	53448	90.241806650896	1
27	53507	90.341804660204	1
27	53566	90.441802671588	1
27	53625	90.541800685047	1
27	53684	90.641811700582	1
27	53743	90.741809718192	1
27	53802	90.841807737878	1
27	53861	90.941805759639	1
27	53923	91.041803783476	1
27	53982	91.141801809388	1
27	54041	91.241799837376	1
27	54100	91.341810867439	1
27	54159	91.441808899578	1
27	54218	91.541806933792	1
27	54277	91.641804970082	1
27	54336	91.741803008447	1
27	54395	91.841801048888	1
27	54454	91.941799091404	1
27	54516	92.041810135996	1
27	54575	92.141808182663	1
27	54634	92.241806231406	1
27	54693	92.341804282224	1
27	54752	92.441802335118	1
27	54811	92.541800390087	1
27	54870	92.641811447132	1
27	54929	92.741809506252	1
27	54988	92.841807567448	1
27	55047	92.941805630719	1
27	55109	93.041803696066	1
27	55168	93.141801763488	1
27	55227	93.241799832986	1
27	55286	93.341810904559	1
27	55345	93.441808978208	1
27	55404	93.541807053933	1
27	55463	93.641805131733	1
27	55522	93.741803211608	1
27	55581	93.841801293559	1
27	55640	93.941799377586	1
27	55702	94.041810463688	1
27	55761	94.141808551865	1
27	55820	94.241806642118	1
27	55879	94.341804734447	1
27	55938	94.441802828851	1
27	55997	94.54180092533	1
27	56056	94.641812023885	1
27	56115	94.741810124516	1
27	56174	94.841808227222	1
27	56233	94.941806332003	1
27	56295	95.04180443886	1
27	56354	95.141802547793	1
27	56413	95.241800658801	1
27	56472	95.341811771884	1
27	56531	95.441809887043	1
27	56590	95.541808004278	1
27	56649	95.641806123588	1
27	56708	95.741804244973	1
27	56767	95.841802368434	1
27	56826	95.941800493971	1
27	56888	96.041811621583	1
27	56947	96.14180975127	1
27	57006	96.241807883033	1
27	57065	96.341806016872	1
27	57124	96.441804152786	1
27	57183	96.541802290775	1
27	57242	96.64180043084	1
27	57301	96.741811572981	1
27	57360	96.841809717197	1
27	57419	96.941807863488	1
27	57481	97.041806011855	1
27	57540	97.141804162298	1
27	57599	97.241802314816	1
27	57658	97.341800469409	1
27	57717	97.441811626078	1
27	57776	97.541809784823	1
27	57835	97.641807945643	1
27	57894	97.741806108538	1
27	57953	97.841804273509	1
27	58012	97.941802440556	1
27	58074	98.041800609678	1
27	58133	98.141811780875	1
27	58192	98.241809954148	1
27	58251	98.341808129497	1
27	58310	98.441806306921	1
27	58369	98.54180448642	1
27	58428	98.641802667995	1
27	58487	98.741800851646	1
27	58546	98.841812037372	1
27	58605	98.941810225173	1
27	58667	99.04180841505	1
27	58726	99.141806607003	1
27	58785	99.241804801031	1
27	58844	99.341802997134	1
27	58903	99.441801195313	1
27	58962	99.541799395568	1
27	59021	99.641810597898	1
27	59080	99.741808802303	1
27	59139	99.841807008784	1
27	59198	99.941805217341	1
28	643	2	0
28	1236	3	0
28	1829	4	0
28	2422	5	0
28	3015	6	0
28	3608	7	0
28	4201	8	0
28	4794	9	0
28	5389	10	0
28	6020	11	0
28	6623	12	0
28	7226	13	0
28	7829	14	0
28	8432	15	0
28	9035	16	0
28	9638	17	0
28	10241	18	0
28	10844	19	0
28	11447	20	0
28	12050	21	0
28	12653	22	0
28	13256	23	0
28	13859	24	0
28	14462	25	0
28	15065	26	0
28	15668	27	0
28	16271	28	0
28	16874	29	0
28	17477	30	0
28	18080	31	0
28	18683	32	0
28	19286	33	0
28	19889	34	0
28	20492	35	0
28	21095	36	0
28	21698	37	0
28	22301	38	0
28	22904	39	0
28	23507	40	0
28	24110	41	0
28	24713	42	0
28	25316	43	0
28	25919	44	0
28	26522	45	0
28	27125	46	0
28	27728	47	0
28	28397	48	0
28	28990	49	0
28	29583	50	0
28	30176	51	0
28	30769	52	0
28	31362	53	0
28	31955	54	0
28	32548	55	0
28	33141	56	0
28	33734	57	0
28	34327	58	0
28	34920	59	0
28	35513	60	0
28	36106	61	0
28	36699	62	0
28	37292	63	0
28	37885	64	0
28	38478	65	0
28	39071	66	0
28	39664	67	0
28	40257	68	0
28	40850	69	0
28	41443	70	0
28	42036	71	0
28	42629	72	0
28	43222	73	0
28	43815	74	0
28	44408	75	0
28	45001	76	0
28	45594	77	0
28	46187	78	0
28	46780	79	0
28	47373	80	0
28	47966	81	0
28	48559	82	0
28	49152	83	0
28	49745	84	0
28	50338	85	0
28	50931	86	0
28	51524	87	0
28	52117	88	0
28	52710	89	0
28	53303	90	0
28	53896	91	0
28	54489	92	0
28	55082	93	0
28	55675	94	0
28	56268	95	0
28	56861	96	0
28	57454	97	0
28	58047	98	0
28	58640	99	0
28	59233	100	0
29	643	2	0.005625
29	1236	3	0.00625
29	1829	4	0.00625
29	2422	5	0.00625
29	3015	6	0.00625
29	3608	7	0.00625
29	4201	8	0.00625
29	4794	9	0.00625
29	5389	10	0.00625
29	6020	11	0.006299
29	6623	12	0.00625
29	7226	13	0.00625
29	7829	14	0.00625
29	8432	15	0.00625
29	9035	16	0.00625
29	9638	17	0.00625
29	10241	18	0.00625
29	10844	19	0.00625
29	11447	20	0.00625
29	12050	21	0.00625
29	12653	22	0.00625
29	13256	23	0.00625
29	13859	24	0.00625
29	14462	25	0.00625
29	15065	26	0.00625
29	15668	27	0.00625
29	16271	28	0.00625
29	16874	29	0.00625
29	17477	30	0.00625
29	18080	31	0.00625
29	18683	32	0.00625
29	19286	33	0.00625
29	19889	34	0.00625
29	20492	35	0.00625
29	21095	36	0.00625
29	21698	37	0.00625
29	22301	38	0.00625
29	22904	39	0.00625
29	23507	40	0.00625
29	24110	41	0.00625
29	24713	42	0.00625
29	25316	43	0.00625
29	25919	44	0.00625
29	26522	45	0.00625
29	27125	46	0.00625
29	27728	47	0.00625
29	28397	48	0.006539159448
29	28990	49	0.00625
29	29583	50	0.00625
29	30176	51	0.00625
29	30769	52	0.00625
29	31362	53	0.00625
29	31955	54	0.00625
29	32548	55	0.00625
29	33141	56	0.00625
29	33734	57	0.00625
29	34327	58	0.00625
29	34920	59	0.00625
29	35513	60	0.00625
29	36106	61	0.00625
29	36699	62	0.00625
29	37292	63	0.00625
29	37885	64	0.00625
29	38478	65	0.00625
29	39071	66	0.00625
29	39664	67	0.00625
29	40257	68	0.00625
29	40850	69	0.00625
29	41443	70	0.00625
29	42036	71	0.00625
29	42629	72	0.00625
29	43222	73	0.00625
29	43815	74	0.00625
29	44408	75	0.00625
29	45001	76	0.00625
29	45594	77	0.00625
29	46187	78	0.00625
29	46780	79	0.00625
29	47373	80	0.00625
29	47966	81	0.00625
29	48559	82	0.00625
29	49152	83	0.00625
29	49745	84	0.00625
29	50338	85	0.00625
29	50931	86	0.00625
29	51524	87	0.00625
29	52117	88	0.00625
29	52710	89	0.00625
29	53303	90	0.00625
29	53896	91	0.00625
29	54489	92	0.00625
29	55082	93	0.00625
29	55675	94	0.00625
29	56268	95	0.00625
29	56861	96	0.00625
29	57454	97	0.00625
29	58047	98	0.00625
29	58640	99	0.00625
29	59233	100	0.00625
30	643	2	0
30	1236	3	0
30	1829	4	0
30	2422	5	0
30	3015	6	0
30	3608	7	0
30	4201	8	0
30	4794	9	0
30	5389	10	0
30	6020	11	0
30	6623	12	0
30	7226	13	0
30	7829	14	0
30	8432	15	0
30	9035	16	0
30	9638	17	0
30	10241	18	0
30	10844	19	0
30	11447	20	0
30	12050	21	0
30	12653	22	0
30	13256	23	0
30	13859	24	0
30	14462	25	0
30	15065	26	0
30	15668	27	0
30	16271	28	0
30	16874	29	0
30	17477	30	0
30	18080	31	0
30	18683	32	0
30	19286	33	0
30	19889	34	0
30	20492	35	0
30	21095	36	0
30	21698	37	0
30	22301	38	0
30	22904	39	0
30	23507	40	0
30	24110	41	0
30	24713	42	0
30	25316	43	0
30	25919	44	0
30	26522	45	0
30	27125	46	0
30	27728	47	0
30	28397	48	0
30	28990	49	0
30	29583	50	0
30	30176	51	0
30	30769	52	0
30	31362	53	0
30	31955	54	0
30	32548	55	0
30	33141	56	0
30	33734	57	0
30	34327	58	0
30	34920	59	0
30	35513	60	0
30	36106	61	0
30	36699	62	0
30	37292	63	0
30	37885	64	0
30	38478	65	0
30	39071	66	0
30	39664	67	0
30	40257	68	0
30	40850	69	0
30	41443	70	0
30	42036	71	0
30	42629	72	0
30	43222	73	0
30	43815	74	0
30	44408	75	0
30	45001	76	0
30	45594	77	0
30	46187	78	0
30	46780	79	0
30	47373	80	0
30	47966	81	0
30	48559	82	0
30	49152	83	0
30	49745	84	0
30	50338	85	0
30	50931	86	0
30	51524	87	0
30	52117	88	0
30	52710	89	0
30	53303	90	0
30	53896	91	0
30	54489	92	0
30	55082	93	0
30	55675	94	0
30	56268	95	0
30	56861	96	0
30	57454	97	0
30	58047	98	0
30	58640	99	0
30	59233	100	0
31	644	2	1
31	1237	3	1
31	1830	4	1
31	2423	5	1
31	3016	6	1
31	3609	7	1
31	4202	8	1
31	4795	9	1
31	5390	10	1
31	6021	11	1
31	6624	12	1
31	7227	13	1
31	7830	14	1
31	8433	15	1
31	9036	16	1
31	9639	17	1
31	10242	18	1
31	10845	19	1
31	11448	20	1
31	12051	21	1
31	12654	22	1
31	13257	23	1
31	13860	24	1
31	14463	25	1
31	15066	26	1
31	15669	27	1
31	16272	28	1
31	16875	29	1
31	17478	30	1
31	18081	31	1
31	18684	32	1
31	19287	33	1
31	19890	34	1
31	20493	35	1
31	21096	36	1
31	21699	37	1
31	22302	38	1
31	22905	39	1
31	23508	40	1
31	24111	41	1
31	24714	42	1
31	25317	43	1
31	25920	44	1
31	26523	45	1
31	27126	46	1
31	27729	47	1
31	28398	48	1
31	28991	49	1
31	29584	50	1
31	30177	51	1
31	30770	52	1
31	31363	53	1
31	31956	54	1
31	32549	55	1
31	33142	56	1
31	33735	57	1
31	34328	58	1
31	34921	59	1
31	35514	60	1
31	36107	61	1
31	36700	62	1
31	37293	63	1
31	37886	64	1
31	38479	65	1
31	39072	66	1
31	39665	67	1
31	40258	68	1
31	40851	69	1
31	41444	70	1
31	42037	71	1
31	42630	72	1
31	43223	73	1
31	43816	74	1
31	44409	75	1
31	45002	76	1
31	45595	77	1
31	46188	78	1
31	46781	79	1
31	47374	80	1
31	47967	81	1
31	48560	82	1
31	49153	83	1
31	49746	84	1
31	50339	85	1
31	50932	86	1
31	51525	87	1
31	52118	88	1
31	52711	89	1
31	53304	90	1
31	53897	91	1
31	54490	92	1
31	55083	93	1
31	55676	94	1
31	56269	95	1
31	56862	96	1
31	57455	97	1
31	58048	98	1
31	58641	99	1
31	59234	100	1
32	644	2	0.005625
32	1237	3	0.00625
32	1830	4	0.00625
32	2423	5	0.00625
32	3016	6	0.00625
32	3609	7	0.00625
32	4202	8	0.00625
32	4795	9	0.00625
32	5390	10	0.00625
32	6021	11	0.006298
32	6624	12	0.00625
32	7227	13	0.00625
32	7830	14	0.00625
32	8433	15	0.00625
32	9036	16	0.00625
32	9639	17	0.00625
32	10242	18	0.00625
32	10845	19	0.00625
32	11448	20	0.00625
32	12051	21	0.00625
32	12654	22	0.00625
32	13257	23	0.00625
32	13860	24	0.00625
32	14463	25	0.00625
32	15066	26	0.00625
32	15669	27	0.00625
32	16272	28	0.00625
32	16875	29	0.00625
32	17478	30	0.00625
32	18081	31	0.00625
32	18684	32	0.00625
32	19287	33	0.00625
32	19890	34	0.00625
32	20493	35	0.00625
32	21096	36	0.00625
32	21699	37	0.00625
32	22302	38	0.00625
32	22905	39	0.00625
32	23508	40	0.00625
32	24111	41	0.00625
32	24714	42	0.00625
32	25317	43	0.00625
32	25920	44	0.00625
32	26523	45	0.00625
32	27126	46	0.00625
32	27729	47	0.00625
32	28398	48	0.006539159448
32	28991	49	0.00625
32	29584	50	0.00625
32	30177	51	0.00625
32	30770	52	0.00625
32	31363	53	0.00625
32	31956	54	0.00625
32	32549	55	0.00625
32	33142	56	0.00625
32	33735	57	0.00625
32	34328	58	0.00625
32	34921	59	0.00625
32	35514	60	0.00625
32	36107	61	0.00625
32	36700	62	0.00625
32	37293	63	0.00625
32	37886	64	0.00625
32	38479	65	0.00625
32	39072	66	0.00625
32	39665	67	0.00625
32	40258	68	0.00625
32	40851	69	0.00625
32	41444	70	0.00625
32	42037	71	0.00625
32	42630	72	0.00625
32	43223	73	0.00625
32	43816	74	0.00625
32	44409	75	0.00625
32	45002	76	0.00625
32	45595	77	0.00625
32	46188	78	0.00625
32	46781	79	0.00625
32	47374	80	0.00625
32	47967	81	0.00625
32	48560	82	0.00625
32	49153	83	0.00625
32	49746	84	0.00625
32	50339	85	0.00625
32	50932	86	0.00625
32	51525	87	0.00625
32	52118	88	0.00625
32	52711	89	0.00625
32	53304	90	0.00625
32	53897	91	0.00625
32	54490	92	0.00625
32	55083	93	0.00625
32	55676	94	0.00625
32	56269	95	0.00625
32	56862	96	0.00625
32	57455	97	0.00625
32	58048	98	0.00625
32	58641	99	0.00625
32	59234	100	0.00625
33	644	2	0
33	1237	3	0
33	1830	4	0
33	2423	5	0
33	3016	6	0
33	3609	7	0
33	4202	8	0
33	4795	9	0
33	5390	10	0
33	6021	11	0
33	6624	12	0
33	7227	13	0
33	7830	14	0
33	8433	15	0
33	9036	16	0
33	9639	17	0
33	10242	18	0
33	10845	19	0
33	11448	20	0
33	12051	21	0
33	12654	22	0
33	13257	23	0
33	13860	24	0
33	14463	25	0
33	15066	26	0
33	15669	27	0
33	16272	28	0
33	16875	29	0
33	17478	30	0
33	18081	31	0
33	18684	32	0
33	19287	33	0
33	19890	34	0
33	20493	35	0
33	21096	36	0
33	21699	37	0
33	22302	38	0
33	22905	39	0
33	23508	40	0
33	24111	41	0
33	24714	42	0
33	25317	43	0
33	25920	44	0
33	26523	45	0
33	27126	46	0
33	27729	47	0
33	28398	48	0
33	28991	49	0
33	29584	50	0
33	30177	51	0
33	30770	52	0
33	31363	53	0
33	31956	54	0
33	32549	55	0
33	33142	56	0
33	33735	57	0
33	34328	58	0
33	34921	59	0
33	35514	60	0
33	36107	61	0
33	36700	62	0
33	37293	63	0
33	37886	64	0
33	38479	65	0
33	39072	66	0
33	39665	67	0
33	40258	68	0
33	40851	69	0
33	41444	70	0
33	42037	71	0
33	42630	72	0
33	43223	73	0
33	43816	74	0
33	44409	75	0
33	45002	76	0
33	45595	77	0
33	46188	78	0
33	46781	79	0
33	47374	80	0
33	47967	81	0
33	48560	82	0
33	49153	83	0
33	49746	84	0
33	50339	85	0
33	50932	86	0
33	51525	87	0
33	52118	88	0
33	52711	89	0
33	53304	90	0
33	53897	91	0
33	54490	92	0
33	55083	93	0
33	55676	94	0
33	56269	95	0
33	56862	96	0
33	57455	97	0
33	58048	98	0
33	58641	99	0
33	59234	100	0
34	645	2	2
34	1238	3	2
34	1831	4	2
34	2424	5	2
34	3017	6	2
34	3610	7	2
34	4203	8	2
34	4796	9	2
34	5391	10	2
34	6022	11	2
34	6625	12	2
34	7228	13	2
34	7831	14	2
34	8434	15	2
34	9037	16	2
34	9640	17	2
34	10243	18	2
34	10846	19	2
34	11449	20	2
34	12052	21	2
34	12655	22	2
34	13258	23	2
34	13861	24	2
34	14464	25	2
34	15067	26	2
34	15670	27	2
34	16273	28	2
34	16876	29	2
34	17479	30	2
34	18082	31	2
34	18685	32	2
34	19288	33	2
34	19891	34	2
34	20494	35	2
34	21097	36	2
34	21700	37	2
34	22303	38	2
34	22906	39	2
34	23509	40	2
34	24112	41	2
34	24715	42	2
34	25318	43	2
34	25921	44	2
34	26524	45	2
34	27127	46	2
34	27730	47	2
34	28399	48	2
34	28992	49	2
34	29585	50	2
34	30178	51	2
34	30771	52	2
34	31364	53	2
34	31957	54	2
34	32550	55	2
34	33143	56	2
34	33736	57	2
34	34329	58	2
34	34922	59	2
34	35515	60	2
34	36108	61	2
34	36701	62	2
34	37294	63	2
34	37887	64	2
34	38480	65	2
34	39073	66	2
34	39666	67	2
34	40259	68	2
34	40852	69	2
34	41445	70	2
34	42038	71	2
34	42631	72	2
34	43224	73	2
34	43817	74	2
34	44410	75	2
34	45003	76	2
34	45596	77	2
34	46189	78	2
34	46782	79	2
34	47375	80	2
34	47968	81	2
34	48561	82	2
34	49154	83	2
34	49747	84	2
34	50340	85	2
34	50933	86	2
34	51526	87	2
34	52119	88	2
34	52712	89	2
34	53305	90	2
34	53898	91	2
34	54491	92	2
34	55084	93	2
34	55677	94	2
34	56270	95	2
34	56863	96	2
34	57456	97	2
34	58049	98	2
34	58642	99	2
34	59235	100	2
35	645	2	0.002817
35	1238	3	0.00313
35	1831	4	0.00313
35	2424	5	0.00313
35	3017	6	0.00313
35	3610	7	0.00313
35	4203	8	0.00313
35	4796	9	0.00313
35	5391	10	0.00313
35	6022	11	0.003179
35	6625	12	0.00313
35	7228	13	0.00313
35	7831	14	0.00313
35	8434	15	0.00313
35	9037	16	0.00313
35	9640	17	0.00313
35	10243	18	0.00313
35	10846	19	0.00313
35	11449	20	0.00313
35	12052	21	0.00313
35	12655	22	0.00313
35	13258	23	0.00313
35	13861	24	0.00313
35	14464	25	0.00313
35	15067	26	0.00313
35	15670	27	0.00313
35	16273	28	0.00313
35	16876	29	0.00313
35	17479	30	0.00313
35	18082	31	0.00313
35	18685	32	0.00313
35	19288	33	0.00313
35	19891	34	0.00313
35	20494	35	0.00313
35	21097	36	0.00313
35	21700	37	0.00313
35	22303	38	0.00313
35	22906	39	0.00313
35	23509	40	0.00313
35	24112	41	0.00313
35	24715	42	0.00313
35	25318	43	0.00313
35	25921	44	0.00313
35	26524	45	0.00313
35	27127	46	0.00313
35	27730	47	0.00313
35	28399	48	0.00313
35	28992	49	0.00313
35	29585	50	0.00313
35	30178	51	0.00313
35	30771	52	0.00313
35	31364	53	0.00313
35	31957	54	0.00313
35	32550	55	0.00313
35	33143	56	0.00313
35	33736	57	0.00313
35	34329	58	0.00313
35	34922	59	0.00313
35	35515	60	0.00313
35	36108	61	0.00313
35	36701	62	0.00313
35	37294	63	0.00313
35	37887	64	0.00313
35	38480	65	0.00313
35	39073	66	0.00313
35	39666	67	0.00313
35	40259	68	0.00313
35	40852	69	0.00313
35	41445	70	0.00313
35	42038	71	0.00313
35	42631	72	0.00313
35	43224	73	0.00313
35	43817	74	0.00313
35	44410	75	0.00313
35	45003	76	0.00313
35	45596	77	0.00313
35	46189	78	0.00313
35	46782	79	0.00313
35	47375	80	0.00313
35	47968	81	0.00313
35	48561	82	0.00313
35	49154	83	0.00313
35	49747	84	0.00313
35	50340	85	0.00313
35	50933	86	0.00313
35	51526	87	0.00313
35	52119	88	0.00313
35	52712	89	0.00313
35	53305	90	0.00313
35	53898	91	0.00313
35	54491	92	0.00313
35	55084	93	0.00313
35	55677	94	0.00313
35	56270	95	0.00313
35	56863	96	0.00313
35	57456	97	0.00313
35	58049	98	0.00313
35	58642	99	0.00313
35	59235	100	0.00313
36	645	2	0
36	1238	3	0
36	1831	4	0
36	2424	5	0
36	3017	6	0
36	3610	7	0
36	4203	8	0
36	4796	9	0
36	5391	10	0
36	6022	11	0
36	6625	12	0
36	7228	13	0
36	7831	14	0
36	8434	15	0
36	9037	16	0
36	9640	17	0
36	10243	18	0
36	10846	19	0
36	11449	20	0
36	12052	21	0
36	12655	22	0
36	13258	23	0
36	13861	24	0
36	14464	25	0
36	15067	26	0
36	15670	27	0
36	16273	28	0
36	16876	29	0
36	17479	30	0
36	18082	31	0
36	18685	32	0
36	19288	33	0
36	19891	34	0
36	20494	35	0
36	21097	36	0
36	21700	37	0
36	22303	38	0
36	22906	39	0
36	23509	40	0
36	24112	41	0
36	24715	42	0
36	25318	43	0
36	25921	44	0
36	26524	45	0
36	27127	46	0
36	27730	47	0
36	28399	48	0
36	28992	49	0
36	29585	50	0
36	30178	51	0
36	30771	52	0
36	31364	53	0
36	31957	54	0
36	32550	55	0
36	33143	56	0
36	33736	57	0
36	34329	58	0
36	34922	59	0
36	35515	60	0
36	36108	61	0
36	36701	62	0
36	37294	63	0
36	37887	64	0
36	38480	65	0
36	39073	66	0
36	39666	67	0
36	40259	68	0
36	40852	69	0
36	41445	70	0
36	42038	71	0
36	42631	72	0
36	43224	73	0
36	43817	74	0
36	44410	75	0
36	45003	76	0
36	45596	77	0
36	46189	78	0
36	46782	79	0
36	47375	80	0
36	47968	81	0
36	48561	82	0
36	49154	83	0
36	49747	84	0
36	50340	85	0
36	50933	86	0
36	51526	87	0
36	52119	88	0
36	52712	89	0
36	53305	90	0
36	53898	91	0
36	54491	92	0
36	55084	93	0
36	55677	94	0
36	56270	95	0
36	56863	96	0
36	57456	97	0
36	58049	98	0
36	58642	99	0
36	59235	100	0

