file 776121 1720624383                                          
version 3
run BreakRanksNoGui-800-20240710-17:13:00-270279
attr configname BreakRanksNoGui
attr datetime 20240710-17:13:00
attr datetimef 20240710-171300
attr experiment BreakRanksNoGui
attr inifile omnetpp.ini
attr iterationvars "$nCars=3, $platoonSize=3, $nLanes=1, $ploegH=0.5, $controller=1, $headway=0.1, $leaderHeadway=1.2, $leaderSpeed=130, $breakRanksSafetyDistance=2, $minSpeed=120, $maxSpeed=140, $beaconInterval=0.1, $priority=4, $packetSize=200, $sController=\"CACC\", $0=2, $1=0"
attr iterationvarsd nCars=3/platoonSize=3/nLanes=1/ploegH=0.5/controller=1/headway=0.1/leaderHeadway=1.2/leaderSpeed=130/breakRanksSafetyDistance=2/minSpeed=120/maxSpeed=140/beaconInterval=0.1/priority=4/packetSize=200/sController=CACC/2/0
attr iterationvarsf nCars=3,platoonSize=3,nLanes=1,ploegH=0.5,controller=1,headway=0.1,leaderHeadway=1.2,leaderSpeed=130,breakRanksSafetyDistance=2,minSpeed=120,maxSpeed=140,beaconInterval=0.1,priority=4,packetSize=200,sController=CACC,2,0-
attr measurement "$nCars=3, $platoonSize=3, $nLanes=1, $ploegH=0.5, $controller=1, $headway=0.1, $leaderHeadway=1.2, $leaderSpeed=130, $breakRanksSafetyDistance=2, $minSpeed=120, $maxSpeed=140, $beaconInterval=0.1, $priority=4, $packetSize=200, $sController=\"CACC\", $0=2, $1=0"
attr network Highway
attr processid 270279
attr repetition 0
attr replication #0
attr resultdir results
attr runnumber 800
attr seedset 0
itervar beaconInterval 0.1
itervar breakRanksSafetyDistance 2
itervar controller 1
itervar headway 0.1
itervar leaderHeadway 1.2
itervar leaderSpeed 130
itervar maxSpeed 140
itervar minSpeed 120
itervar nCars 3
itervar nLanes 1
itervar packetSize 200
itervar platoonSize 3
itervar ploegH 0.5
itervar priority 4
itervar sController "\"CACC\""
config image-path ../../../veins/images
config repeat 10
config extends BreakRanks
config *.manager.command "\"sumo\""
config *.manager.ignoreGuiCommands true
config output-vector-file "results/BreakRanks_1_0.1_130_2_3 /result_0.vec"
config output-scalar-file "results/BreakRanks_1_0.1_130_2_3 /result_0.sca"
config extends Platooning
config *.node[*].scenario_type "\"BreakRanksScenario\""
config *.manager.command "\"sumo-gui\""
config *.node[*].scenario_type "\"SimpleScenario\""
config cmdenv-express-mode true
config cmdenv-autoflush true
config cmdenv-status-frequency 15s
config num-rngs 6
config network Highway
config debug-on-errors true
config print-undisposed true
config *.playgroundSizeX 65000m
config *.playgroundSizeY 25000m
config *.playgroundSizeZ 50m
config sim-time-limit "100 s"
config *.annotations.draw false
config *.obstacles.debug false
config *.world.useTorus false
config *.world.use2D false
config *.manager.updateInterval 0.01s
config *.manager.host "\"localhost\""
config *.manager.moduleType "\"org.car2x.plexe.PlatoonCar\""
config *.manager.moduleName "\"node\""
config *.manager.moduleDisplayString "\"\""
config *.manager.autoShutdown true
config *.manager.margin 25
config *.connectionManager.sendDirect true
config *.connectionManager.maxInterfDist 2600m
config *.connectionManager.drawMaxIntfDist false
config *.**.nic.mac1609_4.useServiceChannel false
config *.**.nic.mac1609_4.txPower 100mW
config *.**.nic.mac1609_4.bitrate 6Mbps
config *.**.nic.mac1609_4.useAcks true
config *.**.nic.mac1609_4.ackErrorRate 0.0
config *.**.nic.mac1609_4.frameErrorRate 0.0
config *.**.nic.phy80211p.minPowerLevel -94dBm
config *.**.nic.phy80211p.maxTXPower 100mW
config *.**.nic.phy80211p.useNoiseFloor true
config *.**.nic.phy80211p.noiseFloor -95dBm
config *.**.nic.phy80211p.decider "xmldoc(\"config.xml\")"
config *.**.nic.phy80211p.analogueModels "xmldoc(\"config.xml\")"
config *.**.nic.phy80211p.usePropagationDelay true
config *.node[*].mobility.x 0
config *.node[*].mobility.y 0
config *.node[*].mobility.z 1.895
config seed-set 0
config **.seed 0
config *.node[*].prot.rng-0 2
config *.node[*].appl.rng-0 3
config *.node[*].scenario.rng-0 4
config **.traffic.rng-0 5
config *.manager.configFile "\"./sumocfg/freeway.sumo.cfg\""
config *.manager.launchConfig "xmldoc(\"./sumocfg/freeway.launchd.xml\")"
config **.numberOfCars 3
config **.numberOfCarsPerPlatoon 3
config **.numberOfLanes 1
config *.node[*].helper_type "\"PositionHelper\""
config *.node[*].scenario.caccC1 0.5
config *.node[*].scenario.caccXi 1
config *.node[*].scenario.caccOmegaN "0.2 Hz"
config *.node[*].scenario.caccSpacing "2 m"
config *.node[*].scenario.engineTau "0.5 s"
config *.node[*].scenario.ploegH 0.5s
config *.node[*].scenario.ploegKp 0.2
config *.node[*].scenario.ploegKd 0.7
config *.node[*].scenario.useRealisticEngine false
config *.node[*].scenario.useControllerAcceleration true
config *.node[*].scenario.nLanes 1
config **.numericController 1
config **.headway 0.1s
config *.node[*].scenario.accHeadway 0.1s
config *.node[*].scenario.leaderHeadway 1.2s
config *.node[*].scenario.leaderSpeed 130kmph
config *.node[*].appl_type "\"SimplePlatooningApp\""
config *.node[*].appl.*.scalar-recording true
config *.node[*].appl.*.vector-recording true
config *.node[0].appl.breakRanksSafetyDistance 2m
config *.node[*].appl.minSpeed 120kmph
config *.node[*].appl.maxSpeed 140kmph
config *.node[*].protocol_type "\"SimplePlatooningBeaconing\""
config *.node[*].prot.*.scalar-recording true
config *.node[*].prot.*.vector-recording true
config *.node[*].prot.beaconingInterval 0.1s
config *.node[*].prot.priority 4
config *.node[*].prot.packetSize 200
config **.traffic_type "\"PlatoonsTrafficManager\""
config **.traffic.platoonInsertTime "1 s"
config **.traffic.platoonInsertSpeed 130kmph
config **.traffic.nCars 3
config **.traffic.platoonSize 3
config **.traffic.nLanes 1
config **.traffic.platooningVType "\"vtypeauto\""
config **.traffic.controller "\"CACC\""
config **.traffic.platoonInsertDistance 2m
config **.traffic.platoonInsertHeadway 0s
config **.traffic.platoonLeaderHeadway 1.2s
config **.scalar-recording false
config **.vector-recording false

vector 0 Highway.node[0].appl distance ETV
vector 1 Highway.node[0].appl relativeSpeed ETV
vector 2 Highway.node[0].appl nodeId ETV
vector 3 Highway.node[0].appl acceleration ETV
vector 4 Highway.node[0].appl controllerAcceleration ETV
vector 5 Highway.node[0].appl speed ETV
vector 6 Highway.node[0].appl posx ETV
vector 7 Highway.node[0].appl posy ETV
vector 8 Highway.node[1].appl distance ETV
vector 9 Highway.node[1].appl relativeSpeed ETV
vector 10 Highway.node[1].appl nodeId ETV
vector 11 Highway.node[1].appl acceleration ETV
vector 12 Highway.node[1].appl controllerAcceleration ETV
vector 13 Highway.node[1].appl speed ETV
vector 14 Highway.node[1].appl posx ETV
vector 15 Highway.node[1].appl posy ETV
vector 16 Highway.node[2].appl distance ETV
vector 17 Highway.node[2].appl relativeSpeed ETV
vector 18 Highway.node[2].appl nodeId ETV
vector 19 Highway.node[2].appl acceleration ETV
vector 20 Highway.node[2].appl controllerAcceleration ETV
vector 21 Highway.node[2].appl speed ETV
vector 22 Highway.node[2].appl posx ETV
vector 23 Highway.node[2].appl posy ETV
vector 24 Highway.node[2].prot frontDelay ETV
vector 25 Highway.node[2].prot frontDelayId ETV
vector 26 Highway.node[1].prot leaderDelay ETV
vector 27 Highway.node[1].prot leaderDelayId ETV
vector 28 Highway.node[1].prot frontDelay ETV
vector 29 Highway.node[1].prot frontDelayId ETV
vector 30 Highway.node[2].prot leaderDelay ETV
vector 31 Highway.node[2].prot leaderDelayId ETV
vector 32 Highway.node[0].prot nodeId ETV
vector 33 Highway.node[0].prot busyTime ETV
vector 34 Highway.node[0].prot collisions ETV
vector 35 Highway.node[1].prot nodeId ETV
vector 36 Highway.node[1].prot busyTime ETV
vector 37 Highway.node[1].prot collisions ETV
vector 38 Highway.node[2].prot nodeId ETV
vector 39 Highway.node[2].prot busyTime ETV
vector 40 Highway.node[2].prot collisions ETV
0	7761 16608 113 90532 1.11 99.91 989 -1 -1 -989 989
1	24369 15619 113 90532 1.11 99.91 989 0 0 0 0
2	39988 15619 113 90532 1.11 99.91 989 0 0 0 0
3	55607 17907 113 90532 1.11 99.91 989 -3.14892e-05 0.000707784 0.010991577126781 6.0508064149601e-06
4	73514 25565 113 90532 1.11 99.91 989 -4.89399e-05 0.00109259 0.010614843047836 8.6815283230331e-06
5	99079 21546 113 90532 1.11 99.91 989 36.11 36.1111 35713.866699999 1289666.6073546
6	120625 21415 113 90532 1.11 99.91 989 23.6899 3591.47 1787693.8569 4282602306.9052
7	142040 20564 113 90532 1.11 99.91 989 242.45 242.45 239783.05 58135400.472499
8	162604 18815 114 90533 1.11 99.91 989 -1 66.3947 17075.78067 884324.75846606
9	181419 17397 114 90533 1.11 99.91 989 -1.58028e-05 1.13061 362.86825197172 366.02254801598
10	198816 16608 114 90533 1.11 99.91 989 1 1 989 989
11	215424 23656 114 90533 1.11 99.91 989 -1.25478 0.0790399 -21.058912682727 20.620326054383
12	239080 26404 114 90533 1.11 99.91 989 -1.5 0.10139 -20.255641412706 26.97576621197
13	265484 19060 114 90533 1.11 99.91 989 33.8694 36.1111 33835.8846 1157993.161032
14	284544 22486 114 90533 1.11 99.91 989 17.6899 3397.77 1698385.1793 3851643978.1602
15	307030 21553 114 90533 1.11 99.91 989 242.45 245.75 241561.75 59003761.812499
16	328583 22414 115 90534 1.11 99.91 989 2 119.298 61993.33455 5056888.2000813
17	350997 22199 115 90534 1.11 99.91 989 0 3.19811 1113.5343223058 1536.1575755188
18	373196 16608 115 90534 1.11 99.91 989 2 2 1978 3956
19	389804 21125 115 90534 1.11 99.91 989 -2.02229 0.353913 -11.044859517999 53.659458175626
20	410929 26142 115 90534 1.11 99.91 989 -3.08597 0.399175 -9.6499804395711 74.75702166892
21	437071 18975 115 90534 1.11 99.91 989 32.913 36.1111 34600.3303 1210780.7185574
22	456046 22506 115 90534 1.11 99.91 989 11.6899 3468.17 1721206.3253 3979712801.8983
23	478552 21553 115 90534 1.11 99.91 989 242.45 242.45 239783.05 58135400.472499
24	500105 39129 259 90581 1.229644120084 99.929647627466 988 0.099991080056 0.100005291798 98.800007587438 9.8800015555281
25	539234 26381 259 90581 1.229644120084 99.929647627466 988 2 2 1976 3952
26	565615 39113 282 90616 1.254481140098 99.95448568526 988 0.099991080056 0.100005292873 98.800008625218 9.8800017630769
27	604728 26349 282 90616 1.254481140098 99.95448568526 988 1 1 988 988
28	631077 39113 282 90616 1.254481140098 99.95448568526 988 0.099991080056 0.100005292873 98.800008625218 9.8800017630769
29	670190 26349 282 90616 1.254481140098 99.95448568526 988 1 1 988 988
30	696539 39100 288 90610 1.254481160112 99.954485450281 988 0.099991080056 0.100005292538 98.800008370225 9.8800017120783
31	735639 26363 288 90610 1.254481160112 99.954485450281 988 2 2 1976 3952
32	762002 1368 931 90622 2 100 99 0 0 0 0
33	763370 1970 931 90622 2 100 99 0.008433 0.009997120086 0.927320120086 0.0086873571990139
34	765340 1368 931 90622 2 100 99 0 0 0 0
35	766708 1368 932 90623 2 100 99 1 1 99 99
36	768076 1970 932 90623 2 100 99 0.008433 0.009931040028 0.927254040028 0.0086860403450377
37	770046 1368 932 90623 2 100 99 0 0 0 0
38	771414 1368 933 90624 2 100 99 2 2 198 396
39	772782 1970 933 90624 2 100 99 0.008433 0.009964120086 0.927287120086 0.0086866984780882
40	774752 1368 933 90624 2 100 99 0 0 0 0

