version 3
run BreakRanksNoGui-82-20240710-15:10:30-258875
attr configname BreakRanksNoGui
attr datetime 20240710-15:10:30
attr datetimef 20240710-151030
attr experiment BreakRanksNoGui
attr inifile omnetpp.ini
attr iterationvars "$nCars=3, $platoonSize=3, $nLanes=1, $ploegH=0.5, $controller=1, $headway=0.1, $leaderHeadway=1.2, $leaderSpeed=110, $breakRanksSafetyDistance=2, $minSpeed=100, $maxSpeed=120, $beaconInterval=0.1, $priority=4, $packetSize=200, $sController=\"CACC\", $0=2, $1=0"
attr iterationvarsd nCars=3/platoonSize=3/nLanes=1/ploegH=0.5/controller=1/headway=0.1/leaderHeadway=1.2/leaderSpeed=110/breakRanksSafetyDistance=2/minSpeed=100/maxSpeed=120/beaconInterval=0.1/priority=4/packetSize=200/sController=CACC/2/0
attr iterationvarsf nCars=3,platoonSize=3,nLanes=1,ploegH=0.5,controller=1,headway=0.1,leaderHeadway=1.2,leaderSpeed=110,breakRanksSafetyDistance=2,minSpeed=100,maxSpeed=120,beaconInterval=0.1,priority=4,packetSize=200,sController=CACC,2,0-
attr measurement "$nCars=3, $platoonSize=3, $nLanes=1, $ploegH=0.5, $controller=1, $headway=0.1, $leaderHeadway=1.2, $leaderSpeed=110, $breakRanksSafetyDistance=2, $minSpeed=100, $maxSpeed=120, $beaconInterval=0.1, $priority=4, $packetSize=200, $sController=\"CACC\", $0=2, $1=0"
attr network Highway
attr processid 258875
attr repetition 2
attr replication #2
attr resultdir results
attr runnumber 82
attr seedset 2
itervar beaconInterval 0.1
itervar breakRanksSafetyDistance 2
itervar controller 1
itervar headway 0.1
itervar leaderHeadway 1.2
itervar leaderSpeed 110
itervar maxSpeed 120
itervar minSpeed 100
itervar nCars 3
itervar nLanes 1
itervar packetSize 200
itervar platoonSize 3
itervar ploegH 0.5
itervar priority 4
itervar sController "\"CACC\""
config image-path ../../../veins/images
config repeat 10
config extends BreakRanks
config *.manager.command "\"sumo\""
config *.manager.ignoreGuiCommands true
config output-vector-file "results/BreakRanks_1_0.1_110_2_3 /result_2.vec"
config output-scalar-file "results/BreakRanks_1_0.1_110_2_3 /result_2.sca"
config extends Platooning
config *.node[*].scenario_type "\"BreakRanksScenario\""
config *.manager.command "\"sumo-gui\""
config *.node[*].scenario_type "\"SimpleScenario\""
config cmdenv-express-mode true
config cmdenv-autoflush true
config cmdenv-status-frequency 15s
config num-rngs 6
config network Highway
config debug-on-errors true
config print-undisposed true
config *.playgroundSizeX 65000m
config *.playgroundSizeY 25000m
config *.playgroundSizeZ 50m
config sim-time-limit "100 s"
config *.annotations.draw false
config *.obstacles.debug false
config *.world.useTorus false
config *.world.use2D false
config *.manager.updateInterval 0.01s
config *.manager.host "\"localhost\""
config *.manager.moduleType "\"org.car2x.plexe.PlatoonCar\""
config *.manager.moduleName "\"node\""
config *.manager.moduleDisplayString "\"\""
config *.manager.autoShutdown true
config *.manager.margin 25
config *.connectionManager.sendDirect true
config *.connectionManager.maxInterfDist 2600m
config *.connectionManager.drawMaxIntfDist false
config *.**.nic.mac1609_4.useServiceChannel false
config *.**.nic.mac1609_4.txPower 100mW
config *.**.nic.mac1609_4.bitrate 6Mbps
config *.**.nic.mac1609_4.useAcks true
config *.**.nic.mac1609_4.ackErrorRate 0.0
config *.**.nic.mac1609_4.frameErrorRate 0.0
config *.**.nic.phy80211p.minPowerLevel -94dBm
config *.**.nic.phy80211p.maxTXPower 100mW
config *.**.nic.phy80211p.useNoiseFloor true
config *.**.nic.phy80211p.noiseFloor -95dBm
config *.**.nic.phy80211p.decider "xmldoc(\"config.xml\")"
config *.**.nic.phy80211p.analogueModels "xmldoc(\"config.xml\")"
config *.**.nic.phy80211p.usePropagationDelay true
config *.node[*].mobility.x 0
config *.node[*].mobility.y 0
config *.node[*].mobility.z 1.895
config seed-set 2
config **.seed 2
config *.node[*].prot.rng-0 2
config *.node[*].appl.rng-0 3
config *.node[*].scenario.rng-0 4
config **.traffic.rng-0 5
config *.manager.configFile "\"./sumocfg/freeway.sumo.cfg\""
config *.manager.launchConfig "xmldoc(\"./sumocfg/freeway.launchd.xml\")"
config **.numberOfCars 3
config **.numberOfCarsPerPlatoon 3
config **.numberOfLanes 1
config *.node[*].helper_type "\"PositionHelper\""
config *.node[*].scenario.caccC1 0.5
config *.node[*].scenario.caccXi 1
config *.node[*].scenario.caccOmegaN "0.2 Hz"
config *.node[*].scenario.caccSpacing "2 m"
config *.node[*].scenario.engineTau "0.5 s"
config *.node[*].scenario.ploegH 0.5s
config *.node[*].scenario.ploegKp 0.2
config *.node[*].scenario.ploegKd 0.7
config *.node[*].scenario.useRealisticEngine false
config *.node[*].scenario.useControllerAcceleration true
config *.node[*].scenario.nLanes 1
config **.numericController 1
config **.headway 0.1s
config *.node[*].scenario.accHeadway 0.1s
config *.node[*].scenario.leaderHeadway 1.2s
config *.node[*].scenario.leaderSpeed 110kmph
config *.node[*].appl_type "\"SimplePlatooningApp\""
config *.node[*].appl.*.scalar-recording true
config *.node[*].appl.*.vector-recording true
config *.node[0].appl.breakRanksSafetyDistance 2m
config *.node[*].appl.minSpeed 100kmph
config *.node[*].appl.maxSpeed 120kmph
config *.node[*].protocol_type "\"SimplePlatooningBeaconing\""
config *.node[*].prot.*.scalar-recording true
config *.node[*].prot.*.vector-recording true
config *.node[*].prot.beaconingInterval 0.1s
config *.node[*].prot.priority 4
config *.node[*].prot.packetSize 200
config **.traffic_type "\"PlatoonsTrafficManager\""
config **.traffic.platoonInsertTime "1 s"
config **.traffic.platoonInsertSpeed 110kmph
config **.traffic.nCars 3
config **.traffic.platoonSize 3
config **.traffic.nLanes 1
config **.traffic.platooningVType "\"vtypeauto\""
config **.traffic.controller "\"CACC\""
config **.traffic.platoonInsertDistance 2m
config **.traffic.platoonInsertHeadway 0s
config **.traffic.platoonLeaderHeadway 1.2s
config **.scalar-recording false
config **.vector-recording false

vector 0 Highway.node[0].appl distance ETV
vector 1 Highway.node[0].appl relativeSpeed ETV
vector 2 Highway.node[0].appl nodeId ETV
vector 3 Highway.node[0].appl acceleration ETV
vector 4 Highway.node[0].appl controllerAcceleration ETV
vector 5 Highway.node[0].appl speed ETV
vector 6 Highway.node[0].appl posx ETV
vector 7 Highway.node[0].appl posy ETV
vector 8 Highway.node[1].appl distance ETV
vector 9 Highway.node[1].appl relativeSpeed ETV
vector 10 Highway.node[1].appl nodeId ETV
vector 11 Highway.node[1].appl acceleration ETV
vector 12 Highway.node[1].appl controllerAcceleration ETV
vector 13 Highway.node[1].appl speed ETV
vector 14 Highway.node[1].appl posx ETV
vector 15 Highway.node[1].appl posy ETV
vector 16 Highway.node[2].appl distance ETV
vector 17 Highway.node[2].appl relativeSpeed ETV
vector 18 Highway.node[2].appl nodeId ETV
vector 19 Highway.node[2].appl acceleration ETV
vector 20 Highway.node[2].appl controllerAcceleration ETV
vector 21 Highway.node[2].appl speed ETV
vector 22 Highway.node[2].appl posx ETV
vector 23 Highway.node[2].appl posy ETV
vector 24 Highway.node[1].prot leaderDelay ETV
vector 25 Highway.node[1].prot leaderDelayId ETV
vector 26 Highway.node[1].prot frontDelay ETV
vector 27 Highway.node[1].prot frontDelayId ETV
vector 28 Highway.node[2].prot leaderDelay ETV
vector 29 Highway.node[2].prot leaderDelayId ETV
vector 30 Highway.node[2].prot frontDelay ETV
vector 31 Highway.node[2].prot frontDelayId ETV
vector 32 Highway.node[0].prot nodeId ETV
vector 33 Highway.node[0].prot busyTime ETV
vector 34 Highway.node[0].prot collisions ETV
vector 35 Highway.node[1].prot nodeId ETV
vector 36 Highway.node[1].prot busyTime ETV
vector 37 Highway.node[1].prot collisions ETV
vector 38 Highway.node[2].prot nodeId ETV
vector 39 Highway.node[2].prot busyTime ETV
vector 40 Highway.node[2].prot collisions ETV
0	113	1.11	-1
0	204	1.21	-1
0	295	1.31	-1
0	386	1.41	-1
0	477	1.51	-1
0	568	1.61	-1
0	659	1.71	-1
0	750	1.81	-1
0	841	1.91	-1
0	935	2.01	-1
0	1026	2.11	-1
0	1117	2.21	-1
0	1208	2.31	-1
0	1299	2.41	-1
0	1390	2.51	-1
0	1481	2.61	-1
0	1572	2.71	-1
0	1663	2.81	-1
0	1754	2.91	-1
0	1848	3.01	-1
0	1939	3.11	-1
0	2030	3.21	-1
0	2121	3.31	-1
0	2212	3.41	-1
0	2303	3.51	-1
0	2394	3.61	-1
0	2485	3.71	-1
0	2576	3.81	-1
0	2667	3.91	-1
0	2761	4.01	-1
0	2852	4.11	-1
0	2943	4.21	-1
0	3034	4.31	-1
0	3125	4.41	-1
0	3216	4.51	-1
0	3307	4.61	-1
0	3398	4.71	-1
0	3489	4.81	-1
0	3580	4.91	-1
0	3674	5.01	-1
0	3765	5.11	-1
0	3856	5.21	-1
0	3947	5.31	-1
0	4038	5.41	-1
0	4129	5.51	-1
0	4220	5.61	-1
0	4311	5.71	-1
0	4402	5.81	-1
0	4493	5.91	-1
0	4587	6.01	-1
0	4678	6.11	-1
0	4769	6.21	-1
0	4860	6.31	-1
0	4951	6.41	-1
0	5042	6.51	-1
0	5133	6.61	-1
0	5224	6.71	-1
0	5315	6.81	-1
0	5406	6.91	-1
0	5500	7.01	-1
0	5591	7.11	-1
0	5682	7.21	-1
0	5773	7.31	-1
0	5864	7.41	-1
0	5955	7.51	-1
0	6046	7.61	-1
0	6137	7.71	-1
0	6228	7.81	-1
0	6319	7.91	-1
0	6413	8.01	-1
0	6504	8.11	-1
0	6595	8.21	-1
0	6686	8.31	-1
0	6777	8.41	-1
0	6868	8.51	-1
0	6959	8.61	-1
0	7050	8.71	-1
0	7141	8.81	-1
0	7232	8.91	-1
0	7326	9.01	-1
0	7417	9.11	-1
0	7508	9.21	-1
0	7599	9.31	-1
0	7690	9.41	-1
0	7781	9.51	-1
0	7872	9.61	-1
0	7963	9.71	-1
0	8054	9.81	-1
0	8145	9.91	-1
0	8456	10.01	-1
0	8547	10.11	-1
0	8638	10.21	-1
0	8729	10.31	-1
0	8820	10.41	-1
0	8911	10.51	-1
0	9002	10.61	-1
0	9093	10.71	-1
0	9184	10.81	-1
0	9275	10.91	-1
0	9369	11.01	-1
0	9460	11.11	-1
0	9551	11.21	-1
0	9642	11.31	-1
0	9733	11.41	-1
0	9824	11.51	-1
0	9915	11.61	-1
0	10006	11.71	-1
0	10097	11.81	-1
0	10188	11.91	-1
0	10282	12.01	-1
0	10373	12.11	-1
0	10464	12.21	-1
0	10555	12.31	-1
0	10646	12.41	-1
0	10737	12.51	-1
0	10828	12.61	-1
0	10919	12.71	-1
0	11010	12.81	-1
0	11101	12.91	-1
0	11195	13.01	-1
0	11286	13.11	-1
0	11377	13.21	-1
0	11468	13.31	-1
0	11559	13.41	-1
0	11650	13.51	-1
0	11741	13.61	-1
0	11832	13.71	-1
0	11923	13.81	-1
0	12014	13.91	-1
0	12108	14.01	-1
0	12199	14.11	-1
0	12290	14.21	-1
0	12381	14.31	-1
0	12472	14.41	-1
0	12563	14.51	-1
0	12654	14.61	-1
0	12745	14.71	-1
0	12836	14.81	-1
0	12927	14.91	-1
0	13021	15.01	-1
0	13112	15.11	-1
0	13203	15.21	-1
0	13294	15.31	-1
0	13385	15.41	-1
0	13476	15.51	-1
0	13567	15.61	-1
0	13658	15.71	-1
0	13749	15.81	-1
0	13840	15.91	-1
0	13934	16.01	-1
0	14025	16.11	-1
0	14116	16.21	-1
0	14207	16.31	-1
0	14298	16.41	-1
0	14389	16.51	-1
0	14480	16.61	-1
0	14571	16.71	-1
0	14662	16.81	-1
0	14753	16.91	-1
0	14847	17.01	-1
0	14938	17.11	-1
0	15029	17.21	-1
0	15120	17.31	-1
0	15211	17.41	-1
0	15302	17.51	-1
0	15393	17.61	-1
0	15484	17.71	-1
0	15575	17.81	-1
0	15666	17.91	-1
0	15760	18.01	-1
0	15851	18.11	-1
0	15942	18.21	-1
0	16033	18.31	-1
0	16124	18.41	-1
0	16215	18.51	-1
0	16306	18.61	-1
0	16397	18.71	-1
0	16488	18.81	-1
0	16579	18.91	-1
0	16673	19.01	-1
0	16764	19.11	-1
0	16855	19.21	-1
0	16946	19.31	-1
0	17037	19.41	-1
0	17128	19.51	-1
0	17219	19.61	-1
0	17310	19.71	-1
0	17401	19.81	-1
0	17492	19.91	-1
0	17586	20.01	-1
0	17677	20.11	-1
0	17768	20.21	-1
0	17859	20.31	-1
0	17950	20.41	-1
0	18041	20.51	-1
0	18132	20.61	-1
0	18223	20.71	-1
0	18314	20.81	-1
0	18405	20.91	-1
0	18499	21.01	-1
0	18590	21.11	-1
0	18681	21.21	-1
0	18772	21.31	-1
0	18863	21.41	-1
0	18954	21.51	-1
0	19045	21.61	-1
0	19136	21.71	-1
0	19227	21.81	-1
0	19318	21.91	-1
0	19412	22.01	-1
0	19503	22.11	-1
0	19594	22.21	-1
0	19685	22.31	-1
0	19776	22.41	-1
0	19867	22.51	-1
0	19958	22.61	-1
0	20049	22.71	-1
0	20140	22.81	-1
0	20231	22.91	-1
0	20325	23.01	-1
0	20416	23.11	-1
0	20507	23.21	-1
0	20598	23.31	-1
0	20689	23.41	-1
0	20780	23.51	-1
0	20871	23.61	-1
0	20962	23.71	-1
0	21053	23.81	-1
0	21144	23.91	-1
0	21238	24.01	-1
0	21329	24.11	-1
0	21420	24.21	-1
0	21511	24.31	-1
0	21602	24.41	22.0671
0	21693	24.51	22.3116
0	21784	24.61	22.556
0	21875	24.71	22.8005
0	21966	24.81	23.0449
0	22057	24.91	23.2893
0	22151	25.01	23.5338
0	22242	25.11	23.7782
0	22333	25.21	24.0227
0	22424	25.31	24.2671
0	22515	25.41	24.5115
0	22606	25.51	24.756
0	22697	25.61	25.0004
0	22788	25.71	25.2449
0	22879	25.81	25.4893
0	22970	25.91	25.7337
0	23064	26.01	25.9782
0	23155	26.11	26.2226
0	23246	26.21	26.4671
0	23337	26.31	26.7115
0	23428	26.41	26.9559
0	23519	26.51	27.2004
0	23610	26.61	27.4448
0	23701	26.71	27.6893
0	23792	26.81	27.9337
0	23883	26.91	28.1781
0	23977	27.01	28.4226
0	24068	27.11	28.667
0	24159	27.21	28.9115
0	24250	27.31	29.1559
0	24341	27.41	29.4003
0	24432	27.51	29.6448
0	24523	27.61	29.8892
0	24614	27.71	30.1337
0	24705	27.81	30.3781
0	24796	27.91	30.6225
0	24890	28.01	30.867
0	24981	28.11	31.1114
0	25072	28.21	31.3559
0	25163	28.31	31.6003
0	25254	28.41	31.8447
0	25345	28.51	32.0892
0	25436	28.61	32.3336
0	25527	28.71	32.5781
0	25618	28.81	32.8225
0	25709	28.91	33.0669
0	25803	29.01	33.3114
0	25894	29.11	33.5558
0	25985	29.21	33.8003
0	26076	29.31	34.0447
0	26167	29.41	34.2891
0	26258	29.51	34.5336
0	26349	29.61	34.778
0	26440	29.71	35.0225
0	26531	29.81	35.2669
0	26622	29.91	35.5113
0	26716	30.01	35.7558
0	26807	30.11	36.0002
0	26898	30.21	36.2447
0	26989	30.31	36.4891
0	27080	30.41	36.7335
0	27171	30.51	36.978
0	27262	30.61	37.2224
0	27353	30.71	37.4669
0	27444	30.81	37.7113
0	27535	30.91	37.9557
0	27629	31.01	38.2002
0	27720	31.11	38.4446
0	27811	31.21	38.6891
0	27902	31.31	38.9335
0	27993	31.41	39.1779
0	28084	31.51	39.4224
0	28175	31.61	39.6668
0	28266	31.71	39.9113
0	28357	31.81	40.1557
0	28448	31.91	40.4001
0	28542	32.01	40.6446
0	28633	32.11	40.889
0	28724	32.21	41.1335
0	28815	32.31	41.3779
0	28906	32.41	41.6223
0	28997	32.51	41.8668
0	29088	32.61	42.1112
0	29179	32.71	42.3557
0	29270	32.81	42.6001
0	29361	32.91	42.8445
0	29455	33.01	43.089
0	29546	33.11	43.3334
0	29637	33.21	43.5779
0	29728	33.31	43.8223
0	29819	33.41	44.0667
0	29910	33.51	44.3112
0	30001	33.61	44.5556
0	30092	33.71	44.8001
0	30183	33.81	45.0445
0	30274	33.91	45.2889
0	30368	34.01	45.5334
0	30459	34.11	45.7778
0	30550	34.21	46.0223
0	30641	34.31	46.2667
0	30732	34.41	46.5111
0	30823	34.51	46.7556
0	30914	34.61	47
0	31005	34.71	47.2445
0	31096	34.81	47.4889
0	31187	34.91	47.7333
0	31281	35.01	47.9778
0	31372	35.11	48.2222
0	31463	35.21	48.4667
0	31554	35.31	48.7111
0	31645	35.41	48.9555
0	31736	35.51	49.2
0	31827	35.61	49.4444
0	31918	35.71	49.6889
0	32009	35.81	49.9333
0	32100	35.91	50.1777
0	32194	36.01	50.4222
0	32285	36.11	50.6666
0	32376	36.21	50.9111
0	32467	36.31	51.1555
0	32558	36.41	51.3999
0	32649	36.51	51.6444
0	32740	36.61	51.8888
0	32831	36.71	52.1333
0	32922	36.81	52.3777
0	33013	36.91	52.6221
0	33107	37.01	52.8666
0	33198	37.11	53.111
0	33289	37.21	53.3555
0	33380	37.31	53.5999
0	33471	37.41	53.8443
0	33562	37.51	54.0888
0	33653	37.61	54.3332
0	33744	37.71	54.5777
0	33835	37.81	54.8221
0	33926	37.91	55.0665
0	34020	38.01	55.311
0	34111	38.11	55.5554
0	34202	38.21	55.7999
0	34293	38.31	56.0443
0	34384	38.41	56.2887
0	34475	38.51	56.5332
0	34566	38.61	56.7776
0	34657	38.71	57.0221
0	34748	38.81	57.2665
0	34839	38.91	57.5109
0	34933	39.01	57.7554
0	35024	39.11	57.9998
0	35115	39.21	58.2443
0	35206	39.31	58.4887
0	35297	39.41	58.7331
0	35388	39.51	58.9776
0	35479	39.61	59.222
0	35570	39.71	59.4665
0	35661	39.81	59.7109
0	35752	39.91	59.9553
0	35846	40.01	60.1998
0	35937	40.11	60.4442
0	36028	40.21	60.6887
0	36119	40.31	60.9331
0	36210	40.41	61.1775
0	36301	40.51	61.422
0	36392	40.61	61.6664
0	36483	40.71	61.9109
0	36574	40.81	62.1553
0	36665	40.91	62.3997
0	36759	41.01	62.6442
0	36850	41.11	62.8886
0	36941	41.21	63.1331
0	37032	41.31	63.3775
0	37123	41.41	63.6219
0	37214	41.51	63.8664
0	37305	41.61	64.1108
0	37396	41.71	64.3553
0	37487	41.81	64.5997
0	37578	41.91	64.8441
0	37672	42.01	65.0886
0	37763	42.11	65.333
0	37854	42.21	65.5775
0	37945	42.31	65.8219
0	38036	42.41	66.0663
0	38127	42.51	66.3108
0	38218	42.61	66.5552
0	38309	42.71	66.7997
0	38400	42.81	67.0441
0	38491	42.91	67.2885
0	38585	43.01	67.533
0	38676	43.11	67.7774
0	38767	43.21	68.0219
0	38858	43.31	68.2663
0	38949	43.41	68.5107
0	39040	43.51	68.7552
0	39131	43.61	68.9996
0	39222	43.71	69.2441
0	39313	43.81	69.4885
0	39404	43.91	69.7329
0	39498	44.01	69.9774
0	39589	44.11	70.2218
0	39680	44.21	70.4663
0	39771	44.31	70.7107
0	39862	44.41	70.9551
0	39953	44.51	71.1996
0	40044	44.61	71.444
0	40135	44.71	71.6885
0	40226	44.81	71.9329
0	40317	44.91	72.1773
0	40411	45.01	72.4218
0	40502	45.11	72.6662
0	40593	45.21	72.9107
0	40684	45.31	73.1551
0	40775	45.41	73.3995
0	40866	45.51	73.644
0	40957	45.61	73.8884
0	41048	45.71	74.1329
0	41139	45.81	74.3773
0	41230	45.91	74.6217
0	41324	46.01	74.8662
0	41415	46.11	75.1106
0	41506	46.21	75.3551
0	41597	46.31	75.5995
0	41688	46.41	75.8439
0	41779	46.51	76.0884
0	41870	46.61	76.3328
0	41961	46.71	76.5773
0	42052	46.81	76.8217
0	42143	46.91	77.0661
0	42237	47.01	77.3106
0	42328	47.11	77.555
0	42419	47.21	77.7995
0	42510	47.31	78.0439
0	42601	47.41	78.2883
0	42692	47.51	78.5328
0	42783	47.61	78.7772
0	42874	47.71	79.0217
0	42965	47.81	79.2661
0	43056	47.91	79.5105
0	43150	48.01	79.755
0	43241	48.11	79.9994
0	43332	48.21	80.2439
0	43423	48.31	80.4883
0	43514	48.41	80.7327
0	43605	48.51	80.9772
0	43696	48.61	81.2216
0	43787	48.71	81.4661
0	43878	48.81	81.7105
0	43969	48.91	81.9549
0	44063	49.01	82.1994
0	44154	49.11	82.4438
0	44245	49.21	82.6883
0	44336	49.31	82.9327
0	44427	49.41	83.1771
0	44518	49.51	83.4216
0	44609	49.61	83.666
0	44700	49.71	83.9105
0	44791	49.81	84.1549
0	44882	49.91	84.3993
0	44976	50.01	84.6438
0	45067	50.11	84.8882
0	45158	50.21	85.1327
0	45249	50.31	85.3771
0	45340	50.41	85.6215
0	45431	50.51	85.866
0	45522	50.61	86.1104
0	45613	50.71	86.3549
0	45704	50.81	86.5993
0	45795	50.91	86.8437
0	45889	51.01	87.0882
0	45980	51.11	87.3326
0	46071	51.21	87.5771
0	46162	51.31	87.8215
0	46253	51.41	88.0659
0	46344	51.51	88.3104
0	46435	51.61	88.5548
0	46526	51.71	88.7993
0	46617	51.81	89.0437
0	46708	51.91	89.2881
0	46802	52.01	89.5326
0	46893	52.11	89.777
0	46984	52.21	90.0215
0	47075	52.31	90.2659
0	47166	52.41	90.5103
0	47257	52.51	90.7548
0	47348	52.61	90.9992
0	47439	52.71	91.2437
0	47530	52.81	91.4881
0	47621	52.91	91.7325
0	47715	53.01	91.977
0	47806	53.11	92.2214
0	47897	53.21	92.4659
0	47988	53.31	92.7103
0	48079	53.41	92.9547
0	48170	53.51	93.1992
0	48261	53.61	93.4436
0	48352	53.71	93.6881
0	48443	53.81	93.9325
0	48534	53.91	94.1769
0	48628	54.01	94.4214
0	48719	54.11	94.6658
0	48810	54.21	94.9103
0	48901	54.31	95.1547
0	48992	54.41	95.3991
0	49083	54.51	95.6436
0	49174	54.61	95.888
0	49265	54.71	96.1325
0	49356	54.81	96.3769
0	49447	54.91	96.6213
0	49541	55.01	96.8658
0	49632	55.11	97.1102
0	49723	55.21	97.3547
0	49814	55.31	97.5991
0	49905	55.41	97.8435
0	49996	55.51	98.088
0	50087	55.61	98.3324
0	50178	55.71	98.5769
0	50269	55.81	98.8213
0	50360	55.91	99.0657
0	50454	56.01	99.3102
0	50545	56.11	99.5546
0	50636	56.21	99.7991
0	50727	56.31	100.043
0	50818	56.41	100.288
0	50909	56.51	100.532
0	51000	56.61	100.777
0	51091	56.71	101.021
0	51182	56.81	101.266
0	51273	56.91	101.51
0	51367	57.01	101.755
0	51458	57.11	101.999
0	51549	57.21	102.243
0	51640	57.31	102.488
0	51731	57.41	102.732
0	51822	57.51	102.977
0	51913	57.61	103.221
0	52004	57.71	103.466
0	52095	57.81	103.71
0	52186	57.91	103.955
0	52280	58.01	104.199
0	52371	58.11	104.443
0	52462	58.21	104.688
0	52553	58.31	104.932
0	52644	58.41	105.177
0	52735	58.51	105.421
0	52826	58.61	105.666
0	52917	58.71	105.91
0	53008	58.81	106.154
0	53099	58.91	106.399
0	53193	59.01	106.643
0	53284	59.11	106.888
0	53375	59.21	107.132
0	53466	59.31	107.377
0	53557	59.41	107.621
0	53648	59.51	107.866
0	53739	59.61	108.11
0	53830	59.71	108.354
0	53921	59.81	108.599
0	54012	59.91	108.843
0	54106	60.01	109.088
0	54197	60.11	109.332
0	54288	60.21	109.577
0	54379	60.31	109.821
0	54470	60.41	110.066
0	54561	60.51	110.31
0	54652	60.61	110.554
0	54743	60.71	110.799
0	54834	60.81	111.043
0	54925	60.91	111.288
0	55019	61.01	111.532
0	55110	61.11	111.777
0	55201	61.21	112.021
0	55292	61.31	112.265
0	55383	61.41	112.51
0	55474	61.51	112.754
0	55565	61.61	112.999
0	55656	61.71	113.243
0	55747	61.81	113.488
0	55838	61.91	113.732
0	55932	62.01	113.977
0	56023	62.11	114.221
0	56114	62.21	114.465
0	56205	62.31	114.71
0	56296	62.41	114.954
0	56387	62.51	115.199
0	56478	62.61	115.443
0	56569	62.71	115.688
0	56660	62.81	115.932
0	56751	62.91	116.177
0	56845	63.01	116.421
0	56936	63.11	116.665
0	57027	63.21	116.91
0	57118	63.31	117.154
0	57209	63.41	117.399
0	57300	63.51	117.643
0	57391	63.61	117.888
0	57482	63.71	118.132
0	57573	63.81	118.376
0	57664	63.91	118.621
0	57758	64.01	118.865
0	57849	64.11	119.11
0	57940	64.21	119.354
0	58031	64.31	119.599
0	58122	64.41	119.843
0	58213	64.51	120.088
0	58304	64.61	120.332
0	58395	64.71	120.576
0	58486	64.81	120.821
0	58577	64.91	121.065
0	58671	65.01	121.31
0	58762	65.11	121.554
0	58853	65.21	121.799
0	58944	65.31	122.043
0	59035	65.41	122.288
0	59126	65.51	122.532
0	59217	65.61	122.776
0	59308	65.71	123.021
0	59399	65.81	123.265
0	59490	65.91	123.51
0	59584	66.01	123.754
0	59675	66.11	123.999
0	59766	66.21	124.243
0	59857	66.31	124.487
0	59948	66.41	124.732
0	60039	66.51	124.976
0	60130	66.61	125.221
0	60221	66.71	125.465
0	60312	66.81	125.71
0	60403	66.91	125.954
0	60497	67.01	126.199
0	60588	67.11	126.443
0	60679	67.21	126.687
0	60770	67.31	126.932
0	60861	67.41	127.176
0	60952	67.51	127.421
0	61043	67.61	127.665
0	61134	67.71	127.91
0	61225	67.81	128.154
0	61316	67.91	128.399
0	61410	68.01	128.643
0	61501	68.11	128.887
0	61592	68.21	129.132
0	61683	68.31	129.376
0	61774	68.41	129.621
0	61865	68.51	129.865
0	61956	68.61	130.11
0	62047	68.71	130.354
0	62138	68.81	130.598
0	62229	68.91	130.843
0	62323	69.01	131.087
0	62414	69.11	131.332
0	62505	69.21	131.576
0	62596	69.31	131.821
0	62687	69.41	132.065
0	62778	69.51	132.31
0	62869	69.61	132.554
0	62960	69.71	132.798
0	63051	69.81	133.043
0	63142	69.91	133.287
0	63236	70.01	133.532
0	63327	70.11	133.776
0	63418	70.21	134.021
0	63509	70.31	134.265
0	63600	70.41	134.51
0	63691	70.51	134.754
0	63782	70.61	134.998
0	63873	70.71	135.243
0	63964	70.81	135.487
0	64055	70.91	135.732
0	64149	71.01	135.976
0	64240	71.11	136.221
0	64331	71.21	136.465
0	64422	71.31	136.709
0	64513	71.41	136.954
0	64604	71.51	137.198
0	64695	71.61	137.443
0	64786	71.71	137.687
0	64877	71.81	137.932
0	64968	71.91	138.176
0	65062	72.01	138.421
0	65153	72.11	138.665
0	65244	72.21	138.909
0	65335	72.31	139.154
0	65426	72.41	139.398
0	65517	72.51	139.643
0	65608	72.61	139.887
0	65699	72.71	140.132
0	65790	72.81	140.376
0	65881	72.91	140.621
0	65975	73.01	140.865
0	66066	73.11	141.109
0	66157	73.21	141.354
0	66248	73.31	141.598
0	66339	73.41	141.843
0	66430	73.51	142.087
0	66521	73.61	142.332
0	66612	73.71	142.576
0	66703	73.81	142.82
0	66794	73.91	143.065
0	66888	74.01	143.309
0	66979	74.11	143.554
0	67070	74.21	143.798
0	67161	74.31	144.043
0	67252	74.41	144.287
0	67343	74.51	144.532
0	67434	74.61	144.776
0	67525	74.71	145.02
0	67616	74.81	145.265
0	67707	74.91	145.509
0	67801	75.01	145.754
0	67892	75.11	145.998
0	67983	75.21	146.243
0	68074	75.31	146.487
0	68165	75.41	146.732
0	68256	75.51	146.976
0	68347	75.61	147.22
0	68438	75.71	147.465
0	68529	75.81	147.709
0	68620	75.91	147.954
0	68714	76.01	148.198
0	68805	76.11	148.443
0	68896	76.21	148.687
0	68987	76.31	148.931
0	69078	76.41	149.176
0	69169	76.51	149.42
0	69260	76.61	149.665
0	69351	76.71	149.909
0	69442	76.81	150.154
0	69533	76.91	150.398
0	69627	77.01	150.643
0	69718	77.11	150.887
0	69809	77.21	151.131
0	69900	77.31	151.376
0	69991	77.41	151.62
0	70082	77.51	151.865
0	70173	77.61	152.109
0	70264	77.71	152.354
0	70355	77.81	152.598
0	70446	77.91	152.843
0	70540	78.01	153.087
0	70631	78.11	153.331
0	70722	78.21	153.576
0	70813	78.31	153.82
0	70904	78.41	154.065
0	70995	78.51	154.309
0	71086	78.61	154.554
0	71177	78.71	154.798
0	71268	78.81	155.042
0	71359	78.91	155.287
0	71453	79.01	155.531
0	71544	79.11	155.776
0	71635	79.21	156.02
0	71726	79.31	156.265
0	71817	79.41	156.509
0	71908	79.51	156.754
0	71999	79.61	156.998
0	72090	79.71	157.242
0	72181	79.81	157.487
0	72272	79.91	157.731
0	72366	80.01	157.976
0	72457	80.11	158.22
0	72548	80.21	158.465
0	72639	80.31	158.709
0	72730	80.41	158.954
0	72821	80.51	159.198
0	72912	80.61	159.442
0	73003	80.71	159.687
0	73094	80.81	159.931
0	73185	80.91	160.176
0	73279	81.01	160.42
0	73370	81.11	160.665
0	73461	81.21	160.909
0	73552	81.31	161.153
0	73643	81.41	161.398
0	73734	81.51	161.642
0	73825	81.61	161.887
0	73916	81.71	162.131
0	74007	81.81	162.376
0	74098	81.91	162.62
0	74192	82.01	162.865
0	74283	82.11	163.109
0	74374	82.21	163.353
0	74465	82.31	163.598
0	74556	82.41	163.842
0	74647	82.51	164.087
0	74738	82.61	164.331
0	74829	82.71	164.576
0	74920	82.81	164.82
0	75011	82.91	165.065
0	75105	83.01	165.309
0	75196	83.11	165.553
0	75287	83.21	165.798
0	75378	83.31	166.042
0	75469	83.41	166.287
0	75560	83.51	166.531
0	75651	83.61	166.776
0	75742	83.71	167.02
0	75833	83.81	167.264
0	75924	83.91	167.509
0	76018	84.01	167.753
0	76109	84.11	167.998
0	76200	84.21	168.242
0	76291	84.31	168.487
0	76382	84.41	168.731
0	76473	84.51	168.976
0	76564	84.61	169.22
0	76655	84.71	169.464
0	76746	84.81	169.709
0	76837	84.91	169.953
0	76931	85.01	170.198
0	77022	85.11	170.442
0	77113	85.21	170.687
0	77204	85.31	170.931
0	77295	85.41	171.176
0	77386	85.51	171.42
0	77477	85.61	171.664
0	77568	85.71	171.909
0	77659	85.81	172.153
0	77750	85.91	172.398
0	77844	86.01	172.642
0	77935	86.11	172.887
0	78026	86.21	173.131
0	78117	86.31	173.375
0	78208	86.41	173.62
0	78299	86.51	173.864
0	78390	86.61	174.109
0	78481	86.71	174.353
0	78572	86.81	174.598
0	78663	86.91	174.842
0	78757	87.01	175.087
0	78848	87.11	175.331
0	78939	87.21	175.575
0	79030	87.31	175.82
0	79121	87.41	176.064
0	79212	87.51	176.309
0	79303	87.61	176.553
0	79394	87.71	176.798
0	79485	87.81	177.042
0	79576	87.91	177.287
0	79670	88.01	177.531
0	79761	88.11	177.775
0	79852	88.21	178.02
0	79943	88.31	178.264
0	80034	88.41	178.509
0	80125	88.51	178.753
0	80216	88.61	178.998
0	80307	88.71	179.242
0	80398	88.81	179.486
0	80489	88.91	179.731
0	80583	89.01	179.975
0	80674	89.11	180.22
0	80765	89.21	180.464
0	80856	89.31	180.709
0	80947	89.41	180.953
0	81038	89.51	181.198
0	81129	89.61	181.442
0	81220	89.71	181.686
0	81311	89.81	181.931
0	81402	89.91	182.175
0	81496	90.01	182.42
0	81587	90.11	182.664
0	81678	90.21	182.909
0	81769	90.31	183.153
0	81860	90.41	183.398
0	81951	90.51	183.642
0	82042	90.61	183.886
0	82133	90.71	184.131
0	82224	90.81	184.375
0	82315	90.91	184.62
0	82409	91.01	184.864
0	82500	91.11	185.109
0	82591	91.21	185.353
0	82682	91.31	185.597
0	82773	91.41	185.842
0	82864	91.51	186.086
0	82955	91.61	186.331
0	83046	91.71	186.575
0	83137	91.81	186.82
0	83228	91.91	187.064
0	83322	92.01	187.309
0	83413	92.11	187.553
0	83504	92.21	187.797
0	83595	92.31	188.042
0	83686	92.41	188.286
0	83777	92.51	188.531
0	83868	92.61	188.775
0	83959	92.71	189.02
0	84050	92.81	189.264
0	84141	92.91	189.509
0	84235	93.01	189.753
0	84326	93.11	189.997
0	84417	93.21	190.242
0	84508	93.31	190.486
0	84599	93.41	190.731
0	84690	93.51	190.975
0	84781	93.61	191.22
0	84872	93.71	191.464
0	84963	93.81	191.708
0	85054	93.91	191.953
0	85148	94.01	192.197
0	85239	94.11	192.442
0	85330	94.21	192.686
0	85421	94.31	192.931
0	85512	94.41	193.175
0	85603	94.51	193.42
0	85694	94.61	193.664
0	85785	94.71	193.908
0	85876	94.81	194.153
0	85967	94.91	194.397
0	86061	95.01	194.642
0	86152	95.11	194.886
0	86243	95.21	195.131
0	86334	95.31	195.375
0	86425	95.41	195.62
0	86516	95.51	195.864
0	86607	95.61	196.108
0	86698	95.71	196.353
0	86789	95.81	196.597
0	86880	95.91	196.842
0	86974	96.01	197.086
0	87065	96.11	197.331
0	87156	96.21	197.575
0	87247	96.31	197.819
0	87338	96.41	198.064
0	87429	96.51	198.308
0	87520	96.61	198.553
0	87611	96.71	198.797
0	87702	96.81	199.042
0	87793	96.91	199.286
0	87887	97.01	199.531
0	87978	97.11	199.775
0	88069	97.21	200.019
0	88160	97.31	200.264
0	88251	97.41	200.508
0	88342	97.51	200.753
0	88433	97.61	200.997
0	88524	97.71	201.242
0	88615	97.81	201.486
0	88706	97.91	201.731
0	88800	98.01	201.975
0	88891	98.11	202.219
0	88982	98.21	202.464
0	89073	98.31	202.708
0	89164	98.41	202.953
0	89255	98.51	203.197
0	89346	98.61	203.442
0	89437	98.71	203.686
0	89528	98.81	203.93
0	89619	98.91	204.175
0	89713	99.01	204.419
0	89804	99.11	204.664
0	89895	99.21	204.908
0	89986	99.31	205.153
0	90077	99.41	205.397
0	90168	99.51	205.642
0	90259	99.61	205.886
0	90350	99.71	206.13
0	90441	99.81	206.375
0	90532	99.91	206.619
1	113	1.11	0
1	204	1.21	0
1	295	1.31	0
1	386	1.41	0
1	477	1.51	0
1	568	1.61	0
1	659	1.71	0
1	750	1.81	0
1	841	1.91	0
1	935	2.01	0
1	1026	2.11	0
1	1117	2.21	0
1	1208	2.31	0
1	1299	2.41	0
1	1390	2.51	0
1	1481	2.61	0
1	1572	2.71	0
1	1663	2.81	0
1	1754	2.91	0
1	1848	3.01	0
1	1939	3.11	0
1	2030	3.21	0
1	2121	3.31	0
1	2212	3.41	0
1	2303	3.51	0
1	2394	3.61	0
1	2485	3.71	0
1	2576	3.81	0
1	2667	3.91	0
1	2761	4.01	0
1	2852	4.11	0
1	2943	4.21	0
1	3034	4.31	0
1	3125	4.41	0
1	3216	4.51	0
1	3307	4.61	0
1	3398	4.71	0
1	3489	4.81	0
1	3580	4.91	0
1	3674	5.01	0
1	3765	5.11	0
1	3856	5.21	0
1	3947	5.31	0
1	4038	5.41	0
1	4129	5.51	0
1	4220	5.61	0
1	4311	5.71	0
1	4402	5.81	0
1	4493	5.91	0
1	4587	6.01	0
1	4678	6.11	0
1	4769	6.21	0
1	4860	6.31	0
1	4951	6.41	0
1	5042	6.51	0
1	5133	6.61	0
1	5224	6.71	0
1	5315	6.81	0
1	5406	6.91	0
1	5500	7.01	0
1	5591	7.11	0
1	5682	7.21	0
1	5773	7.31	0
1	5864	7.41	0
1	5955	7.51	0
1	6046	7.61	0
1	6137	7.71	0
1	6228	7.81	0
1	6319	7.91	0
1	6413	8.01	0
1	6504	8.11	0
1	6595	8.21	0
1	6686	8.31	0
1	6777	8.41	0
1	6868	8.51	0
1	6959	8.61	0
1	7050	8.71	0
1	7141	8.81	0
1	7232	8.91	0
1	7326	9.01	0
1	7417	9.11	0
1	7508	9.21	0
1	7599	9.31	0
1	7690	9.41	0
1	7781	9.51	0
1	7872	9.61	0
1	7963	9.71	0
1	8054	9.81	0
1	8145	9.91	0
1	8456	10.01	0
1	8547	10.11	0
1	8638	10.21	0
1	8729	10.31	0
1	8820	10.41	0
1	8911	10.51	0
1	9002	10.61	0
1	9093	10.71	0
1	9184	10.81	0
1	9275	10.91	0
1	9369	11.01	0
1	9460	11.11	0
1	9551	11.21	0
1	9642	11.31	0
1	9733	11.41	0
1	9824	11.51	0
1	9915	11.61	0
1	10006	11.71	0
1	10097	11.81	0
1	10188	11.91	0
1	10282	12.01	0
1	10373	12.11	0
1	10464	12.21	0
1	10555	12.31	0
1	10646	12.41	0
1	10737	12.51	0
1	10828	12.61	0
1	10919	12.71	0
1	11010	12.81	0
1	11101	12.91	0
1	11195	13.01	0
1	11286	13.11	0
1	11377	13.21	0
1	11468	13.31	0
1	11559	13.41	0
1	11650	13.51	0
1	11741	13.61	0
1	11832	13.71	0
1	11923	13.81	0
1	12014	13.91	0
1	12108	14.01	0
1	12199	14.11	0
1	12290	14.21	0
1	12381	14.31	0
1	12472	14.41	0
1	12563	14.51	0
1	12654	14.61	0
1	12745	14.71	0
1	12836	14.81	0
1	12927	14.91	0
1	13021	15.01	0
1	13112	15.11	0
1	13203	15.21	0
1	13294	15.31	0
1	13385	15.41	0
1	13476	15.51	0
1	13567	15.61	0
1	13658	15.71	0
1	13749	15.81	0
1	13840	15.91	0
1	13934	16.01	0
1	14025	16.11	0
1	14116	16.21	0
1	14207	16.31	0
1	14298	16.41	0
1	14389	16.51	0
1	14480	16.61	0
1	14571	16.71	0
1	14662	16.81	0
1	14753	16.91	0
1	14847	17.01	0
1	14938	17.11	0
1	15029	17.21	0
1	15120	17.31	0
1	15211	17.41	0
1	15302	17.51	0
1	15393	17.61	0
1	15484	17.71	0
1	15575	17.81	0
1	15666	17.91	0
1	15760	18.01	0
1	15851	18.11	0
1	15942	18.21	0
1	16033	18.31	0
1	16124	18.41	0
1	16215	18.51	0
1	16306	18.61	0
1	16397	18.71	0
1	16488	18.81	0
1	16579	18.91	0
1	16673	19.01	0
1	16764	19.11	0
1	16855	19.21	0
1	16946	19.31	0
1	17037	19.41	0
1	17128	19.51	0
1	17219	19.61	0
1	17310	19.71	0
1	17401	19.81	0
1	17492	19.91	0
1	17586	20.01	0
1	17677	20.11	0
1	17768	20.21	0
1	17859	20.31	0
1	17950	20.41	0
1	18041	20.51	0
1	18132	20.61	0
1	18223	20.71	0
1	18314	20.81	0
1	18405	20.91	0
1	18499	21.01	0
1	18590	21.11	0
1	18681	21.21	0
1	18772	21.31	0
1	18863	21.41	0
1	18954	21.51	0
1	19045	21.61	0
1	19136	21.71	0
1	19227	21.81	0
1	19318	21.91	0
1	19412	22.01	0
1	19503	22.11	0
1	19594	22.21	0
1	19685	22.31	0
1	19776	22.41	0
1	19867	22.51	0
1	19958	22.61	0
1	20049	22.71	0
1	20140	22.81	0
1	20231	22.91	0
1	20325	23.01	0
1	20416	23.11	0
1	20507	23.21	0
1	20598	23.31	0
1	20689	23.41	0
1	20780	23.51	0
1	20871	23.61	0
1	20962	23.71	0
1	21053	23.81	0
1	21144	23.91	0
1	21238	24.01	0
1	21329	24.11	0
1	21420	24.21	0
1	21511	24.31	0
1	21602	24.41	2.4444
1	21693	24.51	2.4444
1	21784	24.61	2.4444
1	21875	24.71	2.4444
1	21966	24.81	2.4444
1	22057	24.91	2.4444
1	22151	25.01	2.4444
1	22242	25.11	2.4444
1	22333	25.21	2.4444
1	22424	25.31	2.4444
1	22515	25.41	2.4444
1	22606	25.51	2.4444
1	22697	25.61	2.4444
1	22788	25.71	2.4444
1	22879	25.81	2.4444
1	22970	25.91	2.4444
1	23064	26.01	2.4444
1	23155	26.11	2.4444
1	23246	26.21	2.4444
1	23337	26.31	2.4444
1	23428	26.41	2.4444
1	23519	26.51	2.4444
1	23610	26.61	2.4444
1	23701	26.71	2.4444
1	23792	26.81	2.4444
1	23883	26.91	2.4444
1	23977	27.01	2.4444
1	24068	27.11	2.4444
1	24159	27.21	2.4444
1	24250	27.31	2.4444
1	24341	27.41	2.4444
1	24432	27.51	2.4444
1	24523	27.61	2.4444
1	24614	27.71	2.4444
1	24705	27.81	2.4444
1	24796	27.91	2.4444
1	24890	28.01	2.4444
1	24981	28.11	2.4444
1	25072	28.21	2.4444
1	25163	28.31	2.4444
1	25254	28.41	2.4444
1	25345	28.51	2.4444
1	25436	28.61	2.4444
1	25527	28.71	2.4444
1	25618	28.81	2.4444
1	25709	28.91	2.4444
1	25803	29.01	2.4444
1	25894	29.11	2.4444
1	25985	29.21	2.4444
1	26076	29.31	2.4444
1	26167	29.41	2.4444
1	26258	29.51	2.4444
1	26349	29.61	2.4444
1	26440	29.71	2.4444
1	26531	29.81	2.4444
1	26622	29.91	2.4444
1	26716	30.01	2.4444
1	26807	30.11	2.4444
1	26898	30.21	2.4444
1	26989	30.31	2.4444
1	27080	30.41	2.4444
1	27171	30.51	2.4444
1	27262	30.61	2.4444
1	27353	30.71	2.4444
1	27444	30.81	2.4444
1	27535	30.91	2.4444
1	27629	31.01	2.4444
1	27720	31.11	2.4444
1	27811	31.21	2.4444
1	27902	31.31	2.4444
1	27993	31.41	2.4444
1	28084	31.51	2.4444
1	28175	31.61	2.4444
1	28266	31.71	2.4444
1	28357	31.81	2.4444
1	28448	31.91	2.4444
1	28542	32.01	2.4444
1	28633	32.11	2.4444
1	28724	32.21	2.4444
1	28815	32.31	2.4444
1	28906	32.41	2.4444
1	28997	32.51	2.4444
1	29088	32.61	2.4444
1	29179	32.71	2.4444
1	29270	32.81	2.4444
1	29361	32.91	2.4444
1	29455	33.01	2.4444
1	29546	33.11	2.4444
1	29637	33.21	2.4444
1	29728	33.31	2.4444
1	29819	33.41	2.4444
1	29910	33.51	2.4444
1	30001	33.61	2.4444
1	30092	33.71	2.4444
1	30183	33.81	2.4444
1	30274	33.91	2.4444
1	30368	34.01	2.4444
1	30459	34.11	2.4444
1	30550	34.21	2.4444
1	30641	34.31	2.4444
1	30732	34.41	2.4444
1	30823	34.51	2.4444
1	30914	34.61	2.4444
1	31005	34.71	2.4444
1	31096	34.81	2.4444
1	31187	34.91	2.4444
1	31281	35.01	2.4444
1	31372	35.11	2.4444
1	31463	35.21	2.4444
1	31554	35.31	2.4444
1	31645	35.41	2.4444
1	31736	35.51	2.4444
1	31827	35.61	2.4444
1	31918	35.71	2.4444
1	32009	35.81	2.4444
1	32100	35.91	2.4444
1	32194	36.01	2.4444
1	32285	36.11	2.4444
1	32376	36.21	2.4444
1	32467	36.31	2.4444
1	32558	36.41	2.4444
1	32649	36.51	2.4444
1	32740	36.61	2.4444
1	32831	36.71	2.4444
1	32922	36.81	2.4444
1	33013	36.91	2.4444
1	33107	37.01	2.4444
1	33198	37.11	2.4444
1	33289	37.21	2.4444
1	33380	37.31	2.4444
1	33471	37.41	2.4444
1	33562	37.51	2.4444
1	33653	37.61	2.4444
1	33744	37.71	2.4444
1	33835	37.81	2.4444
1	33926	37.91	2.4444
1	34020	38.01	2.4444
1	34111	38.11	2.4444
1	34202	38.21	2.4444
1	34293	38.31	2.4444
1	34384	38.41	2.4444
1	34475	38.51	2.4444
1	34566	38.61	2.4444
1	34657	38.71	2.4444
1	34748	38.81	2.4444
1	34839	38.91	2.4444
1	34933	39.01	2.4444
1	35024	39.11	2.4444
1	35115	39.21	2.4444
1	35206	39.31	2.4444
1	35297	39.41	2.4444
1	35388	39.51	2.4444
1	35479	39.61	2.4444
1	35570	39.71	2.4444
1	35661	39.81	2.4444
1	35752	39.91	2.4444
1	35846	40.01	2.4444
1	35937	40.11	2.4444
1	36028	40.21	2.4444
1	36119	40.31	2.4444
1	36210	40.41	2.4444
1	36301	40.51	2.4444
1	36392	40.61	2.4444
1	36483	40.71	2.4444
1	36574	40.81	2.4444
1	36665	40.91	2.4444
1	36759	41.01	2.4444
1	36850	41.11	2.4444
1	36941	41.21	2.4444
1	37032	41.31	2.4444
1	37123	41.41	2.4444
1	37214	41.51	2.4444
1	37305	41.61	2.4444
1	37396	41.71	2.4444
1	37487	41.81	2.4444
1	37578	41.91	2.4444
1	37672	42.01	2.4444
1	37763	42.11	2.4444
1	37854	42.21	2.4444
1	37945	42.31	2.4444
1	38036	42.41	2.4444
1	38127	42.51	2.4444
1	38218	42.61	2.4444
1	38309	42.71	2.4444
1	38400	42.81	2.4444
1	38491	42.91	2.4444
1	38585	43.01	2.4444
1	38676	43.11	2.4444
1	38767	43.21	2.4444
1	38858	43.31	2.4444
1	38949	43.41	2.4444
1	39040	43.51	2.4444
1	39131	43.61	2.4444
1	39222	43.71	2.4444
1	39313	43.81	2.4444
1	39404	43.91	2.4444
1	39498	44.01	2.4444
1	39589	44.11	2.4444
1	39680	44.21	2.4444
1	39771	44.31	2.4444
1	39862	44.41	2.4444
1	39953	44.51	2.4444
1	40044	44.61	2.4444
1	40135	44.71	2.4444
1	40226	44.81	2.4444
1	40317	44.91	2.4444
1	40411	45.01	2.4444
1	40502	45.11	2.4444
1	40593	45.21	2.4444
1	40684	45.31	2.4444
1	40775	45.41	2.4444
1	40866	45.51	2.4444
1	40957	45.61	2.4444
1	41048	45.71	2.4444
1	41139	45.81	2.4444
1	41230	45.91	2.4444
1	41324	46.01	2.4444
1	41415	46.11	2.4444
1	41506	46.21	2.4444
1	41597	46.31	2.4444
1	41688	46.41	2.4444
1	41779	46.51	2.4444
1	41870	46.61	2.4444
1	41961	46.71	2.4444
1	42052	46.81	2.4444
1	42143	46.91	2.4444
1	42237	47.01	2.4444
1	42328	47.11	2.4444
1	42419	47.21	2.4444
1	42510	47.31	2.4444
1	42601	47.41	2.4444
1	42692	47.51	2.4444
1	42783	47.61	2.4444
1	42874	47.71	2.4444
1	42965	47.81	2.4444
1	43056	47.91	2.4444
1	43150	48.01	2.4444
1	43241	48.11	2.4444
1	43332	48.21	2.4444
1	43423	48.31	2.4444
1	43514	48.41	2.4444
1	43605	48.51	2.4444
1	43696	48.61	2.4444
1	43787	48.71	2.4444
1	43878	48.81	2.4444
1	43969	48.91	2.4444
1	44063	49.01	2.4444
1	44154	49.11	2.4444
1	44245	49.21	2.4444
1	44336	49.31	2.4444
1	44427	49.41	2.4444
1	44518	49.51	2.4444
1	44609	49.61	2.4444
1	44700	49.71	2.4444
1	44791	49.81	2.4444
1	44882	49.91	2.4444
1	44976	50.01	2.4444
1	45067	50.11	2.4444
1	45158	50.21	2.4444
1	45249	50.31	2.4444
1	45340	50.41	2.4444
1	45431	50.51	2.4444
1	45522	50.61	2.4444
1	45613	50.71	2.4444
1	45704	50.81	2.4444
1	45795	50.91	2.4444
1	45889	51.01	2.4444
1	45980	51.11	2.4444
1	46071	51.21	2.4444
1	46162	51.31	2.4444
1	46253	51.41	2.4444
1	46344	51.51	2.4444
1	46435	51.61	2.4444
1	46526	51.71	2.4444
1	46617	51.81	2.4444
1	46708	51.91	2.4444
1	46802	52.01	2.4444
1	46893	52.11	2.4444
1	46984	52.21	2.4444
1	47075	52.31	2.4444
1	47166	52.41	2.4444
1	47257	52.51	2.4444
1	47348	52.61	2.4444
1	47439	52.71	2.4444
1	47530	52.81	2.4444
1	47621	52.91	2.4444
1	47715	53.01	2.4444
1	47806	53.11	2.4444
1	47897	53.21	2.4444
1	47988	53.31	2.4444
1	48079	53.41	2.4444
1	48170	53.51	2.4444
1	48261	53.61	2.4444
1	48352	53.71	2.4444
1	48443	53.81	2.4444
1	48534	53.91	2.4444
1	48628	54.01	2.4444
1	48719	54.11	2.4444
1	48810	54.21	2.4444
1	48901	54.31	2.4444
1	48992	54.41	2.4444
1	49083	54.51	2.4444
1	49174	54.61	2.4444
1	49265	54.71	2.4444
1	49356	54.81	2.4444
1	49447	54.91	2.4444
1	49541	55.01	2.4444
1	49632	55.11	2.4444
1	49723	55.21	2.4444
1	49814	55.31	2.4444
1	49905	55.41	2.4444
1	49996	55.51	2.4444
1	50087	55.61	2.4444
1	50178	55.71	2.4444
1	50269	55.81	2.4444
1	50360	55.91	2.4444
1	50454	56.01	2.4444
1	50545	56.11	2.4444
1	50636	56.21	2.4444
1	50727	56.31	2.4444
1	50818	56.41	2.4444
1	50909	56.51	2.4444
1	51000	56.61	2.4444
1	51091	56.71	2.4444
1	51182	56.81	2.4444
1	51273	56.91	2.4444
1	51367	57.01	2.4444
1	51458	57.11	2.4444
1	51549	57.21	2.4444
1	51640	57.31	2.4444
1	51731	57.41	2.4444
1	51822	57.51	2.4444
1	51913	57.61	2.4444
1	52004	57.71	2.4444
1	52095	57.81	2.4444
1	52186	57.91	2.4444
1	52280	58.01	2.4444
1	52371	58.11	2.4444
1	52462	58.21	2.4444
1	52553	58.31	2.4444
1	52644	58.41	2.4444
1	52735	58.51	2.4444
1	52826	58.61	2.4444
1	52917	58.71	2.4444
1	53008	58.81	2.4444
1	53099	58.91	2.4444
1	53193	59.01	2.4444
1	53284	59.11	2.4444
1	53375	59.21	2.4444
1	53466	59.31	2.4444
1	53557	59.41	2.4444
1	53648	59.51	2.4444
1	53739	59.61	2.4444
1	53830	59.71	2.4444
1	53921	59.81	2.4444
1	54012	59.91	2.4444
1	54106	60.01	2.4444
1	54197	60.11	2.4444
1	54288	60.21	2.4444
1	54379	60.31	2.4444
1	54470	60.41	2.4444
1	54561	60.51	2.4444
1	54652	60.61	2.4444
1	54743	60.71	2.4444
1	54834	60.81	2.4444
1	54925	60.91	2.4444
1	55019	61.01	2.4444
1	55110	61.11	2.4444
1	55201	61.21	2.4444
1	55292	61.31	2.4444
1	55383	61.41	2.4444
1	55474	61.51	2.4444
1	55565	61.61	2.4444
1	55656	61.71	2.4444
1	55747	61.81	2.4444
1	55838	61.91	2.4444
1	55932	62.01	2.4444
1	56023	62.11	2.4444
1	56114	62.21	2.4444
1	56205	62.31	2.4444
1	56296	62.41	2.4444
1	56387	62.51	2.4444
1	56478	62.61	2.4444
1	56569	62.71	2.4444
1	56660	62.81	2.4444
1	56751	62.91	2.4444
1	56845	63.01	2.4444
1	56936	63.11	2.4444
1	57027	63.21	2.4444
1	57118	63.31	2.4444
1	57209	63.41	2.4444
1	57300	63.51	2.4444
1	57391	63.61	2.4444
1	57482	63.71	2.4444
1	57573	63.81	2.4444
1	57664	63.91	2.4444
1	57758	64.01	2.4444
1	57849	64.11	2.4444
1	57940	64.21	2.4444
1	58031	64.31	2.4444
1	58122	64.41	2.4444
1	58213	64.51	2.4444
1	58304	64.61	2.4444
1	58395	64.71	2.4444
1	58486	64.81	2.4444
1	58577	64.91	2.4444
1	58671	65.01	2.4444
1	58762	65.11	2.4444
1	58853	65.21	2.4444
1	58944	65.31	2.4444
1	59035	65.41	2.4444
1	59126	65.51	2.4444
1	59217	65.61	2.4444
1	59308	65.71	2.4444
1	59399	65.81	2.4444
1	59490	65.91	2.4444
1	59584	66.01	2.4444
1	59675	66.11	2.4444
1	59766	66.21	2.4444
1	59857	66.31	2.4444
1	59948	66.41	2.4444
1	60039	66.51	2.4444
1	60130	66.61	2.4444
1	60221	66.71	2.4444
1	60312	66.81	2.4444
1	60403	66.91	2.4444
1	60497	67.01	2.4444
1	60588	67.11	2.4444
1	60679	67.21	2.4444
1	60770	67.31	2.4444
1	60861	67.41	2.4444
1	60952	67.51	2.4444
1	61043	67.61	2.4444
1	61134	67.71	2.4444
1	61225	67.81	2.4444
1	61316	67.91	2.4444
1	61410	68.01	2.4444
1	61501	68.11	2.4444
1	61592	68.21	2.4444
1	61683	68.31	2.4444
1	61774	68.41	2.4444
1	61865	68.51	2.4444
1	61956	68.61	2.4444
1	62047	68.71	2.4444
1	62138	68.81	2.4444
1	62229	68.91	2.4444
1	62323	69.01	2.4444
1	62414	69.11	2.4444
1	62505	69.21	2.4444
1	62596	69.31	2.4444
1	62687	69.41	2.4444
1	62778	69.51	2.4444
1	62869	69.61	2.4444
1	62960	69.71	2.4444
1	63051	69.81	2.4444
1	63142	69.91	2.4444
1	63236	70.01	2.4444
1	63327	70.11	2.4444
1	63418	70.21	2.4444
1	63509	70.31	2.4444
1	63600	70.41	2.4444
1	63691	70.51	2.4444
1	63782	70.61	2.4444
1	63873	70.71	2.4444
1	63964	70.81	2.4444
1	64055	70.91	2.4444
1	64149	71.01	2.4444
1	64240	71.11	2.4444
1	64331	71.21	2.4444
1	64422	71.31	2.4444
1	64513	71.41	2.4444
1	64604	71.51	2.4444
1	64695	71.61	2.4444
1	64786	71.71	2.4444
1	64877	71.81	2.4444
1	64968	71.91	2.4444
1	65062	72.01	2.4444
1	65153	72.11	2.4444
1	65244	72.21	2.4444
1	65335	72.31	2.4444
1	65426	72.41	2.4444
1	65517	72.51	2.4444
1	65608	72.61	2.4444
1	65699	72.71	2.4444
1	65790	72.81	2.4444
1	65881	72.91	2.4444
1	65975	73.01	2.4444
1	66066	73.11	2.4444
1	66157	73.21	2.4444
1	66248	73.31	2.4444
1	66339	73.41	2.4444
1	66430	73.51	2.4444
1	66521	73.61	2.4444
1	66612	73.71	2.4444
1	66703	73.81	2.4444
1	66794	73.91	2.4444
1	66888	74.01	2.4444
1	66979	74.11	2.4444
1	67070	74.21	2.4444
1	67161	74.31	2.4444
1	67252	74.41	2.4444
1	67343	74.51	2.4444
1	67434	74.61	2.4444
1	67525	74.71	2.4444
1	67616	74.81	2.4444
1	67707	74.91	2.4444
1	67801	75.01	2.4444
1	67892	75.11	2.4444
1	67983	75.21	2.4444
1	68074	75.31	2.4444
1	68165	75.41	2.4444
1	68256	75.51	2.4444
1	68347	75.61	2.4444
1	68438	75.71	2.4444
1	68529	75.81	2.4444
1	68620	75.91	2.4444
1	68714	76.01	2.4444
1	68805	76.11	2.4444
1	68896	76.21	2.4444
1	68987	76.31	2.4444
1	69078	76.41	2.4444
1	69169	76.51	2.4444
1	69260	76.61	2.4444
1	69351	76.71	2.4444
1	69442	76.81	2.4444
1	69533	76.91	2.4444
1	69627	77.01	2.4444
1	69718	77.11	2.4444
1	69809	77.21	2.4444
1	69900	77.31	2.4444
1	69991	77.41	2.4444
1	70082	77.51	2.4444
1	70173	77.61	2.4444
1	70264	77.71	2.4444
1	70355	77.81	2.4444
1	70446	77.91	2.4444
1	70540	78.01	2.4444
1	70631	78.11	2.4444
1	70722	78.21	2.4444
1	70813	78.31	2.4444
1	70904	78.41	2.4444
1	70995	78.51	2.4444
1	71086	78.61	2.4444
1	71177	78.71	2.4444
1	71268	78.81	2.4444
1	71359	78.91	2.4444
1	71453	79.01	2.4444
1	71544	79.11	2.4444
1	71635	79.21	2.4444
1	71726	79.31	2.4444
1	71817	79.41	2.4444
1	71908	79.51	2.4444
1	71999	79.61	2.4444
1	72090	79.71	2.4444
1	72181	79.81	2.4444
1	72272	79.91	2.4444
1	72366	80.01	2.4444
1	72457	80.11	2.4444
1	72548	80.21	2.4444
1	72639	80.31	2.4444
1	72730	80.41	2.4444
1	72821	80.51	2.4444
1	72912	80.61	2.4444
1	73003	80.71	2.4444
1	73094	80.81	2.4444
1	73185	80.91	2.4444
1	73279	81.01	2.4444
1	73370	81.11	2.4444
1	73461	81.21	2.4444
1	73552	81.31	2.4444
1	73643	81.41	2.4444
1	73734	81.51	2.4444
1	73825	81.61	2.4444
1	73916	81.71	2.4444
1	74007	81.81	2.4444
1	74098	81.91	2.4444
1	74192	82.01	2.4444
1	74283	82.11	2.4444
1	74374	82.21	2.4444
1	74465	82.31	2.4444
1	74556	82.41	2.4444
1	74647	82.51	2.4444
1	74738	82.61	2.4444
1	74829	82.71	2.4444
1	74920	82.81	2.4444
1	75011	82.91	2.4444
1	75105	83.01	2.4444
1	75196	83.11	2.4444
1	75287	83.21	2.4444
1	75378	83.31	2.4444
1	75469	83.41	2.4444
1	75560	83.51	2.4444
1	75651	83.61	2.4444
1	75742	83.71	2.4444
1	75833	83.81	2.4444
1	75924	83.91	2.4444
1	76018	84.01	2.4444
1	76109	84.11	2.4444
1	76200	84.21	2.4444
1	76291	84.31	2.4444
1	76382	84.41	2.4444
1	76473	84.51	2.4444
1	76564	84.61	2.4444
1	76655	84.71	2.4444
1	76746	84.81	2.4444
1	76837	84.91	2.4444
1	76931	85.01	2.4444
1	77022	85.11	2.4444
1	77113	85.21	2.4444
1	77204	85.31	2.4444
1	77295	85.41	2.4444
1	77386	85.51	2.4444
1	77477	85.61	2.4444
1	77568	85.71	2.4444
1	77659	85.81	2.4444
1	77750	85.91	2.4444
1	77844	86.01	2.4444
1	77935	86.11	2.4444
1	78026	86.21	2.4444
1	78117	86.31	2.4444
1	78208	86.41	2.4444
1	78299	86.51	2.4444
1	78390	86.61	2.4444
1	78481	86.71	2.4444
1	78572	86.81	2.4444
1	78663	86.91	2.4444
1	78757	87.01	2.4444
1	78848	87.11	2.4444
1	78939	87.21	2.4444
1	79030	87.31	2.4444
1	79121	87.41	2.4444
1	79212	87.51	2.4444
1	79303	87.61	2.4444
1	79394	87.71	2.4444
1	79485	87.81	2.4444
1	79576	87.91	2.4444
1	79670	88.01	2.4444
1	79761	88.11	2.4444
1	79852	88.21	2.4444
1	79943	88.31	2.4444
1	80034	88.41	2.4444
1	80125	88.51	2.4444
1	80216	88.61	2.4444
1	80307	88.71	2.4444
1	80398	88.81	2.4444
1	80489	88.91	2.4444
1	80583	89.01	2.4444
1	80674	89.11	2.4444
1	80765	89.21	2.4444
1	80856	89.31	2.4444
1	80947	89.41	2.4444
1	81038	89.51	2.4444
1	81129	89.61	2.4444
1	81220	89.71	2.4444
1	81311	89.81	2.4444
1	81402	89.91	2.4444
1	81496	90.01	2.4444
1	81587	90.11	2.4444
1	81678	90.21	2.4444
1	81769	90.31	2.4444
1	81860	90.41	2.4444
1	81951	90.51	2.4444
1	82042	90.61	2.4444
1	82133	90.71	2.4444
1	82224	90.81	2.4444
1	82315	90.91	2.4444
1	82409	91.01	2.4444
1	82500	91.11	2.4444
1	82591	91.21	2.4444
1	82682	91.31	2.4444
1	82773	91.41	2.4444
1	82864	91.51	2.4444
1	82955	91.61	2.4444
1	83046	91.71	2.4444
1	83137	91.81	2.4444
1	83228	91.91	2.4444
1	83322	92.01	2.4444
1	83413	92.11	2.4444
1	83504	92.21	2.4444
1	83595	92.31	2.4444
1	83686	92.41	2.4444
1	83777	92.51	2.4444
1	83868	92.61	2.4444
1	83959	92.71	2.4444
1	84050	92.81	2.4444
1	84141	92.91	2.4444
1	84235	93.01	2.4444
1	84326	93.11	2.4444
1	84417	93.21	2.4444
1	84508	93.31	2.4444
1	84599	93.41	2.4444
1	84690	93.51	2.4444
1	84781	93.61	2.4444
1	84872	93.71	2.4444
1	84963	93.81	2.4444
1	85054	93.91	2.4444
1	85148	94.01	2.4444
1	85239	94.11	2.4444
1	85330	94.21	2.4444
1	85421	94.31	2.4444
1	85512	94.41	2.4444
1	85603	94.51	2.4444
1	85694	94.61	2.4444
1	85785	94.71	2.4444
1	85876	94.81	2.4444
1	85967	94.91	2.4444
1	86061	95.01	2.4444
1	86152	95.11	2.4444
1	86243	95.21	2.4444
1	86334	95.31	2.4444
1	86425	95.41	2.4444
1	86516	95.51	2.4444
1	86607	95.61	2.4444
1	86698	95.71	2.4444
1	86789	95.81	2.4444
1	86880	95.91	2.4444
1	86974	96.01	2.4444
1	87065	96.11	2.4444
1	87156	96.21	2.4444
1	87247	96.31	2.4444
1	87338	96.41	2.4444
1	87429	96.51	2.4444
1	87520	96.61	2.4444
1	87611	96.71	2.4444
1	87702	96.81	2.4444
1	87793	96.91	2.4444
1	87887	97.01	2.4444
1	87978	97.11	2.4444
1	88069	97.21	2.4444
1	88160	97.31	2.4444
1	88251	97.41	2.4444
1	88342	97.51	2.4444
1	88433	97.61	2.4444
1	88524	97.71	2.4444
1	88615	97.81	2.4444
1	88706	97.91	2.4444
1	88800	98.01	2.4444
1	88891	98.11	2.4444
1	88982	98.21	2.4444
1	89073	98.31	2.4444
1	89164	98.41	2.4444
1	89255	98.51	2.4444
1	89346	98.61	2.4444
1	89437	98.71	2.4444
1	89528	98.81	2.4444
1	89619	98.91	2.4444
1	89713	99.01	2.4444
1	89804	99.11	2.4444
1	89895	99.21	2.4444
1	89986	99.31	2.4444
1	90077	99.41	2.4444
1	90168	99.51	2.4444
1	90259	99.61	2.4444
1	90350	99.71	2.4444
1	90441	99.81	2.4444
1	90532	99.91	2.4444
2	113	1.11	0
2	204	1.21	0
2	295	1.31	0
2	386	1.41	0
2	477	1.51	0
2	568	1.61	0
2	659	1.71	0
2	750	1.81	0
2	841	1.91	0
2	935	2.01	0
2	1026	2.11	0
2	1117	2.21	0
2	1208	2.31	0
2	1299	2.41	0
2	1390	2.51	0
2	1481	2.61	0
2	1572	2.71	0
2	1663	2.81	0
2	1754	2.91	0
2	1848	3.01	0
2	1939	3.11	0
2	2030	3.21	0
2	2121	3.31	0
2	2212	3.41	0
2	2303	3.51	0
2	2394	3.61	0
2	2485	3.71	0
2	2576	3.81	0
2	2667	3.91	0
2	2761	4.01	0
2	2852	4.11	0
2	2943	4.21	0
2	3034	4.31	0
2	3125	4.41	0
2	3216	4.51	0
2	3307	4.61	0
2	3398	4.71	0
2	3489	4.81	0
2	3580	4.91	0
2	3674	5.01	0
2	3765	5.11	0
2	3856	5.21	0
2	3947	5.31	0
2	4038	5.41	0
2	4129	5.51	0
2	4220	5.61	0
2	4311	5.71	0
2	4402	5.81	0
2	4493	5.91	0
2	4587	6.01	0
2	4678	6.11	0
2	4769	6.21	0
2	4860	6.31	0
2	4951	6.41	0
2	5042	6.51	0
2	5133	6.61	0
2	5224	6.71	0
2	5315	6.81	0
2	5406	6.91	0
2	5500	7.01	0
2	5591	7.11	0
2	5682	7.21	0
2	5773	7.31	0
2	5864	7.41	0
2	5955	7.51	0
2	6046	7.61	0
2	6137	7.71	0
2	6228	7.81	0
2	6319	7.91	0
2	6413	8.01	0
2	6504	8.11	0
2	6595	8.21	0
2	6686	8.31	0
2	6777	8.41	0
2	6868	8.51	0
2	6959	8.61	0
2	7050	8.71	0
2	7141	8.81	0
2	7232	8.91	0
2	7326	9.01	0
2	7417	9.11	0
2	7508	9.21	0
2	7599	9.31	0
2	7690	9.41	0
2	7781	9.51	0
2	7872	9.61	0
2	7963	9.71	0
2	8054	9.81	0
2	8145	9.91	0
2	8456	10.01	0
2	8547	10.11	0
2	8638	10.21	0
2	8729	10.31	0
2	8820	10.41	0
2	8911	10.51	0
2	9002	10.61	0
2	9093	10.71	0
2	9184	10.81	0
2	9275	10.91	0
2	9369	11.01	0
2	9460	11.11	0
2	9551	11.21	0
2	9642	11.31	0
2	9733	11.41	0
2	9824	11.51	0
2	9915	11.61	0
2	10006	11.71	0
2	10097	11.81	0
2	10188	11.91	0
2	10282	12.01	0
2	10373	12.11	0
2	10464	12.21	0
2	10555	12.31	0
2	10646	12.41	0
2	10737	12.51	0
2	10828	12.61	0
2	10919	12.71	0
2	11010	12.81	0
2	11101	12.91	0
2	11195	13.01	0
2	11286	13.11	0
2	11377	13.21	0
2	11468	13.31	0
2	11559	13.41	0
2	11650	13.51	0
2	11741	13.61	0
2	11832	13.71	0
2	11923	13.81	0
2	12014	13.91	0
2	12108	14.01	0
2	12199	14.11	0
2	12290	14.21	0
2	12381	14.31	0
2	12472	14.41	0
2	12563	14.51	0
2	12654	14.61	0
2	12745	14.71	0
2	12836	14.81	0
2	12927	14.91	0
2	13021	15.01	0
2	13112	15.11	0
2	13203	15.21	0
2	13294	15.31	0
2	13385	15.41	0
2	13476	15.51	0
2	13567	15.61	0
2	13658	15.71	0
2	13749	15.81	0
2	13840	15.91	0
2	13934	16.01	0
2	14025	16.11	0
2	14116	16.21	0
2	14207	16.31	0
2	14298	16.41	0
2	14389	16.51	0
2	14480	16.61	0
2	14571	16.71	0
2	14662	16.81	0
2	14753	16.91	0
2	14847	17.01	0
2	14938	17.11	0
2	15029	17.21	0
2	15120	17.31	0
2	15211	17.41	0
2	15302	17.51	0
2	15393	17.61	0
2	15484	17.71	0
2	15575	17.81	0
2	15666	17.91	0
2	15760	18.01	0
2	15851	18.11	0
2	15942	18.21	0
2	16033	18.31	0
2	16124	18.41	0
2	16215	18.51	0
2	16306	18.61	0
2	16397	18.71	0
2	16488	18.81	0
2	16579	18.91	0
2	16673	19.01	0
2	16764	19.11	0
2	16855	19.21	0
2	16946	19.31	0
2	17037	19.41	0
2	17128	19.51	0
2	17219	19.61	0
2	17310	19.71	0
2	17401	19.81	0
2	17492	19.91	0
2	17586	20.01	0
2	17677	20.11	0
2	17768	20.21	0
2	17859	20.31	0
2	17950	20.41	0
2	18041	20.51	0
2	18132	20.61	0
2	18223	20.71	0
2	18314	20.81	0
2	18405	20.91	0
2	18499	21.01	0
2	18590	21.11	0
2	18681	21.21	0
2	18772	21.31	0
2	18863	21.41	0
2	18954	21.51	0
2	19045	21.61	0
2	19136	21.71	0
2	19227	21.81	0
2	19318	21.91	0
2	19412	22.01	0
2	19503	22.11	0
2	19594	22.21	0
2	19685	22.31	0
2	19776	22.41	0
2	19867	22.51	0
2	19958	22.61	0
2	20049	22.71	0
2	20140	22.81	0
2	20231	22.91	0
2	20325	23.01	0
2	20416	23.11	0
2	20507	23.21	0
2	20598	23.31	0
2	20689	23.41	0
2	20780	23.51	0
2	20871	23.61	0
2	20962	23.71	0
2	21053	23.81	0
2	21144	23.91	0
2	21238	24.01	0
2	21329	24.11	0
2	21420	24.21	0
2	21511	24.31	0
2	21602	24.41	0
2	21693	24.51	0
2	21784	24.61	0
2	21875	24.71	0
2	21966	24.81	0
2	22057	24.91	0
2	22151	25.01	0
2	22242	25.11	0
2	22333	25.21	0
2	22424	25.31	0
2	22515	25.41	0
2	22606	25.51	0
2	22697	25.61	0
2	22788	25.71	0
2	22879	25.81	0
2	22970	25.91	0
2	23064	26.01	0
2	23155	26.11	0
2	23246	26.21	0
2	23337	26.31	0
2	23428	26.41	0
2	23519	26.51	0
2	23610	26.61	0
2	23701	26.71	0
2	23792	26.81	0
2	23883	26.91	0
2	23977	27.01	0
2	24068	27.11	0
2	24159	27.21	0
2	24250	27.31	0
2	24341	27.41	0
2	24432	27.51	0
2	24523	27.61	0
2	24614	27.71	0
2	24705	27.81	0
2	24796	27.91	0
2	24890	28.01	0
2	24981	28.11	0
2	25072	28.21	0
2	25163	28.31	0
2	25254	28.41	0
2	25345	28.51	0
2	25436	28.61	0
2	25527	28.71	0
2	25618	28.81	0
2	25709	28.91	0
2	25803	29.01	0
2	25894	29.11	0
2	25985	29.21	0
2	26076	29.31	0
2	26167	29.41	0
2	26258	29.51	0
2	26349	29.61	0
2	26440	29.71	0
2	26531	29.81	0
2	26622	29.91	0
2	26716	30.01	0
2	26807	30.11	0
2	26898	30.21	0
2	26989	30.31	0
2	27080	30.41	0
2	27171	30.51	0
2	27262	30.61	0
2	27353	30.71	0
2	27444	30.81	0
2	27535	30.91	0
2	27629	31.01	0
2	27720	31.11	0
2	27811	31.21	0
2	27902	31.31	0
2	27993	31.41	0
2	28084	31.51	0
2	28175	31.61	0
2	28266	31.71	0
2	28357	31.81	0
2	28448	31.91	0
2	28542	32.01	0
2	28633	32.11	0
2	28724	32.21	0
2	28815	32.31	0
2	28906	32.41	0
2	28997	32.51	0
2	29088	32.61	0
2	29179	32.71	0
2	29270	32.81	0
2	29361	32.91	0
2	29455	33.01	0
2	29546	33.11	0
2	29637	33.21	0
2	29728	33.31	0
2	29819	33.41	0
2	29910	33.51	0
2	30001	33.61	0
2	30092	33.71	0
2	30183	33.81	0
2	30274	33.91	0
2	30368	34.01	0
2	30459	34.11	0
2	30550	34.21	0
2	30641	34.31	0
2	30732	34.41	0
2	30823	34.51	0
2	30914	34.61	0
2	31005	34.71	0
2	31096	34.81	0
2	31187	34.91	0
2	31281	35.01	0
2	31372	35.11	0
2	31463	35.21	0
2	31554	35.31	0
2	31645	35.41	0
2	31736	35.51	0
2	31827	35.61	0
2	31918	35.71	0
2	32009	35.81	0
2	32100	35.91	0
2	32194	36.01	0
2	32285	36.11	0
2	32376	36.21	0
2	32467	36.31	0
2	32558	36.41	0
2	32649	36.51	0
2	32740	36.61	0
2	32831	36.71	0
2	32922	36.81	0
2	33013	36.91	0
2	33107	37.01	0
2	33198	37.11	0
2	33289	37.21	0
2	33380	37.31	0
2	33471	37.41	0
2	33562	37.51	0
2	33653	37.61	0
2	33744	37.71	0
2	33835	37.81	0
2	33926	37.91	0
2	34020	38.01	0
2	34111	38.11	0
2	34202	38.21	0
2	34293	38.31	0
2	34384	38.41	0
2	34475	38.51	0
2	34566	38.61	0
2	34657	38.71	0
2	34748	38.81	0
2	34839	38.91	0
2	34933	39.01	0
2	35024	39.11	0
2	35115	39.21	0
2	35206	39.31	0
2	35297	39.41	0
2	35388	39.51	0
2	35479	39.61	0
2	35570	39.71	0
2	35661	39.81	0
2	35752	39.91	0
2	35846	40.01	0
2	35937	40.11	0
2	36028	40.21	0
2	36119	40.31	0
2	36210	40.41	0
2	36301	40.51	0
2	36392	40.61	0
2	36483	40.71	0
2	36574	40.81	0
2	36665	40.91	0
2	36759	41.01	0
2	36850	41.11	0
2	36941	41.21	0
2	37032	41.31	0
2	37123	41.41	0
2	37214	41.51	0
2	37305	41.61	0
2	37396	41.71	0
2	37487	41.81	0
2	37578	41.91	0
2	37672	42.01	0
2	37763	42.11	0
2	37854	42.21	0
2	37945	42.31	0
2	38036	42.41	0
2	38127	42.51	0
2	38218	42.61	0
2	38309	42.71	0
2	38400	42.81	0
2	38491	42.91	0
2	38585	43.01	0
2	38676	43.11	0
2	38767	43.21	0
2	38858	43.31	0
2	38949	43.41	0
2	39040	43.51	0
2	39131	43.61	0
2	39222	43.71	0
2	39313	43.81	0
2	39404	43.91	0
2	39498	44.01	0
2	39589	44.11	0
2	39680	44.21	0
2	39771	44.31	0
2	39862	44.41	0
2	39953	44.51	0
2	40044	44.61	0
2	40135	44.71	0
2	40226	44.81	0
2	40317	44.91	0
2	40411	45.01	0
2	40502	45.11	0
2	40593	45.21	0
2	40684	45.31	0
2	40775	45.41	0
2	40866	45.51	0
2	40957	45.61	0
2	41048	45.71	0
2	41139	45.81	0
2	41230	45.91	0
2	41324	46.01	0
2	41415	46.11	0
2	41506	46.21	0
2	41597	46.31	0
2	41688	46.41	0
2	41779	46.51	0
2	41870	46.61	0
2	41961	46.71	0
2	42052	46.81	0
2	42143	46.91	0
2	42237	47.01	0
2	42328	47.11	0
2	42419	47.21	0
2	42510	47.31	0
2	42601	47.41	0
2	42692	47.51	0
2	42783	47.61	0
2	42874	47.71	0
2	42965	47.81	0
2	43056	47.91	0
2	43150	48.01	0
2	43241	48.11	0
2	43332	48.21	0
2	43423	48.31	0
2	43514	48.41	0
2	43605	48.51	0
2	43696	48.61	0
2	43787	48.71	0
2	43878	48.81	0
2	43969	48.91	0
2	44063	49.01	0
2	44154	49.11	0
2	44245	49.21	0
2	44336	49.31	0
2	44427	49.41	0
2	44518	49.51	0
2	44609	49.61	0
2	44700	49.71	0
2	44791	49.81	0
2	44882	49.91	0
2	44976	50.01	0
2	45067	50.11	0
2	45158	50.21	0
2	45249	50.31	0
2	45340	50.41	0
2	45431	50.51	0
2	45522	50.61	0
2	45613	50.71	0
2	45704	50.81	0
2	45795	50.91	0
2	45889	51.01	0
2	45980	51.11	0
2	46071	51.21	0
2	46162	51.31	0
2	46253	51.41	0
2	46344	51.51	0
2	46435	51.61	0
2	46526	51.71	0
2	46617	51.81	0
2	46708	51.91	0
2	46802	52.01	0
2	46893	52.11	0
2	46984	52.21	0
2	47075	52.31	0
2	47166	52.41	0
2	47257	52.51	0
2	47348	52.61	0
2	47439	52.71	0
2	47530	52.81	0
2	47621	52.91	0
2	47715	53.01	0
2	47806	53.11	0
2	47897	53.21	0
2	47988	53.31	0
2	48079	53.41	0
2	48170	53.51	0
2	48261	53.61	0
2	48352	53.71	0
2	48443	53.81	0
2	48534	53.91	0
2	48628	54.01	0
2	48719	54.11	0
2	48810	54.21	0
2	48901	54.31	0
2	48992	54.41	0
2	49083	54.51	0
2	49174	54.61	0
2	49265	54.71	0
2	49356	54.81	0
2	49447	54.91	0
2	49541	55.01	0
2	49632	55.11	0
2	49723	55.21	0
2	49814	55.31	0
2	49905	55.41	0
2	49996	55.51	0
2	50087	55.61	0
2	50178	55.71	0
2	50269	55.81	0
2	50360	55.91	0
2	50454	56.01	0
2	50545	56.11	0
2	50636	56.21	0
2	50727	56.31	0
2	50818	56.41	0
2	50909	56.51	0
2	51000	56.61	0
2	51091	56.71	0
2	51182	56.81	0
2	51273	56.91	0
2	51367	57.01	0
2	51458	57.11	0
2	51549	57.21	0
2	51640	57.31	0
2	51731	57.41	0
2	51822	57.51	0
2	51913	57.61	0
2	52004	57.71	0
2	52095	57.81	0
2	52186	57.91	0
2	52280	58.01	0
2	52371	58.11	0
2	52462	58.21	0
2	52553	58.31	0
2	52644	58.41	0
2	52735	58.51	0
2	52826	58.61	0
2	52917	58.71	0
2	53008	58.81	0
2	53099	58.91	0
2	53193	59.01	0
2	53284	59.11	0
2	53375	59.21	0
2	53466	59.31	0
2	53557	59.41	0
2	53648	59.51	0
2	53739	59.61	0
2	53830	59.71	0
2	53921	59.81	0
2	54012	59.91	0
2	54106	60.01	0
2	54197	60.11	0
2	54288	60.21	0
2	54379	60.31	0
2	54470	60.41	0
2	54561	60.51	0
2	54652	60.61	0
2	54743	60.71	0
2	54834	60.81	0
2	54925	60.91	0
2	55019	61.01	0
2	55110	61.11	0
2	55201	61.21	0
2	55292	61.31	0
2	55383	61.41	0
2	55474	61.51	0
2	55565	61.61	0
2	55656	61.71	0
2	55747	61.81	0
2	55838	61.91	0
2	55932	62.01	0
2	56023	62.11	0
2	56114	62.21	0
2	56205	62.31	0
2	56296	62.41	0
2	56387	62.51	0
2	56478	62.61	0
2	56569	62.71	0
2	56660	62.81	0
2	56751	62.91	0
2	56845	63.01	0
2	56936	63.11	0
2	57027	63.21	0
2	57118	63.31	0
2	57209	63.41	0
2	57300	63.51	0
2	57391	63.61	0
2	57482	63.71	0
2	57573	63.81	0
2	57664	63.91	0
2	57758	64.01	0
2	57849	64.11	0
2	57940	64.21	0
2	58031	64.31	0
2	58122	64.41	0
2	58213	64.51	0
2	58304	64.61	0
2	58395	64.71	0
2	58486	64.81	0
2	58577	64.91	0
2	58671	65.01	0
2	58762	65.11	0
2	58853	65.21	0
2	58944	65.31	0
2	59035	65.41	0
2	59126	65.51	0
2	59217	65.61	0
2	59308	65.71	0
2	59399	65.81	0
2	59490	65.91	0
2	59584	66.01	0
2	59675	66.11	0
2	59766	66.21	0
2	59857	66.31	0
2	59948	66.41	0
2	60039	66.51	0
2	60130	66.61	0
2	60221	66.71	0
2	60312	66.81	0
2	60403	66.91	0
2	60497	67.01	0
2	60588	67.11	0
2	60679	67.21	0
2	60770	67.31	0
2	60861	67.41	0
2	60952	67.51	0
2	61043	67.61	0
2	61134	67.71	0
2	61225	67.81	0
2	61316	67.91	0
2	61410	68.01	0
2	61501	68.11	0
2	61592	68.21	0
2	61683	68.31	0
2	61774	68.41	0
2	61865	68.51	0
2	61956	68.61	0
2	62047	68.71	0
2	62138	68.81	0
2	62229	68.91	0
2	62323	69.01	0
2	62414	69.11	0
2	62505	69.21	0
2	62596	69.31	0
2	62687	69.41	0
2	62778	69.51	0
2	62869	69.61	0
2	62960	69.71	0
2	63051	69.81	0
2	63142	69.91	0
2	63236	70.01	0
2	63327	70.11	0
2	63418	70.21	0
2	63509	70.31	0
2	63600	70.41	0
2	63691	70.51	0
2	63782	70.61	0
2	63873	70.71	0
2	63964	70.81	0
2	64055	70.91	0
2	64149	71.01	0
2	64240	71.11	0
2	64331	71.21	0
2	64422	71.31	0
2	64513	71.41	0
2	64604	71.51	0
2	64695	71.61	0
2	64786	71.71	0
2	64877	71.81	0
2	64968	71.91	0
2	65062	72.01	0
2	65153	72.11	0
2	65244	72.21	0
2	65335	72.31	0
2	65426	72.41	0
2	65517	72.51	0
2	65608	72.61	0
2	65699	72.71	0
2	65790	72.81	0
2	65881	72.91	0
2	65975	73.01	0
2	66066	73.11	0
2	66157	73.21	0
2	66248	73.31	0
2	66339	73.41	0
2	66430	73.51	0
2	66521	73.61	0
2	66612	73.71	0
2	66703	73.81	0
2	66794	73.91	0
2	66888	74.01	0
2	66979	74.11	0
2	67070	74.21	0
2	67161	74.31	0
2	67252	74.41	0
2	67343	74.51	0
2	67434	74.61	0
2	67525	74.71	0
2	67616	74.81	0
2	67707	74.91	0
2	67801	75.01	0
2	67892	75.11	0
2	67983	75.21	0
2	68074	75.31	0
2	68165	75.41	0
2	68256	75.51	0
2	68347	75.61	0
2	68438	75.71	0
2	68529	75.81	0
2	68620	75.91	0
2	68714	76.01	0
2	68805	76.11	0
2	68896	76.21	0
2	68987	76.31	0
2	69078	76.41	0
2	69169	76.51	0
2	69260	76.61	0
2	69351	76.71	0
2	69442	76.81	0
2	69533	76.91	0
2	69627	77.01	0
2	69718	77.11	0
2	69809	77.21	0
2	69900	77.31	0
2	69991	77.41	0
2	70082	77.51	0
2	70173	77.61	0
2	70264	77.71	0
2	70355	77.81	0
2	70446	77.91	0
2	70540	78.01	0
2	70631	78.11	0
2	70722	78.21	0
2	70813	78.31	0
2	70904	78.41	0
2	70995	78.51	0
2	71086	78.61	0
2	71177	78.71	0
2	71268	78.81	0
2	71359	78.91	0
2	71453	79.01	0
2	71544	79.11	0
2	71635	79.21	0
2	71726	79.31	0
2	71817	79.41	0
2	71908	79.51	0
2	71999	79.61	0
2	72090	79.71	0
2	72181	79.81	0
2	72272	79.91	0
2	72366	80.01	0
2	72457	80.11	0
2	72548	80.21	0
2	72639	80.31	0
2	72730	80.41	0
2	72821	80.51	0
2	72912	80.61	0
2	73003	80.71	0
2	73094	80.81	0
2	73185	80.91	0
2	73279	81.01	0
2	73370	81.11	0
2	73461	81.21	0
2	73552	81.31	0
2	73643	81.41	0
2	73734	81.51	0
2	73825	81.61	0
2	73916	81.71	0
2	74007	81.81	0
2	74098	81.91	0
2	74192	82.01	0
2	74283	82.11	0
2	74374	82.21	0
2	74465	82.31	0
2	74556	82.41	0
2	74647	82.51	0
2	74738	82.61	0
2	74829	82.71	0
2	74920	82.81	0
2	75011	82.91	0
2	75105	83.01	0
2	75196	83.11	0
2	75287	83.21	0
2	75378	83.31	0
2	75469	83.41	0
2	75560	83.51	0
2	75651	83.61	0
2	75742	83.71	0
2	75833	83.81	0
2	75924	83.91	0
2	76018	84.01	0
2	76109	84.11	0
2	76200	84.21	0
2	76291	84.31	0
2	76382	84.41	0
2	76473	84.51	0
2	76564	84.61	0
2	76655	84.71	0
2	76746	84.81	0
2	76837	84.91	0
2	76931	85.01	0
2	77022	85.11	0
2	77113	85.21	0
2	77204	85.31	0
2	77295	85.41	0
2	77386	85.51	0
2	77477	85.61	0
2	77568	85.71	0
2	77659	85.81	0
2	77750	85.91	0
2	77844	86.01	0
2	77935	86.11	0
2	78026	86.21	0
2	78117	86.31	0
2	78208	86.41	0
2	78299	86.51	0
2	78390	86.61	0
2	78481	86.71	0
2	78572	86.81	0
2	78663	86.91	0
2	78757	87.01	0
2	78848	87.11	0
2	78939	87.21	0
2	79030	87.31	0
2	79121	87.41	0
2	79212	87.51	0
2	79303	87.61	0
2	79394	87.71	0
2	79485	87.81	0
2	79576	87.91	0
2	79670	88.01	0
2	79761	88.11	0
2	79852	88.21	0
2	79943	88.31	0
2	80034	88.41	0
2	80125	88.51	0
2	80216	88.61	0
2	80307	88.71	0
2	80398	88.81	0
2	80489	88.91	0
2	80583	89.01	0
2	80674	89.11	0
2	80765	89.21	0
2	80856	89.31	0
2	80947	89.41	0
2	81038	89.51	0
2	81129	89.61	0
2	81220	89.71	0
2	81311	89.81	0
2	81402	89.91	0
2	81496	90.01	0
2	81587	90.11	0
2	81678	90.21	0
2	81769	90.31	0
2	81860	90.41	0
2	81951	90.51	0
2	82042	90.61	0
2	82133	90.71	0
2	82224	90.81	0
2	82315	90.91	0
2	82409	91.01	0
2	82500	91.11	0
2	82591	91.21	0
2	82682	91.31	0
2	82773	91.41	0
2	82864	91.51	0
2	82955	91.61	0
2	83046	91.71	0
2	83137	91.81	0
2	83228	91.91	0
2	83322	92.01	0
2	83413	92.11	0
2	83504	92.21	0
2	83595	92.31	0
2	83686	92.41	0
2	83777	92.51	0
2	83868	92.61	0
2	83959	92.71	0
2	84050	92.81	0
2	84141	92.91	0
2	84235	93.01	0
2	84326	93.11	0
2	84417	93.21	0
2	84508	93.31	0
2	84599	93.41	0
2	84690	93.51	0
2	84781	93.61	0
2	84872	93.71	0
2	84963	93.81	0
2	85054	93.91	0
2	85148	94.01	0
2	85239	94.11	0
2	85330	94.21	0
2	85421	94.31	0
2	85512	94.41	0
2	85603	94.51	0
2	85694	94.61	0
2	85785	94.71	0
2	85876	94.81	0
2	85967	94.91	0
2	86061	95.01	0
2	86152	95.11	0
2	86243	95.21	0
2	86334	95.31	0
2	86425	95.41	0
2	86516	95.51	0
2	86607	95.61	0
2	86698	95.71	0
2	86789	95.81	0
2	86880	95.91	0
2	86974	96.01	0
2	87065	96.11	0
2	87156	96.21	0
2	87247	96.31	0
2	87338	96.41	0
2	87429	96.51	0
2	87520	96.61	0
2	87611	96.71	0
2	87702	96.81	0
2	87793	96.91	0
2	87887	97.01	0
2	87978	97.11	0
2	88069	97.21	0
2	88160	97.31	0
2	88251	97.41	0
2	88342	97.51	0
2	88433	97.61	0
2	88524	97.71	0
2	88615	97.81	0
2	88706	97.91	0
2	88800	98.01	0
2	88891	98.11	0
2	88982	98.21	0
2	89073	98.31	0
2	89164	98.41	0
2	89255	98.51	0
2	89346	98.61	0
2	89437	98.71	0
2	89528	98.81	0
2	89619	98.91	0
2	89713	99.01	0
2	89804	99.11	0
2	89895	99.21	0
2	89986	99.31	0
2	90077	99.41	0
2	90168	99.51	0
2	90259	99.61	0
2	90350	99.71	0
2	90441	99.81	0
2	90532	99.91	0
3	113	1.11	-0.000716383
3	204	1.21	-0.00136341
3	295	1.31	-0.00186974
3	386	1.41	-0.00225157
3	477	1.51	-0.00252443
3	568	1.61	-0.00270298
3	659	1.71	-0.00280098
3	750	1.81	-0.00283113
3	841	1.91	-0.00280509
3	935	2.01	-0.00273342
3	1026	2.11	-0.00262559
3	1117	2.21	-0.00249005
3	1208	2.31	-0.00233419
3	1299	2.41	-0.00216447
3	1390	2.51	-0.00198642
3	1481	2.61	-0.00180472
3	1572	2.71	-0.0016233
3	1663	2.81	-0.00144536
3	1754	2.91	-0.00127346
3	1848	3.01	-0.0011096
3	1939	3.11	-0.000955278
3	2030	3.21	-0.000811546
3	2121	3.31	-0.00067908
3	2212	3.41	-0.000558232
3	2303	3.51	-0.000449082
3	2394	3.61	-0.000351487
3	2485	3.71	-0.00026512
3	2576	3.81	-0.000189514
3	2667	3.91	-0.000124092
3	2761	4.01	-6.81972e-05
3	2852	4.11	-2.11209e-05
3	2943	4.21	1.78769e-05
3	3034	4.31	4.9548e-05
3	3125	4.41	7.46407e-05
3	3216	4.51	9.38867e-05
3	3307	4.61	0.000107991
3	3398	4.71	0.000117625
3	3489	4.81	0.000123418
3	3580	4.91	0.000125957
3	3674	5.01	0.000125781
3	3765	5.11	0.00012338
3	3856	5.21	0.000119198
3	3947	5.31	0.000113629
3	4038	5.41	0.000107022
3	4129	5.51	9.96832e-05
3	4220	5.61	9.18747e-05
3	4311	5.71	8.38211e-05
3	4402	5.81	7.57109e-05
3	4493	5.91	6.76999e-05
3	4587	6.01	5.99137e-05
3	4678	6.11	5.24518e-05
3	4769	6.21	4.53896e-05
3	4860	6.31	3.87821e-05
3	4951	6.41	3.2666e-05
3	5042	6.51	2.70628e-05
3	5133	6.61	2.19809e-05
3	5224	6.71	1.74176e-05
3	5315	6.81	1.33618e-05
3	5406	6.91	9.79494e-06
3	5500	7.01	6.6932e-06
3	5591	7.11	4.02864e-06
3	5682	7.21	1.77051e-06
3	5773	7.31	-1.13691e-07
3	5864	7.41	-1.65736e-06
3	5955	7.51	-2.89397e-06
3	6046	7.61	-3.85652e-06
3	6137	7.71	-4.57698e-06
3	6228	7.81	-5.08591e-06
3	6319	7.91	-5.41219e-06
3	6413	8.01	-5.58279e-06
3	6504	8.11	-5.6226e-06
3	6595	8.21	-5.55442e-06
3	6686	8.31	-5.39886e-06
3	6777	8.41	-5.17441e-06
3	6868	8.51	-4.89748e-06
3	6959	8.61	-4.58246e-06
3	7050	8.71	-4.24184e-06
3	7141	8.81	-3.88634e-06
3	7232	8.91	-3.52499e-06
3	7326	9.01	-3.16534e-06
3	7417	9.11	-2.81353e-06
3	7508	9.21	-2.47446e-06
3	7599	9.31	-2.15192e-06
3	7690	9.41	-1.84873e-06
3	7781	9.51	-1.56685e-06
3	7872	9.61	-1.30751e-06
3	7963	9.71	-1.0713e-06
3	8054	9.81	-8.58321e-07
3	8145	9.91	-6.68206e-07
3	8456	10.01	-5.0026e-07
3	8547	10.11	-3.53514e-07
3	8638	10.21	-2.2679e-07
3	8729	10.31	-1.18765e-07
3	8820	10.41	-2.80163e-08
3	8911	10.51	4.6931e-08
3	9002	10.61	1.07573e-07
3	9093	10.71	1.55391e-07
3	9184	10.81	1.91831e-07
3	9275	10.91	2.18284e-07
3	9369	11.01	2.3607e-07
3	9460	11.11	2.46427e-07
3	9551	11.21	2.50502e-07
3	9642	11.31	2.49353e-07
3	9733	11.41	2.43938e-07
3	9824	11.51	2.3512e-07
3	9915	11.61	2.23669e-07
3	10006	11.71	2.10264e-07
3	10097	11.81	1.95496e-07
3	10188	11.91	1.79874e-07
3	10282	12.01	1.63833e-07
3	10373	12.11	1.47736e-07
3	10464	12.21	1.3188e-07
3	10555	12.31	1.16508e-07
3	10646	12.41	1.01807e-07
3	10737	12.51	8.79222e-08
3	10828	12.61	7.49541e-08
3	10919	12.71	6.29711e-08
3	11010	12.81	5.20114e-08
3	11101	12.91	4.20883e-08
3	11195	13.01	3.3193e-08
3	11286	13.11	2.53003e-08
3	11377	13.21	1.83718e-08
3	11468	13.31	1.23581e-08
3	11559	13.41	7.20348e-09
3	11650	13.51	2.84537e-09
3	11741	13.61	-7.80886e-10
3	11832	13.71	-3.74136e-09
3	11923	13.81	-6.10285e-09
3	12014	13.91	-7.93072e-09
3	12108	14.01	-9.28821e-09
3	12199	14.11	-1.0235e-08
3	12290	14.21	-1.08283e-08
3	12381	14.31	-1.11211e-08
3	12472	14.41	-1.11612e-08
3	12563	14.51	-1.09946e-08
3	12654	14.61	-1.06599e-08
3	12745	14.71	-1.01945e-08
3	12836	14.81	-9.62999e-09
3	12927	14.91	-8.99405e-09
3	13021	15.01	-8.31086e-09
3	13112	15.11	-7.60103e-09
3	13203	15.21	-6.88338e-09
3	13294	15.31	-6.17071e-09
3	13385	15.41	-5.47544e-09
3	13476	15.51	-4.80682e-09
3	13567	15.61	-4.17266e-09
3	13658	15.71	-3.57687e-09
3	13749	15.81	-3.02443e-09
3	13840	15.91	-2.51674e-09
3	13934	16.01	-2.05489e-09
3	14025	16.11	-1.63958e-09
3	14116	16.21	-1.26903e-09
3	14207	16.31	-9.42535e-10
3	14298	16.41	-6.57963e-10
3	14389	16.51	-4.1247e-10
3	14480	16.61	-2.04636e-10
3	14571	16.71	-2.91323e-11
3	14662	16.81	1.14753e-10
3	14753	16.91	2.30926e-10
3	14847	17.01	3.22231e-10
3	14938	17.11	3.91154e-10
3	15029	17.21	4.40892e-10
3	15120	17.31	4.73577e-10
3	15211	17.41	4.92051e-10
3	15302	17.51	4.98446e-10
3	15393	17.61	4.94893e-10
3	15484	17.71	4.82814e-10
3	15575	17.81	4.6434e-10
3	15666	17.91	4.40892e-10
3	15760	18.01	4.13536e-10
3	15851	18.11	3.83693e-10
3	15942	18.21	3.51719e-10
3	16033	18.31	3.19744e-10
3	16124	18.41	2.8777e-10
3	16215	18.51	2.55795e-10
3	16306	18.61	2.25953e-10
3	16397	18.71	1.97531e-10
3	16488	18.81	1.6982e-10
3	16579	18.91	1.44951e-10
3	16673	19.01	1.21503e-10
3	16764	19.11	1.00187e-10
3	16855	19.21	8.10019e-11
3	16946	19.31	6.32383e-11
3	17037	19.41	4.86722e-11
3	17128	19.51	3.44613e-11
3	17219	19.61	2.34479e-11
3	17310	19.71	1.27898e-11
3	17401	19.81	4.9738e-12
3	17492	19.91	-2.13163e-12
3	17586	20.01	-8.17124e-12
3	17677	20.11	-1.1724e-11
3	17768	20.21	-1.52767e-11
3	17859	20.31	-1.88294e-11
3	17950	20.41	-2.02505e-11
3	18041	20.51	-2.02505e-11
3	18132	20.61	-2.02505e-11
3	18223	20.71	-2.02505e-11
3	18314	20.81	-2.02505e-11
3	18405	20.91	-2.02505e-11
3	18499	21.01	-2.02505e-11
3	18590	21.11	-2.02505e-11
3	18681	21.21	-2.02505e-11
3	18772	21.31	-1.88294e-11
3	18863	21.41	-1.7053e-11
3	18954	21.51	-1.52767e-11
3	19045	21.61	-1.38556e-11
3	19136	21.71	-1.24345e-11
3	19227	21.81	-1.13687e-11
3	19318	21.91	-1.03029e-11
3	19412	22.01	-9.23706e-12
3	19503	22.11	-8.52651e-12
3	19594	22.21	-7.4607e-12
3	19685	22.31	-6.75016e-12
3	19776	22.41	-6.03961e-12
3	19867	22.51	-5.68434e-12
3	19958	22.61	-4.9738e-12
3	20049	22.71	-4.61853e-12
3	20140	22.81	-4.26326e-12
3	20231	22.91	-3.90799e-12
3	20325	23.01	-3.55271e-12
3	20416	23.11	-3.19744e-12
3	20507	23.21	-2.84217e-12
3	20598	23.31	-2.4869e-12
3	20689	23.41	-2.13163e-12
3	20780	23.51	-2.13163e-12
3	20871	23.61	-1.77636e-12
3	20962	23.71	-1.77636e-12
3	21053	23.81	-1.42109e-12
3	21144	23.91	-1.42109e-12
3	21238	24.01	-1.06581e-12
3	21329	24.11	-1.06581e-12
3	21420	24.21	-1.06581e-12
3	21511	24.31	-1.06581e-12
3	21602	24.41	-7.10543e-13
3	21693	24.51	-7.10543e-13
3	21784	24.61	-7.10543e-13
3	21875	24.71	-7.10543e-13
3	21966	24.81	-7.10543e-13
3	22057	24.91	-3.55271e-13
3	22151	25.01	-3.55271e-13
3	22242	25.11	-3.55271e-13
3	22333	25.21	-3.55271e-13
3	22424	25.31	-3.55271e-13
3	22515	25.41	-3.55271e-13
3	22606	25.51	-3.55271e-13
3	22697	25.61	-3.55271e-13
3	22788	25.71	-3.55271e-13
3	22879	25.81	-3.55271e-13
3	22970	25.91	0
3	23064	26.01	0
3	23155	26.11	0
3	23246	26.21	0
3	23337	26.31	0
3	23428	26.41	0
3	23519	26.51	0
3	23610	26.61	0
3	23701	26.71	0
3	23792	26.81	0
3	23883	26.91	0
3	23977	27.01	0
3	24068	27.11	0
3	24159	27.21	0
3	24250	27.31	0
3	24341	27.41	0
3	24432	27.51	0
3	24523	27.61	0
3	24614	27.71	0
3	24705	27.81	0
3	24796	27.91	0
3	24890	28.01	0
3	24981	28.11	0
3	25072	28.21	0
3	25163	28.31	0
3	25254	28.41	0
3	25345	28.51	0
3	25436	28.61	0
3	25527	28.71	0
3	25618	28.81	0
3	25709	28.91	0
3	25803	29.01	0
3	25894	29.11	0
3	25985	29.21	0
3	26076	29.31	0
3	26167	29.41	0
3	26258	29.51	0
3	26349	29.61	0
3	26440	29.71	0
3	26531	29.81	0
3	26622	29.91	0
3	26716	30.01	0
3	26807	30.11	0
3	26898	30.21	0
3	26989	30.31	0
3	27080	30.41	0
3	27171	30.51	0
3	27262	30.61	0
3	27353	30.71	0
3	27444	30.81	0
3	27535	30.91	0
3	27629	31.01	0
3	27720	31.11	0
3	27811	31.21	0
3	27902	31.31	0
3	27993	31.41	0
3	28084	31.51	0
3	28175	31.61	0
3	28266	31.71	0
3	28357	31.81	0
3	28448	31.91	0
3	28542	32.01	0
3	28633	32.11	0
3	28724	32.21	0
3	28815	32.31	0
3	28906	32.41	0
3	28997	32.51	0
3	29088	32.61	0
3	29179	32.71	0
3	29270	32.81	0
3	29361	32.91	0
3	29455	33.01	0
3	29546	33.11	0
3	29637	33.21	0
3	29728	33.31	0
3	29819	33.41	0
3	29910	33.51	0
3	30001	33.61	0
3	30092	33.71	0
3	30183	33.81	0
3	30274	33.91	0
3	30368	34.01	0
3	30459	34.11	0
3	30550	34.21	0
3	30641	34.31	0
3	30732	34.41	0
3	30823	34.51	0
3	30914	34.61	0
3	31005	34.71	0
3	31096	34.81	0
3	31187	34.91	0
3	31281	35.01	0
3	31372	35.11	0
3	31463	35.21	0
3	31554	35.31	0
3	31645	35.41	0
3	31736	35.51	0
3	31827	35.61	0
3	31918	35.71	0
3	32009	35.81	0
3	32100	35.91	0
3	32194	36.01	0
3	32285	36.11	0
3	32376	36.21	0
3	32467	36.31	0
3	32558	36.41	0
3	32649	36.51	0
3	32740	36.61	0
3	32831	36.71	0
3	32922	36.81	0
3	33013	36.91	0
3	33107	37.01	0
3	33198	37.11	0
3	33289	37.21	0
3	33380	37.31	0
3	33471	37.41	0
3	33562	37.51	0
3	33653	37.61	0
3	33744	37.71	0
3	33835	37.81	0
3	33926	37.91	0
3	34020	38.01	0
3	34111	38.11	0
3	34202	38.21	0
3	34293	38.31	0
3	34384	38.41	0
3	34475	38.51	0
3	34566	38.61	0
3	34657	38.71	0
3	34748	38.81	0
3	34839	38.91	0
3	34933	39.01	0
3	35024	39.11	0
3	35115	39.21	0
3	35206	39.31	0
3	35297	39.41	0
3	35388	39.51	0
3	35479	39.61	0
3	35570	39.71	0
3	35661	39.81	0
3	35752	39.91	0
3	35846	40.01	0
3	35937	40.11	0
3	36028	40.21	0
3	36119	40.31	0
3	36210	40.41	0
3	36301	40.51	0
3	36392	40.61	0
3	36483	40.71	0
3	36574	40.81	0
3	36665	40.91	0
3	36759	41.01	0
3	36850	41.11	0
3	36941	41.21	0
3	37032	41.31	0
3	37123	41.41	0
3	37214	41.51	0
3	37305	41.61	0
3	37396	41.71	0
3	37487	41.81	0
3	37578	41.91	0
3	37672	42.01	0
3	37763	42.11	0
3	37854	42.21	0
3	37945	42.31	0
3	38036	42.41	0
3	38127	42.51	0
3	38218	42.61	0
3	38309	42.71	0
3	38400	42.81	0
3	38491	42.91	0
3	38585	43.01	0
3	38676	43.11	0
3	38767	43.21	0
3	38858	43.31	0
3	38949	43.41	0
3	39040	43.51	0
3	39131	43.61	0
3	39222	43.71	0
3	39313	43.81	0
3	39404	43.91	0
3	39498	44.01	0
3	39589	44.11	0
3	39680	44.21	0
3	39771	44.31	0
3	39862	44.41	0
3	39953	44.51	0
3	40044	44.61	0
3	40135	44.71	0
3	40226	44.81	0
3	40317	44.91	0
3	40411	45.01	0
3	40502	45.11	0
3	40593	45.21	0
3	40684	45.31	0
3	40775	45.41	0
3	40866	45.51	0
3	40957	45.61	0
3	41048	45.71	0
3	41139	45.81	0
3	41230	45.91	0
3	41324	46.01	0
3	41415	46.11	0
3	41506	46.21	0
3	41597	46.31	0
3	41688	46.41	0
3	41779	46.51	0
3	41870	46.61	0
3	41961	46.71	0
3	42052	46.81	0
3	42143	46.91	0
3	42237	47.01	0
3	42328	47.11	0
3	42419	47.21	0
3	42510	47.31	0
3	42601	47.41	0
3	42692	47.51	0
3	42783	47.61	0
3	42874	47.71	0
3	42965	47.81	0
3	43056	47.91	0
3	43150	48.01	0
3	43241	48.11	0
3	43332	48.21	0
3	43423	48.31	0
3	43514	48.41	0
3	43605	48.51	0
3	43696	48.61	0
3	43787	48.71	0
3	43878	48.81	0
3	43969	48.91	0
3	44063	49.01	0
3	44154	49.11	0
3	44245	49.21	0
3	44336	49.31	0
3	44427	49.41	0
3	44518	49.51	0
3	44609	49.61	0
3	44700	49.71	0
3	44791	49.81	0
3	44882	49.91	0
3	44976	50.01	0
3	45067	50.11	0
3	45158	50.21	0
3	45249	50.31	0
3	45340	50.41	0
3	45431	50.51	0
3	45522	50.61	0
3	45613	50.71	0
3	45704	50.81	0
3	45795	50.91	0
3	45889	51.01	0
3	45980	51.11	0
3	46071	51.21	0
3	46162	51.31	0
3	46253	51.41	0
3	46344	51.51	0
3	46435	51.61	0
3	46526	51.71	0
3	46617	51.81	0
3	46708	51.91	0
3	46802	52.01	0
3	46893	52.11	0
3	46984	52.21	0
3	47075	52.31	0
3	47166	52.41	0
3	47257	52.51	0
3	47348	52.61	0
3	47439	52.71	0
3	47530	52.81	0
3	47621	52.91	0
3	47715	53.01	0
3	47806	53.11	0
3	47897	53.21	0
3	47988	53.31	0
3	48079	53.41	0
3	48170	53.51	0
3	48261	53.61	0
3	48352	53.71	0
3	48443	53.81	0
3	48534	53.91	0
3	48628	54.01	0
3	48719	54.11	0
3	48810	54.21	0
3	48901	54.31	0
3	48992	54.41	0
3	49083	54.51	0
3	49174	54.61	0
3	49265	54.71	0
3	49356	54.81	0
3	49447	54.91	0
3	49541	55.01	0
3	49632	55.11	0
3	49723	55.21	0
3	49814	55.31	0
3	49905	55.41	0
3	49996	55.51	0
3	50087	55.61	0
3	50178	55.71	0
3	50269	55.81	0
3	50360	55.91	0
3	50454	56.01	0
3	50545	56.11	0
3	50636	56.21	0
3	50727	56.31	0
3	50818	56.41	0
3	50909	56.51	0
3	51000	56.61	0
3	51091	56.71	0
3	51182	56.81	0
3	51273	56.91	0
3	51367	57.01	0
3	51458	57.11	0
3	51549	57.21	0
3	51640	57.31	0
3	51731	57.41	0
3	51822	57.51	0
3	51913	57.61	0
3	52004	57.71	0
3	52095	57.81	0
3	52186	57.91	0
3	52280	58.01	0
3	52371	58.11	0
3	52462	58.21	0
3	52553	58.31	0
3	52644	58.41	0
3	52735	58.51	0
3	52826	58.61	0
3	52917	58.71	0
3	53008	58.81	0
3	53099	58.91	0
3	53193	59.01	0
3	53284	59.11	0
3	53375	59.21	0
3	53466	59.31	0
3	53557	59.41	0
3	53648	59.51	0
3	53739	59.61	0
3	53830	59.71	0
3	53921	59.81	0
3	54012	59.91	0
3	54106	60.01	0
3	54197	60.11	0
3	54288	60.21	0
3	54379	60.31	0
3	54470	60.41	0
3	54561	60.51	0
3	54652	60.61	0
3	54743	60.71	0
3	54834	60.81	0
3	54925	60.91	0
3	55019	61.01	0
3	55110	61.11	0
3	55201	61.21	0
3	55292	61.31	0
3	55383	61.41	0
3	55474	61.51	0
3	55565	61.61	0
3	55656	61.71	0
3	55747	61.81	0
3	55838	61.91	0
3	55932	62.01	0
3	56023	62.11	0
3	56114	62.21	0
3	56205	62.31	0
3	56296	62.41	0
3	56387	62.51	0
3	56478	62.61	0
3	56569	62.71	0
3	56660	62.81	0
3	56751	62.91	0
3	56845	63.01	0
3	56936	63.11	0
3	57027	63.21	0
3	57118	63.31	0
3	57209	63.41	0
3	57300	63.51	0
3	57391	63.61	0
3	57482	63.71	0
3	57573	63.81	0
3	57664	63.91	0
3	57758	64.01	0
3	57849	64.11	0
3	57940	64.21	0
3	58031	64.31	0
3	58122	64.41	0
3	58213	64.51	0
3	58304	64.61	0
3	58395	64.71	0
3	58486	64.81	0
3	58577	64.91	0
3	58671	65.01	0
3	58762	65.11	0
3	58853	65.21	0
3	58944	65.31	0
3	59035	65.41	0
3	59126	65.51	0
3	59217	65.61	0
3	59308	65.71	0
3	59399	65.81	0
3	59490	65.91	0
3	59584	66.01	0
3	59675	66.11	0
3	59766	66.21	0
3	59857	66.31	0
3	59948	66.41	0
3	60039	66.51	0
3	60130	66.61	0
3	60221	66.71	0
3	60312	66.81	0
3	60403	66.91	0
3	60497	67.01	0
3	60588	67.11	0
3	60679	67.21	0
3	60770	67.31	0
3	60861	67.41	0
3	60952	67.51	0
3	61043	67.61	0
3	61134	67.71	0
3	61225	67.81	0
3	61316	67.91	0
3	61410	68.01	0
3	61501	68.11	0
3	61592	68.21	0
3	61683	68.31	0
3	61774	68.41	0
3	61865	68.51	0
3	61956	68.61	0
3	62047	68.71	0
3	62138	68.81	0
3	62229	68.91	0
3	62323	69.01	0
3	62414	69.11	0
3	62505	69.21	0
3	62596	69.31	0
3	62687	69.41	0
3	62778	69.51	0
3	62869	69.61	0
3	62960	69.71	0
3	63051	69.81	0
3	63142	69.91	0
3	63236	70.01	0
3	63327	70.11	0
3	63418	70.21	0
3	63509	70.31	0
3	63600	70.41	0
3	63691	70.51	0
3	63782	70.61	0
3	63873	70.71	0
3	63964	70.81	0
3	64055	70.91	0
3	64149	71.01	0
3	64240	71.11	0
3	64331	71.21	0
3	64422	71.31	0
3	64513	71.41	0
3	64604	71.51	0
3	64695	71.61	0
3	64786	71.71	0
3	64877	71.81	0
3	64968	71.91	0
3	65062	72.01	0
3	65153	72.11	0
3	65244	72.21	0
3	65335	72.31	0
3	65426	72.41	0
3	65517	72.51	0
3	65608	72.61	0
3	65699	72.71	0
3	65790	72.81	0
3	65881	72.91	0
3	65975	73.01	0
3	66066	73.11	0
3	66157	73.21	0
3	66248	73.31	0
3	66339	73.41	0
3	66430	73.51	0
3	66521	73.61	0
3	66612	73.71	0
3	66703	73.81	0
3	66794	73.91	0
3	66888	74.01	0
3	66979	74.11	0
3	67070	74.21	0
3	67161	74.31	0
3	67252	74.41	0
3	67343	74.51	0
3	67434	74.61	0
3	67525	74.71	0
3	67616	74.81	0
3	67707	74.91	0
3	67801	75.01	0
3	67892	75.11	0
3	67983	75.21	0
3	68074	75.31	0
3	68165	75.41	0
3	68256	75.51	0
3	68347	75.61	0
3	68438	75.71	0
3	68529	75.81	0
3	68620	75.91	0
3	68714	76.01	0
3	68805	76.11	0
3	68896	76.21	0
3	68987	76.31	0
3	69078	76.41	0
3	69169	76.51	0
3	69260	76.61	0
3	69351	76.71	0
3	69442	76.81	0
3	69533	76.91	0
3	69627	77.01	0
3	69718	77.11	0
3	69809	77.21	0
3	69900	77.31	0
3	69991	77.41	0
3	70082	77.51	0
3	70173	77.61	0
3	70264	77.71	0
3	70355	77.81	0
3	70446	77.91	0
3	70540	78.01	0
3	70631	78.11	0
3	70722	78.21	0
3	70813	78.31	0
3	70904	78.41	0
3	70995	78.51	0
3	71086	78.61	0
3	71177	78.71	0
3	71268	78.81	0
3	71359	78.91	0
3	71453	79.01	0
3	71544	79.11	0
3	71635	79.21	0
3	71726	79.31	0
3	71817	79.41	0
3	71908	79.51	0
3	71999	79.61	0
3	72090	79.71	0
3	72181	79.81	0
3	72272	79.91	0
3	72366	80.01	0
3	72457	80.11	0
3	72548	80.21	0
3	72639	80.31	0
3	72730	80.41	0
3	72821	80.51	0
3	72912	80.61	0
3	73003	80.71	0
3	73094	80.81	0
3	73185	80.91	0
3	73279	81.01	0
3	73370	81.11	0
3	73461	81.21	0
3	73552	81.31	0
3	73643	81.41	0
3	73734	81.51	0
3	73825	81.61	0
3	73916	81.71	0
3	74007	81.81	0
3	74098	81.91	0
3	74192	82.01	0
3	74283	82.11	0
3	74374	82.21	0
3	74465	82.31	0
3	74556	82.41	0
3	74647	82.51	0
3	74738	82.61	0
3	74829	82.71	0
3	74920	82.81	0
3	75011	82.91	0
3	75105	83.01	0
3	75196	83.11	0
3	75287	83.21	0
3	75378	83.31	0
3	75469	83.41	0
3	75560	83.51	0
3	75651	83.61	0
3	75742	83.71	0
3	75833	83.81	0
3	75924	83.91	0
3	76018	84.01	0
3	76109	84.11	0
3	76200	84.21	0
3	76291	84.31	0
3	76382	84.41	0
3	76473	84.51	0
3	76564	84.61	0
3	76655	84.71	0
3	76746	84.81	0
3	76837	84.91	0
3	76931	85.01	0
3	77022	85.11	0
3	77113	85.21	0
3	77204	85.31	0
3	77295	85.41	0
3	77386	85.51	0
3	77477	85.61	0
3	77568	85.71	0
3	77659	85.81	0
3	77750	85.91	0
3	77844	86.01	0
3	77935	86.11	0
3	78026	86.21	0
3	78117	86.31	0
3	78208	86.41	0
3	78299	86.51	0
3	78390	86.61	0
3	78481	86.71	0
3	78572	86.81	0
3	78663	86.91	0
3	78757	87.01	0
3	78848	87.11	0
3	78939	87.21	0
3	79030	87.31	0
3	79121	87.41	0
3	79212	87.51	0
3	79303	87.61	0
3	79394	87.71	0
3	79485	87.81	0
3	79576	87.91	0
3	79670	88.01	0
3	79761	88.11	0
3	79852	88.21	0
3	79943	88.31	0
3	80034	88.41	0
3	80125	88.51	0
3	80216	88.61	0
3	80307	88.71	0
3	80398	88.81	0
3	80489	88.91	0
3	80583	89.01	0
3	80674	89.11	0
3	80765	89.21	0
3	80856	89.31	0
3	80947	89.41	0
3	81038	89.51	0
3	81129	89.61	0
3	81220	89.71	0
3	81311	89.81	0
3	81402	89.91	0
3	81496	90.01	0
3	81587	90.11	0
3	81678	90.21	0
3	81769	90.31	0
3	81860	90.41	0
3	81951	90.51	0
3	82042	90.61	0
3	82133	90.71	0
3	82224	90.81	0
3	82315	90.91	0
3	82409	91.01	0
3	82500	91.11	0
3	82591	91.21	0
3	82682	91.31	0
3	82773	91.41	0
3	82864	91.51	0
3	82955	91.61	0
3	83046	91.71	0
[...]
31	70714	78.202585498706	2
31	70805	78.302590554064	2
31	70896	78.402582611036	2
31	70987	78.502587669622	2
31	71078	78.602592729822	2
31	71169	78.702584791636	2
31	71260	78.802589855064	2
31	71351	78.902581920108	2
31	71445	79.002586986765	2
31	71536	79.102592055038	2
31	71627	79.202584124926	2
31	71718	79.302589196429	2
31	71809	79.402581269548	2
31	71900	79.502586344283	2
31	71991	79.602591420633	2
31	72082	79.7025834986	2
31	72173	79.802588578183	2
31	72264	79.902593659382	2
31	72358	80.002585742198	2
31	72449	80.10259082663	2
31	72540	80.202582912679	2
31	72631	80.302588000345	2
31	72722	80.402593089628	2
31	72813	80.502585180528	2
31	72904	80.602590273046	2
31	72995	80.702582367181	2
31	73086	80.802587462934	2
31	73177	80.902592560305	2
31	73271	81.002584659293	2
31	73362	81.1025897599	2
31	73453	81.202581862125	2
31	73544	81.302586965968	2
31	73635	81.40259207143	2
31	73726	81.50258417851	2
31	73817	81.602589287209	2
31	73908	81.702581397526	2
31	73999	81.802586509461	2
31	74090	81.902591623016	2
31	74184	82.00258373819	2
31	74275	82.102588854983	2
31	74366	82.202593973396	2
31	74457	82.302586093428	2
31	74548	82.402591215079	2
31	74639	82.50258333835	2
31	74730	82.602588463241	2
31	74821	82.702593589752	2
31	74912	82.802585717883	2
31	75003	82.902590847634	2
31	75097	83.002582979006	2
31	75188	83.102588111998	2
31	75279	83.20259324661	2
31	75370	83.302585382843	2
31	75461	83.402590520696	2
31	75552	83.502582660169	2
31	75643	83.602587801264	2
31	75734	83.702592943979	2
31	75825	83.802585088316	2
31	75916	83.902590234274	2
31	76010	84.002582381852	2
31	76101	84.102587531052	2
31	76192	84.202592681873	2
31	76283	84.302584834315	2
31	76374	84.402589988379	2
31	76465	84.502582144065	2
31	76556	84.602587301372	2
31	76647	84.702592460301	2
31	76738	84.802584620852	2
31	76829	84.902589783025	2
31	76923	85.00258194682	2
31	77014	85.102587112236	2
31	77105	85.202592279275	2
31	77196	85.302584447936	2
31	77287	85.402589618219	2
31	77378	85.502581790125	2
31	77469	85.602586963653	2
31	77560	85.702592138803	2
31	77651	85.802584315576	2
31	77742	85.90258949397	2
31	77836	86.002581673989	2
31	77927	86.10258685563	2
31	78018	86.202592038894	2
31	78109	86.302584223781	2
31	78200	86.402589410291	2
31	78291	86.502581598423	2
31	78382	86.602586788179	2
31	78473	86.702591979558	2
31	78564	86.802584172559	2
31	78655	86.902589367184	2
31	78749	87.002581563432	2
31	78840	87.102586761304	2
31	78931	87.202591960799	2
31	79022	87.302584161917	2
31	79113	87.40258936466	2
31	79204	87.502581569026	2
31	79295	87.602586775016	2
31	79386	87.702591982629	2
31	79477	87.802584191866	2
31	79568	87.902589402726	2
31	79662	88.002581615211	2
31	79753	88.102586829319	2
31	79844	88.202592045052	2
31	79935	88.302584262409	2
31	80026	88.402589481389	2
31	80117	88.502581701994	2
31	80208	88.602586924223	2
31	80299	88.702592148076	2
31	80390	88.802584373554	2
31	80481	88.902589600656	2
31	80575	89.002581829382	2
31	80666	89.102587059733	2
31	80757	89.202592291708	2
31	80848	89.302584525308	2
31	80939	89.402589760532	2
31	81030	89.50258199738	2
31	81121	89.602587235854	2
31	81212	89.702592475952	2
31	81303	89.802584717674	2
31	81394	89.902589961022	2
31	81488	90.002582205994	2
31	81579	90.102587452591	2
31	81670	90.202592700813	2
31	81761	90.30258495066	2
31	81852	90.402590202132	2
31	81943	90.502582455229	2
31	82034	90.602587709951	2
31	82125	90.702592966298	2
31	82216	90.80258522427	2
31	82307	90.902590483867	2
31	82401	91.00258274509	2
31	82492	91.102588007938	2
31	82583	91.202593272411	2
31	82674	91.30258553851	2
31	82765	91.402590806234	2
31	82856	91.502583075584	2
31	82947	91.602588346559	2
31	83038	91.702593619159	2
31	83129	91.802585893385	2
31	83220	91.902591169236	2
31	83314	92.002583446712	2
31	83405	92.102588725815	2
31	83496	92.202594006544	2
31	83587	92.302586288898	2
31	83678	92.402591572878	2
31	83769	92.502583858484	2
31	83860	92.602589145716	2
31	83951	92.702581434574	2
31	84042	92.802586725057	2
31	84133	92.902592017167	2
31	84227	93.002584310902	2
31	84318	93.102589606263	2
31	84409	93.20258190325	2
31	84500	93.302587201863	2
31	84591	93.402592502102	2
31	84682	93.502584803967	2
31	84773	93.602590107458	2
31	84864	93.702582412576	2
31	84955	93.80258771932	2
31	85046	93.902593027689	2
31	85140	94.002585337685	2
31	85231	94.102590649307	2
31	85322	94.202582962555	2
31	85413	94.30258827743	2
31	85504	94.402593593931	2
31	85595	94.502585912058	2
31	85686	94.602591231812	2
31	85777	94.702583553192	2
31	85868	94.802588876199	2
31	85959	94.902581200832	2
31	86053	95.002586527091	2
31	86144	95.102591854977	2
31	86235	95.202584184489	2
31	86326	95.302589515628	2
31	86417	95.402581848394	2
31	86508	95.502587182786	2
31	86599	95.602592518804	2
31	86690	95.702584856449	2
31	86781	95.802590195721	2
31	86872	95.90258253662	2
31	86966	96.002587879145	2
31	87057	96.102593223297	2
31	87148	96.202585569076	2
31	87239	96.302590916482	2
31	87330	96.402583265514	2
31	87421	96.502588616173	2
31	87512	96.602593968459	2
31	87603	96.702586322371	2
31	87694	96.802591677911	2
31	87785	96.902584035078	2
31	87879	97.002589393873	2
31	87970	97.102581754295	2
31	88061	97.202587116343	2
31	88152	97.302592480019	2
31	88243	97.402584845322	2
31	88334	97.502590212251	2
31	88425	97.602582580808	2
31	88516	97.702587950992	2
31	88607	97.802593322802	2
31	88698	97.90258569624	2
31	88792	98.002591071305	2
31	88883	98.102583447998	2
31	88974	98.202588826318	2
31	89065	98.302581206264	2
31	89156	98.402586587838	2
31	89247	98.502591971039	2
31	89338	98.602584355867	2
31	89429	98.702589742323	2
31	89520	98.802582130406	2
31	89611	98.902587520116	2
31	89705	99.002592911454	2
31	89796	99.10258530442	2
31	89887	99.202590699013	2
31	89978	99.302583095233	2
31	90069	99.40258849308	2
31	90160	99.502593892555	2
31	90251	99.602586293657	2
31	90342	99.702591696386	2
31	90433	99.802584100743	2
31	90524	99.902589506727	2
32	905	2	0
32	1818	3	0
32	2731	4	0
32	3644	5	0
32	4557	6	0
32	5470	7	0
32	6383	8	0
32	7296	9	0
32	8210	10	0
32	9339	11	0
32	10252	12	0
32	11165	13	0
32	12078	14	0
32	12991	15	0
32	13904	16	0
32	14817	17	0
32	15730	18	0
32	16643	19	0
32	17556	20	0
32	18469	21	0
32	19382	22	0
32	20295	23	0
32	21208	24	0
32	22121	25	0
32	23034	26	0
32	23947	27	0
32	24860	28	0
32	25773	29	0
32	26686	30	0
32	27599	31	0
32	28512	32	0
32	29425	33	0
32	30338	34	0
32	31251	35	0
32	32164	36	0
32	33077	37	0
32	33990	38	0
32	34903	39	0
32	35816	40	0
32	36729	41	0
32	37642	42	0
32	38555	43	0
32	39468	44	0
32	40381	45	0
32	41294	46	0
32	42207	47	0
32	43120	48	0
32	44033	49	0
32	44946	50	0
32	45859	51	0
32	46772	52	0
32	47685	53	0
32	48598	54	0
32	49511	55	0
32	50424	56	0
32	51337	57	0
32	52250	58	0
32	53163	59	0
32	54076	60	0
32	54989	61	0
32	55902	62	0
32	56815	63	0
32	57728	64	0
32	58641	65	0
32	59554	66	0
32	60467	67	0
32	61380	68	0
32	62293	69	0
32	63206	70	0
32	64119	71	0
32	65032	72	0
32	65945	73	0
32	66858	74	0
32	67771	75	0
32	68684	76	0
32	69597	77	0
32	70510	78	0
32	71423	79	0
32	72336	80	0
32	73249	81	0
32	74162	82	0
32	75075	83	0
32	75988	84	0
32	76901	85	0
32	77814	86	0
32	78727	87	0
32	79640	88	0
32	80553	89	0
32	81466	90	0
32	82379	91	0
32	83292	92	0
32	84205	93	0
32	85118	94	0
32	86031	95	0
32	86944	96	0
32	87857	97	0
32	88770	98	0
32	89683	99	0
32	90596	100	0
33	905	2	0.008121
33	1818	3	0.00937
33	2731	4	0.00937
33	3644	5	0.00937
33	4557	6	0.00937
33	5470	7	0.00937
33	6383	8	0.00937
33	7296	9	0.00937
33	8210	10	0.00937
33	9339	11	0.009997120074
33	10252	12	0.00937
33	11165	13	0.00937
33	12078	14	0.00937
33	12991	15	0.00937
33	13904	16	0.00937
33	14817	17	0.00937
33	15730	18	0.00937
33	16643	19	0.00937
33	17556	20	0.00937
33	18469	21	0.00937
33	19382	22	0.00937
33	20295	23	0.00937
33	21208	24	0.00937
33	22121	25	0.00937
33	23034	26	0.00937
33	23947	27	0.00937
33	24860	28	0.00937
33	25773	29	0.00937
33	26686	30	0.00937
33	27599	31	0.00937
33	28512	32	0.00937
33	29425	33	0.00937
33	30338	34	0.00937
33	31251	35	0.00937
33	32164	36	0.00937
33	33077	37	0.00937
33	33990	38	0.00937
33	34903	39	0.00937
33	35816	40	0.00937
33	36729	41	0.00937
33	37642	42	0.00937
33	38555	43	0.00937
33	39468	44	0.00937
33	40381	45	0.00937
33	41294	46	0.00937
33	42207	47	0.00937
33	43120	48	0.00937
33	44033	49	0.00937
33	44946	50	0.00937
33	45859	51	0.00937
33	46772	52	0.00937
33	47685	53	0.00937
33	48598	54	0.00937
33	49511	55	0.00937
33	50424	56	0.00937
33	51337	57	0.00937
33	52250	58	0.00937
33	53163	59	0.00937
33	54076	60	0.00937
33	54989	61	0.00937
33	55902	62	0.00937
33	56815	63	0.00937
33	57728	64	0.00937
33	58641	65	0.00937
33	59554	66	0.00937
33	60467	67	0.00937
33	61380	68	0.00937
33	62293	69	0.00937
33	63206	70	0.00937
33	64119	71	0.00937
33	65032	72	0.00937
33	65945	73	0.00937
33	66858	74	0.00937
33	67771	75	0.00937
33	68684	76	0.00937
33	69597	77	0.00937
33	70510	78	0.00937
33	71423	79	0.00937
33	72336	80	0.00937
33	73249	81	0.00937
33	74162	82	0.00937
33	75075	83	0.00937
33	75988	84	0.00937
33	76901	85	0.00937
33	77814	86	0.00937
33	78727	87	0.00937
33	79640	88	0.00937
33	80553	89	0.00937
33	81466	90	0.00937
33	82379	91	0.00937
33	83292	92	0.00937
33	84205	93	0.00937
33	85118	94	0.00937
33	86031	95	0.00937
33	86944	96	0.00937
33	87857	97	0.00937
33	88770	98	0.00937
33	89683	99	0.00937
33	90596	100	0.00937
34	905	2	0
34	1818	3	0
34	2731	4	0
34	3644	5	0
34	4557	6	0
34	5470	7	0
34	6383	8	0
34	7296	9	0
34	8210	10	0
34	9339	11	0
34	10252	12	0
34	11165	13	0
34	12078	14	0
34	12991	15	0
34	13904	16	0
34	14817	17	0
34	15730	18	0
34	16643	19	0
34	17556	20	0
34	18469	21	0
34	19382	22	0
34	20295	23	0
34	21208	24	0
34	22121	25	0
34	23034	26	0
34	23947	27	0
34	24860	28	0
34	25773	29	0
34	26686	30	0
34	27599	31	0
34	28512	32	0
34	29425	33	0
34	30338	34	0
34	31251	35	0
34	32164	36	0
34	33077	37	0
34	33990	38	0
34	34903	39	0
34	35816	40	0
34	36729	41	0
34	37642	42	0
34	38555	43	0
34	39468	44	0
34	40381	45	0
34	41294	46	0
34	42207	47	0
34	43120	48	0
34	44033	49	0
34	44946	50	0
34	45859	51	0
34	46772	52	0
34	47685	53	0
34	48598	54	0
34	49511	55	0
34	50424	56	0
34	51337	57	0
34	52250	58	0
34	53163	59	0
34	54076	60	0
34	54989	61	0
34	55902	62	0
34	56815	63	0
34	57728	64	0
34	58641	65	0
34	59554	66	0
34	60467	67	0
34	61380	68	0
34	62293	69	0
34	63206	70	0
34	64119	71	0
34	65032	72	0
34	65945	73	0
34	66858	74	0
34	67771	75	0
34	68684	76	0
34	69597	77	0
34	70510	78	0
34	71423	79	0
34	72336	80	0
34	73249	81	0
34	74162	82	0
34	75075	83	0
34	75988	84	0
34	76901	85	0
34	77814	86	0
34	78727	87	0
34	79640	88	0
34	80553	89	0
34	81466	90	0
34	82379	91	0
34	83292	92	0
34	84205	93	0
34	85118	94	0
34	86031	95	0
34	86944	96	0
34	87857	97	0
34	88770	98	0
34	89683	99	0
34	90596	100	0
35	906	2	1
35	1819	3	1
35	2732	4	1
35	3645	5	1
35	4558	6	1
35	5471	7	1
35	6384	8	1
35	7297	9	1
35	8211	10	1
35	9340	11	1
35	10253	12	1
35	11166	13	1
35	12079	14	1
35	12992	15	1
35	13905	16	1
35	14818	17	1
35	15731	18	1
35	16644	19	1
35	17557	20	1
35	18470	21	1
35	19383	22	1
35	20296	23	1
35	21209	24	1
35	22122	25	1
35	23035	26	1
35	23948	27	1
35	24861	28	1
35	25774	29	1
35	26687	30	1
35	27600	31	1
35	28513	32	1
35	29426	33	1
35	30339	34	1
35	31252	35	1
35	32165	36	1
35	33078	37	1
35	33991	38	1
35	34904	39	1
35	35817	40	1
35	36730	41	1
35	37643	42	1
35	38556	43	1
35	39469	44	1
35	40382	45	1
35	41295	46	1
35	42208	47	1
35	43121	48	1
35	44034	49	1
35	44947	50	1
35	45860	51	1
35	46773	52	1
35	47686	53	1
35	48599	54	1
35	49512	55	1
35	50425	56	1
35	51338	57	1
35	52251	58	1
35	53164	59	1
35	54077	60	1
35	54990	61	1
35	55903	62	1
35	56816	63	1
35	57729	64	1
35	58642	65	1
35	59555	66	1
35	60468	67	1
35	61381	68	1
35	62294	69	1
35	63207	70	1
35	64120	71	1
35	65033	72	1
35	65946	73	1
35	66859	74	1
35	67772	75	1
35	68685	76	1
35	69598	77	1
35	70511	78	1
35	71424	79	1
35	72337	80	1
35	73250	81	1
35	74163	82	1
35	75076	83	1
35	75989	84	1
35	76902	85	1
35	77815	86	1
35	78728	87	1
35	79641	88	1
35	80554	89	1
35	81467	90	1
35	82380	91	1
35	83293	92	1
35	84206	93	1
35	85119	94	1
35	86032	95	1
35	86945	96	1
35	87858	97	1
35	88771	98	1
35	89684	99	1
35	90597	100	1
36	906	2	0.00812
36	1819	3	0.00937
36	2732	4	0.00937
36	3645	5	0.00937
36	4558	6	0.00937
36	5471	7	0.00937
36	6384	8	0.00937
36	7297	9	0.00937
36	8211	10	0.00937
36	9340	11	0.009931040024
36	10253	12	0.00937
36	11166	13	0.00937
36	12079	14	0.00937
36	12992	15	0.00937
36	13905	16	0.00937
36	14818	17	0.00937
36	15731	18	0.00937
36	16644	19	0.00937
36	17557	20	0.00937
36	18470	21	0.00937
36	19383	22	0.00937
36	20296	23	0.00937
36	21209	24	0.00937
36	22122	25	0.00937
36	23035	26	0.00937
36	23948	27	0.00937
36	24861	28	0.00937
36	25774	29	0.00937
36	26687	30	0.00937
36	27600	31	0.00937
36	28513	32	0.00937
36	29426	33	0.00937
36	30339	34	0.00937
36	31252	35	0.00937
36	32165	36	0.00937
36	33078	37	0.00937
36	33991	38	0.00937
36	34904	39	0.00937
36	35817	40	0.00937
36	36730	41	0.00937
36	37643	42	0.00937
36	38556	43	0.00937
36	39469	44	0.00937
36	40382	45	0.00937
36	41295	46	0.00937
36	42208	47	0.00937
36	43121	48	0.00937
36	44034	49	0.00937
36	44947	50	0.00937
36	45860	51	0.00937
36	46773	52	0.00937
36	47686	53	0.00937
36	48599	54	0.00937
36	49512	55	0.00937
36	50425	56	0.00937
36	51338	57	0.00937
36	52251	58	0.00937
36	53164	59	0.00937
36	54077	60	0.00937
36	54990	61	0.00937
36	55903	62	0.00937
36	56816	63	0.00937
36	57729	64	0.00937
36	58642	65	0.00937
36	59555	66	0.00937
36	60468	67	0.00937
36	61381	68	0.00937
36	62294	69	0.00937
36	63207	70	0.00937
36	64120	71	0.00937
36	65033	72	0.00937
36	65946	73	0.00937
36	66859	74	0.00937
36	67772	75	0.00937
36	68685	76	0.00937
36	69598	77	0.00937
36	70511	78	0.00937
36	71424	79	0.00937
36	72337	80	0.00937
36	73250	81	0.00937
36	74163	82	0.00937
36	75076	83	0.00937
36	75989	84	0.00937
36	76902	85	0.00937
36	77815	86	0.00937
36	78728	87	0.00937
36	79641	88	0.00937
36	80554	89	0.00937
36	81467	90	0.00937
36	82380	91	0.00937
36	83293	92	0.00937
36	84206	93	0.00937
36	85119	94	0.00937
36	86032	95	0.00937
36	86945	96	0.00937
36	87858	97	0.00937
36	88771	98	0.00937
36	89684	99	0.00937
36	90597	100	0.00937
37	906	2	0
37	1819	3	0
37	2732	4	0
37	3645	5	0
37	4558	6	0
37	5471	7	0
37	6384	8	0
37	7297	9	0
37	8211	10	0
37	9340	11	0
37	10253	12	0
37	11166	13	0
37	12079	14	0
37	12992	15	0
37	13905	16	0
37	14818	17	0
37	15731	18	0
37	16644	19	0
37	17557	20	0
37	18470	21	0
37	19383	22	0
37	20296	23	0
37	21209	24	0
37	22122	25	0
37	23035	26	0
37	23948	27	0
37	24861	28	0
37	25774	29	0
37	26687	30	0
37	27600	31	0
37	28513	32	0
37	29426	33	0
37	30339	34	0
37	31252	35	0
37	32165	36	0
37	33078	37	0
37	33991	38	0
37	34904	39	0
37	35817	40	0
37	36730	41	0
37	37643	42	0
37	38556	43	0
37	39469	44	0
37	40382	45	0
37	41295	46	0
37	42208	47	0
37	43121	48	0
37	44034	49	0
37	44947	50	0
37	45860	51	0
37	46773	52	0
37	47686	53	0
37	48599	54	0
37	49512	55	0
37	50425	56	0
37	51338	57	0
37	52251	58	0
37	53164	59	0
37	54077	60	0
37	54990	61	0
37	55903	62	0
37	56816	63	0
37	57729	64	0
37	58642	65	0
37	59555	66	0
37	60468	67	0
37	61381	68	0
37	62294	69	0
37	63207	70	0
37	64120	71	0
37	65033	72	0
37	65946	73	0
37	66859	74	0
37	67772	75	0
37	68685	76	0
37	69598	77	0
37	70511	78	0
37	71424	79	0
37	72337	80	0
37	73250	81	0
37	74163	82	0
37	75076	83	0
37	75989	84	0
37	76902	85	0
37	77815	86	0
37	78728	87	0
37	79641	88	0
37	80554	89	0
37	81467	90	0
37	82380	91	0
37	83293	92	0
37	84206	93	0
37	85119	94	0
37	86032	95	0
37	86945	96	0
37	87858	97	0
37	88771	98	0
37	89684	99	0
37	90597	100	0
38	907	2	2
38	1820	3	2
38	2733	4	2
38	3646	5	2
38	4559	6	2
38	5472	7	2
38	6385	8	2
38	7298	9	2
38	8212	10	2
38	9341	11	2
38	10254	12	2
38	11167	13	2
38	12080	14	2
38	12993	15	2
38	13906	16	2
38	14819	17	2
38	15732	18	2
38	16645	19	2
38	17558	20	2
38	18471	21	2
38	19384	22	2
38	20297	23	2
38	21210	24	2
38	22123	25	2
38	23036	26	2
38	23949	27	2
38	24862	28	2
38	25775	29	2
38	26688	30	2
38	27601	31	2
38	28514	32	2
38	29427	33	2
38	30340	34	2
38	31253	35	2
38	32166	36	2
38	33079	37	2
38	33992	38	2
38	34905	39	2
38	35818	40	2
38	36731	41	2
38	37644	42	2
38	38557	43	2
38	39470	44	2
38	40383	45	2
38	41296	46	2
38	42209	47	2
38	43122	48	2
38	44035	49	2
38	44948	50	2
38	45861	51	2
38	46774	52	2
38	47687	53	2
38	48600	54	2
38	49513	55	2
38	50426	56	2
38	51339	57	2
38	52252	58	2
38	53165	59	2
38	54078	60	2
38	54991	61	2
38	55904	62	2
38	56817	63	2
38	57730	64	2
38	58643	65	2
38	59556	66	2
38	60469	67	2
38	61382	68	2
38	62295	69	2
38	63208	70	2
38	64121	71	2
38	65034	72	2
38	65947	73	2
38	66860	74	2
38	67773	75	2
38	68686	76	2
38	69599	77	2
38	70512	78	2
38	71425	79	2
38	72338	80	2
38	73251	81	2
38	74164	82	2
38	75077	83	2
38	75990	84	2
38	76903	85	2
38	77816	86	2
38	78729	87	2
38	79642	88	2
38	80555	89	2
38	81468	90	2
38	82381	91	2
38	83294	92	2
38	84207	93	2
38	85120	94	2
38	86033	95	2
38	86946	96	2
38	87859	97	2
38	88772	98	2
38	89685	99	2
38	90598	100	2
39	907	2	0.008121
39	1820	3	0.00937
39	2733	4	0.00937
39	3646	5	0.00937
39	4559	6	0.00937
39	5472	7	0.00937
39	6385	8	0.00937
39	7298	9	0.00937
39	8212	10	0.00937
39	9341	11	0.009964120074
39	10254	12	0.00937
39	11167	13	0.00937
39	12080	14	0.00937
39	12993	15	0.00937
39	13906	16	0.00937
39	14819	17	0.00937
39	15732	18	0.00937
39	16645	19	0.00937
39	17558	20	0.00937
39	18471	21	0.00937
39	19384	22	0.00937
39	20297	23	0.00937
39	21210	24	0.00937
39	22123	25	0.00937
39	23036	26	0.00937
39	23949	27	0.00937
39	24862	28	0.00937
39	25775	29	0.00937
39	26688	30	0.00937
39	27601	31	0.00937
39	28514	32	0.00937
39	29427	33	0.00937
39	30340	34	0.00937
39	31253	35	0.00937
39	32166	36	0.00937
39	33079	37	0.00937
39	33992	38	0.00937
39	34905	39	0.00937
39	35818	40	0.00937
39	36731	41	0.00937
39	37644	42	0.00937
39	38557	43	0.00937
39	39470	44	0.00937
39	40383	45	0.00937
39	41296	46	0.00937
39	42209	47	0.00937
39	43122	48	0.00937
39	44035	49	0.00937
39	44948	50	0.00937
39	45861	51	0.00937
39	46774	52	0.00937
39	47687	53	0.00937
39	48600	54	0.00937
39	49513	55	0.00937
39	50426	56	0.00937
39	51339	57	0.00937
39	52252	58	0.00937
39	53165	59	0.00937
39	54078	60	0.00937
39	54991	61	0.00937
39	55904	62	0.00937
39	56817	63	0.00937
39	57730	64	0.00937
39	58643	65	0.00937
39	59556	66	0.00937
39	60469	67	0.00937
39	61382	68	0.00937
39	62295	69	0.00937
39	63208	70	0.00937
39	64121	71	0.00937
39	65034	72	0.00937
39	65947	73	0.00937
39	66860	74	0.00937
39	67773	75	0.00937
39	68686	76	0.00937
39	69599	77	0.00937
39	70512	78	0.00937
39	71425	79	0.00937
39	72338	80	0.00937
39	73251	81	0.00937
39	74164	82	0.00937
39	75077	83	0.00937
39	75990	84	0.00937
39	76903	85	0.00937
39	77816	86	0.00937
39	78729	87	0.00937
39	79642	88	0.00937
39	80555	89	0.00937
39	81468	90	0.00937
39	82381	91	0.00937
39	83294	92	0.00937
39	84207	93	0.00937
39	85120	94	0.00937
39	86033	95	0.00937
39	86946	96	0.00937
39	87859	97	0.00937
39	88772	98	0.00937
39	89685	99	0.00937
39	90598	100	0.00937
40	907	2	0
40	1820	3	0
40	2733	4	0
40	3646	5	0
40	4559	6	0
40	5472	7	0
40	6385	8	0
40	7298	9	0
40	8212	10	0
40	9341	11	0
40	10254	12	0
40	11167	13	0
40	12080	14	0
40	12993	15	0
40	13906	16	0
40	14819	17	0
40	15732	18	0
40	16645	19	0
40	17558	20	0
40	18471	21	0
40	19384	22	0
40	20297	23	0
40	21210	24	0
40	22123	25	0
40	23036	26	0
40	23949	27	0
40	24862	28	0
40	25775	29	0
40	26688	30	0
40	27601	31	0
40	28514	32	0
40	29427	33	0
40	30340	34	0
40	31253	35	0
40	32166	36	0
40	33079	37	0
40	33992	38	0
40	34905	39	0
40	35818	40	0
40	36731	41	0
40	37644	42	0
40	38557	43	0
40	39470	44	0
40	40383	45	0
40	41296	46	0
40	42209	47	0
40	43122	48	0
40	44035	49	0
40	44948	50	0
40	45861	51	0
40	46774	52	0
40	47687	53	0
40	48600	54	0
40	49513	55	0
40	50426	56	0
40	51339	57	0
40	52252	58	0
40	53165	59	0
40	54078	60	0
40	54991	61	0
40	55904	62	0
40	56817	63	0
40	57730	64	0
40	58643	65	0
40	59556	66	0
40	60469	67	0
40	61382	68	0
40	62295	69	0
40	63208	70	0
40	64121	71	0
40	65034	72	0
40	65947	73	0
40	66860	74	0
40	67773	75	0
40	68686	76	0
40	69599	77	0
40	70512	78	0
40	71425	79	0
40	72338	80	0
40	73251	81	0
40	74164	82	0
40	75077	83	0
40	75990	84	0
40	76903	85	0
40	77816	86	0
40	78729	87	0
40	79642	88	0
40	80555	89	0
40	81468	90	0
40	82381	91	0
40	83294	92	0
40	84207	93	0
40	85120	94	0
40	86033	95	0
40	86946	96	0
40	87859	97	0
40	88772	98	0
40	89685	99	0
40	90598	100	0

