file 1095237 1720617345                                         
version 3
run BreakRanksNoGui-84-20240710-15:15:40-259705
attr configname BreakRanksNoGui
attr datetime 20240710-15:15:40
attr datetimef 20240710-151540
attr experiment BreakRanksNoGui
attr inifile omnetpp.ini
attr iterationvars "$nCars=4, $platoonSize=4, $nLanes=1, $ploegH=0.5, $controller=1, $headway=0.1, $leaderHeadway=1.2, $leaderSpeed=110, $breakRanksSafetyDistance=2, $minSpeed=100, $maxSpeed=120, $beaconInterval=0.1, $priority=4, $packetSize=200, $sController=\"CACC\", $0=2, $1=0"
attr iterationvarsd nCars=4/platoonSize=4/nLanes=1/ploegH=0.5/controller=1/headway=0.1/leaderHeadway=1.2/leaderSpeed=110/breakRanksSafetyDistance=2/minSpeed=100/maxSpeed=120/beaconInterval=0.1/priority=4/packetSize=200/sController=CACC/2/0
attr iterationvarsf nCars=4,platoonSize=4,nLanes=1,ploegH=0.5,controller=1,headway=0.1,leaderHeadway=1.2,leaderSpeed=110,breakRanksSafetyDistance=2,minSpeed=100,maxSpeed=120,beaconInterval=0.1,priority=4,packetSize=200,sController=CACC,2,0-
attr measurement "$nCars=4, $platoonSize=4, $nLanes=1, $ploegH=0.5, $controller=1, $headway=0.1, $leaderHeadway=1.2, $leaderSpeed=110, $breakRanksSafetyDistance=2, $minSpeed=100, $maxSpeed=120, $beaconInterval=0.1, $priority=4, $packetSize=200, $sController=\"CACC\", $0=2, $1=0"
attr network Highway
attr processid 259705
attr repetition 4
attr replication #4
attr resultdir results
attr runnumber 84
attr seedset 4
itervar beaconInterval 0.1
itervar breakRanksSafetyDistance 2
itervar controller 1
itervar headway 0.1
itervar leaderHeadway 1.2
itervar leaderSpeed 110
itervar maxSpeed 120
itervar minSpeed 100
itervar nCars 4
itervar nLanes 1
itervar packetSize 200
itervar platoonSize 4
itervar ploegH 0.5
itervar priority 4
itervar sController "\"CACC\""
config image-path ../../../veins/images
config repeat 10
config extends BreakRanks
config *.manager.command "\"sumo\""
config *.manager.ignoreGuiCommands true
config output-vector-file "results/BreakRanks_1_0.1_110_2_4 /result_4.vec"
config output-scalar-file "results/BreakRanks_1_0.1_110_2_4 /result_4.sca"
config extends Platooning
config *.node[*].scenario_type "\"BreakRanksScenario\""
config *.manager.command "\"sumo-gui\""
config *.node[*].scenario_type "\"SimpleScenario\""
config cmdenv-express-mode true
config cmdenv-autoflush true
config cmdenv-status-frequency 15s
config num-rngs 6
config network Highway
config debug-on-errors true
config print-undisposed true
config *.playgroundSizeX 65000m
config *.playgroundSizeY 25000m
config *.playgroundSizeZ 50m
config sim-time-limit "100 s"
config *.annotations.draw false
config *.obstacles.debug false
config *.world.useTorus false
config *.world.use2D false
config *.manager.updateInterval 0.01s
config *.manager.host "\"localhost\""
config *.manager.moduleType "\"org.car2x.plexe.PlatoonCar\""
config *.manager.moduleName "\"node\""
config *.manager.moduleDisplayString "\"\""
config *.manager.autoShutdown true
config *.manager.margin 25
config *.connectionManager.sendDirect true
config *.connectionManager.maxInterfDist 2600m
config *.connectionManager.drawMaxIntfDist false
config *.**.nic.mac1609_4.useServiceChannel false
config *.**.nic.mac1609_4.txPower 100mW
config *.**.nic.mac1609_4.bitrate 6Mbps
config *.**.nic.mac1609_4.useAcks true
config *.**.nic.mac1609_4.ackErrorRate 0.0
config *.**.nic.mac1609_4.frameErrorRate 0.0
config *.**.nic.phy80211p.minPowerLevel -94dBm
config *.**.nic.phy80211p.maxTXPower 100mW
config *.**.nic.phy80211p.useNoiseFloor true
config *.**.nic.phy80211p.noiseFloor -95dBm
config *.**.nic.phy80211p.decider "xmldoc(\"config.xml\")"
config *.**.nic.phy80211p.analogueModels "xmldoc(\"config.xml\")"
config *.**.nic.phy80211p.usePropagationDelay true
config *.node[*].mobility.x 0
config *.node[*].mobility.y 0
config *.node[*].mobility.z 1.895
config seed-set 4
config **.seed 4
config *.node[*].prot.rng-0 2
config *.node[*].appl.rng-0 3
config *.node[*].scenario.rng-0 4
config **.traffic.rng-0 5
config *.manager.configFile "\"./sumocfg/freeway.sumo.cfg\""
config *.manager.launchConfig "xmldoc(\"./sumocfg/freeway.launchd.xml\")"
config **.numberOfCars 4
config **.numberOfCarsPerPlatoon 4
config **.numberOfLanes 1
config *.node[*].helper_type "\"PositionHelper\""
config *.node[*].scenario.caccC1 0.5
config *.node[*].scenario.caccXi 1
config *.node[*].scenario.caccOmegaN "0.2 Hz"
config *.node[*].scenario.caccSpacing "2 m"
config *.node[*].scenario.engineTau "0.5 s"
config *.node[*].scenario.ploegH 0.5s
config *.node[*].scenario.ploegKp 0.2
config *.node[*].scenario.ploegKd 0.7
config *.node[*].scenario.useRealisticEngine false
config *.node[*].scenario.useControllerAcceleration true
config *.node[*].scenario.nLanes 1
config **.numericController 1
config **.headway 0.1s
config *.node[*].scenario.accHeadway 0.1s
config *.node[*].scenario.leaderHeadway 1.2s
config *.node[*].scenario.leaderSpeed 110kmph
config *.node[*].appl_type "\"SimplePlatooningApp\""
config *.node[*].appl.*.scalar-recording true
config *.node[*].appl.*.vector-recording true
config *.node[0].appl.breakRanksSafetyDistance 2m
config *.node[*].appl.minSpeed 100kmph
config *.node[*].appl.maxSpeed 120kmph
config *.node[*].protocol_type "\"SimplePlatooningBeaconing\""
config *.node[*].prot.*.scalar-recording true
config *.node[*].prot.*.vector-recording true
config *.node[*].prot.beaconingInterval 0.1s
config *.node[*].prot.priority 4
config *.node[*].prot.packetSize 200
config **.traffic_type "\"PlatoonsTrafficManager\""
config **.traffic.platoonInsertTime "1 s"
config **.traffic.platoonInsertSpeed 110kmph
config **.traffic.nCars 4
config **.traffic.platoonSize 4
config **.traffic.nLanes 1
config **.traffic.platooningVType "\"vtypeauto\""
config **.traffic.controller "\"CACC\""
config **.traffic.platoonInsertDistance 2m
config **.traffic.platoonInsertHeadway 0s
config **.traffic.platoonLeaderHeadway 1.2s
config **.scalar-recording false
config **.vector-recording false

vector 0 Highway.node[0].appl distance ETV
vector 1 Highway.node[0].appl relativeSpeed ETV
vector 2 Highway.node[0].appl nodeId ETV
vector 3 Highway.node[0].appl acceleration ETV
vector 4 Highway.node[0].appl controllerAcceleration ETV
vector 5 Highway.node[0].appl speed ETV
vector 6 Highway.node[0].appl posx ETV
vector 7 Highway.node[0].appl posy ETV
vector 8 Highway.node[1].appl distance ETV
vector 9 Highway.node[1].appl relativeSpeed ETV
vector 10 Highway.node[1].appl nodeId ETV
vector 11 Highway.node[1].appl acceleration ETV
vector 12 Highway.node[1].appl controllerAcceleration ETV
vector 13 Highway.node[1].appl speed ETV
vector 14 Highway.node[1].appl posx ETV
vector 15 Highway.node[1].appl posy ETV
vector 16 Highway.node[2].appl distance ETV
vector 17 Highway.node[2].appl relativeSpeed ETV
vector 18 Highway.node[2].appl nodeId ETV
vector 19 Highway.node[2].appl acceleration ETV
vector 20 Highway.node[2].appl controllerAcceleration ETV
vector 21 Highway.node[2].appl speed ETV
vector 22 Highway.node[2].appl posx ETV
vector 23 Highway.node[2].appl posy ETV
vector 24 Highway.node[3].appl distance ETV
vector 25 Highway.node[3].appl relativeSpeed ETV
vector 26 Highway.node[3].appl nodeId ETV
vector 27 Highway.node[3].appl acceleration ETV
vector 28 Highway.node[3].appl controllerAcceleration ETV
vector 29 Highway.node[3].appl speed ETV
vector 30 Highway.node[3].appl posx ETV
vector 31 Highway.node[3].appl posy ETV
vector 32 Highway.node[1].prot leaderDelay ETV
vector 33 Highway.node[1].prot leaderDelayId ETV
vector 34 Highway.node[1].prot frontDelay ETV
vector 35 Highway.node[1].prot frontDelayId ETV
vector 36 Highway.node[2].prot leaderDelay ETV
vector 37 Highway.node[2].prot leaderDelayId ETV
vector 38 Highway.node[3].prot leaderDelay ETV
vector 39 Highway.node[3].prot leaderDelayId ETV
vector 40 Highway.node[3].prot frontDelay ETV
vector 41 Highway.node[3].prot frontDelayId ETV
vector 42 Highway.node[2].prot frontDelay ETV
vector 43 Highway.node[2].prot frontDelayId ETV
vector 44 Highway.node[0].prot nodeId ETV
vector 45 Highway.node[0].prot busyTime ETV
vector 46 Highway.node[0].prot collisions ETV
vector 47 Highway.node[1].prot nodeId ETV
vector 48 Highway.node[1].prot busyTime ETV
vector 49 Highway.node[1].prot collisions ETV
vector 50 Highway.node[2].prot nodeId ETV
vector 51 Highway.node[2].prot busyTime ETV
vector 52 Highway.node[2].prot collisions ETV
vector 53 Highway.node[3].prot nodeId ETV
vector 54 Highway.node[3].prot busyTime ETV
vector 55 Highway.node[3].prot collisions ETV
0	8443 17028 113 149169 1.11 99.91 989 -1 29.5555 -685.9881 9564.83182653
1	25471 16060 113 149169 1.11 99.91 989 0 0.646301 5.353917 2.910382948651
2	41531 15990 113 149169 1.11 99.91 989 0 0 0 0
3	57521 18659 113 149169 1.11 99.91 989 -0.267761 0.000125957 -2.1766246037843 0.49898764176664
4	76180 25938 113 149169 1.11 99.91 989 -0.427235 0.00019576 -3.3188493101229 1.1284426342584
5	102118 21919 113 149169 1.11 99.91 989 30.3537 30.56 30218.6204 923321.6821337
6	124037 21830 113 149169 1.11 99.91 989 42.0304 3060.85 1534414.4642 3133256460.4229
7	145867 20935 113 149169 1.11 99.91 989 242.45 242.45 239783.05 58135400.472499
8	166802 17416 114 149170 1.11 99.91 989 -1 2 -719.04681 1258.8127869531
9	184218 16916 114 149170 1.11 99.91 989 -0.000377192 5.5426e-05 -0.00438622046 1.9858731789192e-06
10	201134 16979 114 149170 1.11 99.91 989 1 1 989 989
11	218113 25428 114 149170 1.11 99.91 989 -0.0128079 0.287015 4.4231045833047 0.99738646561262
12	243541 27095 114 149170 1.11 99.91 989 -0.0198983 0.446435 4.5496942586087 1.5583938167192
13	270636 18825 114 149170 1.11 99.91 989 30.5538 31.0199 30614.5 947689.27137678
14	289461 22087 114 149170 1.11 99.91 989 36.0304 3094.4 1546030.9141 3190851974.4221
15	311548 21924 114 149170 1.11 99.91 989 242.45 245.75 242716.75 59567632.8125
16	333472 22779 115 149171 1.11 99.91 989 1.99964 150.493 72619.69944 7320697.8059714
17	356251 22604 115 149171 1.11 99.91 989 -0.00012811 2.6271 1425.6040072354 2300.7920179709
18	378855 16979 115 149171 1.11 99.91 989 2 2 1978 3956
19	395834 21196 115 149171 1.11 99.91 989 -1.66118 0.290722 -15.553900582261 35.387362031515
20	417030 26723 115 149171 1.11 99.91 989 -2.53478 0.327906 -14.399451650544 49.623195338236
21	443753 19104 115 149171 1.11 99.91 989 27.9285 30.56 28793.0218 838505.01074004
22	462857 22888 115 149171 1.11 99.91 989 30.0304 2906.35 1457295.807 2826034090.6274
23	485745 21924 115 149171 1.11 99.91 989 242.45 242.45 239783.05 58135400.472499
24	507669 22837 116 149172 1.11 99.91 989 1.99962 182.024 82962.31992 10066781.8875
25	530506 18976 116 149172 1.11 99.91 989 -9.98491e-05 3.02051 1801.2394803503 3680.2812282196
26	549482 16979 116 149172 1.11 99.91 989 3 3 2967 8901
27	566461 21664 116 149172 1.11 99.91 989 -2.42344 0.563526 -35.550142649615 110.32972593704
28	588125 27225 116 149172 1.11 99.91 989 -3.05019 0.605094 -34.224294522513 134.92645857265
29	615350 19167 116 149172 1.11 99.91 989 25.1259 30.56 26991.7816 737896.87394274
30	634517 22868 116 149172 1.11 99.91 989 24.0304 2720.33 1370380.1957 2488918077.0386
31	657385 21924 116 149172 1.11 99.91 989 242.45 242.45 239783.05 58135400.472499
32	679309 39384 325 149231 1.241806240167 99.941802819716 988 0.099987299955 0.100012703319 98.79999473966 9.879998958613
33	718693 26738 325 149231 1.241806240167 99.941802819716 988 1 1 988 988
34	745431 39384 325 149231 1.241806240167 99.941802819716 988 0.099987299955 0.100012703319 98.79999473966 9.879998958613
35	784815 26738 325 149231 1.241806240167 99.941802819716 988 1 1 988 988
36	811553 39386 331 149237 1.241806260181 99.941803223212 988 0.099987300328 0.100012703695 98.799995123142 9.8799990353094
37	850939 26745 331 149237 1.241806260181 99.941803223212 988 2 2 1976 3952
38	877684 39363 337 149243 1.241806280194 99.941803843987 988 0.099987300995 0.100012704362 98.799995723903 9.8799991554616
39	917047 26729 337 149243 1.241806280194 99.941803843987 988 3 3 2964 8892
40	943776 39362 367 149273 1.262743280195 99.962740844121 988 0.099987256525 0.100012745124 98.799995724037 9.8799991555063
41	983138 26713 367 149273 1.262743280195 99.962740844121 988 3 3 2964 8892
42	1009851 39373 403 149309 1.281912300209 99.981923478667 988 0.099987190484 0.100012812493 98.800009338569 9.8800018785598
43	1049224 26733 403 149309 1.281912300209 99.981923478667 988 2 2 1976 3952
44	1075957 1406 1462 149318 2 100 99 0 0 0 0
45	1077363 2008 1462 149318 2 100 99 0.011241 0.013502360228 1.236273360228 0.015440683512727
46	1079371 1406 1462 149318 2 100 99 0 0 0 0
47	1080777 1406 1463 149319 2 100 99 1 1 99 99
48	1082183 2008 1463 149319 2 100 99 0.011241 0.013466080049 1.236237080049 0.015439705092886
49	1084191 1406 1463 149319 2 100 99 0 0 0 0
50	1085597 1406 1464 149320 2 100 99 2 2 198 396
51	1087003 2007 1464 149320 2 100 99 0.011241 0.01356108005 1.23633208005 0.015442272673122
52	1089010 1406 1464 149320 2 100 99 0 0 0 0
53	1090416 1406 1465 149321 2 100 99 3 3 297 891
54	1091822 2008 1465 149321 2 100 99 0.011241 0.013561120076 1.236332120076 0.015442273758716
55	1093830 1406 1465 149321 2 100 99 0 0 0 0

