version 3
run BreakRanksNoGui-81-20240710-15:15:24-259675
attr configname BreakRanksNoGui
attr datetime 20240710-15:15:24
attr datetimef 20240710-151524
attr experiment BreakRanksNoGui
attr inifile omnetpp.ini
attr iterationvars "$nCars=4, $platoonSize=4, $nLanes=1, $ploegH=0.5, $controller=1, $headway=0.1, $leaderHeadway=1.2, $leaderSpeed=110, $breakRanksSafetyDistance=2, $minSpeed=100, $maxSpeed=120, $beaconInterval=0.1, $priority=4, $packetSize=200, $sController=\"CACC\", $0=2, $1=0"
attr iterationvarsd nCars=4/platoonSize=4/nLanes=1/ploegH=0.5/controller=1/headway=0.1/leaderHeadway=1.2/leaderSpeed=110/breakRanksSafetyDistance=2/minSpeed=100/maxSpeed=120/beaconInterval=0.1/priority=4/packetSize=200/sController=CACC/2/0
attr iterationvarsf nCars=4,platoonSize=4,nLanes=1,ploegH=0.5,controller=1,headway=0.1,leaderHeadway=1.2,leaderSpeed=110,breakRanksSafetyDistance=2,minSpeed=100,maxSpeed=120,beaconInterval=0.1,priority=4,packetSize=200,sController=CACC,2,0-
attr measurement "$nCars=4, $platoonSize=4, $nLanes=1, $ploegH=0.5, $controller=1, $headway=0.1, $leaderHeadway=1.2, $leaderSpeed=110, $breakRanksSafetyDistance=2, $minSpeed=100, $maxSpeed=120, $beaconInterval=0.1, $priority=4, $packetSize=200, $sController=\"CACC\", $0=2, $1=0"
attr network Highway
attr processid 259675
attr repetition 1
attr replication #1
attr resultdir results
attr runnumber 81
attr seedset 1
itervar beaconInterval 0.1
itervar breakRanksSafetyDistance 2
itervar controller 1
itervar headway 0.1
itervar leaderHeadway 1.2
itervar leaderSpeed 110
itervar maxSpeed 120
itervar minSpeed 100
itervar nCars 4
itervar nLanes 1
itervar packetSize 200
itervar platoonSize 4
itervar ploegH 0.5
itervar priority 4
itervar sController "\"CACC\""
config image-path ../../../veins/images
config repeat 10
config extends BreakRanks
config *.manager.command "\"sumo\""
config *.manager.ignoreGuiCommands true
config output-vector-file "results/BreakRanks_1_0.1_110_2_4 /result_1.vec"
config output-scalar-file "results/BreakRanks_1_0.1_110_2_4 /result_1.sca"
config extends Platooning
config *.node[*].scenario_type "\"BreakRanksScenario\""
config *.manager.command "\"sumo-gui\""
config *.node[*].scenario_type "\"SimpleScenario\""
config cmdenv-express-mode true
config cmdenv-autoflush true
config cmdenv-status-frequency 15s
config num-rngs 6
config network Highway
config debug-on-errors true
config print-undisposed true
config *.playgroundSizeX 65000m
config *.playgroundSizeY 25000m
config *.playgroundSizeZ 50m
config sim-time-limit "100 s"
config *.annotations.draw false
config *.obstacles.debug false
config *.world.useTorus false
config *.world.use2D false
config *.manager.updateInterval 0.01s
config *.manager.host "\"localhost\""
config *.manager.moduleType "\"org.car2x.plexe.PlatoonCar\""
config *.manager.moduleName "\"node\""
config *.manager.moduleDisplayString "\"\""
config *.manager.autoShutdown true
config *.manager.margin 25
config *.connectionManager.sendDirect true
config *.connectionManager.maxInterfDist 2600m
config *.connectionManager.drawMaxIntfDist false
config *.**.nic.mac1609_4.useServiceChannel false
config *.**.nic.mac1609_4.txPower 100mW
config *.**.nic.mac1609_4.bitrate 6Mbps
config *.**.nic.mac1609_4.useAcks true
config *.**.nic.mac1609_4.ackErrorRate 0.0
config *.**.nic.mac1609_4.frameErrorRate 0.0
config *.**.nic.phy80211p.minPowerLevel -94dBm
config *.**.nic.phy80211p.maxTXPower 100mW
config *.**.nic.phy80211p.useNoiseFloor true
config *.**.nic.phy80211p.noiseFloor -95dBm
config *.**.nic.phy80211p.decider "xmldoc(\"config.xml\")"
config *.**.nic.phy80211p.analogueModels "xmldoc(\"config.xml\")"
config *.**.nic.phy80211p.usePropagationDelay true
config *.node[*].mobility.x 0
config *.node[*].mobility.y 0
config *.node[*].mobility.z 1.895
config seed-set 1
config **.seed 1
config *.node[*].prot.rng-0 2
config *.node[*].appl.rng-0 3
config *.node[*].scenario.rng-0 4
config **.traffic.rng-0 5
config *.manager.configFile "\"./sumocfg/freeway.sumo.cfg\""
config *.manager.launchConfig "xmldoc(\"./sumocfg/freeway.launchd.xml\")"
config **.numberOfCars 4
config **.numberOfCarsPerPlatoon 4
config **.numberOfLanes 1
config *.node[*].helper_type "\"PositionHelper\""
config *.node[*].scenario.caccC1 0.5
config *.node[*].scenario.caccXi 1
config *.node[*].scenario.caccOmegaN "0.2 Hz"
config *.node[*].scenario.caccSpacing "2 m"
config *.node[*].scenario.engineTau "0.5 s"
config *.node[*].scenario.ploegH 0.5s
config *.node[*].scenario.ploegKp 0.2
config *.node[*].scenario.ploegKd 0.7
config *.node[*].scenario.useRealisticEngine false
config *.node[*].scenario.useControllerAcceleration true
config *.node[*].scenario.nLanes 1
config **.numericController 1
config **.headway 0.1s
config *.node[*].scenario.accHeadway 0.1s
config *.node[*].scenario.leaderHeadway 1.2s
config *.node[*].scenario.leaderSpeed 110kmph
config *.node[*].appl_type "\"SimplePlatooningApp\""
config *.node[*].appl.*.scalar-recording true
config *.node[*].appl.*.vector-recording true
config *.node[0].appl.breakRanksSafetyDistance 2m
config *.node[*].appl.minSpeed 100kmph
config *.node[*].appl.maxSpeed 120kmph
config *.node[*].protocol_type "\"SimplePlatooningBeaconing\""
config *.node[*].prot.*.scalar-recording true
config *.node[*].prot.*.vector-recording true
config *.node[*].prot.beaconingInterval 0.1s
config *.node[*].prot.priority 4
config *.node[*].prot.packetSize 200
config **.traffic_type "\"PlatoonsTrafficManager\""
config **.traffic.platoonInsertTime "1 s"
config **.traffic.platoonInsertSpeed 110kmph
config **.traffic.nCars 4
config **.traffic.platoonSize 4
config **.traffic.nLanes 1
config **.traffic.platooningVType "\"vtypeauto\""
config **.traffic.controller "\"CACC\""
config **.traffic.platoonInsertDistance 2m
config **.traffic.platoonInsertHeadway 0s
config **.traffic.platoonLeaderHeadway 1.2s
config **.scalar-recording false
config **.vector-recording false

vector 0 Highway.node[0].appl distance ETV
vector 1 Highway.node[0].appl relativeSpeed ETV
vector 2 Highway.node[0].appl nodeId ETV
vector 3 Highway.node[0].appl acceleration ETV
vector 4 Highway.node[0].appl controllerAcceleration ETV
vector 5 Highway.node[0].appl speed ETV
vector 6 Highway.node[0].appl posx ETV
vector 7 Highway.node[0].appl posy ETV
vector 8 Highway.node[1].appl distance ETV
vector 9 Highway.node[1].appl relativeSpeed ETV
vector 10 Highway.node[1].appl nodeId ETV
vector 11 Highway.node[1].appl acceleration ETV
vector 12 Highway.node[1].appl controllerAcceleration ETV
vector 13 Highway.node[1].appl speed ETV
vector 14 Highway.node[1].appl posx ETV
vector 15 Highway.node[1].appl posy ETV
vector 16 Highway.node[2].appl distance ETV
vector 17 Highway.node[2].appl relativeSpeed ETV
vector 18 Highway.node[2].appl nodeId ETV
vector 19 Highway.node[2].appl acceleration ETV
vector 20 Highway.node[2].appl controllerAcceleration ETV
vector 21 Highway.node[2].appl speed ETV
vector 22 Highway.node[2].appl posx ETV
vector 23 Highway.node[2].appl posy ETV
vector 24 Highway.node[3].appl distance ETV
vector 25 Highway.node[3].appl relativeSpeed ETV
vector 26 Highway.node[3].appl nodeId ETV
vector 27 Highway.node[3].appl acceleration ETV
vector 28 Highway.node[3].appl controllerAcceleration ETV
vector 29 Highway.node[3].appl speed ETV
vector 30 Highway.node[3].appl posx ETV
vector 31 Highway.node[3].appl posy ETV
vector 32 Highway.node[2].prot frontDelay ETV
vector 33 Highway.node[2].prot frontDelayId ETV
vector 34 Highway.node[1].prot leaderDelay ETV
vector 35 Highway.node[1].prot leaderDelayId ETV
vector 36 Highway.node[1].prot frontDelay ETV
vector 37 Highway.node[1].prot frontDelayId ETV
vector 38 Highway.node[2].prot leaderDelay ETV
vector 39 Highway.node[2].prot leaderDelayId ETV
vector 40 Highway.node[3].prot leaderDelay ETV
vector 41 Highway.node[3].prot leaderDelayId ETV
vector 42 Highway.node[3].prot frontDelay ETV
vector 43 Highway.node[3].prot frontDelayId ETV
vector 44 Highway.node[0].prot nodeId ETV
vector 45 Highway.node[0].prot busyTime ETV
vector 46 Highway.node[0].prot collisions ETV
vector 47 Highway.node[1].prot nodeId ETV
vector 48 Highway.node[1].prot busyTime ETV
vector 49 Highway.node[1].prot collisions ETV
vector 50 Highway.node[2].prot nodeId ETV
vector 51 Highway.node[2].prot busyTime ETV
vector 52 Highway.node[2].prot collisions ETV
vector 53 Highway.node[3].prot nodeId ETV
vector 54 Highway.node[3].prot busyTime ETV
vector 55 Highway.node[3].prot collisions ETV
0	113	1.11	-1
0	263	1.21	-1
0	413	1.31	-1
0	563	1.41	-1
0	713	1.51	-1
0	863	1.61	-1
0	1013	1.71	-1
0	1163	1.81	-1
0	1313	1.91	-1
0	1467	2.01	-1
0	1617	2.11	-1
0	1767	2.21	-1
0	1917	2.31	-1
0	2067	2.41	-1
0	2217	2.51	-1
0	2367	2.61	-1
0	2517	2.71	-1
0	2667	2.81	-1
0	2817	2.91	-1
0	2971	3.01	-1
0	3121	3.11	-1
0	3271	3.21	-1
0	3421	3.31	-1
0	3571	3.41	-1
0	3721	3.51	-1
0	3871	3.61	-1
0	4021	3.71	-1
0	4171	3.81	-1
0	4321	3.91	-1
0	4475	4.01	-1
0	4625	4.11	-1
0	4775	4.21	-1
0	4925	4.31	-1
0	5075	4.41	-1
0	5225	4.51	-1
0	5375	4.61	-1
0	5525	4.71	-1
0	5675	4.81	-1
0	5825	4.91	-1
0	5979	5.01	-1
0	6129	5.11	-1
0	6279	5.21	-1
0	6429	5.31	-1
0	6579	5.41	-1
0	6729	5.51	-1
0	6879	5.61	-1
0	7029	5.71	-1
0	7179	5.81	-1
0	7329	5.91	-1
0	7483	6.01	-1
0	7633	6.11	-1
0	7783	6.21	-1
0	7933	6.31	-1
0	8083	6.41	-1
0	8233	6.51	-1
0	8383	6.61	-1
0	8533	6.71	-1
0	8683	6.81	-1
0	8833	6.91	-1
0	8987	7.01	-1
0	9137	7.11	-1
0	9287	7.21	-1
0	9437	7.31	-1
0	9587	7.41	-1
0	9737	7.51	-1
0	9887	7.61	-1
0	10037	7.71	-1
0	10187	7.81	-1
0	10337	7.91	-1
0	10491	8.01	-1
0	10641	8.11	-1
0	10791	8.21	-1
0	10941	8.31	-1
0	11091	8.41	-1
0	11241	8.51	-1
0	11391	8.61	-1
0	11541	8.71	-1
0	11691	8.81	-1
0	11841	8.91	-1
0	11995	9.01	-1
0	12145	9.11	-1
0	12295	9.21	-1
0	12445	9.31	-1
0	12595	9.41	-1
0	12745	9.51	-1
0	12895	9.61	-1
0	13045	9.71	-1
0	13195	9.81	-1
0	13345	9.91	-1
0	13919	10.01	-1
0	14069	10.11	-1
0	14219	10.21	-1
0	14369	10.31	-1
0	14519	10.41	-1
0	14669	10.51	-1
0	14819	10.61	-1
0	14969	10.71	-1
0	15119	10.81	-1
0	15269	10.91	-1
0	15423	11.01	-1
0	15573	11.11	-1
0	15723	11.21	-1
0	15873	11.31	-1
0	16023	11.41	-1
0	16173	11.51	-1
0	16323	11.61	-1
0	16473	11.71	-1
0	16623	11.81	-1
0	16773	11.91	-1
0	16927	12.01	-1
0	17077	12.11	-1
0	17227	12.21	-1
0	17377	12.31	-1
0	17527	12.41	-1
0	17677	12.51	-1
0	17827	12.61	-1
0	17977	12.71	-1
0	18127	12.81	-1
0	18277	12.91	-1
0	18431	13.01	-1
0	18581	13.11	-1
0	18731	13.21	-1
0	18881	13.31	-1
0	19031	13.41	-1
0	19181	13.51	-1
0	19331	13.61	-1
0	19481	13.71	-1
0	19631	13.81	-1
0	19781	13.91	-1
0	19935	14.01	-1
0	20085	14.11	-1
0	20235	14.21	-1
0	20385	14.31	-1
0	20535	14.41	-1
0	20685	14.51	-1
0	20835	14.61	-1
0	20985	14.71	-1
0	21135	14.81	-1
0	21285	14.91	-1
0	21439	15.01	-1
0	21589	15.11	-1
0	21739	15.21	-1
0	21889	15.31	-1
0	22039	15.41	-1
0	22189	15.51	-1
0	22339	15.61	-1
0	22489	15.71	-1
0	22639	15.81	-1
0	22789	15.91	-1
0	22943	16.01	-1
0	23093	16.11	-1
0	23243	16.21	-1
0	23393	16.31	-1
0	23543	16.41	-1
0	23693	16.51	-1
0	23843	16.61	-1
0	23993	16.71	-1
0	24143	16.81	-1
0	24293	16.91	-1
0	24447	17.01	-1
0	24597	17.11	-1
0	24747	17.21	-1
0	24897	17.31	-1
0	25047	17.41	-1
0	25197	17.51	-1
0	25347	17.61	-1
0	25497	17.71	-1
0	25647	17.81	-1
0	25797	17.91	-1
0	25951	18.01	-1
0	26101	18.11	-1
0	26251	18.21	-1
0	26401	18.31	-1
0	26551	18.41	-1
0	26701	18.51	-1
0	26851	18.61	-1
0	27001	18.71	-1
0	27151	18.81	-1
0	27301	18.91	-1
0	27455	19.01	-1
0	27605	19.11	-1
0	27755	19.21	-1
0	27905	19.31	-1
0	28055	19.41	-1
0	28205	19.51	-1
0	28355	19.61	-1
0	28505	19.71	-1
0	28655	19.81	-1
0	28805	19.91	-1
0	28959	20.01	-1
0	29109	20.11	-1
0	29259	20.21	-1
0	29409	20.31	-1
0	29559	20.41	-1
0	29709	20.51	-1
0	29859	20.61	-1
0	30009	20.71	-1
0	30159	20.81	-1
0	30309	20.91	-1
0	30463	21.01	-1
0	30613	21.11	-1
0	30763	21.21	-1
0	30913	21.31	-1
0	31063	21.41	-1
0	31213	21.51	-1
0	31363	21.61	-1
0	31513	21.71	-1
0	31663	21.81	-1
0	31813	21.91	-1
0	31967	22.01	-1
0	32117	22.11	-1
0	32267	22.21	-1
0	32417	22.31	-1
0	32567	22.41	-1
0	32717	22.51	-1
0	32867	22.61	-1
0	33017	22.71	-1
0	33167	22.81	-1
0	33317	22.91	-1
0	33471	23.01	-1
0	33621	23.11	-1
0	33771	23.21	-1
0	33921	23.31	-1
0	34071	23.41	-1
0	34221	23.51	-1
0	34371	23.61	-1
0	34521	23.71	-1
0	34671	23.81	-1
0	34821	23.91	-1
0	34975	24.01	-1
0	35125	24.11	-1
0	35275	24.21	-1
0	35425	24.31	-1
0	35575	24.41	22.0673
0	35725	24.51	22.3117
0	35875	24.61	22.5562
0	36025	24.71	22.8006
0	36175	24.81	23.0451
0	36325	24.91	23.2895
0	36479	25.01	23.5339
0	36629	25.11	23.7784
0	36779	25.21	24.0228
0	36929	25.31	24.2673
0	37079	25.41	24.5117
0	37229	25.51	24.7561
0	37379	25.61	25.0006
0	37529	25.71	25.245
0	37679	25.81	25.4895
0	37829	25.91	25.7339
0	37983	26.01	25.9783
0	38133	26.11	26.2228
0	38283	26.21	26.4672
0	38433	26.31	26.7117
0	38583	26.41	26.9561
0	38733	26.51	27.2005
0	38883	26.61	27.445
0	39033	26.71	27.6894
0	39183	26.81	27.9339
0	39333	26.91	28.1783
0	39487	27.01	28.4227
0	39637	27.11	28.6672
0	39787	27.21	28.9116
0	39937	27.31	29.1561
0	40087	27.41	29.4005
0	40237	27.51	29.6449
0	40387	27.61	29.8894
0	40537	27.71	30.1338
0	40687	27.81	30.3783
0	40837	27.91	30.6227
0	40991	28.01	30.8671
0	41141	28.11	31.1116
0	41291	28.21	31.356
0	41441	28.31	31.6005
0	41591	28.41	31.8449
0	41741	28.51	32.0893
0	41891	28.61	32.3338
0	42041	28.71	32.5782
0	42191	28.81	32.8227
0	42341	28.91	33.0671
0	42495	29.01	33.3115
0	42645	29.11	33.556
0	42795	29.21	33.8004
0	42945	29.31	34.0449
0	43095	29.41	34.2893
0	43245	29.51	34.5337
0	43395	29.61	34.7782
0	43545	29.71	35.0226
0	43695	29.81	35.2671
0	43845	29.91	35.5115
0	43999	30.01	35.7559
0	44149	30.11	36.0004
0	44299	30.21	36.2448
0	44449	30.31	36.4893
0	44599	30.41	36.7337
0	44749	30.51	36.9781
0	44899	30.61	37.2226
0	45049	30.71	37.467
0	45199	30.81	37.7115
0	45349	30.91	37.9559
0	45503	31.01	38.2003
0	45653	31.11	38.4448
0	45803	31.21	38.6892
0	45953	31.31	38.9337
0	46103	31.41	39.1781
0	46253	31.51	39.4225
0	46403	31.61	39.667
0	46553	31.71	39.9114
0	46703	31.81	40.1559
0	46853	31.91	40.4003
0	47007	32.01	40.6447
0	47157	32.11	40.8892
0	47307	32.21	41.1336
0	47457	32.31	41.3781
0	47607	32.41	41.6225
0	47757	32.51	41.8669
0	47907	32.61	42.1114
0	48057	32.71	42.3558
0	48207	32.81	42.6003
0	48357	32.91	42.8447
0	48511	33.01	43.0891
0	48661	33.11	43.3336
0	48811	33.21	43.578
0	48961	33.31	43.8225
0	49111	33.41	44.0669
0	49261	33.51	44.3113
0	49411	33.61	44.5558
0	49561	33.71	44.8002
0	49711	33.81	45.0447
0	49861	33.91	45.2891
0	50015	34.01	45.5335
0	50165	34.11	45.778
0	50315	34.21	46.0224
0	50465	34.31	46.2669
0	50615	34.41	46.5113
0	50765	34.51	46.7557
0	50915	34.61	47.0002
0	51065	34.71	47.2446
0	51215	34.81	47.4891
0	51365	34.91	47.7335
0	51519	35.01	47.9779
0	51669	35.11	48.2224
0	51819	35.21	48.4668
0	51969	35.31	48.7113
0	52119	35.41	48.9557
0	52269	35.51	49.2001
0	52419	35.61	49.4446
0	52569	35.71	49.689
0	52719	35.81	49.9335
0	52869	35.91	50.1779
0	53023	36.01	50.4223
0	53173	36.11	50.6668
0	53323	36.21	50.9112
0	53473	36.31	51.1557
0	53623	36.41	51.4001
0	53773	36.51	51.6445
0	53923	36.61	51.889
0	54073	36.71	52.1334
0	54223	36.81	52.3779
0	54373	36.91	52.6223
0	54527	37.01	52.8667
0	54677	37.11	53.1112
0	54827	37.21	53.3556
0	54977	37.31	53.6001
0	55127	37.41	53.8445
0	55277	37.51	54.0889
0	55427	37.61	54.3334
0	55577	37.71	54.5778
0	55727	37.81	54.8223
0	55877	37.91	55.0667
0	56031	38.01	55.3111
0	56181	38.11	55.5556
0	56331	38.21	55.8
0	56481	38.31	56.0445
0	56631	38.41	56.2889
0	56781	38.51	56.5333
0	56931	38.61	56.7778
0	57081	38.71	57.0222
0	57231	38.81	57.2667
0	57381	38.91	57.5111
0	57535	39.01	57.7555
0	57685	39.11	58
0	57835	39.21	58.2444
0	57985	39.31	58.4889
0	58135	39.41	58.7333
0	58285	39.51	58.9777
0	58435	39.61	59.2222
0	58585	39.71	59.4666
0	58735	39.81	59.7111
0	58885	39.91	59.9555
0	59039	40.01	60.1999
0	59189	40.11	60.4444
0	59339	40.21	60.6888
0	59489	40.31	60.9333
0	59639	40.41	61.1777
0	59789	40.51	61.4221
0	59939	40.61	61.6666
0	60089	40.71	61.911
0	60239	40.81	62.1555
0	60389	40.91	62.3999
0	60543	41.01	62.6443
0	60693	41.11	62.8888
0	60843	41.21	63.1332
0	60993	41.31	63.3777
0	61143	41.41	63.6221
0	61293	41.51	63.8665
0	61443	41.61	64.111
0	61593	41.71	64.3554
0	61743	41.81	64.5999
0	61893	41.91	64.8443
0	62047	42.01	65.0887
0	62197	42.11	65.3332
0	62347	42.21	65.5776
0	62497	42.31	65.8221
0	62647	42.41	66.0665
0	62797	42.51	66.3109
0	62947	42.61	66.5554
0	63097	42.71	66.7998
0	63247	42.81	67.0443
0	63397	42.91	67.2887
0	63551	43.01	67.5331
0	63701	43.11	67.7776
0	63851	43.21	68.022
0	64001	43.31	68.2665
0	64151	43.41	68.5109
0	64301	43.51	68.7553
0	64451	43.61	68.9998
0	64601	43.71	69.2442
0	64751	43.81	69.4887
0	64901	43.91	69.7331
0	65055	44.01	69.9775
0	65205	44.11	70.222
0	65355	44.21	70.4664
0	65505	44.31	70.7109
0	65655	44.41	70.9553
0	65805	44.51	71.1997
0	65955	44.61	71.4442
0	66105	44.71	71.6886
0	66255	44.81	71.9331
0	66405	44.91	72.1775
0	66559	45.01	72.4219
0	66709	45.11	72.6664
0	66859	45.21	72.9108
0	67009	45.31	73.1553
0	67159	45.41	73.3997
0	67309	45.51	73.6441
0	67459	45.61	73.8886
0	67609	45.71	74.133
0	67759	45.81	74.3775
0	67909	45.91	74.6219
0	68063	46.01	74.8663
0	68213	46.11	75.1108
0	68363	46.21	75.3552
0	68513	46.31	75.5997
0	68663	46.41	75.8441
0	68813	46.51	76.0885
0	68963	46.61	76.333
0	69113	46.71	76.5774
0	69263	46.81	76.8219
0	69413	46.91	77.0663
0	69567	47.01	77.3107
0	69717	47.11	77.5552
0	69867	47.21	77.7996
0	70017	47.31	78.0441
0	70167	47.41	78.2885
0	70317	47.51	78.5329
0	70467	47.61	78.7774
0	70617	47.71	79.0218
0	70767	47.81	79.2663
0	70917	47.91	79.5107
0	71071	48.01	79.7551
0	71221	48.11	79.9996
0	71371	48.21	80.244
0	71521	48.31	80.4885
0	71671	48.41	80.7329
0	71821	48.51	80.9773
0	71971	48.61	81.2218
0	72121	48.71	81.4662
0	72271	48.81	81.7107
0	72421	48.91	81.9551
0	72575	49.01	82.1995
0	72725	49.11	82.444
0	72875	49.21	82.6884
0	73025	49.31	82.9329
0	73175	49.41	83.1773
0	73325	49.51	83.4217
0	73475	49.61	83.6662
0	73625	49.71	83.9106
0	73775	49.81	84.1551
0	73925	49.91	84.3995
0	74079	50.01	84.6439
0	74229	50.11	84.8884
0	74379	50.21	85.1328
0	74529	50.31	85.3773
0	74679	50.41	85.6217
0	74829	50.51	85.8661
0	74979	50.61	86.1106
0	75129	50.71	86.355
0	75279	50.81	86.5995
0	75429	50.91	86.8439
0	75583	51.01	87.0883
0	75733	51.11	87.3328
0	75883	51.21	87.5772
0	76033	51.31	87.8217
0	76183	51.41	88.0661
0	76333	51.51	88.3105
0	76483	51.61	88.555
0	76633	51.71	88.7994
0	76783	51.81	89.0439
0	76933	51.91	89.2883
0	77087	52.01	89.5327
0	77237	52.11	89.7772
0	77387	52.21	90.0216
0	77537	52.31	90.2661
0	77687	52.41	90.5105
0	77837	52.51	90.7549
0	77987	52.61	90.9994
0	78137	52.71	91.2438
0	78287	52.81	91.4883
0	78437	52.91	91.7327
0	78591	53.01	91.9771
0	78741	53.11	92.2216
0	78891	53.21	92.466
0	79041	53.31	92.7105
0	79191	53.41	92.9549
0	79341	53.51	93.1993
0	79491	53.61	93.4438
0	79641	53.71	93.6882
0	79791	53.81	93.9327
0	79941	53.91	94.1771
0	80095	54.01	94.4215
0	80245	54.11	94.666
0	80395	54.21	94.9104
0	80545	54.31	95.1549
0	80695	54.41	95.3993
0	80845	54.51	95.6437
0	80995	54.61	95.8882
0	81145	54.71	96.1326
0	81295	54.81	96.3771
0	81445	54.91	96.6215
0	81599	55.01	96.8659
0	81749	55.11	97.1104
0	81899	55.21	97.3548
0	82049	55.31	97.5993
0	82199	55.41	97.8437
0	82349	55.51	98.0881
0	82499	55.61	98.3326
0	82649	55.71	98.577
0	82799	55.81	98.8215
0	82949	55.91	99.0659
0	83103	56.01	99.3103
0	83253	56.11	99.5548
0	83403	56.21	99.7992
0	83553	56.31	100.044
0	83703	56.41	100.288
0	83853	56.51	100.533
0	84003	56.61	100.777
0	84153	56.71	101.021
0	84303	56.81	101.266
0	84453	56.91	101.51
0	84607	57.01	101.755
0	84757	57.11	101.999
0	84907	57.21	102.244
0	85057	57.31	102.488
0	85207	57.41	102.733
0	85357	57.51	102.977
0	85507	57.61	103.221
0	85657	57.71	103.466
0	85807	57.81	103.71
0	85957	57.91	103.955
0	86111	58.01	104.199
0	86261	58.11	104.444
0	86411	58.21	104.688
0	86561	58.31	104.932
0	86711	58.41	105.177
0	86861	58.51	105.421
0	87011	58.61	105.666
0	87161	58.71	105.91
0	87311	58.81	106.155
0	87461	58.91	106.399
0	87615	59.01	106.644
0	87765	59.11	106.888
0	87915	59.21	107.132
0	88065	59.31	107.377
0	88215	59.41	107.621
0	88365	59.51	107.866
0	88515	59.61	108.11
0	88665	59.71	108.355
0	88815	59.81	108.599
0	88965	59.91	108.844
0	89119	60.01	109.088
0	89269	60.11	109.332
0	89419	60.21	109.577
0	89569	60.31	109.821
0	89719	60.41	110.066
0	89869	60.51	110.31
0	90019	60.61	110.555
0	90169	60.71	110.799
0	90319	60.81	111.043
0	90469	60.91	111.288
0	90623	61.01	111.532
0	90773	61.11	111.777
0	90923	61.21	112.021
0	91073	61.31	112.266
0	91223	61.41	112.51
0	91373	61.51	112.755
0	91523	61.61	112.999
0	91673	61.71	113.243
0	91823	61.81	113.488
0	91973	61.91	113.732
0	92127	62.01	113.977
0	92277	62.11	114.221
0	92427	62.21	114.466
0	92577	62.31	114.71
0	92727	62.41	114.955
0	92877	62.51	115.199
0	93027	62.61	115.443
0	93177	62.71	115.688
0	93327	62.81	115.932
0	93477	62.91	116.177
0	93631	63.01	116.421
0	93781	63.11	116.666
0	93931	63.21	116.91
0	94081	63.31	117.154
0	94231	63.41	117.399
0	94381	63.51	117.643
0	94531	63.61	117.888
0	94681	63.71	118.132
0	94831	63.81	118.377
0	94981	63.91	118.621
0	95135	64.01	118.866
0	95285	64.11	119.11
0	95435	64.21	119.354
0	95585	64.31	119.599
0	95735	64.41	119.843
0	95885	64.51	120.088
0	96035	64.61	120.332
0	96185	64.71	120.577
0	96335	64.81	120.821
0	96485	64.91	121.066
0	96639	65.01	121.31
0	96789	65.11	121.554
0	96939	65.21	121.799
0	97089	65.31	122.043
0	97239	65.41	122.288
0	97389	65.51	122.532
0	97539	65.61	122.777
0	97689	65.71	123.021
0	97839	65.81	123.265
0	97989	65.91	123.51
0	98143	66.01	123.754
0	98293	66.11	123.999
0	98443	66.21	124.243
0	98593	66.31	124.488
0	98743	66.41	124.732
0	98893	66.51	124.977
0	99043	66.61	125.221
0	99193	66.71	125.465
0	99343	66.81	125.71
0	99493	66.91	125.954
0	99647	67.01	126.199
0	99797	67.11	126.443
0	99947	67.21	126.688
0	100097	67.31	126.932
0	100247	67.41	127.177
0	100397	67.51	127.421
0	100547	67.61	127.665
0	100697	67.71	127.91
0	100847	67.81	128.154
0	100997	67.91	128.399
0	101151	68.01	128.643
0	101301	68.11	128.888
0	101451	68.21	129.132
0	101601	68.31	129.376
0	101751	68.41	129.621
0	101901	68.51	129.865
0	102051	68.61	130.11
0	102201	68.71	130.354
0	102351	68.81	130.599
0	102501	68.91	130.843
0	102655	69.01	131.088
0	102805	69.11	131.332
0	102955	69.21	131.576
0	103105	69.31	131.821
0	103255	69.41	132.065
0	103405	69.51	132.31
0	103555	69.61	132.554
0	103705	69.71	132.799
0	103855	69.81	133.043
0	104005	69.91	133.288
0	104159	70.01	133.532
0	104309	70.11	133.776
0	104459	70.21	134.021
0	104609	70.31	134.265
0	104759	70.41	134.51
0	104909	70.51	134.754
0	105059	70.61	134.999
0	105209	70.71	135.243
0	105359	70.81	135.487
0	105509	70.91	135.732
0	105663	71.01	135.976
0	105813	71.11	136.221
0	105963	71.21	136.465
0	106113	71.31	136.71
0	106263	71.41	136.954
0	106413	71.51	137.199
0	106563	71.61	137.443
0	106713	71.71	137.687
0	106863	71.81	137.932
0	107013	71.91	138.176
0	107167	72.01	138.421
0	107317	72.11	138.665
0	107467	72.21	138.91
0	107617	72.31	139.154
0	107767	72.41	139.399
0	107917	72.51	139.643
0	108067	72.61	139.887
0	108217	72.71	140.132
0	108367	72.81	140.376
0	108517	72.91	140.621
0	108671	73.01	140.865
0	108821	73.11	141.11
0	108971	73.21	141.354
0	109121	73.31	141.598
0	109271	73.41	141.843
0	109421	73.51	142.087
0	109571	73.61	142.332
0	109721	73.71	142.576
0	109871	73.81	142.821
0	110021	73.91	143.065
0	110175	74.01	143.31
0	110325	74.11	143.554
0	110475	74.21	143.798
0	110625	74.31	144.043
0	110775	74.41	144.287
0	110925	74.51	144.532
0	111075	74.61	144.776
0	111225	74.71	145.021
0	111375	74.81	145.265
0	111525	74.91	145.51
0	111679	75.01	145.754
0	111829	75.11	145.998
0	111979	75.21	146.243
0	112129	75.31	146.487
0	112279	75.41	146.732
0	112429	75.51	146.976
0	112579	75.61	147.221
0	112729	75.71	147.465
0	112879	75.81	147.709
0	113029	75.91	147.954
0	113183	76.01	148.198
0	113333	76.11	148.443
0	113483	76.21	148.687
0	113633	76.31	148.932
0	113783	76.41	149.176
0	113933	76.51	149.421
0	114083	76.61	149.665
0	114233	76.71	149.909
0	114383	76.81	150.154
0	114533	76.91	150.398
0	114687	77.01	150.643
0	114837	77.11	150.887
0	114987	77.21	151.132
0	115137	77.31	151.376
0	115287	77.41	151.621
0	115437	77.51	151.865
0	115587	77.61	152.109
0	115737	77.71	152.354
0	115887	77.81	152.598
0	116037	77.91	152.843
0	116191	78.01	153.087
0	116341	78.11	153.332
0	116491	78.21	153.576
0	116641	78.31	153.82
0	116791	78.41	154.065
0	116941	78.51	154.309
0	117091	78.61	154.554
0	117241	78.71	154.798
0	117391	78.81	155.043
0	117541	78.91	155.287
0	117695	79.01	155.532
0	117845	79.11	155.776
0	117995	79.21	156.02
0	118145	79.31	156.265
0	118295	79.41	156.509
0	118445	79.51	156.754
0	118595	79.61	156.998
0	118745	79.71	157.243
0	118895	79.81	157.487
0	119045	79.91	157.732
0	119199	80.01	157.976
0	119349	80.11	158.22
0	119499	80.21	158.465
0	119649	80.31	158.709
0	119799	80.41	158.954
0	119949	80.51	159.198
0	120099	80.61	159.443
0	120249	80.71	159.687
0	120399	80.81	159.931
0	120549	80.91	160.176
0	120703	81.01	160.42
0	120853	81.11	160.665
0	121003	81.21	160.909
0	121153	81.31	161.154
0	121303	81.41	161.398
0	121453	81.51	161.643
0	121603	81.61	161.887
0	121753	81.71	162.131
0	121903	81.81	162.376
0	122053	81.91	162.62
0	122207	82.01	162.865
0	122357	82.11	163.109
0	122507	82.21	163.354
0	122657	82.31	163.598
0	122807	82.41	163.843
0	122957	82.51	164.087
0	123107	82.61	164.331
0	123257	82.71	164.576
0	123407	82.81	164.82
0	123557	82.91	165.065
0	123711	83.01	165.309
0	123861	83.11	165.554
0	124011	83.21	165.798
0	124161	83.31	166.042
0	124311	83.41	166.287
0	124461	83.51	166.531
0	124611	83.61	166.776
0	124761	83.71	167.02
0	124911	83.81	167.265
0	125061	83.91	167.509
0	125215	84.01	167.754
0	125365	84.11	167.998
0	125515	84.21	168.242
0	125665	84.31	168.487
0	125815	84.41	168.731
0	125965	84.51	168.976
0	126115	84.61	169.22
0	126265	84.71	169.465
0	126415	84.81	169.709
0	126565	84.91	169.954
0	126719	85.01	170.198
0	126869	85.11	170.442
0	127019	85.21	170.687
0	127169	85.31	170.931
0	127319	85.41	171.176
0	127469	85.51	171.42
0	127619	85.61	171.665
0	127769	85.71	171.909
0	127919	85.81	172.153
0	128069	85.91	172.398
0	128223	86.01	172.642
0	128373	86.11	172.887
0	128523	86.21	173.131
0	128673	86.31	173.376
0	128823	86.41	173.62
0	128973	86.51	173.865
0	129123	86.61	174.109
0	129273	86.71	174.353
0	129423	86.81	174.598
0	129573	86.91	174.842
0	129727	87.01	175.087
0	129877	87.11	175.331
0	130027	87.21	175.576
0	130177	87.31	175.82
0	130327	87.41	176.065
0	130477	87.51	176.309
0	130627	87.61	176.553
0	130777	87.71	176.798
0	130927	87.81	177.042
0	131077	87.91	177.287
0	131231	88.01	177.531
0	131381	88.11	177.776
0	131531	88.21	178.02
0	131681	88.31	178.264
0	131831	88.41	178.509
0	131981	88.51	178.753
0	132131	88.61	178.998
0	132281	88.71	179.242
0	132431	88.81	179.487
0	132581	88.91	179.731
0	132735	89.01	179.976
0	132885	89.11	180.22
0	133035	89.21	180.464
0	133185	89.31	180.709
0	133335	89.41	180.953
0	133485	89.51	181.198
0	133635	89.61	181.442
0	133785	89.71	181.687
0	133935	89.81	181.931
0	134085	89.91	182.176
0	134239	90.01	182.42
0	134389	90.11	182.664
0	134539	90.21	182.909
0	134689	90.31	183.153
0	134839	90.41	183.398
0	134989	90.51	183.642
0	135139	90.61	183.887
0	135289	90.71	184.131
0	135439	90.81	184.375
0	135589	90.91	184.62
0	135743	91.01	184.864
0	135893	91.11	185.109
0	136043	91.21	185.353
0	136193	91.31	185.598
0	136343	91.41	185.842
0	136493	91.51	186.087
0	136643	91.61	186.331
0	136793	91.71	186.575
0	136943	91.81	186.82
0	137093	91.91	187.064
0	137247	92.01	187.309
0	137397	92.11	187.553
0	137547	92.21	187.798
0	137697	92.31	188.042
0	137847	92.41	188.287
0	137997	92.51	188.531
0	138147	92.61	188.775
0	138297	92.71	189.02
0	138447	92.81	189.264
0	138597	92.91	189.509
0	138751	93.01	189.753
0	138901	93.11	189.998
0	139051	93.21	190.242
0	139201	93.31	190.486
0	139351	93.41	190.731
0	139501	93.51	190.975
0	139651	93.61	191.22
0	139801	93.71	191.464
0	139951	93.81	191.709
0	140101	93.91	191.953
0	140255	94.01	192.198
0	140405	94.11	192.442
0	140555	94.21	192.686
0	140705	94.31	192.931
0	140855	94.41	193.175
0	141005	94.51	193.42
0	141155	94.61	193.664
0	141305	94.71	193.909
0	141455	94.81	194.153
0	141605	94.91	194.398
0	141759	95.01	194.642
0	141909	95.11	194.886
0	142059	95.21	195.131
0	142209	95.31	195.375
0	142359	95.41	195.62
0	142509	95.51	195.864
0	142659	95.61	196.109
0	142809	95.71	196.353
0	142959	95.81	196.597
0	143109	95.91	196.842
0	143263	96.01	197.086
0	143413	96.11	197.331
0	143563	96.21	197.575
0	143713	96.31	197.82
0	143863	96.41	198.064
0	144013	96.51	198.309
0	144163	96.61	198.553
0	144313	96.71	198.797
0	144463	96.81	199.042
0	144613	96.91	199.286
0	144767	97.01	199.531
0	144917	97.11	199.775
0	145067	97.21	200.02
0	145217	97.31	200.264
0	145367	97.41	200.509
0	145517	97.51	200.753
0	145667	97.61	200.997
0	145817	97.71	201.242
0	145967	97.81	201.486
0	146117	97.91	201.731
0	146271	98.01	201.975
0	146421	98.11	202.22
0	146571	98.21	202.464
0	146721	98.31	202.708
0	146871	98.41	202.953
0	147021	98.51	203.197
0	147171	98.61	203.442
0	147321	98.71	203.686
0	147471	98.81	203.931
0	147621	98.91	204.175
0	147775	99.01	204.42
0	147925	99.11	204.664
0	148075	99.21	204.908
0	148225	99.31	205.153
0	148375	99.41	205.397
0	148525	99.51	205.642
0	148675	99.61	205.886
0	148825	99.71	206.131
0	148975	99.81	206.375
0	149125	99.91	206.62
1	113	1.11	0
1	263	1.21	0
1	413	1.31	0
1	563	1.41	0
1	713	1.51	0
1	863	1.61	0
1	1013	1.71	0
1	1163	1.81	0
1	1313	1.91	0
1	1467	2.01	0
1	1617	2.11	0
1	1767	2.21	0
1	1917	2.31	0
1	2067	2.41	0
1	2217	2.51	0
1	2367	2.61	0
1	2517	2.71	0
1	2667	2.81	0
1	2817	2.91	0
1	2971	3.01	0
1	3121	3.11	0
1	3271	3.21	0
1	3421	3.31	0
1	3571	3.41	0
1	3721	3.51	0
1	3871	3.61	0
1	4021	3.71	0
1	4171	3.81	0
1	4321	3.91	0
1	4475	4.01	0
1	4625	4.11	0
1	4775	4.21	0
1	4925	4.31	0
1	5075	4.41	0
1	5225	4.51	0
1	5375	4.61	0
1	5525	4.71	0
1	5675	4.81	0
1	5825	4.91	0
1	5979	5.01	0
1	6129	5.11	0
1	6279	5.21	0
1	6429	5.31	0
1	6579	5.41	0
1	6729	5.51	0
1	6879	5.61	0
1	7029	5.71	0
1	7179	5.81	0
1	7329	5.91	0
1	7483	6.01	0
1	7633	6.11	0
1	7783	6.21	0
1	7933	6.31	0
1	8083	6.41	0
1	8233	6.51	0
1	8383	6.61	0
1	8533	6.71	0
1	8683	6.81	0
1	8833	6.91	0
1	8987	7.01	0
1	9137	7.11	0
1	9287	7.21	0
1	9437	7.31	0
1	9587	7.41	0
1	9737	7.51	0
1	9887	7.61	0
1	10037	7.71	0
1	10187	7.81	0
1	10337	7.91	0
1	10491	8.01	0
1	10641	8.11	0
1	10791	8.21	0
1	10941	8.31	0
1	11091	8.41	0
1	11241	8.51	0
1	11391	8.61	0
1	11541	8.71	0
1	11691	8.81	0
1	11841	8.91	0
1	11995	9.01	0
1	12145	9.11	0
1	12295	9.21	0
1	12445	9.31	0
1	12595	9.41	0
1	12745	9.51	0
1	12895	9.61	0
1	13045	9.71	0
1	13195	9.81	0
1	13345	9.91	0
1	13919	10.01	0
1	14069	10.11	0
1	14219	10.21	0
1	14369	10.31	0
1	14519	10.41	0
1	14669	10.51	0
1	14819	10.61	0
1	14969	10.71	0
1	15119	10.81	0
1	15269	10.91	0
1	15423	11.01	0
1	15573	11.11	0
1	15723	11.21	0
1	15873	11.31	0
1	16023	11.41	0
1	16173	11.51	0
1	16323	11.61	0
1	16473	11.71	0
1	16623	11.81	0
1	16773	11.91	0
1	16927	12.01	0
1	17077	12.11	0
1	17227	12.21	0
1	17377	12.31	0
1	17527	12.41	0
1	17677	12.51	0
1	17827	12.61	0
1	17977	12.71	0
1	18127	12.81	0
1	18277	12.91	0
1	18431	13.01	0
1	18581	13.11	0
1	18731	13.21	0
1	18881	13.31	0
1	19031	13.41	0
1	19181	13.51	0
1	19331	13.61	0
1	19481	13.71	0
1	19631	13.81	0
1	19781	13.91	0
1	19935	14.01	0
1	20085	14.11	0
1	20235	14.21	0
1	20385	14.31	0
1	20535	14.41	0
1	20685	14.51	0
1	20835	14.61	0
1	20985	14.71	0
1	21135	14.81	0
1	21285	14.91	0
1	21439	15.01	0
1	21589	15.11	0
1	21739	15.21	0
1	21889	15.31	0
1	22039	15.41	0
1	22189	15.51	0
1	22339	15.61	0
1	22489	15.71	0
1	22639	15.81	0
1	22789	15.91	0
1	22943	16.01	0
1	23093	16.11	0
1	23243	16.21	0
1	23393	16.31	0
1	23543	16.41	0
1	23693	16.51	0
1	23843	16.61	0
1	23993	16.71	0
1	24143	16.81	0
1	24293	16.91	0
1	24447	17.01	0
1	24597	17.11	0
1	24747	17.21	0
1	24897	17.31	0
1	25047	17.41	0
1	25197	17.51	0
1	25347	17.61	0
1	25497	17.71	0
1	25647	17.81	0
1	25797	17.91	0
1	25951	18.01	0
1	26101	18.11	0
1	26251	18.21	0
1	26401	18.31	0
1	26551	18.41	0
1	26701	18.51	0
1	26851	18.61	0
1	27001	18.71	0
1	27151	18.81	0
1	27301	18.91	0
1	27455	19.01	0
1	27605	19.11	0
1	27755	19.21	0
1	27905	19.31	0
1	28055	19.41	0
1	28205	19.51	0
1	28355	19.61	0
1	28505	19.71	0
1	28655	19.81	0
1	28805	19.91	0
1	28959	20.01	0
1	29109	20.11	0
1	29259	20.21	0
1	29409	20.31	0
1	29559	20.41	0
1	29709	20.51	0
1	29859	20.61	0
1	30009	20.71	0
1	30159	20.81	0
1	30309	20.91	0
1	30463	21.01	0
1	30613	21.11	0
1	30763	21.21	0
1	30913	21.31	0
1	31063	21.41	0
1	31213	21.51	0
1	31363	21.61	0
1	31513	21.71	0
1	31663	21.81	0
1	31813	21.91	0
1	31967	22.01	0
1	32117	22.11	0
1	32267	22.21	0
1	32417	22.31	0
1	32567	22.41	0
1	32717	22.51	0
1	32867	22.61	0
1	33017	22.71	0
1	33167	22.81	0
1	33317	22.91	0
1	33471	23.01	0
1	33621	23.11	0
1	33771	23.21	0
1	33921	23.31	0
1	34071	23.41	0
1	34221	23.51	0
1	34371	23.61	0
1	34521	23.71	0
1	34671	23.81	0
1	34821	23.91	0
1	34975	24.01	0
1	35125	24.11	0
1	35275	24.21	0
1	35425	24.31	0
1	35575	24.41	2.4444
1	35725	24.51	2.4444
1	35875	24.61	2.4444
1	36025	24.71	2.4444
1	36175	24.81	2.4444
1	36325	24.91	2.4444
1	36479	25.01	2.4444
1	36629	25.11	2.4444
1	36779	25.21	2.4444
1	36929	25.31	2.4444
1	37079	25.41	2.4444
1	37229	25.51	2.4444
1	37379	25.61	2.4444
1	37529	25.71	2.4444
1	37679	25.81	2.4444
1	37829	25.91	2.4444
1	37983	26.01	2.4444
1	38133	26.11	2.4444
1	38283	26.21	2.4444
1	38433	26.31	2.4444
1	38583	26.41	2.4444
1	38733	26.51	2.4444
1	38883	26.61	2.4444
1	39033	26.71	2.4444
1	39183	26.81	2.4444
1	39333	26.91	2.4444
1	39487	27.01	2.4444
1	39637	27.11	2.4444
1	39787	27.21	2.4444
1	39937	27.31	2.4444
1	40087	27.41	2.4444
1	40237	27.51	2.4444
1	40387	27.61	2.4444
1	40537	27.71	2.4444
1	40687	27.81	2.4444
1	40837	27.91	2.4444
1	40991	28.01	2.4444
1	41141	28.11	2.4444
1	41291	28.21	2.4444
1	41441	28.31	2.4444
1	41591	28.41	2.4444
1	41741	28.51	2.4444
1	41891	28.61	2.4444
1	42041	28.71	2.4444
1	42191	28.81	2.4444
1	42341	28.91	2.4444
1	42495	29.01	2.4444
1	42645	29.11	2.4444
1	42795	29.21	2.4444
1	42945	29.31	2.4444
1	43095	29.41	2.4444
1	43245	29.51	2.4444
1	43395	29.61	2.4444
1	43545	29.71	2.4444
1	43695	29.81	2.4444
1	43845	29.91	2.4444
1	43999	30.01	2.4444
1	44149	30.11	2.4444
1	44299	30.21	2.4444
1	44449	30.31	2.4444
1	44599	30.41	2.4444
1	44749	30.51	2.4444
1	44899	30.61	2.4444
1	45049	30.71	2.4444
1	45199	30.81	2.4444
1	45349	30.91	2.4444
1	45503	31.01	2.4444
1	45653	31.11	2.4444
1	45803	31.21	2.4444
1	45953	31.31	2.4444
1	46103	31.41	2.4444
1	46253	31.51	2.4444
1	46403	31.61	2.4444
1	46553	31.71	2.4444
1	46703	31.81	2.4444
1	46853	31.91	2.4444
1	47007	32.01	2.4444
1	47157	32.11	2.4444
1	47307	32.21	2.4444
1	47457	32.31	2.4444
1	47607	32.41	2.4444
1	47757	32.51	2.4444
1	47907	32.61	2.4444
1	48057	32.71	2.4444
1	48207	32.81	2.4444
1	48357	32.91	2.4444
1	48511	33.01	2.4444
1	48661	33.11	2.4444
1	48811	33.21	2.4444
1	48961	33.31	2.4444
1	49111	33.41	2.4444
1	49261	33.51	2.4444
1	49411	33.61	2.4444
1	49561	33.71	2.4444
1	49711	33.81	2.4444
1	49861	33.91	2.4444
1	50015	34.01	2.4444
1	50165	34.11	2.4444
1	50315	34.21	2.4444
1	50465	34.31	2.4444
1	50615	34.41	2.4444
1	50765	34.51	2.4444
1	50915	34.61	2.4444
1	51065	34.71	2.4444
1	51215	34.81	2.4444
1	51365	34.91	2.4444
1	51519	35.01	2.4444
1	51669	35.11	2.4444
1	51819	35.21	2.4444
1	51969	35.31	2.4444
1	52119	35.41	2.4444
1	52269	35.51	2.4444
1	52419	35.61	2.4444
1	52569	35.71	2.4444
1	52719	35.81	2.4444
1	52869	35.91	2.4444
1	53023	36.01	2.4444
1	53173	36.11	2.4444
1	53323	36.21	2.4444
1	53473	36.31	2.4444
1	53623	36.41	2.4444
1	53773	36.51	2.4444
1	53923	36.61	2.4444
1	54073	36.71	2.4444
1	54223	36.81	2.4444
1	54373	36.91	2.4444
1	54527	37.01	2.4444
1	54677	37.11	2.4444
1	54827	37.21	2.4444
1	54977	37.31	2.4444
1	55127	37.41	2.4444
1	55277	37.51	2.4444
1	55427	37.61	2.4444
1	55577	37.71	2.4444
1	55727	37.81	2.4444
1	55877	37.91	2.4444
1	56031	38.01	2.4444
1	56181	38.11	2.4444
1	56331	38.21	2.4444
1	56481	38.31	2.4444
1	56631	38.41	2.4444
1	56781	38.51	2.4444
1	56931	38.61	2.4444
1	57081	38.71	2.4444
1	57231	38.81	2.4444
1	57381	38.91	2.4444
1	57535	39.01	2.4444
1	57685	39.11	2.4444
1	57835	39.21	2.4444
1	57985	39.31	2.4444
1	58135	39.41	2.4444
1	58285	39.51	2.4444
1	58435	39.61	2.4444
1	58585	39.71	2.4444
1	58735	39.81	2.4444
1	58885	39.91	2.4444
1	59039	40.01	2.4444
1	59189	40.11	2.4444
1	59339	40.21	2.4444
1	59489	40.31	2.4444
1	59639	40.41	2.4444
1	59789	40.51	2.4444
1	59939	40.61	2.4444
1	60089	40.71	2.4444
1	60239	40.81	2.4444
1	60389	40.91	2.4444
1	60543	41.01	2.4444
1	60693	41.11	2.4444
1	60843	41.21	2.4444
1	60993	41.31	2.4444
1	61143	41.41	2.4444
1	61293	41.51	2.4444
1	61443	41.61	2.4444
1	61593	41.71	2.4444
1	61743	41.81	2.4444
1	61893	41.91	2.4444
1	62047	42.01	2.4444
1	62197	42.11	2.4444
1	62347	42.21	2.4444
1	62497	42.31	2.4444
1	62647	42.41	2.4444
1	62797	42.51	2.4444
1	62947	42.61	2.4444
1	63097	42.71	2.4444
1	63247	42.81	2.4444
1	63397	42.91	2.4444
1	63551	43.01	2.4444
1	63701	43.11	2.4444
1	63851	43.21	2.4444
1	64001	43.31	2.4444
1	64151	43.41	2.4444
1	64301	43.51	2.4444
1	64451	43.61	2.4444
1	64601	43.71	2.4444
1	64751	43.81	2.4444
1	64901	43.91	2.4444
1	65055	44.01	2.4444
1	65205	44.11	2.4444
1	65355	44.21	2.4444
1	65505	44.31	2.4444
1	65655	44.41	2.4444
1	65805	44.51	2.4444
1	65955	44.61	2.4444
1	66105	44.71	2.4444
1	66255	44.81	2.4444
1	66405	44.91	2.4444
1	66559	45.01	2.4444
1	66709	45.11	2.4444
1	66859	45.21	2.4444
1	67009	45.31	2.4444
1	67159	45.41	2.4444
1	67309	45.51	2.4444
1	67459	45.61	2.4444
1	67609	45.71	2.4444
1	67759	45.81	2.4444
1	67909	45.91	2.4444
1	68063	46.01	2.4444
1	68213	46.11	2.4444
1	68363	46.21	2.4444
1	68513	46.31	2.4444
1	68663	46.41	2.4444
1	68813	46.51	2.4444
1	68963	46.61	2.4444
1	69113	46.71	2.4444
1	69263	46.81	2.4444
1	69413	46.91	2.4444
1	69567	47.01	2.4444
1	69717	47.11	2.4444
1	69867	47.21	2.4444
1	70017	47.31	2.4444
1	70167	47.41	2.4444
1	70317	47.51	2.4444
1	70467	47.61	2.4444
1	70617	47.71	2.4444
1	70767	47.81	2.4444
1	70917	47.91	2.4444
1	71071	48.01	2.4444
1	71221	48.11	2.4444
1	71371	48.21	2.4444
1	71521	48.31	2.4444
1	71671	48.41	2.4444
1	71821	48.51	2.4444
1	71971	48.61	2.4444
1	72121	48.71	2.4444
1	72271	48.81	2.4444
1	72421	48.91	2.4444
1	72575	49.01	2.4444
1	72725	49.11	2.4444
1	72875	49.21	2.4444
1	73025	49.31	2.4444
1	73175	49.41	2.4444
1	73325	49.51	2.4444
1	73475	49.61	2.4444
1	73625	49.71	2.4444
1	73775	49.81	2.4444
1	73925	49.91	2.4444
1	74079	50.01	2.4444
1	74229	50.11	2.4444
1	74379	50.21	2.4444
1	74529	50.31	2.4444
1	74679	50.41	2.4444
1	74829	50.51	2.4444
1	74979	50.61	2.4444
1	75129	50.71	2.4444
1	75279	50.81	2.4444
1	75429	50.91	2.4444
1	75583	51.01	2.4444
1	75733	51.11	2.4444
1	75883	51.21	2.4444
1	76033	51.31	2.4444
1	76183	51.41	2.4444
1	76333	51.51	2.4444
1	76483	51.61	2.4444
1	76633	51.71	2.4444
1	76783	51.81	2.4444
1	76933	51.91	2.4444
1	77087	52.01	2.4444
1	77237	52.11	2.4444
1	77387	52.21	2.4444
1	77537	52.31	2.4444
1	77687	52.41	2.4444
1	77837	52.51	2.4444
1	77987	52.61	2.4444
1	78137	52.71	2.4444
1	78287	52.81	2.4444
1	78437	52.91	2.4444
1	78591	53.01	2.4444
1	78741	53.11	2.4444
1	78891	53.21	2.4444
1	79041	53.31	2.4444
1	79191	53.41	2.4444
1	79341	53.51	2.4444
1	79491	53.61	2.4444
1	79641	53.71	2.4444
1	79791	53.81	2.4444
1	79941	53.91	2.4444
1	80095	54.01	2.4444
1	80245	54.11	2.4444
1	80395	54.21	2.4444
1	80545	54.31	2.4444
1	80695	54.41	2.4444
1	80845	54.51	2.4444
1	80995	54.61	2.4444
1	81145	54.71	2.4444
1	81295	54.81	2.4444
1	81445	54.91	2.4444
1	81599	55.01	2.4444
1	81749	55.11	2.4444
1	81899	55.21	2.4444
1	82049	55.31	2.4444
1	82199	55.41	2.4444
1	82349	55.51	2.4444
1	82499	55.61	2.4444
1	82649	55.71	2.4444
1	82799	55.81	2.4444
1	82949	55.91	2.4444
1	83103	56.01	2.4444
1	83253	56.11	2.4444
1	83403	56.21	2.4444
1	83553	56.31	2.4444
1	83703	56.41	2.4444
1	83853	56.51	2.4444
1	84003	56.61	2.4444
1	84153	56.71	2.4444
1	84303	56.81	2.4444
1	84453	56.91	2.4444
1	84607	57.01	2.4444
1	84757	57.11	2.4444
1	84907	57.21	2.4444
1	85057	57.31	2.4444
1	85207	57.41	2.4444
1	85357	57.51	2.4444
1	85507	57.61	2.4444
1	85657	57.71	2.4444
1	85807	57.81	2.4444
1	85957	57.91	2.4444
1	86111	58.01	2.4444
1	86261	58.11	2.4444
1	86411	58.21	2.4444
1	86561	58.31	2.4444
1	86711	58.41	2.4444
1	86861	58.51	2.4444
1	87011	58.61	2.4444
1	87161	58.71	2.4444
1	87311	58.81	2.4444
1	87461	58.91	2.4444
1	87615	59.01	2.4444
1	87765	59.11	2.4444
1	87915	59.21	2.4444
1	88065	59.31	2.4444
1	88215	59.41	2.4444
1	88365	59.51	2.4444
1	88515	59.61	2.4444
1	88665	59.71	2.4444
1	88815	59.81	2.4444
1	88965	59.91	2.4444
1	89119	60.01	2.4444
1	89269	60.11	2.4444
1	89419	60.21	2.4444
1	89569	60.31	2.4444
1	89719	60.41	2.4444
1	89869	60.51	2.4444
1	90019	60.61	2.4444
1	90169	60.71	2.4444
1	90319	60.81	2.4444
1	90469	60.91	2.4444
1	90623	61.01	2.4444
1	90773	61.11	2.4444
1	90923	61.21	2.4444
1	91073	61.31	2.4444
1	91223	61.41	2.4444
1	91373	61.51	2.4444
1	91523	61.61	2.4444
1	91673	61.71	2.4444
1	91823	61.81	2.4444
1	91973	61.91	2.4444
1	92127	62.01	2.4444
1	92277	62.11	2.4444
1	92427	62.21	2.4444
1	92577	62.31	2.4444
1	92727	62.41	2.4444
1	92877	62.51	2.4444
1	93027	62.61	2.4444
1	93177	62.71	2.4444
1	93327	62.81	2.4444
1	93477	62.91	2.4444
1	93631	63.01	2.4444
1	93781	63.11	2.4444
1	93931	63.21	2.4444
1	94081	63.31	2.4444
1	94231	63.41	2.4444
1	94381	63.51	2.4444
1	94531	63.61	2.4444
1	94681	63.71	2.4444
1	94831	63.81	2.4444
1	94981	63.91	2.4444
1	95135	64.01	2.4444
1	95285	64.11	2.4444
1	95435	64.21	2.4444
1	95585	64.31	2.4444
1	95735	64.41	2.4444
1	95885	64.51	2.4444
1	96035	64.61	2.4444
1	96185	64.71	2.4444
1	96335	64.81	2.4444
1	96485	64.91	2.4444
1	96639	65.01	2.4444
1	96789	65.11	2.4444
1	96939	65.21	2.4444
1	97089	65.31	2.4444
1	97239	65.41	2.4444
1	97389	65.51	2.4444
1	97539	65.61	2.4444
1	97689	65.71	2.4444
1	97839	65.81	2.4444
1	97989	65.91	2.4444
1	98143	66.01	2.4444
1	98293	66.11	2.4444
1	98443	66.21	2.4444
1	98593	66.31	2.4444
1	98743	66.41	2.4444
1	98893	66.51	2.4444
1	99043	66.61	2.4444
1	99193	66.71	2.4444
1	99343	66.81	2.4444
1	99493	66.91	2.4444
1	99647	67.01	2.4444
1	99797	67.11	2.4444
1	99947	67.21	2.4444
1	100097	67.31	2.4444
1	100247	67.41	2.4444
1	100397	67.51	2.4444
1	100547	67.61	2.4444
1	100697	67.71	2.4444
1	100847	67.81	2.4444
1	100997	67.91	2.4444
1	101151	68.01	2.4444
1	101301	68.11	2.4444
1	101451	68.21	2.4444
1	101601	68.31	2.4444
1	101751	68.41	2.4444
1	101901	68.51	2.4444
1	102051	68.61	2.4444
1	102201	68.71	2.4444
1	102351	68.81	2.4444
1	102501	68.91	2.4444
1	102655	69.01	2.4444
1	102805	69.11	2.4444
1	102955	69.21	2.4444
1	103105	69.31	2.4444
1	103255	69.41	2.4444
1	103405	69.51	2.4444
1	103555	69.61	2.4444
1	103705	69.71	2.4444
1	103855	69.81	2.4444
1	104005	69.91	2.4444
1	104159	70.01	2.4444
1	104309	70.11	2.4444
1	104459	70.21	2.4444
1	104609	70.31	2.4444
1	104759	70.41	2.4444
1	104909	70.51	2.4444
1	105059	70.61	2.4444
1	105209	70.71	2.4444
1	105359	70.81	2.4444
1	105509	70.91	2.4444
1	105663	71.01	2.4444
1	105813	71.11	2.4444
1	105963	71.21	2.4444
1	106113	71.31	2.4444
1	106263	71.41	2.4444
1	106413	71.51	2.4444
1	106563	71.61	2.4444
1	106713	71.71	2.4444
1	106863	71.81	2.4444
1	107013	71.91	2.4444
1	107167	72.01	2.4444
1	107317	72.11	2.4444
1	107467	72.21	2.4444
1	107617	72.31	2.4444
1	107767	72.41	2.4444
1	107917	72.51	2.4444
1	108067	72.61	2.4444
1	108217	72.71	2.4444
1	108367	72.81	2.4444
1	108517	72.91	2.4444
1	108671	73.01	2.4444
1	108821	73.11	2.4444
1	108971	73.21	2.4444
1	109121	73.31	2.4444
1	109271	73.41	2.4444
1	109421	73.51	2.4444
1	109571	73.61	2.4444
1	109721	73.71	2.4444
1	109871	73.81	2.4444
1	110021	73.91	2.4444
1	110175	74.01	2.4444
1	110325	74.11	2.4444
1	110475	74.21	2.4444
1	110625	74.31	2.4444
1	110775	74.41	2.4444
1	110925	74.51	2.4444
1	111075	74.61	2.4444
1	111225	74.71	2.4444
1	111375	74.81	2.4444
1	111525	74.91	2.4444
1	111679	75.01	2.4444
1	111829	75.11	2.4444
1	111979	75.21	2.4444
1	112129	75.31	2.4444
1	112279	75.41	2.4444
1	112429	75.51	2.4444
1	112579	75.61	2.4444
1	112729	75.71	2.4444
1	112879	75.81	2.4444
1	113029	75.91	2.4444
1	113183	76.01	2.4444
1	113333	76.11	2.4444
1	113483	76.21	2.4444
1	113633	76.31	2.4444
1	113783	76.41	2.4444
1	113933	76.51	2.4444
1	114083	76.61	2.4444
1	114233	76.71	2.4444
1	114383	76.81	2.4444
1	114533	76.91	2.4444
1	114687	77.01	2.4444
1	114837	77.11	2.4444
1	114987	77.21	2.4444
1	115137	77.31	2.4444
1	115287	77.41	2.4444
1	115437	77.51	2.4444
1	115587	77.61	2.4444
1	115737	77.71	2.4444
1	115887	77.81	2.4444
1	116037	77.91	2.4444
1	116191	78.01	2.4444
1	116341	78.11	2.4444
1	116491	78.21	2.4444
1	116641	78.31	2.4444
1	116791	78.41	2.4444
1	116941	78.51	2.4444
1	117091	78.61	2.4444
1	117241	78.71	2.4444
1	117391	78.81	2.4444
1	117541	78.91	2.4444
1	117695	79.01	2.4444
1	117845	79.11	2.4444
1	117995	79.21	2.4444
1	118145	79.31	2.4444
1	118295	79.41	2.4444
1	118445	79.51	2.4444
1	118595	79.61	2.4444
1	118745	79.71	2.4444
1	118895	79.81	2.4444
1	119045	79.91	2.4444
1	119199	80.01	2.4444
1	119349	80.11	2.4444
1	119499	80.21	2.4444
1	119649	80.31	2.4444
1	119799	80.41	2.4444
1	119949	80.51	2.4444
1	120099	80.61	2.4444
1	120249	80.71	2.4444
1	120399	80.81	2.4444
1	120549	80.91	2.4444
1	120703	81.01	2.4444
1	120853	81.11	2.4444
1	121003	81.21	2.4444
1	121153	81.31	2.4444
1	121303	81.41	2.4444
1	121453	81.51	2.4444
1	121603	81.61	2.4444
1	121753	81.71	2.4444
1	121903	81.81	2.4444
1	122053	81.91	2.4444
1	122207	82.01	2.4444
1	122357	82.11	2.4444
1	122507	82.21	2.4444
1	122657	82.31	2.4444
1	122807	82.41	2.4444
1	122957	82.51	2.4444
1	123107	82.61	2.4444
1	123257	82.71	2.4444
1	123407	82.81	2.4444
1	123557	82.91	2.4444
1	123711	83.01	2.4444
1	123861	83.11	2.4444
1	124011	83.21	2.4444
1	124161	83.31	2.4444
1	124311	83.41	2.4444
1	124461	83.51	2.4444
1	124611	83.61	2.4444
1	124761	83.71	2.4444
1	124911	83.81	2.4444
1	125061	83.91	2.4444
1	125215	84.01	2.4444
1	125365	84.11	2.4444
1	125515	84.21	2.4444
1	125665	84.31	2.4444
1	125815	84.41	2.4444
1	125965	84.51	2.4444
1	126115	84.61	2.4444
1	126265	84.71	2.4444
1	126415	84.81	2.4444
1	126565	84.91	2.4444
1	126719	85.01	2.4444
1	126869	85.11	2.4444
1	127019	85.21	2.4444
1	127169	85.31	2.4444
1	127319	85.41	2.4444
1	127469	85.51	2.4444
1	127619	85.61	2.4444
1	127769	85.71	2.4444
1	127919	85.81	2.4444
1	128069	85.91	2.4444
1	128223	86.01	2.4444
1	128373	86.11	2.4444
1	128523	86.21	2.4444
1	128673	86.31	2.4444
1	128823	86.41	2.4444
1	128973	86.51	2.4444
1	129123	86.61	2.4444
1	129273	86.71	2.4444
1	129423	86.81	2.4444
1	129573	86.91	2.4444
1	129727	87.01	2.4444
1	129877	87.11	2.4444
1	130027	87.21	2.4444
1	130177	87.31	2.4444
1	130327	87.41	2.4444
1	130477	87.51	2.4444
1	130627	87.61	2.4444
1	130777	87.71	2.4444
1	130927	87.81	2.4444
1	131077	87.91	2.4444
1	131231	88.01	2.4444
1	131381	88.11	2.4444
1	131531	88.21	2.4444
1	131681	88.31	2.4444
1	131831	88.41	2.4444
1	131981	88.51	2.4444
1	132131	88.61	2.4444
1	132281	88.71	2.4444
1	132431	88.81	2.4444
1	132581	88.91	2.4444
1	132735	89.01	2.4444
1	132885	89.11	2.4444
1	133035	89.21	2.4444
1	133185	89.31	2.4444
1	133335	89.41	2.4444
1	133485	89.51	2.4444
1	133635	89.61	2.4444
1	133785	89.71	2.4444
1	133935	89.81	2.4444
1	134085	89.91	2.4444
1	134239	90.01	2.4444
1	134389	90.11	2.4444
1	134539	90.21	2.4444
1	134689	90.31	2.4444
1	134839	90.41	2.4444
1	134989	90.51	2.4444
1	135139	90.61	2.4444
1	135289	90.71	2.4444
1	135439	90.81	2.4444
1	135589	90.91	2.4444
1	135743	91.01	2.4444
1	135893	91.11	2.4444
1	136043	91.21	2.4444
1	136193	91.31	2.4444
1	136343	91.41	2.4444
1	136493	91.51	2.4444
1	136643	91.61	2.4444
1	136793	91.71	2.4444
1	136943	91.81	2.4444
1	137093	91.91	2.4444
1	137247	92.01	2.4444
1	137397	92.11	2.4444
1	137547	92.21	2.4444
1	137697	92.31	2.4444
1	137847	92.41	2.4444
1	137997	92.51	2.4444
1	138147	92.61	2.4444
1	138297	92.71	2.4444
1	138447	92.81	2.4444
1	138597	92.91	2.4444
1	138751	93.01	2.4444
1	138901	93.11	2.4444
1	139051	93.21	2.4444
1	139201	93.31	2.4444
1	139351	93.41	2.4444
1	139501	93.51	2.4444
1	139651	93.61	2.4444
1	139801	93.71	2.4444
1	139951	93.81	2.4444
1	140101	93.91	2.4444
1	140255	94.01	2.4444
1	140405	94.11	2.4444
1	140555	94.21	2.4444
1	140705	94.31	2.4444
1	140855	94.41	2.4444
1	141005	94.51	2.4444
1	141155	94.61	2.4444
1	141305	94.71	2.4444
1	141455	94.81	2.4444
1	141605	94.91	2.4444
1	141759	95.01	2.4444
1	141909	95.11	2.4444
1	142059	95.21	2.4444
1	142209	95.31	2.4444
1	142359	95.41	2.4444
1	142509	95.51	2.4444
1	142659	95.61	2.4444
1	142809	95.71	2.4444
1	142959	95.81	2.4444
1	143109	95.91	2.4444
1	143263	96.01	2.4444
1	143413	96.11	2.4444
1	143563	96.21	2.4444
1	143713	96.31	2.4444
1	143863	96.41	2.4444
1	144013	96.51	2.4444
1	144163	96.61	2.4444
1	144313	96.71	2.4444
1	144463	96.81	2.4444
1	144613	96.91	2.4444
1	144767	97.01	2.4444
1	144917	97.11	2.4444
1	145067	97.21	2.4444
1	145217	97.31	2.4444
1	145367	97.41	2.4444
1	145517	97.51	2.4444
1	145667	97.61	2.4444
1	145817	97.71	2.4444
1	145967	97.81	2.4444
1	146117	97.91	2.4444
1	146271	98.01	2.4444
1	146421	98.11	2.4444
1	146571	98.21	2.4444
1	146721	98.31	2.4444
1	146871	98.41	2.4444
1	147021	98.51	2.4444
1	147171	98.61	2.4444
1	147321	98.71	2.4444
1	147471	98.81	2.4444
1	147621	98.91	2.4444
1	147775	99.01	2.4444
1	147925	99.11	2.4444
1	148075	99.21	2.4444
1	148225	99.31	2.4444
1	148375	99.41	2.4444
1	148525	99.51	2.4444
1	148675	99.61	2.4444
1	148825	99.71	2.4444
1	148975	99.81	2.4444
1	149125	99.91	2.4444
2	113	1.11	0
2	263	1.21	0
2	413	1.31	0
2	563	1.41	0
2	713	1.51	0
2	863	1.61	0
2	1013	1.71	0
2	1163	1.81	0
2	1313	1.91	0
2	1467	2.01	0
2	1617	2.11	0
2	1767	2.21	0
2	1917	2.31	0
2	2067	2.41	0
2	2217	2.51	0
2	2367	2.61	0
2	2517	2.71	0
2	2667	2.81	0
2	2817	2.91	0
2	2971	3.01	0
2	3121	3.11	0
2	3271	3.21	0
2	3421	3.31	0
2	3571	3.41	0
2	3721	3.51	0
2	3871	3.61	0
2	4021	3.71	0
2	4171	3.81	0
2	4321	3.91	0
2	4475	4.01	0
2	4625	4.11	0
2	4775	4.21	0
2	4925	4.31	0
2	5075	4.41	0
2	5225	4.51	0
2	5375	4.61	0
2	5525	4.71	0
2	5675	4.81	0
2	5825	4.91	0
2	5979	5.01	0
2	6129	5.11	0
2	6279	5.21	0
2	6429	5.31	0
2	6579	5.41	0
2	6729	5.51	0
2	6879	5.61	0
2	7029	5.71	0
2	7179	5.81	0
2	7329	5.91	0
2	7483	6.01	0
2	7633	6.11	0
2	7783	6.21	0
2	7933	6.31	0
2	8083	6.41	0
2	8233	6.51	0
2	8383	6.61	0
2	8533	6.71	0
2	8683	6.81	0
2	8833	6.91	0
2	8987	7.01	0
2	9137	7.11	0
2	9287	7.21	0
2	9437	7.31	0
2	9587	7.41	0
2	9737	7.51	0
2	9887	7.61	0
2	10037	7.71	0
2	10187	7.81	0
2	10337	7.91	0
2	10491	8.01	0
2	10641	8.11	0
2	10791	8.21	0
2	10941	8.31	0
2	11091	8.41	0
2	11241	8.51	0
2	11391	8.61	0
2	11541	8.71	0
2	11691	8.81	0
2	11841	8.91	0
2	11995	9.01	0
2	12145	9.11	0
2	12295	9.21	0
2	12445	9.31	0
2	12595	9.41	0
2	12745	9.51	0
2	12895	9.61	0
2	13045	9.71	0
2	13195	9.81	0
2	13345	9.91	0
2	13919	10.01	0
2	14069	10.11	0
2	14219	10.21	0
2	14369	10.31	0
2	14519	10.41	0
2	14669	10.51	0
2	14819	10.61	0
2	14969	10.71	0
2	15119	10.81	0
2	15269	10.91	0
2	15423	11.01	0
2	15573	11.11	0
2	15723	11.21	0
2	15873	11.31	0
2	16023	11.41	0
2	16173	11.51	0
2	16323	11.61	0
2	16473	11.71	0
2	16623	11.81	0
2	16773	11.91	0
2	16927	12.01	0
2	17077	12.11	0
2	17227	12.21	0
2	17377	12.31	0
2	17527	12.41	0
2	17677	12.51	0
2	17827	12.61	0
2	17977	12.71	0
2	18127	12.81	0
2	18277	12.91	0
2	18431	13.01	0
2	18581	13.11	0
2	18731	13.21	0
2	18881	13.31	0
2	19031	13.41	0
2	19181	13.51	0
2	19331	13.61	0
2	19481	13.71	0
2	19631	13.81	0
2	19781	13.91	0
2	19935	14.01	0
2	20085	14.11	0
2	20235	14.21	0
2	20385	14.31	0
2	20535	14.41	0
2	20685	14.51	0
2	20835	14.61	0
2	20985	14.71	0
2	21135	14.81	0
2	21285	14.91	0
2	21439	15.01	0
2	21589	15.11	0
2	21739	15.21	0
2	21889	15.31	0
2	22039	15.41	0
2	22189	15.51	0
2	22339	15.61	0
2	22489	15.71	0
2	22639	15.81	0
2	22789	15.91	0
2	22943	16.01	0
2	23093	16.11	0
2	23243	16.21	0
2	23393	16.31	0
2	23543	16.41	0
2	23693	16.51	0
2	23843	16.61	0
2	23993	16.71	0
2	24143	16.81	0
2	24293	16.91	0
2	24447	17.01	0
2	24597	17.11	0
2	24747	17.21	0
2	24897	17.31	0
2	25047	17.41	0
2	25197	17.51	0
2	25347	17.61	0
2	25497	17.71	0
2	25647	17.81	0
2	25797	17.91	0
2	25951	18.01	0
2	26101	18.11	0
2	26251	18.21	0
2	26401	18.31	0
2	26551	18.41	0
2	26701	18.51	0
2	26851	18.61	0
2	27001	18.71	0
2	27151	18.81	0
2	27301	18.91	0
2	27455	19.01	0
2	27605	19.11	0
2	27755	19.21	0
2	27905	19.31	0
2	28055	19.41	0
2	28205	19.51	0
2	28355	19.61	0
2	28505	19.71	0
2	28655	19.81	0
2	28805	19.91	0
2	28959	20.01	0
2	29109	20.11	0
2	29259	20.21	0
2	29409	20.31	0
2	29559	20.41	0
2	29709	20.51	0
2	29859	20.61	0
2	30009	20.71	0
2	30159	20.81	0
2	30309	20.91	0
2	30463	21.01	0
2	30613	21.11	0
2	30763	21.21	0
2	30913	21.31	0
2	31063	21.41	0
2	31213	21.51	0
2	31363	21.61	0
2	31513	21.71	0
2	31663	21.81	0
2	31813	21.91	0
2	31967	22.01	0
2	32117	22.11	0
2	32267	22.21	0
2	32417	22.31	0
2	32567	22.41	0
2	32717	22.51	0
2	32867	22.61	0
2	33017	22.71	0
2	33167	22.81	0
2	33317	22.91	0
2	33471	23.01	0
2	33621	23.11	0
2	33771	23.21	0
2	33921	23.31	0
2	34071	23.41	0
2	34221	23.51	0
2	34371	23.61	0
2	34521	23.71	0
2	34671	23.81	0
2	34821	23.91	0
2	34975	24.01	0
2	35125	24.11	0
2	35275	24.21	0
2	35425	24.31	0
2	35575	24.41	0
2	35725	24.51	0
2	35875	24.61	0
2	36025	24.71	0
2	36175	24.81	0
2	36325	24.91	0
2	36479	25.01	0
2	36629	25.11	0
2	36779	25.21	0
2	36929	25.31	0
2	37079	25.41	0
2	37229	25.51	0
2	37379	25.61	0
2	37529	25.71	0
2	37679	25.81	0
2	37829	25.91	0
2	37983	26.01	0
2	38133	26.11	0
2	38283	26.21	0
2	38433	26.31	0
2	38583	26.41	0
2	38733	26.51	0
2	38883	26.61	0
2	39033	26.71	0
2	39183	26.81	0
2	39333	26.91	0
2	39487	27.01	0
2	39637	27.11	0
2	39787	27.21	0
2	39937	27.31	0
2	40087	27.41	0
2	40237	27.51	0
2	40387	27.61	0
2	40537	27.71	0
2	40687	27.81	0
2	40837	27.91	0
2	40991	28.01	0
2	41141	28.11	0
2	41291	28.21	0
2	41441	28.31	0
2	41591	28.41	0
2	41741	28.51	0
2	41891	28.61	0
2	42041	28.71	0
2	42191	28.81	0
2	42341	28.91	0
2	42495	29.01	0
2	42645	29.11	0
2	42795	29.21	0
2	42945	29.31	0
2	43095	29.41	0
2	43245	29.51	0
2	43395	29.61	0
2	43545	29.71	0
2	43695	29.81	0
2	43845	29.91	0
2	43999	30.01	0
2	44149	30.11	0
2	44299	30.21	0
2	44449	30.31	0
2	44599	30.41	0
2	44749	30.51	0
2	44899	30.61	0
2	45049	30.71	0
2	45199	30.81	0
2	45349	30.91	0
2	45503	31.01	0
2	45653	31.11	0
2	45803	31.21	0
2	45953	31.31	0
2	46103	31.41	0
2	46253	31.51	0
2	46403	31.61	0
2	46553	31.71	0
2	46703	31.81	0
2	46853	31.91	0
2	47007	32.01	0
2	47157	32.11	0
2	47307	32.21	0
2	47457	32.31	0
2	47607	32.41	0
2	47757	32.51	0
2	47907	32.61	0
2	48057	32.71	0
2	48207	32.81	0
2	48357	32.91	0
2	48511	33.01	0
2	48661	33.11	0
2	48811	33.21	0
2	48961	33.31	0
2	49111	33.41	0
2	49261	33.51	0
2	49411	33.61	0
2	49561	33.71	0
2	49711	33.81	0
2	49861	33.91	0
2	50015	34.01	0
2	50165	34.11	0
2	50315	34.21	0
2	50465	34.31	0
2	50615	34.41	0
2	50765	34.51	0
2	50915	34.61	0
2	51065	34.71	0
2	51215	34.81	0
2	51365	34.91	0
2	51519	35.01	0
2	51669	35.11	0
2	51819	35.21	0
2	51969	35.31	0
2	52119	35.41	0
2	52269	35.51	0
2	52419	35.61	0
2	52569	35.71	0
2	52719	35.81	0
2	52869	35.91	0
2	53023	36.01	0
2	53173	36.11	0
2	53323	36.21	0
2	53473	36.31	0
2	53623	36.41	0
2	53773	36.51	0
2	53923	36.61	0
2	54073	36.71	0
2	54223	36.81	0
2	54373	36.91	0
2	54527	37.01	0
2	54677	37.11	0
2	54827	37.21	0
2	54977	37.31	0
2	55127	37.41	0
2	55277	37.51	0
2	55427	37.61	0
2	55577	37.71	0
2	55727	37.81	0
2	55877	37.91	0
2	56031	38.01	0
2	56181	38.11	0
2	56331	38.21	0
2	56481	38.31	0
2	56631	38.41	0
2	56781	38.51	0
2	56931	38.61	0
2	57081	38.71	0
2	57231	38.81	0
2	57381	38.91	0
2	57535	39.01	0
2	57685	39.11	0
2	57835	39.21	0
2	57985	39.31	0
2	58135	39.41	0
2	58285	39.51	0
2	58435	39.61	0
2	58585	39.71	0
2	58735	39.81	0
2	58885	39.91	0
2	59039	40.01	0
2	59189	40.11	0
2	59339	40.21	0
2	59489	40.31	0
2	59639	40.41	0
2	59789	40.51	0
2	59939	40.61	0
2	60089	40.71	0
2	60239	40.81	0
2	60389	40.91	0
2	60543	41.01	0
2	60693	41.11	0
2	60843	41.21	0
2	60993	41.31	0
2	61143	41.41	0
2	61293	41.51	0
2	61443	41.61	0
2	61593	41.71	0
2	61743	41.81	0
2	61893	41.91	0
2	62047	42.01	0
2	62197	42.11	0
2	62347	42.21	0
2	62497	42.31	0
2	62647	42.41	0
2	62797	42.51	0
2	62947	42.61	0
2	63097	42.71	0
2	63247	42.81	0
2	63397	42.91	0
2	63551	43.01	0
2	63701	43.11	0
2	63851	43.21	0
2	64001	43.31	0
2	64151	43.41	0
2	64301	43.51	0
2	64451	43.61	0
2	64601	43.71	0
2	64751	43.81	0
2	64901	43.91	0
2	65055	44.01	0
2	65205	44.11	0
2	65355	44.21	0
2	65505	44.31	0
2	65655	44.41	0
2	65805	44.51	0
2	65955	44.61	0
2	66105	44.71	0
2	66255	44.81	0
2	66405	44.91	0
2	66559	45.01	0
2	66709	45.11	0
2	66859	45.21	0
2	67009	45.31	0
2	67159	45.41	0
2	67309	45.51	0
2	67459	45.61	0
2	67609	45.71	0
2	67759	45.81	0
2	67909	45.91	0
2	68063	46.01	0
2	68213	46.11	0
2	68363	46.21	0
2	68513	46.31	0
2	68663	46.41	0
2	68813	46.51	0
2	68963	46.61	0
2	69113	46.71	0
2	69263	46.81	0
2	69413	46.91	0
2	69567	47.01	0
2	69717	47.11	0
2	69867	47.21	0
2	70017	47.31	0
2	70167	47.41	0
2	70317	47.51	0
2	70467	47.61	0
2	70617	47.71	0
2	70767	47.81	0
2	70917	47.91	0
2	71071	48.01	0
2	71221	48.11	0
2	71371	48.21	0
2	71521	48.31	0
2	71671	48.41	0
2	71821	48.51	0
2	71971	48.61	0
2	72121	48.71	0
2	72271	48.81	0
2	72421	48.91	0
2	72575	49.01	0
2	72725	49.11	0
2	72875	49.21	0
2	73025	49.31	0
2	73175	49.41	0
2	73325	49.51	0
2	73475	49.61	0
2	73625	49.71	0
2	73775	49.81	0
2	73925	49.91	0
2	74079	50.01	0
2	74229	50.11	0
2	74379	50.21	0
2	74529	50.31	0
2	74679	50.41	0
2	74829	50.51	0
2	74979	50.61	0
2	75129	50.71	0
2	75279	50.81	0
2	75429	50.91	0
2	75583	51.01	0
2	75733	51.11	0
2	75883	51.21	0
2	76033	51.31	0
2	76183	51.41	0
2	76333	51.51	0
2	76483	51.61	0
2	76633	51.71	0
2	76783	51.81	0
2	76933	51.91	0
2	77087	52.01	0
2	77237	52.11	0
2	77387	52.21	0
2	77537	52.31	0
2	77687	52.41	0
2	77837	52.51	0
2	77987	52.61	0
2	78137	52.71	0
2	78287	52.81	0
2	78437	52.91	0
2	78591	53.01	0
2	78741	53.11	0
2	78891	53.21	0
2	79041	53.31	0
2	79191	53.41	0
2	79341	53.51	0
2	79491	53.61	0
2	79641	53.71	0
2	79791	53.81	0
2	79941	53.91	0
2	80095	54.01	0
2	80245	54.11	0
2	80395	54.21	0
2	80545	54.31	0
2	80695	54.41	0
2	80845	54.51	0
2	80995	54.61	0
2	81145	54.71	0
2	81295	54.81	0
2	81445	54.91	0
2	81599	55.01	0
2	81749	55.11	0
2	81899	55.21	0
2	82049	55.31	0
2	82199	55.41	0
2	82349	55.51	0
2	82499	55.61	0
2	82649	55.71	0
2	82799	55.81	0
2	82949	55.91	0
2	83103	56.01	0
2	83253	56.11	0
2	83403	56.21	0
2	83553	56.31	0
2	83703	56.41	0
2	83853	56.51	0
2	84003	56.61	0
2	84153	56.71	0
2	84303	56.81	0
2	84453	56.91	0
2	84607	57.01	0
2	84757	57.11	0
2	84907	57.21	0
2	85057	57.31	0
2	85207	57.41	0
2	85357	57.51	0
2	85507	57.61	0
2	85657	57.71	0
2	85807	57.81	0
2	85957	57.91	0
2	86111	58.01	0
2	86261	58.11	0
2	86411	58.21	0
2	86561	58.31	0
2	86711	58.41	0
2	86861	58.51	0
2	87011	58.61	0
2	87161	58.71	0
2	87311	58.81	0
2	87461	58.91	0
2	87615	59.01	0
2	87765	59.11	0
2	87915	59.21	0
2	88065	59.31	0
2	88215	59.41	0
2	88365	59.51	0
2	88515	59.61	0
2	88665	59.71	0
2	88815	59.81	0
2	88965	59.91	0
2	89119	60.01	0
2	89269	60.11	0
2	89419	60.21	0
2	89569	60.31	0
2	89719	60.41	0
2	89869	60.51	0
2	90019	60.61	0
2	90169	60.71	0
2	90319	60.81	0
2	90469	60.91	0
2	90623	61.01	0
2	90773	61.11	0
2	90923	61.21	0
2	91073	61.31	0
2	91223	61.41	0
2	91373	61.51	0
2	91523	61.61	0
2	91673	61.71	0
2	91823	61.81	0
2	91973	61.91	0
2	92127	62.01	0
2	92277	62.11	0
2	92427	62.21	0
2	92577	62.31	0
2	92727	62.41	0
2	92877	62.51	0
2	93027	62.61	0
2	93177	62.71	0
2	93327	62.81	0
2	93477	62.91	0
2	93631	63.01	0
2	93781	63.11	0
2	93931	63.21	0
2	94081	63.31	0
2	94231	63.41	0
2	94381	63.51	0
2	94531	63.61	0
2	94681	63.71	0
2	94831	63.81	0
2	94981	63.91	0
2	95135	64.01	0
2	95285	64.11	0
2	95435	64.21	0
2	95585	64.31	0
2	95735	64.41	0
2	95885	64.51	0
2	96035	64.61	0
2	96185	64.71	0
2	96335	64.81	0
2	96485	64.91	0
2	96639	65.01	0
2	96789	65.11	0
2	96939	65.21	0
2	97089	65.31	0
2	97239	65.41	0
2	97389	65.51	0
2	97539	65.61	0
2	97689	65.71	0
2	97839	65.81	0
2	97989	65.91	0
2	98143	66.01	0
2	98293	66.11	0
2	98443	66.21	0
2	98593	66.31	0
2	98743	66.41	0
2	98893	66.51	0
2	99043	66.61	0
2	99193	66.71	0
2	99343	66.81	0
2	99493	66.91	0
2	99647	67.01	0
2	99797	67.11	0
2	99947	67.21	0
2	100097	67.31	0
2	100247	67.41	0
2	100397	67.51	0
2	100547	67.61	0
2	100697	67.71	0
2	100847	67.81	0
2	100997	67.91	0
2	101151	68.01	0
2	101301	68.11	0
2	101451	68.21	0
2	101601	68.31	0
2	101751	68.41	0
2	101901	68.51	0
2	102051	68.61	0
2	102201	68.71	0
2	102351	68.81	0
2	102501	68.91	0
2	102655	69.01	0
2	102805	69.11	0
2	102955	69.21	0
2	103105	69.31	0
2	103255	69.41	0
2	103405	69.51	0
2	103555	69.61	0
2	103705	69.71	0
2	103855	69.81	0
2	104005	69.91	0
2	104159	70.01	0
2	104309	70.11	0
2	104459	70.21	0
2	104609	70.31	0
2	104759	70.41	0
2	104909	70.51	0
2	105059	70.61	0
2	105209	70.71	0
2	105359	70.81	0
2	105509	70.91	0
2	105663	71.01	0
2	105813	71.11	0
2	105963	71.21	0
2	106113	71.31	0
2	106263	71.41	0
2	106413	71.51	0
2	106563	71.61	0
2	106713	71.71	0
2	106863	71.81	0
2	107013	71.91	0
2	107167	72.01	0
2	107317	72.11	0
2	107467	72.21	0
2	107617	72.31	0
2	107767	72.41	0
2	107917	72.51	0
2	108067	72.61	0
2	108217	72.71	0
2	108367	72.81	0
2	108517	72.91	0
2	108671	73.01	0
2	108821	73.11	0
2	108971	73.21	0
2	109121	73.31	0
2	109271	73.41	0
2	109421	73.51	0
2	109571	73.61	0
2	109721	73.71	0
2	109871	73.81	0
2	110021	73.91	0
2	110175	74.01	0
2	110325	74.11	0
2	110475	74.21	0
2	110625	74.31	0
2	110775	74.41	0
2	110925	74.51	0
2	111075	74.61	0
2	111225	74.71	0
2	111375	74.81	0
2	111525	74.91	0
2	111679	75.01	0
2	111829	75.11	0
2	111979	75.21	0
2	112129	75.31	0
2	112279	75.41	0
2	112429	75.51	0
2	112579	75.61	0
2	112729	75.71	0
2	112879	75.81	0
2	113029	75.91	0
2	113183	76.01	0
2	113333	76.11	0
2	113483	76.21	0
2	113633	76.31	0
2	113783	76.41	0
2	113933	76.51	0
2	114083	76.61	0
2	114233	76.71	0
2	114383	76.81	0
2	114533	76.91	0
2	114687	77.01	0
2	114837	77.11	0
2	114987	77.21	0
2	115137	77.31	0
2	115287	77.41	0
2	115437	77.51	0
2	115587	77.61	0
2	115737	77.71	0
2	115887	77.81	0
2	116037	77.91	0
2	116191	78.01	0
2	116341	78.11	0
2	116491	78.21	0
2	116641	78.31	0
2	116791	78.41	0
2	116941	78.51	0
2	117091	78.61	0
2	117241	78.71	0
2	117391	78.81	0
2	117541	78.91	0
2	117695	79.01	0
2	117845	79.11	0
2	117995	79.21	0
2	118145	79.31	0
2	118295	79.41	0
2	118445	79.51	0
2	118595	79.61	0
2	118745	79.71	0
2	118895	79.81	0
2	119045	79.91	0
2	119199	80.01	0
2	119349	80.11	0
2	119499	80.21	0
2	119649	80.31	0
2	119799	80.41	0
2	119949	80.51	0
2	120099	80.61	0
2	120249	80.71	0
2	120399	80.81	0
2	120549	80.91	0
2	120703	81.01	0
2	120853	81.11	0
2	121003	81.21	0
2	121153	81.31	0
2	121303	81.41	0
2	121453	81.51	0
2	121603	81.61	0
2	121753	81.71	0
2	121903	81.81	0
2	122053	81.91	0
2	122207	82.01	0
2	122357	82.11	0
2	122507	82.21	0
2	122657	82.31	0
2	122807	82.41	0
2	122957	82.51	0
2	123107	82.61	0
2	123257	82.71	0
2	123407	82.81	0
2	123557	82.91	0
2	123711	83.01	0
2	123861	83.11	0
2	124011	83.21	0
2	124161	83.31	0
2	124311	83.41	0
2	124461	83.51	0
2	124611	83.61	0
2	124761	83.71	0
2	124911	83.81	0
2	125061	83.91	0
2	125215	84.01	0
2	125365	84.11	0
2	125515	84.21	0
2	125665	84.31	0
2	125815	84.41	0
2	125965	84.51	0
2	126115	84.61	0
2	126265	84.71	0
2	126415	84.81	0
2	126565	84.91	0
2	126719	85.01	0
2	126869	85.11	0
2	127019	85.21	0
2	127169	85.31	0
2	127319	85.41	0
2	127469	85.51	0
2	127619	85.61	0
2	127769	85.71	0
2	127919	85.81	0
2	128069	85.91	0
2	128223	86.01	0
2	128373	86.11	0
2	128523	86.21	0
2	128673	86.31	0
2	128823	86.41	0
2	128973	86.51	0
2	129123	86.61	0
2	129273	86.71	0
2	129423	86.81	0
2	129573	86.91	0
2	129727	87.01	0
2	129877	87.11	0
2	130027	87.21	0
2	130177	87.31	0
2	130327	87.41	0
2	130477	87.51	0
2	130627	87.61	0
2	130777	87.71	0
2	130927	87.81	0
2	131077	87.91	0
2	131231	88.01	0
2	131381	88.11	0
2	131531	88.21	0
2	131681	88.31	0
2	131831	88.41	0
2	131981	88.51	0
2	132131	88.61	0
2	132281	88.71	0
2	132431	88.81	0
2	132581	88.91	0
2	132735	89.01	0
2	132885	89.11	0
2	133035	89.21	0
2	133185	89.31	0
2	133335	89.41	0
2	133485	89.51	0
2	133635	89.61	0
2	133785	89.71	0
2	133935	89.81	0
2	134085	89.91	0
2	134239	90.01	0
2	134389	90.11	0
2	134539	90.21	0
2	134689	90.31	0
2	134839	90.41	0
2	134989	90.51	0
2	135139	90.61	0
2	135289	90.71	0
2	135439	90.81	0
2	135589	90.91	0
2	135743	91.01	0
2	135893	91.11	0
2	136043	91.21	0
2	136193	91.31	0
2	136343	91.41	0
2	136493	91.51	0
2	136643	91.61	0
2	136793	91.71	0
2	136943	91.81	0
2	137093	91.91	0
2	137247	92.01	0
2	137397	92.11	0
2	137547	92.21	0
2	137697	92.31	0
2	137847	92.41	0
2	137997	92.51	0
2	138147	92.61	0
2	138297	92.71	0
2	138447	92.81	0
2	138597	92.91	0
2	138751	93.01	0
2	138901	93.11	0
2	139051	93.21	0
2	139201	93.31	0
2	139351	93.41	0
2	139501	93.51	0
2	139651	93.61	0
2	139801	93.71	0
2	139951	93.81	0
2	140101	93.91	0
2	140255	94.01	0
2	140405	94.11	0
2	140555	94.21	0
2	140705	94.31	0
2	140855	94.41	0
2	141005	94.51	0
2	141155	94.61	0
2	141305	94.71	0
2	141455	94.81	0
2	141605	94.91	0
2	141759	95.01	0
2	141909	95.11	0
2	142059	95.21	0
2	142209	95.31	0
2	142359	95.41	0
2	142509	95.51	0
2	142659	95.61	0
2	142809	95.71	0
2	142959	95.81	0
2	143109	95.91	0
2	143263	96.01	0
2	143413	96.11	0
2	143563	96.21	0
2	143713	96.31	0
2	143863	96.41	0
2	144013	96.51	0
2	144163	96.61	0
2	144313	96.71	0
2	144463	96.81	0
2	144613	96.91	0
2	144767	97.01	0
2	144917	97.11	0
2	145067	97.21	0
2	145217	97.31	0
2	145367	97.41	0
2	145517	97.51	0
2	145667	97.61	0
2	145817	97.71	0
2	145967	97.81	0
2	146117	97.91	0
2	146271	98.01	0
2	146421	98.11	0
2	146571	98.21	0
2	146721	98.31	0
2	146871	98.41	0
2	147021	98.51	0
2	147171	98.61	0
2	147321	98.71	0
2	147471	98.81	0
2	147621	98.91	0
2	147775	99.01	0
2	147925	99.11	0
2	148075	99.21	0
2	148225	99.31	0
2	148375	99.41	0
2	148525	99.51	0
2	148675	99.61	0
2	148825	99.71	0
2	148975	99.81	0
2	149125	99.91	0
3	113	1.11	-0.000716383
3	263	1.21	-0.00136341
3	413	1.31	-0.00186974
3	563	1.41	-0.00225157
3	713	1.51	-0.00252443
3	863	1.61	-0.00270298
3	1013	1.71	-0.00280098
3	1163	1.81	-0.00283113
3	1313	1.91	-0.00280509
3	1467	2.01	-0.00273342
3	1617	2.11	-0.00262559
3	1767	2.21	-0.00249005
3	1917	2.31	-0.00233419
3	2067	2.41	-0.00216447
3	2217	2.51	-0.00198642
3	2367	2.61	-0.00180472
3	2517	2.71	-0.0016233
3	2667	2.81	-0.00144536
3	2817	2.91	-0.00127346
3	2971	3.01	-0.0011096
3	3121	3.11	-0.000955278
3	3271	3.21	-0.000811546
3	3421	3.31	-0.00067908
3	3571	3.41	-0.000558232
3	3721	3.51	-0.000449082
3	3871	3.61	-0.000351487
3	4021	3.71	-0.00026512
3	4171	3.81	-0.000189514
3	4321	3.91	-0.000124092
3	4475	4.01	-6.81972e-05
3	4625	4.11	-2.11209e-05
3	4775	4.21	1.78769e-05
3	4925	4.31	4.9548e-05
3	5075	4.41	7.46407e-05
3	5225	4.51	9.38867e-05
3	5375	4.61	0.000107991
3	5525	4.71	0.000117625
3	5675	4.81	0.000123418
3	5825	4.91	0.000125957
3	5979	5.01	0.000125781
3	6129	5.11	0.00012338
3	6279	5.21	0.000119198
3	6429	5.31	0.000113629
3	6579	5.41	0.000107022
3	6729	5.51	9.96832e-05
3	6879	5.61	9.18747e-05
3	7029	5.71	8.38211e-05
3	7179	5.81	7.57109e-05
3	7329	5.91	6.76999e-05
3	7483	6.01	5.99137e-05
3	7633	6.11	5.24518e-05
3	7783	6.21	4.53896e-05
3	7933	6.31	3.87821e-05
3	8083	6.41	3.2666e-05
3	8233	6.51	2.70628e-05
3	8383	6.61	2.19809e-05
3	8533	6.71	1.74176e-05
3	8683	6.81	1.33618e-05
3	8833	6.91	9.79494e-06
3	8987	7.01	6.6932e-06
3	9137	7.11	4.02864e-06
3	9287	7.21	1.77051e-06
3	9437	7.31	-1.13691e-07
3	9587	7.41	-1.65736e-06
3	9737	7.51	-2.89397e-06
3	9887	7.61	-3.85652e-06
3	10037	7.71	-4.57698e-06
3	10187	7.81	-5.08591e-06
3	10337	7.91	-5.41219e-06
3	10491	8.01	-5.58279e-06
3	10641	8.11	-5.6226e-06
3	10791	8.21	-5.55442e-06
3	10941	8.31	-5.39886e-06
3	11091	8.41	-5.17441e-06
3	11241	8.51	-4.89748e-06
3	11391	8.61	-4.58246e-06
3	11541	8.71	-4.24184e-06
3	11691	8.81	-3.88634e-06
3	11841	8.91	-3.52499e-06
3	11995	9.01	-3.16534e-06
3	12145	9.11	-2.81353e-06
3	12295	9.21	-2.47446e-06
3	12445	9.31	-2.15192e-06
3	12595	9.41	-1.84873e-06
3	12745	9.51	-1.56685e-06
3	12895	9.61	-1.30751e-06
3	13045	9.71	-1.0713e-06
3	13195	9.81	-8.58321e-07
3	13345	9.91	-6.68206e-07
3	13919	10.01	-5.0026e-07
3	14069	10.11	-3.53514e-07
3	14219	10.21	-2.2679e-07
3	14369	10.31	-1.18765e-07
3	14519	10.41	-2.80163e-08
3	14669	10.51	4.6931e-08
3	14819	10.61	1.07573e-07
3	14969	10.71	1.55391e-07
3	15119	10.81	1.91831e-07
3	15269	10.91	2.18284e-07
3	15423	11.01	2.3607e-07
3	15573	11.11	2.46427e-07
3	15723	11.21	2.50502e-07
3	15873	11.31	2.49353e-07
3	16023	11.41	2.43938e-07
3	16173	11.51	2.3512e-07
3	16323	11.61	2.23669e-07
3	16473	11.71	2.10264e-07
3	16623	11.81	1.95496e-07
3	16773	11.91	1.79874e-07
3	16927	12.01	1.63833e-07
3	17077	12.11	1.47736e-07
3	17227	12.21	1.3188e-07
3	17377	12.31	1.16508e-07
3	17527	12.41	1.01807e-07
3	17677	12.51	8.79222e-08
3	17827	12.61	7.49541e-08
3	17977	12.71	6.29711e-08
3	18127	12.81	5.20114e-08
3	18277	12.91	4.20883e-08
3	18431	13.01	3.3193e-08
3	18581	13.11	2.53003e-08
3	18731	13.21	1.83718e-08
3	18881	13.31	1.23581e-08
3	19031	13.41	7.20348e-09
3	19181	13.51	2.84537e-09
3	19331	13.61	-7.80886e-10
3	19481	13.71	-3.74136e-09
3	19631	13.81	-6.10285e-09
3	19781	13.91	-7.93072e-09
3	19935	14.01	-9.28821e-09
3	20085	14.11	-1.0235e-08
3	20235	14.21	-1.08283e-08
3	20385	14.31	-1.11211e-08
3	20535	14.41	-1.11612e-08
3	20685	14.51	-1.09946e-08
3	20835	14.61	-1.06599e-08
3	20985	14.71	-1.01945e-08
3	21135	14.81	-9.62999e-09
3	21285	14.91	-8.99405e-09
3	21439	15.01	-8.31086e-09
3	21589	15.11	-7.60103e-09
3	21739	15.21	-6.88338e-09
3	21889	15.31	-6.17071e-09
3	22039	15.41	-5.47544e-09
3	22189	15.51	-4.80682e-09
3	22339	15.61	-4.17266e-09
3	22489	15.71	-3.57687e-09
3	22639	15.81	-3.02443e-09
3	22789	15.91	-2.51674e-09
3	22943	16.01	-2.05489e-09
3	23093	16.11	-1.63958e-09
3	23243	16.21	-1.26903e-09
3	23393	16.31	-9.42535e-10
3	23543	16.41	-6.57963e-10
3	23693	16.51	-4.1247e-10
3	23843	16.61	-2.04636e-10
3	23993	16.71	-2.91323e-11
3	24143	16.81	1.14753e-10
3	24293	16.91	2.30926e-10
3	24447	17.01	3.22231e-10
3	24597	17.11	3.91154e-10
3	24747	17.21	4.40892e-10
3	24897	17.31	4.73577e-10
3	25047	17.41	4.92051e-10
3	25197	17.51	4.98446e-10
3	25347	17.61	4.94893e-10
3	25497	17.71	4.82814e-10
3	25647	17.81	4.6434e-10
3	25797	17.91	4.40892e-10
3	25951	18.01	4.13536e-10
3	26101	18.11	3.83693e-10
3	26251	18.21	3.51719e-10
3	26401	18.31	3.19744e-10
3	26551	18.41	2.8777e-10
3	26701	18.51	2.55795e-10
3	26851	18.61	2.25953e-10
3	27001	18.71	1.97531e-10
3	27151	18.81	1.6982e-10
3	27301	18.91	1.44951e-10
3	27455	19.01	1.21503e-10
3	27605	19.11	1.00187e-10
3	27755	19.21	8.10019e-11
3	27905	19.31	6.32383e-11
3	28055	19.41	4.86722e-11
3	28205	19.51	3.44613e-11
3	28355	19.61	2.34479e-11
3	28505	19.71	1.27898e-11
3	28655	19.81	4.9738e-12
3	28805	19.91	-2.13163e-12
3	28959	20.01	-8.17124e-12
3	29109	20.11	-1.1724e-11
3	29259	20.21	-1.52767e-11
3	29409	20.31	-1.88294e-11
3	29559	20.41	-2.02505e-11
3	29709	20.51	-2.02505e-11
3	29859	20.61	-2.02505e-11
3	30009	20.71	-2.02505e-11
3	30159	20.81	-2.02505e-11
3	30309	20.91	-2.02505e-11
3	30463	21.01	-2.02505e-11
3	30613	21.11	-2.02505e-11
3	30763	21.21	-2.02505e-11
3	30913	21.31	-1.88294e-11
3	31063	21.41	-1.7053e-11
3	31213	21.51	-1.52767e-11
3	31363	21.61	-1.38556e-11
3	31513	21.71	-1.24345e-11
3	31663	21.81	-1.13687e-11
3	31813	21.91	-1.03029e-11
3	31967	22.01	-9.23706e-12
3	32117	22.11	-8.52651e-12
3	32267	22.21	-7.4607e-12
3	32417	22.31	-6.75016e-12
3	32567	22.41	-6.03961e-12
3	32717	22.51	-5.68434e-12
3	32867	22.61	-4.9738e-12
3	33017	22.71	-4.61853e-12
3	33167	22.81	-4.26326e-12
3	33317	22.91	-3.90799e-12
3	33471	23.01	-3.55271e-12
3	33621	23.11	-3.19744e-12
3	33771	23.21	-2.84217e-12
3	33921	23.31	-2.4869e-12
3	34071	23.41	-2.13163e-12
3	34221	23.51	-2.13163e-12
3	34371	23.61	-1.77636e-12
3	34521	23.71	-1.77636e-12
3	34671	23.81	-1.42109e-12
3	34821	23.91	-1.42109e-12
3	34975	24.01	-1.06581e-12
3	35125	24.11	-1.06581e-12
3	35275	24.21	-1.06581e-12
3	35425	24.31	-1.06581e-12
3	35575	24.41	-7.10543e-13
3	35725	24.51	-7.10543e-13
3	35875	24.61	-7.10543e-13
3	36025	24.71	-7.10543e-13
3	36175	24.81	-7.10543e-13
3	36325	24.91	-3.55271e-13
3	36479	25.01	-3.55271e-13
3	36629	25.11	-3.55271e-13
3	36779	25.21	-3.55271e-13
3	36929	25.31	-3.55271e-13
3	37079	25.41	-3.55271e-13
3	37229	25.51	-3.55271e-13
3	37379	25.61	-3.55271e-13
3	37529	25.71	-3.55271e-13
3	37679	25.81	-3.55271e-13
3	37829	25.91	0
3	37983	26.01	0
3	38133	26.11	0
3	38283	26.21	0
3	38433	26.31	0
3	38583	26.41	0
3	38733	26.51	0
3	38883	26.61	0
3	39033	26.71	0
3	39183	26.81	0
3	39333	26.91	0
3	39487	27.01	0
3	39637	27.11	0
3	39787	27.21	0
3	39937	27.31	0
3	40087	27.41	0
3	40237	27.51	0
3	40387	27.61	0
3	40537	27.71	0
3	40687	27.81	0
3	40837	27.91	0
3	40991	28.01	0
3	41141	28.11	0
3	41291	28.21	0
3	41441	28.31	0
3	41591	28.41	0
3	41741	28.51	0
3	41891	28.61	0
3	42041	28.71	0
3	42191	28.81	0
3	42341	28.91	0
3	42495	29.01	0
3	42645	29.11	0
3	42795	29.21	0
3	42945	29.31	0
3	43095	29.41	0
3	43245	29.51	0
3	43395	29.61	0
3	43545	29.71	0
3	43695	29.81	0
3	43845	29.91	0
3	43999	30.01	0
3	44149	30.11	0
3	44299	30.21	0
3	44449	30.31	0
3	44599	30.41	0
3	44749	30.51	0
3	44899	30.61	0
3	45049	30.71	0
3	45199	30.81	0
3	45349	30.91	0
3	45503	31.01	0
3	45653	31.11	0
3	45803	31.21	0
3	45953	31.31	0
3	46103	31.41	0
3	46253	31.51	0
3	46403	31.61	0
3	46553	31.71	0
3	46703	31.81	0
3	46853	31.91	0
3	47007	32.01	0
3	47157	32.11	0
3	47307	32.21	0
3	47457	32.31	0
3	47607	32.41	0
3	47757	32.51	0
3	47907	32.61	0
3	48057	32.71	0
3	48207	32.81	0
3	48357	32.91	0
3	48511	33.01	0
3	48661	33.11	0
3	48811	33.21	0
3	48961	33.31	0
3	49111	33.41	0
3	49261	33.51	0
3	49411	33.61	0
3	49561	33.71	0
3	49711	33.81	0
3	49861	33.91	0
3	50015	34.01	0
3	50165	34.11	0
3	50315	34.21	0
3	50465	34.31	0
3	50615	34.41	0
3	50765	34.51	0
3	50915	34.61	0
3	51065	34.71	0
3	51215	34.81	0
3	51365	34.91	0
3	51519	35.01	0
3	51669	35.11	0
3	51819	35.21	0
3	51969	35.31	0
3	52119	35.41	0
3	52269	35.51	0
3	52419	35.61	0
3	52569	35.71	0
3	52719	35.81	0
3	52869	35.91	0
3	53023	36.01	0
3	53173	36.11	0
3	53323	36.21	0
3	53473	36.31	0
3	53623	36.41	0
3	53773	36.51	0
3	53923	36.61	0
3	54073	36.71	0
3	54223	36.81	0
3	54373	36.91	0
3	54527	37.01	0
3	54677	37.11	0
3	54827	37.21	0
3	54977	37.31	0
3	55127	37.41	0
3	55277	37.51	0
3	55427	37.61	0
3	55577	37.71	0
3	55727	37.81	0
3	55877	37.91	0
3	56031	38.01	0
3	56181	38.11	0
3	56331	38.21	0
3	56481	38.31	0
3	56631	38.41	0
3	56781	38.51	0
3	56931	38.61	0
3	57081	38.71	0
3	57231	38.81	0
3	57381	38.91	0
3	57535	39.01	0
3	57685	39.11	0
3	57835	39.21	0
3	57985	39.31	0
3	58135	39.41	0
3	58285	39.51	0
3	58435	39.61	0
3	58585	39.71	0
3	58735	39.81	0
3	58885	39.91	0
3	59039	40.01	0
3	59189	40.11	0
3	59339	40.21	0
3	59489	40.31	0
3	59639	40.41	0
3	59789	40.51	0
3	59939	40.61	0
3	60089	40.71	0
3	60239	40.81	0
3	60389	40.91	0
3	60543	41.01	0
3	60693	41.11	0
3	60843	41.21	0
3	60993	41.31	0
3	61143	41.41	0
3	61293	41.51	0
3	61443	41.61	0
3	61593	41.71	0
3	61743	41.81	0
3	61893	41.91	0
3	62047	42.01	0
3	62197	42.11	0
3	62347	42.21	0
3	62497	42.31	0
3	62647	42.41	0
3	62797	42.51	0
3	62947	42.61	0
3	63097	42.71	0
3	63247	42.81	0
3	63397	42.91	0
3	63551	43.01	0
3	63701	43.11	0
3	63851	43.21	0
3	64001	43.31	0
3	64151	43.41	0
3	64301	43.51	0
3	64451	43.61	0
3	64601	43.71	0
3	64751	43.81	0
3	64901	43.91	0
3	65055	44.01	0
3	65205	44.11	0
3	65355	44.21	0
3	65505	44.31	0
3	65655	44.41	0
3	65805	44.51	0
3	65955	44.61	0
3	66105	44.71	0
3	66255	44.81	0
3	66405	44.91	0
3	66559	45.01	0
3	66709	45.11	0
3	66859	45.21	0
3	67009	45.31	0
3	67159	45.41	0
3	67309	45.51	0
3	67459	45.61	0
3	67609	45.71	0
3	67759	45.81	0
3	67909	45.91	0
3	68063	46.01	0
3	68213	46.11	0
3	68363	46.21	0
3	68513	46.31	0
3	68663	46.41	0
3	68813	46.51	0
3	68963	46.61	0
3	69113	46.71	0
3	69263	46.81	0
3	69413	46.91	0
3	69567	47.01	0
3	69717	47.11	0
3	69867	47.21	0
3	70017	47.31	0
3	70167	47.41	0
3	70317	47.51	0
3	70467	47.61	0
3	70617	47.71	0
3	70767	47.81	0
3	70917	47.91	0
3	71071	48.01	0
3	71221	48.11	0
3	71371	48.21	0
3	71521	48.31	0
3	71671	48.41	0
3	71821	48.51	0
3	71971	48.61	0
3	72121	48.71	0
3	72271	48.81	0
3	72421	48.91	0
3	72575	49.01	0
3	72725	49.11	0
3	72875	49.21	0
3	73025	49.31	0
3	73175	49.41	0
3	73325	49.51	0
3	73475	49.61	0
3	73625	49.71	0
3	73775	49.81	0
3	73925	49.91	0
3	74079	50.01	0
3	74229	50.11	0
3	74379	50.21	0
3	74529	50.31	0
3	74679	50.41	0
3	74829	50.51	0
3	74979	50.61	0
3	75129	50.71	0
3	75279	50.81	0
3	75429	50.91	0
3	75583	51.01	0
3	75733	51.11	0
3	75883	51.21	0
3	76033	51.31	0
3	76183	51.41	0
3	76333	51.51	0
3	76483	51.61	0
3	76633	51.71	0
3	76783	51.81	0
3	76933	51.91	0
3	77087	52.01	0
3	77237	52.11	0
3	77387	52.21	0
3	77537	52.31	0
3	77687	52.41	0
3	77837	52.51	0
3	77987	52.61	0
3	78137	52.71	0
3	78287	52.81	0
3	78437	52.91	0
3	78591	53.01	0
3	78741	53.11	0
3	78891	53.21	0
3	79041	53.31	0
3	79191	53.41	0
3	79341	53.51	0
3	79491	53.61	0
3	79641	53.71	0
3	79791	53.81	0
3	79941	53.91	0
3	80095	54.01	0
3	80245	54.11	0
3	80395	54.21	0
3	80545	54.31	0
3	80695	54.41	0
3	80845	54.51	0
3	80995	54.61	0
3	81145	54.71	0
3	81295	54.81	0
3	81445	54.91	0
3	81599	55.01	0
3	81749	55.11	0
3	81899	55.21	0
3	82049	55.31	0
3	82199	55.41	0
3	82349	55.51	0
3	82499	55.61	0
3	82649	55.71	0
3	82799	55.81	0
3	82949	55.91	0
3	83103	56.01	0
3	83253	56.11	0
3	83403	56.21	0
3	83553	56.31	0
3	83703	56.41	0
3	83853	56.51	0
3	84003	56.61	0
3	84153	56.71	0
3	84303	56.81	0
3	84453	56.91	0
3	84607	57.01	0
3	84757	57.11	0
3	84907	57.21	0
3	85057	57.31	0
3	85207	57.41	0
3	85357	57.51	0
3	85507	57.61	0
3	85657	57.71	0
3	85807	57.81	0
3	85957	57.91	0
3	86111	58.01	0
3	86261	58.11	0
3	86411	58.21	0
3	86561	58.31	0
3	86711	58.41	0
3	86861	58.51	0
3	87011	58.61	0
3	87161	58.71	0
3	87311	58.81	0
3	87461	58.91	0
3	87615	59.01	0
3	87765	59.11	0
3	87915	59.21	0
3	88065	59.31	0
3	88215	59.41	0
3	88365	59.51	0
3	88515	59.61	0
3	88665	59.71	0
3	88815	59.81	0
3	88965	59.91	0
3	89119	60.01	0
3	89269	60.11	0
3	89419	60.21	0
3	89569	60.31	0
3	89719	60.41	0
3	89869	60.51	0
3	90019	60.61	0
3	90169	60.71	0
3	90319	60.81	0
3	90469	60.91	0
3	90623	61.01	0
3	90773	61.11	0
3	90923	61.21	0
3	91073	61.31	0
3	91223	61.41	0
3	91373	61.51	0
3	91523	61.61	0
3	91673	61.71	0
3	91823	61.81	0
3	91973	61.91	0
3	92127	62.01	0
3	92277	62.11	0
3	92427	62.21	0
3	92577	62.31	0
3	92727	62.41	0
3	92877	62.51	0
3	93027	62.61	0
3	93177	62.71	0
3	93327	62.81	0
3	93477	62.91	0
3	93631	63.01	0
3	93781	63.11	0
3	93931	63.21	0
3	94081	63.31	0
3	94231	63.41	0
3	94381	63.51	0
3	94531	63.61	0
3	94681	63.71	0
3	94831	63.81	0
3	94981	63.91	0
3	95135	64.01	0
3	95285	64.11	0
3	95435	64.21	0
3	95585	64.31	0
3	95735	64.41	0
3	95885	64.51	0
3	96035	64.61	0
3	96185	64.71	0
3	96335	64.81	0
3	96485	64.91	0
3	96639	65.01	0
3	96789	65.11	0
3	96939	65.21	0
3	97089	65.31	0
3	97239	65.41	0
3	97389	65.51	0
3	97539	65.61	0
3	97689	65.71	0
3	97839	65.81	0
3	97989	65.91	0
3	98143	66.01	0
3	98293	66.11	0
3	98443	66.21	0
3	98593	66.31	0
3	98743	66.41	0
3	98893	66.51	0
3	99043	66.61	0
3	99193	66.71	0
3	99343	66.81	0
3	99493	66.91	0
3	99647	67.01	0
3	99797	67.11	0
3	99947	67.21	0
3	100097	67.31	0
3	100247	67.41	0
3	100397	67.51	0
3	100547	67.61	0
3	100697	67.71	0
3	100847	67.81	0
3	100997	67.91	0
3	101151	68.01	0
3	101301	68.11	0
3	101451	68.21	0
3	101601	68.31	0
3	101751	68.41	0
3	101901	68.51	0
3	102051	68.61	0
3	102201	68.71	0
3	102351	68.81	0
3	102501	68.91	0
3	102655	69.01	0
3	102805	69.11	0
3	102955	69.21	0
3	103105	69.31	0
3	103255	69.41	0
3	103405	69.51	0
3	103555	69.61	0
3	103705	69.71	0
3	103855	69.81	0
3	104005	69.91	0
3	104159	70.01	0
3	104309	70.11	0
3	104459	70.21	0
3	104609	70.31	0
3	104759	70.41	0
3	104909	70.51	0
3	105059	70.61	0
3	105209	70.71	0
3	105359	70.81	0
3	105509	70.91	0
3	105663	71.01	0
3	105813	71.11	0
3	105963	71.21	0
3	106113	71.31	0
3	106263	71.41	0
3	106413	71.51	0
3	106563	71.61	0
3	106713	71.71	0
3	106863	71.81	0
3	107013	71.91	0
3	107167	72.01	0
3	107317	72.11	0
3	107467	72.21	0
3	107617	72.31	0
3	107767	72.41	0
3	107917	72.51	0
3	108067	72.61	0
3	108217	72.71	0
3	108367	72.81	0
3	108517	72.91	0
3	108671	73.01	0
3	108821	73.11	0
3	108971	73.21	0
3	109121	73.31	0
3	109271	73.41	0
3	109421	73.51	0
3	109571	73.61	0
3	109721	73.71	0
3	109871	73.81	0
3	110021	73.91	0
3	110175	74.01	0
3	110325	74.11	0
3	110475	74.21	0
3	110625	74.31	0
3	110775	74.41	0
3	110925	74.51	0
3	111075	74.61	0
3	111225	74.71	0
3	111375	74.81	0
3	111525	74.91	0
3	111679	75.01	0
3	111829	75.11	0
3	111979	75.21	0
3	112129	75.31	0
3	112279	75.41	0
3	112429	75.51	0
3	112579	75.61	0
3	112729	75.71	0
3	112879	75.81	0
3	113029	75.91	0
3	113183	76.01	0
3	113333	76.11	0
3	113483	76.21	0
3	113633	76.31	0
3	113783	76.41	0
3	113933	76.51	0
3	114083	76.61	0
3	114233	76.71	0
3	114383	76.81	0
3	114533	76.91	0
3	114687	77.01	0
3	114837	77.11	0
3	114987	77.21	0
3	115137	77.31	0
3	115287	77.41	0
3	115437	77.51	0
3	115587	77.61	0
3	115737	77.71	0
3	115887	77.81	0
3	116037	77.91	0
3	116191	78.01	0
3	116341	78.11	0
3	116491	78.21	0
3	116641	78.31	0
3	116791	78.41	0
3	116941	78.51	0
3	117091	78.61	0
3	117241	78.71	0
3	117391	78.81	0
3	117541	78.91	0
3	117695	79.01	0
3	117845	79.11	0
3	117995	79.21	0
3	118145	79.31	0
3	118295	79.41	0
3	118445	79.51	0
[...]
43	145509	97.507205597645	3
43	145659	97.607206522141	3
43	145809	97.707207449973	3
43	145959	97.807208381139	3
43	146109	97.907209315641	3
43	146263	98.007210253479	3
43	146413	98.107211194652	3
43	146563	98.20721213916	3
43	146713	98.307200087004	3
43	146863	98.407201038184	3
43	147013	98.507201992699	3
43	147163	98.607202950549	3
43	147313	98.707203911735	3
43	147463	98.807204876257	3
43	147613	98.907205844114	3
43	147767	99.007206815308	3
43	147917	99.107207789836	3
43	148067	99.207208767699	3
43	148217	99.307209748898	3
43	148367	99.407210733432	3
43	148517	99.507211721302	3
43	148667	99.607212712508	3
43	148817	99.707200707049	3
43	148967	99.807201704925	3
43	149117	99.907202706137	3
44	1428	2	0
44	2932	3	0
44	4436	4	0
44	5940	5	0
44	7444	6	0
44	8948	7	0
44	10452	8	0
44	11956	9	0
44	13461	10	0
44	15384	11	0
44	16888	12	0
44	18392	13	0
44	19896	14	0
44	21400	15	0
44	22904	16	0
44	24408	17	0
44	25912	18	0
44	27416	19	0
44	28920	20	0
44	30424	21	0
44	31928	22	0
44	33432	23	0
44	34936	24	0
44	36440	25	0
44	37944	26	0
44	39448	27	0
44	40952	28	0
44	42456	29	0
44	43960	30	0
44	45464	31	0
44	46968	32	0
44	48472	33	0
44	49976	34	0
44	51480	35	0
44	52984	36	0
44	54488	37	0
44	55992	38	0
44	57496	39	0
44	59000	40	0
44	60504	41	0
44	62008	42	0
44	63512	43	0
44	65016	44	0
44	66520	45	0
44	68024	46	0
44	69528	47	0
44	71032	48	0
44	72536	49	0
44	74040	50	0
44	75544	51	0
44	77048	52	0
44	78552	53	0
44	80056	54	0
44	81560	55	0
44	83064	56	0
44	84568	57	0
44	86072	58	0
44	87576	59	0
44	89080	60	0
44	90584	61	0
44	92088	62	0
44	93592	63	0
44	95096	64	0
44	96600	65	0
44	98104	66	0
44	99608	67	0
44	101112	68	0
44	102616	69	0
44	104120	70	0
44	105624	71	0
44	107128	72	0
44	108632	73	0
44	110136	74	0
44	111640	75	0
44	113144	76	0
44	114648	77	0
44	116152	78	0
44	117656	79	0
44	119160	80	0
44	120664	81	0
44	122168	82	0
44	123672	83	0
44	125176	84	0
44	126680	85	0
44	128184	86	0
44	129688	87	0
44	131192	88	0
44	132696	89	0
44	134200	90	0
44	135704	91	0
44	137208	92	0
44	138712	93	0
44	140216	94	0
44	141720	95	0
44	143224	96	0
44	144728	97	0
44	146232	98	0
44	147736	99	0
44	149240	100	0
45	1428	2	0.010929
45	2932	3	0.01249
45	4436	4	0.01249
45	5940	5	0.01249
45	7444	6	0.01249
45	8948	7	0.01249
45	10452	8	0.01249
45	11956	9	0.01249
45	13461	10	0.01249
45	15384	11	0.013454320196
45	16888	12	0.01249
45	18392	13	0.01249
45	19896	14	0.01249
45	21400	15	0.01249
45	22904	16	0.01249
45	24408	17	0.01249
45	25912	18	0.01249
45	27416	19	0.01249
45	28920	20	0.01249
45	30424	21	0.01249
45	31928	22	0.01249
45	33432	23	0.01249
45	34936	24	0.01249
45	36440	25	0.01249
45	37944	26	0.01249
45	39448	27	0.01249
45	40952	28	0.01249
45	42456	29	0.01249
45	43960	30	0.01249
45	45464	31	0.01249
45	46968	32	0.01249
45	48472	33	0.01249
45	49976	34	0.01249
45	51480	35	0.01249
45	52984	36	0.01249
45	54488	37	0.01249
45	55992	38	0.01249
45	57496	39	0.01249
45	59000	40	0.01249
45	60504	41	0.01249
45	62008	42	0.01249
45	63512	43	0.01249
45	65016	44	0.01249
45	66520	45	0.01249
45	68024	46	0.01249
45	69528	47	0.01249
45	71032	48	0.01249
45	72536	49	0.01249
45	74040	50	0.01249
45	75544	51	0.01249
45	77048	52	0.01249
45	78552	53	0.01249
45	80056	54	0.01249
45	81560	55	0.01249
45	83064	56	0.01249
45	84568	57	0.01249
45	86072	58	0.01249
45	87576	59	0.01249
45	89080	60	0.01249
45	90584	61	0.01249
45	92088	62	0.01249
45	93592	63	0.01249
45	95096	64	0.01249
45	96600	65	0.01249
45	98104	66	0.01249
45	99608	67	0.01249
45	101112	68	0.01249
45	102616	69	0.01249
45	104120	70	0.01249
45	105624	71	0.01249
45	107128	72	0.01249
45	108632	73	0.01249
45	110136	74	0.01249
45	111640	75	0.01249
45	113144	76	0.01249
45	114648	77	0.01249
45	116152	78	0.01249
45	117656	79	0.01249
45	119160	80	0.01249
45	120664	81	0.01249
45	122168	82	0.01249
45	123672	83	0.01249
45	125176	84	0.01249
45	126680	85	0.01249
45	128184	86	0.01249
45	129688	87	0.01249
45	131192	88	0.01249
45	132696	89	0.01249
45	134200	90	0.01249
45	135704	91	0.01249
45	137208	92	0.01249
45	138712	93	0.01249
45	140216	94	0.01249
45	141720	95	0.01249
45	143224	96	0.01249
45	144728	97	0.01249
45	146232	98	0.01249
45	147736	99	0.01249
45	149240	100	0.01249
46	1428	2	0
46	2932	3	0
46	4436	4	0
46	5940	5	0
46	7444	6	0
46	8948	7	0
46	10452	8	0
46	11956	9	0
46	13461	10	0
46	15384	11	0
46	16888	12	0
46	18392	13	0
46	19896	14	0
46	21400	15	0
46	22904	16	0
46	24408	17	0
46	25912	18	0
46	27416	19	0
46	28920	20	0
46	30424	21	0
46	31928	22	0
46	33432	23	0
46	34936	24	0
46	36440	25	0
46	37944	26	0
46	39448	27	0
46	40952	28	0
46	42456	29	0
46	43960	30	0
46	45464	31	0
46	46968	32	0
46	48472	33	0
46	49976	34	0
46	51480	35	0
46	52984	36	0
46	54488	37	0
46	55992	38	0
46	57496	39	0
46	59000	40	0
46	60504	41	0
46	62008	42	0
46	63512	43	0
46	65016	44	0
46	66520	45	0
46	68024	46	0
46	69528	47	0
46	71032	48	0
46	72536	49	0
46	74040	50	0
46	75544	51	0
46	77048	52	0
46	78552	53	0
46	80056	54	0
46	81560	55	0
46	83064	56	0
46	84568	57	0
46	86072	58	0
46	87576	59	0
46	89080	60	0
46	90584	61	0
46	92088	62	0
46	93592	63	0
46	95096	64	0
46	96600	65	0
46	98104	66	0
46	99608	67	0
46	101112	68	0
46	102616	69	0
46	104120	70	0
46	105624	71	0
46	107128	72	0
46	108632	73	0
46	110136	74	0
46	111640	75	0
46	113144	76	0
46	114648	77	0
46	116152	78	0
46	117656	79	0
46	119160	80	0
46	120664	81	0
46	122168	82	0
46	123672	83	0
46	125176	84	0
46	126680	85	0
46	128184	86	0
46	129688	87	0
46	131192	88	0
46	132696	89	0
46	134200	90	0
46	135704	91	0
46	137208	92	0
46	138712	93	0
46	140216	94	0
46	141720	95	0
46	143224	96	0
46	144728	97	0
46	146232	98	0
46	147736	99	0
46	149240	100	0
47	1429	2	1
47	2933	3	1
47	4437	4	1
47	5941	5	1
47	7445	6	1
47	8949	7	1
47	10453	8	1
47	11957	9	1
47	13462	10	1
47	15385	11	1
47	16889	12	1
47	18393	13	1
47	19897	14	1
47	21401	15	1
47	22905	16	1
47	24409	17	1
47	25913	18	1
47	27417	19	1
47	28921	20	1
47	30425	21	1
47	31929	22	1
47	33433	23	1
47	34937	24	1
47	36441	25	1
47	37945	26	1
47	39449	27	1
47	40953	28	1
47	42457	29	1
47	43961	30	1
47	45465	31	1
47	46969	32	1
47	48473	33	1
47	49977	34	1
47	51481	35	1
47	52985	36	1
47	54489	37	1
47	55993	38	1
47	57497	39	1
47	59001	40	1
47	60505	41	1
47	62009	42	1
47	63513	43	1
47	65017	44	1
47	66521	45	1
47	68025	46	1
47	69529	47	1
47	71033	48	1
47	72537	49	1
47	74041	50	1
47	75545	51	1
47	77049	52	1
47	78553	53	1
47	80057	54	1
47	81561	55	1
47	83065	56	1
47	84569	57	1
47	86073	58	1
47	87577	59	1
47	89081	60	1
47	90585	61	1
47	92089	62	1
47	93593	63	1
47	95097	64	1
47	96601	65	1
47	98105	66	1
47	99609	67	1
47	101113	68	1
47	102617	69	1
47	104121	70	1
47	105625	71	1
47	107129	72	1
47	108633	73	1
47	110137	74	1
47	111641	75	1
47	113145	76	1
47	114649	77	1
47	116153	78	1
47	117657	79	1
47	119161	80	1
47	120665	81	1
47	122169	82	1
47	123673	83	1
47	125177	84	1
47	126681	85	1
47	128185	86	1
47	129689	87	1
47	131193	88	1
47	132697	89	1
47	134201	90	1
47	135705	91	1
47	137209	92	1
47	138713	93	1
47	140217	94	1
47	141721	95	1
47	143225	96	1
47	144729	97	1
47	146233	98	1
47	147737	99	1
47	149241	100	1
48	1429	2	0.010929
48	2933	3	0.01249
48	4437	4	0.01249
48	5941	5	0.01249
48	7445	6	0.01249
48	8949	7	0.01249
48	10453	8	0.01249
48	11957	9	0.01249
48	13462	10	0.01249
48	15385	11	0.013418040022
48	16889	12	0.01249
48	18393	13	0.01249
48	19897	14	0.01249
48	21401	15	0.01249
48	22905	16	0.01249
48	24409	17	0.01249
48	25913	18	0.01249
48	27417	19	0.01249
48	28921	20	0.01249
48	30425	21	0.01249
48	31929	22	0.01249
48	33433	23	0.01249
48	34937	24	0.01249
48	36441	25	0.01249
48	37945	26	0.01249
48	39449	27	0.01249
48	40953	28	0.01249
48	42457	29	0.01249
48	43961	30	0.01249
48	45465	31	0.01249
48	46969	32	0.01249
48	48473	33	0.01249
48	49977	34	0.01249
48	51481	35	0.01249
48	52985	36	0.01249
48	54489	37	0.01249
48	55993	38	0.01249
48	57497	39	0.01249
48	59001	40	0.01249
48	60505	41	0.01249
48	62009	42	0.01249
48	63513	43	0.01249
48	65017	44	0.01249
48	66521	45	0.01249
48	68025	46	0.01249
48	69529	47	0.01249
48	71033	48	0.01249
48	72537	49	0.01249
48	74041	50	0.01249
48	75545	51	0.01249
48	77049	52	0.01249
48	78553	53	0.01249
48	80057	54	0.01249
48	81561	55	0.01249
48	83065	56	0.01249
48	84569	57	0.01249
48	86073	58	0.01249
48	87577	59	0.01249
48	89081	60	0.01249
48	90585	61	0.01249
48	92089	62	0.01249
48	93593	63	0.01249
48	95097	64	0.01249
48	96601	65	0.01249
48	98105	66	0.01249
48	99609	67	0.01249
48	101113	68	0.01249
48	102617	69	0.01249
48	104121	70	0.01249
48	105625	71	0.01249
48	107129	72	0.01249
48	108633	73	0.01249
48	110137	74	0.01249
48	111641	75	0.01249
48	113145	76	0.01249
48	114649	77	0.01249
48	116153	78	0.01249
48	117657	79	0.01249
48	119161	80	0.01249
48	120665	81	0.01249
48	122169	82	0.01249
48	123673	83	0.01249
48	125177	84	0.01249
48	126681	85	0.01249
48	128185	86	0.01249
48	129689	87	0.01249
48	131193	88	0.01249
48	132697	89	0.01249
48	134201	90	0.01249
48	135705	91	0.01249
48	137209	92	0.01249
48	138713	93	0.01249
48	140217	94	0.01249
48	141721	95	0.01249
48	143225	96	0.01249
48	144729	97	0.01249
48	146233	98	0.01249
48	147737	99	0.01249
48	149241	100	0.01249
49	1429	2	0
49	2933	3	0
49	4437	4	0
49	5941	5	0
49	7445	6	0
49	8949	7	0
49	10453	8	0
49	11957	9	0
49	13462	10	0
49	15385	11	0
49	16889	12	0
49	18393	13	0
49	19897	14	0
49	21401	15	0
49	22905	16	0
49	24409	17	0
49	25913	18	0
49	27417	19	0
49	28921	20	0
49	30425	21	0
49	31929	22	0
49	33433	23	0
49	34937	24	0
49	36441	25	0
49	37945	26	0
49	39449	27	0
49	40953	28	0
49	42457	29	0
49	43961	30	0
49	45465	31	0
49	46969	32	0
49	48473	33	0
49	49977	34	0
49	51481	35	0
49	52985	36	0
49	54489	37	0
49	55993	38	0
49	57497	39	0
49	59001	40	0
49	60505	41	0
49	62009	42	0
49	63513	43	0
49	65017	44	0
49	66521	45	0
49	68025	46	0
49	69529	47	0
49	71033	48	0
49	72537	49	0
49	74041	50	0
49	75545	51	0
49	77049	52	0
49	78553	53	0
49	80057	54	0
49	81561	55	0
49	83065	56	0
49	84569	57	0
49	86073	58	0
49	87577	59	0
49	89081	60	0
49	90585	61	0
49	92089	62	0
49	93593	63	0
49	95097	64	0
49	96601	65	0
49	98105	66	0
49	99609	67	0
49	101113	68	0
49	102617	69	0
49	104121	70	0
49	105625	71	0
49	107129	72	0
49	108633	73	0
49	110137	74	0
49	111641	75	0
49	113145	76	0
49	114649	77	0
49	116153	78	0
49	117657	79	0
49	119161	80	0
49	120665	81	0
49	122169	82	0
49	123673	83	0
49	125177	84	0
49	126681	85	0
49	128185	86	0
49	129689	87	0
49	131193	88	0
49	132697	89	0
49	134201	90	0
49	135705	91	0
49	137209	92	0
49	138713	93	0
49	140217	94	0
49	141721	95	0
49	143225	96	0
49	144729	97	0
49	146233	98	0
49	147737	99	0
49	149241	100	0
50	1430	2	2
50	2934	3	2
50	4438	4	2
50	5942	5	2
50	7446	6	2
50	8950	7	2
50	10454	8	2
50	11958	9	2
50	13463	10	2
50	15386	11	2
50	16890	12	2
50	18394	13	2
50	19898	14	2
50	21402	15	2
50	22906	16	2
50	24410	17	2
50	25914	18	2
50	27418	19	2
50	28922	20	2
50	30426	21	2
50	31930	22	2
50	33434	23	2
50	34938	24	2
50	36442	25	2
50	37946	26	2
50	39450	27	2
50	40954	28	2
50	42458	29	2
50	43962	30	2
50	45466	31	2
50	46970	32	2
50	48474	33	2
50	49978	34	2
50	51482	35	2
50	52986	36	2
50	54490	37	2
50	55994	38	2
50	57498	39	2
50	59002	40	2
50	60506	41	2
50	62010	42	2
50	63514	43	2
50	65018	44	2
50	66522	45	2
50	68026	46	2
50	69530	47	2
50	71034	48	2
50	72538	49	2
50	74042	50	2
50	75546	51	2
50	77050	52	2
50	78554	53	2
50	80058	54	2
50	81562	55	2
50	83066	56	2
50	84570	57	2
50	86074	58	2
50	87578	59	2
50	89082	60	2
50	90586	61	2
50	92090	62	2
50	93594	63	2
50	95098	64	2
50	96602	65	2
50	98106	66	2
50	99610	67	2
50	101114	68	2
50	102618	69	2
50	104122	70	2
50	105626	71	2
50	107130	72	2
50	108634	73	2
50	110138	74	2
50	111642	75	2
50	113146	76	2
50	114650	77	2
50	116154	78	2
50	117658	79	2
50	119162	80	2
50	120666	81	2
50	122170	82	2
50	123674	83	2
50	125178	84	2
50	126682	85	2
50	128186	86	2
50	129690	87	2
50	131194	88	2
50	132698	89	2
50	134202	90	2
50	135706	91	2
50	137210	92	2
50	138714	93	2
50	140218	94	2
50	141722	95	2
50	143226	96	2
50	144730	97	2
50	146234	98	2
50	147738	99	2
50	149242	100	2
51	1430	2	0.010928
51	2934	3	0.01249
51	4438	4	0.01249
51	5942	5	0.01249
51	7446	6	0.01249
51	8950	7	0.01249
51	10454	8	0.01249
51	11958	9	0.01249
51	13463	10	0.01249
51	15386	11	0.013418080048
51	16890	12	0.01249
51	18394	13	0.01249
51	19898	14	0.01249
51	21402	15	0.01249
51	22906	16	0.01249
51	24410	17	0.01249
51	25914	18	0.01249
51	27418	19	0.01249
51	28922	20	0.01249
51	30426	21	0.01249
51	31930	22	0.01249
51	33434	23	0.01249
51	34938	24	0.01249
51	36442	25	0.01249
51	37946	26	0.01249
51	39450	27	0.01249
51	40954	28	0.01249
51	42458	29	0.01249
51	43962	30	0.01249
51	45466	31	0.01249
51	46970	32	0.01249
51	48474	33	0.01249
51	49978	34	0.01249
51	51482	35	0.01249
51	52986	36	0.01249
51	54490	37	0.01249
51	55994	38	0.01249
51	57498	39	0.01249
51	59002	40	0.01249
51	60506	41	0.01249
51	62010	42	0.01249
51	63514	43	0.01249
51	65018	44	0.01249
51	66522	45	0.01249
51	68026	46	0.01249
51	69530	47	0.01249
51	71034	48	0.01249
51	72538	49	0.01249
51	74042	50	0.01249
51	75546	51	0.01249
51	77050	52	0.01249
51	78554	53	0.01249
51	80058	54	0.01249
51	81562	55	0.01249
51	83066	56	0.01249
51	84570	57	0.01249
51	86074	58	0.01249
51	87578	59	0.01249
51	89082	60	0.01249
51	90586	61	0.01249
51	92090	62	0.01249
51	93594	63	0.01249
51	95098	64	0.01249
51	96602	65	0.01249
51	98106	66	0.01249
51	99610	67	0.01249
51	101114	68	0.01249
51	102618	69	0.01249
51	104122	70	0.01249
51	105626	71	0.01249
51	107130	72	0.01249
51	108634	73	0.01249
51	110138	74	0.01249
51	111642	75	0.01249
51	113146	76	0.01249
51	114650	77	0.01249
51	116154	78	0.01249
51	117658	79	0.01249
51	119162	80	0.01249
51	120666	81	0.01249
51	122170	82	0.01249
51	123674	83	0.01249
51	125178	84	0.01249
51	126682	85	0.01249
51	128186	86	0.01249
51	129690	87	0.01249
51	131194	88	0.01249
51	132698	89	0.01249
51	134202	90	0.01249
51	135706	91	0.01249
51	137210	92	0.01249
51	138714	93	0.01249
51	140218	94	0.01249
51	141722	95	0.01249
51	143226	96	0.01249
51	144730	97	0.01249
51	146234	98	0.01249
51	147738	99	0.01249
51	149242	100	0.01249
52	1430	2	0
52	2934	3	0
52	4438	4	0
52	5942	5	0
52	7446	6	0
52	8950	7	0
52	10454	8	0
52	11958	9	0
52	13463	10	0
52	15386	11	0
52	16890	12	0
52	18394	13	0
52	19898	14	0
52	21402	15	0
52	22906	16	0
52	24410	17	0
52	25914	18	0
52	27418	19	0
52	28922	20	0
52	30426	21	0
52	31930	22	0
52	33434	23	0
52	34938	24	0
52	36442	25	0
52	37946	26	0
52	39450	27	0
52	40954	28	0
52	42458	29	0
52	43962	30	0
52	45466	31	0
52	46970	32	0
52	48474	33	0
52	49978	34	0
52	51482	35	0
52	52986	36	0
52	54490	37	0
52	55994	38	0
52	57498	39	0
52	59002	40	0
52	60506	41	0
52	62010	42	0
52	63514	43	0
52	65018	44	0
52	66522	45	0
52	68026	46	0
52	69530	47	0
52	71034	48	0
52	72538	49	0
52	74042	50	0
52	75546	51	0
52	77050	52	0
52	78554	53	0
52	80058	54	0
52	81562	55	0
52	83066	56	0
52	84570	57	0
52	86074	58	0
52	87578	59	0
52	89082	60	0
52	90586	61	0
52	92090	62	0
52	93594	63	0
52	95098	64	0
52	96602	65	0
52	98106	66	0
52	99610	67	0
52	101114	68	0
52	102618	69	0
52	104122	70	0
52	105626	71	0
52	107130	72	0
52	108634	73	0
52	110138	74	0
52	111642	75	0
52	113146	76	0
52	114650	77	0
52	116154	78	0
52	117658	79	0
52	119162	80	0
52	120666	81	0
52	122170	82	0
52	123674	83	0
52	125178	84	0
52	126682	85	0
52	128186	86	0
52	129690	87	0
52	131194	88	0
52	132698	89	0
52	134202	90	0
52	135706	91	0
52	137210	92	0
52	138714	93	0
52	140218	94	0
52	141722	95	0
52	143226	96	0
52	144730	97	0
52	146234	98	0
52	147738	99	0
52	149242	100	0
53	1431	2	3
53	2935	3	3
53	4439	4	3
53	5943	5	3
53	7447	6	3
53	8951	7	3
53	10455	8	3
53	11959	9	3
53	13464	10	3
53	15387	11	3
53	16891	12	3
53	18395	13	3
53	19899	14	3
53	21403	15	3
53	22907	16	3
53	24411	17	3
53	25915	18	3
53	27419	19	3
53	28923	20	3
53	30427	21	3
53	31931	22	3
53	33435	23	3
53	34939	24	3
53	36443	25	3
53	37947	26	3
53	39451	27	3
53	40955	28	3
53	42459	29	3
53	43963	30	3
53	45467	31	3
53	46971	32	3
53	48475	33	3
53	49979	34	3
53	51483	35	3
53	52987	36	3
53	54491	37	3
53	55995	38	3
53	57499	39	3
53	59003	40	3
53	60507	41	3
53	62011	42	3
53	63515	43	3
53	65019	44	3
53	66523	45	3
53	68027	46	3
53	69531	47	3
53	71035	48	3
53	72539	49	3
53	74043	50	3
53	75547	51	3
53	77051	52	3
53	78555	53	3
53	80059	54	3
53	81563	55	3
53	83067	56	3
53	84571	57	3
53	86075	58	3
53	87579	59	3
53	89083	60	3
53	90587	61	3
53	92091	62	3
53	93595	63	3
53	95099	64	3
53	96603	65	3
53	98107	66	3
53	99611	67	3
53	101115	68	3
53	102619	69	3
53	104123	70	3
53	105627	71	3
53	107131	72	3
53	108635	73	3
53	110139	74	3
53	111643	75	3
53	113147	76	3
53	114651	77	3
53	116155	78	3
53	117659	79	3
53	119163	80	3
53	120667	81	3
53	122171	82	3
53	123675	83	3
53	125179	84	3
53	126683	85	3
53	128187	86	3
53	129691	87	3
53	131195	88	3
53	132699	89	3
53	134203	90	3
53	135707	91	3
53	137211	92	3
53	138715	93	3
53	140219	94	3
53	141723	95	3
53	143227	96	3
53	144731	97	3
53	146235	98	3
53	147739	99	3
53	149243	100	3
54	1431	2	0.010929
54	2935	3	0.01249
54	4439	4	0.01249
54	5943	5	0.01249
54	7447	6	0.01249
54	8951	7	0.01249
54	10455	8	0.01249
54	11959	9	0.01249
54	13464	10	0.01249
54	15387	11	0.013418120074
54	16891	12	0.01249
54	18395	13	0.01249
54	19899	14	0.01249
54	21403	15	0.01249
54	22907	16	0.01249
54	24411	17	0.01249
54	25915	18	0.01249
54	27419	19	0.01249
54	28923	20	0.01249
54	30427	21	0.01249
54	31931	22	0.01249
54	33435	23	0.01249
54	34939	24	0.01249
54	36443	25	0.01249
54	37947	26	0.01249
54	39451	27	0.01249
54	40955	28	0.01249
54	42459	29	0.01249
54	43963	30	0.01249
54	45467	31	0.01249
54	46971	32	0.01249
54	48475	33	0.01249
54	49979	34	0.01249
54	51483	35	0.01249
54	52987	36	0.01249
54	54491	37	0.01249
54	55995	38	0.01249
54	57499	39	0.01249
54	59003	40	0.01249
54	60507	41	0.01249
54	62011	42	0.01249
54	63515	43	0.01249
54	65019	44	0.01249
54	66523	45	0.01249
54	68027	46	0.01249
54	69531	47	0.01249
54	71035	48	0.01249
54	72539	49	0.01249
54	74043	50	0.01249
54	75547	51	0.01249
54	77051	52	0.01249
54	78555	53	0.01249
54	80059	54	0.01249
54	81563	55	0.01249
54	83067	56	0.01249
54	84571	57	0.01249
54	86075	58	0.01249
54	87579	59	0.01249
54	89083	60	0.01249
54	90587	61	0.01249
54	92091	62	0.01249
54	93595	63	0.01249
54	95099	64	0.01249
54	96603	65	0.01249
54	98107	66	0.01249
54	99611	67	0.01249
54	101115	68	0.01249
54	102619	69	0.01249
54	104123	70	0.01249
54	105627	71	0.01249
54	107131	72	0.01249
54	108635	73	0.01249
54	110139	74	0.01249
54	111643	75	0.01249
54	113147	76	0.01249
54	114651	77	0.01249
54	116155	78	0.01249
54	117659	79	0.01249
54	119163	80	0.01249
54	120667	81	0.01249
54	122171	82	0.01249
54	123675	83	0.01249
54	125179	84	0.01249
54	126683	85	0.01249
54	128187	86	0.01249
54	129691	87	0.01249
54	131195	88	0.01249
54	132699	89	0.01249
54	134203	90	0.01249
54	135707	91	0.01249
54	137211	92	0.01249
54	138715	93	0.01249
54	140219	94	0.01249
54	141723	95	0.01249
54	143227	96	0.01249
54	144731	97	0.01249
54	146235	98	0.01249
54	147739	99	0.01249
54	149243	100	0.01249
55	1431	2	0
55	2935	3	0
55	4439	4	0
55	5943	5	0
55	7447	6	0
55	8951	7	0
55	10455	8	0
55	11959	9	0
55	13464	10	0
55	15387	11	0
55	16891	12	0
55	18395	13	0
55	19899	14	0
55	21403	15	0
55	22907	16	0
55	24411	17	0
55	25915	18	0
55	27419	19	0
55	28923	20	0
55	30427	21	0
55	31931	22	0
55	33435	23	0
55	34939	24	0
55	36443	25	0
55	37947	26	0
55	39451	27	0
55	40955	28	0
55	42459	29	0
55	43963	30	0
55	45467	31	0
55	46971	32	0
55	48475	33	0
55	49979	34	0
55	51483	35	0
55	52987	36	0
55	54491	37	0
55	55995	38	0
55	57499	39	0
55	59003	40	0
55	60507	41	0
55	62011	42	0
55	63515	43	0
55	65019	44	0
55	66523	45	0
55	68027	46	0
55	69531	47	0
55	71035	48	0
55	72539	49	0
55	74043	50	0
55	75547	51	0
55	77051	52	0
55	78555	53	0
55	80059	54	0
55	81563	55	0
55	83067	56	0
55	84571	57	0
55	86075	58	0
55	87579	59	0
55	89083	60	0
55	90587	61	0
55	92091	62	0
55	93595	63	0
55	95099	64	0
55	96603	65	0
55	98107	66	0
55	99611	67	0
55	101115	68	0
55	102619	69	0
55	104123	70	0
55	105627	71	0
55	107131	72	0
55	108635	73	0
55	110139	74	0
55	111643	75	0
55	113147	76	0
55	114651	77	0
55	116155	78	0
55	117659	79	0
55	119163	80	0
55	120667	81	0
55	122171	82	0
55	123675	83	0
55	125179	84	0
55	126683	85	0
55	128187	86	0
55	129691	87	0
55	131195	88	0
55	132699	89	0
55	134203	90	0
55	135707	91	0
55	137211	92	0
55	138715	93	0
55	140219	94	0
55	141723	95	0
55	143227	96	0
55	144731	97	0
55	146235	98	0
55	147739	99	0
55	149243	100	0

