version 3
run BreakRanksNoGui-85-20240710-15:15:45-259715
attr configname BreakRanksNoGui
attr datetime 20240710-15:15:45
attr datetimef 20240710-151545
attr experiment BreakRanksNoGui
attr inifile omnetpp.ini
attr iterationvars "$nCars=4, $platoonSize=4, $nLanes=1, $ploegH=0.5, $controller=1, $headway=0.1, $leaderHeadway=1.2, $leaderSpeed=110, $breakRanksSafetyDistance=2, $minSpeed=100, $maxSpeed=120, $beaconInterval=0.1, $priority=4, $packetSize=200, $sController=\"CACC\", $0=2, $1=0"
attr iterationvarsd nCars=4/platoonSize=4/nLanes=1/ploegH=0.5/controller=1/headway=0.1/leaderHeadway=1.2/leaderSpeed=110/breakRanksSafetyDistance=2/minSpeed=100/maxSpeed=120/beaconInterval=0.1/priority=4/packetSize=200/sController=CACC/2/0
attr iterationvarsf nCars=4,platoonSize=4,nLanes=1,ploegH=0.5,controller=1,headway=0.1,leaderHeadway=1.2,leaderSpeed=110,breakRanksSafetyDistance=2,minSpeed=100,maxSpeed=120,beaconInterval=0.1,priority=4,packetSize=200,sController=CACC,2,0-
attr measurement "$nCars=4, $platoonSize=4, $nLanes=1, $ploegH=0.5, $controller=1, $headway=0.1, $leaderHeadway=1.2, $leaderSpeed=110, $breakRanksSafetyDistance=2, $minSpeed=100, $maxSpeed=120, $beaconInterval=0.1, $priority=4, $packetSize=200, $sController=\"CACC\", $0=2, $1=0"
attr network Highway
attr processid 259715
attr repetition 5
attr replication #5
attr resultdir results
attr runnumber 85
attr seedset 5
itervar beaconInterval 0.1
itervar breakRanksSafetyDistance 2
itervar controller 1
itervar headway 0.1
itervar leaderHeadway 1.2
itervar leaderSpeed 110
itervar maxSpeed 120
itervar minSpeed 100
itervar nCars 4
itervar nLanes 1
itervar packetSize 200
itervar platoonSize 4
itervar ploegH 0.5
itervar priority 4
itervar sController "\"CACC\""
config image-path ../../../veins/images
config repeat 10
config extends BreakRanks
config *.manager.command "\"sumo\""
config *.manager.ignoreGuiCommands true
config output-vector-file "results/BreakRanks_1_0.1_110_2_4 /result_5.vec"
config output-scalar-file "results/BreakRanks_1_0.1_110_2_4 /result_5.sca"
config extends Platooning
config *.node[*].scenario_type "\"BreakRanksScenario\""
config *.manager.command "\"sumo-gui\""
config *.node[*].scenario_type "\"SimpleScenario\""
config cmdenv-express-mode true
config cmdenv-autoflush true
config cmdenv-status-frequency 15s
config num-rngs 6
config network Highway
config debug-on-errors true
config print-undisposed true
config *.playgroundSizeX 65000m
config *.playgroundSizeY 25000m
config *.playgroundSizeZ 50m
config sim-time-limit "100 s"
config *.annotations.draw false
config *.obstacles.debug false
config *.world.useTorus false
config *.world.use2D false
config *.manager.updateInterval 0.01s
config *.manager.host "\"localhost\""
config *.manager.moduleType "\"org.car2x.plexe.PlatoonCar\""
config *.manager.moduleName "\"node\""
config *.manager.moduleDisplayString "\"\""
config *.manager.autoShutdown true
config *.manager.margin 25
config *.connectionManager.sendDirect true
config *.connectionManager.maxInterfDist 2600m
config *.connectionManager.drawMaxIntfDist false
config *.**.nic.mac1609_4.useServiceChannel false
config *.**.nic.mac1609_4.txPower 100mW
config *.**.nic.mac1609_4.bitrate 6Mbps
config *.**.nic.mac1609_4.useAcks true
config *.**.nic.mac1609_4.ackErrorRate 0.0
config *.**.nic.mac1609_4.frameErrorRate 0.0
config *.**.nic.phy80211p.minPowerLevel -94dBm
config *.**.nic.phy80211p.maxTXPower 100mW
config *.**.nic.phy80211p.useNoiseFloor true
config *.**.nic.phy80211p.noiseFloor -95dBm
config *.**.nic.phy80211p.decider "xmldoc(\"config.xml\")"
config *.**.nic.phy80211p.analogueModels "xmldoc(\"config.xml\")"
config *.**.nic.phy80211p.usePropagationDelay true
config *.node[*].mobility.x 0
config *.node[*].mobility.y 0
config *.node[*].mobility.z 1.895
config seed-set 5
config **.seed 5
config *.node[*].prot.rng-0 2
config *.node[*].appl.rng-0 3
config *.node[*].scenario.rng-0 4
config **.traffic.rng-0 5
config *.manager.configFile "\"./sumocfg/freeway.sumo.cfg\""
config *.manager.launchConfig "xmldoc(\"./sumocfg/freeway.launchd.xml\")"
config **.numberOfCars 4
config **.numberOfCarsPerPlatoon 4
config **.numberOfLanes 1
config *.node[*].helper_type "\"PositionHelper\""
config *.node[*].scenario.caccC1 0.5
config *.node[*].scenario.caccXi 1
config *.node[*].scenario.caccOmegaN "0.2 Hz"
config *.node[*].scenario.caccSpacing "2 m"
config *.node[*].scenario.engineTau "0.5 s"
config *.node[*].scenario.ploegH 0.5s
config *.node[*].scenario.ploegKp 0.2
config *.node[*].scenario.ploegKd 0.7
config *.node[*].scenario.useRealisticEngine false
config *.node[*].scenario.useControllerAcceleration true
config *.node[*].scenario.nLanes 1
config **.numericController 1
config **.headway 0.1s
config *.node[*].scenario.accHeadway 0.1s
config *.node[*].scenario.leaderHeadway 1.2s
config *.node[*].scenario.leaderSpeed 110kmph
config *.node[*].appl_type "\"SimplePlatooningApp\""
config *.node[*].appl.*.scalar-recording true
config *.node[*].appl.*.vector-recording true
config *.node[0].appl.breakRanksSafetyDistance 2m
config *.node[*].appl.minSpeed 100kmph
config *.node[*].appl.maxSpeed 120kmph
config *.node[*].protocol_type "\"SimplePlatooningBeaconing\""
config *.node[*].prot.*.scalar-recording true
config *.node[*].prot.*.vector-recording true
config *.node[*].prot.beaconingInterval 0.1s
config *.node[*].prot.priority 4
config *.node[*].prot.packetSize 200
config **.traffic_type "\"PlatoonsTrafficManager\""
config **.traffic.platoonInsertTime "1 s"
config **.traffic.platoonInsertSpeed 110kmph
config **.traffic.nCars 4
config **.traffic.platoonSize 4
config **.traffic.nLanes 1
config **.traffic.platooningVType "\"vtypeauto\""
config **.traffic.controller "\"CACC\""
config **.traffic.platoonInsertDistance 2m
config **.traffic.platoonInsertHeadway 0s
config **.traffic.platoonLeaderHeadway 1.2s
config **.scalar-recording false
config **.vector-recording false

vector 0 Highway.node[0].appl distance ETV
vector 1 Highway.node[0].appl relativeSpeed ETV
vector 2 Highway.node[0].appl nodeId ETV
vector 3 Highway.node[0].appl acceleration ETV
vector 4 Highway.node[0].appl controllerAcceleration ETV
vector 5 Highway.node[0].appl speed ETV
vector 6 Highway.node[0].appl posx ETV
vector 7 Highway.node[0].appl posy ETV
vector 8 Highway.node[1].appl distance ETV
vector 9 Highway.node[1].appl relativeSpeed ETV
vector 10 Highway.node[1].appl nodeId ETV
vector 11 Highway.node[1].appl acceleration ETV
vector 12 Highway.node[1].appl controllerAcceleration ETV
vector 13 Highway.node[1].appl speed ETV
vector 14 Highway.node[1].appl posx ETV
vector 15 Highway.node[1].appl posy ETV
vector 16 Highway.node[2].appl distance ETV
vector 17 Highway.node[2].appl relativeSpeed ETV
vector 18 Highway.node[2].appl nodeId ETV
vector 19 Highway.node[2].appl acceleration ETV
vector 20 Highway.node[2].appl controllerAcceleration ETV
vector 21 Highway.node[2].appl speed ETV
vector 22 Highway.node[2].appl posx ETV
vector 23 Highway.node[2].appl posy ETV
vector 24 Highway.node[3].appl distance ETV
vector 25 Highway.node[3].appl relativeSpeed ETV
vector 26 Highway.node[3].appl nodeId ETV
vector 27 Highway.node[3].appl acceleration ETV
vector 28 Highway.node[3].appl controllerAcceleration ETV
vector 29 Highway.node[3].appl speed ETV
vector 30 Highway.node[3].appl posx ETV
vector 31 Highway.node[3].appl posy ETV
vector 32 Highway.node[2].prot frontDelay ETV
vector 33 Highway.node[2].prot frontDelayId ETV
vector 34 Highway.node[3].prot frontDelay ETV
vector 35 Highway.node[3].prot frontDelayId ETV
vector 36 Highway.node[1].prot leaderDelay ETV
vector 37 Highway.node[1].prot leaderDelayId ETV
vector 38 Highway.node[1].prot frontDelay ETV
vector 39 Highway.node[1].prot frontDelayId ETV
vector 40 Highway.node[2].prot leaderDelay ETV
vector 41 Highway.node[2].prot leaderDelayId ETV
vector 42 Highway.node[3].prot leaderDelay ETV
vector 43 Highway.node[3].prot leaderDelayId ETV
vector 44 Highway.node[0].prot nodeId ETV
vector 45 Highway.node[0].prot busyTime ETV
vector 46 Highway.node[0].prot collisions ETV
vector 47 Highway.node[1].prot nodeId ETV
vector 48 Highway.node[1].prot busyTime ETV
vector 49 Highway.node[1].prot collisions ETV
vector 50 Highway.node[2].prot nodeId ETV
vector 51 Highway.node[2].prot busyTime ETV
vector 52 Highway.node[2].prot collisions ETV
vector 53 Highway.node[3].prot nodeId ETV
vector 54 Highway.node[3].prot busyTime ETV
vector 55 Highway.node[3].prot collisions ETV
0	113	1.11	-1
0	263	1.21	-1
0	413	1.31	-1
0	563	1.41	-1
0	713	1.51	-1
0	863	1.61	-1
0	1013	1.71	-1
0	1163	1.81	-1
0	1313	1.91	-1
0	1467	2.01	-1
0	1617	2.11	-1
0	1767	2.21	-1
0	1917	2.31	-1
0	2067	2.41	-1
0	2217	2.51	-1
0	2367	2.61	-1
0	2517	2.71	-1
0	2667	2.81	-1
0	2817	2.91	-1
0	2971	3.01	-1
0	3121	3.11	-1
0	3271	3.21	-1
0	3421	3.31	-1
0	3571	3.41	-1
0	3721	3.51	-1
0	3871	3.61	-1
0	4021	3.71	-1
0	4171	3.81	-1
0	4321	3.91	-1
0	4475	4.01	-1
0	4625	4.11	-1
0	4775	4.21	-1
0	4925	4.31	-1
0	5075	4.41	-1
0	5225	4.51	-1
0	5375	4.61	-1
0	5525	4.71	-1
0	5675	4.81	-1
0	5825	4.91	-1
0	5979	5.01	-1
0	6129	5.11	-1
0	6279	5.21	-1
0	6429	5.31	-1
0	6579	5.41	-1
0	6729	5.51	-1
0	6879	5.61	-1
0	7029	5.71	-1
0	7179	5.81	-1
0	7329	5.91	-1
0	7483	6.01	-1
0	7633	6.11	-1
0	7783	6.21	-1
0	7933	6.31	-1
0	8083	6.41	-1
0	8233	6.51	-1
0	8383	6.61	-1
0	8533	6.71	-1
0	8683	6.81	-1
0	8833	6.91	-1
0	8987	7.01	-1
0	9137	7.11	-1
0	9287	7.21	-1
0	9437	7.31	-1
0	9587	7.41	-1
0	9737	7.51	-1
0	9887	7.61	-1
0	10037	7.71	-1
0	10187	7.81	-1
0	10337	7.91	-1
0	10491	8.01	-1
0	10641	8.11	-1
0	10791	8.21	-1
0	10941	8.31	-1
0	11091	8.41	-1
0	11241	8.51	-1
0	11391	8.61	-1
0	11541	8.71	-1
0	11691	8.81	-1
0	11841	8.91	-1
0	11995	9.01	-1
0	12145	9.11	-1
0	12295	9.21	-1
0	12445	9.31	-1
0	12595	9.41	-1
0	12745	9.51	-1
0	12895	9.61	-1
0	13045	9.71	-1
0	13195	9.81	-1
0	13345	9.91	-1
0	13919	10.01	-1
0	14069	10.11	-1
0	14219	10.21	-1
0	14369	10.31	-1
0	14519	10.41	-1
0	14669	10.51	-1
0	14819	10.61	-1
0	14969	10.71	-1
0	15119	10.81	-1
0	15269	10.91	-1
0	15423	11.01	-1
0	15573	11.11	-1
0	15723	11.21	-1
0	15873	11.31	-1
0	16023	11.41	-1
0	16173	11.51	-1
0	16323	11.61	-1
0	16473	11.71	-1
0	16623	11.81	-1
0	16773	11.91	-1
0	16927	12.01	-1
0	17077	12.11	-1
0	17227	12.21	-1
0	17377	12.31	-1
0	17527	12.41	-1
0	17677	12.51	-1
0	17827	12.61	-1
0	17977	12.71	-1
0	18127	12.81	-1
0	18277	12.91	-1
0	18431	13.01	-1
0	18581	13.11	-1
0	18731	13.21	-1
0	18881	13.31	-1
0	19031	13.41	-1
0	19181	13.51	-1
0	19331	13.61	-1
0	19481	13.71	-1
0	19631	13.81	-1
0	19781	13.91	-1
0	19935	14.01	-1
0	20085	14.11	-1
0	20235	14.21	-1
0	20385	14.31	-1
0	20535	14.41	-1
0	20685	14.51	-1
0	20835	14.61	-1
0	20985	14.71	-1
0	21135	14.81	-1
0	21285	14.91	-1
0	21439	15.01	-1
0	21589	15.11	-1
0	21739	15.21	-1
0	21889	15.31	-1
0	22039	15.41	-1
0	22189	15.51	-1
0	22339	15.61	-1
0	22489	15.71	-1
0	22639	15.81	-1
0	22789	15.91	-1
0	22943	16.01	-1
0	23093	16.11	-1
0	23243	16.21	-1
0	23393	16.31	-1
0	23543	16.41	-1
0	23693	16.51	-1
0	23843	16.61	-1
0	23993	16.71	-1
0	24143	16.81	-1
0	24293	16.91	-1
0	24447	17.01	-1
0	24597	17.11	-1
0	24747	17.21	-1
0	24897	17.31	-1
0	25047	17.41	-1
0	25197	17.51	-1
0	25347	17.61	-1
0	25497	17.71	-1
0	25647	17.81	-1
0	25797	17.91	-1
0	25951	18.01	-1
0	26101	18.11	-1
0	26251	18.21	-1
0	26401	18.31	-1
0	26551	18.41	-1
0	26701	18.51	-1
0	26851	18.61	-1
0	27001	18.71	-1
0	27151	18.81	-1
0	27301	18.91	-1
0	27455	19.01	-1
0	27605	19.11	-1
0	27755	19.21	-1
0	27905	19.31	-1
0	28055	19.41	-1
0	28205	19.51	-1
0	28355	19.61	-1
0	28505	19.71	-1
0	28655	19.81	-1
0	28805	19.91	-1
0	28959	20.01	-1
0	29109	20.11	-1
0	29259	20.21	-1
0	29409	20.31	-1
0	29559	20.41	-1
0	29709	20.51	-1
0	29859	20.61	-1
0	30009	20.71	-1
0	30159	20.81	-1
0	30309	20.91	-1
0	30463	21.01	-1
0	30613	21.11	-1
0	30763	21.21	-1
0	30913	21.31	-1
0	31063	21.41	-1
0	31213	21.51	-1
0	31363	21.61	-1
0	31513	21.71	-1
0	31663	21.81	-1
0	31813	21.91	-1
0	31967	22.01	-1
0	32117	22.11	-1
0	32267	22.21	-1
0	32417	22.31	-1
0	32567	22.41	-1
0	32717	22.51	-1
0	32867	22.61	-1
0	33017	22.71	-1
0	33167	22.81	-1
0	33317	22.91	-1
0	33471	23.01	-1
0	33621	23.11	-1
0	33771	23.21	-1
0	33921	23.31	-1
0	34071	23.41	-1
0	34221	23.51	-1
0	34371	23.61	-1
0	34521	23.71	-1
0	34671	23.81	-1
0	34821	23.91	-1
0	34975	24.01	-1
0	35125	24.11	-1
0	35275	24.21	-1
0	35425	24.31	-1
0	35575	24.41	-1
0	35725	24.51	-1
0	35875	24.61	-1
0	36025	24.71	-1
0	36175	24.81	-1
0	36325	24.91	-1
0	36479	25.01	-1
0	36629	25.11	-1
0	36779	25.21	-1
0	36929	25.31	-1
0	37079	25.41	-1
0	37229	25.51	-1
0	37379	25.61	-1
0	37529	25.71	-1
0	37679	25.81	-1
0	37829	25.91	-1
0	37983	26.01	-1
0	38133	26.11	-1
0	38283	26.21	-1
0	38433	26.31	-1
0	38583	26.41	-1
0	38733	26.51	-1
0	38883	26.61	-1
0	39033	26.71	-1
0	39183	26.81	-1
0	39333	26.91	-1
0	39487	27.01	-1
0	39637	27.11	-1
0	39787	27.21	-1
0	39937	27.31	-1
0	40087	27.41	-1
0	40237	27.51	-1
0	40387	27.61	-1
0	40537	27.71	-1
0	40687	27.81	-1
0	40837	27.91	-1
0	40991	28.01	-1
0	41141	28.11	-1
0	41291	28.21	-1
0	41441	28.31	-1
0	41591	28.41	-1
0	41741	28.51	-1
0	41891	28.61	-1
0	42041	28.71	-1
0	42191	28.81	-1
0	42341	28.91	-1
0	42495	29.01	-1
0	42645	29.11	-1
0	42795	29.21	-1
0	42945	29.31	-1
0	43095	29.41	-1
0	43245	29.51	-1
0	43395	29.61	-1
0	43545	29.71	-1
0	43695	29.81	-1
0	43845	29.91	-1
0	43999	30.01	-1
0	44149	30.11	-1
0	44299	30.21	-1
0	44449	30.31	-1
0	44599	30.41	-1
0	44749	30.51	-1
0	44899	30.61	-1
0	45049	30.71	-1
0	45199	30.81	-1
0	45349	30.91	-1
0	45503	31.01	-1
0	45653	31.11	-1
0	45803	31.21	-1
0	45953	31.31	-1
0	46103	31.41	-1
0	46253	31.51	-1
0	46403	31.61	-1
0	46553	31.71	-1
0	46703	31.81	-1
0	46853	31.91	-1
0	47007	32.01	-1
0	47157	32.11	-1
0	47307	32.21	-1
0	47457	32.31	-1
0	47607	32.41	-1
0	47757	32.51	-1
0	47907	32.61	-1
0	48057	32.71	-1
0	48207	32.81	-1
0	48357	32.91	-1
0	48511	33.01	-1
0	48661	33.11	-1
0	48811	33.21	-1
0	48961	33.31	-1
0	49111	33.41	-1
0	49261	33.51	-1
0	49411	33.61	-1
0	49561	33.71	-1
0	49711	33.81	-1
0	49861	33.91	-1
0	50015	34.01	-1
0	50165	34.11	-1
0	50315	34.21	-1
0	50465	34.31	-1
0	50615	34.41	-1
0	50765	34.51	-1
0	50915	34.61	-1
0	51065	34.71	-1
0	51215	34.81	-1
0	51365	34.91	-1
0	51519	35.01	-1
0	51669	35.11	-1
0	51819	35.21	-1
0	51969	35.31	-1
0	52119	35.41	-1
0	52269	35.51	-1
0	52419	35.61	-1
0	52569	35.71	25.6396
0	52719	35.81	25.784
0	52869	35.91	25.9285
0	53023	36.01	26.0729
0	53173	36.11	26.2173
0	53323	36.21	26.3618
0	53473	36.31	26.5062
0	53623	36.41	26.6507
0	53773	36.51	26.7951
0	53923	36.61	26.9395
0	54073	36.71	27.084
0	54223	36.81	27.2284
0	54373	36.91	27.3729
0	54527	37.01	27.5173
0	54677	37.11	27.6617
0	54827	37.21	27.8062
0	54977	37.31	27.9506
0	55127	37.41	28.0951
0	55277	37.51	28.2395
0	55427	37.61	28.3839
0	55577	37.71	28.5284
0	55727	37.81	28.6728
0	55877	37.91	28.8173
0	56031	38.01	28.9617
0	56181	38.11	29.1061
0	56331	38.21	29.2506
0	56481	38.31	29.395
0	56631	38.41	29.5395
0	56781	38.51	29.6839
0	56931	38.61	29.8283
0	57081	38.71	29.9728
0	57231	38.81	30.1172
0	57381	38.91	30.2617
0	57535	39.01	30.4061
0	57685	39.11	30.5505
0	57835	39.21	30.695
0	57985	39.31	30.8394
0	58135	39.41	30.9839
0	58285	39.51	31.1283
0	58435	39.61	31.2727
0	58585	39.71	31.4172
0	58735	39.81	31.5616
0	58885	39.91	31.7061
0	59039	40.01	31.8505
0	59189	40.11	31.9949
0	59339	40.21	32.1394
0	59489	40.31	32.2838
0	59639	40.41	32.4283
0	59789	40.51	32.5727
0	59939	40.61	32.7171
0	60089	40.71	32.8616
0	60239	40.81	33.006
0	60389	40.91	33.1505
0	60543	41.01	33.2949
0	60693	41.11	33.4393
0	60843	41.21	33.5838
0	60993	41.31	33.7282
0	61143	41.41	33.8727
0	61293	41.51	34.0171
0	61443	41.61	34.1615
0	61593	41.71	34.306
0	61743	41.81	34.4504
0	61893	41.91	34.5949
0	62047	42.01	34.7393
0	62197	42.11	34.8837
0	62347	42.21	35.0282
0	62497	42.31	35.1726
0	62647	42.41	35.3171
0	62797	42.51	35.4615
0	62947	42.61	35.6059
0	63097	42.71	35.7504
0	63247	42.81	35.8948
0	63397	42.91	36.0393
0	63551	43.01	36.1837
0	63701	43.11	36.3281
0	63851	43.21	36.4726
0	64001	43.31	36.617
0	64151	43.41	36.7615
0	64301	43.51	36.9059
0	64451	43.61	37.0503
0	64601	43.71	37.1948
0	64751	43.81	37.3392
0	64901	43.91	37.4837
0	65055	44.01	37.6281
0	65205	44.11	37.7725
0	65355	44.21	37.917
0	65505	44.31	38.0614
0	65655	44.41	38.2059
0	65805	44.51	38.3503
0	65955	44.61	38.4947
0	66105	44.71	38.6392
0	66255	44.81	38.7836
0	66405	44.91	38.9281
0	66559	45.01	39.0725
0	66709	45.11	39.2169
0	66859	45.21	39.3614
0	67009	45.31	39.5058
0	67159	45.41	39.6503
0	67309	45.51	39.7947
0	67459	45.61	39.9391
0	67609	45.71	40.0836
0	67759	45.81	40.228
0	67909	45.91	40.3725
0	68063	46.01	40.5169
0	68213	46.11	40.6613
0	68363	46.21	40.8058
0	68513	46.31	40.9502
0	68663	46.41	41.0947
0	68813	46.51	41.2391
0	68963	46.61	41.3835
0	69113	46.71	41.528
0	69263	46.81	41.6724
0	69413	46.91	41.8169
0	69567	47.01	41.9613
0	69717	47.11	42.1057
0	69867	47.21	42.2502
0	70017	47.31	42.3946
0	70167	47.41	42.5391
0	70317	47.51	42.6835
0	70467	47.61	42.8279
0	70617	47.71	42.9724
0	70767	47.81	43.1168
0	70917	47.91	43.2613
0	71071	48.01	43.4057
0	71221	48.11	43.5501
0	71371	48.21	43.6946
0	71521	48.31	43.839
0	71671	48.41	43.9835
0	71821	48.51	44.1279
0	71971	48.61	44.2723
0	72121	48.71	44.4168
0	72271	48.81	44.5612
0	72421	48.91	44.7057
0	72575	49.01	44.8501
0	72725	49.11	44.9945
0	72875	49.21	45.139
0	73025	49.31	45.2834
0	73175	49.41	45.4279
0	73325	49.51	45.5723
0	73475	49.61	45.7167
0	73625	49.71	45.8612
0	73775	49.81	46.0056
0	73925	49.91	46.1501
0	74079	50.01	46.2945
0	74229	50.11	46.4389
0	74379	50.21	46.5834
0	74529	50.31	46.7278
0	74679	50.41	46.8723
0	74829	50.51	47.0167
0	74979	50.61	47.1611
0	75129	50.71	47.3056
0	75279	50.81	47.45
0	75429	50.91	47.5945
0	75583	51.01	47.7389
0	75733	51.11	47.8833
0	75883	51.21	48.0278
0	76033	51.31	48.1722
0	76183	51.41	48.3167
0	76333	51.51	48.4611
0	76483	51.61	48.6055
0	76633	51.71	48.75
0	76783	51.81	48.8944
0	76933	51.91	49.0389
0	77087	52.01	49.1833
0	77237	52.11	49.3277
0	77387	52.21	49.4722
0	77537	52.31	49.6166
0	77687	52.41	49.7611
0	77837	52.51	49.9055
0	77987	52.61	50.0499
0	78137	52.71	50.1944
0	78287	52.81	50.3388
0	78437	52.91	50.4833
0	78591	53.01	50.6277
0	78741	53.11	50.7721
0	78891	53.21	50.9166
0	79041	53.31	51.061
0	79191	53.41	51.2055
0	79341	53.51	51.3499
0	79491	53.61	51.4943
0	79641	53.71	51.6388
0	79791	53.81	51.7832
0	79941	53.91	51.9277
0	80095	54.01	52.0721
0	80245	54.11	52.2165
0	80395	54.21	52.361
0	80545	54.31	52.5054
0	80695	54.41	52.6499
0	80845	54.51	52.7943
0	80995	54.61	52.9387
0	81145	54.71	53.0832
0	81295	54.81	53.2276
0	81445	54.91	53.3721
0	81599	55.01	53.5165
0	81749	55.11	53.6609
0	81899	55.21	53.8054
0	82049	55.31	53.9498
0	82199	55.41	54.0943
0	82349	55.51	54.2387
0	82499	55.61	54.3831
0	82649	55.71	54.5276
0	82799	55.81	54.672
0	82949	55.91	54.8165
0	83103	56.01	54.9609
0	83253	56.11	55.1053
0	83403	56.21	55.2498
0	83553	56.31	55.3942
0	83703	56.41	55.5387
0	83853	56.51	55.6831
0	84003	56.61	55.8275
0	84153	56.71	55.972
0	84303	56.81	56.1164
0	84453	56.91	56.2609
0	84607	57.01	56.4053
0	84757	57.11	56.5497
0	84907	57.21	56.6942
0	85057	57.31	56.8386
0	85207	57.41	56.9831
0	85357	57.51	57.1275
0	85507	57.61	57.2719
0	85657	57.71	57.4164
0	85807	57.81	57.5608
0	85957	57.91	57.7053
0	86111	58.01	57.8497
0	86261	58.11	57.9941
0	86411	58.21	58.1386
0	86561	58.31	58.283
0	86711	58.41	58.4275
0	86861	58.51	58.5719
0	87011	58.61	58.7163
0	87161	58.71	58.8608
0	87311	58.81	59.0052
0	87461	58.91	59.1497
0	87615	59.01	59.2941
0	87765	59.11	59.4385
0	87915	59.21	59.583
0	88065	59.31	59.7274
0	88215	59.41	59.8719
0	88365	59.51	60.0163
0	88515	59.61	60.1607
0	88665	59.71	60.3052
0	88815	59.81	60.4496
0	88965	59.91	60.5941
0	89119	60.01	60.7385
0	89269	60.11	60.8829
0	89419	60.21	61.0274
0	89569	60.31	61.1718
0	89719	60.41	61.3163
0	89869	60.51	61.4607
0	90019	60.61	61.6051
0	90169	60.71	61.7496
0	90319	60.81	61.894
0	90469	60.91	62.0385
0	90623	61.01	62.1829
0	90773	61.11	62.3273
0	90923	61.21	62.4718
0	91073	61.31	62.6162
0	91223	61.41	62.7607
0	91373	61.51	62.9051
0	91523	61.61	63.0495
0	91673	61.71	63.194
0	91823	61.81	63.3384
0	91973	61.91	63.4829
0	92127	62.01	63.6273
0	92277	62.11	63.7717
0	92427	62.21	63.9162
0	92577	62.31	64.0606
0	92727	62.41	64.2051
0	92877	62.51	64.3495
0	93027	62.61	64.4939
0	93177	62.71	64.6384
0	93327	62.81	64.7828
0	93477	62.91	64.9273
0	93631	63.01	65.0717
0	93781	63.11	65.2161
0	93931	63.21	65.3606
0	94081	63.31	65.505
0	94231	63.41	65.6495
0	94381	63.51	65.7939
0	94531	63.61	65.9383
0	94681	63.71	66.0828
0	94831	63.81	66.2272
0	94981	63.91	66.3717
0	95135	64.01	66.5161
0	95285	64.11	66.6605
0	95435	64.21	66.805
0	95585	64.31	66.9494
0	95735	64.41	67.0939
0	95885	64.51	67.2383
0	96035	64.61	67.3827
0	96185	64.71	67.5272
0	96335	64.81	67.6716
0	96485	64.91	67.8161
0	96639	65.01	67.9605
0	96789	65.11	68.1049
0	96939	65.21	68.2494
0	97089	65.31	68.3938
0	97239	65.41	68.5383
0	97389	65.51	68.6827
0	97539	65.61	68.8271
0	97689	65.71	68.9716
0	97839	65.81	69.116
0	97989	65.91	69.2605
0	98143	66.01	69.4049
0	98293	66.11	69.5493
0	98443	66.21	69.6938
0	98593	66.31	69.8382
0	98743	66.41	69.9827
0	98893	66.51	70.1271
0	99043	66.61	70.2715
0	99193	66.71	70.416
0	99343	66.81	70.5604
0	99493	66.91	70.7049
0	99647	67.01	70.8493
0	99797	67.11	70.9937
0	99947	67.21	71.1382
0	100097	67.31	71.2826
0	100247	67.41	71.4271
0	100397	67.51	71.5715
0	100547	67.61	71.7159
0	100697	67.71	71.8604
0	100847	67.81	72.0048
0	100997	67.91	72.1493
0	101151	68.01	72.2937
0	101301	68.11	72.4381
0	101451	68.21	72.5826
0	101601	68.31	72.727
0	101751	68.41	72.8715
0	101901	68.51	73.0159
0	102051	68.61	73.1603
0	102201	68.71	73.3048
0	102351	68.81	73.4492
0	102501	68.91	73.5937
0	102655	69.01	73.7381
0	102805	69.11	73.8825
0	102955	69.21	74.027
0	103105	69.31	74.1714
0	103255	69.41	74.3159
0	103405	69.51	74.4603
0	103555	69.61	74.6047
0	103705	69.71	74.7492
0	103855	69.81	74.8936
0	104005	69.91	75.0381
0	104159	70.01	75.1825
0	104309	70.11	75.3269
0	104459	70.21	75.4714
0	104609	70.31	75.6158
0	104759	70.41	75.7603
0	104909	70.51	75.9047
0	105059	70.61	76.0491
0	105209	70.71	76.1936
0	105359	70.81	76.338
0	105509	70.91	76.4825
0	105663	71.01	76.6269
0	105813	71.11	76.7713
0	105963	71.21	76.9158
0	106113	71.31	77.0602
0	106263	71.41	77.2047
0	106413	71.51	77.3491
0	106563	71.61	77.4935
0	106713	71.71	77.638
0	106863	71.81	77.7824
0	107013	71.91	77.9269
0	107167	72.01	78.0713
0	107317	72.11	78.2157
0	107467	72.21	78.3602
0	107617	72.31	78.5046
0	107767	72.41	78.6491
0	107917	72.51	78.7935
0	108067	72.61	78.9379
0	108217	72.71	79.0824
0	108367	72.81	79.2268
0	108517	72.91	79.3713
0	108671	73.01	79.5157
0	108821	73.11	79.6601
0	108971	73.21	79.8046
0	109121	73.31	79.949
0	109271	73.41	80.0935
0	109421	73.51	80.2379
0	109571	73.61	80.3823
0	109721	73.71	80.5268
0	109871	73.81	80.6712
0	110021	73.91	80.8157
0	110175	74.01	80.9601
0	110325	74.11	81.1045
0	110475	74.21	81.249
0	110625	74.31	81.3934
0	110775	74.41	81.5379
0	110925	74.51	81.6823
0	111075	74.61	81.8267
0	111225	74.71	81.9712
0	111375	74.81	82.1156
0	111525	74.91	82.2601
0	111679	75.01	82.4045
0	111829	75.11	82.5489
0	111979	75.21	82.6934
0	112129	75.31	82.8378
0	112279	75.41	82.9823
0	112429	75.51	83.1267
0	112579	75.61	83.2711
0	112729	75.71	83.4156
0	112879	75.81	83.56
0	113029	75.91	83.7045
0	113183	76.01	83.8489
0	113333	76.11	83.9933
0	113483	76.21	84.1378
0	113633	76.31	84.2822
0	113783	76.41	84.4267
0	113933	76.51	84.5711
0	114083	76.61	84.7155
0	114233	76.71	84.86
0	114383	76.81	85.0044
0	114533	76.91	85.1489
0	114687	77.01	85.2933
0	114837	77.11	85.4377
0	114987	77.21	85.5822
0	115137	77.31	85.7266
0	115287	77.41	85.8706
0	115437	77.51	86.0141
0	115587	77.61	86.1569
0	115737	77.71	86.299
0	115887	77.81	86.4402
0	116037	77.91	86.5805
0	116191	78.01	86.7201
0	116341	78.11	86.8589
0	116491	78.21	86.9969
0	116641	78.31	87.1344
0	116791	78.41	87.2713
0	116941	78.51	87.4078
0	117091	78.61	87.5439
0	117241	78.71	87.6799
0	117391	78.81	87.8157
0	117541	78.91	87.9515
0	117695	79.01	88.0875
0	117845	79.11	88.2236
0	117995	79.21	88.3601
0	118145	79.31	88.4969
0	118295	79.41	88.6342
0	118445	79.51	88.772
0	118595	79.61	88.9103
0	118745	79.71	89.0492
0	118895	79.81	89.1886
0	119045	79.91	89.3285
0	119199	80.01	89.469
0	119349	80.11	89.61
0	119499	80.21	89.7514
0	119649	80.31	89.8933
0	119799	80.41	90.0356
0	119949	80.51	90.1783
0	120099	80.61	90.3213
0	120249	80.71	90.4646
0	120399	80.81	90.6082
0	120549	80.91	90.752
0	120703	81.01	90.896
0	120853	81.11	91.0402
0	121003	81.21	91.1845
0	121153	81.31	91.329
0	121303	81.41	91.4736
0	121453	81.51	91.6182
0	121603	81.61	91.7629
0	121753	81.71	91.9077
0	121903	81.81	92.0525
0	122053	81.91	92.1973
0	122207	82.01	92.3421
0	122357	82.11	92.4869
0	122507	82.21	92.6317
0	122657	82.31	92.7765
0	122807	82.41	92.9213
0	122957	82.51	93.0661
0	123107	82.61	93.2108
0	123257	82.71	93.3555
0	123407	82.81	93.5002
0	123557	82.91	93.6449
0	123711	83.01	93.7896
0	123861	83.11	93.9342
0	124011	83.21	94.0788
0	124161	83.31	94.2234
0	124311	83.41	94.3679
0	124461	83.51	94.5125
0	124611	83.61	94.657
0	124761	83.71	94.8015
0	124911	83.81	94.946
0	125061	83.91	95.0905
0	125215	84.01	95.235
0	125365	84.11	95.3794
0	125515	84.21	95.5239
0	125665	84.31	95.6683
0	125815	84.41	95.8128
0	125965	84.51	95.9572
0	126115	84.61	96.1016
0	126265	84.71	96.2461
0	126415	84.81	96.3905
0	126565	84.91	96.5349
0	126719	85.01	96.6793
0	126869	85.11	96.8238
0	127019	85.21	96.9682
0	127169	85.31	97.1126
0	127319	85.41	97.257
0	127469	85.51	97.4015
0	127619	85.61	97.5459
0	127769	85.71	97.6903
0	127919	85.81	97.8347
0	128069	85.91	97.9792
0	128223	86.01	98.1236
0	128373	86.11	98.268
0	128523	86.21	98.4125
0	128673	86.31	98.5569
0	128823	86.41	98.7013
0	128973	86.51	98.8458
0	129123	86.61	98.9902
0	129273	86.71	99.1346
0	129423	86.81	99.2791
0	129573	86.91	99.4235
0	129727	87.01	99.5679
0	129877	87.11	99.7124
0	130027	87.21	99.8568
0	130177	87.31	100.001
0	130327	87.41	100.146
0	130477	87.51	100.29
0	130627	87.61	100.435
0	130777	87.71	100.579
0	130927	87.81	100.723
0	131077	87.91	100.868
0	131231	88.01	101.012
0	131381	88.11	101.157
0	131531	88.21	101.301
0	131681	88.31	101.446
0	131831	88.41	101.59
0	131981	88.51	101.735
0	132131	88.61	101.879
0	132281	88.71	102.023
0	132431	88.81	102.168
0	132581	88.91	102.312
0	132735	89.01	102.457
0	132885	89.11	102.601
0	133035	89.21	102.746
0	133185	89.31	102.89
0	133335	89.41	103.035
0	133485	89.51	103.179
0	133635	89.61	103.323
0	133785	89.71	103.468
0	133935	89.81	103.612
0	134085	89.91	103.757
0	134239	90.01	103.901
0	134389	90.11	104.046
0	134539	90.21	104.19
0	134689	90.31	104.334
0	134839	90.41	104.479
0	134989	90.51	104.623
0	135139	90.61	104.768
0	135289	90.71	104.912
0	135439	90.81	105.057
0	135589	90.91	105.201
0	135743	91.01	105.346
0	135893	91.11	105.49
0	136043	91.21	105.634
0	136193	91.31	105.779
0	136343	91.41	105.923
0	136493	91.51	106.068
0	136643	91.61	106.212
0	136793	91.71	106.357
0	136943	91.81	106.501
0	137093	91.91	106.646
0	137247	92.01	106.79
0	137397	92.11	106.934
0	137547	92.21	107.079
0	137697	92.31	107.223
0	137847	92.41	107.368
0	137997	92.51	107.512
0	138147	92.61	107.657
0	138297	92.71	107.801
0	138447	92.81	107.945
0	138597	92.91	108.09
0	138751	93.01	108.234
0	138901	93.11	108.379
0	139051	93.21	108.523
0	139201	93.31	108.668
0	139351	93.41	108.812
0	139501	93.51	108.957
0	139651	93.61	109.101
0	139801	93.71	109.245
0	139951	93.81	109.39
0	140101	93.91	109.534
0	140255	94.01	109.679
0	140405	94.11	109.823
0	140555	94.21	109.968
0	140705	94.31	110.112
0	140855	94.41	110.257
0	141005	94.51	110.401
0	141155	94.61	110.545
0	141305	94.71	110.69
0	141455	94.81	110.834
0	141605	94.91	110.979
0	141759	95.01	111.123
0	141909	95.11	111.268
0	142059	95.21	111.412
0	142209	95.31	111.556
0	142359	95.41	111.701
0	142509	95.51	111.845
0	142659	95.61	111.99
0	142809	95.71	112.134
0	142959	95.81	112.279
0	143109	95.91	112.423
0	143263	96.01	112.568
0	143413	96.11	112.712
0	143563	96.21	112.856
0	143713	96.31	113.001
0	143863	96.41	113.145
0	144013	96.51	113.29
0	144163	96.61	113.434
0	144313	96.71	113.579
0	144463	96.81	113.723
0	144613	96.91	113.868
0	144767	97.01	114.012
0	144917	97.11	114.156
0	145067	97.21	114.301
0	145217	97.31	114.445
0	145367	97.41	114.59
0	145517	97.51	114.734
0	145667	97.61	114.879
0	145817	97.71	115.023
0	145967	97.81	115.167
0	146117	97.91	115.312
0	146271	98.01	115.456
0	146421	98.11	115.601
0	146571	98.21	115.745
0	146721	98.31	115.89
0	146871	98.41	116.034
0	147021	98.51	116.179
0	147171	98.61	116.323
0	147321	98.71	116.467
0	147471	98.81	116.612
0	147621	98.91	116.756
0	147775	99.01	116.901
0	147925	99.11	117.045
0	148075	99.21	117.19
0	148225	99.31	117.334
0	148375	99.41	117.479
0	148525	99.51	117.623
0	148675	99.61	117.767
0	148825	99.71	117.912
0	148975	99.81	118.056
0	149125	99.91	118.201
1	113	1.11	0
1	263	1.21	0
1	413	1.31	0
1	563	1.41	0
1	713	1.51	0
1	863	1.61	0
1	1013	1.71	0
1	1163	1.81	0
1	1313	1.91	0
1	1467	2.01	0
1	1617	2.11	0
1	1767	2.21	0
1	1917	2.31	0
1	2067	2.41	0
1	2217	2.51	0
1	2367	2.61	0
1	2517	2.71	0
1	2667	2.81	0
1	2817	2.91	0
1	2971	3.01	0
1	3121	3.11	0
1	3271	3.21	0
1	3421	3.31	0
1	3571	3.41	0
1	3721	3.51	0
1	3871	3.61	0
1	4021	3.71	0
1	4171	3.81	0
1	4321	3.91	0
1	4475	4.01	0
1	4625	4.11	0
1	4775	4.21	0
1	4925	4.31	0
1	5075	4.41	0
1	5225	4.51	0
1	5375	4.61	0
1	5525	4.71	0
1	5675	4.81	0
1	5825	4.91	0
1	5979	5.01	0
1	6129	5.11	0
1	6279	5.21	0
1	6429	5.31	0
1	6579	5.41	0
1	6729	5.51	0
1	6879	5.61	0
1	7029	5.71	0
1	7179	5.81	0
1	7329	5.91	0
1	7483	6.01	0
1	7633	6.11	0
1	7783	6.21	0
1	7933	6.31	0
1	8083	6.41	0
1	8233	6.51	0
1	8383	6.61	0
1	8533	6.71	0
1	8683	6.81	0
1	8833	6.91	0
1	8987	7.01	0
1	9137	7.11	0
1	9287	7.21	0
1	9437	7.31	0
1	9587	7.41	0
1	9737	7.51	0
1	9887	7.61	0
1	10037	7.71	0
1	10187	7.81	0
1	10337	7.91	0
1	10491	8.01	0
1	10641	8.11	0
1	10791	8.21	0
1	10941	8.31	0
1	11091	8.41	0
1	11241	8.51	0
1	11391	8.61	0
1	11541	8.71	0
1	11691	8.81	0
1	11841	8.91	0
1	11995	9.01	0
1	12145	9.11	0
1	12295	9.21	0
1	12445	9.31	0
1	12595	9.41	0
1	12745	9.51	0
1	12895	9.61	0
1	13045	9.71	0
1	13195	9.81	0
1	13345	9.91	0
1	13919	10.01	0
1	14069	10.11	0
1	14219	10.21	0
1	14369	10.31	0
1	14519	10.41	0
1	14669	10.51	0
1	14819	10.61	0
1	14969	10.71	0
1	15119	10.81	0
1	15269	10.91	0
1	15423	11.01	0
1	15573	11.11	0
1	15723	11.21	0
1	15873	11.31	0
1	16023	11.41	0
1	16173	11.51	0
1	16323	11.61	0
1	16473	11.71	0
1	16623	11.81	0
1	16773	11.91	0
1	16927	12.01	0
1	17077	12.11	0
1	17227	12.21	0
1	17377	12.31	0
1	17527	12.41	0
1	17677	12.51	0
1	17827	12.61	0
1	17977	12.71	0
1	18127	12.81	0
1	18277	12.91	0
1	18431	13.01	0
1	18581	13.11	0
1	18731	13.21	0
1	18881	13.31	0
1	19031	13.41	0
1	19181	13.51	0
1	19331	13.61	0
1	19481	13.71	0
1	19631	13.81	0
1	19781	13.91	0
1	19935	14.01	0
1	20085	14.11	0
1	20235	14.21	0
1	20385	14.31	0
1	20535	14.41	0
1	20685	14.51	0
1	20835	14.61	0
1	20985	14.71	0
1	21135	14.81	0
1	21285	14.91	0
1	21439	15.01	0
1	21589	15.11	0
1	21739	15.21	0
1	21889	15.31	0
1	22039	15.41	0
1	22189	15.51	0
1	22339	15.61	0
1	22489	15.71	0
1	22639	15.81	0
1	22789	15.91	0
1	22943	16.01	0
1	23093	16.11	0
1	23243	16.21	0
1	23393	16.31	0
1	23543	16.41	0
1	23693	16.51	0
1	23843	16.61	0
1	23993	16.71	0
1	24143	16.81	0
1	24293	16.91	0
1	24447	17.01	0
1	24597	17.11	0
1	24747	17.21	0
1	24897	17.31	0
1	25047	17.41	0
1	25197	17.51	0
1	25347	17.61	0
1	25497	17.71	0
1	25647	17.81	0
1	25797	17.91	0
1	25951	18.01	0
1	26101	18.11	0
1	26251	18.21	0
1	26401	18.31	0
1	26551	18.41	0
1	26701	18.51	0
1	26851	18.61	0
1	27001	18.71	0
1	27151	18.81	0
1	27301	18.91	0
1	27455	19.01	0
1	27605	19.11	0
1	27755	19.21	0
1	27905	19.31	0
1	28055	19.41	0
1	28205	19.51	0
1	28355	19.61	0
1	28505	19.71	0
1	28655	19.81	0
1	28805	19.91	0
1	28959	20.01	0
1	29109	20.11	0
1	29259	20.21	0
1	29409	20.31	0
1	29559	20.41	0
1	29709	20.51	0
1	29859	20.61	0
1	30009	20.71	0
1	30159	20.81	0
1	30309	20.91	0
1	30463	21.01	0
1	30613	21.11	0
1	30763	21.21	0
1	30913	21.31	0
1	31063	21.41	0
1	31213	21.51	0
1	31363	21.61	0
1	31513	21.71	0
1	31663	21.81	0
1	31813	21.91	0
1	31967	22.01	0
1	32117	22.11	0
1	32267	22.21	0
1	32417	22.31	0
1	32567	22.41	0
1	32717	22.51	0
1	32867	22.61	0
1	33017	22.71	0
1	33167	22.81	0
1	33317	22.91	0
1	33471	23.01	0
1	33621	23.11	0
1	33771	23.21	0
1	33921	23.31	0
1	34071	23.41	0
1	34221	23.51	0
1	34371	23.61	0
1	34521	23.71	0
1	34671	23.81	0
1	34821	23.91	0
1	34975	24.01	0
1	35125	24.11	0
1	35275	24.21	0
1	35425	24.31	0
1	35575	24.41	0
1	35725	24.51	0
1	35875	24.61	0
1	36025	24.71	0
1	36175	24.81	0
1	36325	24.91	0
1	36479	25.01	0
1	36629	25.11	0
1	36779	25.21	0
1	36929	25.31	0
1	37079	25.41	0
1	37229	25.51	0
1	37379	25.61	0
1	37529	25.71	0
1	37679	25.81	0
1	37829	25.91	0
1	37983	26.01	0
1	38133	26.11	0
1	38283	26.21	0
1	38433	26.31	0
1	38583	26.41	0
1	38733	26.51	0
1	38883	26.61	0
1	39033	26.71	0
1	39183	26.81	0
1	39333	26.91	0
1	39487	27.01	0
1	39637	27.11	0
1	39787	27.21	0
1	39937	27.31	0
1	40087	27.41	0
1	40237	27.51	0
1	40387	27.61	0
1	40537	27.71	0
1	40687	27.81	0
1	40837	27.91	0
1	40991	28.01	0
1	41141	28.11	0
1	41291	28.21	0
1	41441	28.31	0
1	41591	28.41	0
1	41741	28.51	0
1	41891	28.61	0
1	42041	28.71	0
1	42191	28.81	0
1	42341	28.91	0
1	42495	29.01	0
1	42645	29.11	0
1	42795	29.21	0
1	42945	29.31	0
1	43095	29.41	0
1	43245	29.51	0
1	43395	29.61	0
1	43545	29.71	0
1	43695	29.81	0
1	43845	29.91	0
1	43999	30.01	0
1	44149	30.11	0
1	44299	30.21	0
1	44449	30.31	0
1	44599	30.41	0
1	44749	30.51	0
1	44899	30.61	0
1	45049	30.71	0
1	45199	30.81	0
1	45349	30.91	0
1	45503	31.01	0
1	45653	31.11	0
1	45803	31.21	0
1	45953	31.31	0
1	46103	31.41	0
1	46253	31.51	0
1	46403	31.61	0
1	46553	31.71	0
1	46703	31.81	0
1	46853	31.91	0
1	47007	32.01	0
1	47157	32.11	0
1	47307	32.21	0
1	47457	32.31	0
1	47607	32.41	0
1	47757	32.51	0
1	47907	32.61	0
1	48057	32.71	0
1	48207	32.81	0
1	48357	32.91	0
1	48511	33.01	0
1	48661	33.11	0
1	48811	33.21	0
1	48961	33.31	0
1	49111	33.41	0
1	49261	33.51	0
1	49411	33.61	0
1	49561	33.71	0
1	49711	33.81	0
1	49861	33.91	0
1	50015	34.01	0
1	50165	34.11	0
1	50315	34.21	0
1	50465	34.31	0
1	50615	34.41	0
1	50765	34.51	0
1	50915	34.61	0
1	51065	34.71	0
1	51215	34.81	0
1	51365	34.91	0
1	51519	35.01	0
1	51669	35.11	0
1	51819	35.21	0
1	51969	35.31	0
1	52119	35.41	0
1	52269	35.51	0
1	52419	35.61	0
1	52569	35.71	1.4444
1	52719	35.81	1.4444
1	52869	35.91	1.4444
1	53023	36.01	1.4444
1	53173	36.11	1.4444
1	53323	36.21	1.4444
1	53473	36.31	1.4444
1	53623	36.41	1.4444
1	53773	36.51	1.4444
1	53923	36.61	1.4444
1	54073	36.71	1.4444
1	54223	36.81	1.4444
1	54373	36.91	1.4444
1	54527	37.01	1.4444
1	54677	37.11	1.4444
1	54827	37.21	1.4444
1	54977	37.31	1.4444
1	55127	37.41	1.4444
1	55277	37.51	1.4444
1	55427	37.61	1.4444
1	55577	37.71	1.4444
1	55727	37.81	1.4444
1	55877	37.91	1.4444
1	56031	38.01	1.4444
1	56181	38.11	1.4444
1	56331	38.21	1.4444
1	56481	38.31	1.4444
1	56631	38.41	1.4444
1	56781	38.51	1.4444
1	56931	38.61	1.4444
1	57081	38.71	1.4444
1	57231	38.81	1.4444
1	57381	38.91	1.4444
1	57535	39.01	1.4444
1	57685	39.11	1.4444
1	57835	39.21	1.4444
1	57985	39.31	1.4444
1	58135	39.41	1.4444
1	58285	39.51	1.4444
1	58435	39.61	1.4444
1	58585	39.71	1.4444
1	58735	39.81	1.4444
1	58885	39.91	1.4444
1	59039	40.01	1.4444
1	59189	40.11	1.4444
1	59339	40.21	1.4444
1	59489	40.31	1.4444
1	59639	40.41	1.4444
1	59789	40.51	1.4444
1	59939	40.61	1.4444
1	60089	40.71	1.4444
1	60239	40.81	1.4444
1	60389	40.91	1.4444
1	60543	41.01	1.4444
1	60693	41.11	1.4444
1	60843	41.21	1.4444
1	60993	41.31	1.4444
1	61143	41.41	1.4444
1	61293	41.51	1.4444
1	61443	41.61	1.4444
1	61593	41.71	1.4444
1	61743	41.81	1.4444
1	61893	41.91	1.4444
1	62047	42.01	1.4444
1	62197	42.11	1.4444
1	62347	42.21	1.4444
1	62497	42.31	1.4444
1	62647	42.41	1.4444
1	62797	42.51	1.4444
1	62947	42.61	1.4444
1	63097	42.71	1.4444
1	63247	42.81	1.4444
1	63397	42.91	1.4444
1	63551	43.01	1.4444
1	63701	43.11	1.4444
1	63851	43.21	1.4444
1	64001	43.31	1.4444
1	64151	43.41	1.4444
1	64301	43.51	1.4444
1	64451	43.61	1.4444
1	64601	43.71	1.4444
1	64751	43.81	1.4444
1	64901	43.91	1.4444
1	65055	44.01	1.4444
1	65205	44.11	1.4444
1	65355	44.21	1.4444
1	65505	44.31	1.4444
1	65655	44.41	1.4444
1	65805	44.51	1.4444
1	65955	44.61	1.4444
1	66105	44.71	1.4444
1	66255	44.81	1.4444
1	66405	44.91	1.4444
1	66559	45.01	1.4444
1	66709	45.11	1.4444
1	66859	45.21	1.4444
1	67009	45.31	1.4444
1	67159	45.41	1.4444
1	67309	45.51	1.4444
1	67459	45.61	1.4444
1	67609	45.71	1.4444
1	67759	45.81	1.4444
1	67909	45.91	1.4444
1	68063	46.01	1.4444
1	68213	46.11	1.4444
1	68363	46.21	1.4444
1	68513	46.31	1.4444
1	68663	46.41	1.4444
1	68813	46.51	1.4444
1	68963	46.61	1.4444
1	69113	46.71	1.4444
1	69263	46.81	1.4444
1	69413	46.91	1.4444
1	69567	47.01	1.4444
1	69717	47.11	1.4444
1	69867	47.21	1.4444
1	70017	47.31	1.4444
1	70167	47.41	1.4444
1	70317	47.51	1.4444
1	70467	47.61	1.4444
1	70617	47.71	1.4444
1	70767	47.81	1.4444
1	70917	47.91	1.4444
1	71071	48.01	1.4444
1	71221	48.11	1.4444
1	71371	48.21	1.4444
1	71521	48.31	1.4444
1	71671	48.41	1.4444
1	71821	48.51	1.4444
1	71971	48.61	1.4444
1	72121	48.71	1.4444
1	72271	48.81	1.4444
1	72421	48.91	1.4444
1	72575	49.01	1.4444
1	72725	49.11	1.4444
1	72875	49.21	1.4444
1	73025	49.31	1.4444
1	73175	49.41	1.4444
1	73325	49.51	1.4444
1	73475	49.61	1.4444
1	73625	49.71	1.4444
1	73775	49.81	1.4444
1	73925	49.91	1.4444
1	74079	50.01	1.4444
1	74229	50.11	1.4444
1	74379	50.21	1.4444
1	74529	50.31	1.4444
1	74679	50.41	1.4444
1	74829	50.51	1.4444
1	74979	50.61	1.4444
1	75129	50.71	1.4444
1	75279	50.81	1.4444
1	75429	50.91	1.4444
1	75583	51.01	1.4444
1	75733	51.11	1.4444
1	75883	51.21	1.4444
1	76033	51.31	1.4444
1	76183	51.41	1.4444
1	76333	51.51	1.4444
1	76483	51.61	1.4444
1	76633	51.71	1.4444
1	76783	51.81	1.4444
1	76933	51.91	1.4444
1	77087	52.01	1.4444
1	77237	52.11	1.4444
1	77387	52.21	1.4444
1	77537	52.31	1.4444
1	77687	52.41	1.4444
1	77837	52.51	1.4444
1	77987	52.61	1.4444
1	78137	52.71	1.4444
1	78287	52.81	1.4444
1	78437	52.91	1.4444
1	78591	53.01	1.4444
1	78741	53.11	1.4444
1	78891	53.21	1.4444
1	79041	53.31	1.4444
1	79191	53.41	1.4444
1	79341	53.51	1.4444
1	79491	53.61	1.4444
1	79641	53.71	1.4444
1	79791	53.81	1.4444
1	79941	53.91	1.4444
1	80095	54.01	1.4444
1	80245	54.11	1.4444
1	80395	54.21	1.4444
1	80545	54.31	1.4444
1	80695	54.41	1.4444
1	80845	54.51	1.4444
1	80995	54.61	1.4444
1	81145	54.71	1.4444
1	81295	54.81	1.4444
1	81445	54.91	1.4444
1	81599	55.01	1.4444
1	81749	55.11	1.4444
1	81899	55.21	1.4444
1	82049	55.31	1.4444
1	82199	55.41	1.4444
1	82349	55.51	1.4444
1	82499	55.61	1.4444
1	82649	55.71	1.4444
1	82799	55.81	1.4444
1	82949	55.91	1.4444
1	83103	56.01	1.4444
1	83253	56.11	1.4444
1	83403	56.21	1.4444
1	83553	56.31	1.4444
1	83703	56.41	1.4444
1	83853	56.51	1.4444
1	84003	56.61	1.4444
1	84153	56.71	1.4444
1	84303	56.81	1.4444
1	84453	56.91	1.4444
1	84607	57.01	1.4444
1	84757	57.11	1.4444
1	84907	57.21	1.4444
1	85057	57.31	1.4444
1	85207	57.41	1.4444
1	85357	57.51	1.4444
1	85507	57.61	1.4444
1	85657	57.71	1.4444
1	85807	57.81	1.4444
1	85957	57.91	1.4444
1	86111	58.01	1.4444
1	86261	58.11	1.4444
1	86411	58.21	1.4444
1	86561	58.31	1.4444
1	86711	58.41	1.4444
1	86861	58.51	1.4444
1	87011	58.61	1.4444
1	87161	58.71	1.4444
1	87311	58.81	1.4444
1	87461	58.91	1.4444
1	87615	59.01	1.4444
1	87765	59.11	1.4444
1	87915	59.21	1.4444
1	88065	59.31	1.4444
1	88215	59.41	1.4444
1	88365	59.51	1.4444
1	88515	59.61	1.4444
1	88665	59.71	1.4444
1	88815	59.81	1.4444
1	88965	59.91	1.4444
1	89119	60.01	1.4444
1	89269	60.11	1.4444
1	89419	60.21	1.4444
1	89569	60.31	1.4444
1	89719	60.41	1.4444
1	89869	60.51	1.4444
1	90019	60.61	1.4444
1	90169	60.71	1.4444
1	90319	60.81	1.4444
1	90469	60.91	1.4444
1	90623	61.01	1.4444
1	90773	61.11	1.4444
1	90923	61.21	1.4444
1	91073	61.31	1.4444
1	91223	61.41	1.4444
1	91373	61.51	1.4444
1	91523	61.61	1.4444
1	91673	61.71	1.4444
1	91823	61.81	1.4444
1	91973	61.91	1.4444
1	92127	62.01	1.4444
1	92277	62.11	1.4444
1	92427	62.21	1.4444
1	92577	62.31	1.4444
1	92727	62.41	1.4444
1	92877	62.51	1.4444
1	93027	62.61	1.4444
1	93177	62.71	1.4444
1	93327	62.81	1.4444
1	93477	62.91	1.4444
1	93631	63.01	1.4444
1	93781	63.11	1.4444
1	93931	63.21	1.4444
1	94081	63.31	1.4444
1	94231	63.41	1.4444
1	94381	63.51	1.4444
1	94531	63.61	1.4444
1	94681	63.71	1.4444
1	94831	63.81	1.4444
1	94981	63.91	1.4444
1	95135	64.01	1.4444
1	95285	64.11	1.4444
1	95435	64.21	1.4444
1	95585	64.31	1.4444
1	95735	64.41	1.4444
1	95885	64.51	1.4444
1	96035	64.61	1.4444
1	96185	64.71	1.4444
1	96335	64.81	1.4444
1	96485	64.91	1.4444
1	96639	65.01	1.4444
1	96789	65.11	1.4444
1	96939	65.21	1.4444
1	97089	65.31	1.4444
1	97239	65.41	1.4444
1	97389	65.51	1.4444
1	97539	65.61	1.4444
1	97689	65.71	1.4444
1	97839	65.81	1.4444
1	97989	65.91	1.4444
1	98143	66.01	1.4444
1	98293	66.11	1.4444
1	98443	66.21	1.4444
1	98593	66.31	1.4444
1	98743	66.41	1.4444
1	98893	66.51	1.4444
1	99043	66.61	1.4444
1	99193	66.71	1.4444
1	99343	66.81	1.4444
1	99493	66.91	1.4444
1	99647	67.01	1.4444
1	99797	67.11	1.4444
1	99947	67.21	1.4444
1	100097	67.31	1.4444
1	100247	67.41	1.4444
1	100397	67.51	1.4444
1	100547	67.61	1.4444
1	100697	67.71	1.4444
1	100847	67.81	1.4444
1	100997	67.91	1.4444
1	101151	68.01	1.4444
1	101301	68.11	1.4444
1	101451	68.21	1.4444
1	101601	68.31	1.4444
1	101751	68.41	1.4444
1	101901	68.51	1.4444
1	102051	68.61	1.4444
1	102201	68.71	1.4444
1	102351	68.81	1.4444
1	102501	68.91	1.4444
1	102655	69.01	1.4444
1	102805	69.11	1.4444
1	102955	69.21	1.4444
1	103105	69.31	1.4444
1	103255	69.41	1.4444
1	103405	69.51	1.4444
1	103555	69.61	1.4444
1	103705	69.71	1.4444
1	103855	69.81	1.4444
1	104005	69.91	1.4444
1	104159	70.01	1.4444
1	104309	70.11	1.4444
1	104459	70.21	1.4444
1	104609	70.31	1.4444
1	104759	70.41	1.4444
1	104909	70.51	1.4444
1	105059	70.61	1.4444
1	105209	70.71	1.4444
1	105359	70.81	1.4444
1	105509	70.91	1.4444
1	105663	71.01	1.4444
1	105813	71.11	1.4444
1	105963	71.21	1.4444
1	106113	71.31	1.4444
1	106263	71.41	1.4444
1	106413	71.51	1.4444
1	106563	71.61	1.4444
1	106713	71.71	1.4444
1	106863	71.81	1.4444
1	107013	71.91	1.4444
1	107167	72.01	1.4444
1	107317	72.11	1.4444
1	107467	72.21	1.4444
1	107617	72.31	1.4444
1	107767	72.41	1.4444
1	107917	72.51	1.4444
1	108067	72.61	1.4444
1	108217	72.71	1.4444
1	108367	72.81	1.4444
1	108517	72.91	1.4444
1	108671	73.01	1.4444
1	108821	73.11	1.4444
1	108971	73.21	1.4444
1	109121	73.31	1.4444
1	109271	73.41	1.4444
1	109421	73.51	1.4444
1	109571	73.61	1.4444
1	109721	73.71	1.4444
1	109871	73.81	1.4444
1	110021	73.91	1.4444
1	110175	74.01	1.4444
1	110325	74.11	1.4444
1	110475	74.21	1.4444
1	110625	74.31	1.4444
1	110775	74.41	1.4444
1	110925	74.51	1.4444
1	111075	74.61	1.4444
1	111225	74.71	1.4444
1	111375	74.81	1.4444
1	111525	74.91	1.4444
1	111679	75.01	1.4444
1	111829	75.11	1.4444
1	111979	75.21	1.4444
1	112129	75.31	1.4444
1	112279	75.41	1.4444
1	112429	75.51	1.4444
1	112579	75.61	1.4444
1	112729	75.71	1.4444
1	112879	75.81	1.4444
1	113029	75.91	1.4444
1	113183	76.01	1.4444
1	113333	76.11	1.4444
1	113483	76.21	1.4444
1	113633	76.31	1.4444
1	113783	76.41	1.4444
1	113933	76.51	1.4444
1	114083	76.61	1.4444
1	114233	76.71	1.4444
1	114383	76.81	1.4444
1	114533	76.91	1.4444
1	114687	77.01	1.4444
1	114837	77.11	1.4444
1	114987	77.21	1.44437
1	115137	77.31	1.44241
1	115287	77.41	1.43801
1	115437	77.51	1.43183
1	115587	77.61	1.42443
1	115737	77.71	1.41633
1	115887	77.81	1.40792
1	116037	77.91	1.39957
1	116191	78.01	1.39155
1	116341	78.11	1.3841
1	116491	78.21	1.3774
1	116641	78.31	1.37158
1	116791	78.41	1.36675
1	116941	78.51	1.36297
1	117091	78.61	1.36027
1	117241	78.71	1.35866
1	117391	78.81	1.35815
1	117541	78.91	1.3587
1	117695	79.01	1.36027
1	117845	79.11	1.36283
1	117995	79.21	1.3663
1	118145	79.31	1.37055
1	118295	79.41	1.37535
1	118445	79.51	1.38053
1	118595	79.61	1.38593
1	118745	79.71	1.39141
1	118895	79.81	1.39685
1	119045	79.91	1.40217
1	119199	80.01	1.40729
1	119349	80.11	1.41215
1	119499	80.21	1.41672
1	119649	80.31	1.42097
1	119799	80.41	1.42487
1	119949	80.51	1.42842
1	120099	80.61	1.43162
1	120249	80.71	1.43448
1	120399	80.81	1.437
1	120549	80.91	1.4392
1	120703	81.01	1.4411
1	120853	81.11	1.44271
1	121003	81.21	1.44407
1	121153	81.31	1.44519
1	121303	81.41	1.44609
1	121453	81.51	1.4468
1	121603	81.61	1.44734
1	121753	81.71	1.44773
1	121903	81.81	1.44799
1	122053	81.91	1.44814
1	122207	82.01	1.4482
1	122357	82.11	1.44817
1	122507	82.21	1.44809
1	122657	82.31	1.44795
1	122807	82.41	1.44777
1	122957	82.51	1.44757
1	123107	82.61	1.44734
1	123257	82.71	1.44711
1	123407	82.81	1.44686
1	123557	82.91	1.44662
1	123711	83.01	1.44638
1	123861	83.11	1.44615
1	124011	83.21	1.44593
1	124161	83.31	1.44572
1	124311	83.41	1.44552
1	124461	83.51	1.44534
1	124611	83.61	1.44518
1	124761	83.71	1.44503
1	124911	83.81	1.44489
1	125061	83.91	1.44477
1	125215	84.01	1.44467
1	125365	84.11	1.44458
1	125515	84.21	1.4445
1	125665	84.31	1.44444
1	125815	84.41	1.44438
1	125965	84.51	1.44434
1	126115	84.61	1.44431
1	126265	84.71	1.44428
1	126415	84.81	1.44426
1	126565	84.91	1.44424
1	126719	85.01	1.44424
1	126869	85.11	1.44423
1	127019	85.21	1.44423
1	127169	85.31	1.44423
1	127319	85.41	1.44424
1	127469	85.51	1.44425
1	127619	85.61	1.44425
1	127769	85.71	1.44426
1	127919	85.81	1.44427
1	128069	85.91	1.44429
1	128223	86.01	1.4443
1	128373	86.11	1.44431
1	128523	86.21	1.44432
1	128673	86.31	1.44433
1	128823	86.41	1.44434
1	128973	86.51	1.44435
1	129123	86.61	1.44435
1	129273	86.71	1.44436
1	129423	86.81	1.44437
1	129573	86.91	1.44438
1	129727	87.01	1.44438
1	129877	87.11	1.44439
1	130027	87.21	1.44439
1	130177	87.31	1.44439
1	130327	87.41	1.4444
1	130477	87.51	1.4444
1	130627	87.61	1.4444
1	130777	87.71	1.4444
1	130927	87.81	1.4444
1	131077	87.91	1.44441
1	131231	88.01	1.44441
1	131381	88.11	1.44441
1	131531	88.21	1.44441
1	131681	88.31	1.44441
1	131831	88.41	1.44441
1	131981	88.51	1.44441
1	132131	88.61	1.44441
1	132281	88.71	1.44441
1	132431	88.81	1.44441
1	132581	88.91	1.44441
1	132735	89.01	1.44441
1	132885	89.11	1.4444
1	133035	89.21	1.4444
1	133185	89.31	1.4444
1	133335	89.41	1.4444
1	133485	89.51	1.4444
1	133635	89.61	1.4444
1	133785	89.71	1.4444
1	133935	89.81	1.4444
1	134085	89.91	1.4444
1	134239	90.01	1.4444
1	134389	90.11	1.4444
1	134539	90.21	1.4444
1	134689	90.31	1.4444
1	134839	90.41	1.4444
1	134989	90.51	1.4444
1	135139	90.61	1.4444
1	135289	90.71	1.4444
1	135439	90.81	1.4444
1	135589	90.91	1.4444
1	135743	91.01	1.4444
1	135893	91.11	1.4444
1	136043	91.21	1.4444
1	136193	91.31	1.4444
1	136343	91.41	1.4444
1	136493	91.51	1.4444
1	136643	91.61	1.4444
1	136793	91.71	1.4444
1	136943	91.81	1.4444
1	137093	91.91	1.4444
1	137247	92.01	1.4444
1	137397	92.11	1.4444
1	137547	92.21	1.4444
1	137697	92.31	1.4444
1	137847	92.41	1.4444
1	137997	92.51	1.4444
1	138147	92.61	1.4444
1	138297	92.71	1.4444
1	138447	92.81	1.4444
1	138597	92.91	1.4444
1	138751	93.01	1.4444
1	138901	93.11	1.4444
1	139051	93.21	1.4444
1	139201	93.31	1.4444
1	139351	93.41	1.4444
1	139501	93.51	1.4444
1	139651	93.61	1.4444
1	139801	93.71	1.4444
1	139951	93.81	1.4444
1	140101	93.91	1.4444
1	140255	94.01	1.4444
1	140405	94.11	1.4444
1	140555	94.21	1.4444
1	140705	94.31	1.4444
1	140855	94.41	1.4444
1	141005	94.51	1.4444
1	141155	94.61	1.4444
1	141305	94.71	1.4444
1	141455	94.81	1.4444
1	141605	94.91	1.4444
1	141759	95.01	1.4444
1	141909	95.11	1.4444
1	142059	95.21	1.4444
1	142209	95.31	1.4444
1	142359	95.41	1.4444
1	142509	95.51	1.4444
1	142659	95.61	1.4444
1	142809	95.71	1.4444
1	142959	95.81	1.4444
1	143109	95.91	1.4444
1	143263	96.01	1.4444
1	143413	96.11	1.4444
1	143563	96.21	1.4444
1	143713	96.31	1.4444
1	143863	96.41	1.4444
1	144013	96.51	1.4444
1	144163	96.61	1.4444
1	144313	96.71	1.4444
1	144463	96.81	1.4444
1	144613	96.91	1.4444
1	144767	97.01	1.4444
1	144917	97.11	1.4444
1	145067	97.21	1.4444
1	145217	97.31	1.4444
1	145367	97.41	1.4444
1	145517	97.51	1.4444
1	145667	97.61	1.4444
1	145817	97.71	1.4444
1	145967	97.81	1.4444
1	146117	97.91	1.4444
1	146271	98.01	1.4444
1	146421	98.11	1.4444
1	146571	98.21	1.4444
1	146721	98.31	1.4444
1	146871	98.41	1.4444
1	147021	98.51	1.4444
1	147171	98.61	1.4444
1	147321	98.71	1.4444
1	147471	98.81	1.4444
1	147621	98.91	1.4444
1	147775	99.01	1.4444
1	147925	99.11	1.4444
1	148075	99.21	1.4444
1	148225	99.31	1.4444
1	148375	99.41	1.4444
1	148525	99.51	1.4444
1	148675	99.61	1.4444
1	148825	99.71	1.4444
1	148975	99.81	1.4444
1	149125	99.91	1.4444
2	113	1.11	0
2	263	1.21	0
2	413	1.31	0
2	563	1.41	0
2	713	1.51	0
2	863	1.61	0
2	1013	1.71	0
2	1163	1.81	0
2	1313	1.91	0
2	1467	2.01	0
2	1617	2.11	0
2	1767	2.21	0
2	1917	2.31	0
2	2067	2.41	0
2	2217	2.51	0
2	2367	2.61	0
2	2517	2.71	0
2	2667	2.81	0
2	2817	2.91	0
2	2971	3.01	0
2	3121	3.11	0
2	3271	3.21	0
2	3421	3.31	0
2	3571	3.41	0
2	3721	3.51	0
2	3871	3.61	0
2	4021	3.71	0
2	4171	3.81	0
2	4321	3.91	0
2	4475	4.01	0
2	4625	4.11	0
2	4775	4.21	0
2	4925	4.31	0
2	5075	4.41	0
2	5225	4.51	0
2	5375	4.61	0
2	5525	4.71	0
2	5675	4.81	0
2	5825	4.91	0
2	5979	5.01	0
2	6129	5.11	0
2	6279	5.21	0
2	6429	5.31	0
2	6579	5.41	0
2	6729	5.51	0
2	6879	5.61	0
2	7029	5.71	0
2	7179	5.81	0
2	7329	5.91	0
2	7483	6.01	0
2	7633	6.11	0
2	7783	6.21	0
2	7933	6.31	0
2	8083	6.41	0
2	8233	6.51	0
2	8383	6.61	0
2	8533	6.71	0
2	8683	6.81	0
2	8833	6.91	0
2	8987	7.01	0
2	9137	7.11	0
2	9287	7.21	0
2	9437	7.31	0
2	9587	7.41	0
2	9737	7.51	0
2	9887	7.61	0
2	10037	7.71	0
2	10187	7.81	0
2	10337	7.91	0
2	10491	8.01	0
2	10641	8.11	0
2	10791	8.21	0
2	10941	8.31	0
2	11091	8.41	0
2	11241	8.51	0
2	11391	8.61	0
2	11541	8.71	0
2	11691	8.81	0
2	11841	8.91	0
2	11995	9.01	0
2	12145	9.11	0
2	12295	9.21	0
2	12445	9.31	0
2	12595	9.41	0
2	12745	9.51	0
2	12895	9.61	0
2	13045	9.71	0
2	13195	9.81	0
2	13345	9.91	0
2	13919	10.01	0
2	14069	10.11	0
2	14219	10.21	0
2	14369	10.31	0
2	14519	10.41	0
2	14669	10.51	0
2	14819	10.61	0
2	14969	10.71	0
2	15119	10.81	0
2	15269	10.91	0
2	15423	11.01	0
2	15573	11.11	0
2	15723	11.21	0
2	15873	11.31	0
2	16023	11.41	0
2	16173	11.51	0
2	16323	11.61	0
2	16473	11.71	0
2	16623	11.81	0
2	16773	11.91	0
2	16927	12.01	0
2	17077	12.11	0
2	17227	12.21	0
2	17377	12.31	0
2	17527	12.41	0
2	17677	12.51	0
2	17827	12.61	0
2	17977	12.71	0
2	18127	12.81	0
2	18277	12.91	0
2	18431	13.01	0
2	18581	13.11	0
2	18731	13.21	0
2	18881	13.31	0
2	19031	13.41	0
2	19181	13.51	0
2	19331	13.61	0
2	19481	13.71	0
2	19631	13.81	0
2	19781	13.91	0
2	19935	14.01	0
2	20085	14.11	0
2	20235	14.21	0
2	20385	14.31	0
2	20535	14.41	0
2	20685	14.51	0
2	20835	14.61	0
2	20985	14.71	0
2	21135	14.81	0
2	21285	14.91	0
2	21439	15.01	0
2	21589	15.11	0
2	21739	15.21	0
2	21889	15.31	0
2	22039	15.41	0
2	22189	15.51	0
2	22339	15.61	0
2	22489	15.71	0
2	22639	15.81	0
2	22789	15.91	0
2	22943	16.01	0
2	23093	16.11	0
2	23243	16.21	0
2	23393	16.31	0
2	23543	16.41	0
2	23693	16.51	0
2	23843	16.61	0
2	23993	16.71	0
2	24143	16.81	0
2	24293	16.91	0
2	24447	17.01	0
2	24597	17.11	0
2	24747	17.21	0
2	24897	17.31	0
2	25047	17.41	0
2	25197	17.51	0
2	25347	17.61	0
2	25497	17.71	0
2	25647	17.81	0
2	25797	17.91	0
2	25951	18.01	0
2	26101	18.11	0
2	26251	18.21	0
2	26401	18.31	0
2	26551	18.41	0
2	26701	18.51	0
2	26851	18.61	0
2	27001	18.71	0
2	27151	18.81	0
2	27301	18.91	0
2	27455	19.01	0
2	27605	19.11	0
2	27755	19.21	0
2	27905	19.31	0
2	28055	19.41	0
2	28205	19.51	0
2	28355	19.61	0
2	28505	19.71	0
2	28655	19.81	0
2	28805	19.91	0
2	28959	20.01	0
2	29109	20.11	0
2	29259	20.21	0
2	29409	20.31	0
2	29559	20.41	0
2	29709	20.51	0
2	29859	20.61	0
2	30009	20.71	0
2	30159	20.81	0
2	30309	20.91	0
2	30463	21.01	0
2	30613	21.11	0
2	30763	21.21	0
2	30913	21.31	0
2	31063	21.41	0
2	31213	21.51	0
2	31363	21.61	0
2	31513	21.71	0
2	31663	21.81	0
2	31813	21.91	0
2	31967	22.01	0
2	32117	22.11	0
2	32267	22.21	0
2	32417	22.31	0
2	32567	22.41	0
2	32717	22.51	0
2	32867	22.61	0
2	33017	22.71	0
2	33167	22.81	0
2	33317	22.91	0
2	33471	23.01	0
2	33621	23.11	0
2	33771	23.21	0
2	33921	23.31	0
2	34071	23.41	0
2	34221	23.51	0
2	34371	23.61	0
2	34521	23.71	0
2	34671	23.81	0
2	34821	23.91	0
2	34975	24.01	0
2	35125	24.11	0
2	35275	24.21	0
2	35425	24.31	0
2	35575	24.41	0
2	35725	24.51	0
2	35875	24.61	0
2	36025	24.71	0
2	36175	24.81	0
2	36325	24.91	0
2	36479	25.01	0
2	36629	25.11	0
2	36779	25.21	0
2	36929	25.31	0
2	37079	25.41	0
2	37229	25.51	0
2	37379	25.61	0
2	37529	25.71	0
2	37679	25.81	0
2	37829	25.91	0
2	37983	26.01	0
2	38133	26.11	0
2	38283	26.21	0
2	38433	26.31	0
2	38583	26.41	0
2	38733	26.51	0
2	38883	26.61	0
2	39033	26.71	0
2	39183	26.81	0
2	39333	26.91	0
2	39487	27.01	0
2	39637	27.11	0
2	39787	27.21	0
2	39937	27.31	0
2	40087	27.41	0
2	40237	27.51	0
2	40387	27.61	0
2	40537	27.71	0
2	40687	27.81	0
2	40837	27.91	0
2	40991	28.01	0
2	41141	28.11	0
2	41291	28.21	0
2	41441	28.31	0
2	41591	28.41	0
2	41741	28.51	0
2	41891	28.61	0
2	42041	28.71	0
2	42191	28.81	0
2	42341	28.91	0
2	42495	29.01	0
2	42645	29.11	0
2	42795	29.21	0
2	42945	29.31	0
2	43095	29.41	0
2	43245	29.51	0
2	43395	29.61	0
2	43545	29.71	0
2	43695	29.81	0
2	43845	29.91	0
2	43999	30.01	0
2	44149	30.11	0
2	44299	30.21	0
2	44449	30.31	0
2	44599	30.41	0
2	44749	30.51	0
2	44899	30.61	0
2	45049	30.71	0
2	45199	30.81	0
2	45349	30.91	0
2	45503	31.01	0
2	45653	31.11	0
2	45803	31.21	0
2	45953	31.31	0
2	46103	31.41	0
2	46253	31.51	0
2	46403	31.61	0
2	46553	31.71	0
2	46703	31.81	0
2	46853	31.91	0
2	47007	32.01	0
2	47157	32.11	0
2	47307	32.21	0
2	47457	32.31	0
2	47607	32.41	0
2	47757	32.51	0
2	47907	32.61	0
2	48057	32.71	0
2	48207	32.81	0
2	48357	32.91	0
2	48511	33.01	0
2	48661	33.11	0
2	48811	33.21	0
2	48961	33.31	0
2	49111	33.41	0
2	49261	33.51	0
2	49411	33.61	0
2	49561	33.71	0
2	49711	33.81	0
2	49861	33.91	0
2	50015	34.01	0
2	50165	34.11	0
2	50315	34.21	0
2	50465	34.31	0
2	50615	34.41	0
2	50765	34.51	0
2	50915	34.61	0
2	51065	34.71	0
2	51215	34.81	0
2	51365	34.91	0
2	51519	35.01	0
2	51669	35.11	0
2	51819	35.21	0
2	51969	35.31	0
2	52119	35.41	0
2	52269	35.51	0
2	52419	35.61	0
2	52569	35.71	0
2	52719	35.81	0
2	52869	35.91	0
2	53023	36.01	0
2	53173	36.11	0
2	53323	36.21	0
2	53473	36.31	0
2	53623	36.41	0
2	53773	36.51	0
2	53923	36.61	0
2	54073	36.71	0
2	54223	36.81	0
2	54373	36.91	0
2	54527	37.01	0
2	54677	37.11	0
2	54827	37.21	0
2	54977	37.31	0
2	55127	37.41	0
2	55277	37.51	0
2	55427	37.61	0
2	55577	37.71	0
2	55727	37.81	0
2	55877	37.91	0
2	56031	38.01	0
2	56181	38.11	0
2	56331	38.21	0
2	56481	38.31	0
2	56631	38.41	0
2	56781	38.51	0
2	56931	38.61	0
2	57081	38.71	0
2	57231	38.81	0
2	57381	38.91	0
2	57535	39.01	0
2	57685	39.11	0
2	57835	39.21	0
2	57985	39.31	0
2	58135	39.41	0
2	58285	39.51	0
2	58435	39.61	0
2	58585	39.71	0
2	58735	39.81	0
2	58885	39.91	0
2	59039	40.01	0
2	59189	40.11	0
2	59339	40.21	0
2	59489	40.31	0
2	59639	40.41	0
2	59789	40.51	0
2	59939	40.61	0
2	60089	40.71	0
2	60239	40.81	0
2	60389	40.91	0
2	60543	41.01	0
2	60693	41.11	0
2	60843	41.21	0
2	60993	41.31	0
2	61143	41.41	0
2	61293	41.51	0
2	61443	41.61	0
2	61593	41.71	0
2	61743	41.81	0
2	61893	41.91	0
2	62047	42.01	0
2	62197	42.11	0
2	62347	42.21	0
2	62497	42.31	0
2	62647	42.41	0
2	62797	42.51	0
2	62947	42.61	0
2	63097	42.71	0
2	63247	42.81	0
2	63397	42.91	0
2	63551	43.01	0
2	63701	43.11	0
2	63851	43.21	0
2	64001	43.31	0
2	64151	43.41	0
2	64301	43.51	0
2	64451	43.61	0
2	64601	43.71	0
2	64751	43.81	0
2	64901	43.91	0
2	65055	44.01	0
2	65205	44.11	0
2	65355	44.21	0
2	65505	44.31	0
2	65655	44.41	0
2	65805	44.51	0
2	65955	44.61	0
2	66105	44.71	0
2	66255	44.81	0
2	66405	44.91	0
2	66559	45.01	0
2	66709	45.11	0
2	66859	45.21	0
2	67009	45.31	0
2	67159	45.41	0
2	67309	45.51	0
2	67459	45.61	0
2	67609	45.71	0
2	67759	45.81	0
2	67909	45.91	0
2	68063	46.01	0
2	68213	46.11	0
2	68363	46.21	0
2	68513	46.31	0
2	68663	46.41	0
2	68813	46.51	0
2	68963	46.61	0
2	69113	46.71	0
2	69263	46.81	0
2	69413	46.91	0
2	69567	47.01	0
2	69717	47.11	0
2	69867	47.21	0
2	70017	47.31	0
2	70167	47.41	0
2	70317	47.51	0
2	70467	47.61	0
2	70617	47.71	0
2	70767	47.81	0
2	70917	47.91	0
2	71071	48.01	0
2	71221	48.11	0
2	71371	48.21	0
2	71521	48.31	0
2	71671	48.41	0
2	71821	48.51	0
2	71971	48.61	0
2	72121	48.71	0
2	72271	48.81	0
2	72421	48.91	0
2	72575	49.01	0
2	72725	49.11	0
2	72875	49.21	0
2	73025	49.31	0
2	73175	49.41	0
2	73325	49.51	0
2	73475	49.61	0
2	73625	49.71	0
2	73775	49.81	0
2	73925	49.91	0
2	74079	50.01	0
2	74229	50.11	0
2	74379	50.21	0
2	74529	50.31	0
2	74679	50.41	0
2	74829	50.51	0
2	74979	50.61	0
2	75129	50.71	0
2	75279	50.81	0
2	75429	50.91	0
2	75583	51.01	0
2	75733	51.11	0
2	75883	51.21	0
2	76033	51.31	0
2	76183	51.41	0
2	76333	51.51	0
2	76483	51.61	0
2	76633	51.71	0
2	76783	51.81	0
2	76933	51.91	0
2	77087	52.01	0
2	77237	52.11	0
2	77387	52.21	0
2	77537	52.31	0
2	77687	52.41	0
2	77837	52.51	0
2	77987	52.61	0
2	78137	52.71	0
2	78287	52.81	0
2	78437	52.91	0
2	78591	53.01	0
2	78741	53.11	0
2	78891	53.21	0
2	79041	53.31	0
2	79191	53.41	0
2	79341	53.51	0
2	79491	53.61	0
2	79641	53.71	0
2	79791	53.81	0
2	79941	53.91	0
2	80095	54.01	0
2	80245	54.11	0
2	80395	54.21	0
2	80545	54.31	0
2	80695	54.41	0
2	80845	54.51	0
2	80995	54.61	0
2	81145	54.71	0
2	81295	54.81	0
2	81445	54.91	0
2	81599	55.01	0
2	81749	55.11	0
2	81899	55.21	0
2	82049	55.31	0
2	82199	55.41	0
2	82349	55.51	0
2	82499	55.61	0
2	82649	55.71	0
2	82799	55.81	0
2	82949	55.91	0
2	83103	56.01	0
2	83253	56.11	0
2	83403	56.21	0
2	83553	56.31	0
2	83703	56.41	0
2	83853	56.51	0
2	84003	56.61	0
2	84153	56.71	0
2	84303	56.81	0
2	84453	56.91	0
2	84607	57.01	0
2	84757	57.11	0
2	84907	57.21	0
2	85057	57.31	0
2	85207	57.41	0
2	85357	57.51	0
2	85507	57.61	0
2	85657	57.71	0
2	85807	57.81	0
2	85957	57.91	0
2	86111	58.01	0
2	86261	58.11	0
2	86411	58.21	0
2	86561	58.31	0
2	86711	58.41	0
2	86861	58.51	0
2	87011	58.61	0
2	87161	58.71	0
2	87311	58.81	0
2	87461	58.91	0
2	87615	59.01	0
2	87765	59.11	0
2	87915	59.21	0
2	88065	59.31	0
2	88215	59.41	0
2	88365	59.51	0
2	88515	59.61	0
2	88665	59.71	0
2	88815	59.81	0
2	88965	59.91	0
2	89119	60.01	0
2	89269	60.11	0
2	89419	60.21	0
2	89569	60.31	0
2	89719	60.41	0
2	89869	60.51	0
2	90019	60.61	0
2	90169	60.71	0
2	90319	60.81	0
2	90469	60.91	0
2	90623	61.01	0
2	90773	61.11	0
2	90923	61.21	0
2	91073	61.31	0
2	91223	61.41	0
2	91373	61.51	0
2	91523	61.61	0
2	91673	61.71	0
2	91823	61.81	0
2	91973	61.91	0
2	92127	62.01	0
2	92277	62.11	0
2	92427	62.21	0
2	92577	62.31	0
2	92727	62.41	0
2	92877	62.51	0
2	93027	62.61	0
2	93177	62.71	0
2	93327	62.81	0
2	93477	62.91	0
2	93631	63.01	0
2	93781	63.11	0
2	93931	63.21	0
2	94081	63.31	0
2	94231	63.41	0
2	94381	63.51	0
2	94531	63.61	0
2	94681	63.71	0
2	94831	63.81	0
2	94981	63.91	0
2	95135	64.01	0
2	95285	64.11	0
2	95435	64.21	0
2	95585	64.31	0
2	95735	64.41	0
2	95885	64.51	0
2	96035	64.61	0
2	96185	64.71	0
2	96335	64.81	0
2	96485	64.91	0
2	96639	65.01	0
2	96789	65.11	0
2	96939	65.21	0
2	97089	65.31	0
2	97239	65.41	0
2	97389	65.51	0
2	97539	65.61	0
2	97689	65.71	0
2	97839	65.81	0
2	97989	65.91	0
2	98143	66.01	0
2	98293	66.11	0
2	98443	66.21	0
2	98593	66.31	0
2	98743	66.41	0
2	98893	66.51	0
2	99043	66.61	0
2	99193	66.71	0
2	99343	66.81	0
2	99493	66.91	0
2	99647	67.01	0
2	99797	67.11	0
2	99947	67.21	0
2	100097	67.31	0
2	100247	67.41	0
2	100397	67.51	0
2	100547	67.61	0
2	100697	67.71	0
2	100847	67.81	0
2	100997	67.91	0
2	101151	68.01	0
2	101301	68.11	0
2	101451	68.21	0
2	101601	68.31	0
2	101751	68.41	0
2	101901	68.51	0
2	102051	68.61	0
2	102201	68.71	0
2	102351	68.81	0
2	102501	68.91	0
2	102655	69.01	0
2	102805	69.11	0
2	102955	69.21	0
2	103105	69.31	0
2	103255	69.41	0
2	103405	69.51	0
2	103555	69.61	0
2	103705	69.71	0
2	103855	69.81	0
2	104005	69.91	0
2	104159	70.01	0
2	104309	70.11	0
2	104459	70.21	0
2	104609	70.31	0
2	104759	70.41	0
2	104909	70.51	0
2	105059	70.61	0
2	105209	70.71	0
2	105359	70.81	0
2	105509	70.91	0
2	105663	71.01	0
2	105813	71.11	0
2	105963	71.21	0
2	106113	71.31	0
2	106263	71.41	0
2	106413	71.51	0
2	106563	71.61	0
2	106713	71.71	0
2	106863	71.81	0
2	107013	71.91	0
2	107167	72.01	0
2	107317	72.11	0
2	107467	72.21	0
2	107617	72.31	0
2	107767	72.41	0
2	107917	72.51	0
2	108067	72.61	0
2	108217	72.71	0
2	108367	72.81	0
2	108517	72.91	0
2	108671	73.01	0
2	108821	73.11	0
2	108971	73.21	0
2	109121	73.31	0
2	109271	73.41	0
2	109421	73.51	0
2	109571	73.61	0
2	109721	73.71	0
2	109871	73.81	0
2	110021	73.91	0
2	110175	74.01	0
2	110325	74.11	0
2	110475	74.21	0
2	110625	74.31	0
2	110775	74.41	0
2	110925	74.51	0
2	111075	74.61	0
2	111225	74.71	0
2	111375	74.81	0
2	111525	74.91	0
2	111679	75.01	0
2	111829	75.11	0
2	111979	75.21	0
2	112129	75.31	0
2	112279	75.41	0
2	112429	75.51	0
2	112579	75.61	0
2	112729	75.71	0
2	112879	75.81	0
2	113029	75.91	0
2	113183	76.01	0
2	113333	76.11	0
2	113483	76.21	0
2	113633	76.31	0
2	113783	76.41	0
2	113933	76.51	0
2	114083	76.61	0
2	114233	76.71	0
2	114383	76.81	0
2	114533	76.91	0
2	114687	77.01	0
2	114837	77.11	0
2	114987	77.21	0
2	115137	77.31	0
2	115287	77.41	0
2	115437	77.51	0
2	115587	77.61	0
2	115737	77.71	0
2	115887	77.81	0
2	116037	77.91	0
2	116191	78.01	0
2	116341	78.11	0
2	116491	78.21	0
2	116641	78.31	0
2	116791	78.41	0
2	116941	78.51	0
2	117091	78.61	0
2	117241	78.71	0
2	117391	78.81	0
2	117541	78.91	0
2	117695	79.01	0
2	117845	79.11	0
2	117995	79.21	0
2	118145	79.31	0
2	118295	79.41	0
2	118445	79.51	0
2	118595	79.61	0
2	118745	79.71	0
2	118895	79.81	0
2	119045	79.91	0
2	119199	80.01	0
2	119349	80.11	0
2	119499	80.21	0
2	119649	80.31	0
2	119799	80.41	0
2	119949	80.51	0
2	120099	80.61	0
2	120249	80.71	0
2	120399	80.81	0
2	120549	80.91	0
2	120703	81.01	0
2	120853	81.11	0
2	121003	81.21	0
2	121153	81.31	0
2	121303	81.41	0
2	121453	81.51	0
2	121603	81.61	0
2	121753	81.71	0
2	121903	81.81	0
2	122053	81.91	0
2	122207	82.01	0
2	122357	82.11	0
2	122507	82.21	0
2	122657	82.31	0
2	122807	82.41	0
2	122957	82.51	0
2	123107	82.61	0
2	123257	82.71	0
2	123407	82.81	0
2	123557	82.91	0
2	123711	83.01	0
2	123861	83.11	0
2	124011	83.21	0
2	124161	83.31	0
2	124311	83.41	0
2	124461	83.51	0
2	124611	83.61	0
2	124761	83.71	0
2	124911	83.81	0
2	125061	83.91	0
2	125215	84.01	0
2	125365	84.11	0
2	125515	84.21	0
2	125665	84.31	0
2	125815	84.41	0
2	125965	84.51	0
2	126115	84.61	0
2	126265	84.71	0
2	126415	84.81	0
2	126565	84.91	0
2	126719	85.01	0
2	126869	85.11	0
2	127019	85.21	0
2	127169	85.31	0
2	127319	85.41	0
2	127469	85.51	0
2	127619	85.61	0
2	127769	85.71	0
2	127919	85.81	0
2	128069	85.91	0
2	128223	86.01	0
2	128373	86.11	0
2	128523	86.21	0
2	128673	86.31	0
2	128823	86.41	0
2	128973	86.51	0
2	129123	86.61	0
2	129273	86.71	0
2	129423	86.81	0
2	129573	86.91	0
2	129727	87.01	0
2	129877	87.11	0
2	130027	87.21	0
2	130177	87.31	0
2	130327	87.41	0
2	130477	87.51	0
2	130627	87.61	0
2	130777	87.71	0
2	130927	87.81	0
2	131077	87.91	0
2	131231	88.01	0
2	131381	88.11	0
2	131531	88.21	0
2	131681	88.31	0
2	131831	88.41	0
2	131981	88.51	0
2	132131	88.61	0
2	132281	88.71	0
2	132431	88.81	0
2	132581	88.91	0
2	132735	89.01	0
2	132885	89.11	0
2	133035	89.21	0
2	133185	89.31	0
2	133335	89.41	0
2	133485	89.51	0
2	133635	89.61	0
2	133785	89.71	0
2	133935	89.81	0
2	134085	89.91	0
2	134239	90.01	0
2	134389	90.11	0
2	134539	90.21	0
2	134689	90.31	0
2	134839	90.41	0
2	134989	90.51	0
2	135139	90.61	0
2	135289	90.71	0
2	135439	90.81	0
2	135589	90.91	0
2	135743	91.01	0
2	135893	91.11	0
2	136043	91.21	0
2	136193	91.31	0
2	136343	91.41	0
2	136493	91.51	0
2	136643	91.61	0
2	136793	91.71	0
2	136943	91.81	0
2	137093	91.91	0
2	137247	92.01	0
2	137397	92.11	0
2	137547	92.21	0
2	137697	92.31	0
2	137847	92.41	0
2	137997	92.51	0
2	138147	92.61	0
2	138297	92.71	0
2	138447	92.81	0
2	138597	92.91	0
2	138751	93.01	0
2	138901	93.11	0
2	139051	93.21	0
2	139201	93.31	0
2	139351	93.41	0
2	139501	93.51	0
2	139651	93.61	0
2	139801	93.71	0
2	139951	93.81	0
2	140101	93.91	0
2	140255	94.01	0
2	140405	94.11	0
2	140555	94.21	0
2	140705	94.31	0
2	140855	94.41	0
2	141005	94.51	0
2	141155	94.61	0
2	141305	94.71	0
2	141455	94.81	0
2	141605	94.91	0
2	141759	95.01	0
2	141909	95.11	0
2	142059	95.21	0
2	142209	95.31	0
2	142359	95.41	0
2	142509	95.51	0
2	142659	95.61	0
2	142809	95.71	0
2	142959	95.81	0
2	143109	95.91	0
2	143263	96.01	0
2	143413	96.11	0
2	143563	96.21	0
2	143713	96.31	0
2	143863	96.41	0
2	144013	96.51	0
2	144163	96.61	0
2	144313	96.71	0
2	144463	96.81	0
2	144613	96.91	0
2	144767	97.01	0
2	144917	97.11	0
2	145067	97.21	0
2	145217	97.31	0
2	145367	97.41	0
2	145517	97.51	0
2	145667	97.61	0
2	145817	97.71	0
2	145967	97.81	0
2	146117	97.91	0
2	146271	98.01	0
2	146421	98.11	0
2	146571	98.21	0
2	146721	98.31	0
2	146871	98.41	0
2	147021	98.51	0
2	147171	98.61	0
2	147321	98.71	0
2	147471	98.81	0
2	147621	98.91	0
2	147775	99.01	0
2	147925	99.11	0
2	148075	99.21	0
2	148225	99.31	0
2	148375	99.41	0
2	148525	99.51	0
2	148675	99.61	0
2	148825	99.71	0
2	148975	99.81	0
2	149125	99.91	0
3	113	1.11	-0.000716383
3	263	1.21	-0.00136341
3	413	1.31	-0.00186974
3	563	1.41	-0.00225157
3	713	1.51	-0.00252443
3	863	1.61	-0.00270298
3	1013	1.71	-0.00280098
3	1163	1.81	-0.00283113
3	1313	1.91	-0.00280509
3	1467	2.01	-0.00273342
3	1617	2.11	-0.00262559
3	1767	2.21	-0.00249005
3	1917	2.31	-0.00233419
3	2067	2.41	-0.00216447
3	2217	2.51	-0.00198642
3	2367	2.61	-0.00180472
3	2517	2.71	-0.0016233
3	2667	2.81	-0.00144536
3	2817	2.91	-0.00127346
3	2971	3.01	-0.0011096
3	3121	3.11	-0.000955278
3	3271	3.21	-0.000811546
3	3421	3.31	-0.00067908
3	3571	3.41	-0.000558232
3	3721	3.51	-0.000449082
3	3871	3.61	-0.000351487
3	4021	3.71	-0.00026512
3	4171	3.81	-0.000189514
3	4321	3.91	-0.000124092
3	4475	4.01	-6.81972e-05
3	4625	4.11	-2.11209e-05
3	4775	4.21	1.78769e-05
3	4925	4.31	4.9548e-05
3	5075	4.41	7.46407e-05
3	5225	4.51	9.38867e-05
3	5375	4.61	0.000107991
3	5525	4.71	0.000117625
3	5675	4.81	0.000123418
3	5825	4.91	0.000125957
3	5979	5.01	0.000125781
3	6129	5.11	0.00012338
3	6279	5.21	0.000119198
3	6429	5.31	0.000113629
3	6579	5.41	0.000107022
3	6729	5.51	9.96832e-05
3	6879	5.61	9.18747e-05
3	7029	5.71	8.38211e-05
3	7179	5.81	7.57109e-05
3	7329	5.91	6.76999e-05
3	7483	6.01	5.99137e-05
3	7633	6.11	5.24518e-05
3	7783	6.21	4.53896e-05
3	7933	6.31	3.87821e-05
3	8083	6.41	3.2666e-05
3	8233	6.51	2.70628e-05
3	8383	6.61	2.19809e-05
3	8533	6.71	1.74176e-05
3	8683	6.81	1.33618e-05
3	8833	6.91	9.79494e-06
3	8987	7.01	6.6932e-06
3	9137	7.11	4.02864e-06
3	9287	7.21	1.77051e-06
3	9437	7.31	-1.13691e-07
3	9587	7.41	-1.65736e-06
3	9737	7.51	-2.89397e-06
3	9887	7.61	-3.85652e-06
3	10037	7.71	-4.57698e-06
3	10187	7.81	-5.08591e-06
3	10337	7.91	-5.41219e-06
3	10491	8.01	-5.58279e-06
3	10641	8.11	-5.6226e-06
3	10791	8.21	-5.55442e-06
3	10941	8.31	-5.39886e-06
3	11091	8.41	-5.17441e-06
3	11241	8.51	-4.89748e-06
3	11391	8.61	-4.58246e-06
3	11541	8.71	-4.24184e-06
3	11691	8.81	-3.88634e-06
3	11841	8.91	-3.52499e-06
3	11995	9.01	-3.16534e-06
3	12145	9.11	-2.81353e-06
3	12295	9.21	-2.47446e-06
3	12445	9.31	-2.15192e-06
3	12595	9.41	-1.84873e-06
3	12745	9.51	-1.56685e-06
3	12895	9.61	-1.30751e-06
3	13045	9.71	-1.0713e-06
3	13195	9.81	-8.58321e-07
3	13345	9.91	-6.68206e-07
3	13919	10.01	-5.0026e-07
3	14069	10.11	-3.53514e-07
3	14219	10.21	-2.2679e-07
3	14369	10.31	-1.18765e-07
3	14519	10.41	-2.80163e-08
3	14669	10.51	4.6931e-08
3	14819	10.61	1.07573e-07
3	14969	10.71	1.55391e-07
3	15119	10.81	1.91831e-07
3	15269	10.91	2.18284e-07
3	15423	11.01	2.3607e-07
3	15573	11.11	2.46427e-07
3	15723	11.21	2.50502e-07
3	15873	11.31	2.49353e-07
3	16023	11.41	2.43938e-07
3	16173	11.51	2.3512e-07
3	16323	11.61	2.23669e-07
3	16473	11.71	2.10264e-07
3	16623	11.81	1.95496e-07
3	16773	11.91	1.79874e-07
3	16927	12.01	1.63833e-07
3	17077	12.11	1.47736e-07
3	17227	12.21	1.3188e-07
3	17377	12.31	1.16508e-07
3	17527	12.41	1.01807e-07
3	17677	12.51	8.79222e-08
3	17827	12.61	7.49541e-08
3	17977	12.71	6.29711e-08
3	18127	12.81	5.20114e-08
3	18277	12.91	4.20883e-08
3	18431	13.01	3.3193e-08
3	18581	13.11	2.53003e-08
3	18731	13.21	1.83718e-08
3	18881	13.31	1.23581e-08
3	19031	13.41	7.20348e-09
3	19181	13.51	2.84537e-09
3	19331	13.61	-7.80886e-10
3	19481	13.71	-3.74136e-09
3	19631	13.81	-6.10285e-09
3	19781	13.91	-7.93072e-09
3	19935	14.01	-9.28821e-09
3	20085	14.11	-1.0235e-08
3	20235	14.21	-1.08283e-08
3	20385	14.31	-1.11211e-08
3	20535	14.41	-1.11612e-08
3	20685	14.51	-1.09946e-08
3	20835	14.61	-1.06599e-08
3	20985	14.71	-1.01945e-08
3	21135	14.81	-9.62999e-09
3	21285	14.91	-8.99405e-09
3	21439	15.01	-8.31086e-09
3	21589	15.11	-7.60103e-09
3	21739	15.21	-6.88338e-09
3	21889	15.31	-6.17071e-09
3	22039	15.41	-5.47544e-09
3	22189	15.51	-4.80682e-09
3	22339	15.61	-4.17266e-09
3	22489	15.71	-3.57687e-09
3	22639	15.81	-3.02443e-09
3	22789	15.91	-2.51674e-09
3	22943	16.01	-2.05489e-09
3	23093	16.11	-1.63958e-09
3	23243	16.21	-1.26903e-09
3	23393	16.31	-9.42535e-10
3	23543	16.41	-6.57963e-10
3	23693	16.51	-4.1247e-10
3	23843	16.61	-2.04636e-10
3	23993	16.71	-2.91323e-11
3	24143	16.81	1.14753e-10
3	24293	16.91	2.30926e-10
3	24447	17.01	3.22231e-10
3	24597	17.11	3.91154e-10
3	24747	17.21	4.40892e-10
3	24897	17.31	4.73577e-10
3	25047	17.41	4.92051e-10
3	25197	17.51	4.98446e-10
3	25347	17.61	4.94893e-10
3	25497	17.71	4.82814e-10
3	25647	17.81	4.6434e-10
3	25797	17.91	4.40892e-10
3	25951	18.01	4.13536e-10
3	26101	18.11	3.83693e-10
3	26251	18.21	3.51719e-10
3	26401	18.31	3.19744e-10
3	26551	18.41	2.8777e-10
3	26701	18.51	2.55795e-10
3	26851	18.61	2.25953e-10
3	27001	18.71	1.97531e-10
3	27151	18.81	1.6982e-10
3	27301	18.91	1.44951e-10
3	27455	19.01	1.21503e-10
3	27605	19.11	1.00187e-10
3	27755	19.21	8.10019e-11
3	27905	19.31	6.32383e-11
3	28055	19.41	4.86722e-11
3	28205	19.51	3.44613e-11
3	28355	19.61	2.34479e-11
3	28505	19.71	1.27898e-11
3	28655	19.81	4.9738e-12
3	28805	19.91	-2.13163e-12
3	28959	20.01	-8.17124e-12
3	29109	20.11	-1.1724e-11
3	29259	20.21	-1.52767e-11
3	29409	20.31	-1.88294e-11
3	29559	20.41	-2.02505e-11
3	29709	20.51	-2.02505e-11
3	29859	20.61	-2.02505e-11
3	30009	20.71	-2.02505e-11
3	30159	20.81	-2.02505e-11
3	30309	20.91	-2.02505e-11
3	30463	21.01	-2.02505e-11
3	30613	21.11	-2.02505e-11
3	30763	21.21	-2.02505e-11
3	30913	21.31	-1.88294e-11
3	31063	21.41	-1.7053e-11
3	31213	21.51	-1.52767e-11
3	31363	21.61	-1.38556e-11
3	31513	21.71	-1.24345e-11
3	31663	21.81	-1.13687e-11
3	31813	21.91	-1.03029e-11
3	31967	22.01	-9.23706e-12
3	32117	22.11	-8.52651e-12
3	32267	22.21	-7.4607e-12
3	32417	22.31	-6.75016e-12
3	32567	22.41	-6.03961e-12
3	32717	22.51	-5.68434e-12
3	32867	22.61	-4.9738e-12
3	33017	22.71	-4.61853e-12
3	33167	22.81	-4.26326e-12
3	33317	22.91	-3.90799e-12
3	33471	23.01	-3.55271e-12
3	33621	23.11	-3.19744e-12
3	33771	23.21	-2.84217e-12
3	33921	23.31	-2.4869e-12
3	34071	23.41	-2.13163e-12
3	34221	23.51	-2.13163e-12
3	34371	23.61	-1.77636e-12
3	34521	23.71	-1.77636e-12
3	34671	23.81	-1.42109e-12
3	34821	23.91	-1.42109e-12
3	34975	24.01	-1.06581e-12
3	35125	24.11	-1.06581e-12
3	35275	24.21	-1.06581e-12
3	35425	24.31	-1.06581e-12
3	35575	24.41	-7.10543e-13
3	35725	24.51	-7.10543e-13
3	35875	24.61	-7.10543e-13
3	36025	24.71	-7.10543e-13
3	36175	24.81	-7.10543e-13
3	36325	24.91	-3.55271e-13
3	36479	25.01	-3.55271e-13
3	36629	25.11	-3.55271e-13
3	36779	25.21	-3.55271e-13
3	36929	25.31	-3.55271e-13
3	37079	25.41	-3.55271e-13
3	37229	25.51	-3.55271e-13
3	37379	25.61	-3.55271e-13
3	37529	25.71	-3.55271e-13
3	37679	25.81	-3.55271e-13
3	37829	25.91	0
3	37983	26.01	0
3	38133	26.11	0
3	38283	26.21	0
3	38433	26.31	0
3	38583	26.41	0
3	38733	26.51	0
3	38883	26.61	0
3	39033	26.71	0
3	39183	26.81	0
3	39333	26.91	0
3	39487	27.01	0
3	39637	27.11	0
3	39787	27.21	0
3	39937	27.31	0
3	40087	27.41	0
3	40237	27.51	0
3	40387	27.61	0
3	40537	27.71	0
3	40687	27.81	0
3	40837	27.91	0
3	40991	28.01	0
3	41141	28.11	0
3	41291	28.21	0
3	41441	28.31	0
3	41591	28.41	0
3	41741	28.51	0
3	41891	28.61	0
3	42041	28.71	0
3	42191	28.81	0
3	42341	28.91	0
3	42495	29.01	0
3	42645	29.11	0
3	42795	29.21	0
3	42945	29.31	0
3	43095	29.41	0
3	43245	29.51	0
3	43395	29.61	0
3	43545	29.71	0
3	43695	29.81	0
3	43845	29.91	0
3	43999	30.01	0
3	44149	30.11	0
3	44299	30.21	0
3	44449	30.31	0
3	44599	30.41	0
3	44749	30.51	0
3	44899	30.61	0
3	45049	30.71	0
3	45199	30.81	0
3	45349	30.91	0
3	45503	31.01	0
3	45653	31.11	0
3	45803	31.21	0
3	45953	31.31	0
3	46103	31.41	0
3	46253	31.51	0
3	46403	31.61	0
3	46553	31.71	0
3	46703	31.81	0
3	46853	31.91	0
3	47007	32.01	0
3	47157	32.11	0
3	47307	32.21	0
3	47457	32.31	0
3	47607	32.41	0
3	47757	32.51	0
3	47907	32.61	0
3	48057	32.71	0
3	48207	32.81	0
3	48357	32.91	0
3	48511	33.01	0
3	48661	33.11	0
3	48811	33.21	0
3	48961	33.31	0
3	49111	33.41	0
3	49261	33.51	0
3	49411	33.61	0
3	49561	33.71	0
3	49711	33.81	0
3	49861	33.91	0
3	50015	34.01	0
3	50165	34.11	0
3	50315	34.21	0
3	50465	34.31	0
3	50615	34.41	0
3	50765	34.51	0
3	50915	34.61	0
3	51065	34.71	0
3	51215	34.81	0
3	51365	34.91	0
3	51519	35.01	0
3	51669	35.11	0
3	51819	35.21	0
3	51969	35.31	0
3	52119	35.41	0
3	52269	35.51	0
3	52419	35.61	0
3	52569	35.71	0
3	52719	35.81	0
3	52869	35.91	0
3	53023	36.01	0
3	53173	36.11	0
3	53323	36.21	0
3	53473	36.31	0
3	53623	36.41	0
3	53773	36.51	0
3	53923	36.61	0
3	54073	36.71	0
3	54223	36.81	0
3	54373	36.91	0
3	54527	37.01	0
3	54677	37.11	0
3	54827	37.21	0
3	54977	37.31	0
3	55127	37.41	0
3	55277	37.51	0
3	55427	37.61	0
3	55577	37.71	0
3	55727	37.81	0
3	55877	37.91	0
3	56031	38.01	0
3	56181	38.11	0
3	56331	38.21	0
3	56481	38.31	0
3	56631	38.41	0
3	56781	38.51	0
3	56931	38.61	0
3	57081	38.71	0
3	57231	38.81	0
3	57381	38.91	0
3	57535	39.01	0
3	57685	39.11	0
3	57835	39.21	0
3	57985	39.31	0
3	58135	39.41	0
3	58285	39.51	0
3	58435	39.61	0
3	58585	39.71	0
3	58735	39.81	0
3	58885	39.91	0
3	59039	40.01	0
3	59189	40.11	0
3	59339	40.21	0
3	59489	40.31	0
3	59639	40.41	0
3	59789	40.51	0
3	59939	40.61	0
3	60089	40.71	0
3	60239	40.81	0
3	60389	40.91	0
3	60543	41.01	0
3	60693	41.11	0
3	60843	41.21	0
3	60993	41.31	0
3	61143	41.41	0
3	61293	41.51	0
3	61443	41.61	0
3	61593	41.71	0
3	61743	41.81	0
3	61893	41.91	0
3	62047	42.01	0
3	62197	42.11	0
3	62347	42.21	0
3	62497	42.31	0
3	62647	42.41	0
3	62797	42.51	0
3	62947	42.61	0
3	63097	42.71	0
3	63247	42.81	0
3	63397	42.91	0
3	63551	43.01	0
3	63701	43.11	0
3	63851	43.21	0
3	64001	43.31	0
3	64151	43.41	0
3	64301	43.51	0
3	64451	43.61	0
3	64601	43.71	0
3	64751	43.81	0
3	64901	43.91	0
3	65055	44.01	0
3	65205	44.11	0
3	65355	44.21	0
3	65505	44.31	0
3	65655	44.41	0
3	65805	44.51	0
3	65955	44.61	0
3	66105	44.71	0
3	66255	44.81	0
3	66405	44.91	0
3	66559	45.01	0
3	66709	45.11	0
3	66859	45.21	0
3	67009	45.31	0
3	67159	45.41	0
3	67309	45.51	0
3	67459	45.61	0
3	67609	45.71	0
3	67759	45.81	0
3	67909	45.91	0
3	68063	46.01	0
3	68213	46.11	0
3	68363	46.21	0
3	68513	46.31	0
3	68663	46.41	0
3	68813	46.51	0
3	68963	46.61	0
3	69113	46.71	0
3	69263	46.81	0
3	69413	46.91	0
3	69567	47.01	0
3	69717	47.11	0
3	69867	47.21	0
3	70017	47.31	0
3	70167	47.41	0
3	70317	47.51	0
3	70467	47.61	0
3	70617	47.71	0
3	70767	47.81	0
3	70917	47.91	0
3	71071	48.01	0
3	71221	48.11	0
3	71371	48.21	0
3	71521	48.31	0
3	71671	48.41	0
3	71821	48.51	0
3	71971	48.61	0
3	72121	48.71	0
3	72271	48.81	0
3	72421	48.91	0
3	72575	49.01	0
3	72725	49.11	0
3	72875	49.21	0
3	73025	49.31	0
3	73175	49.41	0
3	73325	49.51	0
3	73475	49.61	0
3	73625	49.71	0
3	73775	49.81	0
3	73925	49.91	0
3	74079	50.01	0
3	74229	50.11	0
3	74379	50.21	0
3	74529	50.31	0
3	74679	50.41	0
3	74829	50.51	0
3	74979	50.61	0
3	75129	50.71	0
3	75279	50.81	0
3	75429	50.91	0
3	75583	51.01	0
3	75733	51.11	0
3	75883	51.21	0
3	76033	51.31	0
3	76183	51.41	0
3	76333	51.51	0
3	76483	51.61	0
3	76633	51.71	0
3	76783	51.81	0
3	76933	51.91	0
3	77087	52.01	0
3	77237	52.11	0
3	77387	52.21	0
3	77537	52.31	0
3	77687	52.41	0
3	77837	52.51	0
3	77987	52.61	0
3	78137	52.71	0
3	78287	52.81	0
3	78437	52.91	0
3	78591	53.01	0
3	78741	53.11	0
3	78891	53.21	0
3	79041	53.31	0
3	79191	53.41	0
3	79341	53.51	0
3	79491	53.61	0
3	79641	53.71	0
3	79791	53.81	0
3	79941	53.91	0
3	80095	54.01	0
3	80245	54.11	0
3	80395	54.21	0
3	80545	54.31	0
3	80695	54.41	0
3	80845	54.51	0
3	80995	54.61	0
3	81145	54.71	0
3	81295	54.81	0
3	81445	54.91	0
3	81599	55.01	0
3	81749	55.11	0
3	81899	55.21	0
3	82049	55.31	0
3	82199	55.41	0
3	82349	55.51	0
3	82499	55.61	0
3	82649	55.71	0
3	82799	55.81	0
3	82949	55.91	0
3	83103	56.01	0
3	83253	56.11	0
3	83403	56.21	0
3	83553	56.31	0
3	83703	56.41	0
3	83853	56.51	0
3	84003	56.61	0
3	84153	56.71	0
3	84303	56.81	0
3	84453	56.91	0
3	84607	57.01	0
3	84757	57.11	0
3	84907	57.21	0
3	85057	57.31	0
3	85207	57.41	0
3	85357	57.51	0
3	85507	57.61	0
3	85657	57.71	0
3	85807	57.81	0
3	85957	57.91	0
3	86111	58.01	0
3	86261	58.11	0
3	86411	58.21	0
3	86561	58.31	0
3	86711	58.41	0
3	86861	58.51	0
3	87011	58.61	0
3	87161	58.71	0
3	87311	58.81	0
3	87461	58.91	0
3	87615	59.01	0
3	87765	59.11	0
3	87915	59.21	0
3	88065	59.31	0
3	88215	59.41	0
3	88365	59.51	0
3	88515	59.61	0
3	88665	59.71	0
3	88815	59.81	0
3	88965	59.91	0
3	89119	60.01	0
3	89269	60.11	0
3	89419	60.21	0
3	89569	60.31	0
3	89719	60.41	0
3	89869	60.51	0
3	90019	60.61	0
3	90169	60.71	0
3	90319	60.81	0
3	90469	60.91	0
3	90623	61.01	0
3	90773	61.11	0
3	90923	61.21	0
3	91073	61.31	0
3	91223	61.41	0
3	91373	61.51	0
3	91523	61.61	0
3	91673	61.71	0
3	91823	61.81	0
3	91973	61.91	0
3	92127	62.01	0
3	92277	62.11	0
3	92427	62.21	0
3	92577	62.31	0
3	92727	62.41	0
3	92877	62.51	0
3	93027	62.61	0
3	93177	62.71	0
3	93327	62.81	0
3	93477	62.91	0
3	93631	63.01	0
3	93781	63.11	0
3	93931	63.21	0
3	94081	63.31	0
3	94231	63.41	0
3	94381	63.51	0
3	94531	63.61	0
3	94681	63.71	0
3	94831	63.81	0
3	94981	63.91	0
3	95135	64.01	0
3	95285	64.11	0
3	95435	64.21	0
3	95585	64.31	0
3	95735	64.41	0
3	95885	64.51	0
3	96035	64.61	0
3	96185	64.71	0
3	96335	64.81	0
3	96485	64.91	0
3	96639	65.01	0
3	96789	65.11	0
3	96939	65.21	0
3	97089	65.31	0
3	97239	65.41	0
3	97389	65.51	0
3	97539	65.61	0
3	97689	65.71	0
3	97839	65.81	0
3	97989	65.91	0
3	98143	66.01	0
3	98293	66.11	0
3	98443	66.21	0
3	98593	66.31	0
3	98743	66.41	0
3	98893	66.51	0
3	99043	66.61	0
3	99193	66.71	0
3	99343	66.81	0
3	99493	66.91	0
3	99647	67.01	0
3	99797	67.11	0
3	99947	67.21	0
3	100097	67.31	0
3	100247	67.41	0
3	100397	67.51	0
3	100547	67.61	0
3	100697	67.71	0
3	100847	67.81	0
3	100997	67.91	0
3	101151	68.01	0
3	101301	68.11	0
3	101451	68.21	0
3	101601	68.31	0
3	101751	68.41	0
3	101901	68.51	0
3	102051	68.61	0
3	102201	68.71	0
3	102351	68.81	0
3	102501	68.91	0
3	102655	69.01	0
3	102805	69.11	0
3	102955	69.21	0
3	103105	69.31	0
3	103255	69.41	0
3	103405	69.51	0
3	103555	69.61	0
3	103705	69.71	0
3	103855	69.81	0
3	104005	69.91	0
3	104159	70.01	0
3	104309	70.11	0
3	104459	70.21	0
3	104609	70.31	0
3	104759	70.41	0
3	104909	70.51	0
3	105059	70.61	0
3	105209	70.71	0
3	105359	70.81	0
3	105509	70.91	0
3	105663	71.01	0
3	105813	71.11	0
3	105963	71.21	0
3	106113	71.31	0
3	106263	71.41	0
3	106413	71.51	0
3	106563	71.61	0
3	106713	71.71	0
3	106863	71.81	0
3	107013	71.91	0
3	107167	72.01	0
3	107317	72.11	0
3	107467	72.21	0
3	107617	72.31	0
3	107767	72.41	0
3	107917	72.51	0
3	108067	72.61	0
3	108217	72.71	0
3	108367	72.81	0
3	108517	72.91	0
3	108671	73.01	0
3	108821	73.11	0
3	108971	73.21	0
3	109121	73.31	0
3	109271	73.41	0
3	109421	73.51	0
3	109571	73.61	0
3	109721	73.71	0
3	109871	73.81	0
3	110021	73.91	0
3	110175	74.01	0
3	110325	74.11	0
3	110475	74.21	0
3	110625	74.31	0
3	110775	74.41	0
3	110925	74.51	0
3	111075	74.61	0
3	111225	74.71	0
3	111375	74.81	0
3	111525	74.91	0
3	111679	75.01	0
3	111829	75.11	0
3	111979	75.21	0
3	112129	75.31	0
3	112279	75.41	0
3	112429	75.51	0
3	112579	75.61	0
3	112729	75.71	0
3	112879	75.81	0
3	113029	75.91	0
3	113183	76.01	0
3	113333	76.11	0
3	113483	76.21	0
3	113633	76.31	0
3	113783	76.41	0
3	113933	76.51	0
3	114083	76.61	0
3	114233	76.71	0
3	114383	76.81	0
3	114533	76.91	0
3	114687	77.01	0
3	114837	77.11	0
3	114987	77.21	0
3	115137	77.31	0
3	115287	77.41	0
3	115437	77.51	0
3	115587	77.61	0
3	115737	77.71	0
3	115887	77.81	0
3	116037	77.91	0
3	116191	78.01	0
3	116341	78.11	0
3	116491	78.21	0
3	116641	78.31	0
3	116791	78.41	0
3	116941	78.51	0
3	117091	78.61	0
3	117241	78.71	0
3	117391	78.81	0
3	117541	78.91	0
3	117695	79.01	0
3	117845	79.11	0
3	117995	79.21	0
3	118145	79.31	0
3	118295	79.41	0
3	118445	79.51	0
3	118595	79.61	0
3	118745	79.71	0
3	118895	79.81	0
3	119045	79.91	0
3	119199	80.01	0
3	119349	80.11	0
3	119499	80.21	0
3	119649	80.31	0
3	119799	80.41	0
3	119949	80.51	0
3	120099	80.61	0
3	120249	80.71	0
3	120399	80.81	0
3	120549	80.91	0
3	120703	81.01	0
3	120853	81.11	0
3	121003	81.21	0
3	121153	81.31	0
3	121303	81.41	0
3	121453	81.51	0
3	121603	81.61	0
3	121753	81.71	0
3	121903	81.81	0
3	122053	81.91	0
3	122207	82.01	0
3	122357	82.11	0
3	122507	82.21	0
3	122657	82.31	0
3	122807	82.41	0
3	122957	82.51	0
3	123107	82.61	0
3	123257	82.71	0
3	123407	82.81	0
3	123557	82.91	0
3	123711	83.01	0
3	123861	83.11	0
3	124011	83.21	0
3	124161	83.31	0
3	124311	83.41	0
3	124461	83.51	0
3	124611	83.61	0
3	124761	83.71	0
3	124911	83.81	0
3	125061	83.91	0
3	125215	84.01	0
3	125365	84.11	0
3	125515	84.21	0
3	125665	84.31	0
3	125815	84.41	0
3	125965	84.51	0
3	126115	84.61	0
3	126265	84.71	0
3	126415	84.81	0
3	126565	84.91	0
3	126719	85.01	0
3	126869	85.11	0
3	127019	85.21	0
3	127169	85.31	0
3	127319	85.41	0
3	127469	85.51	0
[...]
43	145652	97.596344744971	3
43	145802	97.696343892713	3
43	145952	97.796356042086	3
43	146102	97.896355193088	3
43	146252	97.996354345722	3
43	146406	98.096353499984	3
43	146556	98.196352655877	3
43	146706	98.2963518134	3
43	146856	98.396350972554	3
43	147006	98.496350133337	3
43	147156	98.59634929575	3
43	147306	98.696348459793	3
43	147456	98.796347625467	3
43	147606	98.89634679277	3
43	147756	98.996345961705	3
43	147910	99.096345132269	3
43	148060	99.196344304463	3
43	148210	99.296343478288	3
43	148360	99.396355653743	3
43	148510	99.496354830828	3
43	148660	99.596354009542	3
43	148810	99.696353189887	3
43	148960	99.796352371862	3
43	149110	99.896351555468	3
43	149260	99.996350740704	3
44	1462	2	0
44	2966	3	0
44	4470	4	0
44	5974	5	0
44	7478	6	0
44	8982	7	0
44	10486	8	0
44	11990	9	0
44	13495	10	0
44	15418	11	0
44	16922	12	0
44	18426	13	0
44	19930	14	0
44	21434	15	0
44	22938	16	0
44	24442	17	0
44	25946	18	0
44	27450	19	0
44	28954	20	0
44	30458	21	0
44	31962	22	0
44	33466	23	0
44	34970	24	0
44	36474	25	0
44	37978	26	0
44	39482	27	0
44	40986	28	0
44	42490	29	0
44	43994	30	0
44	45498	31	0
44	47002	32	0
44	48506	33	0
44	50010	34	0
44	51514	35	0
44	53018	36	0
44	54522	37	0
44	56026	38	0
44	57530	39	0
44	59034	40	0
44	60538	41	0
44	62042	42	0
44	63546	43	0
44	65050	44	0
44	66554	45	0
44	68058	46	0
44	69562	47	0
44	71066	48	0
44	72570	49	0
44	74074	50	0
44	75578	51	0
44	77082	52	0
44	78586	53	0
44	80090	54	0
44	81594	55	0
44	83098	56	0
44	84602	57	0
44	86106	58	0
44	87610	59	0
44	89114	60	0
44	90618	61	0
44	92122	62	0
44	93626	63	0
44	95130	64	0
44	96634	65	0
44	98138	66	0
44	99642	67	0
44	101146	68	0
44	102650	69	0
44	104154	70	0
44	105658	71	0
44	107162	72	0
44	108666	73	0
44	110170	74	0
44	111674	75	0
44	113178	76	0
44	114682	77	0
44	116186	78	0
44	117690	79	0
44	119194	80	0
44	120698	81	0
44	122202	82	0
44	123706	83	0
44	125210	84	0
44	126714	85	0
44	128218	86	0
44	129722	87	0
44	131226	88	0
44	132730	89	0
44	134234	90	0
44	135738	91	0
44	137242	92	0
44	138746	93	0
44	140250	94	0
44	141754	95	0
44	143258	96	0
44	144762	97	0
44	146266	98	0
44	147770	99	0
44	149274	100	0
45	1462	2	0.011241
45	2966	3	0.01249
45	4470	4	0.01249
45	5974	5	0.01249
45	7478	6	0.01249
45	8982	7	0.01249
45	10486	8	0.01249
45	11990	9	0.01249
45	13495	10	0.01249
45	15418	11	0.013454320196
45	16922	12	0.01249
45	18426	13	0.01249
45	19930	14	0.01249
45	21434	15	0.01249
45	22938	16	0.01249
45	24442	17	0.01249
45	25946	18	0.01249
45	27450	19	0.01249
45	28954	20	0.01249
45	30458	21	0.01249
45	31962	22	0.01249
45	33466	23	0.01249
45	34970	24	0.01249
45	36474	25	0.01249
45	37978	26	0.01249
45	39482	27	0.01249
45	40986	28	0.01249
45	42490	29	0.01249
45	43994	30	0.01249
45	45498	31	0.01249
45	47002	32	0.01249
45	48506	33	0.01249
45	50010	34	0.01249
45	51514	35	0.01249
45	53018	36	0.01249
45	54522	37	0.01249
45	56026	38	0.01249
45	57530	39	0.01249
45	59034	40	0.01249
45	60538	41	0.01249
45	62042	42	0.01249
45	63546	43	0.01249
45	65050	44	0.01249
45	66554	45	0.01249
45	68058	46	0.01249
45	69562	47	0.01249
45	71066	48	0.01249
45	72570	49	0.01249
45	74074	50	0.01249
45	75578	51	0.01249
45	77082	52	0.01249
45	78586	53	0.01249
45	80090	54	0.01249
45	81594	55	0.01249
45	83098	56	0.01249
45	84602	57	0.01249
45	86106	58	0.01249
45	87610	59	0.01249
45	89114	60	0.01249
45	90618	61	0.01249
45	92122	62	0.01249
45	93626	63	0.01249
45	95130	64	0.01249
45	96634	65	0.01249
45	98138	66	0.01249
45	99642	67	0.01249
45	101146	68	0.01249
45	102650	69	0.01249
45	104154	70	0.01249
45	105658	71	0.01249
45	107162	72	0.01249
45	108666	73	0.01249
45	110170	74	0.01249
45	111674	75	0.01249
45	113178	76	0.01249
45	114682	77	0.01249
45	116186	78	0.01249
45	117690	79	0.01249
45	119194	80	0.01249
45	120698	81	0.01249
45	122202	82	0.01249
45	123706	83	0.01249
45	125210	84	0.01249
45	126714	85	0.01249
45	128218	86	0.01249
45	129722	87	0.01249
45	131226	88	0.01249
45	132730	89	0.01249
45	134234	90	0.01249
45	135738	91	0.01249
45	137242	92	0.01249
45	138746	93	0.01249
45	140250	94	0.01249
45	141754	95	0.01249
45	143258	96	0.01249
45	144762	97	0.01249
45	146266	98	0.01249
45	147770	99	0.01249
45	149274	100	0.01249
46	1462	2	0
46	2966	3	0
46	4470	4	0
46	5974	5	0
46	7478	6	0
46	8982	7	0
46	10486	8	0
46	11990	9	0
46	13495	10	0
46	15418	11	0
46	16922	12	0
46	18426	13	0
46	19930	14	0
46	21434	15	0
46	22938	16	0
46	24442	17	0
46	25946	18	0
46	27450	19	0
46	28954	20	0
46	30458	21	0
46	31962	22	0
46	33466	23	0
46	34970	24	0
46	36474	25	0
46	37978	26	0
46	39482	27	0
46	40986	28	0
46	42490	29	0
46	43994	30	0
46	45498	31	0
46	47002	32	0
46	48506	33	0
46	50010	34	0
46	51514	35	0
46	53018	36	0
46	54522	37	0
46	56026	38	0
46	57530	39	0
46	59034	40	0
46	60538	41	0
46	62042	42	0
46	63546	43	0
46	65050	44	0
46	66554	45	0
46	68058	46	0
46	69562	47	0
46	71066	48	0
46	72570	49	0
46	74074	50	0
46	75578	51	0
46	77082	52	0
46	78586	53	0
46	80090	54	0
46	81594	55	0
46	83098	56	0
46	84602	57	0
46	86106	58	0
46	87610	59	0
46	89114	60	0
46	90618	61	0
46	92122	62	0
46	93626	63	0
46	95130	64	0
46	96634	65	0
46	98138	66	0
46	99642	67	0
46	101146	68	0
46	102650	69	0
46	104154	70	0
46	105658	71	0
46	107162	72	0
46	108666	73	0
46	110170	74	0
46	111674	75	0
46	113178	76	0
46	114682	77	0
46	116186	78	0
46	117690	79	0
46	119194	80	0
46	120698	81	0
46	122202	82	0
46	123706	83	0
46	125210	84	0
46	126714	85	0
46	128218	86	0
46	129722	87	0
46	131226	88	0
46	132730	89	0
46	134234	90	0
46	135738	91	0
46	137242	92	0
46	138746	93	0
46	140250	94	0
46	141754	95	0
46	143258	96	0
46	144762	97	0
46	146266	98	0
46	147770	99	0
46	149274	100	0
47	1463	2	1
47	2967	3	1
47	4471	4	1
47	5975	5	1
47	7479	6	1
47	8983	7	1
47	10487	8	1
47	11991	9	1
47	13496	10	1
47	15419	11	1
47	16923	12	1
47	18427	13	1
47	19931	14	1
47	21435	15	1
47	22939	16	1
47	24443	17	1
47	25947	18	1
47	27451	19	1
47	28955	20	1
47	30459	21	1
47	31963	22	1
47	33467	23	1
47	34971	24	1
47	36475	25	1
47	37979	26	1
47	39483	27	1
47	40987	28	1
47	42491	29	1
47	43995	30	1
47	45499	31	1
47	47003	32	1
47	48507	33	1
47	50011	34	1
47	51515	35	1
47	53019	36	1
47	54523	37	1
47	56027	38	1
47	57531	39	1
47	59035	40	1
47	60539	41	1
47	62043	42	1
47	63547	43	1
47	65051	44	1
47	66555	45	1
47	68059	46	1
47	69563	47	1
47	71067	48	1
47	72571	49	1
47	74075	50	1
47	75579	51	1
47	77083	52	1
47	78587	53	1
47	80091	54	1
47	81595	55	1
47	83099	56	1
47	84603	57	1
47	86107	58	1
47	87611	59	1
47	89115	60	1
47	90619	61	1
47	92123	62	1
47	93627	63	1
47	95131	64	1
47	96635	65	1
47	98139	66	1
47	99643	67	1
47	101147	68	1
47	102651	69	1
47	104155	70	1
47	105659	71	1
47	107163	72	1
47	108667	73	1
47	110171	74	1
47	111675	75	1
47	113179	76	1
47	114683	77	1
47	116187	78	1
47	117691	79	1
47	119195	80	1
47	120699	81	1
47	122203	82	1
47	123707	83	1
47	125211	84	1
47	126715	85	1
47	128219	86	1
47	129723	87	1
47	131227	88	1
47	132731	89	1
47	134235	90	1
47	135739	91	1
47	137243	92	1
47	138747	93	1
47	140251	94	1
47	141755	95	1
47	143259	96	1
47	144763	97	1
47	146267	98	1
47	147771	99	1
47	149275	100	1
48	1463	2	0.011241
48	2967	3	0.01249
48	4471	4	0.01249
48	5975	5	0.01249
48	7479	6	0.01249
48	8983	7	0.01249
48	10487	8	0.01249
48	11991	9	0.01249
48	13496	10	0.01249
48	15419	11	0.013418040022
48	16923	12	0.01249
48	18427	13	0.01249
48	19931	14	0.01249
48	21435	15	0.01249
48	22939	16	0.01249
48	24443	17	0.01249
48	25947	18	0.01249
48	27451	19	0.01249
48	28955	20	0.01249
48	30459	21	0.01249
48	31963	22	0.01249
48	33467	23	0.01249
48	34971	24	0.01249
48	36475	25	0.01249
48	37979	26	0.01249
48	39483	27	0.01249
48	40987	28	0.01249
48	42491	29	0.01249
48	43995	30	0.01249
48	45499	31	0.01249
48	47003	32	0.01249
48	48507	33	0.01249
48	50011	34	0.01249
48	51515	35	0.01249
48	53019	36	0.01249
48	54523	37	0.01249
48	56027	38	0.01249
48	57531	39	0.01249
48	59035	40	0.01249
48	60539	41	0.01249
48	62043	42	0.01249
48	63547	43	0.01249
48	65051	44	0.01249
48	66555	45	0.01249
48	68059	46	0.01249
48	69563	47	0.01249
48	71067	48	0.01249
48	72571	49	0.01249
48	74075	50	0.01249
48	75579	51	0.01249
48	77083	52	0.01249
48	78587	53	0.01249
48	80091	54	0.01249
48	81595	55	0.01249
48	83099	56	0.01249
48	84603	57	0.01249
48	86107	58	0.01249
48	87611	59	0.01249
48	89115	60	0.01249
48	90619	61	0.01249
48	92123	62	0.01249
48	93627	63	0.01249
48	95131	64	0.01249
48	96635	65	0.01249
48	98139	66	0.01249
48	99643	67	0.01249
48	101147	68	0.01249
48	102651	69	0.01249
48	104155	70	0.01249
48	105659	71	0.01249
48	107163	72	0.01249
48	108667	73	0.01249
48	110171	74	0.01249
48	111675	75	0.01249
48	113179	76	0.01249
48	114683	77	0.01249
48	116187	78	0.01249
48	117691	79	0.01249
48	119195	80	0.01249
48	120699	81	0.01249
48	122203	82	0.01249
48	123707	83	0.01249
48	125211	84	0.01249
48	126715	85	0.01249
48	128219	86	0.01249
48	129723	87	0.01249
48	131227	88	0.01249
48	132731	89	0.01249
48	134235	90	0.01249
48	135739	91	0.01249
48	137243	92	0.01249
48	138747	93	0.01249
48	140251	94	0.01249
48	141755	95	0.01249
48	143259	96	0.01249
48	144763	97	0.01249
48	146267	98	0.01249
48	147771	99	0.01249
48	149275	100	0.01249
49	1463	2	0
49	2967	3	0
49	4471	4	0
49	5975	5	0
49	7479	6	0
49	8983	7	0
49	10487	8	0
49	11991	9	0
49	13496	10	0
49	15419	11	0
49	16923	12	0
49	18427	13	0
49	19931	14	0
49	21435	15	0
49	22939	16	0
49	24443	17	0
49	25947	18	0
49	27451	19	0
49	28955	20	0
49	30459	21	0
49	31963	22	0
49	33467	23	0
49	34971	24	0
49	36475	25	0
49	37979	26	0
49	39483	27	0
49	40987	28	0
49	42491	29	0
49	43995	30	0
49	45499	31	0
49	47003	32	0
49	48507	33	0
49	50011	34	0
49	51515	35	0
49	53019	36	0
49	54523	37	0
49	56027	38	0
49	57531	39	0
49	59035	40	0
49	60539	41	0
49	62043	42	0
49	63547	43	0
49	65051	44	0
49	66555	45	0
49	68059	46	0
49	69563	47	0
49	71067	48	0
49	72571	49	0
49	74075	50	0
49	75579	51	0
49	77083	52	0
49	78587	53	0
49	80091	54	0
49	81595	55	0
49	83099	56	0
49	84603	57	0
49	86107	58	0
49	87611	59	0
49	89115	60	0
49	90619	61	0
49	92123	62	0
49	93627	63	0
49	95131	64	0
49	96635	65	0
49	98139	66	0
49	99643	67	0
49	101147	68	0
49	102651	69	0
49	104155	70	0
49	105659	71	0
49	107163	72	0
49	108667	73	0
49	110171	74	0
49	111675	75	0
49	113179	76	0
49	114683	77	0
49	116187	78	0
49	117691	79	0
49	119195	80	0
49	120699	81	0
49	122203	82	0
49	123707	83	0
49	125211	84	0
49	126715	85	0
49	128219	86	0
49	129723	87	0
49	131227	88	0
49	132731	89	0
49	134235	90	0
49	135739	91	0
49	137243	92	0
49	138747	93	0
49	140251	94	0
49	141755	95	0
49	143259	96	0
49	144763	97	0
49	146267	98	0
49	147771	99	0
49	149275	100	0
50	1464	2	2
50	2968	3	2
50	4472	4	2
50	5976	5	2
50	7480	6	2
50	8984	7	2
50	10488	8	2
50	11992	9	2
50	13497	10	2
50	15420	11	2
50	16924	12	2
50	18428	13	2
50	19932	14	2
50	21436	15	2
50	22940	16	2
50	24444	17	2
50	25948	18	2
50	27452	19	2
50	28956	20	2
50	30460	21	2
50	31964	22	2
50	33468	23	2
50	34972	24	2
50	36476	25	2
50	37980	26	2
50	39484	27	2
50	40988	28	2
50	42492	29	2
50	43996	30	2
50	45500	31	2
50	47004	32	2
50	48508	33	2
50	50012	34	2
50	51516	35	2
50	53020	36	2
50	54524	37	2
50	56028	38	2
50	57532	39	2
50	59036	40	2
50	60540	41	2
50	62044	42	2
50	63548	43	2
50	65052	44	2
50	66556	45	2
50	68060	46	2
50	69564	47	2
50	71068	48	2
50	72572	49	2
50	74076	50	2
50	75580	51	2
50	77084	52	2
50	78588	53	2
50	80092	54	2
50	81596	55	2
50	83100	56	2
50	84604	57	2
50	86108	58	2
50	87612	59	2
50	89116	60	2
50	90620	61	2
50	92124	62	2
50	93628	63	2
50	95132	64	2
50	96636	65	2
50	98140	66	2
50	99644	67	2
50	101148	68	2
50	102652	69	2
50	104156	70	2
50	105660	71	2
50	107164	72	2
50	108668	73	2
50	110172	74	2
50	111676	75	2
50	113180	76	2
50	114684	77	2
50	116188	78	2
50	117692	79	2
50	119196	80	2
50	120700	81	2
50	122204	82	2
50	123708	83	2
50	125212	84	2
50	126716	85	2
50	128220	86	2
50	129724	87	2
50	131228	88	2
50	132732	89	2
50	134236	90	2
50	135740	91	2
50	137244	92	2
50	138748	93	2
50	140252	94	2
50	141756	95	2
50	143260	96	2
50	144764	97	2
50	146268	98	2
50	147772	99	2
50	149276	100	2
51	1464	2	0.011241
51	2968	3	0.01249
51	4472	4	0.01249
51	5976	5	0.01249
51	7480	6	0.01249
51	8984	7	0.01249
51	10488	8	0.01249
51	11992	9	0.01249
51	13497	10	0.01249
51	15420	11	0.013418080048
51	16924	12	0.01249
51	18428	13	0.01249
51	19932	14	0.01249
51	21436	15	0.01249
51	22940	16	0.01249
51	24444	17	0.01249
51	25948	18	0.01249
51	27452	19	0.01249
51	28956	20	0.01249
51	30460	21	0.01249
51	31964	22	0.01249
51	33468	23	0.01249
51	34972	24	0.01249
51	36476	25	0.01249
51	37980	26	0.01249
51	39484	27	0.01249
51	40988	28	0.01249
51	42492	29	0.01249
51	43996	30	0.01249
51	45500	31	0.01249
51	47004	32	0.01249
51	48508	33	0.01249
51	50012	34	0.01249
51	51516	35	0.01249
51	53020	36	0.01249
51	54524	37	0.01249
51	56028	38	0.01249
51	57532	39	0.01249
51	59036	40	0.01249
51	60540	41	0.01249
51	62044	42	0.01249
51	63548	43	0.01249
51	65052	44	0.01249
51	66556	45	0.01249
51	68060	46	0.01249
51	69564	47	0.01249
51	71068	48	0.01249
51	72572	49	0.01249
51	74076	50	0.01249
51	75580	51	0.01249
51	77084	52	0.01249
51	78588	53	0.01249
51	80092	54	0.01249
51	81596	55	0.01249
51	83100	56	0.01249
51	84604	57	0.01249
51	86108	58	0.01249
51	87612	59	0.01249
51	89116	60	0.01249
51	90620	61	0.01249
51	92124	62	0.01249
51	93628	63	0.01249
51	95132	64	0.01249
51	96636	65	0.01249
51	98140	66	0.01249
51	99644	67	0.01249
51	101148	68	0.01249
51	102652	69	0.01249
51	104156	70	0.01249
51	105660	71	0.01249
51	107164	72	0.01249
51	108668	73	0.01249
51	110172	74	0.01249
51	111676	75	0.01249
51	113180	76	0.01249
51	114684	77	0.01249
51	116188	78	0.01249
51	117692	79	0.01249
51	119196	80	0.01249
51	120700	81	0.01249
51	122204	82	0.01249
51	123708	83	0.01249
51	125212	84	0.01249
51	126716	85	0.01249
51	128220	86	0.01249
51	129724	87	0.01249
51	131228	88	0.01249
51	132732	89	0.01249
51	134236	90	0.01249
51	135740	91	0.01249
51	137244	92	0.01249
51	138748	93	0.01249
51	140252	94	0.01249
51	141756	95	0.01249
51	143260	96	0.01249
51	144764	97	0.01249
51	146268	98	0.01249
51	147772	99	0.01249
51	149276	100	0.01249
52	1464	2	0
52	2968	3	0
52	4472	4	0
52	5976	5	0
52	7480	6	0
52	8984	7	0
52	10488	8	0
52	11992	9	0
52	13497	10	0
52	15420	11	0
52	16924	12	0
52	18428	13	0
52	19932	14	0
52	21436	15	0
52	22940	16	0
52	24444	17	0
52	25948	18	0
52	27452	19	0
52	28956	20	0
52	30460	21	0
52	31964	22	0
52	33468	23	0
52	34972	24	0
52	36476	25	0
52	37980	26	0
52	39484	27	0
52	40988	28	0
52	42492	29	0
52	43996	30	0
52	45500	31	0
52	47004	32	0
52	48508	33	0
52	50012	34	0
52	51516	35	0
52	53020	36	0
52	54524	37	0
52	56028	38	0
52	57532	39	0
52	59036	40	0
52	60540	41	0
52	62044	42	0
52	63548	43	0
52	65052	44	0
52	66556	45	0
52	68060	46	0
52	69564	47	0
52	71068	48	0
52	72572	49	0
52	74076	50	0
52	75580	51	0
52	77084	52	0
52	78588	53	0
52	80092	54	0
52	81596	55	0
52	83100	56	0
52	84604	57	0
52	86108	58	0
52	87612	59	0
52	89116	60	0
52	90620	61	0
52	92124	62	0
52	93628	63	0
52	95132	64	0
52	96636	65	0
52	98140	66	0
52	99644	67	0
52	101148	68	0
52	102652	69	0
52	104156	70	0
52	105660	71	0
52	107164	72	0
52	108668	73	0
52	110172	74	0
52	111676	75	0
52	113180	76	0
52	114684	77	0
52	116188	78	0
52	117692	79	0
52	119196	80	0
52	120700	81	0
52	122204	82	0
52	123708	83	0
52	125212	84	0
52	126716	85	0
52	128220	86	0
52	129724	87	0
52	131228	88	0
52	132732	89	0
52	134236	90	0
52	135740	91	0
52	137244	92	0
52	138748	93	0
52	140252	94	0
52	141756	95	0
52	143260	96	0
52	144764	97	0
52	146268	98	0
52	147772	99	0
52	149276	100	0
53	1465	2	3
53	2969	3	3
53	4473	4	3
53	5977	5	3
53	7481	6	3
53	8985	7	3
53	10489	8	3
53	11993	9	3
53	13498	10	3
53	15421	11	3
53	16925	12	3
53	18429	13	3
53	19933	14	3
53	21437	15	3
53	22941	16	3
53	24445	17	3
53	25949	18	3
53	27453	19	3
53	28957	20	3
53	30461	21	3
53	31965	22	3
53	33469	23	3
53	34973	24	3
53	36477	25	3
53	37981	26	3
53	39485	27	3
53	40989	28	3
53	42493	29	3
53	43997	30	3
53	45501	31	3
53	47005	32	3
53	48509	33	3
53	50013	34	3
53	51517	35	3
53	53021	36	3
53	54525	37	3
53	56029	38	3
53	57533	39	3
53	59037	40	3
53	60541	41	3
53	62045	42	3
53	63549	43	3
53	65053	44	3
53	66557	45	3
53	68061	46	3
53	69565	47	3
53	71069	48	3
53	72573	49	3
53	74077	50	3
53	75581	51	3
53	77085	52	3
53	78589	53	3
53	80093	54	3
53	81597	55	3
53	83101	56	3
53	84605	57	3
53	86109	58	3
53	87613	59	3
53	89117	60	3
53	90621	61	3
53	92125	62	3
53	93629	63	3
53	95133	64	3
53	96637	65	3
53	98141	66	3
53	99645	67	3
53	101149	68	3
53	102653	69	3
53	104157	70	3
53	105661	71	3
53	107165	72	3
53	108669	73	3
53	110173	74	3
53	111677	75	3
53	113181	76	3
53	114685	77	3
53	116189	78	3
53	117693	79	3
53	119197	80	3
53	120701	81	3
53	122205	82	3
53	123709	83	3
53	125213	84	3
53	126717	85	3
53	128221	86	3
53	129725	87	3
53	131229	88	3
53	132733	89	3
53	134237	90	3
53	135741	91	3
53	137245	92	3
53	138749	93	3
53	140253	94	3
53	141757	95	3
53	143261	96	3
53	144765	97	3
53	146269	98	3
53	147773	99	3
53	149277	100	3
54	1465	2	0.011241
54	2969	3	0.01249
54	4473	4	0.01249
54	5977	5	0.01249
54	7481	6	0.01249
54	8985	7	0.01249
54	10489	8	0.01249
54	11993	9	0.01249
54	13498	10	0.01249
54	15421	11	0.013418120074
54	16925	12	0.01249
54	18429	13	0.01249
54	19933	14	0.01249
54	21437	15	0.01249
54	22941	16	0.01249
54	24445	17	0.01249
54	25949	18	0.01249
54	27453	19	0.01249
54	28957	20	0.01249
54	30461	21	0.01249
54	31965	22	0.01249
54	33469	23	0.01249
54	34973	24	0.01249
54	36477	25	0.01249
54	37981	26	0.01249
54	39485	27	0.01249
54	40989	28	0.01249
54	42493	29	0.01249
54	43997	30	0.01249
54	45501	31	0.01249
54	47005	32	0.01249
54	48509	33	0.01249
54	50013	34	0.01249
54	51517	35	0.01249
54	53021	36	0.01249
54	54525	37	0.01249
54	56029	38	0.01249
54	57533	39	0.01249
54	59037	40	0.01249
54	60541	41	0.01249
54	62045	42	0.01249
54	63549	43	0.01249
54	65053	44	0.01249
54	66557	45	0.01249
54	68061	46	0.01249
54	69565	47	0.01249
54	71069	48	0.01249
54	72573	49	0.01249
54	74077	50	0.01249
54	75581	51	0.01249
54	77085	52	0.01249
54	78589	53	0.01249
54	80093	54	0.01249
54	81597	55	0.01249
54	83101	56	0.01249
54	84605	57	0.01249
54	86109	58	0.01249
54	87613	59	0.01249
54	89117	60	0.01249
54	90621	61	0.01249
54	92125	62	0.01249
54	93629	63	0.01249
54	95133	64	0.01249
54	96637	65	0.01249
54	98141	66	0.01249
54	99645	67	0.01249
54	101149	68	0.01249
54	102653	69	0.01249
54	104157	70	0.01249
54	105661	71	0.01249
54	107165	72	0.01249
54	108669	73	0.01249
54	110173	74	0.01249
54	111677	75	0.01249
54	113181	76	0.01249
54	114685	77	0.01249
54	116189	78	0.01249
54	117693	79	0.01249
54	119197	80	0.01249
54	120701	81	0.01249
54	122205	82	0.01249
54	123709	83	0.01249
54	125213	84	0.01249
54	126717	85	0.01249
54	128221	86	0.01249
54	129725	87	0.01249
54	131229	88	0.01249
54	132733	89	0.01249
54	134237	90	0.01249
54	135741	91	0.01249
54	137245	92	0.01249
54	138749	93	0.01249
54	140253	94	0.01249
54	141757	95	0.01249
54	143261	96	0.01249
54	144765	97	0.01249
54	146269	98	0.01249
54	147773	99	0.01249
54	149277	100	0.01249
55	1465	2	0
55	2969	3	0
55	4473	4	0
55	5977	5	0
55	7481	6	0
55	8985	7	0
55	10489	8	0
55	11993	9	0
55	13498	10	0
55	15421	11	0
55	16925	12	0
55	18429	13	0
55	19933	14	0
55	21437	15	0
55	22941	16	0
55	24445	17	0
55	25949	18	0
55	27453	19	0
55	28957	20	0
55	30461	21	0
55	31965	22	0
55	33469	23	0
55	34973	24	0
55	36477	25	0
55	37981	26	0
55	39485	27	0
55	40989	28	0
55	42493	29	0
55	43997	30	0
55	45501	31	0
55	47005	32	0
55	48509	33	0
55	50013	34	0
55	51517	35	0
55	53021	36	0
55	54525	37	0
55	56029	38	0
55	57533	39	0
55	59037	40	0
55	60541	41	0
55	62045	42	0
55	63549	43	0
55	65053	44	0
55	66557	45	0
55	68061	46	0
55	69565	47	0
55	71069	48	0
55	72573	49	0
55	74077	50	0
55	75581	51	0
55	77085	52	0
55	78589	53	0
55	80093	54	0
55	81597	55	0
55	83101	56	0
55	84605	57	0
55	86109	58	0
55	87613	59	0
55	89117	60	0
55	90621	61	0
55	92125	62	0
55	93629	63	0
55	95133	64	0
55	96637	65	0
55	98141	66	0
55	99645	67	0
55	101149	68	0
55	102653	69	0
55	104157	70	0
55	105661	71	0
55	107165	72	0
55	108669	73	0
55	110173	74	0
55	111677	75	0
55	113181	76	0
55	114685	77	0
55	116189	78	0
55	117693	79	0
55	119197	80	0
55	120701	81	0
55	122205	82	0
55	123709	83	0
55	125213	84	0
55	126717	85	0
55	128221	86	0
55	129725	87	0
55	131229	88	0
55	132733	89	0
55	134237	90	0
55	135741	91	0
55	137245	92	0
55	138749	93	0
55	140253	94	0
55	141757	95	0
55	143261	96	0
55	144765	97	0
55	146269	98	0
55	147773	99	0
55	149277	100	0

