version 3
run BreakRanksNoGui-576-20240710-17:44:13-276122
attr configname BreakRanksNoGui
attr datetime 20240710-17:44:13
attr datetimef 20240710-174413
attr experiment BreakRanksNoGui
attr inifile omnetpp.ini
attr iterationvars "$nCars=6, $platoonSize=4, $nLanes=1, $ploegH=0.5, $controller=1, $headway=0.1, $leaderHeadway=1.2, $leaderSpeed=130, $breakRanksSafetyDistance=3, $minSpeed=120, $maxSpeed=140, $beaconInterval=0.1, $priority=4, $packetSize=200, $sController=\"CACC\", $0=2, $1=0"
attr iterationvarsd nCars=6/platoonSize=4/nLanes=1/ploegH=0.5/controller=1/headway=0.1/leaderHeadway=1.2/leaderSpeed=130/breakRanksSafetyDistance=3/minSpeed=120/maxSpeed=140/beaconInterval=0.1/priority=4/packetSize=200/sController=CACC/2/0
attr iterationvarsf nCars=6,platoonSize=4,nLanes=1,ploegH=0.5,controller=1,headway=0.1,leaderHeadway=1.2,leaderSpeed=130,breakRanksSafetyDistance=3,minSpeed=120,maxSpeed=140,beaconInterval=0.1,priority=4,packetSize=200,sController=CACC,2,0-
attr measurement "$nCars=6, $platoonSize=4, $nLanes=1, $ploegH=0.5, $controller=1, $headway=0.1, $leaderHeadway=1.2, $leaderSpeed=130, $breakRanksSafetyDistance=3, $minSpeed=120, $maxSpeed=140, $beaconInterval=0.1, $priority=4, $packetSize=200, $sController=\"CACC\", $0=2, $1=0"
attr network Highway
attr processid 276122
attr repetition 6
attr replication #6
attr resultdir results
attr runnumber 576
attr seedset 6
itervar beaconInterval 0.1
itervar breakRanksSafetyDistance 3
itervar controller 1
itervar headway 0.1
itervar leaderHeadway 1.2
itervar leaderSpeed 130
itervar maxSpeed 140
itervar minSpeed 120
itervar nCars 6
itervar nLanes 1
itervar packetSize 200
itervar platoonSize 4
itervar ploegH 0.5
itervar priority 4
itervar sController "\"CACC\""
config image-path ../../../veins/images
config repeat 10
config extends BreakRanks
config *.manager.command "\"sumo\""
config *.manager.ignoreGuiCommands true
config output-vector-file "results/BreakRanks_1_0.1_130_3_4 /result_6.vec"
config output-scalar-file "results/BreakRanks_1_0.1_130_3_4 /result_6.sca"
config extends Platooning
config *.node[*].scenario_type "\"BreakRanksScenario\""
config *.manager.command "\"sumo-gui\""
config *.node[*].scenario_type "\"SimpleScenario\""
config cmdenv-express-mode true
config cmdenv-autoflush true
config cmdenv-status-frequency 15s
config num-rngs 6
config network Highway
config debug-on-errors true
config print-undisposed true
config *.playgroundSizeX 65000m
config *.playgroundSizeY 25000m
config *.playgroundSizeZ 50m
config sim-time-limit "100 s"
config *.annotations.draw false
config *.obstacles.debug false
config *.world.useTorus false
config *.world.use2D false
config *.manager.updateInterval 0.01s
config *.manager.host "\"localhost\""
config *.manager.moduleType "\"org.car2x.plexe.PlatoonCar\""
config *.manager.moduleName "\"node\""
config *.manager.moduleDisplayString "\"\""
config *.manager.autoShutdown true
config *.manager.margin 25
config *.connectionManager.sendDirect true
config *.connectionManager.maxInterfDist 2600m
config *.connectionManager.drawMaxIntfDist false
config *.**.nic.mac1609_4.useServiceChannel false
config *.**.nic.mac1609_4.txPower 100mW
config *.**.nic.mac1609_4.bitrate 6Mbps
config *.**.nic.mac1609_4.useAcks true
config *.**.nic.mac1609_4.ackErrorRate 0.0
config *.**.nic.mac1609_4.frameErrorRate 0.0
config *.**.nic.phy80211p.minPowerLevel -94dBm
config *.**.nic.phy80211p.maxTXPower 100mW
config *.**.nic.phy80211p.useNoiseFloor true
config *.**.nic.phy80211p.noiseFloor -95dBm
config *.**.nic.phy80211p.decider "xmldoc(\"config.xml\")"
config *.**.nic.phy80211p.analogueModels "xmldoc(\"config.xml\")"
config *.**.nic.phy80211p.usePropagationDelay true
config *.node[*].mobility.x 0
config *.node[*].mobility.y 0
config *.node[*].mobility.z 1.895
config seed-set 6
config **.seed 6
config *.node[*].prot.rng-0 2
config *.node[*].appl.rng-0 3
config *.node[*].scenario.rng-0 4
config **.traffic.rng-0 5
config *.manager.configFile "\"./sumocfg/freeway.sumo.cfg\""
config *.manager.launchConfig "xmldoc(\"./sumocfg/freeway.launchd.xml\")"
config **.numberOfCars 6
config **.numberOfCarsPerPlatoon 4
config **.numberOfLanes 1
config *.node[*].helper_type "\"PositionHelper\""
config *.node[*].scenario.caccC1 0.5
config *.node[*].scenario.caccXi 1
config *.node[*].scenario.caccOmegaN "0.2 Hz"
config *.node[*].scenario.caccSpacing "2 m"
config *.node[*].scenario.engineTau "0.5 s"
config *.node[*].scenario.ploegH 0.5s
config *.node[*].scenario.ploegKp 0.2
config *.node[*].scenario.ploegKd 0.7
config *.node[*].scenario.useRealisticEngine false
config *.node[*].scenario.useControllerAcceleration true
config *.node[*].scenario.nLanes 1
config **.numericController 1
config **.headway 0.1s
config *.node[*].scenario.accHeadway 0.1s
config *.node[*].scenario.leaderHeadway 1.2s
config *.node[*].scenario.leaderSpeed 130kmph
config *.node[*].appl_type "\"SimplePlatooningApp\""
config *.node[*].appl.*.scalar-recording true
config *.node[*].appl.*.vector-recording true
config *.node[0].appl.breakRanksSafetyDistance 3m
config *.node[*].appl.minSpeed 120kmph
config *.node[*].appl.maxSpeed 140kmph
config *.node[*].protocol_type "\"SimplePlatooningBeaconing\""
config *.node[*].prot.*.scalar-recording true
config *.node[*].prot.*.vector-recording true
config *.node[*].prot.beaconingInterval 0.1s
config *.node[*].prot.priority 4
config *.node[*].prot.packetSize 200
config **.traffic_type "\"PlatoonsTrafficManager\""
config **.traffic.platoonInsertTime "1 s"
config **.traffic.platoonInsertSpeed 130kmph
config **.traffic.nCars 6
config **.traffic.platoonSize 4
config **.traffic.nLanes 1
config **.traffic.platooningVType "\"vtypeauto\""
config **.traffic.controller "\"CACC\""
config **.traffic.platoonInsertDistance 2m
config **.traffic.platoonInsertHeadway 0s
config **.traffic.platoonLeaderHeadway 1.2s
config **.scalar-recording false
config **.vector-recording false

vector 0 Highway.node[0].appl distance ETV
vector 1 Highway.node[0].appl relativeSpeed ETV
vector 2 Highway.node[0].appl nodeId ETV
vector 3 Highway.node[0].appl acceleration ETV
vector 4 Highway.node[0].appl controllerAcceleration ETV
vector 5 Highway.node[0].appl speed ETV
vector 6 Highway.node[0].appl posx ETV
vector 7 Highway.node[0].appl posy ETV
vector 8 Highway.node[1].appl distance ETV
vector 9 Highway.node[1].appl relativeSpeed ETV
vector 10 Highway.node[1].appl nodeId ETV
vector 11 Highway.node[1].appl acceleration ETV
vector 12 Highway.node[1].appl controllerAcceleration ETV
vector 13 Highway.node[1].appl speed ETV
vector 14 Highway.node[1].appl posx ETV
vector 15 Highway.node[1].appl posy ETV
vector 16 Highway.node[2].appl distance ETV
vector 17 Highway.node[2].appl relativeSpeed ETV
vector 18 Highway.node[2].appl nodeId ETV
vector 19 Highway.node[2].appl acceleration ETV
vector 20 Highway.node[2].appl controllerAcceleration ETV
vector 21 Highway.node[2].appl speed ETV
vector 22 Highway.node[2].appl posx ETV
vector 23 Highway.node[2].appl posy ETV
vector 24 Highway.node[3].appl distance ETV
vector 25 Highway.node[3].appl relativeSpeed ETV
vector 26 Highway.node[3].appl nodeId ETV
vector 27 Highway.node[3].appl acceleration ETV
vector 28 Highway.node[3].appl controllerAcceleration ETV
vector 29 Highway.node[3].appl speed ETV
vector 30 Highway.node[3].appl posx ETV
vector 31 Highway.node[3].appl posy ETV
vector 32 Highway.node[4].appl distance ETV
vector 33 Highway.node[4].appl relativeSpeed ETV
vector 34 Highway.node[4].appl nodeId ETV
vector 35 Highway.node[4].appl acceleration ETV
vector 36 Highway.node[4].appl controllerAcceleration ETV
vector 37 Highway.node[4].appl speed ETV
vector 38 Highway.node[4].appl posx ETV
vector 39 Highway.node[4].appl posy ETV
vector 40 Highway.node[5].appl distance ETV
vector 41 Highway.node[5].appl relativeSpeed ETV
vector 42 Highway.node[5].appl nodeId ETV
vector 43 Highway.node[5].appl acceleration ETV
vector 44 Highway.node[5].appl controllerAcceleration ETV
vector 45 Highway.node[5].appl speed ETV
vector 46 Highway.node[5].appl posx ETV
vector 47 Highway.node[5].appl posy ETV
vector 48 Highway.node[1].prot leaderDelay ETV
vector 49 Highway.node[1].prot leaderDelayId ETV
vector 50 Highway.node[1].prot frontDelay ETV
vector 51 Highway.node[1].prot frontDelayId ETV
vector 52 Highway.node[2].prot leaderDelay ETV
vector 53 Highway.node[2].prot leaderDelayId ETV
vector 54 Highway.node[3].prot leaderDelay ETV
vector 55 Highway.node[3].prot leaderDelayId ETV
vector 56 Highway.node[3].prot frontDelay ETV
vector 57 Highway.node[3].prot frontDelayId ETV
vector 58 Highway.node[2].prot frontDelay ETV
vector 59 Highway.node[2].prot frontDelayId ETV
vector 60 Highway.node[5].prot leaderDelay ETV
vector 61 Highway.node[5].prot leaderDelayId ETV
vector 62 Highway.node[5].prot frontDelay ETV
vector 63 Highway.node[5].prot frontDelayId ETV
vector 64 Highway.node[0].prot nodeId ETV
vector 65 Highway.node[0].prot busyTime ETV
vector 66 Highway.node[0].prot collisions ETV
vector 67 Highway.node[1].prot nodeId ETV
vector 68 Highway.node[1].prot busyTime ETV
vector 69 Highway.node[1].prot collisions ETV
vector 70 Highway.node[2].prot nodeId ETV
vector 71 Highway.node[2].prot busyTime ETV
vector 72 Highway.node[2].prot collisions ETV
vector 73 Highway.node[3].prot nodeId ETV
vector 74 Highway.node[3].prot busyTime ETV
vector 75 Highway.node[3].prot collisions ETV
vector 76 Highway.node[4].prot nodeId ETV
vector 77 Highway.node[4].prot busyTime ETV
vector 78 Highway.node[4].prot collisions ETV
vector 79 Highway.node[5].prot nodeId ETV
vector 80 Highway.node[5].prot busyTime ETV
vector 81 Highway.node[5].prot collisions ETV
0	113	1.11	9323.17
0	301	1.21	9323.17
0	489	1.31	9323.17
0	677	1.41	9323.17
0	865	1.51	9323.17
0	1053	1.61	9323.17
0	1241	1.71	9323.17
0	1429	1.81	9323.17
0	1617	1.91	9323.17
0	1811	2.01	9323.17
0	1999	2.11	9323.17
0	2187	2.21	9323.17
0	2375	2.31	-1
0	2563	2.41	-1
0	2751	2.51	-1
0	2939	2.61	-1
0	3127	2.71	-1
0	3315	2.81	-1
0	3503	2.91	-1
0	3697	3.01	-1
0	3885	3.11	-1
0	4073	3.21	-1
0	4261	3.31	-1
0	4449	3.41	-1
0	4637	3.51	-1
0	4825	3.61	-1
0	5013	3.71	-1
0	5201	3.81	-1
0	5389	3.91	-1
0	5583	4.01	-1
0	5771	4.11	-1
0	5959	4.21	-1
0	6147	4.31	-1
0	6335	4.41	-1
0	6523	4.51	-1
0	6711	4.61	-1
0	6899	4.71	-1
0	7087	4.81	-1
0	7275	4.91	-1
0	7469	5.01	-1
0	7657	5.11	-1
0	7845	5.21	-1
0	8033	5.31	-1
0	8221	5.41	-1
0	8409	5.51	-1
0	8597	5.61	-1
0	8785	5.71	-1
0	8973	5.81	-1
0	9161	5.91	-1
0	9355	6.01	-1
0	9543	6.11	-1
0	9731	6.21	-1
0	9919	6.31	-1
0	10107	6.41	-1
0	10295	6.51	-1
0	10483	6.61	-1
0	10671	6.71	-1
0	10859	6.81	-1
0	11047	6.91	-1
0	11241	7.01	-1
0	11429	7.11	-1
0	11617	7.21	-1
0	11805	7.31	-1
0	11993	7.41	-1
0	12181	7.51	-1
0	12369	7.61	-1
0	12557	7.71	-1
0	12745	7.81	-1
0	12933	7.91	-1
0	13127	8.01	-1
0	13315	8.11	-1
0	13503	8.21	-1
0	13691	8.31	-1
0	13879	8.41	-1
0	14067	8.51	-1
0	14255	8.61	-1
0	14443	8.71	-1
0	14631	8.81	-1
0	14819	8.91	-1
0	15013	9.01	-1
0	15201	9.11	-1
0	15389	9.21	-1
0	15577	9.31	-1
0	15765	9.41	-1
0	15953	9.51	-1
0	16141	9.61	-1
0	16329	9.71	-1
0	16517	9.81	-1
0	16705	9.91	-1
0	16957	10.01	-1
0	17149	10.11	-1
0	17341	10.21	-1
0	17533	10.31	-1
0	17725	10.41	-1
0	17917	10.51	-1
0	18109	10.61	-1
0	18301	10.71	-1
0	18493	10.81	-1
0	18685	10.91	-1
0	18883	11.01	-1
0	19075	11.11	-1
0	19267	11.21	-1
0	19459	11.31	-1
0	19651	11.41	-1
0	19843	11.51	-1
0	20035	11.61	-1
0	20227	11.71	-1
0	20419	11.81	-1
0	20611	11.91	-1
0	20809	12.01	-1
0	21001	12.11	-1
0	21193	12.21	-1
0	21385	12.31	-1
0	21577	12.41	-1
0	21769	12.51	-1
0	21961	12.61	-1
0	22153	12.71	-1
0	22345	12.81	-1
0	22537	12.91	-1
0	22735	13.01	-1
0	22927	13.11	-1
0	23119	13.21	-1
0	23311	13.31	-1
0	23503	13.41	-1
0	23695	13.51	-1
0	23887	13.61	-1
0	24079	13.71	-1
0	24271	13.81	-1
0	24463	13.91	-1
0	24661	14.01	-1
0	24853	14.11	-1
0	25045	14.21	-1
0	25237	14.31	-1
0	25429	14.41	-1
0	25621	14.51	-1
0	25813	14.61	-1
0	26005	14.71	-1
0	26197	14.81	-1
0	26389	14.91	-1
0	26587	15.01	-1
0	26779	15.11	-1
0	26971	15.21	-1
0	27163	15.31	-1
0	27355	15.41	-1
0	27547	15.51	-1
0	27739	15.61	-1
0	27931	15.71	-1
0	28123	15.81	-1
0	28315	15.91	-1
0	28513	16.01	-1
0	28705	16.11	-1
0	28897	16.21	-1
0	29089	16.31	-1
0	29281	16.41	-1
0	29473	16.51	-1
0	29665	16.61	-1
0	29857	16.71	-1
0	30049	16.81	-1
0	30241	16.91	-1
0	30439	17.01	-1
0	30631	17.11	-1
0	30823	17.21	-1
0	31015	17.31	-1
0	31207	17.41	-1
0	31399	17.51	-1
0	31591	17.61	-1
0	31783	17.71	-1
0	31975	17.81	-1
0	32167	17.91	-1
0	32365	18.01	-1
0	32557	18.11	-1
0	32749	18.21	-1
0	32941	18.31	-1
0	33133	18.41	-1
0	33325	18.51	-1
0	33517	18.61	-1
0	33709	18.71	-1
0	33901	18.81	-1
0	34093	18.91	-1
0	34291	19.01	-1
0	34483	19.11	-1
0	34675	19.21	-1
0	34867	19.31	-1
0	35059	19.41	-1
0	35251	19.51	-1
0	35443	19.61	-1
0	35635	19.71	-1
0	35827	19.81	-1
0	36019	19.91	-1
0	36217	20.01	-1
0	36409	20.11	-1
0	36601	20.21	-1
0	36793	20.31	-1
0	36985	20.41	-1
0	37177	20.51	-1
0	37369	20.61	-1
0	37561	20.71	-1
0	37753	20.81	-1
0	37945	20.91	-1
0	38143	21.01	-1
0	38335	21.11	-1
0	38527	21.21	-1
0	38719	21.31	-1
0	38911	21.41	-1
0	39103	21.51	-1
0	39295	21.61	-1
0	39487	21.71	-1
0	39679	21.81	-1
0	39871	21.91	-1
0	40069	22.01	-1
0	40261	22.11	-1
0	40453	22.21	-1
0	40645	22.31	-1
0	40837	22.41	-1
0	41029	22.51	-1
0	41221	22.61	-1
0	41413	22.71	-1
0	41605	22.81	-1
0	41797	22.91	-1
0	41995	23.01	-1
0	42187	23.11	-1
0	42379	23.21	-1
0	42571	23.31	-1
0	42763	23.41	-1
0	42955	23.51	-1
0	43147	23.61	-1
0	43339	23.71	-1
0	43531	23.81	-1
0	43723	23.91	-1
0	43921	24.01	-1
0	44113	24.11	-1
0	44305	24.21	-1
0	44497	24.31	-1
0	44689	24.41	-1
0	44881	24.51	-1
0	45073	24.61	-1
0	45265	24.71	-1
0	45457	24.81	-1
0	45649	24.91	-1
0	45847	25.01	-1
0	46039	25.11	-1
0	46231	25.21	-1
0	46423	25.31	-1
0	46615	25.41	-1
0	46807	25.51	-1
0	46999	25.61	-1
0	47191	25.71	-1
0	47383	25.81	-1
0	47575	25.91	-1
0	47773	26.01	-1
0	47965	26.11	-1
0	48157	26.21	-1
0	48349	26.31	-1
0	48541	26.41	-1
0	48733	26.51	-1
0	48925	26.61	-1
0	49117	26.71	-1
0	49309	26.81	-1
0	49501	26.91	-1
0	49699	27.01	-1
0	49891	27.11	-1
0	50083	27.21	-1
0	50275	27.31	-1
0	50467	27.41	-1
0	50659	27.51	-1
0	50851	27.61	-1
0	51043	27.71	-1
0	51235	27.81	-1
0	51427	27.91	-1
0	51625	28.01	-1
0	51817	28.11	-1
0	52009	28.21	-1
0	52201	28.31	-1
0	52393	28.41	-1
0	52585	28.51	-1
0	52777	28.61	-1
0	52969	28.71	-1
0	53161	28.81	-1
0	53353	28.91	-1
0	53551	29.01	-1
0	53743	29.11	-1
0	53935	29.21	-1
0	54180	29.31	-1
0	54371	29.41	-1
0	54562	29.51	-1
0	54753	29.61	-1
0	54944	29.71	-1
0	55135	29.81	-1
0	55326	29.91	-1
0	55523	30.01	-1
0	55714	30.11	-1
0	55905	30.21	-1
0	56096	30.31	-1
0	56287	30.41	-1
0	56478	30.51	-1
0	56669	30.61	-1
0	56860	30.71	-1
0	57051	30.81	-1
0	57242	30.91	-1
0	57439	31.01	-1
0	57630	31.11	-1
0	57821	31.21	-1
0	58012	31.31	-1
0	58203	31.41	-1
0	58394	31.51	-1
0	58585	31.61	-1
0	58776	31.71	-1
0	58967	31.81	-1
0	59158	31.91	-1
0	59355	32.01	-1
0	59546	32.11	-1
0	59737	32.21	-1
0	59928	32.31	-1
0	60119	32.41	-1
0	60310	32.51	-1
0	60501	32.61	-1
0	60692	32.71	-1
0	60883	32.81	-1
0	61074	32.91	-1
0	61271	33.01	-1
0	61462	33.11	-1
0	61653	33.21	-1
0	61844	33.31	-1
0	62035	33.41	-1
0	62279	33.51	-1
0	62469	33.61	-1
0	62659	33.71	-1
0	62849	33.81	-1
0	63039	33.91	-1
0	63235	34.01	-1
0	63425	34.11	-1
0	63615	34.21	-1
0	63805	34.31	-1
0	63995	34.41	-1
0	64185	34.51	-1
0	64375	34.61	-1
0	64565	34.71	-1
0	64755	34.81	-1
0	64945	34.91	-1
0	65141	35.01	-1
0	65331	35.11	-1
0	65521	35.21	-1
0	65711	35.31	-1
0	65901	35.41	-1
0	66091	35.51	-1
0	66281	35.61	-1
0	66471	35.71	-1
0	66661	35.81	-1
0	66851	35.91	-1
0	67047	36.01	-1
0	67237	36.11	-1
0	67427	36.21	-1
0	67617	36.31	-1
0	67807	36.41	-1
0	67997	36.51	-1
0	68187	36.61	-1
0	68377	36.71	-1
0	68567	36.81	-1
0	68757	36.91	-1
0	68953	37.01	-1
0	69143	37.11	-1
0	69333	37.21	-1
0	69523	37.31	-1
0	69713	37.41	-1
0	70115	37.51	-1
0	70304	37.61	-1
0	70493	37.71	-1
0	70682	37.81	-1
0	70871	37.91	-1
0	71066	38.01	-1
0	71255	38.11	-1
0	71444	38.21	-1
0	71633	38.31	-1
0	71822	38.41	-1
0	72011	38.51	-1
0	72200	38.61	-1
0	72389	38.71	-1
0	72578	38.81	-1
0	72767	38.91	-1
0	72962	39.01	-1
0	73151	39.11	-1
0	73340	39.21	-1
0	73529	39.31	-1
0	73718	39.41	-1
0	73907	39.51	-1
0	74096	39.61	-1
0	74285	39.71	-1
0	74474	39.81	-1
0	74663	39.91	-1
0	74858	40.01	-1
0	75047	40.11	-1
0	75236	40.21	-1
0	75425	40.31	-1
0	75614	40.41	-1
0	75803	40.51	-1
0	75992	40.61	-1
0	76181	40.71	-1
0	76370	40.81	-1
0	76559	40.91	-1
0	76754	41.01	-1
0	76943	41.11	-1
0	77132	41.21	-1
0	77321	41.31	-1
0	77510	41.41	-1
0	77699	41.51	-1
0	77888	41.61	-1
0	78077	41.71	-1
0	78266	41.81	-1
0	78455	41.91	-1
0	78650	42.01	-1
0	78839	42.11	-1
0	79028	42.21	-1
0	79217	42.31	-1
0	79406	42.41	-1
0	79595	42.51	-1
0	79784	42.61	-1
0	79973	42.71	-1
0	80162	42.81	-1
0	80351	42.91	-1
0	80546	43.01	-1
0	80735	43.11	-1
0	80924	43.21	-1
0	81113	43.31	-1
0	81302	43.41	-1
0	81491	43.51	-1
0	81680	43.61	-1
0	81869	43.71	-1
0	82058	43.81	-1
0	82247	43.91	-1
0	82442	44.01	-1
0	82631	44.11	-1
0	82820	44.21	-1
0	83009	44.31	-1
0	83198	44.41	-1
0	83387	44.51	-1
0	83576	44.61	-1
0	83765	44.71	-1
0	83954	44.81	-1
0	84143	44.91	-1
0	84338	45.01	-1
0	84527	45.11	-1
0	84716	45.21	-1
0	84905	45.31	-1
0	85094	45.41	-1
0	85283	45.51	-1
0	85472	45.61	-1
0	85661	45.71	-1
0	85916	45.81	-1
0	86104	45.91	-1
0	86298	46.01	-1
0	86486	46.11	-1
0	86674	46.21	-1
0	86862	46.31	-1
0	87050	46.41	-1
0	87238	46.51	-1
0	87426	46.61	-1
0	87614	46.71	-1
0	87802	46.81	-1
0	87990	46.91	-1
0	88184	47.01	-1
0	88372	47.11	-1
0	88560	47.21	-1
0	88748	47.31	-1
0	88936	47.41	-1
0	89124	47.51	-1
0	89312	47.61	-1
0	89500	47.71	-1
0	89688	47.81	-1
0	89876	47.91	-1
0	90070	48.01	-1
0	90258	48.11	-1
0	90446	48.21	-1
0	90634	48.31	-1
0	90822	48.41	-1
0	91010	48.51	-1
0	91198	48.61	-1
0	91386	48.71	-1
0	91574	48.81	-1
0	91762	48.91	-1
0	91956	49.01	-1
0	92144	49.11	-1
0	92332	49.21	-1
0	92520	49.31	-1
0	92708	49.41	-1
0	92896	49.51	-1
0	93084	49.61	-1
0	93272	49.71	-1
0	93460	49.81	-1
0	93648	49.91	-1
0	93842	50.01	-1
0	94030	50.11	-1
0	94218	50.21	-1
0	94406	50.31	-1
0	94594	50.41	-1
0	94782	50.51	-1
0	94970	50.61	-1
0	95158	50.71	-1
0	95346	50.81	-1
0	95534	50.91	-1
0	95728	51.01	-1
0	95916	51.11	-1
0	96104	51.21	-1
0	96292	51.31	-1
0	96480	51.41	-1
0	96668	51.51	-1
0	96856	51.61	-1
0	97044	51.71	-1
0	97232	51.81	-1
0	97420	51.91	-1
0	97614	52.01	-1
0	97802	52.11	-1
0	97990	52.21	-1
0	98178	52.31	-1
0	98366	52.41	-1
0	98554	52.51	-1
0	98742	52.61	-1
0	98930	52.71	-1
0	99118	52.81	-1
0	99306	52.91	-1
0	99500	53.01	-1
0	99688	53.11	-1
0	99876	53.21	-1
0	100064	53.31	-1
0	100252	53.41	-1
0	100440	53.51	-1
0	100628	53.61	-1
0	100816	53.71	-1
0	101004	53.81	-1
0	101192	53.91	-1
0	101386	54.01	-1
0	101574	54.11	-1
0	101762	54.21	-1
0	101950	54.31	-1
0	102138	54.41	-1
0	102326	54.51	-1
0	102514	54.61	-1
0	102702	54.71	-1
0	102890	54.81	-1
0	103078	54.91	-1
0	103272	55.01	-1
0	103460	55.11	-1
0	103648	55.21	-1
0	103836	55.31	-1
0	104024	55.41	-1
0	104212	55.51	-1
0	104400	55.61	-1
0	104588	55.71	-1
0	104776	55.81	-1
0	104964	55.91	-1
0	105158	56.01	-1
0	105346	56.11	-1
0	105534	56.21	-1
0	105722	56.31	-1
0	105910	56.41	-1
0	106098	56.51	-1
0	106286	56.61	-1
0	106474	56.71	-1
0	106662	56.81	-1
0	106850	56.91	-1
0	107044	57.01	-1
0	107232	57.11	-1
0	107420	57.21	-1
0	107608	57.31	-1
0	107796	57.41	-1
0	107984	57.51	-1
0	108172	57.61	-1
0	108360	57.71	-1
0	108548	57.81	-1
0	108736	57.91	-1
0	108930	58.01	-1
0	109118	58.11	-1
0	109306	58.21	-1
0	109494	58.31	-1
0	109682	58.41	-1
0	109870	58.51	-1
0	110058	58.61	-1
0	110246	58.71	-1
0	110434	58.81	-1
0	110622	58.91	-1
0	110816	59.01	-1
0	111004	59.11	-1
0	111192	59.21	-1
0	111380	59.31	-1
0	111568	59.41	-1
0	111756	59.51	-1
0	111944	59.61	-1
0	112132	59.71	-1
0	112320	59.81	-1
0	112508	59.91	-1
0	112702	60.01	-1
0	112890	60.11	-1
0	113078	60.21	-1
0	113266	60.31	-1
0	113454	60.41	-1
0	113642	60.51	-1
0	113830	60.61	-1
0	114018	60.71	-1
0	114206	60.81	-1
0	114394	60.91	-1
0	114588	61.01	-1
0	114776	61.11	-1
0	114964	61.21	-1
0	115152	61.31	-1
0	115340	61.41	-1
0	115528	61.51	-1
0	115716	61.61	-1
0	115904	61.71	-1
0	116092	61.81	-1
0	116280	61.91	-1
0	116474	62.01	-1
0	116662	62.11	-1
0	116850	62.21	-1
0	117038	62.31	-1
0	117226	62.41	-1
0	117414	62.51	-1
0	117602	62.61	-1
0	117790	62.71	-1
0	117978	62.81	-1
0	118166	62.91	-1
0	118360	63.01	-1
0	118548	63.11	-1
0	118736	63.21	-1
0	118924	63.31	-1
0	119112	63.41	-1
0	119300	63.51	-1
0	119488	63.61	-1
0	119676	63.71	-1
0	119864	63.81	-1
0	120052	63.91	-1
0	120246	64.01	-1
0	120434	64.11	-1
0	120622	64.21	-1
0	120810	64.31	-1
0	120998	64.41	-1
0	121186	64.51	-1
0	121374	64.61	-1
0	121562	64.71	-1
0	121750	64.81	-1
0	121938	64.91	-1
0	122132	65.01	-1
0	122320	65.11	-1
0	122508	65.21	-1
0	122696	65.31	-1
0	122884	65.41	-1
0	123072	65.51	-1
0	123260	65.61	-1
0	123448	65.71	-1
0	123636	65.81	-1
0	123824	65.91	-1
0	124018	66.01	-1
0	124206	66.11	-1
0	124394	66.21	-1
0	124582	66.31	-1
0	124770	66.41	-1
0	124958	66.51	-1
0	125146	66.61	-1
0	125334	66.71	-1
0	125522	66.81	-1
0	125710	66.91	-1
0	125904	67.01	-1
0	126092	67.11	-1
0	126280	67.21	-1
0	126468	67.31	-1
0	126656	67.41	-1
0	126844	67.51	-1
0	127032	67.61	-1
0	127220	67.71	-1
0	127408	67.81	-1
0	127596	67.91	-1
0	127790	68.01	-1
0	127978	68.11	-1
0	128166	68.21	-1
0	128354	68.31	-1
0	128542	68.41	-1
0	128730	68.51	-1
0	128918	68.61	-1
0	129106	68.71	-1
0	129294	68.81	-1
0	129482	68.91	-1
0	129676	69.01	-1
0	129864	69.11	-1
0	130052	69.21	-1
0	130240	69.31	-1
0	130428	69.41	-1
0	130616	69.51	-1
0	130804	69.61	-1
0	130992	69.71	-1
0	131180	69.81	-1
0	131368	69.91	-1
0	131562	70.01	-1
0	131750	70.11	-1
0	131938	70.21	-1
0	132126	70.31	-1
0	132314	70.41	-1
0	132502	70.51	-1
0	132690	70.61	-1
0	132878	70.71	-1
0	133066	70.81	-1
0	133254	70.91	-1
0	133448	71.01	-1
0	133636	71.11	-1
0	133824	71.21	-1
0	134012	71.31	-1
0	134200	71.41	-1
0	134388	71.51	-1
0	134576	71.61	-1
0	134764	71.71	-1
0	134952	71.81	-1
0	135140	71.91	-1
0	135334	72.01	-1
0	135522	72.11	-1
0	135710	72.21	-1
0	135898	72.31	-1
0	136086	72.41	-1
0	136274	72.51	-1
0	136462	72.61	-1
0	136650	72.71	-1
0	136838	72.81	-1
0	137026	72.91	-1
0	137220	73.01	-1
0	137408	73.11	-1
0	137596	73.21	-1
0	137784	73.31	-1
0	137972	73.41	-1
0	138160	73.51	-1
0	138348	73.61	-1
0	138536	73.71	-1
0	138724	73.81	-1
0	138912	73.91	-1
0	139106	74.01	-1
0	139294	74.11	-1
0	139482	74.21	-1
0	139670	74.31	-1
0	139858	74.41	-1
0	140046	74.51	-1
0	140234	74.61	-1
0	140422	74.71	-1
0	140610	74.81	-1
0	140798	74.91	-1
0	140992	75.01	-1
0	141180	75.11	-1
0	141368	75.21	-1
0	141556	75.31	-1
0	141744	75.41	-1
0	141932	75.51	-1
0	142120	75.61	-1
0	142308	75.71	-1
0	142496	75.81	-1
0	142684	75.91	-1
0	142878	76.01	-1
0	143066	76.11	-1
0	143254	76.21	-1
0	143442	76.31	-1
0	143630	76.41	-1
0	143818	76.51	-1
0	144006	76.61	-1
0	144194	76.71	-1
0	144382	76.81	-1
0	144570	76.91	-1
0	144764	77.01	-1
0	144952	77.11	-1
0	145140	77.21	-1
0	145328	77.31	-1
0	145516	77.41	-1
0	145704	77.51	-1
0	145892	77.61	-1
0	146080	77.71	-1
0	146268	77.81	-1
0	146456	77.91	-1
0	146650	78.01	-1
0	146838	78.11	-1
0	147026	78.21	-1
0	147214	78.31	-1
0	147402	78.41	-1
0	147590	78.51	-1
0	147778	78.61	-1
0	147966	78.71	-1
0	148154	78.81	-1
0	148342	78.91	-1
0	148536	79.01	-1
0	148724	79.11	-1
0	148912	79.21	-1
0	149100	79.31	-1
0	149288	79.41	-1
0	149476	79.51	-1
0	149664	79.61	-1
0	149852	79.71	-1
0	150040	79.81	-1
0	150228	79.91	-1
0	150422	80.01	-1
0	150610	80.11	-1
0	150798	80.21	-1
0	150986	80.31	-1
0	151174	80.41	-1
0	151362	80.51	-1
0	151550	80.61	-1
0	151738	80.71	-1
0	151926	80.81	-1
0	152114	80.91	-1
0	152308	81.01	-1
0	152496	81.11	-1
0	152684	81.21	-1
0	152872	81.31	-1
0	153060	81.41	-1
0	153248	81.51	-1
0	153436	81.61	-1
0	153624	81.71	-1
0	153812	81.81	-1
0	154000	81.91	-1
0	154194	82.01	-1
0	154382	82.11	-1
0	154570	82.21	-1
0	154758	82.31	-1
0	154946	82.41	-1
0	155134	82.51	-1
0	155322	82.61	-1
0	155510	82.71	-1
0	155698	82.81	-1
0	155886	82.91	-1
0	156080	83.01	-1
0	156268	83.11	-1
0	156456	83.21	-1
0	156644	83.31	-1
0	156832	83.41	-1
0	157020	83.51	-1
0	157208	83.61	-1
0	157396	83.71	-1
0	157584	83.81	-1
0	157772	83.91	-1
0	157966	84.01	-1
0	158154	84.11	-1
0	158342	84.21	-1
0	158530	84.31	-1
0	158718	84.41	-1
0	158906	84.51	-1
0	159094	84.61	-1
0	159282	84.71	-1
0	159470	84.81	-1
0	159658	84.91	-1
0	159852	85.01	-1
0	160040	85.11	28.3639
0	160228	85.21	28.5528
0	160416	85.31	28.7417
0	160604	85.41	28.9306
0	160792	85.51	29.1195
0	160980	85.61	29.3084
0	161168	85.71	29.4973
0	161356	85.81	29.6861
0	161544	85.91	29.875
0	161738	86.01	30.0639
0	161926	86.11	30.2528
0	162114	86.21	30.4417
0	162302	86.31	30.6306
0	162490	86.41	30.8195
0	162678	86.51	31.0084
0	162866	86.61	31.1973
0	163054	86.71	31.3862
0	163242	86.81	31.575
0	163430	86.91	31.7639
0	163624	87.01	31.9528
0	163812	87.11	32.1417
0	164000	87.21	32.3306
0	164188	87.31	32.5195
0	164376	87.41	32.7084
0	164564	87.51	32.8973
0	164752	87.61	33.0862
0	164940	87.71	33.2751
0	165128	87.81	33.4639
0	165316	87.91	33.6528
0	165510	88.01	33.8417
0	165698	88.11	34.0306
0	165886	88.21	34.2195
0	166074	88.31	34.4084
0	166262	88.41	34.5973
0	166450	88.51	34.7862
0	166638	88.61	34.9751
0	166826	88.71	35.164
0	167014	88.81	35.3528
0	167202	88.91	35.5417
0	167396	89.01	35.7306
0	167584	89.11	35.9195
0	167772	89.21	36.1084
0	167960	89.31	36.2973
0	168148	89.41	36.4862
0	168336	89.51	36.6751
0	168524	89.61	36.864
0	168712	89.71	37.0529
0	168900	89.81	37.2417
0	169088	89.91	37.4306
0	169282	90.01	37.6195
0	169470	90.11	37.8084
0	169658	90.21	37.9973
0	169846	90.31	38.1862
0	170034	90.41	38.3751
0	170222	90.51	38.564
0	170410	90.61	38.7529
0	170598	90.71	38.9418
0	170786	90.81	39.1306
0	170974	90.91	39.3195
0	171168	91.01	39.5084
0	171356	91.11	39.6973
0	171544	91.21	39.8862
0	171732	91.31	40.0751
0	171920	91.41	40.264
0	172108	91.51	40.4529
0	172296	91.61	40.6418
0	172484	91.71	40.8307
0	172672	91.81	41.0195
0	172860	91.91	41.2084
0	173054	92.01	41.3973
0	173242	92.11	41.5862
0	173430	92.21	41.7751
0	173618	92.31	41.964
0	173806	92.41	42.1529
0	173994	92.51	42.3418
0	174182	92.61	42.5307
0	174370	92.71	42.7196
0	174558	92.81	42.9084
0	174746	92.91	43.0973
0	174940	93.01	43.2862
0	175128	93.11	43.4751
0	175316	93.21	43.664
0	175504	93.31	43.8529
0	175692	93.41	44.0418
0	175880	93.51	44.2307
0	176068	93.61	44.4196
0	176256	93.71	44.6085
0	176444	93.81	44.7973
0	176632	93.91	44.9862
0	176826	94.01	45.1751
0	177014	94.11	45.364
0	177202	94.21	45.5529
0	177390	94.31	45.7418
0	177578	94.41	45.9307
0	177766	94.51	46.1196
0	177954	94.61	46.3085
0	178142	94.71	46.4974
0	178330	94.81	46.6862
0	178518	94.91	46.8751
0	178712	95.01	47.064
0	178900	95.11	47.2529
0	179088	95.21	47.4418
0	179276	95.31	47.6307
0	179464	95.41	47.8196
0	179652	95.51	48.0085
0	179840	95.61	48.1974
0	180028	95.71	48.3863
0	180216	95.81	48.5751
0	180404	95.91	48.764
0	180598	96.01	48.9529
0	180786	96.11	49.1418
0	180974	96.21	49.3307
0	181162	96.31	49.5196
0	181350	96.41	49.7085
0	181538	96.51	49.8974
0	181726	96.61	50.0863
0	181914	96.71	50.2752
0	182102	96.81	50.464
0	182290	96.91	50.6529
0	182484	97.01	50.8418
0	182672	97.11	51.0307
0	182860	97.21	51.2196
0	183048	97.31	51.4085
0	183236	97.41	51.5974
0	183424	97.51	51.7863
0	183612	97.61	51.9752
0	183800	97.71	52.1641
0	183988	97.81	52.3529
0	184176	97.91	52.5418
0	184370	98.01	52.7307
0	184558	98.11	52.9196
0	184746	98.21	53.1085
0	184934	98.31	53.2974
0	185122	98.41	53.4863
0	185310	98.51	53.6752
0	185498	98.61	53.8641
0	185686	98.71	54.053
0	185874	98.81	54.2418
0	186062	98.91	54.4307
0	186256	99.01	54.6196
0	186444	99.11	54.8085
0	186632	99.21	54.9974
0	186820	99.31	55.1863
0	187008	99.41	55.3752
0	187196	99.51	55.5641
0	187384	99.61	55.753
0	187572	99.71	55.9419
0	187760	99.81	56.1307
0	187948	99.91	56.3196
1	113	1.11	-9.20219e-06
1	301	1.21	-3.63156e-05
1	489	1.31	-6.67292e-05
1	677	1.41	-9.07755e-05
1	865	1.51	-0.000109335
1	1053	1.61	-0.000123171
1	1241	1.71	-0.000132702
1	1429	1.81	-0.000138765
1	1617	1.91	-0.00014201
1	1811	2.01	-0.000142698
1	1999	2.11	-0.000141477
1	2187	2.21	-0.000138795
1	2375	2.31	0
1	2563	2.41	0
1	2751	2.51	0
1	2939	2.61	0
1	3127	2.71	0
1	3315	2.81	0
1	3503	2.91	0
1	3697	3.01	0
1	3885	3.11	0
1	4073	3.21	0
1	4261	3.31	0
1	4449	3.41	0
1	4637	3.51	0
1	4825	3.61	0
1	5013	3.71	0
1	5201	3.81	0
1	5389	3.91	0
1	5583	4.01	0
1	5771	4.11	0
1	5959	4.21	0
1	6147	4.31	0
1	6335	4.41	0
1	6523	4.51	0
1	6711	4.61	0
1	6899	4.71	0
1	7087	4.81	0
1	7275	4.91	0
1	7469	5.01	0
1	7657	5.11	0
1	7845	5.21	0
1	8033	5.31	0
1	8221	5.41	0
1	8409	5.51	0
1	8597	5.61	0
1	8785	5.71	0
1	8973	5.81	0
1	9161	5.91	0
1	9355	6.01	0
1	9543	6.11	0
1	9731	6.21	0
1	9919	6.31	0
1	10107	6.41	0
1	10295	6.51	0
1	10483	6.61	0
1	10671	6.71	0
1	10859	6.81	0
1	11047	6.91	0
1	11241	7.01	0
1	11429	7.11	0
1	11617	7.21	0
1	11805	7.31	0
1	11993	7.41	0
1	12181	7.51	0
1	12369	7.61	0
1	12557	7.71	0
1	12745	7.81	0
1	12933	7.91	0
1	13127	8.01	0
1	13315	8.11	0
1	13503	8.21	0
1	13691	8.31	0
1	13879	8.41	0
1	14067	8.51	0
1	14255	8.61	0
1	14443	8.71	0
1	14631	8.81	0
1	14819	8.91	0
1	15013	9.01	0
1	15201	9.11	0
1	15389	9.21	0
1	15577	9.31	0
1	15765	9.41	0
1	15953	9.51	0
1	16141	9.61	0
1	16329	9.71	0
1	16517	9.81	0
1	16705	9.91	0
1	16957	10.01	0
1	17149	10.11	0
1	17341	10.21	0
1	17533	10.31	0
1	17725	10.41	0
1	17917	10.51	0
1	18109	10.61	0
1	18301	10.71	0
1	18493	10.81	0
1	18685	10.91	0
1	18883	11.01	0
1	19075	11.11	0
1	19267	11.21	0
1	19459	11.31	0
1	19651	11.41	0
1	19843	11.51	0
1	20035	11.61	0
1	20227	11.71	0
1	20419	11.81	0
1	20611	11.91	0
1	20809	12.01	0
1	21001	12.11	0
1	21193	12.21	0
1	21385	12.31	0
1	21577	12.41	0
1	21769	12.51	0
1	21961	12.61	0
1	22153	12.71	0
1	22345	12.81	0
1	22537	12.91	0
1	22735	13.01	0
1	22927	13.11	0
1	23119	13.21	0
1	23311	13.31	0
1	23503	13.41	0
1	23695	13.51	0
1	23887	13.61	0
1	24079	13.71	0
1	24271	13.81	0
1	24463	13.91	0
1	24661	14.01	0
1	24853	14.11	0
1	25045	14.21	0
1	25237	14.31	0
1	25429	14.41	0
1	25621	14.51	0
1	25813	14.61	0
1	26005	14.71	0
1	26197	14.81	0
1	26389	14.91	0
1	26587	15.01	0
1	26779	15.11	0
1	26971	15.21	0
1	27163	15.31	0
1	27355	15.41	0
1	27547	15.51	0
1	27739	15.61	0
1	27931	15.71	0
1	28123	15.81	0
1	28315	15.91	0
1	28513	16.01	0
1	28705	16.11	0
1	28897	16.21	0
1	29089	16.31	0
1	29281	16.41	0
1	29473	16.51	0
1	29665	16.61	0
1	29857	16.71	0
1	30049	16.81	0
1	30241	16.91	0
1	30439	17.01	0
1	30631	17.11	0
1	30823	17.21	0
1	31015	17.31	0
1	31207	17.41	0
1	31399	17.51	0
1	31591	17.61	0
1	31783	17.71	0
1	31975	17.81	0
1	32167	17.91	0
1	32365	18.01	0
1	32557	18.11	0
1	32749	18.21	0
1	32941	18.31	0
1	33133	18.41	0
1	33325	18.51	0
1	33517	18.61	0
1	33709	18.71	0
1	33901	18.81	0
1	34093	18.91	0
1	34291	19.01	0
1	34483	19.11	0
1	34675	19.21	0
1	34867	19.31	0
1	35059	19.41	0
1	35251	19.51	0
1	35443	19.61	0
1	35635	19.71	0
1	35827	19.81	0
1	36019	19.91	0
1	36217	20.01	0
1	36409	20.11	0
1	36601	20.21	0
1	36793	20.31	0
1	36985	20.41	0
1	37177	20.51	0
1	37369	20.61	0
1	37561	20.71	0
1	37753	20.81	0
1	37945	20.91	0
1	38143	21.01	0
1	38335	21.11	0
1	38527	21.21	0
1	38719	21.31	0
1	38911	21.41	0
1	39103	21.51	0
1	39295	21.61	0
1	39487	21.71	0
1	39679	21.81	0
1	39871	21.91	0
1	40069	22.01	0
1	40261	22.11	0
1	40453	22.21	0
1	40645	22.31	0
1	40837	22.41	0
1	41029	22.51	0
1	41221	22.61	0
1	41413	22.71	0
1	41605	22.81	0
1	41797	22.91	0
1	41995	23.01	0
1	42187	23.11	0
1	42379	23.21	0
1	42571	23.31	0
1	42763	23.41	0
1	42955	23.51	0
1	43147	23.61	0
1	43339	23.71	0
1	43531	23.81	0
1	43723	23.91	0
1	43921	24.01	0
1	44113	24.11	0
1	44305	24.21	0
1	44497	24.31	0
1	44689	24.41	0
1	44881	24.51	0
1	45073	24.61	0
1	45265	24.71	0
1	45457	24.81	0
1	45649	24.91	0
1	45847	25.01	0
1	46039	25.11	0
1	46231	25.21	0
1	46423	25.31	0
1	46615	25.41	0
1	46807	25.51	0
1	46999	25.61	0
1	47191	25.71	0
1	47383	25.81	0
1	47575	25.91	0
1	47773	26.01	0
1	47965	26.11	0
1	48157	26.21	0
1	48349	26.31	0
1	48541	26.41	0
1	48733	26.51	0
1	48925	26.61	0
1	49117	26.71	0
1	49309	26.81	0
1	49501	26.91	0
1	49699	27.01	0
1	49891	27.11	0
1	50083	27.21	0
1	50275	27.31	0
1	50467	27.41	0
1	50659	27.51	0
1	50851	27.61	0
1	51043	27.71	0
1	51235	27.81	0
1	51427	27.91	0
1	51625	28.01	0
1	51817	28.11	0
1	52009	28.21	0
1	52201	28.31	0
1	52393	28.41	0
1	52585	28.51	0
1	52777	28.61	0
1	52969	28.71	0
1	53161	28.81	0
1	53353	28.91	0
1	53551	29.01	0
1	53743	29.11	0
1	53935	29.21	0
1	54180	29.31	0
1	54371	29.41	0
1	54562	29.51	0
1	54753	29.61	0
1	54944	29.71	0
1	55135	29.81	0
1	55326	29.91	0
1	55523	30.01	0
1	55714	30.11	0
1	55905	30.21	0
1	56096	30.31	0
1	56287	30.41	0
1	56478	30.51	0
1	56669	30.61	0
1	56860	30.71	0
1	57051	30.81	0
1	57242	30.91	0
1	57439	31.01	0
1	57630	31.11	0
1	57821	31.21	0
1	58012	31.31	0
1	58203	31.41	0
1	58394	31.51	0
1	58585	31.61	0
1	58776	31.71	0
1	58967	31.81	0
1	59158	31.91	0
1	59355	32.01	0
1	59546	32.11	0
1	59737	32.21	0
1	59928	32.31	0
1	60119	32.41	0
1	60310	32.51	0
1	60501	32.61	0
1	60692	32.71	0
1	60883	32.81	0
1	61074	32.91	0
1	61271	33.01	0
1	61462	33.11	0
1	61653	33.21	0
1	61844	33.31	0
1	62035	33.41	0
1	62279	33.51	0
1	62469	33.61	0
1	62659	33.71	0
1	62849	33.81	0
1	63039	33.91	0
1	63235	34.01	0
1	63425	34.11	0
1	63615	34.21	0
1	63805	34.31	0
1	63995	34.41	0
1	64185	34.51	0
1	64375	34.61	0
1	64565	34.71	0
1	64755	34.81	0
1	64945	34.91	0
1	65141	35.01	0
1	65331	35.11	0
1	65521	35.21	0
1	65711	35.31	0
1	65901	35.41	0
1	66091	35.51	0
1	66281	35.61	0
1	66471	35.71	0
1	66661	35.81	0
1	66851	35.91	0
1	67047	36.01	0
1	67237	36.11	0
1	67427	36.21	0
1	67617	36.31	0
1	67807	36.41	0
1	67997	36.51	0
1	68187	36.61	0
1	68377	36.71	0
1	68567	36.81	0
1	68757	36.91	0
1	68953	37.01	0
1	69143	37.11	0
1	69333	37.21	0
1	69523	37.31	0
1	69713	37.41	0
1	70115	37.51	0
1	70304	37.61	0
1	70493	37.71	0
1	70682	37.81	0
1	70871	37.91	0
1	71066	38.01	0
1	71255	38.11	0
1	71444	38.21	0
1	71633	38.31	0
1	71822	38.41	0
1	72011	38.51	0
1	72200	38.61	0
1	72389	38.71	0
1	72578	38.81	0
1	72767	38.91	0
1	72962	39.01	0
1	73151	39.11	0
1	73340	39.21	0
1	73529	39.31	0
1	73718	39.41	0
1	73907	39.51	0
1	74096	39.61	0
1	74285	39.71	0
1	74474	39.81	0
1	74663	39.91	0
1	74858	40.01	0
1	75047	40.11	0
1	75236	40.21	0
1	75425	40.31	0
1	75614	40.41	0
1	75803	40.51	0
1	75992	40.61	0
1	76181	40.71	0
1	76370	40.81	0
1	76559	40.91	0
1	76754	41.01	0
1	76943	41.11	0
1	77132	41.21	0
1	77321	41.31	0
1	77510	41.41	0
1	77699	41.51	0
1	77888	41.61	0
1	78077	41.71	0
1	78266	41.81	0
1	78455	41.91	0
1	78650	42.01	0
1	78839	42.11	0
1	79028	42.21	0
1	79217	42.31	0
1	79406	42.41	0
1	79595	42.51	0
1	79784	42.61	0
1	79973	42.71	0
1	80162	42.81	0
1	80351	42.91	0
1	80546	43.01	0
1	80735	43.11	0
1	80924	43.21	0
1	81113	43.31	0
1	81302	43.41	0
1	81491	43.51	0
1	81680	43.61	0
1	81869	43.71	0
1	82058	43.81	0
1	82247	43.91	0
1	82442	44.01	0
1	82631	44.11	0
1	82820	44.21	0
1	83009	44.31	0
1	83198	44.41	0
1	83387	44.51	0
1	83576	44.61	0
1	83765	44.71	0
1	83954	44.81	0
1	84143	44.91	0
1	84338	45.01	0
1	84527	45.11	0
1	84716	45.21	0
1	84905	45.31	0
1	85094	45.41	0
1	85283	45.51	0
1	85472	45.61	0
1	85661	45.71	0
1	85916	45.81	0
1	86104	45.91	0
1	86298	46.01	0
1	86486	46.11	0
1	86674	46.21	0
1	86862	46.31	0
1	87050	46.41	0
1	87238	46.51	0
1	87426	46.61	0
1	87614	46.71	0
1	87802	46.81	0
1	87990	46.91	0
1	88184	47.01	0
1	88372	47.11	0
1	88560	47.21	0
1	88748	47.31	0
1	88936	47.41	0
1	89124	47.51	0
1	89312	47.61	0
1	89500	47.71	0
1	89688	47.81	0
1	89876	47.91	0
1	90070	48.01	0
1	90258	48.11	0
1	90446	48.21	0
1	90634	48.31	0
1	90822	48.41	0
1	91010	48.51	0
1	91198	48.61	0
1	91386	48.71	0
1	91574	48.81	0
1	91762	48.91	0
1	91956	49.01	0
1	92144	49.11	0
1	92332	49.21	0
1	92520	49.31	0
1	92708	49.41	0
1	92896	49.51	0
1	93084	49.61	0
1	93272	49.71	0
1	93460	49.81	0
1	93648	49.91	0
1	93842	50.01	0
1	94030	50.11	0
1	94218	50.21	0
1	94406	50.31	0
1	94594	50.41	0
1	94782	50.51	0
1	94970	50.61	0
1	95158	50.71	0
1	95346	50.81	0
1	95534	50.91	0
1	95728	51.01	0
1	95916	51.11	0
1	96104	51.21	0
1	96292	51.31	0
1	96480	51.41	0
1	96668	51.51	0
1	96856	51.61	0
1	97044	51.71	0
1	97232	51.81	0
1	97420	51.91	0
1	97614	52.01	0
1	97802	52.11	0
1	97990	52.21	0
1	98178	52.31	0
1	98366	52.41	0
1	98554	52.51	0
1	98742	52.61	0
1	98930	52.71	0
1	99118	52.81	0
1	99306	52.91	0
1	99500	53.01	0
1	99688	53.11	0
1	99876	53.21	0
1	100064	53.31	0
1	100252	53.41	0
1	100440	53.51	0
1	100628	53.61	0
1	100816	53.71	0
1	101004	53.81	0
1	101192	53.91	0
1	101386	54.01	0
1	101574	54.11	0
1	101762	54.21	0
1	101950	54.31	0
1	102138	54.41	0
1	102326	54.51	0
1	102514	54.61	0
1	102702	54.71	0
1	102890	54.81	0
1	103078	54.91	0
1	103272	55.01	0
1	103460	55.11	0
1	103648	55.21	0
1	103836	55.31	0
1	104024	55.41	0
1	104212	55.51	0
1	104400	55.61	0
1	104588	55.71	0
1	104776	55.81	0
1	104964	55.91	0
1	105158	56.01	0
1	105346	56.11	0
1	105534	56.21	0
1	105722	56.31	0
1	105910	56.41	0
1	106098	56.51	0
1	106286	56.61	0
1	106474	56.71	0
1	106662	56.81	0
1	106850	56.91	0
1	107044	57.01	0
1	107232	57.11	0
1	107420	57.21	0
1	107608	57.31	0
1	107796	57.41	0
1	107984	57.51	0
1	108172	57.61	0
1	108360	57.71	0
1	108548	57.81	0
1	108736	57.91	0
1	108930	58.01	0
1	109118	58.11	0
1	109306	58.21	0
1	109494	58.31	0
1	109682	58.41	0
1	109870	58.51	0
1	110058	58.61	0
1	110246	58.71	0
1	110434	58.81	0
1	110622	58.91	0
1	110816	59.01	0
1	111004	59.11	0
1	111192	59.21	0
1	111380	59.31	0
1	111568	59.41	0
1	111756	59.51	0
1	111944	59.61	0
1	112132	59.71	0
1	112320	59.81	0
1	112508	59.91	0
1	112702	60.01	0
1	112890	60.11	0
1	113078	60.21	0
1	113266	60.31	0
1	113454	60.41	0
1	113642	60.51	0
1	113830	60.61	0
1	114018	60.71	0
1	114206	60.81	0
1	114394	60.91	0
1	114588	61.01	0
1	114776	61.11	0
1	114964	61.21	0
1	115152	61.31	0
1	115340	61.41	0
1	115528	61.51	0
1	115716	61.61	0
1	115904	61.71	0
1	116092	61.81	0
1	116280	61.91	0
1	116474	62.01	0
1	116662	62.11	0
1	116850	62.21	0
1	117038	62.31	0
1	117226	62.41	0
1	117414	62.51	0
1	117602	62.61	0
1	117790	62.71	0
1	117978	62.81	0
1	118166	62.91	0
1	118360	63.01	0
1	118548	63.11	0
1	118736	63.21	0
1	118924	63.31	0
1	119112	63.41	0
1	119300	63.51	0
1	119488	63.61	0
1	119676	63.71	0
1	119864	63.81	0
1	120052	63.91	0
1	120246	64.01	0
1	120434	64.11	0
1	120622	64.21	0
1	120810	64.31	0
1	120998	64.41	0
1	121186	64.51	0
1	121374	64.61	0
1	121562	64.71	0
1	121750	64.81	0
1	121938	64.91	0
1	122132	65.01	0
1	122320	65.11	0
1	122508	65.21	0
1	122696	65.31	0
1	122884	65.41	0
1	123072	65.51	0
1	123260	65.61	0
1	123448	65.71	0
1	123636	65.81	0
1	123824	65.91	0
1	124018	66.01	0
1	124206	66.11	0
1	124394	66.21	0
1	124582	66.31	0
1	124770	66.41	0
1	124958	66.51	0
1	125146	66.61	0
1	125334	66.71	0
1	125522	66.81	0
1	125710	66.91	0
1	125904	67.01	0
1	126092	67.11	0
1	126280	67.21	0
1	126468	67.31	0
1	126656	67.41	0
1	126844	67.51	0
1	127032	67.61	0
1	127220	67.71	0
1	127408	67.81	0
1	127596	67.91	0
1	127790	68.01	0
1	127978	68.11	0
1	128166	68.21	0
1	128354	68.31	0
1	128542	68.41	0
1	128730	68.51	0
1	128918	68.61	0
1	129106	68.71	0
1	129294	68.81	0
1	129482	68.91	0
1	129676	69.01	0
1	129864	69.11	0
1	130052	69.21	0
1	130240	69.31	0
1	130428	69.41	0
1	130616	69.51	0
1	130804	69.61	0
1	130992	69.71	0
1	131180	69.81	0
1	131368	69.91	0
1	131562	70.01	0
1	131750	70.11	0
1	131938	70.21	0
1	132126	70.31	0
1	132314	70.41	0
1	132502	70.51	0
1	132690	70.61	0
1	132878	70.71	0
1	133066	70.81	0
1	133254	70.91	0
1	133448	71.01	0
1	133636	71.11	0
1	133824	71.21	0
1	134012	71.31	0
1	134200	71.41	0
1	134388	71.51	0
1	134576	71.61	0
1	134764	71.71	0
1	134952	71.81	0
1	135140	71.91	0
1	135334	72.01	0
1	135522	72.11	0
1	135710	72.21	0
1	135898	72.31	0
1	136086	72.41	0
1	136274	72.51	0
1	136462	72.61	0
1	136650	72.71	0
1	136838	72.81	0
1	137026	72.91	0
1	137220	73.01	0
1	137408	73.11	0
1	137596	73.21	0
1	137784	73.31	0
1	137972	73.41	0
1	138160	73.51	0
1	138348	73.61	0
1	138536	73.71	0
1	138724	73.81	0
1	138912	73.91	0
1	139106	74.01	0
1	139294	74.11	0
1	139482	74.21	0
1	139670	74.31	0
1	139858	74.41	0
1	140046	74.51	0
1	140234	74.61	0
1	140422	74.71	0
1	140610	74.81	0
1	140798	74.91	0
1	140992	75.01	0
1	141180	75.11	0
1	141368	75.21	0
1	141556	75.31	0
1	141744	75.41	0
1	141932	75.51	0
1	142120	75.61	0
1	142308	75.71	0
1	142496	75.81	0
1	142684	75.91	0
1	142878	76.01	0
1	143066	76.11	0
1	143254	76.21	0
1	143442	76.31	0
1	143630	76.41	0
1	143818	76.51	0
1	144006	76.61	0
1	144194	76.71	0
1	144382	76.81	0
1	144570	76.91	0
1	144764	77.01	0
1	144952	77.11	0
1	145140	77.21	0
1	145328	77.31	0
1	145516	77.41	0
1	145704	77.51	0
1	145892	77.61	0
1	146080	77.71	0
1	146268	77.81	0
1	146456	77.91	0
1	146650	78.01	0
1	146838	78.11	0
1	147026	78.21	0
1	147214	78.31	0
1	147402	78.41	0
1	147590	78.51	0
1	147778	78.61	0
1	147966	78.71	0
1	148154	78.81	0
1	148342	78.91	0
1	148536	79.01	0
1	148724	79.11	0
1	148912	79.21	0
1	149100	79.31	0
1	149288	79.41	0
1	149476	79.51	0
1	149664	79.61	0
1	149852	79.71	0
1	150040	79.81	0
1	150228	79.91	0
1	150422	80.01	0
1	150610	80.11	0
1	150798	80.21	0
1	150986	80.31	0
1	151174	80.41	0
1	151362	80.51	0
1	151550	80.61	0
1	151738	80.71	0
1	151926	80.81	0
1	152114	80.91	0
1	152308	81.01	0
1	152496	81.11	0
1	152684	81.21	0
1	152872	81.31	0
1	153060	81.41	0
1	153248	81.51	0
1	153436	81.61	0
1	153624	81.71	0
1	153812	81.81	0
1	154000	81.91	0
1	154194	82.01	0
1	154382	82.11	0
1	154570	82.21	0
1	154758	82.31	0
1	154946	82.41	0
1	155134	82.51	0
1	155322	82.61	0
1	155510	82.71	0
1	155698	82.81	0
1	155886	82.91	0
1	156080	83.01	0
1	156268	83.11	0
1	156456	83.21	0
1	156644	83.31	0
1	156832	83.41	0
1	157020	83.51	0
1	157208	83.61	0
1	157396	83.71	0
1	157584	83.81	0
1	157772	83.91	0
1	157966	84.01	0
1	158154	84.11	0
1	158342	84.21	0
1	158530	84.31	0
1	158718	84.41	0
1	158906	84.51	0
1	159094	84.61	0
1	159282	84.71	0
1	159470	84.81	0
1	159658	84.91	0
1	159852	85.01	0
1	160040	85.11	1.8889
1	160228	85.21	1.8889
1	160416	85.31	1.8889
1	160604	85.41	1.8889
1	160792	85.51	1.8889
1	160980	85.61	1.8889
1	161168	85.71	1.8889
1	161356	85.81	1.8889
1	161544	85.91	1.8889
1	161738	86.01	1.8889
1	161926	86.11	1.8889
1	162114	86.21	1.8889
1	162302	86.31	1.8889
1	162490	86.41	1.8889
1	162678	86.51	1.8889
1	162866	86.61	1.8889
1	163054	86.71	1.8889
1	163242	86.81	1.8889
1	163430	86.91	1.8889
1	163624	87.01	1.8889
1	163812	87.11	1.8889
1	164000	87.21	1.8889
1	164188	87.31	1.8889
1	164376	87.41	1.8889
1	164564	87.51	1.8889
1	164752	87.61	1.8889
1	164940	87.71	1.8889
1	165128	87.81	1.8889
1	165316	87.91	1.8889
1	165510	88.01	1.8889
1	165698	88.11	1.8889
1	165886	88.21	1.8889
1	166074	88.31	1.8889
1	166262	88.41	1.8889
1	166450	88.51	1.8889
1	166638	88.61	1.8889
1	166826	88.71	1.8889
1	167014	88.81	1.8889
1	167202	88.91	1.8889
1	167396	89.01	1.8889
1	167584	89.11	1.8889
1	167772	89.21	1.8889
1	167960	89.31	1.8889
1	168148	89.41	1.8889
1	168336	89.51	1.8889
1	168524	89.61	1.8889
1	168712	89.71	1.8889
1	168900	89.81	1.8889
1	169088	89.91	1.8889
1	169282	90.01	1.8889
1	169470	90.11	1.8889
1	169658	90.21	1.8889
1	169846	90.31	1.8889
1	170034	90.41	1.8889
1	170222	90.51	1.8889
1	170410	90.61	1.8889
1	170598	90.71	1.8889
1	170786	90.81	1.8889
1	170974	90.91	1.8889
1	171168	91.01	1.8889
1	171356	91.11	1.8889
1	171544	91.21	1.8889
1	171732	91.31	1.8889
1	171920	91.41	1.8889
1	172108	91.51	1.8889
1	172296	91.61	1.8889
1	172484	91.71	1.8889
1	172672	91.81	1.8889
1	172860	91.91	1.8889
1	173054	92.01	1.8889
1	173242	92.11	1.8889
1	173430	92.21	1.8889
1	173618	92.31	1.8889
1	173806	92.41	1.8889
1	173994	92.51	1.8889
1	174182	92.61	1.8889
1	174370	92.71	1.8889
1	174558	92.81	1.8889
1	174746	92.91	1.8889
1	174940	93.01	1.8889
1	175128	93.11	1.8889
1	175316	93.21	1.8889
1	175504	93.31	1.8889
1	175692	93.41	1.8889
1	175880	93.51	1.8889
1	176068	93.61	1.8889
1	176256	93.71	1.8889
1	176444	93.81	1.8889
1	176632	93.91	1.8889
1	176826	94.01	1.8889
1	177014	94.11	1.8889
1	177202	94.21	1.8889
1	177390	94.31	1.8889
1	177578	94.41	1.8889
1	177766	94.51	1.8889
1	177954	94.61	1.8889
1	178142	94.71	1.8889
1	178330	94.81	1.8889
1	178518	94.91	1.8889
1	178712	95.01	1.8889
1	178900	95.11	1.8889
1	179088	95.21	1.8889
1	179276	95.31	1.8889
1	179464	95.41	1.8889
1	179652	95.51	1.8889
1	179840	95.61	1.8889
1	180028	95.71	1.8889
1	180216	95.81	1.8889
1	180404	95.91	1.8889
1	180598	96.01	1.8889
1	180786	96.11	1.8889
1	180974	96.21	1.8889
1	181162	96.31	1.8889
1	181350	96.41	1.8889
1	181538	96.51	1.8889
1	181726	96.61	1.8889
1	181914	96.71	1.8889
1	182102	96.81	1.8889
1	182290	96.91	1.8889
1	182484	97.01	1.8889
1	182672	97.11	1.8889
1	182860	97.21	1.8889
1	183048	97.31	1.8889
1	183236	97.41	1.8889
1	183424	97.51	1.8889
1	183612	97.61	1.8889
1	183800	97.71	1.8889
1	183988	97.81	1.8889
1	184176	97.91	1.8889
1	184370	98.01	1.8889
1	184558	98.11	1.8889
1	184746	98.21	1.8889
1	184934	98.31	1.8889
1	185122	98.41	1.8889
1	185310	98.51	1.8889
1	185498	98.61	1.8889
1	185686	98.71	1.8889
1	185874	98.81	1.8889
1	186062	98.91	1.8889
1	186256	99.01	1.8889
1	186444	99.11	1.8889
1	186632	99.21	1.8889
1	186820	99.31	1.8889
1	187008	99.41	1.8889
1	187196	99.51	1.8889
1	187384	99.61	1.8889
1	187572	99.71	1.8889
1	187760	99.81	1.8889
1	187948	99.91	1.8889
2	113	1.11	0
2	301	1.21	0
2	489	1.31	0
2	677	1.41	0
2	865	1.51	0
2	1053	1.61	0
2	1241	1.71	0
2	1429	1.81	0
2	1617	1.91	0
2	1811	2.01	0
2	1999	2.11	0
2	2187	2.21	0
2	2375	2.31	0
2	2563	2.41	0
2	2751	2.51	0
2	2939	2.61	0
2	3127	2.71	0
2	3315	2.81	0
2	3503	2.91	0
2	3697	3.01	0
2	3885	3.11	0
2	4073	3.21	0
2	4261	3.31	0
2	4449	3.41	0
2	4637	3.51	0
2	4825	3.61	0
2	5013	3.71	0
2	5201	3.81	0
2	5389	3.91	0
2	5583	4.01	0
2	5771	4.11	0
2	5959	4.21	0
2	6147	4.31	0
2	6335	4.41	0
2	6523	4.51	0
2	6711	4.61	0
2	6899	4.71	0
2	7087	4.81	0
2	7275	4.91	0
2	7469	5.01	0
2	7657	5.11	0
2	7845	5.21	0
2	8033	5.31	0
2	8221	5.41	0
2	8409	5.51	0
2	8597	5.61	0
2	8785	5.71	0
2	8973	5.81	0
2	9161	5.91	0
2	9355	6.01	0
2	9543	6.11	0
2	9731	6.21	0
2	9919	6.31	0
2	10107	6.41	0
2	10295	6.51	0
2	10483	6.61	0
2	10671	6.71	0
2	10859	6.81	0
2	11047	6.91	0
2	11241	7.01	0
2	11429	7.11	0
2	11617	7.21	0
2	11805	7.31	0
2	11993	7.41	0
2	12181	7.51	0
2	12369	7.61	0
2	12557	7.71	0
2	12745	7.81	0
2	12933	7.91	0
2	13127	8.01	0
2	13315	8.11	0
2	13503	8.21	0
2	13691	8.31	0
2	13879	8.41	0
2	14067	8.51	0
2	14255	8.61	0
2	14443	8.71	0
2	14631	8.81	0
2	14819	8.91	0
2	15013	9.01	0
2	15201	9.11	0
2	15389	9.21	0
2	15577	9.31	0
2	15765	9.41	0
2	15953	9.51	0
2	16141	9.61	0
2	16329	9.71	0
2	16517	9.81	0
2	16705	9.91	0
2	16957	10.01	0
2	17149	10.11	0
2	17341	10.21	0
2	17533	10.31	0
2	17725	10.41	0
2	17917	10.51	0
2	18109	10.61	0
2	18301	10.71	0
2	18493	10.81	0
2	18685	10.91	0
2	18883	11.01	0
2	19075	11.11	0
2	19267	11.21	0
2	19459	11.31	0
2	19651	11.41	0
2	19843	11.51	0
2	20035	11.61	0
2	20227	11.71	0
2	20419	11.81	0
2	20611	11.91	0
2	20809	12.01	0
2	21001	12.11	0
2	21193	12.21	0
2	21385	12.31	0
2	21577	12.41	0
2	21769	12.51	0
2	21961	12.61	0
2	22153	12.71	0
2	22345	12.81	0
2	22537	12.91	0
2	22735	13.01	0
2	22927	13.11	0
2	23119	13.21	0
2	23311	13.31	0
2	23503	13.41	0
2	23695	13.51	0
2	23887	13.61	0
2	24079	13.71	0
2	24271	13.81	0
2	24463	13.91	0
2	24661	14.01	0
2	24853	14.11	0
2	25045	14.21	0
2	25237	14.31	0
2	25429	14.41	0
2	25621	14.51	0
2	25813	14.61	0
2	26005	14.71	0
2	26197	14.81	0
2	26389	14.91	0
2	26587	15.01	0
2	26779	15.11	0
2	26971	15.21	0
2	27163	15.31	0
2	27355	15.41	0
2	27547	15.51	0
2	27739	15.61	0
2	27931	15.71	0
2	28123	15.81	0
2	28315	15.91	0
2	28513	16.01	0
2	28705	16.11	0
2	28897	16.21	0
2	29089	16.31	0
2	29281	16.41	0
2	29473	16.51	0
2	29665	16.61	0
2	29857	16.71	0
2	30049	16.81	0
2	30241	16.91	0
2	30439	17.01	0
2	30631	17.11	0
2	30823	17.21	0
2	31015	17.31	0
2	31207	17.41	0
2	31399	17.51	0
2	31591	17.61	0
2	31783	17.71	0
2	31975	17.81	0
2	32167	17.91	0
2	32365	18.01	0
2	32557	18.11	0
2	32749	18.21	0
2	32941	18.31	0
2	33133	18.41	0
2	33325	18.51	0
2	33517	18.61	0
2	33709	18.71	0
2	33901	18.81	0
2	34093	18.91	0
2	34291	19.01	0
2	34483	19.11	0
2	34675	19.21	0
2	34867	19.31	0
2	35059	19.41	0
2	35251	19.51	0
2	35443	19.61	0
2	35635	19.71	0
2	35827	19.81	0
2	36019	19.91	0
2	36217	20.01	0
2	36409	20.11	0
2	36601	20.21	0
2	36793	20.31	0
2	36985	20.41	0
2	37177	20.51	0
2	37369	20.61	0
2	37561	20.71	0
2	37753	20.81	0
2	37945	20.91	0
2	38143	21.01	0
2	38335	21.11	0
2	38527	21.21	0
2	38719	21.31	0
2	38911	21.41	0
2	39103	21.51	0
2	39295	21.61	0
2	39487	21.71	0
2	39679	21.81	0
2	39871	21.91	0
2	40069	22.01	0
2	40261	22.11	0
2	40453	22.21	0
2	40645	22.31	0
2	40837	22.41	0
2	41029	22.51	0
2	41221	22.61	0
2	41413	22.71	0
2	41605	22.81	0
2	41797	22.91	0
2	41995	23.01	0
2	42187	23.11	0
2	42379	23.21	0
2	42571	23.31	0
2	42763	23.41	0
2	42955	23.51	0
2	43147	23.61	0
2	43339	23.71	0
2	43531	23.81	0
2	43723	23.91	0
2	43921	24.01	0
2	44113	24.11	0
2	44305	24.21	0
2	44497	24.31	0
2	44689	24.41	0
2	44881	24.51	0
2	45073	24.61	0
2	45265	24.71	0
2	45457	24.81	0
2	45649	24.91	0
2	45847	25.01	0
2	46039	25.11	0
2	46231	25.21	0
2	46423	25.31	0
2	46615	25.41	0
2	46807	25.51	0
2	46999	25.61	0
2	47191	25.71	0
2	47383	25.81	0
2	47575	25.91	0
2	47773	26.01	0
2	47965	26.11	0
2	48157	26.21	0
2	48349	26.31	0
2	48541	26.41	0
2	48733	26.51	0
2	48925	26.61	0
2	49117	26.71	0
2	49309	26.81	0
2	49501	26.91	0
2	49699	27.01	0
2	49891	27.11	0
2	50083	27.21	0
2	50275	27.31	0
2	50467	27.41	0
2	50659	27.51	0
2	50851	27.61	0
2	51043	27.71	0
2	51235	27.81	0
2	51427	27.91	0
2	51625	28.01	0
2	51817	28.11	0
2	52009	28.21	0
2	52201	28.31	0
2	52393	28.41	0
2	52585	28.51	0
2	52777	28.61	0
2	52969	28.71	0
2	53161	28.81	0
2	53353	28.91	0
2	53551	29.01	0
2	53743	29.11	0
2	53935	29.21	0
2	54180	29.31	0
2	54371	29.41	0
2	54562	29.51	0
2	54753	29.61	0
2	54944	29.71	0
2	55135	29.81	0
2	55326	29.91	0
2	55523	30.01	0
2	55714	30.11	0
2	55905	30.21	0
2	56096	30.31	0
2	56287	30.41	0
2	56478	30.51	0
2	56669	30.61	0
2	56860	30.71	0
2	57051	30.81	0
2	57242	30.91	0
2	57439	31.01	0
2	57630	31.11	0
2	57821	31.21	0
2	58012	31.31	0
2	58203	31.41	0
2	58394	31.51	0
2	58585	31.61	0
2	58776	31.71	0
2	58967	31.81	0
2	59158	31.91	0
2	59355	32.01	0
2	59546	32.11	0
2	59737	32.21	0
2	59928	32.31	0
2	60119	32.41	0
2	60310	32.51	0
2	60501	32.61	0
2	60692	32.71	0
2	60883	32.81	0
2	61074	32.91	0
2	61271	33.01	0
2	61462	33.11	0
2	61653	33.21	0
2	61844	33.31	0
2	62035	33.41	0
2	62279	33.51	0
2	62469	33.61	0
2	62659	33.71	0
2	62849	33.81	0
2	63039	33.91	0
2	63235	34.01	0
2	63425	34.11	0
2	63615	34.21	0
2	63805	34.31	0
2	63995	34.41	0
2	64185	34.51	0
2	64375	34.61	0
2	64565	34.71	0
2	64755	34.81	0
2	64945	34.91	0
2	65141	35.01	0
2	65331	35.11	0
2	65521	35.21	0
2	65711	35.31	0
2	65901	35.41	0
2	66091	35.51	0
2	66281	35.61	0
2	66471	35.71	0
2	66661	35.81	0
2	66851	35.91	0
2	67047	36.01	0
2	67237	36.11	0
2	67427	36.21	0
2	67617	36.31	0
2	67807	36.41	0
2	67997	36.51	0
2	68187	36.61	0
2	68377	36.71	0
2	68567	36.81	0
2	68757	36.91	0
2	68953	37.01	0
2	69143	37.11	0
2	69333	37.21	0
2	69523	37.31	0
2	69713	37.41	0
2	70115	37.51	0
2	70304	37.61	0
2	70493	37.71	0
2	70682	37.81	0
2	70871	37.91	0
2	71066	38.01	0
2	71255	38.11	0
2	71444	38.21	0
2	71633	38.31	0
2	71822	38.41	0
2	72011	38.51	0
2	72200	38.61	0
2	72389	38.71	0
2	72578	38.81	0
2	72767	38.91	0
2	72962	39.01	0
2	73151	39.11	0
2	73340	39.21	0
2	73529	39.31	0
2	73718	39.41	0
2	73907	39.51	0
2	74096	39.61	0
2	74285	39.71	0
2	74474	39.81	0
2	74663	39.91	0
2	74858	40.01	0
2	75047	40.11	0
2	75236	40.21	0
2	75425	40.31	0
2	75614	40.41	0
2	75803	40.51	0
2	75992	40.61	0
2	76181	40.71	0
2	76370	40.81	0
2	76559	40.91	0
2	76754	41.01	0
2	76943	41.11	0
2	77132	41.21	0
2	77321	41.31	0
2	77510	41.41	0
2	77699	41.51	0
2	77888	41.61	0
2	78077	41.71	0
2	78266	41.81	0
2	78455	41.91	0
2	78650	42.01	0
2	78839	42.11	0
2	79028	42.21	0
2	79217	42.31	0
2	79406	42.41	0
2	79595	42.51	0
2	79784	42.61	0
2	79973	42.71	0
2	80162	42.81	0
2	80351	42.91	0
2	80546	43.01	0
2	80735	43.11	0
2	80924	43.21	0
2	81113	43.31	0
2	81302	43.41	0
2	81491	43.51	0
2	81680	43.61	0
2	81869	43.71	0
2	82058	43.81	0
2	82247	43.91	0
2	82442	44.01	0
2	82631	44.11	0
2	82820	44.21	0
2	83009	44.31	0
2	83198	44.41	0
2	83387	44.51	0
2	83576	44.61	0
2	83765	44.71	0
2	83954	44.81	0
2	84143	44.91	0
2	84338	45.01	0
2	84527	45.11	0
2	84716	45.21	0
2	84905	45.31	0
2	85094	45.41	0
2	85283	45.51	0
2	85472	45.61	0
2	85661	45.71	0
2	85916	45.81	0
2	86104	45.91	0
2	86298	46.01	0
2	86486	46.11	0
2	86674	46.21	0
2	86862	46.31	0
2	87050	46.41	0
2	87238	46.51	0
2	87426	46.61	0
2	87614	46.71	0
2	87802	46.81	0
2	87990	46.91	0
2	88184	47.01	0
2	88372	47.11	0
2	88560	47.21	0
2	88748	47.31	0
2	88936	47.41	0
2	89124	47.51	0
2	89312	47.61	0
2	89500	47.71	0
2	89688	47.81	0
2	89876	47.91	0
2	90070	48.01	0
2	90258	48.11	0
2	90446	48.21	0
2	90634	48.31	0
2	90822	48.41	0
2	91010	48.51	0
2	91198	48.61	0
2	91386	48.71	0
2	91574	48.81	0
2	91762	48.91	0
2	91956	49.01	0
2	92144	49.11	0
2	92332	49.21	0
2	92520	49.31	0
2	92708	49.41	0
2	92896	49.51	0
2	93084	49.61	0
2	93272	49.71	0
2	93460	49.81	0
2	93648	49.91	0
2	93842	50.01	0
2	94030	50.11	0
2	94218	50.21	0
2	94406	50.31	0
2	94594	50.41	0
2	94782	50.51	0
2	94970	50.61	0
2	95158	50.71	0
2	95346	50.81	0
2	95534	50.91	0
2	95728	51.01	0
2	95916	51.11	0
2	96104	51.21	0
2	96292	51.31	0
2	96480	51.41	0
2	96668	51.51	0
2	96856	51.61	0
2	97044	51.71	0
2	97232	51.81	0
2	97420	51.91	0
2	97614	52.01	0
2	97802	52.11	0
2	97990	52.21	0
2	98178	52.31	0
2	98366	52.41	0
2	98554	52.51	0
2	98742	52.61	0
2	98930	52.71	0
2	99118	52.81	0
2	99306	52.91	0
2	99500	53.01	0
2	99688	53.11	0
2	99876	53.21	0
2	100064	53.31	0
2	100252	53.41	0
2	100440	53.51	0
2	100628	53.61	0
2	100816	53.71	0
2	101004	53.81	0
2	101192	53.91	0
2	101386	54.01	0
2	101574	54.11	0
2	101762	54.21	0
2	101950	54.31	0
2	102138	54.41	0
2	102326	54.51	0
2	102514	54.61	0
2	102702	54.71	0
2	102890	54.81	0
2	103078	54.91	0
2	103272	55.01	0
2	103460	55.11	0
2	103648	55.21	0
2	103836	55.31	0
2	104024	55.41	0
2	104212	55.51	0
2	104400	55.61	0
2	104588	55.71	0
2	104776	55.81	0
2	104964	55.91	0
2	105158	56.01	0
2	105346	56.11	0
2	105534	56.21	0
2	105722	56.31	0
2	105910	56.41	0
2	106098	56.51	0
2	106286	56.61	0
2	106474	56.71	0
2	106662	56.81	0
2	106850	56.91	0
2	107044	57.01	0
2	107232	57.11	0
2	107420	57.21	0
2	107608	57.31	0
2	107796	57.41	0
2	107984	57.51	0
2	108172	57.61	0
2	108360	57.71	0
2	108548	57.81	0
2	108736	57.91	0
2	108930	58.01	0
2	109118	58.11	0
2	109306	58.21	0
2	109494	58.31	0
2	109682	58.41	0
2	109870	58.51	0
2	110058	58.61	0
2	110246	58.71	0
2	110434	58.81	0
2	110622	58.91	0
2	110816	59.01	0
2	111004	59.11	0
2	111192	59.21	0
2	111380	59.31	0
2	111568	59.41	0
2	111756	59.51	0
2	111944	59.61	0
2	112132	59.71	0
2	112320	59.81	0
2	112508	59.91	0
2	112702	60.01	0
2	112890	60.11	0
2	113078	60.21	0
2	113266	60.31	0
2	113454	60.41	0
2	113642	60.51	0
2	113830	60.61	0
2	114018	60.71	0
2	114206	60.81	0
2	114394	60.91	0
2	114588	61.01	0
2	114776	61.11	0
2	114964	61.21	0
2	115152	61.31	0
2	115340	61.41	0
2	115528	61.51	0
2	115716	61.61	0
2	115904	61.71	0
2	116092	61.81	0
2	116280	61.91	0
2	116474	62.01	0
2	116662	62.11	0
2	116850	62.21	0
2	117038	62.31	0
2	117226	62.41	0
2	117414	62.51	0
2	117602	62.61	0
2	117790	62.71	0
2	117978	62.81	0
2	118166	62.91	0
2	118360	63.01	0
2	118548	63.11	0
2	118736	63.21	0
2	118924	63.31	0
2	119112	63.41	0
2	119300	63.51	0
2	119488	63.61	0
2	119676	63.71	0
2	119864	63.81	0
2	120052	63.91	0
2	120246	64.01	0
2	120434	64.11	0
2	120622	64.21	0
2	120810	64.31	0
2	120998	64.41	0
2	121186	64.51	0
2	121374	64.61	0
2	121562	64.71	0
2	121750	64.81	0
2	121938	64.91	0
2	122132	65.01	0
2	122320	65.11	0
2	122508	65.21	0
2	122696	65.31	0
2	122884	65.41	0
2	123072	65.51	0
2	123260	65.61	0
2	123448	65.71	0
2	123636	65.81	0
2	123824	65.91	0
2	124018	66.01	0
2	124206	66.11	0
2	124394	66.21	0
2	124582	66.31	0
2	124770	66.41	0
2	124958	66.51	0
2	125146	66.61	0
2	125334	66.71	0
2	125522	66.81	0
2	125710	66.91	0
2	125904	67.01	0
2	126092	67.11	0
2	126280	67.21	0
2	126468	67.31	0
2	126656	67.41	0
2	126844	67.51	0
2	127032	67.61	0
2	127220	67.71	0
2	127408	67.81	0
2	127596	67.91	0
2	127790	68.01	0
2	127978	68.11	0
2	128166	68.21	0
2	128354	68.31	0
2	128542	68.41	0
2	128730	68.51	0
2	128918	68.61	0
2	129106	68.71	0
2	129294	68.81	0
2	129482	68.91	0
2	129676	69.01	0
2	129864	69.11	0
2	130052	69.21	0
2	130240	69.31	0
2	130428	69.41	0
2	130616	69.51	0
2	130804	69.61	0
2	130992	69.71	0
2	131180	69.81	0
2	131368	69.91	0
2	131562	70.01	0
2	131750	70.11	0
2	131938	70.21	0
2	132126	70.31	0
2	132314	70.41	0
2	132502	70.51	0
2	132690	70.61	0
2	132878	70.71	0
2	133066	70.81	0
2	133254	70.91	0
2	133448	71.01	0
2	133636	71.11	0
2	133824	71.21	0
2	134012	71.31	0
2	134200	71.41	0
2	134388	71.51	0
2	134576	71.61	0
2	134764	71.71	0
2	134952	71.81	0
2	135140	71.91	0
2	135334	72.01	0
2	135522	72.11	0
2	135710	72.21	0
2	135898	72.31	0
2	136086	72.41	0
2	136274	72.51	0
2	136462	72.61	0
2	136650	72.71	0
2	136838	72.81	0
2	137026	72.91	0
2	137220	73.01	0
2	137408	73.11	0
2	137596	73.21	0
2	137784	73.31	0
2	137972	73.41	0
2	138160	73.51	0
2	138348	73.61	0
2	138536	73.71	0
2	138724	73.81	0
2	138912	73.91	0
2	139106	74.01	0
2	139294	74.11	0
2	139482	74.21	0
2	139670	74.31	0
2	139858	74.41	0
2	140046	74.51	0
2	140234	74.61	0
2	140422	74.71	0
2	140610	74.81	0
2	140798	74.91	0
2	140992	75.01	0
2	141180	75.11	0
2	141368	75.21	0
2	141556	75.31	0
2	141744	75.41	0
2	141932	75.51	0
2	142120	75.61	0
2	142308	75.71	0
2	142496	75.81	0
2	142684	75.91	0
2	142878	76.01	0
2	143066	76.11	0
2	143254	76.21	0
2	143442	76.31	0
2	143630	76.41	0
2	143818	76.51	0
2	144006	76.61	0
2	144194	76.71	0
2	144382	76.81	0
2	144570	76.91	0
2	144764	77.01	0
2	144952	77.11	0
2	145140	77.21	0
2	145328	77.31	0
2	145516	77.41	0
2	145704	77.51	0
2	145892	77.61	0
2	146080	77.71	0
2	146268	77.81	0
2	146456	77.91	0
2	146650	78.01	0
2	146838	78.11	0
2	147026	78.21	0
2	147214	78.31	0
2	147402	78.41	0
2	147590	78.51	0
2	147778	78.61	0
2	147966	78.71	0
2	148154	78.81	0
2	148342	78.91	0
2	148536	79.01	0
2	148724	79.11	0
2	148912	79.21	0
2	149100	79.31	0
2	149288	79.41	0
2	149476	79.51	0
2	149664	79.61	0
2	149852	79.71	0
2	150040	79.81	0
2	150228	79.91	0
2	150422	80.01	0
2	150610	80.11	0
2	150798	80.21	0
2	150986	80.31	0
2	151174	80.41	0
2	151362	80.51	0
2	151550	80.61	0
2	151738	80.71	0
2	151926	80.81	0
2	152114	80.91	0
2	152308	81.01	0
2	152496	81.11	0
2	152684	81.21	0
2	152872	81.31	0
2	153060	81.41	0
2	153248	81.51	0
2	153436	81.61	0
2	153624	81.71	0
2	153812	81.81	0
2	154000	81.91	0
2	154194	82.01	0
2	154382	82.11	0
2	154570	82.21	0
2	154758	82.31	0
2	154946	82.41	0
2	155134	82.51	0
2	155322	82.61	0
2	155510	82.71	0
2	155698	82.81	0
2	155886	82.91	0
2	156080	83.01	0
2	156268	83.11	0
2	156456	83.21	0
2	156644	83.31	0
2	156832	83.41	0
2	157020	83.51	0
2	157208	83.61	0
2	157396	83.71	0
2	157584	83.81	0
2	157772	83.91	0
2	157966	84.01	0
2	158154	84.11	0
2	158342	84.21	0
2	158530	84.31	0
2	158718	84.41	0
2	158906	84.51	0
2	159094	84.61	0
2	159282	84.71	0
2	159470	84.81	0
2	159658	84.91	0
2	159852	85.01	0
2	160040	85.11	0
2	160228	85.21	0
2	160416	85.31	0
2	160604	85.41	0
2	160792	85.51	0
2	160980	85.61	0
2	161168	85.71	0
2	161356	85.81	0
2	161544	85.91	0
2	161738	86.01	0
2	161926	86.11	0
2	162114	86.21	0
2	162302	86.31	0
2	162490	86.41	0
2	162678	86.51	0
2	162866	86.61	0
2	163054	86.71	0
2	163242	86.81	0
2	163430	86.91	0
2	163624	87.01	0
2	163812	87.11	0
2	164000	87.21	0
2	164188	87.31	0
2	164376	87.41	0
2	164564	87.51	0
2	164752	87.61	0
2	164940	87.71	0
2	165128	87.81	0
2	165316	87.91	0
2	165510	88.01	0
2	165698	88.11	0
2	165886	88.21	0
2	166074	88.31	0
2	166262	88.41	0
2	166450	88.51	0
2	166638	88.61	0
2	166826	88.71	0
2	167014	88.81	0
2	167202	88.91	0
2	167396	89.01	0
2	167584	89.11	0
2	167772	89.21	0
2	167960	89.31	0
2	168148	89.41	0
2	168336	89.51	0
2	168524	89.61	0
2	168712	89.71	0
2	168900	89.81	0
2	169088	89.91	0
2	169282	90.01	0
2	169470	90.11	0
2	169658	90.21	0
2	169846	90.31	0
2	170034	90.41	0
2	170222	90.51	0
2	170410	90.61	0
2	170598	90.71	0
2	170786	90.81	0
2	170974	90.91	0
2	171168	91.01	0
2	171356	91.11	0
2	171544	91.21	0
2	171732	91.31	0
2	171920	91.41	0
2	172108	91.51	0
2	172296	91.61	0
2	172484	91.71	0
2	172672	91.81	0
2	172860	91.91	0
2	173054	92.01	0
2	173242	92.11	0
2	173430	92.21	0
2	173618	92.31	0
2	173806	92.41	0
2	173994	92.51	0
2	174182	92.61	0
2	174370	92.71	0
2	174558	92.81	0
2	174746	92.91	0
2	174940	93.01	0
2	175128	93.11	0
2	175316	93.21	0
2	175504	93.31	0
2	175692	93.41	0
2	175880	93.51	0
2	176068	93.61	0
2	176256	93.71	0
2	176444	93.81	0
2	176632	93.91	0
2	176826	94.01	0
2	177014	94.11	0
2	177202	94.21	0
2	177390	94.31	0
2	177578	94.41	0
2	177766	94.51	0
2	177954	94.61	0
2	178142	94.71	0
2	178330	94.81	0
2	178518	94.91	0
2	178712	95.01	0
2	178900	95.11	0
2	179088	95.21	0
2	179276	95.31	0
2	179464	95.41	0
2	179652	95.51	0
2	179840	95.61	0
2	180028	95.71	0
2	180216	95.81	0
2	180404	95.91	0
2	180598	96.01	0
2	180786	96.11	0
2	180974	96.21	0
2	181162	96.31	0
2	181350	96.41	0
2	181538	96.51	0
2	181726	96.61	0
2	181914	96.71	0
2	182102	96.81	0
2	182290	96.91	0
2	182484	97.01	0
2	182672	97.11	0
2	182860	97.21	0
2	183048	97.31	0
2	183236	97.41	0
2	183424	97.51	0
2	183612	97.61	0
2	183800	97.71	0
2	183988	97.81	0
2	184176	97.91	0
2	184370	98.01	0
2	184558	98.11	0
2	184746	98.21	0
2	184934	98.31	0
2	185122	98.41	0
2	185310	98.51	0
2	185498	98.61	0
2	185686	98.71	0
2	185874	98.81	0
2	186062	98.91	0
2	186256	99.01	0
2	186444	99.11	0
2	186632	99.21	0
2	186820	99.31	0
2	187008	99.41	0
2	187196	99.51	0
2	187384	99.61	0
2	187572	99.71	0
2	187760	99.81	0
2	187948	99.91	0
3	113	1.11	0.000179096
3	301	1.21	0.000340852
3	489	1.31	0.000467435
3	677	1.41	0.000562893
3	865	1.51	0.000631106
3	1053	1.61	0.000675745
3	1241	1.71	0.000700245
3	1429	1.81	0.000707784
3	1617	1.91	0.000701273
3	1811	2.01	0.000683354
3	1999	2.11	0.000656398
3	2187	2.21	0.000622512
3	2375	2.31	0.000583548
3	2563	2.41	0.000541117
3	2751	2.51	0.000496604
3	2939	2.61	0.000451181
3	3127	2.71	0.000405825
3	3315	2.81	0.00036134
3	3503	2.91	0.000318365
3	3697	3.01	0.0002774
3	3885	3.11	0.00023882
3	4073	3.21	0.000202887
3	4261	3.31	0.00016977
3	4449	3.41	0.000139558
3	4637	3.51	0.000112271
3	4825	3.61	8.78717e-05
3	5013	3.71	6.628e-05
3	5201	3.81	4.73785e-05
3	5389	3.91	3.1023e-05
3	5583	4.01	1.70493e-05
3	5771	4.11	5.28023e-06
3	5959	4.21	-4.46922e-06
3	6147	4.31	-1.2387e-05
3	6335	4.41	-1.86602e-05
3	6523	4.51	-2.34717e-05
3	6711	4.61	-2.69978e-05
3	6899	4.71	-2.94062e-05
3	7087	4.81	-3.08545e-05
3	7275	4.91	-3.14892e-05
3	7469	5.01	-3.14451e-05
3	7657	5.11	-3.0845e-05
3	7845	5.21	-2.97994e-05
3	8033	5.31	-2.84072e-05
3	8221	5.41	-2.67556e-05
3	8409	5.51	-2.49208e-05
3	8597	5.61	-2.29687e-05
3	8785	5.71	-2.09553e-05
3	8973	5.81	-1.89277e-05
3	9161	5.91	-1.6925e-05
3	9355	6.01	-1.49784e-05
3	9543	6.11	-1.31129e-05
3	9731	6.21	-1.13474e-05
3	9919	6.31	-9.69553e-06
3	10107	6.41	-8.16651e-06
3	10295	6.51	-6.76571e-06
3	10483	6.61	-5.49522e-06
3	10671	6.71	-4.35441e-06
3	10859	6.81	-3.34045e-06
3	11047	6.91	-2.44874e-06
3	11241	7.01	-1.6733e-06
3	11429	7.11	-1.00716e-06
3	11617	7.21	-4.42628e-07
3	11805	7.31	2.84224e-08
3	11993	7.41	4.14339e-07
3	12181	7.51	7.23492e-07
3	12369	7.61	9.6413e-07
3	12557	7.71	1.14424e-06
3	12745	7.81	1.27148e-06
3	12933	7.91	1.35305e-06
3	13127	8.01	1.3957e-06
3	13315	8.11	1.40565e-06
3	13503	8.21	1.3886e-06
3	13691	8.31	1.34971e-06
3	13879	8.41	1.2936e-06
3	14067	8.51	1.22437e-06
3	14255	8.61	1.14561e-06
3	14443	8.71	1.06046e-06
3	14631	8.81	9.71582e-07
3	14819	8.91	8.81246e-07
3	15013	9.01	7.91334e-07
3	15201	9.11	7.03381e-07
3	15389	9.21	6.18613e-07
3	15577	9.31	5.37979e-07
3	15765	9.41	4.62183e-07
3	15953	9.51	3.91714e-07
3	16141	9.61	3.26878e-07
3	16329	9.71	2.67827e-07
3	16517	9.81	2.14581e-07
3	16705	9.91	1.67052e-07
3	16957	10.01	1.25066e-07
3	17149	10.11	8.83794e-08
3	17341	10.21	5.66978e-08
3	17533	10.31	2.96922e-08
3	17725	10.41	7.00453e-09
3	17917	10.51	-1.17325e-08
3	18109	10.61	-2.68933e-08
3	18301	10.71	-3.88482e-08
3	18493	10.81	-4.79581e-08
3	18685	10.91	-5.45704e-08
3	18883	11.01	-5.90177e-08
3	19075	11.11	-6.16069e-08
3	19267	11.21	-6.26265e-08
3	19459	11.31	-6.23395e-08
3	19651	11.41	-6.09859e-08
3	19843	11.51	-5.87811e-08
3	20035	11.61	-5.59183e-08
3	20227	11.71	-5.25674e-08
3	20419	11.81	-4.88761e-08
3	20611	11.91	-4.4971e-08
3	20809	12.01	-4.09599e-08
3	21001	12.11	-3.69354e-08
3	21193	12.21	-3.29713e-08
3	21385	12.31	-2.9128e-08
3	21577	12.41	-2.54531e-08
3	21769	12.51	-2.19821e-08
3	21961	12.61	-1.87399e-08
3	22153	12.71	-1.57428e-08
3	22345	12.81	-1.30029e-08
3	22537	12.91	-1.05217e-08
3	22735	13.01	-8.29772e-09
3	22927	13.11	-6.32454e-09
3	23119	13.21	-4.59224e-09
3	23311	13.31	-3.08802e-09
3	23503	13.41	-1.79838e-09
3	23695	13.51	-7.08411e-10
3	23887	13.61	1.98241e-10
3	24079	13.71	9.37916e-10
3	24271	13.81	1.52767e-09
3	24463	13.91	1.98384e-09
3	24661	14.01	2.32276e-09
3	24853	14.11	2.55937e-09
3	25045	14.21	2.70788e-09
3	25237	14.31	2.78249e-09
3	25429	14.41	2.79243e-09
3	25621	14.51	2.7498e-09
3	25813	14.61	2.66525e-09
3	26005	14.71	2.54872e-09
3	26197	14.81	2.40803e-09
3	26389	14.91	2.24887e-09
3	26587	15.01	2.07763e-09
3	26779	15.11	1.89999e-09
3	26971	15.21	1.72236e-09
3	27163	15.31	1.54472e-09
3	27355	15.41	1.37064e-09
3	27547	15.51	1.20295e-09
3	27739	15.61	1.04379e-09
3	27931	15.71	8.94573e-10
3	28123	15.81	7.56017e-10
3	28315	15.91	6.29541e-10
3	28513	16.01	5.13012e-10
3	28705	16.11	4.09273e-10
3	28897	16.21	3.16902e-10
3	29089	16.31	2.3519e-10
3	29281	16.41	1.63425e-10
3	29473	16.51	1.02318e-10
3	29665	16.61	4.9738e-11
3	29857	16.71	5.68434e-12
3	30049	16.81	-3.05533e-11
3	30241	16.91	-5.8975e-11
3	30439	17.01	-8.10019e-11
3	30631	17.11	-9.80549e-11
3	30823	17.21	-1.11555e-10
3	31015	17.31	-1.18661e-10
3	31207	17.41	-1.23634e-10
3	31399	17.51	-1.23634e-10
3	31591	17.61	-1.23634e-10
3	31783	17.71	-1.21503e-10
3	31975	17.81	-1.14397e-10
3	32167	17.91	-1.07292e-10
3	32365	18.01	-1.00187e-10
3	32557	18.11	-9.30811e-11
3	32749	18.21	-8.59757e-11
3	32941	18.31	-7.88702e-11
3	33133	18.41	-7.17648e-11
3	33325	18.51	-6.46594e-11
3	33517	18.61	-5.7554e-11
3	33709	18.71	-5.04485e-11
3	33901	18.81	-4.33431e-11
3	34093	18.91	-3.62377e-11
3	34291	19.01	-2.91323e-11
3	34483	19.11	-2.20268e-11
3	34675	19.21	-1.7053e-11
3	34867	19.31	-1.49214e-11
3	35059	19.41	-1.35003e-11
3	35251	19.51	-1.27898e-11
3	35443	19.61	-1.13687e-11
3	35635	19.71	-9.9476e-12
3	35827	19.81	-9.23706e-12
3	36019	19.91	-8.52651e-12
3	36217	20.01	-7.81597e-12
3	36409	20.11	-7.10543e-12
3	36601	20.21	-6.39488e-12
3	36793	20.31	-5.68434e-12
3	36985	20.41	-4.9738e-12
3	37177	20.51	-4.26326e-12
3	37369	20.61	-4.26326e-12
3	37561	20.71	-3.55271e-12
3	37753	20.81	-3.55271e-12
3	37945	20.91	-2.84217e-12
3	38143	21.01	-2.84217e-12
3	38335	21.11	-2.84217e-12
3	38527	21.21	-2.13163e-12
3	38719	21.31	-2.13163e-12
3	38911	21.41	-2.13163e-12
3	39103	21.51	-1.42109e-12
3	39295	21.61	-1.42109e-12
3	39487	21.71	-1.42109e-12
3	39679	21.81	-1.42109e-12
3	39871	21.91	-1.42109e-12
3	40069	22.01	-7.10543e-13
3	40261	22.11	-7.10543e-13
3	40453	22.21	-7.10543e-13
3	40645	22.31	-7.10543e-13
3	40837	22.41	-7.10543e-13
3	41029	22.51	-7.10543e-13
3	41221	22.61	-7.10543e-13
3	41413	22.71	-7.10543e-13
3	41605	22.81	-7.10543e-13
3	41797	22.91	-7.10543e-13
3	41995	23.01	0
3	42187	23.11	0
3	42379	23.21	0
3	42571	23.31	0
3	42763	23.41	0
3	42955	23.51	0
3	43147	23.61	0
3	43339	23.71	0
3	43531	23.81	0
3	43723	23.91	0
3	43921	24.01	0
3	44113	24.11	0
3	44305	24.21	0
3	44497	24.31	0
3	44689	24.41	0
3	44881	24.51	0
3	45073	24.61	0
3	45265	24.71	0
3	45457	24.81	0
3	45649	24.91	0
3	45847	25.01	0
3	46039	25.11	0
3	46231	25.21	0
3	46423	25.31	0
3	46615	25.41	0
3	46807	25.51	0
3	46999	25.61	0
3	47191	25.71	0
3	47383	25.81	0
3	47575	25.91	0
3	47773	26.01	0
3	47965	26.11	0
3	48157	26.21	0
3	48349	26.31	0
3	48541	26.41	0
3	48733	26.51	0
3	48925	26.61	0
3	49117	26.71	0
3	49309	26.81	0
3	49501	26.91	0
3	49699	27.01	0
3	49891	27.11	0
3	50083	27.21	0
3	50275	27.31	0
3	50467	27.41	0
3	50659	27.51	0
3	50851	27.61	0
3	51043	27.71	0
3	51235	27.81	0
3	51427	27.91	0
3	51625	28.01	0
3	51817	28.11	0
3	52009	28.21	0
3	52201	28.31	0
3	52393	28.41	0
3	52585	28.51	0
3	52777	28.61	0
3	52969	28.71	0
3	53161	28.81	0
3	53353	28.91	0
3	53551	29.01	0
3	53743	29.11	0
3	53935	29.21	0
3	54180	29.31	0
3	54371	29.41	0
3	54562	29.51	0
3	54753	29.61	0
3	54944	29.71	0
3	55135	29.81	0
3	55326	29.91	0
3	55523	30.01	0
3	55714	30.11	0
3	55905	30.21	0
3	56096	30.31	0
3	56287	30.41	0
3	56478	30.51	0
3	56669	30.61	0
3	56860	30.71	0
3	57051	30.81	0
3	57242	30.91	0
3	57439	31.01	0
3	57630	31.11	0
3	57821	31.21	0
3	58012	31.31	0
3	58203	31.41	0
3	58394	31.51	0
3	58585	31.61	0
3	58776	31.71	0
3	58967	31.81	0
3	59158	31.91	0
3	59355	32.01	0
3	59546	32.11	0
3	59737	32.21	0
3	59928	32.31	0
3	60119	32.41	0
3	60310	32.51	0
3	60501	32.61	0
3	60692	32.71	0
3	60883	32.81	0
3	61074	32.91	0
3	61271	33.01	0
3	61462	33.11	0
3	61653	33.21	0
3	61844	33.31	0
3	62035	33.41	0
3	62279	33.51	0
3	62469	33.61	0
3	62659	33.71	0
3	62849	33.81	0
3	63039	33.91	0
3	63235	34.01	0
3	63425	34.11	0
3	63615	34.21	0
3	63805	34.31	0
3	63995	34.41	0
3	64185	34.51	0
3	64375	34.61	0
3	64565	34.71	0
3	64755	34.81	0
3	64945	34.91	0
3	65141	35.01	0
3	65331	35.11	0
3	65521	35.21	0
3	65711	35.31	0
3	65901	35.41	0
3	66091	35.51	0
3	66281	35.61	0
3	66471	35.71	0
3	66661	35.81	0
3	66851	35.91	0
3	67047	36.01	0
3	67237	36.11	0
3	67427	36.21	0
3	67617	36.31	0
3	67807	36.41	0
3	67997	36.51	0
3	68187	36.61	0
3	68377	36.71	0
3	68567	36.81	0
3	68757	36.91	0
3	68953	37.01	0
3	69143	37.11	0
3	69333	37.21	0
3	69523	37.31	0
3	69713	37.41	0
3	70115	37.51	0
3	70304	37.61	0
3	70493	37.71	0
3	70682	37.81	0
3	70871	37.91	0
3	71066	38.01	0
3	71255	38.11	0
3	71444	38.21	0
3	71633	38.31	0
3	71822	38.41	0
3	72011	38.51	0
3	72200	38.61	0
3	72389	38.71	0
3	72578	38.81	0
3	72767	38.91	0
3	72962	39.01	0
3	73151	39.11	0
3	73340	39.21	0
3	73529	39.31	0
3	73718	39.41	0
3	73907	39.51	0
3	74096	39.61	0
3	74285	39.71	0
3	74474	39.81	0
3	74663	39.91	0
3	74858	40.01	0
3	75047	40.11	0
3	75236	40.21	0
3	75425	40.31	0
3	75614	40.41	0
3	75803	40.51	0
3	75992	40.61	0
3	76181	40.71	0
3	76370	40.81	0
3	76559	40.91	0
3	76754	41.01	0
3	76943	41.11	0
3	77132	41.21	0
3	77321	41.31	0
3	77510	41.41	0
3	77699	41.51	0
3	77888	41.61	0
3	78077	41.71	0
3	78266	41.81	0
3	78455	41.91	0
3	78650	42.01	0
3	78839	42.11	0
3	79028	42.21	0
3	79217	42.31	0
3	79406	42.41	0
3	79595	42.51	0
3	79784	42.61	0
3	79973	42.71	0
3	80162	42.81	0
3	80351	42.91	0
3	80546	43.01	0
3	80735	43.11	0
3	80924	43.21	0
3	81113	43.31	0
3	81302	43.41	0
3	81491	43.51	0
3	81680	43.61	0
3	81869	43.71	0
3	82058	43.81	0
3	82247	43.91	0
3	82442	44.01	0
3	82631	44.11	0
3	82820	44.21	0
3	83009	44.31	0
3	83198	44.41	0
3	83387	44.51	0
3	83576	44.61	0
3	83765	44.71	0
3	83954	44.81	0
3	84143	44.91	0
3	84338	45.01	0
3	84527	45.11	0
3	84716	45.21	0
3	84905	45.31	0
3	85094	45.41	0
3	85283	45.51	0
3	85472	45.61	0
3	85661	45.71	0
3	85916	45.81	0
3	86104	45.91	0
3	86298	46.01	0
3	86486	46.11	0
3	86674	46.21	0
3	86862	46.31	0
3	87050	46.41	0
3	87238	46.51	0
3	87426	46.61	0
3	87614	46.71	0
3	87802	46.81	0
3	87990	46.91	0
3	88184	47.01	0
3	88372	47.11	0
3	88560	47.21	0
3	88748	47.31	0
3	88936	47.41	0
3	89124	47.51	0
3	89312	47.61	0
3	89500	47.71	0
3	89688	47.81	0
3	89876	47.91	0
3	90070	48.01	0
3	90258	48.11	0
3	90446	48.21	0
3	90634	48.31	0
3	90822	48.41	0
3	91010	48.51	0
3	91198	48.61	0
3	91386	48.71	0
3	91574	48.81	0
3	91762	48.91	0
3	91956	49.01	0
3	92144	49.11	0
3	92332	49.21	0
3	92520	49.31	0
3	92708	49.41	0
3	92896	49.51	0
3	93084	49.61	0
3	93272	49.71	0
3	93460	49.81	0
3	93648	49.91	0
3	93842	50.01	0
3	94030	50.11	0
3	94218	50.21	0
3	94406	50.31	0
3	94594	50.41	0
3	94782	50.51	0
3	94970	50.61	0
3	95158	50.71	0
3	95346	50.81	0
3	95534	50.91	0
3	95728	51.01	0
3	95916	51.11	0
3	96104	51.21	0
3	96292	51.31	0
3	96480	51.41	0
3	96668	51.51	0
3	96856	51.61	0
3	97044	51.71	0
3	97232	51.81	0
3	97420	51.91	0
3	97614	52.01	0
3	97802	52.11	0
3	97990	52.21	0
3	98178	52.31	0
3	98366	52.41	0
3	98554	52.51	0
3	98742	52.61	0
3	98930	52.71	0
3	99118	52.81	0
3	99306	52.91	0
3	99500	53.01	0
3	99688	53.11	0
3	99876	53.21	0
3	100064	53.31	0
3	100252	53.41	0
3	100440	53.51	0
3	100628	53.61	0
3	100816	53.71	0
3	101004	53.81	0
3	101192	53.91	0
3	101386	54.01	0
3	101574	54.11	0
3	101762	54.21	0
3	101950	54.31	0
3	102138	54.41	0
3	102326	54.51	0
3	102514	54.61	0
3	102702	54.71	0
3	102890	54.81	0
3	103078	54.91	0
3	103272	55.01	0
3	103460	55.11	0
3	103648	55.21	0
3	103836	55.31	0
3	104024	55.41	0
3	104212	55.51	0
3	104400	55.61	0
3	104588	55.71	0
3	104776	55.81	0
3	104964	55.91	0
3	105158	56.01	0
3	105346	56.11	0
3	105534	56.21	0
3	105722	56.31	0
3	105910	56.41	0
3	106098	56.51	0
3	106286	56.61	0
3	106474	56.71	0
3	106662	56.81	0
3	106850	56.91	0
3	107044	57.01	0
3	107232	57.11	0
3	107420	57.21	0
3	107608	57.31	0
3	107796	57.41	0
3	107984	57.51	0
3	108172	57.61	0
3	108360	57.71	0
3	108548	57.81	0
3	108736	57.91	0
3	108930	58.01	0
3	109118	58.11	0
3	109306	58.21	0
3	109494	58.31	0
3	109682	58.41	0
3	109870	58.51	0
3	110058	58.61	0
3	110246	58.71	0
3	110434	58.81	0
3	110622	58.91	0
3	110816	59.01	0
3	111004	59.11	0
3	111192	59.21	0
3	111380	59.31	0
3	111568	59.41	0
3	111756	59.51	0
3	111944	59.61	0
3	112132	59.71	0
3	112320	59.81	0
3	112508	59.91	0
3	112702	60.01	0
3	112890	60.11	0
3	113078	60.21	0
3	113266	60.31	0
3	113454	60.41	0
3	113642	60.51	0
3	113830	60.61	0
3	114018	60.71	0
3	114206	60.81	0
3	114394	60.91	0
3	114588	61.01	0
3	114776	61.11	0
3	114964	61.21	0
3	115152	61.31	0
3	115340	61.41	0
3	115528	61.51	0
3	115716	61.61	0
3	115904	61.71	0
3	116092	61.81	0
3	116280	61.91	0
3	116474	62.01	0
3	116662	62.11	0
3	116850	62.21	0
3	117038	62.31	0
3	117226	62.41	0
3	117414	62.51	0
3	117602	62.61	0
3	117790	62.71	0
3	117978	62.81	0
3	118166	62.91	0
3	118360	63.01	0
3	118548	63.11	0
3	118736	63.21	0
3	118924	63.31	0
3	119112	63.41	0
3	119300	63.51	0
3	119488	63.61	0
3	119676	63.71	0
3	119864	63.81	0
3	120052	63.91	0
3	120246	64.01	0
3	120434	64.11	0
3	120622	64.21	0
3	120810	64.31	0
3	120998	64.41	0
3	121186	64.51	0
3	121374	64.61	0
3	121562	64.71	0
3	121750	64.81	0
3	121938	64.91	0
3	122132	65.01	0
3	122320	65.11	0
3	122508	65.21	0
3	122696	65.31	0
3	122884	65.41	0
3	123072	65.51	0
3	123260	65.61	0
3	123448	65.71	0
3	123636	65.81	0
3	123824	65.91	0
3	124018	66.01	0
3	124206	66.11	0
3	124394	66.21	0
3	124582	66.31	0
3	124770	66.41	0
3	124958	66.51	0
3	125146	66.61	0
3	125334	66.71	0
3	125522	66.81	0
3	125710	66.91	0
3	125904	67.01	0
3	126092	67.11	0
3	126280	67.21	0
3	126468	67.31	0
3	126656	67.41	0
3	126844	67.51	0
3	127032	67.61	0
3	127220	67.71	0
3	127408	67.81	0
3	127596	67.91	0
3	127790	68.01	0
3	127978	68.11	0
3	128166	68.21	0
3	128354	68.31	0
3	128542	68.41	0
3	128730	68.51	0
3	128918	68.61	0
3	129106	68.71	0
3	129294	68.81	0
3	129482	68.91	0
3	129676	69.01	0
3	129864	69.11	0
3	130052	69.21	0
3	130240	69.31	0
3	130428	69.41	0
3	130616	69.51	0
3	130804	69.61	0
3	130992	69.71	0
3	131180	69.81	0
3	131368	69.91	0
3	131562	70.01	0
3	131750	70.11	0
3	131938	70.21	0
3	132126	70.31	0
3	132314	70.41	0
3	132502	70.51	0
3	132690	70.61	0
3	132878	70.71	0
3	133066	70.81	0
3	133254	70.91	0
3	133448	71.01	0
3	133636	71.11	0
3	133824	71.21	0
3	134012	71.31	0
3	134200	71.41	0
3	134388	71.51	0
3	134576	71.61	0
3	134764	71.71	0
3	134952	71.81	0
3	135140	71.91	0
3	135334	72.01	0
3	135522	72.11	0
3	135710	72.21	0
3	135898	72.31	0
3	136086	72.41	0
3	136274	72.51	0
3	136462	72.61	0
3	136650	72.71	0
3	136838	72.81	0
3	137026	72.91	0
3	137220	73.01	0
3	137408	73.11	0
3	137596	73.21	0
3	137784	73.31	0
3	137972	73.41	0
3	138160	73.51	0
3	138348	73.61	0
3	138536	73.71	0
3	138724	73.81	0
3	138912	73.91	0
3	139106	74.01	0
3	139294	74.11	0
3	139482	74.21	0
3	139670	74.31	0
3	139858	74.41	0
3	140046	74.51	0
3	140234	74.61	0
3	140422	74.71	0
3	140610	74.81	0
3	140798	74.91	0
3	140992	75.01	0
3	141180	75.11	0
3	141368	75.21	0
3	141556	75.31	0
3	141744	75.41	0
3	141932	75.51	0
3	142120	75.61	0
3	142308	75.71	0
3	142496	75.81	0
3	142684	75.91	0
3	142878	76.01	0
3	143066	76.11	0
3	143254	76.21	0
3	143442	76.31	0
3	143630	76.41	0
3	143818	76.51	0
3	144006	76.61	0
3	144194	76.71	0
3	144382	76.81	0
3	144570	76.91	0
3	144764	77.01	0
3	144952	77.11	0
3	145140	77.21	0
3	145328	77.31	0
3	145516	77.41	0
3	145704	77.51	0
3	145892	77.61	0
3	146080	77.71	0
3	146268	77.81	0
3	146456	77.91	0
3	146650	78.01	0
3	146838	78.11	0
3	147026	78.21	0
3	147214	78.31	0
3	147402	78.41	0
3	147590	78.51	0
3	147778	78.61	0
3	147966	78.71	0
3	148154	78.81	0
3	148342	78.91	0
3	148536	79.01	0
3	148724	79.11	0
3	148912	79.21	0
3	149100	79.31	0
3	149288	79.41	0
3	149476	79.51	0
3	149664	79.61	0
3	149852	79.71	0
3	150040	79.81	0
3	150228	79.91	0
3	150422	80.01	0
3	150610	80.11	0
3	150798	80.21	0
3	150986	80.31	0
3	151174	80.41	0
3	151362	80.51	0
3	151550	80.61	0
3	151738	80.71	0
3	151926	80.81	0
3	152114	80.91	0
3	152308	81.01	0
3	152496	81.11	0
3	152684	81.21	0
3	152872	81.31	0
3	153060	81.41	0
3	153248	81.51	0
3	153436	81.61	0
3	153624	81.71	0
3	153812	81.81	0
3	154000	81.91	0
3	154194	82.01	0
3	154382	82.11	0
3	154570	82.21	0
3	154758	82.31	0
3	154946	82.41	0
3	155134	82.51	0
3	155322	82.61	0
3	155510	82.71	0
3	155698	82.81	0
3	155886	82.91	0
3	156080	83.01	0
3	156268	83.11	0
3	156456	83.21	0
3	156644	83.31	0
3	156832	83.41	0
3	157020	83.51	0
3	157208	83.61	0
3	157396	83.71	0
3	157584	83.81	0
3	157772	83.91	0
3	157966	84.01	0
3	158154	84.11	0
3	158342	84.21	0
3	158530	84.31	0
3	158718	84.41	0
3	158906	84.51	0
3	159094	84.61	0
3	159282	84.71	0
3	159470	84.81	0
3	159658	84.91	0
3	159852	85.01	0
3	160040	85.11	0
3	160228	85.21	0
3	160416	85.31	0
3	160604	85.41	0
3	160792	85.51	0
3	160980	85.61	0
3	161168	85.71	0
3	161356	85.81	0
3	161544	85.91	0
3	161738	86.01	0
3	161926	86.11	0
3	162114	86.21	0
3	162302	86.31	0
3	162490	86.41	0
3	162678	86.51	0
3	162866	86.61	0
3	163054	86.71	0
3	163242	86.81	0
3	163430	86.91	0
3	163624	87.01	0
3	163812	87.11	0
3	164000	87.21	0
3	164188	87.31	0
3	164376	87.41	0
3	164564	87.51	0
3	164752	87.61	0
3	164940	87.71	0
3	165128	87.81	0
3	165316	87.91	0
3	165510	88.01	0
3	165698	88.11	0
3	165886	88.21	0
3	166074	88.31	0
3	166262	88.41	0
3	166450	88.51	0
3	166638	88.61	0
3	166826	88.71	0
3	167014	88.81	0
3	167202	88.91	0
3	167396	89.01	0
3	167584	89.11	0
3	167772	89.21	0
3	167960	89.31	0
3	168148	89.41	0
3	168336	89.51	0
3	168524	89.61	0
3	168712	89.71	0
3	168900	89.81	0
3	169088	89.91	0
3	169282	90.01	0
3	169470	90.11	0
3	169658	90.21	0
3	169846	90.31	0
3	170034	90.41	0
3	170222	90.51	0
3	170410	90.61	0
3	170598	90.71	0
3	170786	90.81	0
3	170974	90.91	0
3	171168	91.01	0
3	171356	91.11	0
3	171544	91.21	0
3	171732	91.31	0
3	171920	91.41	0
3	172108	91.51	0
3	172296	91.61	0
3	172484	91.71	0
3	172672	91.81	0
3	172860	91.91	0
3	173054	92.01	0
3	173242	92.11	0
3	173430	92.21	0
3	173618	92.31	0
3	173806	92.41	0
3	173994	92.51	0
3	174182	92.61	0
3	174370	92.71	0
3	174558	92.81	0
3	174746	92.91	0
3	174940	93.01	0
3	175128	93.11	0
3	175316	93.21	0
3	175504	93.31	0
3	175692	93.41	0
3	175880	93.51	0
3	176068	93.61	0
3	176256	93.71	0
3	176444	93.81	0
3	176632	93.91	0
3	176826	94.01	0
3	177014	94.11	0
3	177202	94.21	0
3	177390	94.31	0
3	177578	94.41	0
3	177766	94.51	0
3	177954	94.61	0
3	178142	94.71	0
3	178330	94.81	0
3	178518	94.91	0
3	178712	95.01	0
3	178900	95.11	0
3	179088	95.21	0
3	179276	95.31	0
3	179464	95.41	0
3	179652	95.51	0
3	179840	95.61	0
3	180028	95.71	0
3	180216	95.81	0
3	180404	95.91	0
3	180598	96.01	0
3	180786	96.11	0
3	180974	96.21	0
3	181162	96.31	0
3	181350	96.41	0
3	181538	96.51	0
3	181726	96.61	0
3	181914	96.71	0
3	182102	96.81	0
3	182290	96.91	0
3	182484	97.01	0
3	182672	97.11	0
3	182860	97.21	0
3	183048	97.31	0
3	183236	97.41	0
3	183424	97.51	0
3	183612	97.61	0
3	183800	97.71	0
3	183988	97.81	0
3	184176	97.91	0
3	184370	98.01	0
3	184558	98.11	0
3	184746	98.21	0
3	184934	98.31	0
3	185122	98.41	0
3	185310	98.51	0
3	185498	98.61	0
3	185686	98.71	0
3	185874	98.81	0
3	186062	98.91	0
3	186256	99.01	0
3	186444	99.11	0
3	186632	99.21	0
3	186820	99.31	0
3	187008	99.41	0
3	187196	99.51	0
3	187384	99.61	0
3	187572	99.71	0
3	187760	99.81	0
3	187948	99.91	0
4	113	1.11	0.00109259
4	301	1.21	0.00106709
4	489	1.31	0.00102704
4	677	1.41	0.000975759
4	865	1.51	0.00091619
4	1053	1.61	0.000850891
4	1241	1.71	0.000782061
4	1429	1.81	0.00071157
4	1617	1.91	0.00064098
4	1811	2.01	0.000571575
4	1999	2.11	0.000504387
4	2187	2.21	0.000440223
4	2375	2.31	0.000379691
4	2563	2.41	0.000323223
4	2751	2.51	0.000271102
4	2939	2.61	0.000223482
4	3127	2.71	0.000180409
4	3315	2.81	0.000141839
4	3503	2.91	0.000107653
4	3697	3.01	7.76787e-05
4	3885	3.11	5.16957e-05
4	4073	3.21	2.94534e-05
4	4261	3.31	1.06787e-05
4	4449	3.41	-4.91459e-06
4	4637	3.51	-1.76184e-05
4	4825	3.61	-2.7724e-05
4	5013	3.71	-3.55168e-05
4	5201	3.81	-4.12726e-05
4	5389	3.91	-4.52541e-05
4	5583	4.01	-4.77086e-05
4	5771	4.11	-4.88665e-05
4	5959	4.21	-4.89399e-05
4	6147	4.31	-4.81224e-05
4	6335	4.41	-4.65886e-05
4	6523	4.51	-4.44947e-05
[...]
71	51532	28	0.012482191436
71	53458	29	0.012495184458
71	55431	30	0.012599132199
71	57347	31	0.012495172706
71	59263	32	0.012482167799
71	61179	33	0.012495163455
71	63144	34	0.012632159617
71	65050	35	0.012495156226
71	66956	36	0.01248215324
71	68862	37	0.012495150608
71	70976	38	0.012968848636
71	72872	39	0.012495027837
71	74768	40	0.012481728822
71	76664	41	0.01249424588
71	78560	42	0.01249378551
71	80456	43	0.012480425136
71	82352	44	0.012493178926
71	84248	45	0.012493046627
71	86209	46	0.012493024983
71	88095	47	0.0124800891
71	89981	48	0.012493190107
71	91867	49	0.012493300924
71	93753	50	0.012493416383
71	95639	51	0.012480537262
71	97525	52	0.012493663459
71	99411	53	0.012493792756
71	101297	54	0.012480918718
71	103183	55	0.012494018937
71	105069	56	0.012494053693
71	106955	57	0.012494038185
71	108841	58	0.012481008382
71	110727	59	0.012493975939
71	112613	60	0.012493943612
71	114499	61	0.01248091199
71	116385	62	0.012493880886
71	118271	63	0.012493849719
71	120157	64	0.012480836862
71	122043	65	0.012493853884
71	123929	66	0.01249382672
71	125815	67	0.01249379352
71	127701	68	0.012480744812
71	129587	69	0.01249366711
71	131473	70	0.012493559783
71	133359	71	0.012480435474
71	135245	72	0.012493303003
71	137131	73	0.012493165449
71	139017	74	0.012493022957
71	140903	75	0.012479874036
71	142789	76	0.012492716344
71	144675	77	0.012492548336
71	146561	78	0.012492370728
71	148447	79	0.012492185903
71	150333	80	0.012491996299
71	152219	81	0.012478803645
71	154105	82	0.012491609031
71	155991	83	0.012491413099
71	157877	84	0.01249121627
71	159763	85	0.01249101879
71	161649	86	0.012490823988
71	163535	87	0.012490625804
71	165421	88	0.012490427009
71	167307	89	0.012490228012
71	169193	90	0.012490028862
71	171079	91	0.012489829584
71	172965	92	0.012489630202
71	174851	93	0.012489430735
71	176737	94	0.012489231197
71	178623	95	0.012489031598
71	180509	96	0.012488831945
71	182395	97	0.012488632249
71	184281	98	0.012488432514
71	186167	99	0.012501232743
71	188053	100	0.012488032945
72	1722	2	0
72	3608	3	0
72	5494	4	0
72	7380	5	0
72	9266	6	0
72	11152	7	0
72	13038	8	0
72	14924	9	0
72	16812	10	0
72	18790	11	0
72	20716	12	0
72	22642	13	0
72	24568	14	0
72	26494	15	0
72	28420	16	0
72	30346	17	0
72	32272	18	0
72	34198	19	0
72	36124	20	0
72	38050	21	0
72	39976	22	0
72	41902	23	0
72	43828	24	0
72	45754	25	0
72	47680	26	0
72	49606	27	0
72	51532	28	0
72	53458	29	0
72	55431	30	0
72	57347	31	0
72	59263	32	0
72	61179	33	0
72	63144	34	0
72	65050	35	0
72	66956	36	0
72	68862	37	0
72	70976	38	0
72	72872	39	0
72	74768	40	0
72	76664	41	0
72	78560	42	0
72	80456	43	0
72	82352	44	0
72	84248	45	0
72	86209	46	0
72	88095	47	0
72	89981	48	0
72	91867	49	0
72	93753	50	0
72	95639	51	0
72	97525	52	0
72	99411	53	0
72	101297	54	0
72	103183	55	0
72	105069	56	0
72	106955	57	0
72	108841	58	0
72	110727	59	0
72	112613	60	0
72	114499	61	0
72	116385	62	0
72	118271	63	0
72	120157	64	0
72	122043	65	0
72	123929	66	0
72	125815	67	0
72	127701	68	0
72	129587	69	0
72	131473	70	0
72	133359	71	0
72	135245	72	0
72	137131	73	0
72	139017	74	0
72	140903	75	0
72	142789	76	0
72	144675	77	0
72	146561	78	0
72	148447	79	0
72	150333	80	0
72	152219	81	0
72	154105	82	0
72	155991	83	0
72	157877	84	0
72	159763	85	0
72	161649	86	0
72	163535	87	0
72	165421	88	0
72	167307	89	0
72	169193	90	0
72	171079	91	0
72	172965	92	0
72	174851	93	0
72	176737	94	0
72	178623	95	0
72	180509	96	0
72	182395	97	0
72	184281	98	0
72	186167	99	0
72	188053	100	0
73	1723	2	3
73	3609	3	3
73	5495	4	3
73	7381	5	3
73	9267	6	3
73	11153	7	3
73	13039	8	3
73	14925	9	3
73	16813	10	3
73	18791	11	3
73	20717	12	3
73	22643	13	3
73	24569	14	3
73	26495	15	3
73	28421	16	3
73	30347	17	3
73	32273	18	3
73	34199	19	3
73	36125	20	3
73	38051	21	3
73	39977	22	3
73	41903	23	3
73	43829	24	3
73	45755	25	3
73	47681	26	3
73	49607	27	3
73	51533	28	3
73	53459	29	3
73	55432	30	3
73	57348	31	3
73	59264	32	3
73	61180	33	3
73	63145	34	3
73	65051	35	3
73	66957	36	3
73	68863	37	3
73	70977	38	3
73	72873	39	3
73	74769	40	3
73	76665	41	3
73	78561	42	3
73	80457	43	3
73	82353	44	3
73	84249	45	3
73	86210	46	3
73	88096	47	3
73	89982	48	3
73	91868	49	3
73	93754	50	3
73	95640	51	3
73	97526	52	3
73	99412	53	3
73	101298	54	3
73	103184	55	3
73	105070	56	3
73	106956	57	3
73	108842	58	3
73	110728	59	3
73	112614	60	3
73	114500	61	3
73	116386	62	3
73	118272	63	3
73	120158	64	3
73	122044	65	3
73	123930	66	3
73	125816	67	3
73	127702	68	3
73	129588	69	3
73	131474	70	3
73	133360	71	3
73	135246	72	3
73	137132	73	3
73	139018	74	3
73	140904	75	3
73	142790	76	3
73	144676	77	3
73	146562	78	3
73	148448	79	3
73	150334	80	3
73	152220	81	3
73	154106	82	3
73	155992	83	3
73	157878	84	3
73	159764	85	3
73	161650	86	3
73	163536	87	3
73	165422	88	3
73	167308	89	3
73	169194	90	3
73	171080	91	3
73	172966	92	3
73	174852	93	3
73	176738	94	3
73	178624	95	3
73	180510	96	3
73	182396	97	3
73	184282	98	3
73	186168	99	3
73	188054	100	3
74	1723	2	0.010809619034
74	3609	3	0.01248239888
74	5495	4	0.012495398873
74	7381	5	0.01248239886
74	9267	6	0.01249539886
74	11153	7	0.01249539886
74	13039	8	0.01248239886
74	14925	9	0.01249539886
74	16813	10	0.01248239886
74	18791	11	0.012540358562
74	20717	12	0.012495395504
74	22643	13	0.012482387837
74	24569	14	0.012495376332
74	26495	15	0.012482362173
74	28421	16	0.012495346419
74	30347	17	0.012495329899
74	32273	18	0.012482313249
74	34199	19	0.012495296928
74	36125	20	0.012482281251
74	38051	21	0.012495266435
74	39977	22	0.012495252611
74	41903	23	0.012482239833
74	43829	24	0.012495228119
74	45755	25	0.012482217461
74	47681	26	0.012495207809
74	49607	27	0.012495199118
74	51533	28	0.012482191322
74	53459	29	0.012495184354
74	55432	30	0.012599132103
74	57348	31	0.012495172619
74	59264	32	0.012482167721
74	61180	33	0.012495163384
74	63145	34	0.012599067166
74	65051	35	0.012495156169
74	66957	36	0.012482153189
74	68863	37	0.012495150562
74	70977	38	0.013001988573
74	72873	39	0.012495026003
74	74769	40	0.012481722878
74	76665	41	0.012494237236
74	78561	42	0.012493779128
74	80457	43	0.012480422433
74	82353	44	0.012493180303
74	84249	45	0.012493052278
74	86210	46	0.012493034643
74	88096	47	0.012480100587
74	89982	48	0.01249320145
74	91868	49	0.012493311599
74	93754	50	0.012493426464
74	95640	51	0.012480546836
74	97526	52	0.012493672484
74	99412	53	0.01249380096
74	101298	54	0.012480925008
74	103184	55	0.01249401954
74	105070	56	0.012494046722
74	106956	57	0.012494028071
74	108842	58	0.012480997235
74	110728	59	0.012493964311
74	112614	60	0.01249393169
74	114500	61	0.012480899857
74	116386	62	0.012493868591
74	118272	63	0.01249383729
74	120158	64	0.012480824975
74	122044	65	0.012493841194
74	123930	66	0.01249381397
74	125816	67	0.012493780726
74	127702	68	0.012480731991
74	129588	69	0.012493654286
74	131474	70	0.012493546984
74	133360	71	0.012480422746
74	135246	72	0.012493290412
74	137132	73	0.012493153103
74	139018	74	0.012493011029
74	140904	75	0.012479862776
74	142790	76	0.012492706015
74	144676	77	0.012492539043
74	146562	78	0.012492362323
74	148448	79	0.01249217813
74	150334	80	0.01249198894
74	152220	81	0.012478796553
74	154106	82	0.012491602116
74	155992	83	0.012491406308
74	157878	84	0.012491209566
74	159764	85	0.012491012153
74	161650	86	0.012490817208
74	163536	87	0.012490619263
74	165422	88	0.0124904205
74	167308	89	0.01249022153
74	169194	90	0.012490022401
74	171080	91	0.012489823142
74	172966	92	0.012489623775
74	174852	93	0.012489424322
74	176738	94	0.012489224796
74	178624	95	0.012489025206
74	180510	96	0.012488825562
74	182396	97	0.012488625875
74	184282	98	0.012488426146
74	186168	99	0.012501226383
74	188054	100	0.012488026589
75	1723	2	0
75	3609	3	0
75	5495	4	0
75	7381	5	0
75	9267	6	0
75	11153	7	0
75	13039	8	0
75	14925	9	0
75	16813	10	0
75	18791	11	0
75	20717	12	0
75	22643	13	0
75	24569	14	0
75	26495	15	0
75	28421	16	0
75	30347	17	0
75	32273	18	0
75	34199	19	0
75	36125	20	0
75	38051	21	0
75	39977	22	0
75	41903	23	0
75	43829	24	0
75	45755	25	0
75	47681	26	0
75	49607	27	0
75	51533	28	0
75	53459	29	0
75	55432	30	0
75	57348	31	0
75	59264	32	0
75	61180	33	0
75	63145	34	0
75	65051	35	0
75	66957	36	0
75	68863	37	0
75	70977	38	0
75	72873	39	0
75	74769	40	0
75	76665	41	0
75	78561	42	0
75	80457	43	0
75	82353	44	0
75	84249	45	0
75	86210	46	0
75	88096	47	0
75	89982	48	0
75	91868	49	0
75	93754	50	0
75	95640	51	0
75	97526	52	0
75	99412	53	0
75	101298	54	0
75	103184	55	0
75	105070	56	0
75	106956	57	0
75	108842	58	0
75	110728	59	0
75	112614	60	0
75	114500	61	0
75	116386	62	0
75	118272	63	0
75	120158	64	0
75	122044	65	0
75	123930	66	0
75	125816	67	0
75	127702	68	0
75	129588	69	0
75	131474	70	0
75	133360	71	0
75	135246	72	0
75	137132	73	0
75	139018	74	0
75	140904	75	0
75	142790	76	0
75	144676	77	0
75	146562	78	0
75	148448	79	0
75	150334	80	0
75	152220	81	0
75	154106	82	0
75	155992	83	0
75	157878	84	0
75	159764	85	0
75	161650	86	0
75	163536	87	0
75	165422	88	0
75	167308	89	0
75	169194	90	0
75	171080	91	0
75	172966	92	0
75	174852	93	0
75	176738	94	0
75	178624	95	0
75	180510	96	0
75	182396	97	0
75	184282	98	0
75	186168	99	0
75	188054	100	0
76	1724	2	4
76	3610	3	4
76	5496	4	4
76	7382	5	4
76	9268	6	4
76	11154	7	4
76	13040	8	4
76	14926	9	4
76	16814	10	4
76	18792	11	4
76	20718	12	4
76	22644	13	4
76	24570	14	4
76	26496	15	4
76	28422	16	4
76	30348	17	4
76	32274	18	4
76	34200	19	4
76	36126	20	4
76	38052	21	4
76	39978	22	4
76	41904	23	4
76	43830	24	4
76	45756	25	4
76	47682	26	4
76	49608	27	4
76	51534	28	4
76	53460	29	4
76	55433	30	4
76	57349	31	4
76	59265	32	4
76	61181	33	4
76	63146	34	4
76	65052	35	4
76	66958	36	4
76	68864	37	4
76	70978	38	4
76	72874	39	4
76	74770	40	4
76	76666	41	4
76	78562	42	4
76	80458	43	4
76	82354	44	4
76	84250	45	4
76	86211	46	4
76	88097	47	4
76	89983	48	4
76	91869	49	4
76	93755	50	4
76	95641	51	4
76	97527	52	4
76	99413	53	4
76	101299	54	4
76	103185	55	4
76	105071	56	4
76	106957	57	4
76	108843	58	4
76	110729	59	4
76	112615	60	4
76	114501	61	4
76	116387	62	4
76	118273	63	4
76	120159	64	4
76	122045	65	4
76	123931	66	4
76	125817	67	4
76	127703	68	4
76	129589	69	4
76	131475	70	4
76	133361	71	4
76	135247	72	4
76	137133	73	4
76	139019	74	4
76	140905	75	4
76	142791	76	4
76	144677	77	4
76	146563	78	4
76	148449	79	4
76	150335	80	4
76	152221	81	4
76	154107	82	4
76	155993	83	4
76	157879	84	4
76	159765	85	4
76	161651	86	4
76	163537	87	4
76	165423	88	4
76	167309	89	4
76	169195	90	4
76	171081	91	4
76	172967	92	4
76	174853	93	4
76	176739	94	4
76	178625	95	4
76	180511	96	4
76	182397	97	4
76	184283	98	4
76	186169	99	4
76	188055	100	4
77	1724	2	0.005242659762
77	3610	3	0.006240599717
77	5496	4	0.0062535997
77	7382	5	0.0062535997
77	9268	6	0.0062535997
77	11154	7	0.0062405997
77	13040	8	0.0062535997
77	14926	9	0.0062535997
77	16814	10	0.0062535997
77	18792	11	0.006286597722
77	20718	12	0.006253578966
77	22644	13	0.006253536961
77	24570	14	0.006253478832
77	26496	15	0.006240412491
77	28422	16	0.006253343753
77	30348	17	0.00625327639
77	32274	18	0.006253212677
77	34200	19	0.006240153849
77	36126	20	0.006253100457
77	38052	21	0.006253052599
77	39978	22	0.006253010109
77	41904	23	0.006239972664
77	43830	24	0.00625293985
77	45756	25	0.006252911227
77	47682	26	0.006252886348
77	49608	27	0.006252864785
77	51534	28	0.00623984614
77	53460	29	0.006252830051
77	55433	30	0.006252816187
77	57349	31	0.006252804258
77	59265	32	0.006239794001
77	61181	33	0.006252785191
77	63146	34	0.006252777629
77	65052	35	0.006252771144
77	66958	36	0.006252765584
77	68864	37	0.006239760815
77	70978	38	0.006252756729
77	72874	39	0.006252753233
77	74770	40	0.006252750238
77	76666	41	0.006252747672
77	78562	42	0.006239745478
77	80458	43	0.006252743596
77	82354	44	0.006252741989
77	84250	45	0.006252740611
77	86211	46	0.00653873658
77	88097	47	0.006252729623
77	89983	48	0.00623979426
77	91869	49	0.006252908043
77	93755	50	0.006253035289
77	95641	51	0.006253160468
77	97527	52	0.006240281906
77	99413	53	0.006253400385
77	101299	54	0.006253515101
77	103185	55	0.006253622629
77	105071	56	0.006240714375
77	106957	57	0.00625377062
77	108843	58	0.006253765678
77	110729	59	0.006240702426
77	112615	60	0.006253607455
77	114501	61	0.006253498453
77	116387	62	0.006253382877
77	118273	63	0.006240263842
77	120159	64	0.006253142799
77	122045	65	0.006253020494
77	123931	66	0.006252897349
77	125817	67	0.006239773623
77	127703	68	0.006252649468
77	129589	69	0.006252525002
77	131475	70	0.006252400293
77	133361	71	0.006252275391
77	135247	72	0.00625215034
77	137133	73	0.006239025164
77	139019	74	0.00625189989
77	140905	75	0.006251784889
77	142791	76	0.006251659437
77	144677	77	0.006251533425
77	146563	78	0.00625140741
77	148449	79	0.006251281394
77	150335	80	0.006251155383
77	152221	81	0.00623802937
77	154107	82	0.006250903351
77	155993	83	0.006250777341
77	157879	84	0.006250651329
77	159765	85	0.00625052531
77	161651	86	0.006250399299
77	163537	87	0.006250273287
77	165423	88	0.00625014727
77	167309	89	0.006250021257
77	169195	90	0.006249895245
77	171081	91	0.00624976923
77	172967	92	0.006249643214
77	174853	93	0.006249517203
77	176739	94	0.00624939119
77	178625	95	0.006249265171
77	180511	96	0.006249139161
77	182397	97	0.006249013149
77	184283	98	0.00626188713
77	186169	99	0.006248761119
77	188055	100	0.006248635107
78	1724	2	0
78	3610	3	0
78	5496	4	0
78	7382	5	0
78	9268	6	0
78	11154	7	0
78	13040	8	0
78	14926	9	0
78	16814	10	0
78	18792	11	0
78	20718	12	0
78	22644	13	0
78	24570	14	0
78	26496	15	0
78	28422	16	0
78	30348	17	0
78	32274	18	0
78	34200	19	0
78	36126	20	0
78	38052	21	0
78	39978	22	0
78	41904	23	0
78	43830	24	0
78	45756	25	0
78	47682	26	0
78	49608	27	0
78	51534	28	0
78	53460	29	0
78	55433	30	0
78	57349	31	0
78	59265	32	0
78	61181	33	0
78	63146	34	0
78	65052	35	0
78	66958	36	0
78	68864	37	0
78	70978	38	0
78	72874	39	0
78	74770	40	0
78	76666	41	0
78	78562	42	0
78	80458	43	0
78	82354	44	0
78	84250	45	0
78	86211	46	0
78	88097	47	0
78	89983	48	0
78	91869	49	0
78	93755	50	0
78	95641	51	0
78	97527	52	0
78	99413	53	0
78	101299	54	0
78	103185	55	0
78	105071	56	0
78	106957	57	0
78	108843	58	0
78	110729	59	0
78	112615	60	0
78	114501	61	0
78	116387	62	0
78	118273	63	0
78	120159	64	0
78	122045	65	0
78	123931	66	0
78	125817	67	0
78	127703	68	0
78	129589	69	0
78	131475	70	0
78	133361	71	0
78	135247	72	0
78	137133	73	0
78	139019	74	0
78	140905	75	0
78	142791	76	0
78	144677	77	0
78	146563	78	0
78	148449	79	0
78	150335	80	0
78	152221	81	0
78	154107	82	0
78	155993	83	0
78	157879	84	0
78	159765	85	0
78	161651	86	0
78	163537	87	0
78	165423	88	0
78	167309	89	0
78	169195	90	0
78	171081	91	0
78	172967	92	0
78	174853	93	0
78	176739	94	0
78	178625	95	0
78	180511	96	0
78	182397	97	0
78	184283	98	0
78	186169	99	0
78	188055	100	0
79	1725	2	5
79	3611	3	5
79	5497	4	5
79	7383	5	5
79	9269	6	5
79	11155	7	5
79	13041	8	5
79	14927	9	5
79	16815	10	5
79	18793	11	5
79	20719	12	5
79	22645	13	5
79	24571	14	5
79	26497	15	5
79	28423	16	5
79	30349	17	5
79	32275	18	5
79	34201	19	5
79	36127	20	5
79	38053	21	5
79	39979	22	5
79	41905	23	5
79	43831	24	5
79	45757	25	5
79	47683	26	5
79	49609	27	5
79	51535	28	5
79	53461	29	5
79	55434	30	5
79	57350	31	5
79	59266	32	5
79	61182	33	5
79	63147	34	5
79	65053	35	5
79	66959	36	5
79	68865	37	5
79	70979	38	5
79	72875	39	5
79	74771	40	5
79	76667	41	5
79	78563	42	5
79	80459	43	5
79	82355	44	5
79	84251	45	5
79	86212	46	5
79	88098	47	5
79	89984	48	5
79	91870	49	5
79	93756	50	5
79	95642	51	5
79	97528	52	5
79	99414	53	5
79	101300	54	5
79	103186	55	5
79	105072	56	5
79	106958	57	5
79	108844	58	5
79	110730	59	5
79	112616	60	5
79	114502	61	5
79	116388	62	5
79	118274	63	5
79	120160	64	5
79	122046	65	5
79	123932	66	5
79	125818	67	5
79	127704	68	5
79	129590	69	5
79	131476	70	5
79	133362	71	5
79	135248	72	5
79	137134	73	5
79	139020	74	5
79	140906	75	5
79	142792	76	5
79	144678	77	5
79	146564	78	5
79	148450	79	5
79	150336	80	5
79	152222	81	5
79	154108	82	5
79	155994	83	5
79	157880	84	5
79	159766	85	5
79	161652	86	5
79	163538	87	5
79	165424	88	5
79	167310	89	5
79	169196	90	5
79	171082	91	5
79	172968	92	5
79	174854	93	5
79	176740	94	5
79	178626	95	5
79	180512	96	5
79	182398	97	5
79	184284	98	5
79	186170	99	5
79	188056	100	5
80	1725	2	0.005243679776
80	3611	3	0.006240599718
80	5497	4	0.0062535997
80	7383	5	0.0062535997
80	9269	6	0.0062535997
80	11155	7	0.0062405997
80	13041	8	0.0062535997
80	14927	9	0.0062535997
80	16815	10	0.0062535997
80	18793	11	0.006285598077
80	20719	12	0.006253580516
80	22645	13	0.006253539533
80	24571	14	0.006253482
80	26497	15	0.006240415906
80	28423	16	0.006253347181
80	30349	17	0.006253279681
80	32275	18	0.006253215749
80	34201	19	0.006240156658
80	36127	20	0.00625310299
80	38053	21	0.006253054856
80	39979	22	0.006253012106
80	41905	23	0.006239974418
80	43831	24	0.006252941383
80	45757	25	0.006252912562
80	47683	26	0.006252887506
80	49609	27	0.006252865788
80	51535	28	0.006239847006
80	53461	29	0.006252830798
80	55434	30	0.00625281683
80	57350	31	0.006252804811
80	59266	32	0.006239794476
80	61182	33	0.006252785599
80	63147	34	0.006252777979
80	65053	35	0.006252771445
80	66959	36	0.006252765841
80	68865	37	0.006239761036
80	70979	38	0.006252756918
80	72875	39	0.006252753394
80	74771	40	0.006252750377
80	76667	41	0.006252747791
80	78563	42	0.006239745579
80	80459	43	0.006252743683
80	82355	44	0.006252742063
80	84251	45	0.006252740675
80	86212	46	0.006538737581
80	88098	47	0.006252728113
80	89984	48	0.006239789478
80	91870	49	0.006252901794
80	93756	50	0.006253028931
80	95642	51	0.00625315431
80	97528	52	0.00624027591
80	99414	53	0.006253394538
80	101300	54	0.0062535095
80	103186	55	0.006253617537
80	105072	56	0.006240710441
80	106958	57	0.006253769162
80	108844	58	0.006253767566
80	110730	59	0.006240706583
80	112616	60	0.006253612644
80	114502	61	0.006253504103
80	116388	62	0.006253388758
80	118274	63	0.006240269852
80	120160	64	0.006253148887
80	122046	65	0.006253026632
80	123932	66	0.006252903523
80	125818	67	0.006239779821
80	127704	68	0.006252655684
80	129590	69	0.006252531232
80	131476	70	0.006252406533
80	133362	71	0.00625228164
80	135248	72	0.006252156596
80	137134	73	0.006239031426
80	139020	74	0.006251906155
80	140906	75	0.006251790628
80	142792	76	0.006251665738
80	144678	77	0.006251539726
80	146564	78	0.00625141371
80	148450	79	0.006251287695
80	150336	80	0.006251161684
80	152222	81	0.00623803567
80	154108	82	0.006250909652
80	155994	83	0.006250783642
80	157880	84	0.00625065763
80	159766	85	0.00625053161
80	161652	86	0.0062504056
80	163538	87	0.006250279588
80	165424	88	0.00625015357
80	167310	89	0.006250027558
80	169196	90	0.006249901546
80	171082	91	0.00624977553
80	172968	92	0.006249649515
80	174854	93	0.006249523504
80	176740	94	0.00624939749
80	178626	95	0.006249271472
80	180512	96	0.006249145462
80	182398	97	0.00624901945
80	184284	98	0.00626189343
80	186170	99	0.00624876742
80	188056	100	0.006248641408
81	1725	2	0
81	3611	3	0
81	5497	4	0
81	7383	5	0
81	9269	6	0
81	11155	7	0
81	13041	8	0
81	14927	9	0
81	16815	10	0
81	18793	11	0
81	20719	12	0
81	22645	13	0
81	24571	14	0
81	26497	15	0
81	28423	16	0
81	30349	17	0
81	32275	18	0
81	34201	19	0
81	36127	20	0
81	38053	21	0
81	39979	22	0
81	41905	23	0
81	43831	24	0
81	45757	25	0
81	47683	26	0
81	49609	27	0
81	51535	28	0
81	53461	29	0
81	55434	30	0
81	57350	31	0
81	59266	32	0
81	61182	33	0
81	63147	34	0
81	65053	35	0
81	66959	36	0
81	68865	37	0
81	70979	38	0
81	72875	39	0
81	74771	40	0
81	76667	41	0
81	78563	42	0
81	80459	43	0
81	82355	44	0
81	84251	45	0
81	86212	46	0
81	88098	47	0
81	89984	48	0
81	91870	49	0
81	93756	50	0
81	95642	51	0
81	97528	52	0
81	99414	53	0
81	101300	54	0
81	103186	55	0
81	105072	56	0
81	106958	57	0
81	108844	58	0
81	110730	59	0
81	112616	60	0
81	114502	61	0
81	116388	62	0
81	118274	63	0
81	120160	64	0
81	122046	65	0
81	123932	66	0
81	125818	67	0
81	127704	68	0
81	129590	69	0
81	131476	70	0
81	133362	71	0
81	135248	72	0
81	137134	73	0
81	139020	74	0
81	140906	75	0
81	142792	76	0
81	144678	77	0
81	146564	78	0
81	148450	79	0
81	150336	80	0
81	152222	81	0
81	154108	82	0
81	155994	83	0
81	157880	84	0
81	159766	85	0
81	161652	86	0
81	163538	87	0
81	165424	88	0
81	167310	89	0
81	169196	90	0
81	171082	91	0
81	172968	92	0
81	174854	93	0
81	176740	94	0
81	178626	95	0
81	180512	96	0
81	182398	97	0
81	184284	98	0
81	186170	99	0
81	188056	100	0

