version 3
run BreakRanksNoGui-115-20240710-13:41:07-257894
attr configname BreakRanksNoGui
attr datetime 20240710-13:41:07
attr datetimef 20240710-134107
attr experiment BreakRanksNoGui
attr inifile omnetpp.ini
attr iterationvars "$nCars=2, $platoonSize=2, $nLanes=1, $ploegH=0.5, $controller=1, $headway=0.1, $leaderHeadway=1.2, $leaderSpeed=110, $breakRanksSafetyDistance=10, $minSpeed=100, $maxSpeed=120, $beaconInterval=0.1, $priority=4, $packetSize=200, $sController=\"CACC\", $0=2, $1=0"
attr iterationvarsd nCars=2/platoonSize=2/nLanes=1/ploegH=0.5/controller=1/headway=0.1/leaderHeadway=1.2/leaderSpeed=110/breakRanksSafetyDistance=10/minSpeed=100/maxSpeed=120/beaconInterval=0.1/priority=4/packetSize=200/sController=CACC/2/0
attr iterationvarsf nCars=2,platoonSize=2,nLanes=1,ploegH=0.5,controller=1,headway=0.1,leaderHeadway=1.2,leaderSpeed=110,breakRanksSafetyDistance=10,minSpeed=100,maxSpeed=120,beaconInterval=0.1,priority=4,packetSize=200,sController=CACC,2,0-
attr measurement "$nCars=2, $platoonSize=2, $nLanes=1, $ploegH=0.5, $controller=1, $headway=0.1, $leaderHeadway=1.2, $leaderSpeed=110, $breakRanksSafetyDistance=10, $minSpeed=100, $maxSpeed=120, $beaconInterval=0.1, $priority=4, $packetSize=200, $sController=\"CACC\", $0=2, $1=0"
attr network Highway
attr processid 257894
attr repetition 5
attr replication #5
attr resultdir results
attr runnumber 115
attr seedset 5
itervar beaconInterval 0.1
itervar breakRanksSafetyDistance 10
itervar controller 1
itervar headway 0.1
itervar leaderHeadway 1.2
itervar leaderSpeed 110
itervar maxSpeed 120
itervar minSpeed 100
itervar nCars 2
itervar nLanes 1
itervar packetSize 200
itervar platoonSize 2
itervar ploegH 0.5
itervar priority 4
itervar sController "\"CACC\""
config image-path ../../../veins/images
config repeat 10
config extends BreakRanks
config *.manager.command "\"sumo\""
config *.manager.ignoreGuiCommands true
config output-vector-file "results/BreakRanks_1_0.1_110_10_2 /result_5.vec"
config output-scalar-file "results/BreakRanks_1_0.1_110_10_2 /result_5.sca"
config extends Platooning
config *.node[*].scenario_type "\"BreakRanksScenario\""
config *.manager.command "\"sumo-gui\""
config *.node[*].scenario_type "\"SimpleScenario\""
config cmdenv-express-mode true
config cmdenv-autoflush true
config cmdenv-status-frequency 15s
config num-rngs 6
config network Highway
config debug-on-errors true
config print-undisposed true
config *.playgroundSizeX 65000m
config *.playgroundSizeY 25000m
config *.playgroundSizeZ 50m
config sim-time-limit "100 s"
config *.annotations.draw false
config *.obstacles.debug false
config *.world.useTorus false
config *.world.use2D false
config *.manager.updateInterval 0.01s
config *.manager.host "\"localhost\""
config *.manager.moduleType "\"org.car2x.plexe.PlatoonCar\""
config *.manager.moduleName "\"node\""
config *.manager.moduleDisplayString "\"\""
config *.manager.autoShutdown true
config *.manager.margin 25
config *.connectionManager.sendDirect true
config *.connectionManager.maxInterfDist 2600m
config *.connectionManager.drawMaxIntfDist false
config *.**.nic.mac1609_4.useServiceChannel false
config *.**.nic.mac1609_4.txPower 100mW
config *.**.nic.mac1609_4.bitrate 6Mbps
config *.**.nic.mac1609_4.useAcks true
config *.**.nic.mac1609_4.ackErrorRate 0.0
config *.**.nic.mac1609_4.frameErrorRate 0.0
config *.**.nic.phy80211p.minPowerLevel -94dBm
config *.**.nic.phy80211p.maxTXPower 100mW
config *.**.nic.phy80211p.useNoiseFloor true
config *.**.nic.phy80211p.noiseFloor -95dBm
config *.**.nic.phy80211p.decider "xmldoc(\"config.xml\")"
config *.**.nic.phy80211p.analogueModels "xmldoc(\"config.xml\")"
config *.**.nic.phy80211p.usePropagationDelay true
config *.node[*].mobility.x 0
config *.node[*].mobility.y 0
config *.node[*].mobility.z 1.895
config seed-set 5
config **.seed 5
config *.node[*].prot.rng-0 2
config *.node[*].appl.rng-0 3
config *.node[*].scenario.rng-0 4
config **.traffic.rng-0 5
config *.manager.configFile "\"./sumocfg/freeway.sumo.cfg\""
config *.manager.launchConfig "xmldoc(\"./sumocfg/freeway.launchd.xml\")"
config **.numberOfCars 2
config **.numberOfCarsPerPlatoon 2
config **.numberOfLanes 1
config *.node[*].helper_type "\"PositionHelper\""
config *.node[*].scenario.caccC1 0.5
config *.node[*].scenario.caccXi 1
config *.node[*].scenario.caccOmegaN "0.2 Hz"
config *.node[*].scenario.caccSpacing "2 m"
config *.node[*].scenario.engineTau "0.5 s"
config *.node[*].scenario.ploegH 0.5s
config *.node[*].scenario.ploegKp 0.2
config *.node[*].scenario.ploegKd 0.7
config *.node[*].scenario.useRealisticEngine false
config *.node[*].scenario.useControllerAcceleration true
config *.node[*].scenario.nLanes 1
config **.numericController 1
config **.headway 0.1s
config *.node[*].scenario.accHeadway 0.1s
config *.node[*].scenario.leaderHeadway 1.2s
config *.node[*].scenario.leaderSpeed 110kmph
config *.node[*].appl_type "\"SimplePlatooningApp\""
config *.node[*].appl.*.scalar-recording true
config *.node[*].appl.*.vector-recording true
config *.node[0].appl.breakRanksSafetyDistance 10m
config *.node[*].appl.minSpeed 100kmph
config *.node[*].appl.maxSpeed 120kmph
config *.node[*].protocol_type "\"SimplePlatooningBeaconing\""
config *.node[*].prot.*.scalar-recording true
config *.node[*].prot.*.vector-recording true
config *.node[*].prot.beaconingInterval 0.1s
config *.node[*].prot.priority 4
config *.node[*].prot.packetSize 200
config **.traffic_type "\"PlatoonsTrafficManager\""
config **.traffic.platoonInsertTime "1 s"
config **.traffic.platoonInsertSpeed 110kmph
config **.traffic.nCars 2
config **.traffic.platoonSize 2
config **.traffic.nLanes 1
config **.traffic.platooningVType "\"vtypeauto\""
config **.traffic.controller "\"CACC\""
config **.traffic.platoonInsertDistance 2m
config **.traffic.platoonInsertHeadway 0s
config **.traffic.platoonLeaderHeadway 1.2s
config **.scalar-recording false
config **.vector-recording false

vector 0 Highway.node[0].appl distance ETV
vector 1 Highway.node[0].appl relativeSpeed ETV
vector 2 Highway.node[0].appl nodeId ETV
vector 3 Highway.node[0].appl acceleration ETV
vector 4 Highway.node[0].appl controllerAcceleration ETV
vector 5 Highway.node[0].appl speed ETV
vector 6 Highway.node[0].appl posx ETV
vector 7 Highway.node[0].appl posy ETV
vector 8 Highway.node[1].appl distance ETV
vector 9 Highway.node[1].appl relativeSpeed ETV
vector 10 Highway.node[1].appl nodeId ETV
vector 11 Highway.node[1].appl acceleration ETV
vector 12 Highway.node[1].appl controllerAcceleration ETV
vector 13 Highway.node[1].appl speed ETV
vector 14 Highway.node[1].appl posx ETV
vector 15 Highway.node[1].appl posy ETV
vector 16 Highway.node[1].prot leaderDelay ETV
vector 17 Highway.node[1].prot leaderDelayId ETV
vector 18 Highway.node[1].prot frontDelay ETV
vector 19 Highway.node[1].prot frontDelayId ETV
vector 20 Highway.node[0].prot nodeId ETV
vector 21 Highway.node[0].prot busyTime ETV
vector 22 Highway.node[0].prot collisions ETV
vector 23 Highway.node[1].prot nodeId ETV
vector 24 Highway.node[1].prot busyTime ETV
vector 25 Highway.node[1].prot collisions ETV
0	113	1.11	-1
0	161	1.21	-1
0	209	1.31	-1
0	257	1.41	-1
0	305	1.51	-1
0	353	1.61	-1
0	401	1.71	-1
0	449	1.81	-1
0	497	1.91	-1
0	547	2.01	-1
0	595	2.11	-1
0	643	2.21	-1
0	691	2.31	-1
0	739	2.41	-1
0	787	2.51	-1
0	835	2.61	-1
0	883	2.71	-1
0	931	2.81	-1
0	979	2.91	-1
0	1029	3.01	-1
0	1077	3.11	-1
0	1125	3.21	-1
0	1173	3.31	-1
0	1221	3.41	-1
0	1269	3.51	-1
0	1317	3.61	-1
0	1365	3.71	-1
0	1413	3.81	-1
0	1461	3.91	-1
0	1511	4.01	-1
0	1559	4.11	-1
0	1607	4.21	-1
0	1655	4.31	-1
0	1703	4.41	-1
0	1751	4.51	-1
0	1799	4.61	-1
0	1847	4.71	-1
0	1895	4.81	-1
0	1943	4.91	-1
0	1993	5.01	-1
0	2041	5.11	-1
0	2089	5.21	-1
0	2137	5.31	-1
0	2185	5.41	-1
0	2233	5.51	-1
0	2281	5.61	-1
0	2329	5.71	-1
0	2377	5.81	-1
0	2425	5.91	-1
0	2475	6.01	-1
0	2523	6.11	-1
0	2571	6.21	-1
0	2619	6.31	-1
0	2667	6.41	-1
0	2715	6.51	-1
0	2763	6.61	-1
0	2811	6.71	-1
0	2859	6.81	-1
0	2907	6.91	-1
0	2957	7.01	-1
0	3005	7.11	-1
0	3053	7.21	-1
0	3101	7.31	-1
0	3149	7.41	-1
0	3197	7.51	-1
0	3245	7.61	-1
0	3293	7.71	-1
0	3341	7.81	-1
0	3389	7.91	-1
0	3439	8.01	-1
0	3487	8.11	-1
0	3535	8.21	-1
0	3583	8.31	-1
0	3631	8.41	-1
0	3679	8.51	-1
0	3727	8.61	-1
0	3775	8.71	-1
0	3823	8.81	-1
0	3871	8.91	-1
0	3921	9.01	-1
0	3969	9.11	-1
0	4017	9.21	-1
0	4065	9.31	-1
0	4113	9.41	-1
0	4161	9.51	-1
0	4209	9.61	-1
0	4257	9.71	-1
0	4305	9.81	-1
0	4353	9.91	-1
0	4423	10.01	-1
0	4472	10.11	-1
0	4521	10.21	-1
0	4570	10.31	-1
0	4619	10.41	-1
0	4668	10.51	-1
0	4717	10.61	-1
0	4766	10.71	-1
0	4815	10.81	-1
0	4864	10.91	-1
0	4915	11.01	-1
0	4964	11.11	-1
0	5013	11.21	-1
0	5062	11.31	-1
0	5111	11.41	-1
0	5160	11.51	-1
0	5209	11.61	-1
0	5258	11.71	-1
0	5307	11.81	-1
0	5356	11.91	-1
0	5407	12.01	-1
0	5456	12.11	-1
0	5505	12.21	-1
0	5554	12.31	-1
0	5603	12.41	-1
0	5652	12.51	-1
0	5701	12.61	-1
0	5750	12.71	-1
0	5799	12.81	-1
0	5848	12.91	-1
0	5899	13.01	-1
0	5948	13.11	-1
0	5997	13.21	-1
0	6046	13.31	-1
0	6095	13.41	-1
0	6144	13.51	-1
0	6193	13.61	-1
0	6242	13.71	-1
0	6291	13.81	-1
0	6340	13.91	-1
0	6391	14.01	-1
0	6440	14.11	-1
0	6489	14.21	-1
0	6538	14.31	-1
0	6587	14.41	-1
0	6636	14.51	-1
0	6685	14.61	-1
0	6734	14.71	-1
0	6783	14.81	-1
0	6832	14.91	-1
0	6883	15.01	-1
0	6932	15.11	-1
0	6981	15.21	-1
0	7030	15.31	-1
0	7079	15.41	-1
0	7128	15.51	-1
0	7177	15.61	-1
0	7226	15.71	-1
0	7275	15.81	-1
0	7324	15.91	-1
0	7375	16.01	-1
0	7424	16.11	-1
0	7473	16.21	-1
0	7522	16.31	-1
0	7571	16.41	-1
0	7620	16.51	-1
0	7669	16.61	-1
0	7718	16.71	-1
0	7767	16.81	-1
0	7816	16.91	-1
0	7867	17.01	-1
0	7916	17.11	-1
0	7965	17.21	-1
0	8014	17.31	-1
0	8063	17.41	-1
0	8112	17.51	-1
0	8161	17.61	-1
0	8210	17.71	-1
0	8259	17.81	-1
0	8308	17.91	-1
0	8359	18.01	-1
0	8408	18.11	-1
0	8457	18.21	-1
0	8506	18.31	-1
0	8555	18.41	-1
0	8604	18.51	-1
0	8653	18.61	-1
0	8702	18.71	-1
0	8751	18.81	-1
0	8800	18.91	-1
0	8851	19.01	-1
0	8900	19.11	-1
0	8949	19.21	-1
0	8998	19.31	-1
0	9047	19.41	-1
0	9096	19.51	-1
0	9145	19.61	-1
0	9194	19.71	-1
0	9243	19.81	-1
0	9292	19.91	-1
0	9343	20.01	-1
0	9392	20.11	-1
0	9441	20.21	-1
0	9490	20.31	-1
0	9539	20.41	-1
0	9588	20.51	-1
0	9637	20.61	-1
0	9686	20.71	-1
0	9735	20.81	-1
0	9784	20.91	-1
0	9835	21.01	-1
0	9884	21.11	-1
0	9933	21.21	-1
0	9982	21.31	-1
0	10031	21.41	-1
0	10080	21.51	-1
0	10129	21.61	-1
0	10178	21.71	-1
0	10227	21.81	-1
0	10276	21.91	-1
0	10327	22.01	-1
0	10376	22.11	-1
0	10425	22.21	-1
0	10474	22.31	-1
0	10523	22.41	-1
0	10572	22.51	-1
0	10621	22.61	-1
0	10670	22.71	-1
0	10719	22.81	-1
0	10768	22.91	-1
0	10819	23.01	-1
0	10868	23.11	-1
0	10917	23.21	-1
0	10966	23.31	-1
0	11015	23.41	-1
0	11064	23.51	-1
0	11113	23.61	-1
0	11162	23.71	-1
0	11211	23.81	-1
0	11260	23.91	-1
0	11311	24.01	-1
0	11360	24.11	-1
0	11409	24.21	-1
0	11458	24.31	-1
0	11507	24.41	-1
0	11556	24.51	-1
0	11605	24.61	-1
0	11654	24.71	-1
0	11703	24.81	-1
0	11752	24.91	-1
0	11803	25.01	-1
0	11852	25.11	-1
0	11901	25.21	-1
0	11950	25.31	-1
0	11999	25.41	-1
0	12048	25.51	-1
0	12097	25.61	-1
0	12146	25.71	-1
0	12195	25.81	-1
0	12244	25.91	-1
0	12295	26.01	-1
0	12344	26.11	-1
0	12393	26.21	-1
0	12442	26.31	-1
0	12491	26.41	-1
0	12540	26.51	-1
0	12589	26.61	-1
0	12638	26.71	-1
0	12687	26.81	-1
0	12736	26.91	-1
0	12787	27.01	-1
0	12836	27.11	-1
0	12885	27.21	-1
0	12934	27.31	-1
0	12983	27.41	-1
0	13032	27.51	-1
0	13081	27.61	-1
0	13130	27.71	-1
0	13179	27.81	-1
0	13228	27.91	-1
0	13279	28.01	-1
0	13328	28.11	-1
0	13377	28.21	-1
0	13426	28.31	-1
0	13475	28.41	-1
0	13524	28.51	-1
0	13573	28.61	-1
0	13622	28.71	-1
0	13671	28.81	-1
0	13720	28.91	-1
0	13771	29.01	-1
0	13820	29.11	-1
0	13869	29.21	-1
0	13918	29.31	-1
0	13967	29.41	-1
0	14016	29.51	-1
0	14065	29.61	-1
0	14114	29.71	-1
0	14163	29.81	-1
0	14212	29.91	-1
0	14263	30.01	-1
0	14312	30.11	-1
0	14361	30.21	-1
0	14410	30.31	-1
0	14459	30.41	-1
0	14508	30.51	-1
0	14557	30.61	-1
0	14606	30.71	-1
0	14655	30.81	-1
0	14704	30.91	-1
0	14755	31.01	-1
0	14804	31.11	-1
0	14853	31.21	-1
0	14902	31.31	-1
0	14951	31.41	-1
0	15000	31.51	-1
0	15049	31.61	-1
0	15098	31.71	-1
0	15147	31.81	-1
0	15196	31.91	-1
0	15247	32.01	-1
0	15296	32.11	-1
0	15345	32.21	-1
0	15394	32.31	-1
0	15443	32.41	-1
0	15492	32.51	-1
0	15541	32.61	-1
0	15590	32.71	-1
0	15639	32.81	-1
0	15688	32.91	-1
0	15739	33.01	-1
0	15788	33.11	-1
0	15837	33.21	-1
0	15886	33.31	-1
0	15935	33.41	-1
0	15984	33.51	-1
0	16033	33.61	-1
0	16082	33.71	-1
0	16131	33.81	-1
0	16180	33.91	-1
0	16231	34.01	-1
0	16280	34.11	-1
0	16329	34.21	-1
0	16378	34.31	-1
0	16427	34.41	-1
0	16476	34.51	-1
0	16525	34.61	-1
0	16574	34.71	-1
0	16623	34.81	-1
0	16672	34.91	-1
0	16723	35.01	-1
0	16772	35.11	-1
0	16821	35.21	-1
0	16870	35.31	-1
0	16919	35.41	-1
0	16968	35.51	-1
0	17017	35.61	-1
0	17066	35.71	-1
0	17115	35.81	-1
0	17164	35.91	-1
0	17215	36.01	-1
0	17264	36.11	-1
0	17313	36.21	-1
0	17362	36.31	-1
0	17411	36.41	-1
0	17460	36.51	-1
0	17509	36.61	-1
0	17558	36.71	-1
0	17607	36.81	-1
0	17656	36.91	-1
0	17707	37.01	-1
0	17756	37.11	-1
0	17805	37.21	-1
0	17854	37.31	-1
0	17903	37.41	-1
0	17952	37.51	-1
0	18001	37.61	-1
0	18050	37.71	-1
0	18099	37.81	-1
0	18148	37.91	-1
0	18199	38.01	-1
0	18248	38.11	-1
0	18297	38.21	-1
0	18346	38.31	-1
0	18395	38.41	-1
0	18444	38.51	-1
0	18493	38.61	-1
0	18542	38.71	-1
0	18591	38.81	-1
0	18640	38.91	-1
0	18691	39.01	-1
0	18740	39.11	-1
0	18789	39.21	-1
0	18838	39.31	-1
0	18887	39.41	-1
0	18936	39.51	-1
0	18985	39.61	-1
0	19034	39.71	-1
0	19083	39.81	-1
0	19132	39.91	-1
0	19183	40.01	-1
0	19232	40.11	-1
0	19281	40.21	-1
0	19330	40.31	-1
0	19379	40.41	-1
0	19428	40.51	-1
0	19477	40.61	-1
0	19526	40.71	-1
0	19575	40.81	-1
0	19624	40.91	-1
0	19675	41.01	-1
0	19724	41.11	-1
0	19773	41.21	-1
0	19822	41.31	-1
0	19871	41.41	-1
0	19920	41.51	-1
0	19969	41.61	-1
0	20018	41.71	-1
0	20067	41.81	-1
0	20116	41.91	-1
0	20167	42.01	-1
0	20216	42.11	-1
0	20265	42.21	-1
0	20314	42.31	-1
0	20363	42.41	-1
0	20412	42.51	-1
0	20461	42.61	-1
0	20576	42.71	-1
0	20624	42.81	-1
0	20672	42.91	-1
0	20722	43.01	-1
0	20770	43.11	-1
0	20818	43.21	-1
0	20866	43.31	-1
0	20914	43.41	-1
0	20962	43.51	-1
0	21010	43.61	-1
0	21058	43.71	-1
0	21106	43.81	-1
0	21154	43.91	-1
0	21204	44.01	-1
0	21252	44.11	-1
0	21300	44.21	-1
0	21348	44.31	-1
0	21396	44.41	-1
0	21444	44.51	-1
0	21492	44.61	-1
0	21540	44.71	-1
0	21588	44.81	-1
0	21636	44.91	-1
0	21686	45.01	-1
0	21734	45.11	-1
0	21782	45.21	-1
0	21830	45.31	-1
0	21878	45.41	-1
0	21926	45.51	-1
0	21974	45.61	-1
0	22022	45.71	-1
0	22070	45.81	-1
0	22118	45.91	-1
0	22168	46.01	-1
0	22216	46.11	-1
0	22264	46.21	-1
0	22312	46.31	-1
0	22360	46.41	-1
0	22408	46.51	-1
0	22456	46.61	-1
0	22504	46.71	-1
0	22552	46.81	-1
0	22600	46.91	-1
0	22650	47.01	-1
0	22698	47.11	-1
0	22746	47.21	-1
0	22794	47.31	-1
0	22842	47.41	-1
0	22890	47.51	-1
0	22938	47.61	-1
0	22986	47.71	-1
0	23034	47.81	-1
0	23082	47.91	-1
0	23132	48.01	-1
0	23180	48.11	-1
0	23228	48.21	-1
0	23276	48.31	-1
0	23324	48.41	-1
0	23372	48.51	-1
0	23420	48.61	-1
0	23468	48.71	-1
0	23516	48.81	-1
0	23564	48.91	-1
0	23614	49.01	-1
0	23662	49.11	-1
0	23710	49.21	-1
0	23758	49.31	-1
0	23806	49.41	-1
0	23854	49.51	-1
0	23902	49.61	-1
0	23950	49.71	-1
0	23998	49.81	-1
0	24046	49.91	-1
0	24096	50.01	-1
0	24144	50.11	-1
0	24192	50.21	-1
0	24240	50.31	-1
0	24288	50.41	-1
0	24336	50.51	-1
0	24384	50.61	-1
0	24432	50.71	-1
0	24480	50.81	-1
0	24528	50.91	-1
0	24578	51.01	-1
0	24626	51.11	-1
0	24674	51.21	-1
0	24722	51.31	-1
0	24770	51.41	-1
0	24818	51.51	-1
0	24866	51.61	-1
0	24914	51.71	-1
0	24962	51.81	-1
0	25010	51.91	-1
0	25060	52.01	-1
0	25108	52.11	-1
0	25156	52.21	-1
0	25204	52.31	-1
0	25252	52.41	-1
0	25300	52.51	-1
0	25348	52.61	-1
0	25396	52.71	-1
0	25444	52.81	-1
0	25492	52.91	-1
0	25542	53.01	-1
0	25590	53.11	-1
0	25638	53.21	-1
0	25686	53.31	-1
0	25734	53.41	-1
0	25782	53.51	-1
0	25830	53.61	-1
0	25878	53.71	-1
0	25926	53.81	-1
0	25974	53.91	-1
0	26024	54.01	-1
0	26072	54.11	-1
0	26120	54.21	-1
0	26168	54.31	-1
0	26216	54.41	-1
0	26264	54.51	-1
0	26312	54.61	-1
0	26360	54.71	-1
0	26408	54.81	-1
0	26456	54.91	-1
0	26506	55.01	-1
0	26554	55.11	-1
0	26602	55.21	-1
0	26650	55.31	-1
0	26698	55.41	-1
0	26746	55.51	-1
0	26794	55.61	-1
0	26842	55.71	-1
0	26890	55.81	-1
0	26938	55.91	-1
0	26988	56.01	-1
0	27036	56.11	-1
0	27084	56.21	-1
0	27132	56.31	-1
0	27180	56.41	-1
0	27228	56.51	-1
0	27276	56.61	-1
0	27324	56.71	-1
0	27372	56.81	-1
0	27420	56.91	-1
0	27470	57.01	-1
0	27518	57.11	-1
0	27566	57.21	-1
0	27614	57.31	-1
0	27662	57.41	-1
0	27710	57.51	-1
0	27758	57.61	-1
0	27806	57.71	-1
0	27854	57.81	-1
0	27902	57.91	-1
0	27952	58.01	-1
0	28000	58.11	-1
0	28048	58.21	-1
0	28096	58.31	-1
0	28144	58.41	-1
0	28192	58.51	-1
0	28240	58.61	-1
0	28288	58.71	-1
0	28336	58.81	-1
0	28384	58.91	-1
0	28434	59.01	-1
0	28482	59.11	-1
0	28530	59.21	-1
0	28578	59.31	-1
0	28626	59.41	-1
0	28674	59.51	-1
0	28722	59.61	-1
0	28770	59.71	-1
0	28818	59.81	-1
0	28866	59.91	-1
0	28916	60.01	-1
0	28964	60.11	-1
0	29012	60.21	-1
0	29060	60.31	-1
0	29108	60.41	-1
0	29156	60.51	-1
0	29204	60.61	-1
0	29252	60.71	-1
0	29300	60.81	-1
0	29348	60.91	-1
0	29398	61.01	-1
0	29446	61.11	-1
0	29494	61.21	-1
0	29542	61.31	-1
0	29590	61.41	-1
0	29638	61.51	-1
0	29686	61.61	-1
0	29734	61.71	-1
0	29782	61.81	-1
0	29830	61.91	-1
0	29880	62.01	-1
0	29928	62.11	-1
0	29976	62.21	-1
0	30024	62.31	-1
0	30072	62.41	-1
0	30120	62.51	-1
0	30168	62.61	-1
0	30216	62.71	-1
0	30264	62.81	-1
0	30312	62.91	-1
0	30362	63.01	-1
0	30410	63.11	-1
0	30458	63.21	-1
0	30506	63.31	-1
0	30554	63.41	-1
0	30602	63.51	-1
0	30650	63.61	-1
0	30698	63.71	-1
0	30746	63.81	-1
0	30794	63.91	-1
0	30844	64.01	-1
0	30892	64.11	-1
0	30940	64.21	-1
0	30988	64.31	-1
0	31036	64.41	-1
0	31084	64.51	-1
0	31132	64.61	-1
0	31180	64.71	-1
0	31228	64.81	-1
0	31276	64.91	-1
0	31326	65.01	-1
0	31374	65.11	-1
0	31422	65.21	-1
0	31470	65.31	-1
0	31518	65.41	-1
0	31566	65.51	-1
0	31614	65.61	-1
0	31662	65.71	-1
0	31710	65.81	-1
0	31758	65.91	-1
0	31808	66.01	-1
0	31856	66.11	-1
0	31904	66.21	-1
0	31952	66.31	-1
0	32000	66.41	-1
0	32048	66.51	-1
0	32096	66.61	-1
0	32144	66.71	-1
0	32192	66.81	-1
0	32240	66.91	-1
0	32290	67.01	-1
0	32338	67.11	-1
0	32386	67.21	-1
0	32434	67.31	-1
0	32482	67.41	-1
0	32530	67.51	-1
0	32578	67.61	-1
0	32626	67.71	-1
0	32674	67.81	-1
0	32722	67.91	-1
0	32772	68.01	-1
0	32820	68.11	-1
0	32868	68.21	-1
0	32916	68.31	-1
0	32964	68.41	-1
0	33012	68.51	-1
0	33060	68.61	-1
0	33108	68.71	-1
0	33156	68.81	-1
0	33204	68.91	-1
0	33254	69.01	-1
0	33302	69.11	-1
0	33350	69.21	-1
0	33398	69.31	-1
0	33446	69.41	-1
0	33494	69.51	-1
0	33542	69.61	-1
0	33590	69.71	-1
0	33638	69.81	-1
0	33686	69.91	-1
0	33736	70.01	-1
0	33784	70.11	-1
0	33832	70.21	-1
0	33880	70.31	-1
0	33928	70.41	-1
0	33976	70.51	-1
0	34024	70.61	-1
0	34072	70.71	-1
0	34120	70.81	-1
0	34168	70.91	-1
0	34218	71.01	-1
0	34266	71.11	-1
0	34314	71.21	-1
0	34362	71.31	-1
0	34410	71.41	-1
0	34458	71.51	-1
0	34506	71.61	-1
0	34554	71.71	-1
0	34602	71.81	-1
0	34650	71.91	-1
0	34700	72.01	-1
0	34748	72.11	-1
0	34796	72.21	-1
0	34844	72.31	-1
0	34892	72.41	-1
0	34940	72.51	-1
0	34988	72.61	-1
0	35036	72.71	-1
0	35084	72.81	-1
0	35132	72.91	-1
0	35182	73.01	-1
0	35230	73.11	-1
0	35278	73.21	-1
0	35326	73.31	-1
0	35374	73.41	-1
0	35422	73.51	-1
0	35470	73.61	-1
0	35518	73.71	-1
0	35566	73.81	-1
0	35614	73.91	-1
0	35664	74.01	-1
0	35712	74.11	-1
0	35760	74.21	-1
0	35808	74.31	-1
0	35856	74.41	-1
0	35904	74.51	-1
0	35952	74.61	-1
0	36000	74.71	-1
0	36048	74.81	-1
0	36096	74.91	-1
0	36146	75.01	-1
0	36194	75.11	-1
0	36242	75.21	-1
0	36290	75.31	-1
0	36338	75.41	-1
0	36386	75.51	-1
0	36434	75.61	-1
0	36482	75.71	-1
0	36530	75.81	-1
0	36578	75.91	-1
0	36628	76.01	-1
0	36676	76.11	-1
0	36724	76.21	-1
0	36772	76.31	-1
0	36820	76.41	-1
0	36868	76.51	-1
0	36916	76.61	-1
0	36964	76.71	-1
0	37012	76.81	-1
0	37060	76.91	-1
0	37110	77.01	-1
0	37158	77.11	-1
0	37206	77.21	-1
0	37254	77.31	-1
0	37302	77.41	-1
0	37350	77.51	-1
0	37398	77.61	-1
0	37446	77.71	-1
0	37494	77.81	-1
0	37542	77.91	-1
0	37592	78.01	-1
0	37640	78.11	-1
0	37688	78.21	-1
0	37736	78.31	-1
0	37784	78.41	-1
0	37832	78.51	-1
0	37880	78.61	-1
0	37928	78.71	-1
0	37976	78.81	-1
0	38024	78.91	-1
0	38074	79.01	-1
0	38122	79.11	-1
0	38170	79.21	-1
0	38218	79.31	-1
0	38266	79.41	-1
0	38314	79.51	-1
0	38362	79.61	-1
0	38410	79.71	-1
0	38458	79.81	-1
0	38506	79.91	-1
0	38556	80.01	-1
0	38604	80.11	-1
0	38652	80.21	-1
0	38700	80.31	-1
0	38748	80.41	-1
0	38796	80.51	-1
0	38844	80.61	-1
0	38892	80.71	-1
0	38940	80.81	-1
0	38988	80.91	-1
0	39038	81.01	-1
0	39086	81.11	-1
0	39134	81.21	-1
0	39182	81.31	-1
0	39230	81.41	-1
0	39278	81.51	-1
0	39326	81.61	-1
0	39374	81.71	-1
0	39422	81.81	-1
0	39470	81.91	-1
0	39520	82.01	-1
0	39568	82.11	-1
0	39616	82.21	-1
0	39664	82.31	-1
0	39712	82.41	-1
0	39760	82.51	-1
0	39808	82.61	-1
0	39856	82.71	-1
0	39904	82.81	-1
0	39952	82.91	-1
0	40002	83.01	-1
0	40050	83.11	-1
0	40098	83.21	-1
0	40146	83.31	-1
0	40194	83.41	-1
0	40242	83.51	-1
0	40290	83.61	-1
0	40338	83.71	-1
0	40386	83.81	-1
0	40434	83.91	-1
0	40484	84.01	-1
0	40532	84.11	-1
0	40580	84.21	-1
0	40628	84.31	-1
0	40676	84.41	-1
0	40724	84.51	-1
0	40772	84.61	-1
0	40820	84.71	-1
0	40868	84.81	-1
0	40916	84.91	-1
0	40966	85.01	-1
0	41014	85.11	-1
0	41062	85.21	-1
0	41110	85.31	-1
0	41158	85.41	-1
0	41206	85.51	-1
0	41254	85.61	-1
0	41302	85.71	-1
0	41350	85.81	-1
0	41398	85.91	-1
0	41448	86.01	-1
0	41496	86.11	-1
0	41544	86.21	-1
0	41592	86.31	-1
0	41640	86.41	-1
0	41688	86.51	-1
0	41736	86.61	-1
0	41784	86.71	-1
0	41832	86.81	-1
0	41880	86.91	-1
0	41930	87.01	-1
0	41978	87.11	-1
0	42026	87.21	-1
0	42074	87.31	-1
0	42122	87.41	-1
0	42170	87.51	-1
0	42218	87.61	-1
0	42266	87.71	-1
0	42314	87.81	-1
0	42362	87.91	-1
0	42412	88.01	-1
0	42460	88.11	-1
0	42508	88.21	-1
0	42556	88.31	-1
0	42604	88.41	-1
0	42652	88.51	-1
0	42700	88.61	-1
0	42748	88.71	-1
0	42796	88.81	-1
0	42844	88.91	-1
0	42894	89.01	-1
0	42942	89.11	-1
0	42990	89.21	-1
0	43038	89.31	-1
0	43086	89.41	-1
0	43134	89.51	-1
0	43182	89.61	-1
0	43230	89.71	-1
0	43278	89.81	-1
0	43326	89.91	-1
0	43376	90.01	-1
0	43424	90.11	-1
0	43472	90.21	-1
0	43520	90.31	-1
0	43568	90.41	-1
0	43616	90.51	-1
0	43664	90.61	-1
0	43712	90.71	-1
0	43760	90.81	-1
0	43808	90.91	-1
0	43858	91.01	-1
0	43906	91.11	-1
0	43954	91.21	-1
0	44002	91.31	-1
0	44050	91.41	-1
0	44098	91.51	-1
0	44146	91.61	-1
0	44194	91.71	-1
0	44242	91.81	-1
0	44290	91.91	-1
0	44340	92.01	-1
0	44388	92.11	-1
0	44436	92.21	-1
0	44484	92.31	-1
0	44532	92.41	-1
0	44580	92.51	-1
0	44628	92.61	-1
0	44676	92.71	-1
0	44724	92.81	-1
0	44772	92.91	-1
0	44822	93.01	-1
0	44870	93.11	-1
0	44918	93.21	-1
0	44966	93.31	-1
0	45014	93.41	-1
0	45062	93.51	-1
0	45110	93.61	-1
0	45158	93.71	-1
0	45206	93.81	-1
0	45254	93.91	-1
0	45304	94.01	-1
0	45352	94.11	-1
0	45400	94.21	-1
0	45448	94.31	-1
0	45496	94.41	-1
0	45544	94.51	-1
0	45592	94.61	-1
0	45640	94.71	-1
0	45688	94.81	-1
0	45736	94.91	-1
0	45786	95.01	-1
0	45834	95.11	-1
0	45882	95.21	-1
0	45930	95.31	-1
0	45978	95.41	-1
0	46026	95.51	-1
0	46074	95.61	-1
0	46122	95.71	-1
0	46170	95.81	-1
0	46218	95.91	-1
0	46268	96.01	-1
0	46316	96.11	-1
0	46364	96.21	-1
0	46412	96.31	-1
0	46460	96.41	-1
0	46508	96.51	-1
0	46556	96.61	-1
0	46604	96.71	-1
0	46652	96.81	-1
0	46700	96.91	-1
0	46750	97.01	-1
0	46798	97.11	-1
0	46846	97.21	-1
0	46894	97.31	-1
0	46942	97.41	-1
0	46990	97.51	-1
0	47038	97.61	-1
0	47086	97.71	-1
0	47134	97.81	-1
0	47182	97.91	-1
0	47232	98.01	-1
0	47280	98.11	-1
0	47328	98.21	-1
0	47376	98.31	-1
0	47424	98.41	-1
0	47472	98.51	-1
0	47520	98.61	-1
0	47568	98.71	-1
0	47616	98.81	-1
0	47664	98.91	-1
0	47714	99.01	-1
0	47762	99.11	-1
0	47810	99.21	-1
0	47858	99.31	-1
0	47906	99.41	-1
0	47954	99.51	-1
0	48002	99.61	-1
0	48050	99.71	-1
0	48098	99.81	-1
0	48146	99.91	-1
1	113	1.11	0
1	161	1.21	0
1	209	1.31	0
1	257	1.41	0
1	305	1.51	0
1	353	1.61	0
1	401	1.71	0
1	449	1.81	0
1	497	1.91	0
1	547	2.01	0
1	595	2.11	0
1	643	2.21	0
1	691	2.31	0
1	739	2.41	0
1	787	2.51	0
1	835	2.61	0
1	883	2.71	0
1	931	2.81	0
1	979	2.91	0
1	1029	3.01	0
1	1077	3.11	0
1	1125	3.21	0
1	1173	3.31	0
1	1221	3.41	0
1	1269	3.51	0
1	1317	3.61	0
1	1365	3.71	0
1	1413	3.81	0
1	1461	3.91	0
1	1511	4.01	0
1	1559	4.11	0
1	1607	4.21	0
1	1655	4.31	0
1	1703	4.41	0
1	1751	4.51	0
1	1799	4.61	0
1	1847	4.71	0
1	1895	4.81	0
1	1943	4.91	0
1	1993	5.01	0
1	2041	5.11	0
1	2089	5.21	0
1	2137	5.31	0
1	2185	5.41	0
1	2233	5.51	0
1	2281	5.61	0
1	2329	5.71	0
1	2377	5.81	0
1	2425	5.91	0
1	2475	6.01	0
1	2523	6.11	0
1	2571	6.21	0
1	2619	6.31	0
1	2667	6.41	0
1	2715	6.51	0
1	2763	6.61	0
1	2811	6.71	0
1	2859	6.81	0
1	2907	6.91	0
1	2957	7.01	0
1	3005	7.11	0
1	3053	7.21	0
1	3101	7.31	0
1	3149	7.41	0
1	3197	7.51	0
1	3245	7.61	0
1	3293	7.71	0
1	3341	7.81	0
1	3389	7.91	0
1	3439	8.01	0
1	3487	8.11	0
1	3535	8.21	0
1	3583	8.31	0
1	3631	8.41	0
1	3679	8.51	0
1	3727	8.61	0
1	3775	8.71	0
1	3823	8.81	0
1	3871	8.91	0
1	3921	9.01	0
1	3969	9.11	0
1	4017	9.21	0
1	4065	9.31	0
1	4113	9.41	0
1	4161	9.51	0
1	4209	9.61	0
1	4257	9.71	0
1	4305	9.81	0
1	4353	9.91	0
1	4423	10.01	0
1	4472	10.11	0
1	4521	10.21	0
1	4570	10.31	0
1	4619	10.41	0
1	4668	10.51	0
1	4717	10.61	0
1	4766	10.71	0
1	4815	10.81	0
1	4864	10.91	0
1	4915	11.01	0
1	4964	11.11	0
1	5013	11.21	0
1	5062	11.31	0
1	5111	11.41	0
1	5160	11.51	0
1	5209	11.61	0
1	5258	11.71	0
1	5307	11.81	0
1	5356	11.91	0
1	5407	12.01	0
1	5456	12.11	0
1	5505	12.21	0
1	5554	12.31	0
1	5603	12.41	0
1	5652	12.51	0
1	5701	12.61	0
1	5750	12.71	0
1	5799	12.81	0
1	5848	12.91	0
1	5899	13.01	0
1	5948	13.11	0
1	5997	13.21	0
1	6046	13.31	0
1	6095	13.41	0
1	6144	13.51	0
1	6193	13.61	0
1	6242	13.71	0
1	6291	13.81	0
1	6340	13.91	0
1	6391	14.01	0
1	6440	14.11	0
1	6489	14.21	0
1	6538	14.31	0
1	6587	14.41	0
1	6636	14.51	0
1	6685	14.61	0
1	6734	14.71	0
1	6783	14.81	0
1	6832	14.91	0
1	6883	15.01	0
1	6932	15.11	0
1	6981	15.21	0
1	7030	15.31	0
1	7079	15.41	0
1	7128	15.51	0
1	7177	15.61	0
1	7226	15.71	0
1	7275	15.81	0
1	7324	15.91	0
1	7375	16.01	0
1	7424	16.11	0
1	7473	16.21	0
1	7522	16.31	0
1	7571	16.41	0
1	7620	16.51	0
1	7669	16.61	0
1	7718	16.71	0
1	7767	16.81	0
1	7816	16.91	0
1	7867	17.01	0
1	7916	17.11	0
1	7965	17.21	0
1	8014	17.31	0
1	8063	17.41	0
1	8112	17.51	0
1	8161	17.61	0
1	8210	17.71	0
1	8259	17.81	0
1	8308	17.91	0
1	8359	18.01	0
1	8408	18.11	0
1	8457	18.21	0
1	8506	18.31	0
1	8555	18.41	0
1	8604	18.51	0
1	8653	18.61	0
1	8702	18.71	0
1	8751	18.81	0
1	8800	18.91	0
1	8851	19.01	0
1	8900	19.11	0
1	8949	19.21	0
1	8998	19.31	0
1	9047	19.41	0
1	9096	19.51	0
1	9145	19.61	0
1	9194	19.71	0
1	9243	19.81	0
1	9292	19.91	0
1	9343	20.01	0
1	9392	20.11	0
1	9441	20.21	0
1	9490	20.31	0
1	9539	20.41	0
1	9588	20.51	0
1	9637	20.61	0
1	9686	20.71	0
1	9735	20.81	0
1	9784	20.91	0
1	9835	21.01	0
1	9884	21.11	0
1	9933	21.21	0
1	9982	21.31	0
1	10031	21.41	0
1	10080	21.51	0
1	10129	21.61	0
1	10178	21.71	0
1	10227	21.81	0
1	10276	21.91	0
1	10327	22.01	0
1	10376	22.11	0
1	10425	22.21	0
1	10474	22.31	0
1	10523	22.41	0
1	10572	22.51	0
1	10621	22.61	0
1	10670	22.71	0
1	10719	22.81	0
1	10768	22.91	0
1	10819	23.01	0
1	10868	23.11	0
1	10917	23.21	0
1	10966	23.31	0
1	11015	23.41	0
1	11064	23.51	0
1	11113	23.61	0
1	11162	23.71	0
1	11211	23.81	0
1	11260	23.91	0
1	11311	24.01	0
1	11360	24.11	0
1	11409	24.21	0
1	11458	24.31	0
1	11507	24.41	0
1	11556	24.51	0
1	11605	24.61	0
1	11654	24.71	0
1	11703	24.81	0
1	11752	24.91	0
1	11803	25.01	0
1	11852	25.11	0
1	11901	25.21	0
1	11950	25.31	0
1	11999	25.41	0
1	12048	25.51	0
1	12097	25.61	0
1	12146	25.71	0
1	12195	25.81	0
1	12244	25.91	0
1	12295	26.01	0
1	12344	26.11	0
1	12393	26.21	0
1	12442	26.31	0
1	12491	26.41	0
1	12540	26.51	0
1	12589	26.61	0
1	12638	26.71	0
1	12687	26.81	0
1	12736	26.91	0
1	12787	27.01	0
1	12836	27.11	0
1	12885	27.21	0
1	12934	27.31	0
1	12983	27.41	0
1	13032	27.51	0
1	13081	27.61	0
1	13130	27.71	0
1	13179	27.81	0
1	13228	27.91	0
1	13279	28.01	0
1	13328	28.11	0
1	13377	28.21	0
1	13426	28.31	0
1	13475	28.41	0
1	13524	28.51	0
1	13573	28.61	0
1	13622	28.71	0
1	13671	28.81	0
1	13720	28.91	0
1	13771	29.01	0
1	13820	29.11	0
1	13869	29.21	0
1	13918	29.31	0
1	13967	29.41	0
1	14016	29.51	0
1	14065	29.61	0
1	14114	29.71	0
1	14163	29.81	0
1	14212	29.91	0
1	14263	30.01	0
1	14312	30.11	0
1	14361	30.21	0
1	14410	30.31	0
1	14459	30.41	0
1	14508	30.51	0
1	14557	30.61	0
1	14606	30.71	0
1	14655	30.81	0
1	14704	30.91	0
1	14755	31.01	0
1	14804	31.11	0
1	14853	31.21	0
1	14902	31.31	0
1	14951	31.41	0
1	15000	31.51	0
1	15049	31.61	0
1	15098	31.71	0
1	15147	31.81	0
1	15196	31.91	0
1	15247	32.01	0
1	15296	32.11	0
1	15345	32.21	0
1	15394	32.31	0
1	15443	32.41	0
1	15492	32.51	0
1	15541	32.61	0
1	15590	32.71	0
1	15639	32.81	0
1	15688	32.91	0
1	15739	33.01	0
1	15788	33.11	0
1	15837	33.21	0
1	15886	33.31	0
1	15935	33.41	0
1	15984	33.51	0
1	16033	33.61	0
1	16082	33.71	0
1	16131	33.81	0
1	16180	33.91	0
1	16231	34.01	0
1	16280	34.11	0
1	16329	34.21	0
1	16378	34.31	0
1	16427	34.41	0
1	16476	34.51	0
1	16525	34.61	0
1	16574	34.71	0
1	16623	34.81	0
1	16672	34.91	0
1	16723	35.01	0
1	16772	35.11	0
1	16821	35.21	0
1	16870	35.31	0
1	16919	35.41	0
1	16968	35.51	0
1	17017	35.61	0
1	17066	35.71	0
1	17115	35.81	0
1	17164	35.91	0
1	17215	36.01	0
1	17264	36.11	0
1	17313	36.21	0
1	17362	36.31	0
1	17411	36.41	0
1	17460	36.51	0
1	17509	36.61	0
1	17558	36.71	0
1	17607	36.81	0
1	17656	36.91	0
1	17707	37.01	0
1	17756	37.11	0
1	17805	37.21	0
1	17854	37.31	0
1	17903	37.41	0
1	17952	37.51	0
1	18001	37.61	0
1	18050	37.71	0
1	18099	37.81	0
1	18148	37.91	0
1	18199	38.01	0
1	18248	38.11	0
1	18297	38.21	0
1	18346	38.31	0
1	18395	38.41	0
1	18444	38.51	0
1	18493	38.61	0
1	18542	38.71	0
1	18591	38.81	0
1	18640	38.91	0
1	18691	39.01	0
1	18740	39.11	0
1	18789	39.21	0
1	18838	39.31	0
1	18887	39.41	0
1	18936	39.51	0
1	18985	39.61	0
1	19034	39.71	0
1	19083	39.81	0
1	19132	39.91	0
1	19183	40.01	0
1	19232	40.11	0
1	19281	40.21	0
1	19330	40.31	0
1	19379	40.41	0
1	19428	40.51	0
1	19477	40.61	0
1	19526	40.71	0
1	19575	40.81	0
1	19624	40.91	0
1	19675	41.01	0
1	19724	41.11	0
1	19773	41.21	0
1	19822	41.31	0
1	19871	41.41	0
1	19920	41.51	0
1	19969	41.61	0
1	20018	41.71	0
1	20067	41.81	0
1	20116	41.91	0
1	20167	42.01	0
1	20216	42.11	0
1	20265	42.21	0
1	20314	42.31	0
1	20363	42.41	0
1	20412	42.51	0
1	20461	42.61	0
1	20576	42.71	0
1	20624	42.81	0
1	20672	42.91	0
1	20722	43.01	0
1	20770	43.11	0
1	20818	43.21	0
1	20866	43.31	0
1	20914	43.41	0
1	20962	43.51	0
1	21010	43.61	0
1	21058	43.71	0
1	21106	43.81	0
1	21154	43.91	0
1	21204	44.01	0
1	21252	44.11	0
1	21300	44.21	0
1	21348	44.31	0
1	21396	44.41	0
1	21444	44.51	0
1	21492	44.61	0
1	21540	44.71	0
1	21588	44.81	0
1	21636	44.91	0
1	21686	45.01	0
1	21734	45.11	0
1	21782	45.21	0
1	21830	45.31	0
1	21878	45.41	0
1	21926	45.51	0
1	21974	45.61	0
1	22022	45.71	0
1	22070	45.81	0
1	22118	45.91	0
1	22168	46.01	0
1	22216	46.11	0
1	22264	46.21	0
1	22312	46.31	0
1	22360	46.41	0
1	22408	46.51	0
1	22456	46.61	0
1	22504	46.71	0
1	22552	46.81	0
1	22600	46.91	0
1	22650	47.01	0
1	22698	47.11	0
1	22746	47.21	0
1	22794	47.31	0
1	22842	47.41	0
1	22890	47.51	0
1	22938	47.61	0
1	22986	47.71	0
1	23034	47.81	0
1	23082	47.91	0
1	23132	48.01	0
1	23180	48.11	0
1	23228	48.21	0
1	23276	48.31	0
1	23324	48.41	0
1	23372	48.51	0
1	23420	48.61	0
1	23468	48.71	0
1	23516	48.81	0
1	23564	48.91	0
1	23614	49.01	0
1	23662	49.11	0
1	23710	49.21	0
1	23758	49.31	0
1	23806	49.41	0
1	23854	49.51	0
1	23902	49.61	0
1	23950	49.71	0
1	23998	49.81	0
1	24046	49.91	0
1	24096	50.01	0
1	24144	50.11	0
1	24192	50.21	0
1	24240	50.31	0
1	24288	50.41	0
1	24336	50.51	0
1	24384	50.61	0
1	24432	50.71	0
1	24480	50.81	0
1	24528	50.91	0
1	24578	51.01	0
1	24626	51.11	0
1	24674	51.21	0
1	24722	51.31	0
1	24770	51.41	0
1	24818	51.51	0
1	24866	51.61	0
1	24914	51.71	0
1	24962	51.81	0
1	25010	51.91	0
1	25060	52.01	0
1	25108	52.11	0
1	25156	52.21	0
1	25204	52.31	0
1	25252	52.41	0
1	25300	52.51	0
1	25348	52.61	0
1	25396	52.71	0
1	25444	52.81	0
1	25492	52.91	0
1	25542	53.01	0
1	25590	53.11	0
1	25638	53.21	0
1	25686	53.31	0
1	25734	53.41	0
1	25782	53.51	0
1	25830	53.61	0
1	25878	53.71	0
1	25926	53.81	0
1	25974	53.91	0
1	26024	54.01	0
1	26072	54.11	0
1	26120	54.21	0
1	26168	54.31	0
1	26216	54.41	0
1	26264	54.51	0
1	26312	54.61	0
1	26360	54.71	0
1	26408	54.81	0
1	26456	54.91	0
1	26506	55.01	0
1	26554	55.11	0
1	26602	55.21	0
1	26650	55.31	0
1	26698	55.41	0
1	26746	55.51	0
1	26794	55.61	0
1	26842	55.71	0
1	26890	55.81	0
1	26938	55.91	0
1	26988	56.01	0
1	27036	56.11	0
1	27084	56.21	0
1	27132	56.31	0
1	27180	56.41	0
1	27228	56.51	0
1	27276	56.61	0
1	27324	56.71	0
1	27372	56.81	0
1	27420	56.91	0
1	27470	57.01	0
1	27518	57.11	0
1	27566	57.21	0
1	27614	57.31	0
1	27662	57.41	0
1	27710	57.51	0
1	27758	57.61	0
1	27806	57.71	0
1	27854	57.81	0
1	27902	57.91	0
1	27952	58.01	0
1	28000	58.11	0
1	28048	58.21	0
1	28096	58.31	0
1	28144	58.41	0
1	28192	58.51	0
1	28240	58.61	0
1	28288	58.71	0
1	28336	58.81	0
1	28384	58.91	0
1	28434	59.01	0
1	28482	59.11	0
1	28530	59.21	0
1	28578	59.31	0
1	28626	59.41	0
1	28674	59.51	0
1	28722	59.61	0
1	28770	59.71	0
1	28818	59.81	0
1	28866	59.91	0
1	28916	60.01	0
1	28964	60.11	0
1	29012	60.21	0
1	29060	60.31	0
1	29108	60.41	0
1	29156	60.51	0
1	29204	60.61	0
1	29252	60.71	0
1	29300	60.81	0
1	29348	60.91	0
1	29398	61.01	0
1	29446	61.11	0
1	29494	61.21	0
1	29542	61.31	0
1	29590	61.41	0
1	29638	61.51	0
1	29686	61.61	0
1	29734	61.71	0
1	29782	61.81	0
1	29830	61.91	0
1	29880	62.01	0
1	29928	62.11	0
1	29976	62.21	0
1	30024	62.31	0
1	30072	62.41	0
1	30120	62.51	0
1	30168	62.61	0
1	30216	62.71	0
1	30264	62.81	0
1	30312	62.91	0
1	30362	63.01	0
1	30410	63.11	0
1	30458	63.21	0
1	30506	63.31	0
1	30554	63.41	0
1	30602	63.51	0
1	30650	63.61	0
1	30698	63.71	0
1	30746	63.81	0
1	30794	63.91	0
1	30844	64.01	0
1	30892	64.11	0
1	30940	64.21	0
1	30988	64.31	0
1	31036	64.41	0
1	31084	64.51	0
1	31132	64.61	0
1	31180	64.71	0
1	31228	64.81	0
1	31276	64.91	0
1	31326	65.01	0
1	31374	65.11	0
1	31422	65.21	0
1	31470	65.31	0
1	31518	65.41	0
1	31566	65.51	0
1	31614	65.61	0
1	31662	65.71	0
1	31710	65.81	0
1	31758	65.91	0
1	31808	66.01	0
1	31856	66.11	0
1	31904	66.21	0
1	31952	66.31	0
1	32000	66.41	0
1	32048	66.51	0
1	32096	66.61	0
1	32144	66.71	0
1	32192	66.81	0
1	32240	66.91	0
1	32290	67.01	0
1	32338	67.11	0
1	32386	67.21	0
1	32434	67.31	0
1	32482	67.41	0
1	32530	67.51	0
1	32578	67.61	0
1	32626	67.71	0
1	32674	67.81	0
1	32722	67.91	0
1	32772	68.01	0
1	32820	68.11	0
1	32868	68.21	0
1	32916	68.31	0
1	32964	68.41	0
1	33012	68.51	0
1	33060	68.61	0
1	33108	68.71	0
1	33156	68.81	0
1	33204	68.91	0
1	33254	69.01	0
1	33302	69.11	0
1	33350	69.21	0
1	33398	69.31	0
1	33446	69.41	0
1	33494	69.51	0
1	33542	69.61	0
1	33590	69.71	0
1	33638	69.81	0
1	33686	69.91	0
1	33736	70.01	0
1	33784	70.11	0
1	33832	70.21	0
1	33880	70.31	0
1	33928	70.41	0
1	33976	70.51	0
1	34024	70.61	0
1	34072	70.71	0
1	34120	70.81	0
1	34168	70.91	0
1	34218	71.01	0
1	34266	71.11	0
1	34314	71.21	0
1	34362	71.31	0
1	34410	71.41	0
1	34458	71.51	0
1	34506	71.61	0
1	34554	71.71	0
1	34602	71.81	0
1	34650	71.91	0
1	34700	72.01	0
1	34748	72.11	0
1	34796	72.21	0
1	34844	72.31	0
1	34892	72.41	0
1	34940	72.51	0
1	34988	72.61	0
1	35036	72.71	0
1	35084	72.81	0
1	35132	72.91	0
1	35182	73.01	0
1	35230	73.11	0
1	35278	73.21	0
1	35326	73.31	0
1	35374	73.41	0
1	35422	73.51	0
1	35470	73.61	0
1	35518	73.71	0
1	35566	73.81	0
1	35614	73.91	0
1	35664	74.01	0
1	35712	74.11	0
1	35760	74.21	0
1	35808	74.31	0
1	35856	74.41	0
1	35904	74.51	0
1	35952	74.61	0
1	36000	74.71	0
1	36048	74.81	0
1	36096	74.91	0
1	36146	75.01	0
1	36194	75.11	0
1	36242	75.21	0
1	36290	75.31	0
1	36338	75.41	0
1	36386	75.51	0
1	36434	75.61	0
1	36482	75.71	0
1	36530	75.81	0
1	36578	75.91	0
1	36628	76.01	0
1	36676	76.11	0
1	36724	76.21	0
1	36772	76.31	0
1	36820	76.41	0
1	36868	76.51	0
1	36916	76.61	0
1	36964	76.71	0
1	37012	76.81	0
1	37060	76.91	0
1	37110	77.01	0
1	37158	77.11	0
1	37206	77.21	0
1	37254	77.31	0
1	37302	77.41	0
1	37350	77.51	0
1	37398	77.61	0
1	37446	77.71	0
1	37494	77.81	0
1	37542	77.91	0
1	37592	78.01	0
1	37640	78.11	0
1	37688	78.21	0
1	37736	78.31	0
1	37784	78.41	0
1	37832	78.51	0
1	37880	78.61	0
1	37928	78.71	0
1	37976	78.81	0
1	38024	78.91	0
1	38074	79.01	0
1	38122	79.11	0
1	38170	79.21	0
1	38218	79.31	0
1	38266	79.41	0
1	38314	79.51	0
1	38362	79.61	0
1	38410	79.71	0
1	38458	79.81	0
1	38506	79.91	0
1	38556	80.01	0
1	38604	80.11	0
1	38652	80.21	0
1	38700	80.31	0
1	38748	80.41	0
1	38796	80.51	0
1	38844	80.61	0
1	38892	80.71	0
1	38940	80.81	0
1	38988	80.91	0
1	39038	81.01	0
1	39086	81.11	0
1	39134	81.21	0
1	39182	81.31	0
1	39230	81.41	0
1	39278	81.51	0
1	39326	81.61	0
1	39374	81.71	0
1	39422	81.81	0
1	39470	81.91	0
1	39520	82.01	0
1	39568	82.11	0
1	39616	82.21	0
1	39664	82.31	0
1	39712	82.41	0
1	39760	82.51	0
1	39808	82.61	0
1	39856	82.71	0
1	39904	82.81	0
1	39952	82.91	0
1	40002	83.01	0
1	40050	83.11	0
1	40098	83.21	0
1	40146	83.31	0
1	40194	83.41	0
1	40242	83.51	0
1	40290	83.61	0
1	40338	83.71	0
1	40386	83.81	0
1	40434	83.91	0
1	40484	84.01	0
1	40532	84.11	0
1	40580	84.21	0
1	40628	84.31	0
1	40676	84.41	0
1	40724	84.51	0
1	40772	84.61	0
1	40820	84.71	0
1	40868	84.81	0
1	40916	84.91	0
1	40966	85.01	0
1	41014	85.11	0
1	41062	85.21	0
1	41110	85.31	0
1	41158	85.41	0
1	41206	85.51	0
1	41254	85.61	0
1	41302	85.71	0
1	41350	85.81	0
1	41398	85.91	0
1	41448	86.01	0
1	41496	86.11	0
1	41544	86.21	0
1	41592	86.31	0
1	41640	86.41	0
1	41688	86.51	0
1	41736	86.61	0
1	41784	86.71	0
1	41832	86.81	0
1	41880	86.91	0
1	41930	87.01	0
1	41978	87.11	0
1	42026	87.21	0
1	42074	87.31	0
1	42122	87.41	0
1	42170	87.51	0
1	42218	87.61	0
1	42266	87.71	0
1	42314	87.81	0
1	42362	87.91	0
1	42412	88.01	0
1	42460	88.11	0
1	42508	88.21	0
1	42556	88.31	0
1	42604	88.41	0
1	42652	88.51	0
1	42700	88.61	0
1	42748	88.71	0
1	42796	88.81	0
1	42844	88.91	0
1	42894	89.01	0
1	42942	89.11	0
1	42990	89.21	0
1	43038	89.31	0
1	43086	89.41	0
1	43134	89.51	0
1	43182	89.61	0
1	43230	89.71	0
1	43278	89.81	0
1	43326	89.91	0
1	43376	90.01	0
1	43424	90.11	0
1	43472	90.21	0
1	43520	90.31	0
1	43568	90.41	0
1	43616	90.51	0
1	43664	90.61	0
1	43712	90.71	0
1	43760	90.81	0
1	43808	90.91	0
1	43858	91.01	0
1	43906	91.11	0
1	43954	91.21	0
1	44002	91.31	0
1	44050	91.41	0
1	44098	91.51	0
1	44146	91.61	0
1	44194	91.71	0
1	44242	91.81	0
1	44290	91.91	0
1	44340	92.01	0
1	44388	92.11	0
1	44436	92.21	0
1	44484	92.31	0
1	44532	92.41	0
1	44580	92.51	0
1	44628	92.61	0
1	44676	92.71	0
1	44724	92.81	0
1	44772	92.91	0
1	44822	93.01	0
1	44870	93.11	0
1	44918	93.21	0
1	44966	93.31	0
1	45014	93.41	0
1	45062	93.51	0
1	45110	93.61	0
1	45158	93.71	0
1	45206	93.81	0
1	45254	93.91	0
1	45304	94.01	0
1	45352	94.11	0
1	45400	94.21	0
1	45448	94.31	0
1	45496	94.41	0
1	45544	94.51	0
1	45592	94.61	0
1	45640	94.71	0
1	45688	94.81	0
1	45736	94.91	0
1	45786	95.01	0
1	45834	95.11	0
1	45882	95.21	0
1	45930	95.31	0
1	45978	95.41	0
1	46026	95.51	0
1	46074	95.61	0
1	46122	95.71	0
1	46170	95.81	0
1	46218	95.91	0
1	46268	96.01	0
1	46316	96.11	0
1	46364	96.21	0
1	46412	96.31	0
1	46460	96.41	0
1	46508	96.51	0
1	46556	96.61	0
1	46604	96.71	0
1	46652	96.81	0
1	46700	96.91	0
1	46750	97.01	0
1	46798	97.11	0
1	46846	97.21	0
1	46894	97.31	0
1	46942	97.41	0
1	46990	97.51	0
1	47038	97.61	0
1	47086	97.71	0
1	47134	97.81	0
1	47182	97.91	0
1	47232	98.01	0
1	47280	98.11	0
1	47328	98.21	0
1	47376	98.31	0
1	47424	98.41	0
1	47472	98.51	0
1	47520	98.61	0
1	47568	98.71	0
1	47616	98.81	0
1	47664	98.91	0
1	47714	99.01	0
1	47762	99.11	0
1	47810	99.21	0
1	47858	99.31	0
1	47906	99.41	0
1	47954	99.51	0
1	48002	99.61	0
1	48050	99.71	0
1	48098	99.81	0
1	48146	99.91	0
2	113	1.11	0
2	161	1.21	0
2	209	1.31	0
2	257	1.41	0
2	305	1.51	0
2	353	1.61	0
2	401	1.71	0
2	449	1.81	0
2	497	1.91	0
2	547	2.01	0
2	595	2.11	0
2	643	2.21	0
2	691	2.31	0
2	739	2.41	0
2	787	2.51	0
2	835	2.61	0
2	883	2.71	0
2	931	2.81	0
2	979	2.91	0
2	1029	3.01	0
2	1077	3.11	0
2	1125	3.21	0
2	1173	3.31	0
2	1221	3.41	0
2	1269	3.51	0
2	1317	3.61	0
2	1365	3.71	0
2	1413	3.81	0
2	1461	3.91	0
2	1511	4.01	0
2	1559	4.11	0
2	1607	4.21	0
2	1655	4.31	0
2	1703	4.41	0
2	1751	4.51	0
2	1799	4.61	0
2	1847	4.71	0
2	1895	4.81	0
2	1943	4.91	0
2	1993	5.01	0
2	2041	5.11	0
2	2089	5.21	0
2	2137	5.31	0
2	2185	5.41	0
2	2233	5.51	0
2	2281	5.61	0
2	2329	5.71	0
2	2377	5.81	0
2	2425	5.91	0
2	2475	6.01	0
2	2523	6.11	0
2	2571	6.21	0
2	2619	6.31	0
2	2667	6.41	0
2	2715	6.51	0
2	2763	6.61	0
2	2811	6.71	0
2	2859	6.81	0
2	2907	6.91	0
2	2957	7.01	0
2	3005	7.11	0
2	3053	7.21	0
2	3101	7.31	0
2	3149	7.41	0
2	3197	7.51	0
2	3245	7.61	0
2	3293	7.71	0
2	3341	7.81	0
2	3389	7.91	0
2	3439	8.01	0
2	3487	8.11	0
2	3535	8.21	0
2	3583	8.31	0
2	3631	8.41	0
2	3679	8.51	0
2	3727	8.61	0
2	3775	8.71	0
2	3823	8.81	0
2	3871	8.91	0
2	3921	9.01	0
2	3969	9.11	0
2	4017	9.21	0
2	4065	9.31	0
2	4113	9.41	0
2	4161	9.51	0
2	4209	9.61	0
2	4257	9.71	0
2	4305	9.81	0
2	4353	9.91	0
2	4423	10.01	0
2	4472	10.11	0
2	4521	10.21	0
2	4570	10.31	0
2	4619	10.41	0
2	4668	10.51	0
2	4717	10.61	0
2	4766	10.71	0
2	4815	10.81	0
2	4864	10.91	0
2	4915	11.01	0
2	4964	11.11	0
2	5013	11.21	0
2	5062	11.31	0
2	5111	11.41	0
2	5160	11.51	0
2	5209	11.61	0
2	5258	11.71	0
2	5307	11.81	0
2	5356	11.91	0
2	5407	12.01	0
2	5456	12.11	0
2	5505	12.21	0
2	5554	12.31	0
2	5603	12.41	0
2	5652	12.51	0
2	5701	12.61	0
2	5750	12.71	0
2	5799	12.81	0
2	5848	12.91	0
2	5899	13.01	0
2	5948	13.11	0
2	5997	13.21	0
2	6046	13.31	0
2	6095	13.41	0
2	6144	13.51	0
2	6193	13.61	0
2	6242	13.71	0
2	6291	13.81	0
2	6340	13.91	0
2	6391	14.01	0
2	6440	14.11	0
2	6489	14.21	0
2	6538	14.31	0
2	6587	14.41	0
2	6636	14.51	0
2	6685	14.61	0
2	6734	14.71	0
2	6783	14.81	0
2	6832	14.91	0
2	6883	15.01	0
2	6932	15.11	0
2	6981	15.21	0
2	7030	15.31	0
2	7079	15.41	0
2	7128	15.51	0
2	7177	15.61	0
2	7226	15.71	0
2	7275	15.81	0
2	7324	15.91	0
2	7375	16.01	0
2	7424	16.11	0
2	7473	16.21	0
2	7522	16.31	0
2	7571	16.41	0
2	7620	16.51	0
2	7669	16.61	0
2	7718	16.71	0
2	7767	16.81	0
2	7816	16.91	0
2	7867	17.01	0
2	7916	17.11	0
2	7965	17.21	0
2	8014	17.31	0
2	8063	17.41	0
2	8112	17.51	0
2	8161	17.61	0
2	8210	17.71	0
2	8259	17.81	0
2	8308	17.91	0
2	8359	18.01	0
2	8408	18.11	0
2	8457	18.21	0
2	8506	18.31	0
2	8555	18.41	0
2	8604	18.51	0
2	8653	18.61	0
2	8702	18.71	0
2	8751	18.81	0
2	8800	18.91	0
2	8851	19.01	0
2	8900	19.11	0
2	8949	19.21	0
2	8998	19.31	0
2	9047	19.41	0
2	9096	19.51	0
2	9145	19.61	0
2	9194	19.71	0
2	9243	19.81	0
2	9292	19.91	0
2	9343	20.01	0
2	9392	20.11	0
2	9441	20.21	0
2	9490	20.31	0
2	9539	20.41	0
2	9588	20.51	0
2	9637	20.61	0
2	9686	20.71	0
2	9735	20.81	0
2	9784	20.91	0
2	9835	21.01	0
2	9884	21.11	0
2	9933	21.21	0
2	9982	21.31	0
2	10031	21.41	0
2	10080	21.51	0
2	10129	21.61	0
2	10178	21.71	0
2	10227	21.81	0
2	10276	21.91	0
2	10327	22.01	0
2	10376	22.11	0
2	10425	22.21	0
2	10474	22.31	0
2	10523	22.41	0
2	10572	22.51	0
2	10621	22.61	0
2	10670	22.71	0
2	10719	22.81	0
2	10768	22.91	0
2	10819	23.01	0
2	10868	23.11	0
2	10917	23.21	0
2	10966	23.31	0
2	11015	23.41	0
2	11064	23.51	0
2	11113	23.61	0
2	11162	23.71	0
2	11211	23.81	0
2	11260	23.91	0
2	11311	24.01	0
2	11360	24.11	0
2	11409	24.21	0
2	11458	24.31	0
2	11507	24.41	0
2	11556	24.51	0
2	11605	24.61	0
2	11654	24.71	0
2	11703	24.81	0
2	11752	24.91	0
2	11803	25.01	0
2	11852	25.11	0
2	11901	25.21	0
2	11950	25.31	0
2	11999	25.41	0
2	12048	25.51	0
2	12097	25.61	0
2	12146	25.71	0
2	12195	25.81	0
2	12244	25.91	0
2	12295	26.01	0
2	12344	26.11	0
2	12393	26.21	0
2	12442	26.31	0
2	12491	26.41	0
2	12540	26.51	0
2	12589	26.61	0
2	12638	26.71	0
2	12687	26.81	0
2	12736	26.91	0
2	12787	27.01	0
2	12836	27.11	0
2	12885	27.21	0
2	12934	27.31	0
2	12983	27.41	0
2	13032	27.51	0
2	13081	27.61	0
2	13130	27.71	0
2	13179	27.81	0
2	13228	27.91	0
2	13279	28.01	0
2	13328	28.11	0
2	13377	28.21	0
2	13426	28.31	0
2	13475	28.41	0
2	13524	28.51	0
2	13573	28.61	0
2	13622	28.71	0
2	13671	28.81	0
2	13720	28.91	0
2	13771	29.01	0
2	13820	29.11	0
2	13869	29.21	0
2	13918	29.31	0
2	13967	29.41	0
2	14016	29.51	0
2	14065	29.61	0
2	14114	29.71	0
2	14163	29.81	0
2	14212	29.91	0
2	14263	30.01	0
2	14312	30.11	0
2	14361	30.21	0
2	14410	30.31	0
2	14459	30.41	0
2	14508	30.51	0
2	14557	30.61	0
2	14606	30.71	0
2	14655	30.81	0
2	14704	30.91	0
2	14755	31.01	0
2	14804	31.11	0
2	14853	31.21	0
2	14902	31.31	0
2	14951	31.41	0
2	15000	31.51	0
2	15049	31.61	0
2	15098	31.71	0
2	15147	31.81	0
2	15196	31.91	0
2	15247	32.01	0
2	15296	32.11	0
2	15345	32.21	0
2	15394	32.31	0
2	15443	32.41	0
2	15492	32.51	0
2	15541	32.61	0
2	15590	32.71	0
2	15639	32.81	0
2	15688	32.91	0
2	15739	33.01	0
2	15788	33.11	0
2	15837	33.21	0
2	15886	33.31	0
2	15935	33.41	0
2	15984	33.51	0
2	16033	33.61	0
2	16082	33.71	0
2	16131	33.81	0
2	16180	33.91	0
2	16231	34.01	0
2	16280	34.11	0
2	16329	34.21	0
2	16378	34.31	0
2	16427	34.41	0
2	16476	34.51	0
2	16525	34.61	0
2	16574	34.71	0
2	16623	34.81	0
2	16672	34.91	0
2	16723	35.01	0
2	16772	35.11	0
2	16821	35.21	0
2	16870	35.31	0
2	16919	35.41	0
2	16968	35.51	0
2	17017	35.61	0
2	17066	35.71	0
2	17115	35.81	0
2	17164	35.91	0
2	17215	36.01	0
2	17264	36.11	0
2	17313	36.21	0
2	17362	36.31	0
2	17411	36.41	0
2	17460	36.51	0
2	17509	36.61	0
2	17558	36.71	0
2	17607	36.81	0
2	17656	36.91	0
2	17707	37.01	0
2	17756	37.11	0
2	17805	37.21	0
2	17854	37.31	0
2	17903	37.41	0
2	17952	37.51	0
2	18001	37.61	0
2	18050	37.71	0
2	18099	37.81	0
2	18148	37.91	0
2	18199	38.01	0
2	18248	38.11	0
2	18297	38.21	0
2	18346	38.31	0
2	18395	38.41	0
2	18444	38.51	0
2	18493	38.61	0
2	18542	38.71	0
2	18591	38.81	0
2	18640	38.91	0
2	18691	39.01	0
2	18740	39.11	0
2	18789	39.21	0
2	18838	39.31	0
2	18887	39.41	0
2	18936	39.51	0
2	18985	39.61	0
2	19034	39.71	0
2	19083	39.81	0
2	19132	39.91	0
2	19183	40.01	0
2	19232	40.11	0
2	19281	40.21	0
2	19330	40.31	0
2	19379	40.41	0
2	19428	40.51	0
2	19477	40.61	0
2	19526	40.71	0
2	19575	40.81	0
2	19624	40.91	0
2	19675	41.01	0
2	19724	41.11	0
2	19773	41.21	0
2	19822	41.31	0
2	19871	41.41	0
2	19920	41.51	0
2	19969	41.61	0
2	20018	41.71	0
2	20067	41.81	0
2	20116	41.91	0
2	20167	42.01	0
2	20216	42.11	0
2	20265	42.21	0
2	20314	42.31	0
2	20363	42.41	0
2	20412	42.51	0
2	20461	42.61	0
2	20576	42.71	0
2	20624	42.81	0
2	20672	42.91	0
2	20722	43.01	0
2	20770	43.11	0
2	20818	43.21	0
2	20866	43.31	0
2	20914	43.41	0
2	20962	43.51	0
2	21010	43.61	0
2	21058	43.71	0
2	21106	43.81	0
2	21154	43.91	0
2	21204	44.01	0
2	21252	44.11	0
2	21300	44.21	0
2	21348	44.31	0
2	21396	44.41	0
2	21444	44.51	0
2	21492	44.61	0
2	21540	44.71	0
2	21588	44.81	0
2	21636	44.91	0
2	21686	45.01	0
2	21734	45.11	0
2	21782	45.21	0
2	21830	45.31	0
2	21878	45.41	0
2	21926	45.51	0
2	21974	45.61	0
2	22022	45.71	0
2	22070	45.81	0
2	22118	45.91	0
2	22168	46.01	0
2	22216	46.11	0
2	22264	46.21	0
2	22312	46.31	0
2	22360	46.41	0
2	22408	46.51	0
2	22456	46.61	0
2	22504	46.71	0
2	22552	46.81	0
2	22600	46.91	0
2	22650	47.01	0
2	22698	47.11	0
2	22746	47.21	0
2	22794	47.31	0
2	22842	47.41	0
2	22890	47.51	0
2	22938	47.61	0
2	22986	47.71	0
2	23034	47.81	0
2	23082	47.91	0
2	23132	48.01	0
2	23180	48.11	0
2	23228	48.21	0
2	23276	48.31	0
2	23324	48.41	0
2	23372	48.51	0
2	23420	48.61	0
2	23468	48.71	0
2	23516	48.81	0
2	23564	48.91	0
2	23614	49.01	0
2	23662	49.11	0
2	23710	49.21	0
2	23758	49.31	0
2	23806	49.41	0
2	23854	49.51	0
2	23902	49.61	0
2	23950	49.71	0
2	23998	49.81	0
2	24046	49.91	0
2	24096	50.01	0
2	24144	50.11	0
2	24192	50.21	0
2	24240	50.31	0
2	24288	50.41	0
2	24336	50.51	0
2	24384	50.61	0
2	24432	50.71	0
2	24480	50.81	0
2	24528	50.91	0
2	24578	51.01	0
2	24626	51.11	0
2	24674	51.21	0
2	24722	51.31	0
2	24770	51.41	0
2	24818	51.51	0
2	24866	51.61	0
2	24914	51.71	0
2	24962	51.81	0
2	25010	51.91	0
2	25060	52.01	0
2	25108	52.11	0
2	25156	52.21	0
2	25204	52.31	0
2	25252	52.41	0
2	25300	52.51	0
2	25348	52.61	0
2	25396	52.71	0
2	25444	52.81	0
2	25492	52.91	0
2	25542	53.01	0
2	25590	53.11	0
2	25638	53.21	0
2	25686	53.31	0
2	25734	53.41	0
2	25782	53.51	0
2	25830	53.61	0
2	25878	53.71	0
2	25926	53.81	0
2	25974	53.91	0
2	26024	54.01	0
2	26072	54.11	0
2	26120	54.21	0
2	26168	54.31	0
2	26216	54.41	0
2	26264	54.51	0
2	26312	54.61	0
2	26360	54.71	0
2	26408	54.81	0
2	26456	54.91	0
2	26506	55.01	0
2	26554	55.11	0
2	26602	55.21	0
2	26650	55.31	0
2	26698	55.41	0
2	26746	55.51	0
2	26794	55.61	0
2	26842	55.71	0
2	26890	55.81	0
2	26938	55.91	0
2	26988	56.01	0
2	27036	56.11	0
2	27084	56.21	0
2	27132	56.31	0
2	27180	56.41	0
2	27228	56.51	0
2	27276	56.61	0
2	27324	56.71	0
2	27372	56.81	0
2	27420	56.91	0
2	27470	57.01	0
2	27518	57.11	0
2	27566	57.21	0
2	27614	57.31	0
2	27662	57.41	0
2	27710	57.51	0
2	27758	57.61	0
2	27806	57.71	0
2	27854	57.81	0
2	27902	57.91	0
2	27952	58.01	0
2	28000	58.11	0
2	28048	58.21	0
2	28096	58.31	0
2	28144	58.41	0
2	28192	58.51	0
2	28240	58.61	0
2	28288	58.71	0
2	28336	58.81	0
2	28384	58.91	0
2	28434	59.01	0
2	28482	59.11	0
2	28530	59.21	0
2	28578	59.31	0
2	28626	59.41	0
2	28674	59.51	0
2	28722	59.61	0
2	28770	59.71	0
2	28818	59.81	0
2	28866	59.91	0
2	28916	60.01	0
2	28964	60.11	0
2	29012	60.21	0
2	29060	60.31	0
2	29108	60.41	0
2	29156	60.51	0
2	29204	60.61	0
2	29252	60.71	0
2	29300	60.81	0
2	29348	60.91	0
2	29398	61.01	0
2	29446	61.11	0
2	29494	61.21	0
2	29542	61.31	0
2	29590	61.41	0
2	29638	61.51	0
2	29686	61.61	0
2	29734	61.71	0
2	29782	61.81	0
2	29830	61.91	0
2	29880	62.01	0
2	29928	62.11	0
2	29976	62.21	0
2	30024	62.31	0
2	30072	62.41	0
2	30120	62.51	0
2	30168	62.61	0
2	30216	62.71	0
2	30264	62.81	0
2	30312	62.91	0
2	30362	63.01	0
2	30410	63.11	0
2	30458	63.21	0
2	30506	63.31	0
2	30554	63.41	0
2	30602	63.51	0
2	30650	63.61	0
2	30698	63.71	0
2	30746	63.81	0
2	30794	63.91	0
2	30844	64.01	0
2	30892	64.11	0
2	30940	64.21	0
2	30988	64.31	0
2	31036	64.41	0
2	31084	64.51	0
2	31132	64.61	0
2	31180	64.71	0
2	31228	64.81	0
2	31276	64.91	0
2	31326	65.01	0
2	31374	65.11	0
2	31422	65.21	0
2	31470	65.31	0
2	31518	65.41	0
2	31566	65.51	0
2	31614	65.61	0
2	31662	65.71	0
2	31710	65.81	0
2	31758	65.91	0
2	31808	66.01	0
2	31856	66.11	0
2	31904	66.21	0
2	31952	66.31	0
2	32000	66.41	0
2	32048	66.51	0
2	32096	66.61	0
2	32144	66.71	0
2	32192	66.81	0
2	32240	66.91	0
2	32290	67.01	0
2	32338	67.11	0
2	32386	67.21	0
2	32434	67.31	0
2	32482	67.41	0
2	32530	67.51	0
2	32578	67.61	0
2	32626	67.71	0
2	32674	67.81	0
2	32722	67.91	0
2	32772	68.01	0
2	32820	68.11	0
2	32868	68.21	0
2	32916	68.31	0
2	32964	68.41	0
2	33012	68.51	0
2	33060	68.61	0
2	33108	68.71	0
2	33156	68.81	0
2	33204	68.91	0
2	33254	69.01	0
2	33302	69.11	0
2	33350	69.21	0
2	33398	69.31	0
2	33446	69.41	0
2	33494	69.51	0
2	33542	69.61	0
2	33590	69.71	0
2	33638	69.81	0
2	33686	69.91	0
2	33736	70.01	0
2	33784	70.11	0
2	33832	70.21	0
2	33880	70.31	0
2	33928	70.41	0
2	33976	70.51	0
2	34024	70.61	0
2	34072	70.71	0
2	34120	70.81	0
2	34168	70.91	0
2	34218	71.01	0
2	34266	71.11	0
2	34314	71.21	0
2	34362	71.31	0
2	34410	71.41	0
2	34458	71.51	0
2	34506	71.61	0
2	34554	71.71	0
2	34602	71.81	0
2	34650	71.91	0
2	34700	72.01	0
2	34748	72.11	0
2	34796	72.21	0
2	34844	72.31	0
2	34892	72.41	0
2	34940	72.51	0
2	34988	72.61	0
2	35036	72.71	0
2	35084	72.81	0
2	35132	72.91	0
2	35182	73.01	0
2	35230	73.11	0
2	35278	73.21	0
2	35326	73.31	0
2	35374	73.41	0
2	35422	73.51	0
2	35470	73.61	0
2	35518	73.71	0
2	35566	73.81	0
2	35614	73.91	0
2	35664	74.01	0
2	35712	74.11	0
2	35760	74.21	0
2	35808	74.31	0
2	35856	74.41	0
2	35904	74.51	0
2	35952	74.61	0
2	36000	74.71	0
2	36048	74.81	0
2	36096	74.91	0
2	36146	75.01	0
2	36194	75.11	0
2	36242	75.21	0
2	36290	75.31	0
2	36338	75.41	0
2	36386	75.51	0
2	36434	75.61	0
2	36482	75.71	0
2	36530	75.81	0
2	36578	75.91	0
2	36628	76.01	0
2	36676	76.11	0
2	36724	76.21	0
2	36772	76.31	0
2	36820	76.41	0
2	36868	76.51	0
2	36916	76.61	0
2	36964	76.71	0
2	37012	76.81	0
2	37060	76.91	0
2	37110	77.01	0
2	37158	77.11	0
2	37206	77.21	0
2	37254	77.31	0
2	37302	77.41	0
2	37350	77.51	0
2	37398	77.61	0
2	37446	77.71	0
2	37494	77.81	0
2	37542	77.91	0
2	37592	78.01	0
2	37640	78.11	0
2	37688	78.21	0
2	37736	78.31	0
2	37784	78.41	0
2	37832	78.51	0
2	37880	78.61	0
2	37928	78.71	0
2	37976	78.81	0
2	38024	78.91	0
2	38074	79.01	0
2	38122	79.11	0
2	38170	79.21	0
2	38218	79.31	0
2	38266	79.41	0
2	38314	79.51	0
2	38362	79.61	0
2	38410	79.71	0
2	38458	79.81	0
2	38506	79.91	0
2	38556	80.01	0
2	38604	80.11	0
2	38652	80.21	0
2	38700	80.31	0
2	38748	80.41	0
2	38796	80.51	0
2	38844	80.61	0
2	38892	80.71	0
2	38940	80.81	0
2	38988	80.91	0
2	39038	81.01	0
2	39086	81.11	0
2	39134	81.21	0
2	39182	81.31	0
2	39230	81.41	0
2	39278	81.51	0
2	39326	81.61	0
2	39374	81.71	0
2	39422	81.81	0
2	39470	81.91	0
2	39520	82.01	0
2	39568	82.11	0
2	39616	82.21	0
2	39664	82.31	0
2	39712	82.41	0
2	39760	82.51	0
2	39808	82.61	0
2	39856	82.71	0
2	39904	82.81	0
2	39952	82.91	0
2	40002	83.01	0
2	40050	83.11	0
2	40098	83.21	0
2	40146	83.31	0
2	40194	83.41	0
2	40242	83.51	0
2	40290	83.61	0
2	40338	83.71	0
2	40386	83.81	0
2	40434	83.91	0
2	40484	84.01	0
2	40532	84.11	0
2	40580	84.21	0
2	40628	84.31	0
2	40676	84.41	0
2	40724	84.51	0
2	40772	84.61	0
2	40820	84.71	0
2	40868	84.81	0
2	40916	84.91	0
2	40966	85.01	0
2	41014	85.11	0
2	41062	85.21	0
2	41110	85.31	0
2	41158	85.41	0
2	41206	85.51	0
2	41254	85.61	0
2	41302	85.71	0
2	41350	85.81	0
2	41398	85.91	0
2	41448	86.01	0
2	41496	86.11	0
2	41544	86.21	0
2	41592	86.31	0
2	41640	86.41	0
2	41688	86.51	0
2	41736	86.61	0
2	41784	86.71	0
2	41832	86.81	0
2	41880	86.91	0
2	41930	87.01	0
2	41978	87.11	0
2	42026	87.21	0
2	42074	87.31	0
2	42122	87.41	0
2	42170	87.51	0
2	42218	87.61	0
2	42266	87.71	0
2	42314	87.81	0
2	42362	87.91	0
2	42412	88.01	0
2	42460	88.11	0
2	42508	88.21	0
2	42556	88.31	0
2	42604	88.41	0
2	42652	88.51	0
2	42700	88.61	0
2	42748	88.71	0
2	42796	88.81	0
2	42844	88.91	0
2	42894	89.01	0
2	42942	89.11	0
2	42990	89.21	0
2	43038	89.31	0
2	43086	89.41	0
2	43134	89.51	0
2	43182	89.61	0
2	43230	89.71	0
2	43278	89.81	0
2	43326	89.91	0
2	43376	90.01	0
2	43424	90.11	0
2	43472	90.21	0
2	43520	90.31	0
2	43568	90.41	0
2	43616	90.51	0
2	43664	90.61	0
2	43712	90.71	0
2	43760	90.81	0
2	43808	90.91	0
2	43858	91.01	0
2	43906	91.11	0
2	43954	91.21	0
2	44002	91.31	0
2	44050	91.41	0
2	44098	91.51	0
2	44146	91.61	0
2	44194	91.71	0
2	44242	91.81	0
2	44290	91.91	0
2	44340	92.01	0
2	44388	92.11	0
2	44436	92.21	0
2	44484	92.31	0
2	44532	92.41	0
2	44580	92.51	0
2	44628	92.61	0
2	44676	92.71	0
2	44724	92.81	0
2	44772	92.91	0
2	44822	93.01	0
2	44870	93.11	0
2	44918	93.21	0
2	44966	93.31	0
2	45014	93.41	0
2	45062	93.51	0
2	45110	93.61	0
2	45158	93.71	0
2	45206	93.81	0
2	45254	93.91	0
2	45304	94.01	0
2	45352	94.11	0
2	45400	94.21	0
2	45448	94.31	0
2	45496	94.41	0
2	45544	94.51	0
2	45592	94.61	0
2	45640	94.71	0
2	45688	94.81	0
2	45736	94.91	0
2	45786	95.01	0
2	45834	95.11	0
2	45882	95.21	0
2	45930	95.31	0
2	45978	95.41	0
2	46026	95.51	0
2	46074	95.61	0
2	46122	95.71	0
2	46170	95.81	0
2	46218	95.91	0
2	46268	96.01	0
2	46316	96.11	0
2	46364	96.21	0
2	46412	96.31	0
2	46460	96.41	0
2	46508	96.51	0
2	46556	96.61	0
2	46604	96.71	0
2	46652	96.81	0
2	46700	96.91	0
2	46750	97.01	0
2	46798	97.11	0
2	46846	97.21	0
2	46894	97.31	0
2	46942	97.41	0
2	46990	97.51	0
2	47038	97.61	0
2	47086	97.71	0
2	47134	97.81	0
2	47182	97.91	0
2	47232	98.01	0
2	47280	98.11	0
2	47328	98.21	0
2	47376	98.31	0
2	47424	98.41	0
2	47472	98.51	0
2	47520	98.61	0
2	47568	98.71	0
2	47616	98.81	0
2	47664	98.91	0
2	47714	99.01	0
2	47762	99.11	0
2	47810	99.21	0
2	47858	99.31	0
2	47906	99.41	0
2	47954	99.51	0
2	48002	99.61	0
2	48050	99.71	0
2	48098	99.81	0
2	48146	99.91	0
3	113	1.11	-0.000716383
3	161	1.21	-0.00136341
3	209	1.31	-0.00186974
3	257	1.41	-0.00225157
3	305	1.51	-0.00252443
3	353	1.61	-0.00270298
3	401	1.71	-0.00280098
3	449	1.81	-0.00283113
3	497	1.91	-0.00280509
3	547	2.01	-0.00273342
3	595	2.11	-0.00262559
3	643	2.21	-0.00249005
3	691	2.31	-0.00233419
3	739	2.41	-0.00216447
3	787	2.51	-0.00198642
3	835	2.61	-0.00180472
3	883	2.71	-0.0016233
3	931	2.81	-0.00144536
3	979	2.91	-0.00127346
3	1029	3.01	-0.0011096
3	1077	3.11	-0.000955278
3	1125	3.21	-0.000811546
3	1173	3.31	-0.00067908
3	1221	3.41	-0.000558232
3	1269	3.51	-0.000449082
3	1317	3.61	-0.000351487
3	1365	3.71	-0.00026512
3	1413	3.81	-0.000189514
3	1461	3.91	-0.000124092
3	1511	4.01	-6.81972e-05
3	1559	4.11	-2.11209e-05
3	1607	4.21	1.78769e-05
3	1655	4.31	4.9548e-05
3	1703	4.41	7.46407e-05
3	1751	4.51	9.38867e-05
3	1799	4.61	0.000107991
3	1847	4.71	0.000117625
3	1895	4.81	0.000123418
3	1943	4.91	0.000125957
3	1993	5.01	0.000125781
3	2041	5.11	0.00012338
3	2089	5.21	0.000119198
3	2137	5.31	0.000113629
3	2185	5.41	0.000107022
3	2233	5.51	9.96832e-05
3	2281	5.61	9.18747e-05
3	2329	5.71	8.38211e-05
3	2377	5.81	7.57109e-05
3	2425	5.91	6.76999e-05
3	2475	6.01	5.99137e-05
3	2523	6.11	5.24518e-05
3	2571	6.21	4.53896e-05
3	2619	6.31	3.87821e-05
3	2667	6.41	3.2666e-05
3	2715	6.51	2.70628e-05
3	2763	6.61	2.19809e-05
3	2811	6.71	1.74176e-05
3	2859	6.81	1.33618e-05
3	2907	6.91	9.79494e-06
3	2957	7.01	6.6932e-06
3	3005	7.11	4.02864e-06
3	3053	7.21	1.77051e-06
3	3101	7.31	-1.13691e-07
3	3149	7.41	-1.65736e-06
3	3197	7.51	-2.89397e-06
3	3245	7.61	-3.85652e-06
3	3293	7.71	-4.57698e-06
3	3341	7.81	-5.08591e-06
3	3389	7.91	-5.41219e-06
3	3439	8.01	-5.58279e-06
3	3487	8.11	-5.6226e-06
3	3535	8.21	-5.55442e-06
3	3583	8.31	-5.39886e-06
3	3631	8.41	-5.17441e-06
3	3679	8.51	-4.89748e-06
3	3727	8.61	-4.58246e-06
3	3775	8.71	-4.24184e-06
3	3823	8.81	-3.88634e-06
3	3871	8.91	-3.52499e-06
3	3921	9.01	-3.16534e-06
3	3969	9.11	-2.81353e-06
3	4017	9.21	-2.47446e-06
3	4065	9.31	-2.15192e-06
3	4113	9.41	-1.84873e-06
3	4161	9.51	-1.56685e-06
3	4209	9.61	-1.30751e-06
3	4257	9.71	-1.0713e-06
3	4305	9.81	-8.58321e-07
3	4353	9.91	-6.68206e-07
3	4423	10.01	-5.0026e-07
3	4472	10.11	-3.53514e-07
3	4521	10.21	-2.2679e-07
3	4570	10.31	-1.18765e-07
3	4619	10.41	-2.80163e-08
3	4668	10.51	4.6931e-08
3	4717	10.61	1.07573e-07
3	4766	10.71	1.55391e-07
3	4815	10.81	1.91831e-07
3	4864	10.91	2.18284e-07
3	4915	11.01	2.3607e-07
3	4964	11.11	2.46427e-07
3	5013	11.21	2.50502e-07
3	5062	11.31	2.49353e-07
3	5111	11.41	2.43938e-07
3	5160	11.51	2.3512e-07
3	5209	11.61	2.23669e-07
3	5258	11.71	2.10264e-07
3	5307	11.81	1.95496e-07
3	5356	11.91	1.79874e-07
3	5407	12.01	1.63833e-07
3	5456	12.11	1.47736e-07
3	5505	12.21	1.3188e-07
3	5554	12.31	1.16508e-07
3	5603	12.41	1.01807e-07
3	5652	12.51	8.79222e-08
3	5701	12.61	7.49541e-08
3	5750	12.71	6.29711e-08
3	5799	12.81	5.20114e-08
3	5848	12.91	4.20883e-08
3	5899	13.01	3.3193e-08
3	5948	13.11	2.53003e-08
3	5997	13.21	1.83718e-08
3	6046	13.31	1.23581e-08
3	6095	13.41	7.20348e-09
3	6144	13.51	2.84537e-09
3	6193	13.61	-7.80886e-10
3	6242	13.71	-3.74136e-09
3	6291	13.81	-6.10285e-09
3	6340	13.91	-7.93072e-09
3	6391	14.01	-9.28821e-09
3	6440	14.11	-1.0235e-08
3	6489	14.21	-1.08283e-08
3	6538	14.31	-1.11211e-08
3	6587	14.41	-1.11612e-08
3	6636	14.51	-1.09946e-08
3	6685	14.61	-1.06599e-08
3	6734	14.71	-1.01945e-08
3	6783	14.81	-9.62999e-09
3	6832	14.91	-8.99405e-09
3	6883	15.01	-8.31086e-09
3	6932	15.11	-7.60103e-09
3	6981	15.21	-6.88338e-09
3	7030	15.31	-6.17071e-09
3	7079	15.41	-5.47544e-09
3	7128	15.51	-4.80682e-09
3	7177	15.61	-4.17266e-09
3	7226	15.71	-3.57687e-09
3	7275	15.81	-3.02443e-09
3	7324	15.91	-2.51674e-09
3	7375	16.01	-2.05489e-09
3	7424	16.11	-1.63958e-09
3	7473	16.21	-1.26903e-09
3	7522	16.31	-9.42535e-10
3	7571	16.41	-6.57963e-10
3	7620	16.51	-4.1247e-10
3	7669	16.61	-2.04636e-10
3	7718	16.71	-2.91323e-11
3	7767	16.81	1.14753e-10
3	7816	16.91	2.30926e-10
3	7867	17.01	3.22231e-10
3	7916	17.11	3.91154e-10
3	7965	17.21	4.40892e-10
3	8014	17.31	4.73577e-10
3	8063	17.41	4.92051e-10
3	8112	17.51	4.98446e-10
3	8161	17.61	4.94893e-10
3	8210	17.71	4.82814e-10
3	8259	17.81	4.6434e-10
3	8308	17.91	4.40892e-10
3	8359	18.01	4.13536e-10
3	8408	18.11	3.83693e-10
3	8457	18.21	3.51719e-10
3	8506	18.31	3.19744e-10
3	8555	18.41	2.8777e-10
3	8604	18.51	2.55795e-10
3	8653	18.61	2.25953e-10
3	8702	18.71	1.97531e-10
3	8751	18.81	1.6982e-10
3	8800	18.91	1.44951e-10
3	8851	19.01	1.21503e-10
3	8900	19.11	1.00187e-10
3	8949	19.21	8.10019e-11
3	8998	19.31	6.32383e-11
3	9047	19.41	4.86722e-11
3	9096	19.51	3.44613e-11
3	9145	19.61	2.34479e-11
3	9194	19.71	1.27898e-11
3	9243	19.81	4.9738e-12
3	9292	19.91	-2.13163e-12
3	9343	20.01	-8.17124e-12
3	9392	20.11	-1.1724e-11
3	9441	20.21	-1.52767e-11
3	9490	20.31	-1.88294e-11
3	9539	20.41	-2.02505e-11
3	9588	20.51	-2.02505e-11
3	9637	20.61	-2.02505e-11
3	9686	20.71	-2.02505e-11
3	9735	20.81	-2.02505e-11
3	9784	20.91	-2.02505e-11
3	9835	21.01	-2.02505e-11
3	9884	21.11	-2.02505e-11
3	9933	21.21	-2.02505e-11
3	9982	21.31	-1.88294e-11
3	10031	21.41	-1.7053e-11
3	10080	21.51	-1.52767e-11
3	10129	21.61	-1.38556e-11
3	10178	21.71	-1.24345e-11
3	10227	21.81	-1.13687e-11
3	10276	21.91	-1.03029e-11
3	10327	22.01	-9.23706e-12
3	10376	22.11	-8.52651e-12
3	10425	22.21	-7.4607e-12
3	10474	22.31	-6.75016e-12
3	10523	22.41	-6.03961e-12
3	10572	22.51	-5.68434e-12
3	10621	22.61	-4.9738e-12
3	10670	22.71	-4.61853e-12
3	10719	22.81	-4.26326e-12
3	10768	22.91	-3.90799e-12
3	10819	23.01	-3.55271e-12
3	10868	23.11	-3.19744e-12
3	10917	23.21	-2.84217e-12
3	10966	23.31	-2.4869e-12
3	11015	23.41	-2.13163e-12
3	11064	23.51	-2.13163e-12
3	11113	23.61	-1.77636e-12
3	11162	23.71	-1.77636e-12
3	11211	23.81	-1.42109e-12
3	11260	23.91	-1.42109e-12
3	11311	24.01	-1.06581e-12
3	11360	24.11	-1.06581e-12
3	11409	24.21	-1.06581e-12
3	11458	24.31	-1.06581e-12
3	11507	24.41	-7.10543e-13
3	11556	24.51	-7.10543e-13
3	11605	24.61	-7.10543e-13
3	11654	24.71	-7.10543e-13
3	11703	24.81	-7.10543e-13
3	11752	24.91	-3.55271e-13
3	11803	25.01	-3.55271e-13
3	11852	25.11	-3.55271e-13
3	11901	25.21	-3.55271e-13
3	11950	25.31	-3.55271e-13
3	11999	25.41	-3.55271e-13
3	12048	25.51	-3.55271e-13
3	12097	25.61	-3.55271e-13
3	12146	25.71	-3.55271e-13
3	12195	25.81	-3.55271e-13
3	12244	25.91	0
3	12295	26.01	0
3	12344	26.11	0
3	12393	26.21	0
3	12442	26.31	0
3	12491	26.41	0
3	12540	26.51	0
3	12589	26.61	0
3	12638	26.71	0
3	12687	26.81	0
3	12736	26.91	0
3	12787	27.01	0
3	12836	27.11	0
3	12885	27.21	0
3	12934	27.31	0
3	12983	27.41	0
3	13032	27.51	0
3	13081	27.61	0
3	13130	27.71	0
3	13179	27.81	0
3	13228	27.91	0
3	13279	28.01	0
3	13328	28.11	0
3	13377	28.21	0
3	13426	28.31	0
3	13475	28.41	0
3	13524	28.51	0
3	13573	28.61	0
3	13622	28.71	0
3	13671	28.81	0
3	13720	28.91	0
3	13771	29.01	0
3	13820	29.11	0
3	13869	29.21	0
3	13918	29.31	0
3	13967	29.41	0
3	14016	29.51	0
3	14065	29.61	0
3	14114	29.71	0
3	14163	29.81	0
3	14212	29.91	0
3	14263	30.01	0
3	14312	30.11	0
3	14361	30.21	0
3	14410	30.31	0
3	14459	30.41	0
3	14508	30.51	0
3	14557	30.61	0
3	14606	30.71	0
3	14655	30.81	0
3	14704	30.91	0
3	14755	31.01	0
3	14804	31.11	0
3	14853	31.21	0
3	14902	31.31	0
3	14951	31.41	0
3	15000	31.51	0
3	15049	31.61	0
3	15098	31.71	0
3	15147	31.81	0
3	15196	31.91	0
3	15247	32.01	0
3	15296	32.11	0
3	15345	32.21	0
3	15394	32.31	0
3	15443	32.41	0
3	15492	32.51	0
3	15541	32.61	0
3	15590	32.71	0
3	15639	32.81	0
3	15688	32.91	0
3	15739	33.01	0
3	15788	33.11	0
3	15837	33.21	0
3	15886	33.31	0
3	15935	33.41	0
3	15984	33.51	0
3	16033	33.61	0
3	16082	33.71	0
3	16131	33.81	0
3	16180	33.91	0
3	16231	34.01	0
3	16280	34.11	0
3	16329	34.21	0
3	16378	34.31	0
3	16427	34.41	0
3	16476	34.51	0
3	16525	34.61	0
3	16574	34.71	0
3	16623	34.81	0
3	16672	34.91	0
3	16723	35.01	0
3	16772	35.11	0
3	16821	35.21	0
3	16870	35.31	0
3	16919	35.41	0
3	16968	35.51	0
3	17017	35.61	0
3	17066	35.71	0
3	17115	35.81	0
3	17164	35.91	0
3	17215	36.01	0
3	17264	36.11	0
3	17313	36.21	0
3	17362	36.31	0
3	17411	36.41	0
3	17460	36.51	0
3	17509	36.61	0
3	17558	36.71	0
3	17607	36.81	0
3	17656	36.91	0
3	17707	37.01	0
3	17756	37.11	0
3	17805	37.21	0
3	17854	37.31	0
3	17903	37.41	0
3	17952	37.51	0
3	18001	37.61	0
3	18050	37.71	0
3	18099	37.81	0
3	18148	37.91	0
3	18199	38.01	0
3	18248	38.11	0
3	18297	38.21	0
3	18346	38.31	0
3	18395	38.41	0
3	18444	38.51	0
3	18493	38.61	0
3	18542	38.71	0
3	18591	38.81	0
3	18640	38.91	0
3	18691	39.01	0
3	18740	39.11	0
3	18789	39.21	0
3	18838	39.31	0
3	18887	39.41	0
3	18936	39.51	0
3	18985	39.61	0
3	19034	39.71	0
3	19083	39.81	0
3	19132	39.91	0
3	19183	40.01	0
3	19232	40.11	0
3	19281	40.21	0
3	19330	40.31	0
3	19379	40.41	0
3	19428	40.51	0
3	19477	40.61	0
3	19526	40.71	0
3	19575	40.81	0
3	19624	40.91	0
3	19675	41.01	0
3	19724	41.11	0
3	19773	41.21	0
3	19822	41.31	0
3	19871	41.41	0
3	19920	41.51	0
3	19969	41.61	0
3	20018	41.71	0
3	20067	41.81	0
3	20116	41.91	0
3	20167	42.01	0
3	20216	42.11	0
3	20265	42.21	0
3	20314	42.31	0
3	20363	42.41	0
3	20412	42.51	0
3	20461	42.61	0
3	20576	42.71	0
3	20624	42.81	0
3	20672	42.91	0
3	20722	43.01	0
3	20770	43.11	0
3	20818	43.21	0
3	20866	43.31	0
3	20914	43.41	0
3	20962	43.51	0
3	21010	43.61	0
3	21058	43.71	0
3	21106	43.81	0
3	21154	43.91	0
3	21204	44.01	0
3	21252	44.11	0
3	21300	44.21	0
3	21348	44.31	0
3	21396	44.41	0
3	21444	44.51	0
3	21492	44.61	0
3	21540	44.71	0
3	21588	44.81	0
3	21636	44.91	0
3	21686	45.01	0
3	21734	45.11	0
3	21782	45.21	0
3	21830	45.31	0
3	21878	45.41	0
3	21926	45.51	0
3	21974	45.61	0
3	22022	45.71	0
3	22070	45.81	0
3	22118	45.91	0
3	22168	46.01	0
3	22216	46.11	0
3	22264	46.21	0
3	22312	46.31	0
3	22360	46.41	0
3	22408	46.51	0
3	22456	46.61	0
3	22504	46.71	0
3	22552	46.81	0
3	22600	46.91	0
3	22650	47.01	0
3	22698	47.11	0
3	22746	47.21	0
3	22794	47.31	0
3	22842	47.41	0
3	22890	47.51	0
3	22938	47.61	0
3	22986	47.71	0
3	23034	47.81	0
3	23082	47.91	0
3	23132	48.01	0
3	23180	48.11	0
3	23228	48.21	0
3	23276	48.31	0
3	23324	48.41	0
3	23372	48.51	0
3	23420	48.61	0
3	23468	48.71	0
3	23516	48.81	0
3	23564	48.91	0
3	23614	49.01	0
3	23662	49.11	0
3	23710	49.21	0
3	23758	49.31	0
3	23806	49.41	0
3	23854	49.51	0
3	23902	49.61	0
3	23950	49.71	0
3	23998	49.81	0
3	24046	49.91	0
3	24096	50.01	0
3	24144	50.11	0
3	24192	50.21	0
3	24240	50.31	0
3	24288	50.41	0
3	24336	50.51	0
3	24384	50.61	0
3	24432	50.71	0
3	24480	50.81	0
3	24528	50.91	0
3	24578	51.01	0
3	24626	51.11	0
3	24674	51.21	0
3	24722	51.31	0
3	24770	51.41	0
3	24818	51.51	0
3	24866	51.61	0
3	24914	51.71	0
3	24962	51.81	0
3	25010	51.91	0
3	25060	52.01	0
3	25108	52.11	0
3	25156	52.21	0
3	25204	52.31	0
3	25252	52.41	0
3	25300	52.51	0
3	25348	52.61	0
3	25396	52.71	0
3	25444	52.81	0
3	25492	52.91	0
3	25542	53.01	0
3	25590	53.11	0
3	25638	53.21	0
3	25686	53.31	0
3	25734	53.41	0
3	25782	53.51	0
3	25830	53.61	0
3	25878	53.71	0
3	25926	53.81	0
3	25974	53.91	0
3	26024	54.01	0
3	26072	54.11	0
3	26120	54.21	0
3	26168	54.31	0
3	26216	54.41	0
3	26264	54.51	0
3	26312	54.61	0
3	26360	54.71	0
3	26408	54.81	0
3	26456	54.91	0
3	26506	55.01	0
3	26554	55.11	0
3	26602	55.21	0
3	26650	55.31	0
3	26698	55.41	0
3	26746	55.51	0
3	26794	55.61	0
3	26842	55.71	0
3	26890	55.81	0
3	26938	55.91	0
3	26988	56.01	0
3	27036	56.11	0
3	27084	56.21	0
3	27132	56.31	0
3	27180	56.41	0
3	27228	56.51	0
3	27276	56.61	0
3	27324	56.71	0
3	27372	56.81	0
3	27420	56.91	0
3	27470	57.01	0
3	27518	57.11	0
3	27566	57.21	0
3	27614	57.31	0
3	27662	57.41	0
3	27710	57.51	0
3	27758	57.61	0
3	27806	57.71	0
3	27854	57.81	0
3	27902	57.91	0
3	27952	58.01	0
3	28000	58.11	0
3	28048	58.21	0
3	28096	58.31	0
3	28144	58.41	0
3	28192	58.51	0
3	28240	58.61	0
3	28288	58.71	0
3	28336	58.81	0
3	28384	58.91	0
3	28434	59.01	0
3	28482	59.11	0
3	28530	59.21	0
3	28578	59.31	0
3	28626	59.41	0
3	28674	59.51	0
3	28722	59.61	0
3	28770	59.71	0
3	28818	59.81	0
3	28866	59.91	0
3	28916	60.01	0
3	28964	60.11	0
3	29012	60.21	0
3	29060	60.31	0
3	29108	60.41	0
3	29156	60.51	0
3	29204	60.61	0
3	29252	60.71	0
3	29300	60.81	0
3	29348	60.91	0
3	29398	61.01	0
3	29446	61.11	0
3	29494	61.21	0
3	29542	61.31	0
3	29590	61.41	0
3	29638	61.51	0
3	29686	61.61	0
3	29734	61.71	0
3	29782	61.81	0
3	29830	61.91	0
3	29880	62.01	0
3	29928	62.11	0
3	29976	62.21	0
3	30024	62.31	0
3	30072	62.41	0
3	30120	62.51	0
3	30168	62.61	0
3	30216	62.71	0
3	30264	62.81	0
3	30312	62.91	0
3	30362	63.01	0
3	30410	63.11	0
3	30458	63.21	0
3	30506	63.31	0
3	30554	63.41	0
3	30602	63.51	0
3	30650	63.61	0
3	30698	63.71	0
3	30746	63.81	0
3	30794	63.91	0
3	30844	64.01	0
3	30892	64.11	0
3	30940	64.21	0
3	30988	64.31	0
3	31036	64.41	0
3	31084	64.51	0
3	31132	64.61	0
3	31180	64.71	0
3	31228	64.81	0
3	31276	64.91	0
3	31326	65.01	0
3	31374	65.11	0
3	31422	65.21	0
3	31470	65.31	0
3	31518	65.41	0
3	31566	65.51	0
3	31614	65.61	0
3	31662	65.71	0
3	31710	65.81	0
3	31758	65.91	0
3	31808	66.01	0
3	31856	66.11	0
3	31904	66.21	0
3	31952	66.31	0
3	32000	66.41	0
3	32048	66.51	0
3	32096	66.61	0
3	32144	66.71	0
3	32192	66.81	0
3	32240	66.91	0
3	32290	67.01	0
3	32338	67.11	0
3	32386	67.21	0
3	32434	67.31	0
3	32482	67.41	0
3	32530	67.51	0
3	32578	67.61	0
3	32626	67.71	0
3	32674	67.81	0
3	32722	67.91	0
3	32772	68.01	0
3	32820	68.11	0
3	32868	68.21	0
3	32916	68.31	0
3	32964	68.41	0
3	33012	68.51	0
3	33060	68.61	0
3	33108	68.71	0
3	33156	68.81	0
3	33204	68.91	0
3	33254	69.01	0
3	33302	69.11	0
3	33350	69.21	0
3	33398	69.31	0
3	33446	69.41	0
3	33494	69.51	0
3	33542	69.61	0
3	33590	69.71	0
3	33638	69.81	0
3	33686	69.91	0
3	33736	70.01	0
3	33784	70.11	0
3	33832	70.21	0
3	33880	70.31	0
3	33928	70.41	0
3	33976	70.51	0
3	34024	70.61	0
3	34072	70.71	0
3	34120	70.81	0
3	34168	70.91	0
3	34218	71.01	0
3	34266	71.11	0
3	34314	71.21	0
3	34362	71.31	0
3	34410	71.41	0
3	34458	71.51	0
3	34506	71.61	0
3	34554	71.71	0
3	34602	71.81	0
3	34650	71.91	0
3	34700	72.01	0
3	34748	72.11	0
3	34796	72.21	0
3	34844	72.31	0
3	34892	72.41	0
3	34940	72.51	0
3	34988	72.61	0
3	35036	72.71	0
3	35084	72.81	0
3	35132	72.91	0
3	35182	73.01	0
3	35230	73.11	0
3	35278	73.21	0
3	35326	73.31	0
3	35374	73.41	0
3	35422	73.51	0
3	35470	73.61	0
3	35518	73.71	0
3	35566	73.81	0
3	35614	73.91	0
3	35664	74.01	0
3	35712	74.11	0
3	35760	74.21	0
3	35808	74.31	0
3	35856	74.41	0
3	35904	74.51	0
3	35952	74.61	0
3	36000	74.71	0
3	36048	74.81	0
3	36096	74.91	0
3	36146	75.01	0
3	36194	75.11	0
3	36242	75.21	0
3	36290	75.31	0
3	36338	75.41	0
3	36386	75.51	0
3	36434	75.61	0
3	36482	75.71	0
3	36530	75.81	0
3	36578	75.91	0
3	36628	76.01	0
3	36676	76.11	0
3	36724	76.21	0
3	36772	76.31	0
3	36820	76.41	0
3	36868	76.51	0
3	36916	76.61	0
3	36964	76.71	0
3	37012	76.81	0
3	37060	76.91	0
3	37110	77.01	0
3	37158	77.11	0
3	37206	77.21	0
3	37254	77.31	0
3	37302	77.41	0
3	37350	77.51	0
3	37398	77.61	0
3	37446	77.71	0
3	37494	77.81	0
3	37542	77.91	0
3	37592	78.01	0
3	37640	78.11	0
3	37688	78.21	0
3	37736	78.31	0
3	37784	78.41	0
3	37832	78.51	0
3	37880	78.61	0
3	37928	78.71	0
3	37976	78.81	0
3	38024	78.91	0
3	38074	79.01	0
3	38122	79.11	0
3	38170	79.21	0
3	38218	79.31	0
3	38266	79.41	0
3	38314	79.51	0
3	38362	79.61	0
3	38410	79.71	0
3	38458	79.81	0
3	38506	79.91	0
3	38556	80.01	0
3	38604	80.11	0
3	38652	80.21	0
3	38700	80.31	0
3	38748	80.41	0
3	38796	80.51	0
3	38844	80.61	0
3	38892	80.71	0
3	38940	80.81	0
3	38988	80.91	0
3	39038	81.01	0
3	39086	81.11	0
3	39134	81.21	0
3	39182	81.31	0
3	39230	81.41	0
3	39278	81.51	0
3	39326	81.61	0
3	39374	81.71	0
3	39422	81.81	0
3	39470	81.91	0
3	39520	82.01	0
3	39568	82.11	0
3	39616	82.21	0
3	39664	82.31	0
3	39712	82.41	0
3	39760	82.51	0
3	39808	82.61	0
3	39856	82.71	0
3	39904	82.81	0
3	39952	82.91	0
3	40002	83.01	0
3	40050	83.11	0
3	40098	83.21	0
3	40146	83.31	0
3	40194	83.41	0
3	40242	83.51	0
3	40290	83.61	0
3	40338	83.71	0
3	40386	83.81	0
3	40434	83.91	0
3	40484	84.01	0
3	40532	84.11	0
3	40580	84.21	0
3	40628	84.31	0
3	40676	84.41	0
3	40724	84.51	0
3	40772	84.61	0
3	40820	84.71	0
3	40868	84.81	0
3	40916	84.91	0
3	40966	85.01	0
3	41014	85.11	0
3	41062	85.21	0
3	41110	85.31	0
3	41158	85.41	0
3	41206	85.51	0
3	41254	85.61	0
3	41302	85.71	0
3	41350	85.81	0
3	41398	85.91	0
3	41448	86.01	0
3	41496	86.11	0
3	41544	86.21	0
3	41592	86.31	0
3	41640	86.41	0
3	41688	86.51	0
3	41736	86.61	0
3	41784	86.71	0
3	41832	86.81	0
3	41880	86.91	0
3	41930	87.01	0
3	41978	87.11	0
3	42026	87.21	0
3	42074	87.31	0
3	42122	87.41	0
3	42170	87.51	0
3	42218	87.61	0
3	42266	87.71	0
3	42314	87.81	0
3	42362	87.91	0
3	42412	88.01	0
3	42460	88.11	0
3	42508	88.21	0
3	42556	88.31	0
3	42604	88.41	0
3	42652	88.51	0
3	42700	88.61	0
3	42748	88.71	0
3	42796	88.81	0
3	42844	88.91	0
3	42894	89.01	0
3	42942	89.11	0
3	42990	89.21	0
3	43038	89.31	0
3	43086	89.41	0
3	43134	89.51	0
3	43182	89.61	0
3	43230	89.71	0
3	43278	89.81	0
3	43326	89.91	0
3	43376	90.01	0
3	43424	90.11	0
3	43472	90.21	0
3	43520	90.31	0
3	43568	90.41	0
3	43616	90.51	0
3	43664	90.61	0
3	43712	90.71	0
3	43760	90.81	0
3	43808	90.91	0
3	43858	91.01	0
3	43906	91.11	0
3	43954	91.21	0
3	44002	91.31	0
3	44050	91.41	0
3	44098	91.51	0
3	44146	91.61	0
3	44194	91.71	0
3	44242	91.81	0
3	44290	91.91	0
3	44340	92.01	0
3	44388	92.11	0
3	44436	92.21	0
3	44484	92.31	0
3	44532	92.41	0
3	44580	92.51	0
3	44628	92.61	0
3	44676	92.71	0
3	44724	92.81	0
3	44772	92.91	0
3	44822	93.01	0
3	44870	93.11	0
3	44918	93.21	0
3	44966	93.31	0
3	45014	93.41	0
3	45062	93.51	0
3	45110	93.61	0
3	45158	93.71	0
3	45206	93.81	0
3	45254	93.91	0
3	45304	94.01	0
3	45352	94.11	0
3	45400	94.21	0
3	45448	94.31	0
3	45496	94.41	0
3	45544	94.51	0
3	45592	94.61	0
3	45640	94.71	0
3	45688	94.81	0
3	45736	94.91	0
3	45786	95.01	0
3	45834	95.11	0
3	45882	95.21	0
3	45930	95.31	0
3	45978	95.41	0
3	46026	95.51	0
3	46074	95.61	0
3	46122	95.71	0
3	46170	95.81	0
3	46218	95.91	0
3	46268	96.01	0
3	46316	96.11	0
3	46364	96.21	0
3	46412	96.31	0
3	46460	96.41	0
3	46508	96.51	0
3	46556	96.61	0
3	46604	96.71	0
3	46652	96.81	0
3	46700	96.91	0
3	46750	97.01	0
3	46798	97.11	0
3	46846	97.21	0
3	46894	97.31	0
3	46942	97.41	0
3	46990	97.51	0
3	47038	97.61	0
3	47086	97.71	0
3	47134	97.81	0
3	47182	97.91	0
3	47232	98.01	0
3	47280	98.11	0
3	47328	98.21	0
3	47376	98.31	0
3	47424	98.41	0
3	47472	98.51	0
3	47520	98.61	0
3	47568	98.71	0
3	47616	98.81	0
3	47664	98.91	0
3	47714	99.01	0
3	47762	99.11	0
3	47810	99.21	0
3	47858	99.31	0
3	47906	99.41	0
3	47954	99.51	0
3	48002	99.61	0
3	48050	99.71	0
3	48098	99.81	0
3	48146	99.91	0
4	113	1.11	-0.00437036
4	161	1.21	-0.00426837
4	209	1.31	-0.00410815
4	257	1.41	-0.00390303
4	305	1.51	-0.00366476
4	353	1.61	-0.00340356
4	401	1.71	-0.00312825
4	449	1.81	-0.00284628
4	497	1.91	-0.00256392
4	547	2.01	-0.0022863
4	595	2.11	-0.00201755
4	643	2.21	-0.00176089
4	691	2.31	-0.00151876
4	739	2.41	-0.00129289
4	787	2.51	-0.00108441
4	835	2.61	-0.00089393
4	883	2.71	-0.000721638
4	931	2.81	-0.000567355
4	979	2.91	-0.000430614
4	1029	3.01	-0.000310715
4	1077	3.11	-0.000206783
4	1125	3.21	-0.000117814
4	1173	3.31	-4.27149e-05
4	1221	3.41	1.96584e-05
4	1269	3.51	7.04736e-05
4	1317	3.61	0.000110896
4	1365	3.71	0.000142067
4	1413	3.81	0.00016509
4	1461	3.91	0.000181016
4	1511	4.01	0.000190834
4	1559	4.11	0.000195466
4	1607	4.21	0.00019576
4	1655	4.31	0.000192489
4	1703	4.41	0.000186354
4	1751	4.51	0.000177979
4	1799	4.61	0.000167916
4	1847	4.71	0.000156649
4	1895	4.81	0.000144597
4	1943	4.91	0.000132116
4	1993	5.01	0.000119508
4	2041	5.11	0.000107021
4	2089	5.21	9.48587e-05
4	2137	5.31	8.31796e-05
4	2185	5.41	7.21068e-05
4	2233	5.51	6.17299e-05
4	2281	5.61	5.21101e-05
4	2329	5.71	4.32839e-05
4	2377	5.81	3.52669e-05
4	2425	5.91	2.80577e-05
4	2475	6.01	2.16404e-05
4	2523	6.11	1.59878e-05
4	2571	6.21	1.1064e-05
4	2619	6.31	6.82631e-06
4	2667	6.41	3.22748e-06
4	2715	6.51	2.17307e-07
4	2763	6.61	-2.25598e-06
4	2811	6.71	-4.24448e-06
4	2859	6.81	-5.79961e-06
4	2907	6.91	-6.97134e-06
4	2957	7.01	-7.80753e-06
4	3005	7.11	-8.35346e-06
4	3053	7.21	-8.65149e-06
4	3101	7.31	-8.7408e-06
4	3149	7.41	-8.6573e-06
4	3197	7.51	-8.43352e-06
4	3245	7.61	-8.09868e-06
4	3293	7.71	-7.67874e-06
4	3341	7.81	-7.19651e-06
4	3389	7.91	-6.67185e-06
4	3439	8.01	-6.12177e-06
4	3487	8.11	-5.56072e-06
4	3535	8.21	-5.00073e-06
4	3583	8.31	-4.45164e-06
4	3631	8.41	-3.92136e-06
4	3679	8.51	-3.41601e-06
4	3727	8.61	-2.94018e-06
4	3775	8.71	-2.4971e-06
4	3823	8.81	-2.08883e-06
4	3871	8.91	-1.71644e-06
4	3921	9.01	-1.38016e-06
4	3969	9.11	-1.07955e-06
4	4017	9.21	-8.13576e-07
4	4065	9.31	-5.80794e-07
4	4113	9.41	-3.79414e-07
4	4161	9.51	-2.07408e-07
4	4209	9.61	-6.25825e-08
4	4257	9.71	5.73472e-08
4	4305	9.81	1.54703e-07
4	4353	9.91	2.31794e-07
4	4423	10.01	2.90877e-07
4	4472	10.11	3.3413e-07
4	4521	10.21	3.63618e-07
4	4570	10.31	3.81288e-07
4	4619	10.41	3.88944e-07
4	4668	10.51	3.88249e-07
4	4717	10.61	3.80715e-07
4	4766	10.71	3.67706e-07
4	4815	10.81	3.50439e-07
4	4864	10.91	3.29989e-07
4	4915	11.01	3.07294e-07
4	4964	11.11	2.83164e-07
4	5013	11.21	2.58291e-07
4	5062	11.31	2.33253e-07
4	5111	11.41	2.0853e-07
4	5160	11.51	1.84509e-07
4	5209	11.61	1.61493e-07
4	5258	11.71	1.39716e-07
4	5307	11.81	1.19345e-07
4	5356	11.91	1.00493e-07
4	5407	12.01	8.32259e-08
4	5456	12.11	6.75676e-08
4	5505	12.21	5.35106e-08
4	5554	12.31	4.10193e-08
4	5603	12.41	3.00361e-08
4	5652	12.51	2.04874e-08
4	5701	12.61	1.22867e-08
4	5750	12.71	5.33902e-09
4	5799	12.81	-4.56524e-10
4	5848	12.91	-5.20259e-09
4	5899	13.01	-9.00258e-09
4	5948	13.11	-1.19588e-08
4	5997	13.21	-1.41693e-08
4	6046	13.31	-1.57286e-08
4	6095	13.41	-1.67255e-08
4	6144	13.51	-1.72435e-08
4	6193	13.61	-1.73589e-08
4	6242	13.71	-1.71426e-08
4	6291	13.81	-1.66573e-08
4	6340	13.91	-1.59606e-08
4	6391	14.01	-1.51029e-08
4	6440	14.11	-1.41284e-08
4	6489	14.21	-1.30754e-08
4	6538	14.31	-1.19773e-08
4	6587	14.41	-1.08614e-08
4	6636	14.51	-9.75113e-09
4	6685	14.61	-8.66542e-09
4	6734	14.71	-7.61951e-09
4	6783	14.81	-6.62475e-09
4	6832	14.91	-5.69003e-09
4	6883	15.01	-4.82103e-09
4	6932	15.11	-4.02167e-09
4	6981	15.21	-3.29372e-09
4	7030	15.31	-2.63753e-09
4	7079	15.41	-2.05205e-09
4	7128	15.51	-1.53477e-09
4	7177	15.61	-1.08287e-09
4	7226	15.71	-6.92779e-10
4	7275	15.81	-3.606e-10
4	7324	15.91	-8.13571e-11
4	7375	16.01	1.49214e-10
4	7424	16.11	3.35731e-10
4	7473	16.21	4.82459e-10
4	7522	16.31	5.94369e-10
4	7571	16.41	6.75726e-10
4	7620	16.51	7.30083e-10
4	7669	16.61	7.61702e-10
4	7718	16.71	7.73781e-10
4	7767	16.81	7.70228e-10
4	7816	16.91	7.53175e-10
4	7867	17.01	7.25819e-10
4	7916	17.11	6.90292e-10
4	7965	17.21	6.48726e-10
4	8014	17.31	6.03251e-10
4	8063	17.41	5.54934e-10
4	8112	17.51	5.05196e-10
4	8161	17.61	4.55458e-10
4	8210	17.71	4.0643e-10
4	8259	17.81	3.58824e-10
4	8308	17.91	3.13349e-10
4	8359	18.01	2.70717e-10
4	8408	18.11	2.30571e-10
4	8457	18.21	1.93623e-10
4	8506	18.31	1.59872e-10
4	8555	18.41	1.29319e-10
4	8604	18.51	1.01963e-10
4	8653	18.61	7.78044e-11
4	8702	18.71	5.64881e-11
4	8751	18.81	3.8014e-11
4	8800	18.91	2.20268e-11
4	8851	19.01	8.88178e-12
4	8900	19.11	-2.4869e-12
4	8949	19.21	-1.13687e-11
4	8998	19.31	-1.88294e-11
4	9047	19.41	-2.45137e-11
4	9096	19.51	-2.8777e-11
4	9145	19.61	-3.16192e-11
4	9194	19.71	-3.33955e-11
4	9243	19.81	-3.44613e-11
4	9292	19.91	-3.44613e-11
4	9343	20.01	-3.41061e-11
4	9392	20.11	-3.30402e-11
4	9441	20.21	-3.16192e-11
4	9490	20.31	-3.01981e-11
4	9539	20.41	-2.80664e-11
4	9588	20.51	-2.59348e-11
4	9637	20.61	-2.41585e-11
4	9686	20.71	-2.20268e-11
4	9735	20.81	-1.98952e-11
4	9784	20.91	-1.77636e-11
4	9835	21.01	-1.59872e-11
4	9884	21.11	-1.38556e-11
4	9933	21.21	-1.1724e-11
4	9982	21.31	-9.9476e-12
4	10031	21.41	-8.17124e-12
4	10080	21.51	-6.39488e-12
4	10129	21.61	-4.9738e-12
4	10178	21.71	-3.55271e-12
4	10227	21.81	-2.4869e-12
4	10276	21.91	-1.42109e-12
4	10327	22.01	-3.55271e-13
4	10376	22.11	3.55271e-13
4	10425	22.21	1.42109e-12
4	10474	22.31	2.13163e-12
4	10523	22.41	2.84217e-12
4	10572	22.51	3.19744e-12
4	10621	22.61	3.90799e-12
4	10670	22.71	4.26326e-12
4	10719	22.81	4.61853e-12
4	10768	22.91	4.9738e-12
4	10819	23.01	5.32907e-12
4	10868	23.11	5.68434e-12
4	10917	23.21	6.03961e-12
4	10966	23.31	6.39488e-12
4	11015	23.41	6.75016e-12
4	11064	23.51	6.75016e-12
4	11113	23.61	7.10543e-12
4	11162	23.71	7.10543e-12
4	11211	23.81	7.4607e-12
4	11260	23.91	7.4607e-12
4	11311	24.01	7.81597e-12
4	11360	24.11	7.81597e-12
4	11409	24.21	7.81597e-12
4	11458	24.31	7.81597e-12
4	11507	24.41	8.17124e-12
4	11556	24.51	8.17124e-12
4	11605	24.61	8.17124e-12
4	11654	24.71	8.17124e-12
4	11703	24.81	8.17124e-12
4	11752	24.91	8.52651e-12
4	11803	25.01	8.52651e-12
4	11852	25.11	8.52651e-12
4	11901	25.21	8.52651e-12
4	11950	25.31	8.52651e-12
4	11999	25.41	8.52651e-12
4	12048	25.51	8.52651e-12
4	12097	25.61	8.52651e-12
4	12146	25.71	8.52651e-12
4	12195	25.81	8.52651e-12
4	12244	25.91	8.88178e-12
4	12295	26.01	8.88178e-12
4	12344	26.11	8.88178e-12
4	12393	26.21	8.88178e-12
4	12442	26.31	8.88178e-12
4	12491	26.41	8.88178e-12
4	12540	26.51	8.88178e-12
4	12589	26.61	8.88178e-12
4	12638	26.71	8.88178e-12
4	12687	26.81	8.88178e-12
4	12736	26.91	8.88178e-12
4	12787	27.01	8.88178e-12
4	12836	27.11	8.88178e-12
4	12885	27.21	8.88178e-12
4	12934	27.31	8.88178e-12
4	12983	27.41	8.88178e-12
4	13032	27.51	8.88178e-12
4	13081	27.61	8.88178e-12
4	13130	27.71	8.88178e-12
4	13179	27.81	8.88178e-12
4	13228	27.91	8.88178e-12
4	13279	28.01	8.88178e-12
4	13328	28.11	8.88178e-12
4	13377	28.21	8.88178e-12
4	13426	28.31	8.88178e-12
4	13475	28.41	8.88178e-12
4	13524	28.51	8.88178e-12
4	13573	28.61	8.88178e-12
4	13622	28.71	8.88178e-12
4	13671	28.81	8.88178e-12
4	13720	28.91	8.88178e-12
4	13771	29.01	8.88178e-12
4	13820	29.11	8.88178e-12
4	13869	29.21	8.88178e-12
4	13918	29.31	8.88178e-12
4	13967	29.41	8.88178e-12
4	14016	29.51	8.88178e-12
4	14065	29.61	8.88178e-12
4	14114	29.71	8.88178e-12
4	14163	29.81	8.88178e-12
4	14212	29.91	8.88178e-12
[...]
19	29153	60.496346287897	1
19	29201	60.596343555674	1
19	29249	60.696353824489	1
19	29297	60.796351094342	1
19	29345	60.896348365233	1
19	29393	60.996345637162	1
19	29443	61.096355910129	1
19	29491	61.196353184134	1
19	29539	61.296350459176	1
19	29587	61.396347735255	1
19	29635	61.496345012372	1
19	29683	61.596355290527	1
19	29731	61.69635256972	1
19	29779	61.796349849951	1
19	29827	61.89634713122	1
19	29875	61.996344413527	1
19	29925	62.096354696872	1
19	29973	62.196351981255	1
19	30021	62.296349266675	1
19	30069	62.396346553132	1
19	30117	62.496343840627	1
19	30165	62.59635412916	1
19	30213	62.696351418731	1
19	30261	62.79634870934	1
19	30309	62.896346000987	1
19	30357	62.996343293672	1
19	30407	63.096353587395	1
19	30455	63.196350882155	1
19	30503	63.296348177952	1
19	30551	63.396345474787	1
19	30599	63.49635577266	1
19	30647	63.596353071571	1
19	30695	63.69635037152	1
19	30743	63.796347672507	1
19	30791	63.896344974532	1
19	30839	63.996355277595	1
19	30889	64.096352581695	1
19	30937	64.196349886832	1
19	30985	64.296347193007	1
19	31033	64.39634450022	1
19	31081	64.496354808471	1
19	31129	64.59635211776	1
19	31177	64.696349428087	1
19	31225	64.796346739452	1
19	31273	64.896344051855	1
19	31321	64.996354365295	1
19	31371	65.096351679772	1
19	31419	65.196348995287	1
19	31467	65.29634631184	1
19	31515	65.396343629431	1
19	31563	65.49635394806	1
19	31611	65.596351267727	1
19	31659	65.696348588432	1
19	31707	65.796345910175	1
19	31755	65.896343232956	1
19	31803	65.996353556774	1
19	31853	66.096350881629	1
19	31901	66.196348207522	1
19	31949	66.296345534453	1
19	31997	66.396355862422	1
19	32045	66.496353191429	1
19	32093	66.596350521474	1
19	32141	66.696347852557	1
19	32189	66.796345184678	1
19	32237	66.896355517836	1
19	32285	66.996352852031	1
19	32335	67.096350187264	1
19	32383	67.196347523535	1
19	32431	67.296344860844	1
19	32479	67.396355199191	1
19	32527	67.496352538576	1
19	32575	67.596349878999	1
19	32623	67.69634722046	1
19	32671	67.796344562958	1
19	32719	67.896354906493	1
19	32767	67.996352251066	1
19	32817	68.096349596677	1
19	32865	68.196346943326	1
19	32913	68.296344291013	1
19	32961	68.396354639738	1
19	33009	68.496351989501	1
19	33057	68.596349340302	1
19	33105	68.696346692141	1
19	33153	68.796344045017	1
19	33201	68.89635439893	1
19	33249	68.996351753881	1
19	33299	69.09634910987	1
19	33347	69.196346466897	1
19	33395	69.296343824962	1
19	33443	69.396354184065	1
19	33491	69.496351544206	1
19	33539	69.596348905385	1
19	33587	69.696346267601	1
19	33635	69.796343630854	1
19	33683	69.896353995145	1
19	33731	69.996351360474	1
19	33781	70.096348726841	1
19	33829	70.196346094246	1
19	33877	70.296343462689	1
19	33925	70.39635383217	1
19	33973	70.496351202689	1
19	34021	70.596348574245	1
19	34069	70.696345946838	1
19	34117	70.796343320469	1
19	34165	70.896353695138	1
19	34213	70.996351070845	1
19	34263	71.09634844759	1
19	34311	71.196345825373	1
19	34359	71.296356204194	1
19	34407	71.396353584053	1
19	34455	71.496350964949	1
19	34503	71.596348346882	1
19	34551	71.696345729853	1
19	34599	71.796356113862	1
19	34647	71.896353498909	1
19	34695	71.996350884994	1
19	34745	72.096348272117	1
19	34793	72.196345660278	1
19	34841	72.296356049477	1
19	34889	72.396353439714	1
19	34937	72.496350830988	1
19	34985	72.596348223299	1
19	35033	72.696345616648	1
19	35081	72.796356011035	1
19	35129	72.89635340646	1
19	35177	72.996350802923	1
19	35227	73.096348200424	1
19	35275	73.196345598963	1
19	35323	73.29635599854	1
19	35371	73.396353399154	1
19	35419	73.496350800805	1
19	35467	73.596348203494	1
19	35515	73.696345607221	1
19	35563	73.796356011986	1
19	35611	73.896353417789	1
19	35659	73.99635082463	1
19	35709	74.096348232509	1
19	35757	74.196345641426	1
19	35805	74.29635605138	1
19	35853	74.396353462371	1
19	35901	74.4963508744	1
19	35949	74.596348287467	1
19	35997	74.696345701572	1
19	36045	74.796356116715	1
19	36093	74.896353532896	1
19	36141	74.996350950115	1
19	36191	75.096348368372	1
19	36239	75.196345787667	1
19	36287	75.296356207999	1
19	36335	75.396353629368	1
19	36383	75.496351051775	1
19	36431	75.59634847522	1
19	36479	75.696345899703	1
19	36527	75.796343325224	1
19	36575	75.896353751783	1
19	36623	75.99635117938	1
19	36673	76.096348608015	1
19	36721	76.196346037687	1
19	36769	76.296343468396	1
19	36817	76.396353900143	1
19	36865	76.496351332928	1
19	36913	76.596348766751	1
19	36961	76.696346201612	1
19	37009	76.796343637511	1
19	37057	76.896354074448	1
19	37105	76.996351512423	1
19	37155	77.096348951435	1
19	37203	77.196346391484	1
19	37251	77.296343832571	1
19	37299	77.396354274696	1
19	37347	77.496351717859	1
19	37395	77.59634916206	1
19	37443	77.696346607299	1
19	37491	77.796344053576	1
19	37539	77.896354500891	1
19	37587	77.996351949243	1
19	37637	78.096349398632	1
19	37685	78.196346849059	1
19	37733	78.296344300524	1
19	37781	78.396354753027	1
19	37829	78.496352206568	1
19	37877	78.596349661147	1
19	37925	78.696347116764	1
19	37973	78.796344573419	1
19	38021	78.896355031112	1
19	38069	78.996352489842	1
19	38119	79.096349949609	1
19	38167	79.196347410414	1
19	38215	79.296344872257	1
19	38263	79.396355335138	1
19	38311	79.496352799057	1
19	38359	79.596350264014	1
19	38407	79.696347730009	1
19	38455	79.796345197042	1
19	38503	79.896355665112	1
19	38551	79.996353134219	1
19	38601	80.096350604364	1
19	38649	80.196348075547	1
19	38697	80.296345547768	1
19	38745	80.396356021027	1
19	38793	80.496353495324	1
19	38841	80.596350970659	1
19	38889	80.696348447032	1
19	38937	80.796345924442	1
19	38985	80.896343402889	1
19	39033	80.996353882374	1
19	39083	81.096351362897	1
19	39131	81.196348844458	1
19	39179	81.296346327057	1
19	39227	81.396343810694	1
19	39275	81.496354295369	1
19	39323	81.596351781082	1
19	39371	81.696349267833	1
19	39419	81.796346755621	1
19	39467	81.896344244446	1
19	39515	81.996354734309	1
19	39565	82.09635222521	1
19	39613	82.196349717149	1
19	39661	82.296347210126	1
19	39709	82.396344704141	1
19	39757	82.496355199194	1
19	39805	82.596352695285	1
19	39853	82.696350192413	1
19	39901	82.796347690578	1
19	39949	82.896345189781	1
19	39997	82.996355690022	1
19	40047	83.096353191301	1
19	40095	83.196350693618	1
19	40143	83.296348196973	1
19	40191	83.396345701366	1
19	40239	83.496356206797	1
19	40287	83.596353713265	1
19	40335	83.69635122077	1
19	40383	83.796348729313	1
19	40431	83.896346238894	1
19	40479	83.996343749513	1
19	40529	84.09635426117	1
19	40577	84.196351773865	1
19	40625	84.296349287598	1
19	40673	84.396346802369	1
19	40721	84.496344318177	1
19	40769	84.596354835022	1
19	40817	84.696352352905	1
19	40865	84.796349871826	1
19	40913	84.896347391785	1
19	40961	84.996344912782	1
19	41011	85.096355434817	1
19	41059	85.19635295789	1
19	41107	85.296350482001	1
19	41155	85.39634800715	1
19	41203	85.496345533336	1
19	41251	85.596356060559	1
19	41299	85.69635358882	1
19	41347	85.796351118119	1
19	41395	85.896348648456	1
19	41443	85.996346179831	1
19	41493	86.096343712244	1
19	41541	86.196354245695	1
19	41589	86.296351780184	1
19	41637	86.39634931571	1
19	41685	86.496346852273	1
19	41733	86.596344389874	1
19	41781	86.696354928513	1
19	41829	86.79635246819	1
19	41877	86.896350008905	1
19	41925	86.996347550658	1
19	41975	87.096345093449	1
19	42023	87.196355637278	1
19	42071	87.296353182144	1
19	42119	87.396350728047	1
19	42167	87.496348274988	1
19	42215	87.596345822967	1
19	42263	87.696343371984	1
19	42311	87.796353922039	1
19	42359	87.896351473132	1
19	42407	87.996349025263	1
19	42457	88.096346578432	1
19	42505	88.196344132639	1
19	42553	88.296354687883	1
19	42601	88.396352244164	1
19	42649	88.496349801483	1
19	42697	88.59634735984	1
19	42745	88.696344919235	1
19	42793	88.796355479668	1
19	42841	88.896353041139	1
19	42889	88.996350603648	1
19	42939	89.096348167195	1
19	42987	89.196345731779	1
19	43035	89.2963562974	1
19	43083	89.396353864059	1
19	43131	89.496351431756	1
19	43179	89.596349000491	1
19	43227	89.696346570264	1
19	43275	89.796344141075	1
19	43323	89.896354712924	1
19	43371	89.996352285811	1
19	43421	90.096349859735	1
19	43469	90.196347434696	1
19	43517	90.296345010695	1
19	43565	90.396355587732	1
19	43613	90.496353165807	1
19	43661	90.59635074492	1
19	43709	90.696348325071	1
19	43757	90.79634590626	1
19	43805	90.896343488487	1
19	43853	90.996354071751	1
19	43903	91.096351656052	1
19	43951	91.196349241391	1
19	43999	91.296346827768	1
19	44047	91.396344415183	1
19	44095	91.496355003636	1
19	44143	91.596352593127	1
19	44191	91.696350183656	1
19	44239	91.796347775223	1
19	44287	91.896345367828	1
19	44335	91.99635596147	1
19	44385	92.096353556149	1
19	44433	92.196351151866	1
19	44481	92.296348748621	1
19	44529	92.396346346414	1
19	44577	92.496343945245	1
19	44625	92.596354545114	1
19	44673	92.696352146021	1
19	44721	92.796349747966	1
19	44769	92.896347350948	1
19	44817	92.996344954967	1
19	44867	93.096355560024	1
19	44915	93.196353166119	1
19	44963	93.296350773252	1
19	45011	93.396348381423	1
19	45059	93.496345990632	1
19	45107	93.596343600879	1
19	45155	93.696354212164	1
19	45203	93.796351824486	1
19	45251	93.896349437845	1
19	45299	93.996347052242	1
19	45349	94.096344667677	1
19	45397	94.19635528415	1
19	45445	94.296352901661	1
19	45493	94.39635052021	1
19	45541	94.496348139797	1
19	45589	94.596345760422	1
19	45637	94.696343382085	1
19	45685	94.796354004785	1
19	45733	94.896351628522	1
19	45781	94.996349253297	1
19	45831	95.09634687911	1
19	45879	95.196344505961	1
19	45927	95.29635513385	1
19	45975	95.396352762777	1
19	46023	95.496350392742	1
19	46071	95.596348023745	1
19	46119	95.696345655785	1
19	46167	95.796356288862	1
19	46215	95.896353922977	1
19	46263	95.99635155813	1
19	46313	96.096349194321	1
19	46361	96.19634683155	1
19	46409	96.296344469817	1
19	46457	96.396355109122	1
19	46505	96.496352749465	1
19	46553	96.596350390845	1
19	46601	96.696348033262	1
19	46649	96.796345676717	1
19	46697	96.89635632121	1
19	46745	96.996353966741	1
19	46795	97.09635161331	1
19	46843	97.196349260917	1
19	46891	97.296346909562	1
19	46939	97.396344559245	1
19	46987	97.496355209965	1
19	47035	97.596352861722	1
19	47083	97.696350514517	1
19	47131	97.79634816835	1
19	47179	97.896345823221	1
19	47227	97.99634347913	1
19	47277	98.096354136077	1
19	47325	98.196351794062	1
19	47373	98.296349453085	1
19	47421	98.396347113146	1
19	47469	98.496344774244	1
19	47517	98.596355436379	1
19	47565	98.696353099552	1
19	47613	98.796350763763	1
19	47661	98.896348429012	1
19	47709	98.996346095299	1
19	47759	99.096343762624	1
19	47807	99.196354430987	1
19	47855	99.296352100388	1
19	47903	99.396349770826	1
19	47951	99.496347442301	1
19	47999	99.596345114814	1
19	48047	99.696355788365	1
19	48095	99.796353462954	1
19	48143	99.896351138581	1
19	48191	99.996348815246	1
20	544	2	0
20	1026	3	0
20	1508	4	0
20	1990	5	0
20	2472	6	0
20	2954	7	0
20	3436	8	0
20	3918	9	0
20	4401	10	0
20	4911	11	0
20	5403	12	0
20	5895	13	0
20	6387	14	0
20	6879	15	0
20	7371	16	0
20	7863	17	0
20	8355	18	0
20	8847	19	0
20	9339	20	0
20	9831	21	0
20	10323	22	0
20	10815	23	0
20	11307	24	0
20	11799	25	0
20	12291	26	0
20	12783	27	0
20	13275	28	0
20	13767	29	0
20	14259	30	0
20	14751	31	0
20	15243	32	0
20	15735	33	0
20	16227	34	0
20	16719	35	0
20	17211	36	0
20	17703	37	0
20	18195	38	0
20	18687	39	0
20	19179	40	0
20	19671	41	0
20	20163	42	0
20	20719	43	0
20	21201	44	0
20	21683	45	0
20	22165	46	0
20	22647	47	0
20	23129	48	0
20	23611	49	0
20	24093	50	0
20	24575	51	0
20	25057	52	0
20	25539	53	0
20	26021	54	0
20	26503	55	0
20	26985	56	0
20	27467	57	0
20	27949	58	0
20	28431	59	0
20	28913	60	0
20	29395	61	0
20	29877	62	0
20	30359	63	0
20	30841	64	0
20	31323	65	0
20	31805	66	0
20	32287	67	0
20	32769	68	0
20	33251	69	0
20	33733	70	0
20	34215	71	0
20	34697	72	0
20	35179	73	0
20	35661	74	0
20	36143	75	0
20	36625	76	0
20	37107	77	0
20	37589	78	0
20	38071	79	0
20	38553	80	0
20	39035	81	0
20	39517	82	0
20	39999	83	0
20	40481	84	0
20	40963	85	0
20	41445	86	0
20	41927	87	0
20	42409	88	0
20	42891	89	0
20	43373	90	0
20	43855	91	0
20	44337	92	0
20	44819	93	0
20	45301	94	0
20	45783	95	0
20	46265	96	0
20	46747	97	0
20	47229	98	0
20	47711	99	0
20	48193	100	0
21	544	2	0.005625
21	1026	3	0.00625
21	1508	4	0.00625
21	1990	5	0.00625
21	2472	6	0.00625
21	2954	7	0.00625
21	3436	8	0.00625
21	3918	9	0.00625
21	4401	10	0.00625
21	4911	11	0.006299
21	5403	12	0.00625
21	5895	13	0.00625
21	6387	14	0.00625
21	6879	15	0.00625
21	7371	16	0.00625
21	7863	17	0.00625
21	8355	18	0.00625
21	8847	19	0.00625
21	9339	20	0.00625
21	9831	21	0.00625
21	10323	22	0.00625
21	10815	23	0.00625
21	11307	24	0.00625
21	11799	25	0.00625
21	12291	26	0.00625
21	12783	27	0.00625
21	13275	28	0.00625
21	13767	29	0.00625
21	14259	30	0.00625
21	14751	31	0.00625
21	15243	32	0.00625
21	15735	33	0.00625
21	16227	34	0.00625
21	16719	35	0.00625
21	17211	36	0.00625
21	17703	37	0.00625
21	18195	38	0.00625
21	18687	39	0.00625
21	19179	40	0.00625
21	19671	41	0.00625
21	20163	42	0.00625
21	20719	43	0.006539092734
21	21201	44	0.00625
21	21683	45	0.00625
21	22165	46	0.00625
21	22647	47	0.00625
21	23129	48	0.00625
21	23611	49	0.00625
21	24093	50	0.00625
21	24575	51	0.00625
21	25057	52	0.00625
21	25539	53	0.00625
21	26021	54	0.00625
21	26503	55	0.00625
21	26985	56	0.00625
21	27467	57	0.00625
21	27949	58	0.00625
21	28431	59	0.00625
21	28913	60	0.00625
21	29395	61	0.00625
21	29877	62	0.00625
21	30359	63	0.00625
21	30841	64	0.00625
21	31323	65	0.00625
21	31805	66	0.00625
21	32287	67	0.00625
21	32769	68	0.00625
21	33251	69	0.00625
21	33733	70	0.00625
21	34215	71	0.00625
21	34697	72	0.00625
21	35179	73	0.00625
21	35661	74	0.00625
21	36143	75	0.00625
21	36625	76	0.00625
21	37107	77	0.00625
21	37589	78	0.00625
21	38071	79	0.00625
21	38553	80	0.00625
21	39035	81	0.00625
21	39517	82	0.00625
21	39999	83	0.00625
21	40481	84	0.00625
21	40963	85	0.00625
21	41445	86	0.00625
21	41927	87	0.00625
21	42409	88	0.00625
21	42891	89	0.00625
21	43373	90	0.00625
21	43855	91	0.00625
21	44337	92	0.00625
21	44819	93	0.00625
21	45301	94	0.00625
21	45783	95	0.00625
21	46265	96	0.00625
21	46747	97	0.00625
21	47229	98	0.00625
21	47711	99	0.00625
21	48193	100	0.00625
22	544	2	0
22	1026	3	0
22	1508	4	0
22	1990	5	0
22	2472	6	0
22	2954	7	0
22	3436	8	0
22	3918	9	0
22	4401	10	0
22	4911	11	0
22	5403	12	0
22	5895	13	0
22	6387	14	0
22	6879	15	0
22	7371	16	0
22	7863	17	0
22	8355	18	0
22	8847	19	0
22	9339	20	0
22	9831	21	0
22	10323	22	0
22	10815	23	0
22	11307	24	0
22	11799	25	0
22	12291	26	0
22	12783	27	0
22	13275	28	0
22	13767	29	0
22	14259	30	0
22	14751	31	0
22	15243	32	0
22	15735	33	0
22	16227	34	0
22	16719	35	0
22	17211	36	0
22	17703	37	0
22	18195	38	0
22	18687	39	0
22	19179	40	0
22	19671	41	0
22	20163	42	0
22	20719	43	0
22	21201	44	0
22	21683	45	0
22	22165	46	0
22	22647	47	0
22	23129	48	0
22	23611	49	0
22	24093	50	0
22	24575	51	0
22	25057	52	0
22	25539	53	0
22	26021	54	0
22	26503	55	0
22	26985	56	0
22	27467	57	0
22	27949	58	0
22	28431	59	0
22	28913	60	0
22	29395	61	0
22	29877	62	0
22	30359	63	0
22	30841	64	0
22	31323	65	0
22	31805	66	0
22	32287	67	0
22	32769	68	0
22	33251	69	0
22	33733	70	0
22	34215	71	0
22	34697	72	0
22	35179	73	0
22	35661	74	0
22	36143	75	0
22	36625	76	0
22	37107	77	0
22	37589	78	0
22	38071	79	0
22	38553	80	0
22	39035	81	0
22	39517	82	0
22	39999	83	0
22	40481	84	0
22	40963	85	0
22	41445	86	0
22	41927	87	0
22	42409	88	0
22	42891	89	0
22	43373	90	0
22	43855	91	0
22	44337	92	0
22	44819	93	0
22	45301	94	0
22	45783	95	0
22	46265	96	0
22	46747	97	0
22	47229	98	0
22	47711	99	0
22	48193	100	0
23	545	2	1
23	1027	3	1
23	1509	4	1
23	1991	5	1
23	2473	6	1
23	2955	7	1
23	3437	8	1
23	3919	9	1
23	4402	10	1
23	4912	11	1
23	5404	12	1
23	5896	13	1
23	6388	14	1
23	6880	15	1
23	7372	16	1
23	7864	17	1
23	8356	18	1
23	8848	19	1
23	9340	20	1
23	9832	21	1
23	10324	22	1
23	10816	23	1
23	11308	24	1
23	11800	25	1
23	12292	26	1
23	12784	27	1
23	13276	28	1
23	13768	29	1
23	14260	30	1
23	14752	31	1
23	15244	32	1
23	15736	33	1
23	16228	34	1
23	16720	35	1
23	17212	36	1
23	17704	37	1
23	18196	38	1
23	18688	39	1
23	19180	40	1
23	19672	41	1
23	20164	42	1
23	20720	43	1
23	21202	44	1
23	21684	45	1
23	22166	46	1
23	22648	47	1
23	23130	48	1
23	23612	49	1
23	24094	50	1
23	24576	51	1
23	25058	52	1
23	25540	53	1
23	26022	54	1
23	26504	55	1
23	26986	56	1
23	27468	57	1
23	27950	58	1
23	28432	59	1
23	28914	60	1
23	29396	61	1
23	29878	62	1
23	30360	63	1
23	30842	64	1
23	31324	65	1
23	31806	66	1
23	32288	67	1
23	32770	68	1
23	33252	69	1
23	33734	70	1
23	34216	71	1
23	34698	72	1
23	35180	73	1
23	35662	74	1
23	36144	75	1
23	36626	76	1
23	37108	77	1
23	37590	78	1
23	38072	79	1
23	38554	80	1
23	39036	81	1
23	39518	82	1
23	40000	83	1
23	40482	84	1
23	40964	85	1
23	41446	86	1
23	41928	87	1
23	42410	88	1
23	42892	89	1
23	43374	90	1
23	43856	91	1
23	44338	92	1
23	44820	93	1
23	45302	94	1
23	45784	95	1
23	46266	96	1
23	46748	97	1
23	47230	98	1
23	47712	99	1
23	48194	100	1
24	545	2	0.005625
24	1027	3	0.00625
24	1509	4	0.00625
24	1991	5	0.00625
24	2473	6	0.00625
24	2955	7	0.00625
24	3437	8	0.00625
24	3919	9	0.00625
24	4402	10	0.00625
24	4912	11	0.006298
24	5404	12	0.00625
24	5896	13	0.00625
24	6388	14	0.00625
24	6880	15	0.00625
24	7372	16	0.00625
24	7864	17	0.00625
24	8356	18	0.00625
24	8848	19	0.00625
24	9340	20	0.00625
24	9832	21	0.00625
24	10324	22	0.00625
24	10816	23	0.00625
24	11308	24	0.00625
24	11800	25	0.00625
24	12292	26	0.00625
24	12784	27	0.00625
24	13276	28	0.00625
24	13768	29	0.00625
24	14260	30	0.00625
24	14752	31	0.00625
24	15244	32	0.00625
24	15736	33	0.00625
24	16228	34	0.00625
24	16720	35	0.00625
24	17212	36	0.00625
24	17704	37	0.00625
24	18196	38	0.00625
24	18688	39	0.00625
24	19180	40	0.00625
24	19672	41	0.00625
24	20164	42	0.00625
24	20720	43	0.006539092734
24	21202	44	0.00625
24	21684	45	0.00625
24	22166	46	0.00625
24	22648	47	0.00625
24	23130	48	0.00625
24	23612	49	0.00625
24	24094	50	0.00625
24	24576	51	0.00625
24	25058	52	0.00625
24	25540	53	0.00625
24	26022	54	0.00625
24	26504	55	0.00625
24	26986	56	0.00625
24	27468	57	0.00625
24	27950	58	0.00625
24	28432	59	0.00625
24	28914	60	0.00625
24	29396	61	0.00625
24	29878	62	0.00625
24	30360	63	0.00625
24	30842	64	0.00625
24	31324	65	0.00625
24	31806	66	0.00625
24	32288	67	0.00625
24	32770	68	0.00625
24	33252	69	0.00625
24	33734	70	0.00625
24	34216	71	0.00625
24	34698	72	0.00625
24	35180	73	0.00625
24	35662	74	0.00625
24	36144	75	0.00625
24	36626	76	0.00625
24	37108	77	0.00625
24	37590	78	0.00625
24	38072	79	0.00625
24	38554	80	0.00625
24	39036	81	0.00625
24	39518	82	0.00625
24	40000	83	0.00625
24	40482	84	0.00625
24	40964	85	0.00625
24	41446	86	0.00625
24	41928	87	0.00625
24	42410	88	0.00625
24	42892	89	0.00625
24	43374	90	0.00625
24	43856	91	0.00625
24	44338	92	0.00625
24	44820	93	0.00625
24	45302	94	0.00625
24	45784	95	0.00625
24	46266	96	0.00625
24	46748	97	0.00625
24	47230	98	0.00625
24	47712	99	0.00625
24	48194	100	0.00625
25	545	2	0
25	1027	3	0
25	1509	4	0
25	1991	5	0
25	2473	6	0
25	2955	7	0
25	3437	8	0
25	3919	9	0
25	4402	10	0
25	4912	11	0
25	5404	12	0
25	5896	13	0
25	6388	14	0
25	6880	15	0
25	7372	16	0
25	7864	17	0
25	8356	18	0
25	8848	19	0
25	9340	20	0
25	9832	21	0
25	10324	22	0
25	10816	23	0
25	11308	24	0
25	11800	25	0
25	12292	26	0
25	12784	27	0
25	13276	28	0
25	13768	29	0
25	14260	30	0
25	14752	31	0
25	15244	32	0
25	15736	33	0
25	16228	34	0
25	16720	35	0
25	17212	36	0
25	17704	37	0
25	18196	38	0
25	18688	39	0
25	19180	40	0
25	19672	41	0
25	20164	42	0
25	20720	43	0
25	21202	44	0
25	21684	45	0
25	22166	46	0
25	22648	47	0
25	23130	48	0
25	23612	49	0
25	24094	50	0
25	24576	51	0
25	25058	52	0
25	25540	53	0
25	26022	54	0
25	26504	55	0
25	26986	56	0
25	27468	57	0
25	27950	58	0
25	28432	59	0
25	28914	60	0
25	29396	61	0
25	29878	62	0
25	30360	63	0
25	30842	64	0
25	31324	65	0
25	31806	66	0
25	32288	67	0
25	32770	68	0
25	33252	69	0
25	33734	70	0
25	34216	71	0
25	34698	72	0
25	35180	73	0
25	35662	74	0
25	36144	75	0
25	36626	76	0
25	37108	77	0
25	37590	78	0
25	38072	79	0
25	38554	80	0
25	39036	81	0
25	39518	82	0
25	40000	83	0
25	40482	84	0
25	40964	85	0
25	41446	86	0
25	41928	87	0
25	42410	88	0
25	42892	89	0
25	43374	90	0
25	43856	91	0
25	44338	92	0
25	44820	93	0
25	45302	94	0
25	45784	95	0
25	46266	96	0
25	46748	97	0
25	47230	98	0
25	47712	99	0
25	48194	100	0

