version 3
run BreakRanksNoGui-2013-20240710-16:46:12-266590
attr configname BreakRanksNoGui
attr datetime 20240710-16:46:12
attr datetimef 20240710-164612
attr experiment BreakRanksNoGui
attr inifile omnetpp.ini
attr iterationvars "$nCars=12, $platoonSize=12, $nLanes=1, $ploegH=0.5, $controller=1, $headway=0.1, $leaderHeadway=1.2, $leaderSpeed=110, $breakRanksSafetyDistance=3, $minSpeed=100, $maxSpeed=120, $beaconInterval=0.1, $priority=4, $packetSize=200, $sController=\"CACC\", $0=2, $1=0"
attr iterationvarsd nCars=12/platoonSize=12/nLanes=1/ploegH=0.5/controller=1/headway=0.1/leaderHeadway=1.2/leaderSpeed=110/breakRanksSafetyDistance=3/minSpeed=100/maxSpeed=120/beaconInterval=0.1/priority=4/packetSize=200/sController=CACC/2/0
attr iterationvarsf nCars=12,platoonSize=12,nLanes=1,ploegH=0.5,controller=1,headway=0.1,leaderHeadway=1.2,leaderSpeed=110,breakRanksSafetyDistance=3,minSpeed=100,maxSpeed=120,beaconInterval=0.1,priority=4,packetSize=200,sController=CACC,2,0-
attr measurement "$nCars=12, $platoonSize=12, $nLanes=1, $ploegH=0.5, $controller=1, $headway=0.1, $leaderHeadway=1.2, $leaderSpeed=110, $breakRanksSafetyDistance=3, $minSpeed=100, $maxSpeed=120, $beaconInterval=0.1, $priority=4, $packetSize=200, $sController=\"CACC\", $0=2, $1=0"
attr network Highway
attr processid 266590
attr repetition 3
attr replication #3
attr resultdir results
attr runnumber 2013
attr seedset 3
itervar beaconInterval 0.1
itervar breakRanksSafetyDistance 3
itervar controller 1
itervar headway 0.1
itervar leaderHeadway 1.2
itervar leaderSpeed 110
itervar maxSpeed 120
itervar minSpeed 100
itervar nCars 12
itervar nLanes 1
itervar packetSize 200
itervar platoonSize 12
itervar ploegH 0.5
itervar priority 4
itervar sController "\"CACC\""
config image-path ../../../veins/images
config repeat 10
config extends BreakRanks
config *.manager.command "\"sumo\""
config *.manager.ignoreGuiCommands true
config output-vector-file "results/BreakRanks_1_0.1_110_3_12 /result_3.vec"
config output-scalar-file "results/BreakRanks_1_0.1_110_3_12 /result_3.sca"
config extends Platooning
config *.node[*].scenario_type "\"BreakRanksScenario\""
config *.manager.command "\"sumo-gui\""
config *.node[*].scenario_type "\"SimpleScenario\""
config cmdenv-express-mode true
config cmdenv-autoflush true
config cmdenv-status-frequency 15s
config num-rngs 6
config network Highway
config debug-on-errors true
config print-undisposed true
config *.playgroundSizeX 65000m
config *.playgroundSizeY 25000m
config *.playgroundSizeZ 50m
config sim-time-limit "100 s"
config *.annotations.draw false
config *.obstacles.debug false
config *.world.useTorus false
config *.world.use2D false
config *.manager.updateInterval 0.01s
config *.manager.host "\"localhost\""
config *.manager.moduleType "\"org.car2x.plexe.PlatoonCar\""
config *.manager.moduleName "\"node\""
config *.manager.moduleDisplayString "\"\""
config *.manager.autoShutdown true
config *.manager.margin 25
config *.connectionManager.sendDirect true
config *.connectionManager.maxInterfDist 2600m
config *.connectionManager.drawMaxIntfDist false
config *.**.nic.mac1609_4.useServiceChannel false
config *.**.nic.mac1609_4.txPower 100mW
config *.**.nic.mac1609_4.bitrate 6Mbps
config *.**.nic.mac1609_4.useAcks true
config *.**.nic.mac1609_4.ackErrorRate 0.0
config *.**.nic.mac1609_4.frameErrorRate 0.0
config *.**.nic.phy80211p.minPowerLevel -94dBm
config *.**.nic.phy80211p.maxTXPower 100mW
config *.**.nic.phy80211p.useNoiseFloor true
config *.**.nic.phy80211p.noiseFloor -95dBm
config *.**.nic.phy80211p.decider "xmldoc(\"config.xml\")"
config *.**.nic.phy80211p.analogueModels "xmldoc(\"config.xml\")"
config *.**.nic.phy80211p.usePropagationDelay true
config *.node[*].mobility.x 0
config *.node[*].mobility.y 0
config *.node[*].mobility.z 1.895
config seed-set 3
config **.seed 3
config *.node[*].prot.rng-0 2
config *.node[*].appl.rng-0 3
config *.node[*].scenario.rng-0 4
config **.traffic.rng-0 5
config *.manager.configFile "\"./sumocfg/freeway.sumo.cfg\""
config *.manager.launchConfig "xmldoc(\"./sumocfg/freeway.launchd.xml\")"
config **.numberOfCars 12
config **.numberOfCarsPerPlatoon 12
config **.numberOfLanes 1
config *.node[*].helper_type "\"PositionHelper\""
config *.node[*].scenario.caccC1 0.5
config *.node[*].scenario.caccXi 1
config *.node[*].scenario.caccOmegaN "0.2 Hz"
config *.node[*].scenario.caccSpacing "2 m"
config *.node[*].scenario.engineTau "0.5 s"
config *.node[*].scenario.ploegH 0.5s
config *.node[*].scenario.ploegKp 0.2
config *.node[*].scenario.ploegKd 0.7
config *.node[*].scenario.useRealisticEngine false
config *.node[*].scenario.useControllerAcceleration true
config *.node[*].scenario.nLanes 1
config **.numericController 1
config **.headway 0.1s
config *.node[*].scenario.accHeadway 0.1s
config *.node[*].scenario.leaderHeadway 1.2s
config *.node[*].scenario.leaderSpeed 110kmph
config *.node[*].appl_type "\"SimplePlatooningApp\""
config *.node[*].appl.*.scalar-recording true
config *.node[*].appl.*.vector-recording true
config *.node[0].appl.breakRanksSafetyDistance 3m
config *.node[*].appl.minSpeed 100kmph
config *.node[*].appl.maxSpeed 120kmph
config *.node[*].protocol_type "\"SimplePlatooningBeaconing\""
config *.node[*].prot.*.scalar-recording true
config *.node[*].prot.*.vector-recording true
config *.node[*].prot.beaconingInterval 0.1s
config *.node[*].prot.priority 4
config *.node[*].prot.packetSize 200
config **.traffic_type "\"PlatoonsTrafficManager\""
config **.traffic.platoonInsertTime "1 s"
config **.traffic.platoonInsertSpeed 110kmph
config **.traffic.nCars 12
config **.traffic.platoonSize 12
config **.traffic.nLanes 1
config **.traffic.platooningVType "\"vtypeauto\""
config **.traffic.controller "\"CACC\""
config **.traffic.platoonInsertDistance 2m
config **.traffic.platoonInsertHeadway 0s
config **.traffic.platoonLeaderHeadway 1.2s
config **.scalar-recording false
config **.vector-recording false

vector 0 Highway.node[0].appl distance ETV
vector 1 Highway.node[0].appl relativeSpeed ETV
vector 2 Highway.node[0].appl nodeId ETV
vector 3 Highway.node[0].appl acceleration ETV
vector 4 Highway.node[0].appl controllerAcceleration ETV
vector 5 Highway.node[0].appl speed ETV
vector 6 Highway.node[0].appl posx ETV
vector 7 Highway.node[0].appl posy ETV
vector 8 Highway.node[1].appl distance ETV
vector 9 Highway.node[1].appl relativeSpeed ETV
vector 10 Highway.node[1].appl nodeId ETV
vector 11 Highway.node[1].appl acceleration ETV
vector 12 Highway.node[1].appl controllerAcceleration ETV
vector 13 Highway.node[1].appl speed ETV
vector 14 Highway.node[1].appl posx ETV
vector 15 Highway.node[1].appl posy ETV
vector 16 Highway.node[2].appl distance ETV
vector 17 Highway.node[2].appl relativeSpeed ETV
vector 18 Highway.node[2].appl nodeId ETV
vector 19 Highway.node[2].appl acceleration ETV
vector 20 Highway.node[2].appl controllerAcceleration ETV
vector 21 Highway.node[2].appl speed ETV
vector 22 Highway.node[2].appl posx ETV
vector 23 Highway.node[2].appl posy ETV
vector 24 Highway.node[3].appl distance ETV
vector 25 Highway.node[3].appl relativeSpeed ETV
vector 26 Highway.node[3].appl nodeId ETV
vector 27 Highway.node[3].appl acceleration ETV
vector 28 Highway.node[3].appl controllerAcceleration ETV
vector 29 Highway.node[3].appl speed ETV
vector 30 Highway.node[3].appl posx ETV
vector 31 Highway.node[3].appl posy ETV
vector 32 Highway.node[4].appl distance ETV
vector 33 Highway.node[4].appl relativeSpeed ETV
vector 34 Highway.node[4].appl nodeId ETV
vector 35 Highway.node[4].appl acceleration ETV
vector 36 Highway.node[4].appl controllerAcceleration ETV
vector 37 Highway.node[4].appl speed ETV
vector 38 Highway.node[4].appl posx ETV
vector 39 Highway.node[4].appl posy ETV
vector 40 Highway.node[5].appl distance ETV
vector 41 Highway.node[5].appl relativeSpeed ETV
vector 42 Highway.node[5].appl nodeId ETV
vector 43 Highway.node[5].appl acceleration ETV
vector 44 Highway.node[5].appl controllerAcceleration ETV
vector 45 Highway.node[5].appl speed ETV
vector 46 Highway.node[5].appl posx ETV
vector 47 Highway.node[5].appl posy ETV
vector 48 Highway.node[6].appl distance ETV
vector 49 Highway.node[6].appl relativeSpeed ETV
vector 50 Highway.node[6].appl nodeId ETV
vector 51 Highway.node[6].appl acceleration ETV
vector 52 Highway.node[6].appl controllerAcceleration ETV
vector 53 Highway.node[6].appl speed ETV
vector 54 Highway.node[6].appl posx ETV
vector 55 Highway.node[6].appl posy ETV
vector 56 Highway.node[7].appl distance ETV
vector 57 Highway.node[7].appl relativeSpeed ETV
vector 58 Highway.node[7].appl nodeId ETV
vector 59 Highway.node[7].appl acceleration ETV
vector 60 Highway.node[7].appl controllerAcceleration ETV
vector 61 Highway.node[7].appl speed ETV
vector 62 Highway.node[7].appl posx ETV
vector 63 Highway.node[7].appl posy ETV
vector 64 Highway.node[8].appl distance ETV
vector 65 Highway.node[8].appl relativeSpeed ETV
vector 66 Highway.node[8].appl nodeId ETV
vector 67 Highway.node[8].appl acceleration ETV
vector 68 Highway.node[8].appl controllerAcceleration ETV
vector 69 Highway.node[8].appl speed ETV
vector 70 Highway.node[8].appl posx ETV
vector 71 Highway.node[8].appl posy ETV
vector 72 Highway.node[9].appl distance ETV
vector 73 Highway.node[9].appl relativeSpeed ETV
vector 74 Highway.node[9].appl nodeId ETV
vector 75 Highway.node[9].appl acceleration ETV
vector 76 Highway.node[9].appl controllerAcceleration ETV
vector 77 Highway.node[9].appl speed ETV
vector 78 Highway.node[9].appl posx ETV
vector 79 Highway.node[9].appl posy ETV
vector 80 Highway.node[10].appl distance ETV
vector 81 Highway.node[10].appl relativeSpeed ETV
vector 82 Highway.node[10].appl nodeId ETV
vector 83 Highway.node[10].appl acceleration ETV
vector 84 Highway.node[10].appl controllerAcceleration ETV
vector 85 Highway.node[10].appl speed ETV
vector 86 Highway.node[10].appl posx ETV
vector 87 Highway.node[10].appl posy ETV
vector 88 Highway.node[11].appl distance ETV
vector 89 Highway.node[11].appl relativeSpeed ETV
vector 90 Highway.node[11].appl nodeId ETV
vector 91 Highway.node[11].appl acceleration ETV
vector 92 Highway.node[11].appl controllerAcceleration ETV
vector 93 Highway.node[11].appl speed ETV
vector 94 Highway.node[11].appl posx ETV
vector 95 Highway.node[11].appl posy ETV
vector 96 Highway.node[9].prot frontDelay ETV
vector 97 Highway.node[9].prot frontDelayId ETV
vector 98 Highway.node[1].prot leaderDelay ETV
vector 99 Highway.node[1].prot leaderDelayId ETV
vector 100 Highway.node[1].prot frontDelay ETV
vector 101 Highway.node[1].prot frontDelayId ETV
vector 102 Highway.node[4].prot leaderDelay ETV
vector 103 Highway.node[4].prot leaderDelayId ETV
vector 104 Highway.node[5].prot leaderDelay ETV
vector 105 Highway.node[5].prot leaderDelayId ETV
vector 106 Highway.node[6].prot leaderDelay ETV
vector 107 Highway.node[6].prot leaderDelayId ETV
vector 108 Highway.node[7].prot leaderDelay ETV
vector 109 Highway.node[7].prot leaderDelayId ETV
vector 110 Highway.node[8].prot leaderDelay ETV
vector 111 Highway.node[8].prot leaderDelayId ETV
vector 112 Highway.node[9].prot leaderDelay ETV
vector 113 Highway.node[9].prot leaderDelayId ETV
vector 114 Highway.node[10].prot leaderDelay ETV
vector 115 Highway.node[10].prot leaderDelayId ETV
vector 116 Highway.node[11].prot leaderDelay ETV
vector 117 Highway.node[11].prot leaderDelayId ETV
vector 118 Highway.node[2].prot leaderDelay ETV
vector 119 Highway.node[2].prot leaderDelayId ETV
vector 120 Highway.node[3].prot leaderDelay ETV
vector 121 Highway.node[3].prot leaderDelayId ETV
vector 122 Highway.node[8].prot frontDelay ETV
vector 123 Highway.node[8].prot frontDelayId ETV
vector 124 Highway.node[10].prot frontDelay ETV
vector 125 Highway.node[10].prot frontDelayId ETV
vector 126 Highway.node[11].prot frontDelay ETV
vector 127 Highway.node[11].prot frontDelayId ETV
vector 128 Highway.node[7].prot frontDelay ETV
vector 129 Highway.node[7].prot frontDelayId ETV
vector 130 Highway.node[4].prot frontDelay ETV
vector 131 Highway.node[4].prot frontDelayId ETV
vector 132 Highway.node[5].prot frontDelay ETV
vector 133 Highway.node[5].prot frontDelayId ETV
vector 134 Highway.node[3].prot frontDelay ETV
vector 135 Highway.node[3].prot frontDelayId ETV
vector 136 Highway.node[2].prot frontDelay ETV
vector 137 Highway.node[2].prot frontDelayId ETV
vector 138 Highway.node[6].prot frontDelay ETV
vector 139 Highway.node[6].prot frontDelayId ETV
vector 140 Highway.node[0].prot nodeId ETV
vector 141 Highway.node[0].prot busyTime ETV
vector 142 Highway.node[0].prot collisions ETV
vector 143 Highway.node[1].prot nodeId ETV
vector 144 Highway.node[1].prot busyTime ETV
vector 145 Highway.node[1].prot collisions ETV
vector 146 Highway.node[2].prot nodeId ETV
vector 147 Highway.node[2].prot busyTime ETV
vector 148 Highway.node[2].prot collisions ETV
vector 149 Highway.node[3].prot nodeId ETV
vector 150 Highway.node[3].prot busyTime ETV
vector 151 Highway.node[3].prot collisions ETV
vector 152 Highway.node[4].prot nodeId ETV
vector 153 Highway.node[4].prot busyTime ETV
vector 154 Highway.node[4].prot collisions ETV
vector 155 Highway.node[5].prot nodeId ETV
vector 156 Highway.node[5].prot busyTime ETV
vector 157 Highway.node[5].prot collisions ETV
vector 158 Highway.node[6].prot nodeId ETV
vector 159 Highway.node[6].prot busyTime ETV
vector 160 Highway.node[6].prot collisions ETV
vector 161 Highway.node[7].prot nodeId ETV
vector 162 Highway.node[7].prot busyTime ETV
vector 163 Highway.node[7].prot collisions ETV
vector 164 Highway.node[8].prot nodeId ETV
vector 165 Highway.node[8].prot busyTime ETV
vector 166 Highway.node[8].prot collisions ETV
vector 167 Highway.node[9].prot nodeId ETV
vector 168 Highway.node[9].prot busyTime ETV
vector 169 Highway.node[9].prot collisions ETV
vector 170 Highway.node[10].prot nodeId ETV
vector 171 Highway.node[10].prot busyTime ETV
vector 172 Highway.node[10].prot collisions ETV
vector 173 Highway.node[11].prot nodeId ETV
vector 174 Highway.node[11].prot busyTime ETV
vector 175 Highway.node[11].prot collisions ETV
0	113	1.11	-1
0	1311	1.21	-1
0	2509	1.31	-1
0	3707	1.41	-1
0	4905	1.51	-1
0	6103	1.61	-1
0	7301	1.71	-1
0	8499	1.81	-1
0	9697	1.91	-1
0	10907	2.01	-1
0	12045	2.11	-1
0	13243	2.21	-1
0	14441	2.31	-1
0	15579	2.41	-1
0	16777	2.51	-1
0	17975	2.61	-1
0	19173	2.71	-1
0	20371	2.81	-1
0	21569	2.91	-1
0	22779	3.01	-1
0	23917	3.11	-1
0	25115	3.21	-1
0	26313	3.31	-1
0	27511	3.41	-1
0	28709	3.51	-1
0	29907	3.61	-1
0	31045	3.71	-1
0	32243	3.81	-1
0	33441	3.91	-1
0	34651	4.01	-1
0	35789	4.11	-1
0	36927	4.21	-1
0	38125	4.31	-1
0	39263	4.41	-1
0	40461	4.51	-1
0	41659	4.61	-1
0	42857	4.71	-1
0	44055	4.81	-1
0	45253	4.91	-1
0	46463	5.01	-1
0	47604	5.11	-1
0	48802	5.21	-1
0	50000	5.31	-1
0	51198	5.41	-1
0	52396	5.51	-1
0	53594	5.61	-1
0	54735	5.71	-1
0	55933	5.81	-1
0	57131	5.91	-1
0	58281	6.01	-1
0	59479	6.11	-1
0	60677	6.21	-1
0	61875	6.31	-1
0	63073	6.41	-1
0	64271	6.51	-1
0	65469	6.61	-1
0	66667	6.71	-1
0	67865	6.81	-1
0	69063	6.91	-1
0	70216	7.01	-1
0	71414	7.11	-1
0	72612	7.21	-1
0	73753	7.31	-1
0	74894	7.41	-1
0	76092	7.51	-1
0	77290	7.61	-1
0	78488	7.71	-1
0	79686	7.81	-1
0	80827	7.91	-1
0	82037	8.01	-1
0	83235	8.11	-1
0	84433	8.21	-1
0	85631	8.31	-1
0	86829	8.41	-1
0	88027	8.51	-1
0	89225	8.61	-1
0	90423	8.71	-1
0	91621	8.81	-1
0	92762	8.91	-1
0	93972	9.01	-1
0	95170	9.11	-1
0	96368	9.21	-1
0	97509	9.31	-1
0	98707	9.41	-1
0	99905	9.51	-1
0	101103	9.61	-1
0	102301	9.71	-1
0	103499	9.81	-1
0	104697	9.91	-1
0	106017	10.01	-1
0	107226	10.11	-1
0	108435	10.21	-1
0	109644	10.31	-1
0	110796	10.41	-1
0	112005	10.51	-1
0	113214	10.61	-1
0	114423	10.71	-1
0	115632	10.81	-1
0	116841	10.91	-1
0	118062	11.01	-1
0	119271	11.11	-1
0	120480	11.21	-1
0	121689	11.31	-1
0	122898	11.41	-1
0	124107	11.51	-1
0	125256	11.61	-1
0	126465	11.71	-1
0	127614	11.81	-1
0	128823	11.91	-1
0	130044	12.01	-1
0	131253	12.11	-1
0	132462	12.21	-1
0	133671	12.31	-1
0	134880	12.41	-1
0	136089	12.51	-1
0	137238	12.61	-1
0	138387	12.71	-1
0	139596	12.81	-1
0	140805	12.91	-1
0	142026	13.01	-1
0	143235	13.11	-1
0	144444	13.21	-1
0	145593	13.31	-1
0	146802	13.41	-1
0	147951	13.51	-1
0	149160	13.61	-1
0	150369	13.71	-1
0	151578	13.81	-1
0	152787	13.91	-1
0	154008	14.01	-1
0	155217	14.11	-1
0	156426	14.21	-1
0	157635	14.31	-1
0	158784	14.41	-1
0	159993	14.51	-1
0	161202	14.61	-1
0	162411	14.71	-1
0	163620	14.81	-1
0	164829	14.91	-1
0	165990	15.01	-1
0	167139	15.11	-1
0	168348	15.21	-1
0	169557	15.31	-1
0	170766	15.41	-1
0	171975	15.51	-1
0	173184	15.61	-1
0	174393	15.71	-1
0	175602	15.81	-1
0	176751	15.91	-1
0	177972	16.01	-1
0	179181	16.11	-1
0	180390	16.21	-1
0	181599	16.31	-1
0	182808	16.41	-1
0	184017	16.51	-1
0	185226	16.61	-1
0	186435	16.71	-1
0	187584	16.81	-1
0	188793	16.91	-1
0	189954	17.01	-1
0	191163	17.11	-1
0	192372	17.21	-1
0	193581	17.31	-1
0	194790	17.41	-1
0	195999	17.51	-1
0	197208	17.61	-1
0	198417	17.71	-1
0	199626	17.81	-1
0	200835	17.91	-1
0	202056	18.01	-1
0	203265	18.11	-1
0	204474	18.21	-1
0	205683	18.31	-1
0	206892	18.41	-1
0	208101	18.51	-1
0	209310	18.61	-1
0	210519	18.71	-1
0	211728	18.81	-1
0	212937	18.91	-1
0	214158	19.01	-1
0	215367	19.11	-1
0	216576	19.21	-1
0	217785	19.31	-1
0	218934	19.41	-1
0	220143	19.51	-1
0	221352	19.61	-1
0	222561	19.71	-1
0	223770	19.81	-1
0	224979	19.91	-1
0	226200	20.01	-1
0	227409	20.11	-1
0	228618	20.21	-1
0	229827	20.31	-1
0	231036	20.41	-1
0	232245	20.51	-1
0	233454	20.61	-1
0	234663	20.71	-1
0	235872	20.81	-1
0	237081	20.91	-1
0	238302	21.01	-1
0	239511	21.11	-1
0	240720	21.21	-1
0	241929	21.31	-1
0	243138	21.41	-1
0	244347	21.51	-1
0	245556	21.61	-1
0	246765	21.71	-1
0	247974	21.81	-1
0	249183	21.91	-1
0	250404	22.01	-1
0	251613	22.11	-1
0	252822	22.21	-1
0	254031	22.31	-1
0	255240	22.41	-1
0	256449	22.51	-1
0	257658	22.61	-1
0	258867	22.71	-1
0	260076	22.81	-1
0	261285	22.91	-1
0	262506	23.01	-1
0	263715	23.11	-1
0	264924	23.21	-1
0	266133	23.31	-1
0	267342	23.41	-1
0	268551	23.51	-1
0	269760	23.61	-1
0	270969	23.71	-1
0	272178	23.81	-1
0	273387	23.91	-1
0	274608	24.01	-1
0	275817	24.11	-1
0	277026	24.21	-1
0	278235	24.31	-1
0	279384	24.41	-1
0	280593	24.51	-1
0	281802	24.61	-1
0	283011	24.71	-1
0	284220	24.81	-1
0	285429	24.91	-1
0	286650	25.01	-1
0	287859	25.11	-1
0	289068	25.21	-1
0	290277	25.31	-1
0	291486	25.41	-1
0	292695	25.51	-1
0	293904	25.61	-1
0	295113	25.71	-1
0	296322	25.81	-1
0	297531	25.91	-1
0	298752	26.01	-1
0	299961	26.11	-1
0	301170	26.21	-1
0	302379	26.31	-1
0	303588	26.41	-1
0	304797	26.51	-1
0	306006	26.61	-1
0	307155	26.71	-1
0	308364	26.81	-1
0	309573	26.91	-1
0	310794	27.01	-1
0	312003	27.11	-1
0	313212	27.21	-1
0	314421	27.31	-1
0	315630	27.41	-1
0	316839	27.51	-1
0	318048	27.61	-1
0	319257	27.71	-1
0	320466	27.81	-1
0	321675	27.91	-1
0	322896	28.01	-1
0	324105	28.11	-1
0	325314	28.21	-1
0	326523	28.31	-1
0	327732	28.41	-1
0	328941	28.51	-1
0	330150	28.61	-1
0	331359	28.71	-1
0	332568	28.81	-1
0	333777	28.91	-1
0	334938	29.01	-1
0	336087	29.11	-1
0	337296	29.21	-1
0	338638	29.31	-1
0	339846	29.41	-1
0	341054	29.51	-1
0	342262	29.61	-1
0	343470	29.71	-1
0	344618	29.81	-1
0	345826	29.91	-1
0	347046	30.01	-1
0	348254	30.11	-1
0	349402	30.21	-1
0	350610	30.31	-1
0	351818	30.41	-1
0	353026	30.51	-1
0	354234	30.61	-1
0	355442	30.71	-1
0	356650	30.81	-1
0	357858	30.91	-1
0	359078	31.01	-1
0	360226	31.11	-1
0	361434	31.21	-1
0	362582	31.31	-1
0	363790	31.41	-1
0	364998	31.51	-1
0	366206	31.61	-1
0	367414	31.71	-1
0	368622	31.81	-1
0	369830	31.91	-1
0	371050	32.01	-1
0	372258	32.11	-1
0	373466	32.21	-1
0	374614	32.31	-1
0	375822	32.41	-1
0	377030	32.51	-1
0	378238	32.61	-1
0	379446	32.71	-1
0	380654	32.81	-1
0	381862	32.91	-1
0	383082	33.01	-1
0	384290	33.11	-1
0	385498	33.21	-1
0	386646	33.31	-1
0	387854	33.41	-1
0	389195	33.51	-1
0	390402	33.61	-1
0	391609	33.71	-1
0	392816	33.81	-1
0	394023	33.91	-1
0	395242	34.01	-1
0	396449	34.11	-1
0	397656	34.21	-1
0	398863	34.31	-1
0	400070	34.41	-1
0	401277	34.51	-1
0	402484	34.61	-1
0	403631	34.71	-1
0	404838	34.81	-1
0	406045	34.91	-1
0	407264	35.01	-1
0	408471	35.11	-1
0	409618	35.21	-1
0	410765	35.31	-1
0	411912	35.41	-1
0	413119	35.51	-1
0	414326	35.61	-1
0	415533	35.71	-1
0	416740	35.81	-1
0	417947	35.91	-1
0	419166	36.01	-1
0	420373	36.11	-1
0	421580	36.21	-1
0	422787	36.31	-1
0	423994	36.41	-1
0	425141	36.51	-1
0	426288	36.61	-1
0	427495	36.71	-1
0	428702	36.81	-1
0	429909	36.91	-1
0	431128	37.01	-1
0	432335	37.11	-1
0	433542	37.21	-1
0	434749	37.31	-1
0	435956	37.41	-1
0	437236	37.51	-1
0	438442	37.61	-1
0	439648	37.71	-1
0	440794	37.81	-1
0	442000	37.91	-1
0	443218	38.01	-1
0	444424	38.11	-1
0	445630	38.21	-1
0	446836	38.31	-1
0	447982	38.41	-1
0	449188	38.51	-1
0	450394	38.61	-1
0	451600	38.71	-1
0	452746	38.81	-1
0	453952	38.91	-1
0	455170	39.01	-1
0	456376	39.11	-1
0	457582	39.21	-1
0	458788	39.31	-1
0	459994	39.41	-1
0	461200	39.51	-1
0	462346	39.61	-1
0	463552	39.71	-1
0	464758	39.81	-1
0	465964	39.91	-1
0	467182	40.01	-1
0	468388	40.11	-1
0	469594	40.21	-1
0	470800	40.31	-1
0	472006	40.41	-1
0	473212	40.51	-1
0	474418	40.61	-1
0	475624	40.71	-1
0	476830	40.81	-1
0	478036	40.91	-1
0	479194	41.01	-1
0	480400	41.11	-1
0	481606	41.21	-1
0	482945	41.31	-1
0	484150	41.41	-1
0	485295	41.51	-1
0	486440	41.61	-1
0	487645	41.71	-1
0	488790	41.81	-1
0	489995	41.91	-1
0	491212	42.01	-1
0	492357	42.11	-1
0	493562	42.21	-1
0	494707	42.31	-1
0	495912	42.41	-1
0	497117	42.51	-1
0	498322	42.61	-1
0	499527	42.71	-1
0	500732	42.81	-1
0	501877	42.91	-1
0	503034	43.01	-1
0	504239	43.11	-1
0	505444	43.21	-1
0	506649	43.31	-1
0	507854	43.41	-1
0	508999	43.51	-1
0	510204	43.61	-1
0	511409	43.71	-1
0	512614	43.81	-1
0	513819	43.91	-1
0	515036	44.01	-1
0	516241	44.11	-1
0	517446	44.21	-1
0	518651	44.31	-1
0	519856	44.41	-1
0	521001	44.51	-1
0	522206	44.61	-1
0	523411	44.71	-1
0	524616	44.81	-1
0	525821	44.91	-1
0	527171	45.01	-1
0	528375	45.11	-1
0	529579	45.21	-1
0	530783	45.31	-1
0	531987	45.41	-1
0	533191	45.51	-1
0	534395	45.61	-1
0	535599	45.71	-1
0	536803	45.81	-1
0	538007	45.91	-1
0	539163	46.01	-1
0	540367	46.11	-1
0	541571	46.21	-1
0	542775	46.31	-1
0	543979	46.41	-1
0	545183	46.51	-1
0	546387	46.61	-1
0	547591	46.71	-1
0	548795	46.81	-1
0	549999	46.91	-1
0	551215	47.01	-1
0	552419	47.11	-1
0	553563	47.21	-1
0	554767	47.31	-1
0	555971	47.41	-1
0	557175	47.51	-1
0	558319	47.61	-1
0	559523	47.71	-1
0	560727	47.81	-1
0	561931	47.91	-1
0	563147	48.01	-1
0	564351	48.11	-1
0	565555	48.21	-1
0	566759	48.31	-1
0	567963	48.41	-1
0	569167	48.51	-1
0	570504	48.61	-1
0	571707	48.71	-1
0	572910	48.81	-1
0	574113	48.91	-1
0	575328	49.01	-1
0	576531	49.11	-1
0	577734	49.21	-1
0	578937	49.31	-1
0	580140	49.41	-1
0	581343	49.51	-1
0	582546	49.61	-1
0	583749	49.71	-1
0	584952	49.81	-1
0	586155	49.91	-1
0	587370	50.01	-1
0	588573	50.11	-1
0	589776	50.21	-1
0	590979	50.31	-1
0	592122	50.41	-1
0	593325	50.51	-1
0	594528	50.61	-1
0	595731	50.71	-1
0	596934	50.81	-1
0	598137	50.91	-1
0	599352	51.01	-1
0	600495	51.11	-1
0	601698	51.21	-1
0	602901	51.31	-1
0	604104	51.41	-1
0	605307	51.51	-1
0	606450	51.61	-1
0	607653	51.71	-1
0	608796	51.81	-1
0	609999	51.91	-1
0	611214	52.01	-1
0	612550	52.11	-1
0	613752	52.21	-1
0	614954	52.31	-1
0	616156	52.41	-1
0	617358	52.51	-1
0	618560	52.61	-1
0	619762	52.71	-1
0	620964	52.81	-1
0	622166	52.91	-1
0	623380	53.01	-1
0	624582	53.11	-1
0	625784	53.21	-1
0	626986	53.31	-1
0	628128	53.41	-1
0	629330	53.51	-1
0	630532	53.61	-1
0	631734	53.71	-1
0	632936	53.81	-1
0	634138	53.91	-1
0	635352	54.01	-1
0	636554	54.11	-1
0	637756	54.21	-1
0	638958	54.31	-1
0	640160	54.41	-1
0	641302	54.51	-1
0	642504	54.61	-1
0	643706	54.71	-1
0	644848	54.81	-1
0	646050	54.91	-1
0	647264	55.01	-1
0	648466	55.11	-1
0	649608	55.21	-1
0	650810	55.31	-1
0	652012	55.41	-1
0	653214	55.51	-1
0	654549	55.61	-1
0	655690	55.71	-1
0	656891	55.81	-1
0	658032	55.91	-1
0	659245	56.01	-1
0	660446	56.11	-1
0	661647	56.21	-1
0	662848	56.31	-1
0	664049	56.41	-1
0	665250	56.51	-1
0	666391	56.61	-1
0	667592	56.71	-1
0	668793	56.81	-1
0	669994	56.91	-1
0	671207	57.01	-1
0	672408	57.11	-1
0	673609	57.21	-1
0	674810	57.31	-1
0	676011	57.41	-1
0	677212	57.51	-1
0	678413	57.61	-1
0	679614	57.71	-1
0	680815	57.81	-1
0	682016	57.91	-1
0	683229	58.01	-1
0	684430	58.11	-1
0	685631	58.21	-1
0	686832	58.31	-1
0	688033	58.41	-1
0	689234	58.51	-1
0	690435	58.61	-1
0	691576	58.71	-1
0	692777	58.81	-1
0	693978	58.91	-1
0	695324	59.01	-1
0	696524	59.11	-1
0	697724	59.21	-1
0	698924	59.31	-1
0	700124	59.41	-1
0	701324	59.51	-1
0	702524	59.61	-1
0	703724	59.71	-1
0	704924	59.81	-1
0	706064	59.91	-1
0	707276	60.01	-1
0	708476	60.11	-1
0	709676	60.21	-1
0	710876	60.31	-1
0	712076	60.41	-1
0	713216	60.51	-1
0	714416	60.61	-1
0	715616	60.71	-1
0	716756	60.81	-1
0	717896	60.91	-1
0	719108	61.01	-1
0	720308	61.11	-1
0	721508	61.21	-1
0	722708	61.31	-1
0	723908	61.41	-1
0	725108	61.51	-1
0	726308	61.61	-1
0	727508	61.71	-1
0	728708	61.81	-1
0	729908	61.91	-1
0	731060	62.01	-1
0	732260	62.11	-1
0	733460	62.21	-1
0	734600	62.31	-1
0	735933	62.41	-1
0	737072	62.51	-1
0	738271	62.61	-1
0	739470	62.71	-1
0	740609	62.81	-1
0	741808	62.91	-1
0	743019	63.01	-1
0	744218	63.11	-1
0	745417	63.21	-1
0	746616	63.31	-1
0	747815	63.41	-1
0	749014	63.51	-1
0	750213	63.61	-1
0	751412	63.71	-1
0	752611	63.81	-1
0	753810	63.91	-1
0	754961	64.01	-1
0	756160	64.11	-1
0	757359	64.21	-1
0	758558	64.31	-1
0	759757	64.41	-1
0	760956	64.51	-1
0	762155	64.61	-1
0	763354	64.71	-1
0	764493	64.81	-1
0	765692	64.91	-1
0	766903	65.01	-1
0	768102	65.11	-1
0	769301	65.21	-1
0	770500	65.31	-1
0	771639	65.41	-1
0	772838	65.51	-1
0	774037	65.61	-1
0	776832	65.71	-1
0	778030	65.81	-1
0	779228	65.91	-1
0	780438	66.01	-1
0	781636	66.11	-1
0	782834	66.21	-1
0	784032	66.31	-1
0	785173	66.41	-1
0	786371	66.51	-1
0	787569	66.61	-1
0	788767	66.71	-1
0	789965	66.81	-1
0	791106	66.91	-1
0	792316	67.01	-1
0	793514	67.11	-1
0	794712	67.21	-1
0	795910	67.31	-1
0	797108	67.41	-1
0	798306	67.51	-1
0	799504	67.61	-1
0	800702	67.71	-1
0	801900	67.81	-1
0	803098	67.91	-1
0	804308	68.01	-1
0	805506	68.11	-1
0	806704	68.21	-1
0	807902	68.31	-1
0	809100	68.41	-1
0	810298	68.51	-1
0	811496	68.61	-1
0	812694	68.71	-1
0	813892	68.81	-1
0	815090	68.91	-1
0	816240	69.01	-1
0	817378	69.11	-1
0	818576	69.21	-1
0	819774	69.31	-1
0	820972	69.41	-1
0	822170	69.51	-1
0	823368	69.61	-1
0	824506	69.71	-1
0	825704	69.81	-1
0	826902	69.91	-1
0	828112	70.01	-1
0	829310	70.11	-1
0	830508	70.21	-1
0	831643	70.31	-1
0	832841	70.41	-1
0	833976	70.51	-1
0	835174	70.61	-1
0	836372	70.71	-1
0	837570	70.81	-1
0	838702	70.91	-1
0	839912	71.01	-1
0	841110	71.11	-1
0	842245	71.21	-1
0	843380	71.31	-1
0	844515	71.41	-1
0	845650	71.51	-1
0	846848	71.61	-1
0	847983	71.71	-1
0	849181	71.81	-1
0	850379	71.91	-1
0	851589	72.01	-1
0	852787	72.11	-1
0	853985	72.21	-1
0	855183	72.31	-1
0	856381	72.41	-1
0	857579	72.51	-1
0	858777	72.61	-1
0	859975	72.71	-1
0	861173	72.81	-1
0	862371	72.91	-1
0	863581	73.01	-1
0	864779	73.11	-1
0	865905	73.21	-1
0	867103	73.31	-1
0	868301	73.41	-1
0	869499	73.51	-1
0	870697	73.61	-1
0	871895	73.71	-1
0	873018	73.81	-1
0	874216	73.91	-1
0	875351	74.01	-1
0	876549	74.11	-1
0	877747	74.21	-1
0	878945	74.31	-1
0	880143	74.41	-1
0	881341	74.51	-1
0	882539	74.61	-1
0	883665	74.71	-1
0	884791	74.81	-1
0	885989	74.91	-1
0	887127	75.01	-1
0	888325	75.11	-1
0	889523	75.21	-1
0	890721	75.31	-1
0	891919	75.41	-1
0	893045	75.51	-1
0	894243	75.61	-1
0	895441	75.71	-1
0	896564	75.81	-1
0	897762	75.91	-1
0	898972	76.01	-1
0	900170	76.11	-1
0	901368	76.21	-1
0	902566	76.31	-1
0	903764	76.41	-1
0	904962	76.51	-1
0	906160	76.61	-1
0	907358	76.71	-1
0	908478	76.81	-1
0	909676	76.91	-1
0	910886	77.01	-1
0	912084	77.11	-1
0	913204	77.21	-1
0	914402	77.31	-1
0	915600	77.41	-1
0	916798	77.51	-1
0	917996	77.61	-1
0	919194	77.71	-1
0	920392	77.81	-1
0	921590	77.91	-1
0	922800	78.01	-1
0	923998	78.11	-1
0	925196	78.21	-1
0	926394	78.31	-1
0	927592	78.41	-1
0	928790	78.51	-1
0	929988	78.61	-1
0	931186	78.71	-1
0	932384	78.81	-1
0	933507	78.91	-1
0	934717	79.01	-1
0	935915	79.11	-1
0	937113	79.21	-1
0	938311	79.31	-1
0	939434	79.41	-1
0	940632	79.51	-1
0	941830	79.61	-1
0	943028	79.71	-1
0	944226	79.81	-1
0	945424	79.91	-1
0	946634	80.01	-1
0	947832	80.11	-1
0	949030	80.21	-1
0	950228	80.31	-1
0	951348	80.41	-1
0	952546	80.51	-1
0	953744	80.61	-1
0	954942	80.71	-1
0	956140	80.81	-1
0	957338	80.91	-1
0	958548	81.01	-1
0	959746	81.11	-1
0	960944	81.21	-1
0	962142	81.31	-1
0	963340	81.41	-1
0	964538	81.51	-1
0	965736	81.61	-1
0	966934	81.71	-1
0	968132	81.81	-1
0	969330	81.91	-1
0	970540	82.01	-1
0	971663	82.11	-1
0	972861	82.21	-1
0	974059	82.31	-1
0	975257	82.41	-1
0	976455	82.51	-1
0	977653	82.61	-1
0	978851	82.71	-1
0	980049	82.81	-1
0	981175	82.91	-1
0	982385	83.01	-1
0	983583	83.11	-1
0	984781	83.21	-1
0	985979	83.31	-1
0	987108	83.41	-1
0	988306	83.51	-1
0	989504	83.61	-1
0	990702	83.71	-1
0	991900	83.81	-1
0	993098	83.91	-1
0	994308	84.01	-1
0	995506	84.11	-1
0	996704	84.21	-1
0	997902	84.31	-1
0	999100	84.41	-1
0	1000298	84.51	-1
0	1001496	84.61	-1
0	1002694	84.71	-1
0	1003892	84.81	-1
0	1005090	84.91	-1
0	1006300	85.01	-1
0	1007498	85.11	-1
0	1008696	85.21	-1
0	1009894	85.31	-1
0	1011092	85.41	-1
0	1012290	85.51	-1
0	1013488	85.61	-1
0	1014686	85.71	-1
0	1015884	85.81	-1
0	1017082	85.91	-1
0	1018292	86.01	-1
0	1019490	86.11	-1
0	1020688	86.21	-1
0	1021886	86.31	-1
0	1023084	86.41	-1
0	1024282	86.51	-1
0	1025480	86.61	-1
0	1026678	86.71	-1
0	1027876	86.81	-1
0	1029074	86.91	-1
0	1030284	87.01	-1
0	1031425	87.11	-1
0	1032623	87.21	-1
0	1033821	87.31	-1
0	1035019	87.41	-1
0	1036217	87.51	-1
0	1037415	87.61	-1
0	1038613	87.71	-1
0	1039811	87.81	-1
0	1041009	87.91	-1
0	1042219	88.01	-1
0	1043360	88.11	-1
0	1044558	88.21	-1
0	1045756	88.31	-1
0	1046954	88.41	-1
0	1048152	88.51	-1
0	1049350	88.61	-1
0	1050488	88.71	-1
0	1051686	88.81	-1
0	1052827	88.91	-1
0	1054037	89.01	-1
0	1055235	89.11	-1
0	1056433	89.21	-1
0	1057631	89.31	-1
0	1058829	89.41	-1
0	1060027	89.51	-1
0	1061225	89.61	-1
0	1062423	89.71	-1
0	1063621	89.81	-1
0	1064819	89.91	-1
0	1066029	90.01	-1
0	1067227	90.11	-1
0	1068425	90.21	-1
0	1069623	90.31	-1
0	1070821	90.41	-1
0	1072019	90.51	-1
0	1073217	90.61	-1
0	1074415	90.71	-1
0	1075613	90.81	-1
0	1076757	90.91	-1
0	1077967	91.01	-1
0	1079165	91.11	-1
0	1080309	91.21	-1
0	1081507	91.31	-1
0	1082705	91.41	-1
0	1083849	91.51	-1
0	1085047	91.61	-1
0	1086245	91.71	-1
0	1087443	91.81	-1
0	1088587	91.91	-1
0	1089797	92.01	-1
0	1090941	92.11	-1
0	1092139	92.21	-1
0	1093337	92.31	-1
0	1094535	92.41	-1
0	1095733	92.51	-1
0	1096931	92.61	-1
0	1098129	92.71	-1
0	1099270	92.81	-1
0	1100411	92.91	-1
0	1101621	93.01	-1
0	1102819	93.11	-1
0	1104017	93.21	-1
0	1105215	93.31	-1
0	1106356	93.41	-1
0	1107554	93.51	-1
0	1108752	93.61	-1
0	1109950	93.71	-1
0	1111148	93.81	-1
0	1112346	93.91	-1
0	1113556	94.01	-1
0	1114754	94.11	-1
0	1115952	94.21	-1
0	1117150	94.31	-1
0	1118291	94.41	-1
0	1119489	94.51	-1
0	1120687	94.61	-1
0	1121885	94.71	-1
0	1123083	94.81	-1
0	1124224	94.91	-1
0	1125434	95.01	-1
0	1126632	95.11	-1
0	1127830	95.21	-1
0	1129028	95.31	-1
0	1130226	95.41	-1
0	1131367	95.51	-1
0	1132565	95.61	-1
0	1133763	95.71	-1
0	1134961	95.81	-1
0	1136159	95.91	-1
0	1137315	96.01	-1
0	1138513	96.11	-1
0	1139711	96.21	-1
0	1140909	96.31	-1
0	1142107	96.41	-1
0	1143305	96.51	-1
0	1144449	96.61	-1
0	1145647	96.71	-1
0	1146845	96.81	-1
0	1148043	96.91	-1
0	1149253	97.01	-1
0	1150451	97.11	-1
0	1151649	97.21	-1
0	1152847	97.31	-1
0	1154045	97.41	-1
0	1155243	97.51	-1
0	1156441	97.61	-1
0	1157639	97.71	-1
0	1158837	97.81	-1
0	1160035	97.91	-1
0	1161245	98.01	-1
0	1162443	98.11	-1
0	1163587	98.21	-1
0	1164785	98.31	-1
0	1165983	98.41	-1
0	1167181	98.51	-1
0	1168379	98.61	-1
0	1169577	98.71	-1
0	1170775	98.81	-1
0	1171973	98.91	-1
0	1173183	99.01	-1
0	1174381	99.11	-1
0	1175525	99.21	-1
0	1176723	99.31	-1
0	1177921	99.41	-1
0	1179119	99.51	-1
0	1180317	99.61	-1
0	1181515	99.71	-1
0	1182713	99.81	-1
0	1183911	99.91	-1
1	113	1.11	0
1	1311	1.21	0
1	2509	1.31	0
1	3707	1.41	0
1	4905	1.51	0
1	6103	1.61	0
1	7301	1.71	0
1	8499	1.81	0
1	9697	1.91	0
1	10907	2.01	0
1	12045	2.11	0
1	13243	2.21	0
1	14441	2.31	0
1	15579	2.41	0
1	16777	2.51	0
1	17975	2.61	0
1	19173	2.71	0
1	20371	2.81	0
1	21569	2.91	0
1	22779	3.01	0
1	23917	3.11	0
1	25115	3.21	0
1	26313	3.31	0
1	27511	3.41	0
1	28709	3.51	0
1	29907	3.61	0
1	31045	3.71	0
1	32243	3.81	0
1	33441	3.91	0
1	34651	4.01	0
1	35789	4.11	0
1	36927	4.21	0
1	38125	4.31	0
1	39263	4.41	0
1	40461	4.51	0
1	41659	4.61	0
1	42857	4.71	0
1	44055	4.81	0
1	45253	4.91	0
1	46463	5.01	0
1	47604	5.11	0
1	48802	5.21	0
1	50000	5.31	0
1	51198	5.41	0
1	52396	5.51	0
1	53594	5.61	0
1	54735	5.71	0
1	55933	5.81	0
1	57131	5.91	0
1	58281	6.01	0
1	59479	6.11	0
1	60677	6.21	0
1	61875	6.31	0
1	63073	6.41	0
1	64271	6.51	0
1	65469	6.61	0
1	66667	6.71	0
1	67865	6.81	0
1	69063	6.91	0
1	70216	7.01	0
1	71414	7.11	0
1	72612	7.21	0
1	73753	7.31	0
1	74894	7.41	0
1	76092	7.51	0
1	77290	7.61	0
1	78488	7.71	0
1	79686	7.81	0
1	80827	7.91	0
1	82037	8.01	0
1	83235	8.11	0
1	84433	8.21	0
1	85631	8.31	0
1	86829	8.41	0
1	88027	8.51	0
1	89225	8.61	0
1	90423	8.71	0
1	91621	8.81	0
1	92762	8.91	0
1	93972	9.01	0
1	95170	9.11	0
1	96368	9.21	0
1	97509	9.31	0
1	98707	9.41	0
1	99905	9.51	0
1	101103	9.61	0
1	102301	9.71	0
1	103499	9.81	0
1	104697	9.91	0
1	106017	10.01	0
1	107226	10.11	0
1	108435	10.21	0
1	109644	10.31	0
1	110796	10.41	0
1	112005	10.51	0
1	113214	10.61	0
1	114423	10.71	0
1	115632	10.81	0
1	116841	10.91	0
1	118062	11.01	0
1	119271	11.11	0
1	120480	11.21	0
1	121689	11.31	0
1	122898	11.41	0
1	124107	11.51	0
1	125256	11.61	0
1	126465	11.71	0
1	127614	11.81	0
1	128823	11.91	0
1	130044	12.01	0
1	131253	12.11	0
1	132462	12.21	0
1	133671	12.31	0
1	134880	12.41	0
1	136089	12.51	0
1	137238	12.61	0
1	138387	12.71	0
1	139596	12.81	0
1	140805	12.91	0
1	142026	13.01	0
1	143235	13.11	0
1	144444	13.21	0
1	145593	13.31	0
1	146802	13.41	0
1	147951	13.51	0
1	149160	13.61	0
1	150369	13.71	0
1	151578	13.81	0
1	152787	13.91	0
1	154008	14.01	0
1	155217	14.11	0
1	156426	14.21	0
1	157635	14.31	0
1	158784	14.41	0
1	159993	14.51	0
1	161202	14.61	0
1	162411	14.71	0
1	163620	14.81	0
1	164829	14.91	0
1	165990	15.01	0
1	167139	15.11	0
1	168348	15.21	0
1	169557	15.31	0
1	170766	15.41	0
1	171975	15.51	0
1	173184	15.61	0
1	174393	15.71	0
1	175602	15.81	0
1	176751	15.91	0
1	177972	16.01	0
1	179181	16.11	0
1	180390	16.21	0
1	181599	16.31	0
1	182808	16.41	0
1	184017	16.51	0
1	185226	16.61	0
1	186435	16.71	0
1	187584	16.81	0
1	188793	16.91	0
1	189954	17.01	0
1	191163	17.11	0
1	192372	17.21	0
1	193581	17.31	0
1	194790	17.41	0
1	195999	17.51	0
1	197208	17.61	0
1	198417	17.71	0
1	199626	17.81	0
1	200835	17.91	0
1	202056	18.01	0
1	203265	18.11	0
1	204474	18.21	0
1	205683	18.31	0
1	206892	18.41	0
1	208101	18.51	0
1	209310	18.61	0
1	210519	18.71	0
1	211728	18.81	0
1	212937	18.91	0
1	214158	19.01	0
1	215367	19.11	0
1	216576	19.21	0
1	217785	19.31	0
1	218934	19.41	0
1	220143	19.51	0
1	221352	19.61	0
1	222561	19.71	0
1	223770	19.81	0
1	224979	19.91	0
1	226200	20.01	0
1	227409	20.11	0
1	228618	20.21	0
1	229827	20.31	0
1	231036	20.41	0
1	232245	20.51	0
1	233454	20.61	0
1	234663	20.71	0
1	235872	20.81	0
1	237081	20.91	0
1	238302	21.01	0
1	239511	21.11	0
1	240720	21.21	0
1	241929	21.31	0
1	243138	21.41	0
1	244347	21.51	0
1	245556	21.61	0
1	246765	21.71	0
1	247974	21.81	0
1	249183	21.91	0
1	250404	22.01	0
1	251613	22.11	0
1	252822	22.21	0
1	254031	22.31	0
1	255240	22.41	0
1	256449	22.51	0
1	257658	22.61	0
1	258867	22.71	0
1	260076	22.81	0
1	261285	22.91	0
1	262506	23.01	0
1	263715	23.11	0
1	264924	23.21	0
1	266133	23.31	0
1	267342	23.41	0
1	268551	23.51	0
1	269760	23.61	0
1	270969	23.71	0
1	272178	23.81	0
1	273387	23.91	0
1	274608	24.01	0
1	275817	24.11	0
1	277026	24.21	0
1	278235	24.31	0
1	279384	24.41	0
1	280593	24.51	0
1	281802	24.61	0
1	283011	24.71	0
1	284220	24.81	0
1	285429	24.91	0
1	286650	25.01	0
1	287859	25.11	0
1	289068	25.21	0
1	290277	25.31	0
1	291486	25.41	0
1	292695	25.51	0
1	293904	25.61	0
1	295113	25.71	0
1	296322	25.81	0
1	297531	25.91	0
1	298752	26.01	0
1	299961	26.11	0
1	301170	26.21	0
1	302379	26.31	0
1	303588	26.41	0
1	304797	26.51	0
1	306006	26.61	0
1	307155	26.71	0
1	308364	26.81	0
1	309573	26.91	0
1	310794	27.01	0
1	312003	27.11	0
1	313212	27.21	0
1	314421	27.31	0
1	315630	27.41	0
1	316839	27.51	0
1	318048	27.61	0
1	319257	27.71	0
1	320466	27.81	0
1	321675	27.91	0
1	322896	28.01	0
1	324105	28.11	0
1	325314	28.21	0
1	326523	28.31	0
1	327732	28.41	0
1	328941	28.51	0
1	330150	28.61	0
1	331359	28.71	0
1	332568	28.81	0
1	333777	28.91	0
1	334938	29.01	0
1	336087	29.11	0
1	337296	29.21	0
1	338638	29.31	0
1	339846	29.41	0
1	341054	29.51	0
1	342262	29.61	0
1	343470	29.71	0
1	344618	29.81	0
1	345826	29.91	0
1	347046	30.01	0
1	348254	30.11	0
1	349402	30.21	0
1	350610	30.31	0
1	351818	30.41	0
1	353026	30.51	0
1	354234	30.61	0
1	355442	30.71	0
1	356650	30.81	0
1	357858	30.91	0
1	359078	31.01	0
1	360226	31.11	0
1	361434	31.21	0
1	362582	31.31	0
1	363790	31.41	0
1	364998	31.51	0
1	366206	31.61	0
1	367414	31.71	0
1	368622	31.81	0
1	369830	31.91	0
1	371050	32.01	0
1	372258	32.11	0
1	373466	32.21	0
1	374614	32.31	0
1	375822	32.41	0
1	377030	32.51	0
1	378238	32.61	0
1	379446	32.71	0
1	380654	32.81	0
1	381862	32.91	0
1	383082	33.01	0
1	384290	33.11	0
1	385498	33.21	0
1	386646	33.31	0
1	387854	33.41	0
1	389195	33.51	0
1	390402	33.61	0
1	391609	33.71	0
1	392816	33.81	0
1	394023	33.91	0
1	395242	34.01	0
1	396449	34.11	0
1	397656	34.21	0
1	398863	34.31	0
1	400070	34.41	0
1	401277	34.51	0
1	402484	34.61	0
1	403631	34.71	0
1	404838	34.81	0
1	406045	34.91	0
1	407264	35.01	0
1	408471	35.11	0
1	409618	35.21	0
1	410765	35.31	0
1	411912	35.41	0
1	413119	35.51	0
1	414326	35.61	0
1	415533	35.71	0
1	416740	35.81	0
1	417947	35.91	0
1	419166	36.01	0
1	420373	36.11	0
1	421580	36.21	0
1	422787	36.31	0
1	423994	36.41	0
1	425141	36.51	0
1	426288	36.61	0
1	427495	36.71	0
1	428702	36.81	0
1	429909	36.91	0
1	431128	37.01	0
1	432335	37.11	0
1	433542	37.21	0
1	434749	37.31	0
1	435956	37.41	0
1	437236	37.51	0
1	438442	37.61	0
1	439648	37.71	0
1	440794	37.81	0
1	442000	37.91	0
1	443218	38.01	0
1	444424	38.11	0
1	445630	38.21	0
1	446836	38.31	0
1	447982	38.41	0
1	449188	38.51	0
1	450394	38.61	0
1	451600	38.71	0
1	452746	38.81	0
1	453952	38.91	0
1	455170	39.01	0
1	456376	39.11	0
1	457582	39.21	0
1	458788	39.31	0
1	459994	39.41	0
1	461200	39.51	0
1	462346	39.61	0
1	463552	39.71	0
1	464758	39.81	0
1	465964	39.91	0
1	467182	40.01	0
1	468388	40.11	0
1	469594	40.21	0
1	470800	40.31	0
1	472006	40.41	0
1	473212	40.51	0
1	474418	40.61	0
1	475624	40.71	0
1	476830	40.81	0
1	478036	40.91	0
1	479194	41.01	0
1	480400	41.11	0
1	481606	41.21	0
1	482945	41.31	0
1	484150	41.41	0
1	485295	41.51	0
1	486440	41.61	0
1	487645	41.71	0
1	488790	41.81	0
1	489995	41.91	0
1	491212	42.01	0
1	492357	42.11	0
1	493562	42.21	0
1	494707	42.31	0
1	495912	42.41	0
1	497117	42.51	0
1	498322	42.61	0
1	499527	42.71	0
1	500732	42.81	0
1	501877	42.91	0
1	503034	43.01	0
1	504239	43.11	0
1	505444	43.21	0
1	506649	43.31	0
1	507854	43.41	0
1	508999	43.51	0
1	510204	43.61	0
1	511409	43.71	0
1	512614	43.81	0
1	513819	43.91	0
1	515036	44.01	0
1	516241	44.11	0
1	517446	44.21	0
1	518651	44.31	0
1	519856	44.41	0
1	521001	44.51	0
1	522206	44.61	0
1	523411	44.71	0
1	524616	44.81	0
1	525821	44.91	0
1	527171	45.01	0
1	528375	45.11	0
1	529579	45.21	0
1	530783	45.31	0
1	531987	45.41	0
1	533191	45.51	0
1	534395	45.61	0
1	535599	45.71	0
1	536803	45.81	0
1	538007	45.91	0
1	539163	46.01	0
1	540367	46.11	0
1	541571	46.21	0
1	542775	46.31	0
1	543979	46.41	0
1	545183	46.51	0
1	546387	46.61	0
1	547591	46.71	0
1	548795	46.81	0
1	549999	46.91	0
1	551215	47.01	0
1	552419	47.11	0
1	553563	47.21	0
1	554767	47.31	0
1	555971	47.41	0
1	557175	47.51	0
1	558319	47.61	0
1	559523	47.71	0
1	560727	47.81	0
1	561931	47.91	0
1	563147	48.01	0
1	564351	48.11	0
1	565555	48.21	0
1	566759	48.31	0
1	567963	48.41	0
1	569167	48.51	0
1	570504	48.61	0
1	571707	48.71	0
1	572910	48.81	0
1	574113	48.91	0
1	575328	49.01	0
1	576531	49.11	0
1	577734	49.21	0
1	578937	49.31	0
1	580140	49.41	0
1	581343	49.51	0
1	582546	49.61	0
1	583749	49.71	0
1	584952	49.81	0
1	586155	49.91	0
1	587370	50.01	0
1	588573	50.11	0
1	589776	50.21	0
1	590979	50.31	0
1	592122	50.41	0
1	593325	50.51	0
1	594528	50.61	0
1	595731	50.71	0
1	596934	50.81	0
1	598137	50.91	0
1	599352	51.01	0
1	600495	51.11	0
1	601698	51.21	0
1	602901	51.31	0
1	604104	51.41	0
1	605307	51.51	0
1	606450	51.61	0
1	607653	51.71	0
1	608796	51.81	0
1	609999	51.91	0
1	611214	52.01	0
1	612550	52.11	0
1	613752	52.21	0
1	614954	52.31	0
1	616156	52.41	0
1	617358	52.51	0
1	618560	52.61	0
1	619762	52.71	0
1	620964	52.81	0
1	622166	52.91	0
1	623380	53.01	0
1	624582	53.11	0
1	625784	53.21	0
1	626986	53.31	0
1	628128	53.41	0
1	629330	53.51	0
1	630532	53.61	0
1	631734	53.71	0
1	632936	53.81	0
1	634138	53.91	0
1	635352	54.01	0
1	636554	54.11	0
1	637756	54.21	0
1	638958	54.31	0
1	640160	54.41	0
1	641302	54.51	0
1	642504	54.61	0
1	643706	54.71	0
1	644848	54.81	0
1	646050	54.91	0
1	647264	55.01	0
1	648466	55.11	0
1	649608	55.21	0
1	650810	55.31	0
1	652012	55.41	0
1	653214	55.51	0
1	654549	55.61	0
1	655690	55.71	0
1	656891	55.81	0
1	658032	55.91	0
1	659245	56.01	0
1	660446	56.11	0
1	661647	56.21	0
1	662848	56.31	0
1	664049	56.41	0
1	665250	56.51	0
1	666391	56.61	0
1	667592	56.71	0
1	668793	56.81	0
1	669994	56.91	0
1	671207	57.01	0
1	672408	57.11	0
1	673609	57.21	0
1	674810	57.31	0
1	676011	57.41	0
1	677212	57.51	0
1	678413	57.61	0
1	679614	57.71	0
1	680815	57.81	0
1	682016	57.91	0
1	683229	58.01	0
1	684430	58.11	0
1	685631	58.21	0
1	686832	58.31	0
1	688033	58.41	0
1	689234	58.51	0
1	690435	58.61	0
1	691576	58.71	0
1	692777	58.81	0
1	693978	58.91	0
1	695324	59.01	0
1	696524	59.11	0
1	697724	59.21	0
1	698924	59.31	0
1	700124	59.41	0
1	701324	59.51	0
1	702524	59.61	0
1	703724	59.71	0
1	704924	59.81	0
1	706064	59.91	0
1	707276	60.01	0
1	708476	60.11	0
1	709676	60.21	0
1	710876	60.31	0
1	712076	60.41	0
1	713216	60.51	0
1	714416	60.61	0
1	715616	60.71	0
1	716756	60.81	0
1	717896	60.91	0
1	719108	61.01	0
1	720308	61.11	0
1	721508	61.21	0
1	722708	61.31	0
1	723908	61.41	0
1	725108	61.51	0
1	726308	61.61	0
1	727508	61.71	0
1	728708	61.81	0
1	729908	61.91	0
1	731060	62.01	0
1	732260	62.11	0
1	733460	62.21	0
1	734600	62.31	0
1	735933	62.41	0
1	737072	62.51	0
1	738271	62.61	0
1	739470	62.71	0
1	740609	62.81	0
1	741808	62.91	0
1	743019	63.01	0
1	744218	63.11	0
1	745417	63.21	0
1	746616	63.31	0
1	747815	63.41	0
1	749014	63.51	0
1	750213	63.61	0
1	751412	63.71	0
1	752611	63.81	0
1	753810	63.91	0
1	754961	64.01	0
1	756160	64.11	0
1	757359	64.21	0
1	758558	64.31	0
1	759757	64.41	0
1	760956	64.51	0
1	762155	64.61	0
1	763354	64.71	0
1	764493	64.81	0
1	765692	64.91	0
1	766903	65.01	0
1	768102	65.11	0
1	769301	65.21	0
1	770500	65.31	0
1	771639	65.41	0
1	772838	65.51	0
1	774037	65.61	0
1	776832	65.71	0
1	778030	65.81	0
1	779228	65.91	0
1	780438	66.01	0
1	781636	66.11	0
1	782834	66.21	0
1	784032	66.31	0
1	785173	66.41	0
1	786371	66.51	0
1	787569	66.61	0
1	788767	66.71	0
1	789965	66.81	0
1	791106	66.91	0
1	792316	67.01	0
1	793514	67.11	0
1	794712	67.21	0
1	795910	67.31	0
1	797108	67.41	0
1	798306	67.51	0
1	799504	67.61	0
1	800702	67.71	0
1	801900	67.81	0
1	803098	67.91	0
1	804308	68.01	0
1	805506	68.11	0
1	806704	68.21	0
1	807902	68.31	0
1	809100	68.41	0
1	810298	68.51	0
1	811496	68.61	0
1	812694	68.71	0
1	813892	68.81	0
1	815090	68.91	0
1	816240	69.01	0
1	817378	69.11	0
1	818576	69.21	0
1	819774	69.31	0
1	820972	69.41	0
1	822170	69.51	0
1	823368	69.61	0
1	824506	69.71	0
1	825704	69.81	0
1	826902	69.91	0
1	828112	70.01	0
1	829310	70.11	0
1	830508	70.21	0
1	831643	70.31	0
1	832841	70.41	0
1	833976	70.51	0
1	835174	70.61	0
1	836372	70.71	0
1	837570	70.81	0
1	838702	70.91	0
1	839912	71.01	0
1	841110	71.11	0
1	842245	71.21	0
1	843380	71.31	0
1	844515	71.41	0
1	845650	71.51	0
1	846848	71.61	0
1	847983	71.71	0
1	849181	71.81	0
1	850379	71.91	0
1	851589	72.01	0
1	852787	72.11	0
1	853985	72.21	0
1	855183	72.31	0
1	856381	72.41	0
1	857579	72.51	0
1	858777	72.61	0
1	859975	72.71	0
1	861173	72.81	0
1	862371	72.91	0
1	863581	73.01	0
1	864779	73.11	0
1	865905	73.21	0
1	867103	73.31	0
1	868301	73.41	0
1	869499	73.51	0
1	870697	73.61	0
1	871895	73.71	0
1	873018	73.81	0
1	874216	73.91	0
1	875351	74.01	0
1	876549	74.11	0
1	877747	74.21	0
1	878945	74.31	0
1	880143	74.41	0
1	881341	74.51	0
1	882539	74.61	0
1	883665	74.71	0
1	884791	74.81	0
1	885989	74.91	0
1	887127	75.01	0
1	888325	75.11	0
1	889523	75.21	0
1	890721	75.31	0
1	891919	75.41	0
1	893045	75.51	0
1	894243	75.61	0
1	895441	75.71	0
1	896564	75.81	0
1	897762	75.91	0
1	898972	76.01	0
1	900170	76.11	0
1	901368	76.21	0
1	902566	76.31	0
1	903764	76.41	0
1	904962	76.51	0
1	906160	76.61	0
1	907358	76.71	0
1	908478	76.81	0
1	909676	76.91	0
1	910886	77.01	0
1	912084	77.11	0
1	913204	77.21	0
1	914402	77.31	0
1	915600	77.41	0
1	916798	77.51	0
1	917996	77.61	0
1	919194	77.71	0
1	920392	77.81	0
1	921590	77.91	0
1	922800	78.01	0
1	923998	78.11	0
1	925196	78.21	0
1	926394	78.31	0
1	927592	78.41	0
1	928790	78.51	0
1	929988	78.61	0
1	931186	78.71	0
1	932384	78.81	0
1	933507	78.91	0
1	934717	79.01	0
1	935915	79.11	0
1	937113	79.21	0
1	938311	79.31	0
1	939434	79.41	0
1	940632	79.51	0
1	941830	79.61	0
1	943028	79.71	0
1	944226	79.81	0
1	945424	79.91	0
1	946634	80.01	0
1	947832	80.11	0
1	949030	80.21	0
1	950228	80.31	0
1	951348	80.41	0
1	952546	80.51	0
1	953744	80.61	0
1	954942	80.71	0
1	956140	80.81	0
1	957338	80.91	0
1	958548	81.01	0
1	959746	81.11	0
1	960944	81.21	0
1	962142	81.31	0
1	963340	81.41	0
1	964538	81.51	0
1	965736	81.61	0
1	966934	81.71	0
1	968132	81.81	0
1	969330	81.91	0
1	970540	82.01	0
1	971663	82.11	0
1	972861	82.21	0
1	974059	82.31	0
1	975257	82.41	0
1	976455	82.51	0
1	977653	82.61	0
1	978851	82.71	0
1	980049	82.81	0
1	981175	82.91	0
1	982385	83.01	0
1	983583	83.11	0
1	984781	83.21	0
1	985979	83.31	0
1	987108	83.41	0
1	988306	83.51	0
1	989504	83.61	0
1	990702	83.71	0
1	991900	83.81	0
1	993098	83.91	0
1	994308	84.01	0
1	995506	84.11	0
1	996704	84.21	0
1	997902	84.31	0
1	999100	84.41	0
1	1000298	84.51	0
1	1001496	84.61	0
1	1002694	84.71	0
1	1003892	84.81	0
1	1005090	84.91	0
1	1006300	85.01	0
1	1007498	85.11	0
1	1008696	85.21	0
1	1009894	85.31	0
1	1011092	85.41	0
1	1012290	85.51	0
1	1013488	85.61	0
1	1014686	85.71	0
1	1015884	85.81	0
1	1017082	85.91	0
1	1018292	86.01	0
1	1019490	86.11	0
1	1020688	86.21	0
1	1021886	86.31	0
1	1023084	86.41	0
1	1024282	86.51	0
1	1025480	86.61	0
1	1026678	86.71	0
1	1027876	86.81	0
1	1029074	86.91	0
1	1030284	87.01	0
1	1031425	87.11	0
1	1032623	87.21	0
1	1033821	87.31	0
1	1035019	87.41	0
1	1036217	87.51	0
1	1037415	87.61	0
1	1038613	87.71	0
1	1039811	87.81	0
1	1041009	87.91	0
1	1042219	88.01	0
1	1043360	88.11	0
1	1044558	88.21	0
1	1045756	88.31	0
1	1046954	88.41	0
1	1048152	88.51	0
1	1049350	88.61	0
1	1050488	88.71	0
1	1051686	88.81	0
1	1052827	88.91	0
1	1054037	89.01	0
1	1055235	89.11	0
1	1056433	89.21	0
1	1057631	89.31	0
1	1058829	89.41	0
1	1060027	89.51	0
1	1061225	89.61	0
1	1062423	89.71	0
1	1063621	89.81	0
1	1064819	89.91	0
1	1066029	90.01	0
1	1067227	90.11	0
1	1068425	90.21	0
1	1069623	90.31	0
1	1070821	90.41	0
1	1072019	90.51	0
1	1073217	90.61	0
1	1074415	90.71	0
1	1075613	90.81	0
1	1076757	90.91	0
1	1077967	91.01	0
1	1079165	91.11	0
1	1080309	91.21	0
1	1081507	91.31	0
1	1082705	91.41	0
1	1083849	91.51	0
1	1085047	91.61	0
1	1086245	91.71	0
1	1087443	91.81	0
1	1088587	91.91	0
1	1089797	92.01	0
1	1090941	92.11	0
1	1092139	92.21	0
1	1093337	92.31	0
1	1094535	92.41	0
1	1095733	92.51	0
1	1096931	92.61	0
1	1098129	92.71	0
1	1099270	92.81	0
1	1100411	92.91	0
1	1101621	93.01	0
1	1102819	93.11	0
1	1104017	93.21	0
1	1105215	93.31	0
1	1106356	93.41	0
1	1107554	93.51	0
1	1108752	93.61	0
1	1109950	93.71	0
1	1111148	93.81	0
1	1112346	93.91	0
1	1113556	94.01	0
1	1114754	94.11	0
1	1115952	94.21	0
1	1117150	94.31	0
1	1118291	94.41	0
1	1119489	94.51	0
1	1120687	94.61	0
1	1121885	94.71	0
1	1123083	94.81	0
1	1124224	94.91	0
1	1125434	95.01	0
1	1126632	95.11	0
1	1127830	95.21	0
1	1129028	95.31	0
1	1130226	95.41	0
1	1131367	95.51	0
1	1132565	95.61	0
1	1133763	95.71	0
1	1134961	95.81	0
1	1136159	95.91	0
1	1137315	96.01	0
1	1138513	96.11	0
1	1139711	96.21	0
1	1140909	96.31	0
1	1142107	96.41	0
1	1143305	96.51	0
1	1144449	96.61	0
1	1145647	96.71	0
1	1146845	96.81	0
1	1148043	96.91	0
1	1149253	97.01	0
1	1150451	97.11	0
1	1151649	97.21	0
1	1152847	97.31	0
1	1154045	97.41	0
1	1155243	97.51	0
1	1156441	97.61	0
1	1157639	97.71	0
1	1158837	97.81	0
1	1160035	97.91	0
1	1161245	98.01	0
1	1162443	98.11	0
1	1163587	98.21	0
1	1164785	98.31	0
1	1165983	98.41	0
1	1167181	98.51	0
1	1168379	98.61	0
1	1169577	98.71	0
1	1170775	98.81	0
1	1171973	98.91	0
1	1173183	99.01	0
1	1174381	99.11	0
1	1175525	99.21	0
1	1176723	99.31	0
1	1177921	99.41	0
1	1179119	99.51	0
1	1180317	99.61	0
1	1181515	99.71	0
1	1182713	99.81	0
1	1183911	99.91	0
2	113	1.11	0
2	1311	1.21	0
2	2509	1.31	0
2	3707	1.41	0
2	4905	1.51	0
2	6103	1.61	0
2	7301	1.71	0
2	8499	1.81	0
2	9697	1.91	0
2	10907	2.01	0
2	12045	2.11	0
2	13243	2.21	0
2	14441	2.31	0
2	15579	2.41	0
2	16777	2.51	0
2	17975	2.61	0
2	19173	2.71	0
2	20371	2.81	0
2	21569	2.91	0
2	22779	3.01	0
2	23917	3.11	0
2	25115	3.21	0
2	26313	3.31	0
2	27511	3.41	0
2	28709	3.51	0
2	29907	3.61	0
2	31045	3.71	0
2	32243	3.81	0
2	33441	3.91	0
2	34651	4.01	0
2	35789	4.11	0
2	36927	4.21	0
2	38125	4.31	0
2	39263	4.41	0
2	40461	4.51	0
2	41659	4.61	0
2	42857	4.71	0
2	44055	4.81	0
2	45253	4.91	0
2	46463	5.01	0
2	47604	5.11	0
2	48802	5.21	0
2	50000	5.31	0
2	51198	5.41	0
2	52396	5.51	0
2	53594	5.61	0
2	54735	5.71	0
2	55933	5.81	0
2	57131	5.91	0
2	58281	6.01	0
2	59479	6.11	0
2	60677	6.21	0
2	61875	6.31	0
2	63073	6.41	0
2	64271	6.51	0
2	65469	6.61	0
2	66667	6.71	0
2	67865	6.81	0
2	69063	6.91	0
2	70216	7.01	0
2	71414	7.11	0
2	72612	7.21	0
2	73753	7.31	0
2	74894	7.41	0
2	76092	7.51	0
2	77290	7.61	0
2	78488	7.71	0
2	79686	7.81	0
2	80827	7.91	0
2	82037	8.01	0
2	83235	8.11	0
2	84433	8.21	0
2	85631	8.31	0
2	86829	8.41	0
2	88027	8.51	0
2	89225	8.61	0
2	90423	8.71	0
2	91621	8.81	0
2	92762	8.91	0
2	93972	9.01	0
2	95170	9.11	0
2	96368	9.21	0
2	97509	9.31	0
2	98707	9.41	0
2	99905	9.51	0
2	101103	9.61	0
2	102301	9.71	0
2	103499	9.81	0
2	104697	9.91	0
2	106017	10.01	0
2	107226	10.11	0
2	108435	10.21	0
2	109644	10.31	0
2	110796	10.41	0
2	112005	10.51	0
2	113214	10.61	0
2	114423	10.71	0
2	115632	10.81	0
2	116841	10.91	0
2	118062	11.01	0
2	119271	11.11	0
2	120480	11.21	0
2	121689	11.31	0
2	122898	11.41	0
2	124107	11.51	0
2	125256	11.61	0
2	126465	11.71	0
2	127614	11.81	0
2	128823	11.91	0
2	130044	12.01	0
2	131253	12.11	0
2	132462	12.21	0
2	133671	12.31	0
2	134880	12.41	0
2	136089	12.51	0
2	137238	12.61	0
2	138387	12.71	0
2	139596	12.81	0
2	140805	12.91	0
2	142026	13.01	0
2	143235	13.11	0
2	144444	13.21	0
2	145593	13.31	0
2	146802	13.41	0
2	147951	13.51	0
2	149160	13.61	0
2	150369	13.71	0
2	151578	13.81	0
2	152787	13.91	0
2	154008	14.01	0
2	155217	14.11	0
2	156426	14.21	0
2	157635	14.31	0
2	158784	14.41	0
2	159993	14.51	0
2	161202	14.61	0
2	162411	14.71	0
2	163620	14.81	0
2	164829	14.91	0
2	165990	15.01	0
2	167139	15.11	0
2	168348	15.21	0
2	169557	15.31	0
2	170766	15.41	0
2	171975	15.51	0
2	173184	15.61	0
2	174393	15.71	0
2	175602	15.81	0
2	176751	15.91	0
2	177972	16.01	0
2	179181	16.11	0
2	180390	16.21	0
2	181599	16.31	0
2	182808	16.41	0
2	184017	16.51	0
2	185226	16.61	0
2	186435	16.71	0
2	187584	16.81	0
2	188793	16.91	0
2	189954	17.01	0
2	191163	17.11	0
2	192372	17.21	0
2	193581	17.31	0
2	194790	17.41	0
2	195999	17.51	0
2	197208	17.61	0
2	198417	17.71	0
2	199626	17.81	0
2	200835	17.91	0
2	202056	18.01	0
2	203265	18.11	0
2	204474	18.21	0
2	205683	18.31	0
2	206892	18.41	0
2	208101	18.51	0
2	209310	18.61	0
2	210519	18.71	0
2	211728	18.81	0
2	212937	18.91	0
2	214158	19.01	0
2	215367	19.11	0
2	216576	19.21	0
2	217785	19.31	0
2	218934	19.41	0
2	220143	19.51	0
2	221352	19.61	0
2	222561	19.71	0
2	223770	19.81	0
2	224979	19.91	0
2	226200	20.01	0
2	227409	20.11	0
2	228618	20.21	0
2	229827	20.31	0
2	231036	20.41	0
2	232245	20.51	0
2	233454	20.61	0
2	234663	20.71	0
2	235872	20.81	0
2	237081	20.91	0
2	238302	21.01	0
2	239511	21.11	0
2	240720	21.21	0
2	241929	21.31	0
2	243138	21.41	0
2	244347	21.51	0
2	245556	21.61	0
2	246765	21.71	0
2	247974	21.81	0
2	249183	21.91	0
2	250404	22.01	0
2	251613	22.11	0
2	252822	22.21	0
2	254031	22.31	0
2	255240	22.41	0
2	256449	22.51	0
2	257658	22.61	0
2	258867	22.71	0
2	260076	22.81	0
2	261285	22.91	0
2	262506	23.01	0
2	263715	23.11	0
2	264924	23.21	0
2	266133	23.31	0
2	267342	23.41	0
2	268551	23.51	0
2	269760	23.61	0
2	270969	23.71	0
2	272178	23.81	0
2	273387	23.91	0
2	274608	24.01	0
2	275817	24.11	0
2	277026	24.21	0
2	278235	24.31	0
2	279384	24.41	0
2	280593	24.51	0
2	281802	24.61	0
2	283011	24.71	0
2	284220	24.81	0
2	285429	24.91	0
2	286650	25.01	0
2	287859	25.11	0
2	289068	25.21	0
2	290277	25.31	0
2	291486	25.41	0
2	292695	25.51	0
2	293904	25.61	0
2	295113	25.71	0
2	296322	25.81	0
2	297531	25.91	0
2	298752	26.01	0
2	299961	26.11	0
2	301170	26.21	0
2	302379	26.31	0
2	303588	26.41	0
2	304797	26.51	0
2	306006	26.61	0
2	307155	26.71	0
2	308364	26.81	0
2	309573	26.91	0
2	310794	27.01	0
2	312003	27.11	0
2	313212	27.21	0
2	314421	27.31	0
2	315630	27.41	0
2	316839	27.51	0
2	318048	27.61	0
2	319257	27.71	0
2	320466	27.81	0
2	321675	27.91	0
2	322896	28.01	0
2	324105	28.11	0
2	325314	28.21	0
2	326523	28.31	0
2	327732	28.41	0
2	328941	28.51	0
2	330150	28.61	0
2	331359	28.71	0
2	332568	28.81	0
2	333777	28.91	0
2	334938	29.01	0
2	336087	29.11	0
2	337296	29.21	0
2	338638	29.31	0
2	339846	29.41	0
2	341054	29.51	0
2	342262	29.61	0
2	343470	29.71	0
2	344618	29.81	0
2	345826	29.91	0
2	347046	30.01	0
2	348254	30.11	0
2	349402	30.21	0
2	350610	30.31	0
2	351818	30.41	0
2	353026	30.51	0
2	354234	30.61	0
2	355442	30.71	0
2	356650	30.81	0
2	357858	30.91	0
2	359078	31.01	0
2	360226	31.11	0
2	361434	31.21	0
2	362582	31.31	0
2	363790	31.41	0
2	364998	31.51	0
2	366206	31.61	0
2	367414	31.71	0
2	368622	31.81	0
2	369830	31.91	0
2	371050	32.01	0
2	372258	32.11	0
2	373466	32.21	0
2	374614	32.31	0
2	375822	32.41	0
2	377030	32.51	0
2	378238	32.61	0
2	379446	32.71	0
2	380654	32.81	0
2	381862	32.91	0
2	383082	33.01	0
2	384290	33.11	0
2	385498	33.21	0
2	386646	33.31	0
2	387854	33.41	0
2	389195	33.51	0
2	390402	33.61	0
2	391609	33.71	0
2	392816	33.81	0
2	394023	33.91	0
2	395242	34.01	0
2	396449	34.11	0
2	397656	34.21	0
2	398863	34.31	0
2	400070	34.41	0
2	401277	34.51	0
2	402484	34.61	0
2	403631	34.71	0
2	404838	34.81	0
2	406045	34.91	0
2	407264	35.01	0
2	408471	35.11	0
2	409618	35.21	0
2	410765	35.31	0
2	411912	35.41	0
2	413119	35.51	0
2	414326	35.61	0
2	415533	35.71	0
2	416740	35.81	0
2	417947	35.91	0
2	419166	36.01	0
2	420373	36.11	0
2	421580	36.21	0
2	422787	36.31	0
2	423994	36.41	0
2	425141	36.51	0
2	426288	36.61	0
2	427495	36.71	0
2	428702	36.81	0
2	429909	36.91	0
2	431128	37.01	0
2	432335	37.11	0
2	433542	37.21	0
2	434749	37.31	0
2	435956	37.41	0
2	437236	37.51	0
2	438442	37.61	0
2	439648	37.71	0
2	440794	37.81	0
2	442000	37.91	0
2	443218	38.01	0
2	444424	38.11	0
2	445630	38.21	0
2	446836	38.31	0
2	447982	38.41	0
2	449188	38.51	0
2	450394	38.61	0
2	451600	38.71	0
2	452746	38.81	0
2	453952	38.91	0
2	455170	39.01	0
2	456376	39.11	0
2	457582	39.21	0
2	458788	39.31	0
2	459994	39.41	0
2	461200	39.51	0
2	462346	39.61	0
2	463552	39.71	0
2	464758	39.81	0
2	465964	39.91	0
2	467182	40.01	0
2	468388	40.11	0
2	469594	40.21	0
2	470800	40.31	0
2	472006	40.41	0
2	473212	40.51	0
2	474418	40.61	0
2	475624	40.71	0
2	476830	40.81	0
2	478036	40.91	0
2	479194	41.01	0
2	480400	41.11	0
2	481606	41.21	0
2	482945	41.31	0
2	484150	41.41	0
2	485295	41.51	0
2	486440	41.61	0
2	487645	41.71	0
2	488790	41.81	0
2	489995	41.91	0
2	491212	42.01	0
2	492357	42.11	0
2	493562	42.21	0
2	494707	42.31	0
2	495912	42.41	0
2	497117	42.51	0
2	498322	42.61	0
2	499527	42.71	0
2	500732	42.81	0
2	501877	42.91	0
2	503034	43.01	0
2	504239	43.11	0
2	505444	43.21	0
2	506649	43.31	0
2	507854	43.41	0
2	508999	43.51	0
2	510204	43.61	0
2	511409	43.71	0
2	512614	43.81	0
2	513819	43.91	0
2	515036	44.01	0
2	516241	44.11	0
2	517446	44.21	0
2	518651	44.31	0
2	519856	44.41	0
2	521001	44.51	0
2	522206	44.61	0
2	523411	44.71	0
2	524616	44.81	0
2	525821	44.91	0
2	527171	45.01	0
2	528375	45.11	0
2	529579	45.21	0
2	530783	45.31	0
2	531987	45.41	0
2	533191	45.51	0
2	534395	45.61	0
2	535599	45.71	0
2	536803	45.81	0
2	538007	45.91	0
2	539163	46.01	0
2	540367	46.11	0
2	541571	46.21	0
2	542775	46.31	0
2	543979	46.41	0
2	545183	46.51	0
2	546387	46.61	0
2	547591	46.71	0
2	548795	46.81	0
2	549999	46.91	0
2	551215	47.01	0
2	552419	47.11	0
2	553563	47.21	0
2	554767	47.31	0
2	555971	47.41	0
2	557175	47.51	0
2	558319	47.61	0
2	559523	47.71	0
2	560727	47.81	0
2	561931	47.91	0
2	563147	48.01	0
2	564351	48.11	0
2	565555	48.21	0
2	566759	48.31	0
2	567963	48.41	0
2	569167	48.51	0
2	570504	48.61	0
2	571707	48.71	0
2	572910	48.81	0
2	574113	48.91	0
2	575328	49.01	0
2	576531	49.11	0
2	577734	49.21	0
2	578937	49.31	0
2	580140	49.41	0
2	581343	49.51	0
2	582546	49.61	0
2	583749	49.71	0
2	584952	49.81	0
2	586155	49.91	0
2	587370	50.01	0
2	588573	50.11	0
2	589776	50.21	0
2	590979	50.31	0
2	592122	50.41	0
2	593325	50.51	0
2	594528	50.61	0
2	595731	50.71	0
2	596934	50.81	0
2	598137	50.91	0
2	599352	51.01	0
2	600495	51.11	0
2	601698	51.21	0
2	602901	51.31	0
2	604104	51.41	0
2	605307	51.51	0
2	606450	51.61	0
2	607653	51.71	0
2	608796	51.81	0
2	609999	51.91	0
2	611214	52.01	0
2	612550	52.11	0
2	613752	52.21	0
2	614954	52.31	0
2	616156	52.41	0
2	617358	52.51	0
2	618560	52.61	0
2	619762	52.71	0
2	620964	52.81	0
2	622166	52.91	0
2	623380	53.01	0
2	624582	53.11	0
2	625784	53.21	0
2	626986	53.31	0
2	628128	53.41	0
2	629330	53.51	0
2	630532	53.61	0
2	631734	53.71	0
2	632936	53.81	0
2	634138	53.91	0
2	635352	54.01	0
2	636554	54.11	0
2	637756	54.21	0
2	638958	54.31	0
2	640160	54.41	0
2	641302	54.51	0
2	642504	54.61	0
2	643706	54.71	0
2	644848	54.81	0
2	646050	54.91	0
2	647264	55.01	0
2	648466	55.11	0
2	649608	55.21	0
2	650810	55.31	0
2	652012	55.41	0
2	653214	55.51	0
2	654549	55.61	0
2	655690	55.71	0
2	656891	55.81	0
2	658032	55.91	0
2	659245	56.01	0
2	660446	56.11	0
2	661647	56.21	0
2	662848	56.31	0
2	664049	56.41	0
2	665250	56.51	0
2	666391	56.61	0
2	667592	56.71	0
2	668793	56.81	0
2	669994	56.91	0
2	671207	57.01	0
2	672408	57.11	0
2	673609	57.21	0
2	674810	57.31	0
2	676011	57.41	0
2	677212	57.51	0
2	678413	57.61	0
2	679614	57.71	0
2	680815	57.81	0
2	682016	57.91	0
2	683229	58.01	0
2	684430	58.11	0
2	685631	58.21	0
2	686832	58.31	0
2	688033	58.41	0
2	689234	58.51	0
2	690435	58.61	0
2	691576	58.71	0
2	692777	58.81	0
2	693978	58.91	0
2	695324	59.01	0
2	696524	59.11	0
2	697724	59.21	0
2	698924	59.31	0
2	700124	59.41	0
2	701324	59.51	0
2	702524	59.61	0
2	703724	59.71	0
2	704924	59.81	0
2	706064	59.91	0
2	707276	60.01	0
2	708476	60.11	0
2	709676	60.21	0
2	710876	60.31	0
2	712076	60.41	0
2	713216	60.51	0
2	714416	60.61	0
2	715616	60.71	0
2	716756	60.81	0
2	717896	60.91	0
2	719108	61.01	0
2	720308	61.11	0
2	721508	61.21	0
2	722708	61.31	0
2	723908	61.41	0
2	725108	61.51	0
2	726308	61.61	0
2	727508	61.71	0
2	728708	61.81	0
2	729908	61.91	0
2	731060	62.01	0
2	732260	62.11	0
2	733460	62.21	0
2	734600	62.31	0
2	735933	62.41	0
2	737072	62.51	0
2	738271	62.61	0
2	739470	62.71	0
2	740609	62.81	0
2	741808	62.91	0
2	743019	63.01	0
2	744218	63.11	0
2	745417	63.21	0
2	746616	63.31	0
2	747815	63.41	0
2	749014	63.51	0
2	750213	63.61	0
2	751412	63.71	0
2	752611	63.81	0
2	753810	63.91	0
2	754961	64.01	0
2	756160	64.11	0
2	757359	64.21	0
2	758558	64.31	0
2	759757	64.41	0
2	760956	64.51	0
2	762155	64.61	0
2	763354	64.71	0
2	764493	64.81	0
2	765692	64.91	0
2	766903	65.01	0
2	768102	65.11	0
2	769301	65.21	0
2	770500	65.31	0
2	771639	65.41	0
2	772838	65.51	0
2	774037	65.61	0
2	776832	65.71	0
2	778030	65.81	0
2	779228	65.91	0
2	780438	66.01	0
2	781636	66.11	0
2	782834	66.21	0
2	784032	66.31	0
2	785173	66.41	0
2	786371	66.51	0
2	787569	66.61	0
2	788767	66.71	0
2	789965	66.81	0
2	791106	66.91	0
2	792316	67.01	0
2	793514	67.11	0
2	794712	67.21	0
2	795910	67.31	0
2	797108	67.41	0
2	798306	67.51	0
2	799504	67.61	0
2	800702	67.71	0
2	801900	67.81	0
2	803098	67.91	0
2	804308	68.01	0
2	805506	68.11	0
2	806704	68.21	0
2	807902	68.31	0
2	809100	68.41	0
2	810298	68.51	0
2	811496	68.61	0
2	812694	68.71	0
2	813892	68.81	0
2	815090	68.91	0
2	816240	69.01	0
2	817378	69.11	0
2	818576	69.21	0
2	819774	69.31	0
2	820972	69.41	0
2	822170	69.51	0
2	823368	69.61	0
2	824506	69.71	0
2	825704	69.81	0
2	826902	69.91	0
2	828112	70.01	0
2	829310	70.11	0
2	830508	70.21	0
2	831643	70.31	0
2	832841	70.41	0
2	833976	70.51	0
2	835174	70.61	0
2	836372	70.71	0
2	837570	70.81	0
2	838702	70.91	0
2	839912	71.01	0
2	841110	71.11	0
2	842245	71.21	0
2	843380	71.31	0
2	844515	71.41	0
2	845650	71.51	0
2	846848	71.61	0
2	847983	71.71	0
2	849181	71.81	0
2	850379	71.91	0
2	851589	72.01	0
2	852787	72.11	0
2	853985	72.21	0
2	855183	72.31	0
2	856381	72.41	0
2	857579	72.51	0
2	858777	72.61	0
2	859975	72.71	0
2	861173	72.81	0
2	862371	72.91	0
2	863581	73.01	0
2	864779	73.11	0
2	865905	73.21	0
2	867103	73.31	0
2	868301	73.41	0
2	869499	73.51	0
2	870697	73.61	0
2	871895	73.71	0
2	873018	73.81	0
2	874216	73.91	0
2	875351	74.01	0
2	876549	74.11	0
2	877747	74.21	0
2	878945	74.31	0
2	880143	74.41	0
2	881341	74.51	0
2	882539	74.61	0
2	883665	74.71	0
2	884791	74.81	0
2	885989	74.91	0
2	887127	75.01	0
2	888325	75.11	0
2	889523	75.21	0
2	890721	75.31	0
2	891919	75.41	0
2	893045	75.51	0
2	894243	75.61	0
2	895441	75.71	0
2	896564	75.81	0
2	897762	75.91	0
2	898972	76.01	0
2	900170	76.11	0
2	901368	76.21	0
2	902566	76.31	0
2	903764	76.41	0
2	904962	76.51	0
2	906160	76.61	0
2	907358	76.71	0
2	908478	76.81	0
2	909676	76.91	0
2	910886	77.01	0
2	912084	77.11	0
2	913204	77.21	0
2	914402	77.31	0
2	915600	77.41	0
2	916798	77.51	0
2	917996	77.61	0
2	919194	77.71	0
2	920392	77.81	0
2	921590	77.91	0
2	922800	78.01	0
2	923998	78.11	0
2	925196	78.21	0
2	926394	78.31	0
2	927592	78.41	0
2	928790	78.51	0
2	929988	78.61	0
2	931186	78.71	0
2	932384	78.81	0
2	933507	78.91	0
2	934717	79.01	0
2	935915	79.11	0
2	937113	79.21	0
2	938311	79.31	0
2	939434	79.41	0
2	940632	79.51	0
2	941830	79.61	0
2	943028	79.71	0
2	944226	79.81	0
2	945424	79.91	0
2	946634	80.01	0
2	947832	80.11	0
2	949030	80.21	0
2	950228	80.31	0
2	951348	80.41	0
2	952546	80.51	0
2	953744	80.61	0
2	954942	80.71	0
2	956140	80.81	0
2	957338	80.91	0
2	958548	81.01	0
2	959746	81.11	0
2	960944	81.21	0
2	962142	81.31	0
2	963340	81.41	0
2	964538	81.51	0
2	965736	81.61	0
2	966934	81.71	0
2	968132	81.81	0
2	969330	81.91	0
2	970540	82.01	0
2	971663	82.11	0
2	972861	82.21	0
2	974059	82.31	0
2	975257	82.41	0
2	976455	82.51	0
2	977653	82.61	0
2	978851	82.71	0
2	980049	82.81	0
2	981175	82.91	0
2	982385	83.01	0
2	983583	83.11	0
2	984781	83.21	0
2	985979	83.31	0
2	987108	83.41	0
2	988306	83.51	0
2	989504	83.61	0
2	990702	83.71	0
2	991900	83.81	0
2	993098	83.91	0
2	994308	84.01	0
2	995506	84.11	0
2	996704	84.21	0
2	997902	84.31	0
2	999100	84.41	0
2	1000298	84.51	0
2	1001496	84.61	0
2	1002694	84.71	0
2	1003892	84.81	0
2	1005090	84.91	0
2	1006300	85.01	0
2	1007498	85.11	0
2	1008696	85.21	0
2	1009894	85.31	0
2	1011092	85.41	0
2	1012290	85.51	0
2	1013488	85.61	0
2	1014686	85.71	0
2	1015884	85.81	0
2	1017082	85.91	0
2	1018292	86.01	0
2	1019490	86.11	0
2	1020688	86.21	0
2	1021886	86.31	0
2	1023084	86.41	0
2	1024282	86.51	0
2	1025480	86.61	0
2	1026678	86.71	0
2	1027876	86.81	0
2	1029074	86.91	0
2	1030284	87.01	0
2	1031425	87.11	0
2	1032623	87.21	0
2	1033821	87.31	0
2	1035019	87.41	0
2	1036217	87.51	0
2	1037415	87.61	0
2	1038613	87.71	0
2	1039811	87.81	0
2	1041009	87.91	0
2	1042219	88.01	0
2	1043360	88.11	0
2	1044558	88.21	0
2	1045756	88.31	0
2	1046954	88.41	0
2	1048152	88.51	0
2	1049350	88.61	0
2	1050488	88.71	0
2	1051686	88.81	0
2	1052827	88.91	0
2	1054037	89.01	0
2	1055235	89.11	0
2	1056433	89.21	0
2	1057631	89.31	0
2	1058829	89.41	0
2	1060027	89.51	0
2	1061225	89.61	0
2	1062423	89.71	0
2	1063621	89.81	0
2	1064819	89.91	0
2	1066029	90.01	0
2	1067227	90.11	0
2	1068425	90.21	0
2	1069623	90.31	0
2	1070821	90.41	0
2	1072019	90.51	0
2	1073217	90.61	0
2	1074415	90.71	0
2	1075613	90.81	0
2	1076757	90.91	0
2	1077967	91.01	0
2	1079165	91.11	0
2	1080309	91.21	0
2	1081507	91.31	0
2	1082705	91.41	0
2	1083849	91.51	0
2	1085047	91.61	0
2	1086245	91.71	0
2	1087443	91.81	0
2	1088587	91.91	0
2	1089797	92.01	0
2	1090941	92.11	0
2	1092139	92.21	0
2	1093337	92.31	0
2	1094535	92.41	0
2	1095733	92.51	0
2	1096931	92.61	0
2	1098129	92.71	0
2	1099270	92.81	0
2	1100411	92.91	0
2	1101621	93.01	0
2	1102819	93.11	0
2	1104017	93.21	0
2	1105215	93.31	0
2	1106356	93.41	0
2	1107554	93.51	0
2	1108752	93.61	0
2	1109950	93.71	0
2	1111148	93.81	0
2	1112346	93.91	0
2	1113556	94.01	0
2	1114754	94.11	0
2	1115952	94.21	0
2	1117150	94.31	0
2	1118291	94.41	0
2	1119489	94.51	0
2	1120687	94.61	0
2	1121885	94.71	0
2	1123083	94.81	0
2	1124224	94.91	0
2	1125434	95.01	0
2	1126632	95.11	0
2	1127830	95.21	0
2	1129028	95.31	0
2	1130226	95.41	0
2	1131367	95.51	0
2	1132565	95.61	0
2	1133763	95.71	0
2	1134961	95.81	0
2	1136159	95.91	0
2	1137315	96.01	0
2	1138513	96.11	0
2	1139711	96.21	0
2	1140909	96.31	0
2	1142107	96.41	0
2	1143305	96.51	0
2	1144449	96.61	0
2	1145647	96.71	0
2	1146845	96.81	0
2	1148043	96.91	0
2	1149253	97.01	0
2	1150451	97.11	0
2	1151649	97.21	0
2	1152847	97.31	0
2	1154045	97.41	0
2	1155243	97.51	0
2	1156441	97.61	0
2	1157639	97.71	0
2	1158837	97.81	0
2	1160035	97.91	0
2	1161245	98.01	0
2	1162443	98.11	0
2	1163587	98.21	0
2	1164785	98.31	0
2	1165983	98.41	0
2	1167181	98.51	0
2	1168379	98.61	0
2	1169577	98.71	0
2	1170775	98.81	0
2	1171973	98.91	0
2	1173183	99.01	0
2	1174381	99.11	0
2	1175525	99.21	0
2	1176723	99.31	0
2	1177921	99.41	0
2	1179119	99.51	0
2	1180317	99.61	0
2	1181515	99.71	0
2	1182713	99.81	0
2	1183911	99.91	0
3	113	1.11	-0.000716383
3	1311	1.21	-0.00136341
3	2509	1.31	-0.00186974
3	3707	1.41	-0.00225157
3	4905	1.51	-0.00252443
3	6103	1.61	-0.00270298
3	7301	1.71	-0.00280098
3	8499	1.81	-0.00283113
3	9697	1.91	-0.00280509
3	10907	2.01	-0.00273342
3	12045	2.11	-0.00262559
3	13243	2.21	-0.00249005
3	14441	2.31	-0.00233419
3	15579	2.41	-0.00216447
3	16777	2.51	-0.00198642
3	17975	2.61	-0.00180472
3	19173	2.71	-0.0016233
3	20371	2.81	-0.00144536
3	21569	2.91	-0.00127346
3	22779	3.01	-0.0011096
3	23917	3.11	-0.000955278
3	25115	3.21	-0.000811546
3	26313	3.31	-0.00067908
3	27511	3.41	-0.000558232
3	28709	3.51	-0.000449082
3	29907	3.61	-0.000351487
3	31045	3.71	-0.00026512
3	32243	3.81	-0.000189514
3	33441	3.91	-0.000124092
3	34651	4.01	-6.81972e-05
3	35789	4.11	-2.11209e-05
3	36927	4.21	1.78769e-05
3	38125	4.31	4.9548e-05
3	39263	4.41	7.46407e-05
3	40461	4.51	9.38867e-05
3	41659	4.61	0.000107991
3	42857	4.71	0.000117625
3	44055	4.81	0.000123418
3	45253	4.91	0.000125957
3	46463	5.01	0.000125781
3	47604	5.11	0.00012338
3	48802	5.21	0.000119198
3	50000	5.31	0.000113629
3	51198	5.41	0.000107022
3	52396	5.51	9.96832e-05
3	53594	5.61	9.18747e-05
3	54735	5.71	8.38211e-05
3	55933	5.81	7.57109e-05
3	57131	5.91	6.76999e-05
3	58281	6.01	5.99137e-05
3	59479	6.11	5.24518e-05
3	60677	6.21	4.53896e-05
3	61875	6.31	3.87821e-05
3	63073	6.41	3.2666e-05
3	64271	6.51	2.70628e-05
3	65469	6.61	2.19809e-05
3	66667	6.71	1.74176e-05
3	67865	6.81	1.33618e-05
3	69063	6.91	9.79494e-06
3	70216	7.01	6.6932e-06
3	71414	7.11	4.02864e-06
3	72612	7.21	1.77051e-06
3	73753	7.31	-1.13691e-07
3	74894	7.41	-1.65736e-06
3	76092	7.51	-2.89397e-06
3	77290	7.61	-3.85652e-06
3	78488	7.71	-4.57698e-06
3	79686	7.81	-5.08591e-06
3	80827	7.91	-5.41219e-06
3	82037	8.01	-5.58279e-06
3	83235	8.11	-5.6226e-06
3	84433	8.21	-5.55442e-06
3	85631	8.31	-5.39886e-06
3	86829	8.41	-5.17441e-06
3	88027	8.51	-4.89748e-06
3	89225	8.61	-4.58246e-06
3	90423	8.71	-4.24184e-06
3	91621	8.81	-3.88634e-06
3	92762	8.91	-3.52499e-06
3	93972	9.01	-3.16534e-06
3	95170	9.11	-2.81353e-06
3	96368	9.21	-2.47446e-06
3	97509	9.31	-2.15192e-06
3	98707	9.41	-1.84873e-06
3	99905	9.51	-1.56685e-06
3	101103	9.61	-1.30751e-06
3	102301	9.71	-1.0713e-06
3	103499	9.81	-8.58321e-07
3	104697	9.91	-6.68206e-07
3	106017	10.01	-5.0026e-07
3	107226	10.11	-3.53514e-07
3	108435	10.21	-2.2679e-07
3	109644	10.31	-1.18765e-07
3	110796	10.41	-2.80163e-08
3	112005	10.51	4.6931e-08
3	113214	10.61	1.07573e-07
3	114423	10.71	1.55391e-07
3	115632	10.81	1.91831e-07
3	116841	10.91	2.18284e-07
3	118062	11.01	2.3607e-07
3	119271	11.11	2.46427e-07
3	120480	11.21	2.50502e-07
3	121689	11.31	2.49353e-07
3	122898	11.41	2.43938e-07
3	124107	11.51	2.3512e-07
3	125256	11.61	2.23669e-07
3	126465	11.71	2.10264e-07
3	127614	11.81	1.95496e-07
3	128823	11.91	1.79874e-07
3	130044	12.01	1.63833e-07
3	131253	12.11	1.47736e-07
3	132462	12.21	1.3188e-07
3	133671	12.31	1.16508e-07
3	134880	12.41	1.01807e-07
3	136089	12.51	8.79222e-08
3	137238	12.61	7.49541e-08
3	138387	12.71	6.29711e-08
3	139596	12.81	5.20114e-08
3	140805	12.91	4.20883e-08
3	142026	13.01	3.3193e-08
3	143235	13.11	2.53003e-08
3	144444	13.21	1.83718e-08
3	145593	13.31	1.23581e-08
3	146802	13.41	7.20348e-09
3	147951	13.51	2.84537e-09
3	149160	13.61	-7.80886e-10
3	150369	13.71	-3.74136e-09
3	151578	13.81	-6.10285e-09
3	152787	13.91	-7.93072e-09
3	154008	14.01	-9.28821e-09
3	155217	14.11	-1.0235e-08
3	156426	14.21	-1.08283e-08
3	157635	14.31	-1.11211e-08
3	158784	14.41	-1.11612e-08
3	159993	14.51	-1.09946e-08
3	161202	14.61	-1.06599e-08
3	162411	14.71	-1.01945e-08
3	163620	14.81	-9.62999e-09
3	164829	14.91	-8.99405e-09
3	165990	15.01	-8.31086e-09
3	167139	15.11	-7.60103e-09
3	168348	15.21	-6.88338e-09
3	169557	15.31	-6.17071e-09
3	170766	15.41	-5.47544e-09
3	171975	15.51	-4.80682e-09
3	173184	15.61	-4.17266e-09
3	174393	15.71	-3.57687e-09
3	175602	15.81	-3.02443e-09
3	176751	15.91	-2.51674e-09
3	177972	16.01	-2.05489e-09
3	179181	16.11	-1.63958e-09
3	180390	16.21	-1.26903e-09
3	181599	16.31	-9.42535e-10
3	182808	16.41	-6.57963e-10
3	184017	16.51	-4.1247e-10
3	185226	16.61	-2.04636e-10
3	186435	16.71	-2.91323e-11
3	187584	16.81	1.14753e-10
3	188793	16.91	2.30926e-10
3	189954	17.01	3.22231e-10
3	191163	17.11	3.91154e-10
3	192372	17.21	4.40892e-10
3	193581	17.31	4.73577e-10
3	194790	17.41	4.92051e-10
3	195999	17.51	4.98446e-10
3	197208	17.61	4.94893e-10
3	198417	17.71	4.82814e-10
3	199626	17.81	4.6434e-10
3	200835	17.91	4.40892e-10
3	202056	18.01	4.13536e-10
3	203265	18.11	3.83693e-10
3	204474	18.21	3.51719e-10
3	205683	18.31	3.19744e-10
3	206892	18.41	2.8777e-10
3	208101	18.51	2.55795e-10
3	209310	18.61	2.25953e-10
3	210519	18.71	1.97531e-10
3	211728	18.81	1.6982e-10
3	212937	18.91	1.44951e-10
3	214158	19.01	1.21503e-10
3	215367	19.11	1.00187e-10
3	216576	19.21	8.10019e-11
3	217785	19.31	6.32383e-11
3	218934	19.41	4.86722e-11
3	220143	19.51	3.44613e-11
3	221352	19.61	2.34479e-11
3	222561	19.71	1.27898e-11
3	223770	19.81	4.9738e-12
3	224979	19.91	-2.13163e-12
3	226200	20.01	-8.17124e-12
3	227409	20.11	-1.1724e-11
3	228618	20.21	-1.52767e-11
3	229827	20.31	-1.88294e-11
3	231036	20.41	-2.02505e-11
3	232245	20.51	-2.02505e-11
3	233454	20.61	-2.02505e-11
3	234663	20.71	-2.02505e-11
3	235872	20.81	-2.02505e-11
3	237081	20.91	-2.02505e-11
3	238302	21.01	-2.02505e-11
3	239511	21.11	-2.02505e-11
3	240720	21.21	-2.02505e-11
3	241929	21.31	-1.88294e-11
3	243138	21.41	-1.7053e-11
3	244347	21.51	-1.52767e-11
3	245556	21.61	-1.38556e-11
3	246765	21.71	-1.24345e-11
3	247974	21.81	-1.13687e-11
3	249183	21.91	-1.03029e-11
3	250404	22.01	-9.23706e-12
3	251613	22.11	-8.52651e-12
3	252822	22.21	-7.4607e-12
3	254031	22.31	-6.75016e-12
3	255240	22.41	-6.03961e-12
3	256449	22.51	-5.68434e-12
3	257658	22.61	-4.9738e-12
3	258867	22.71	-4.61853e-12
3	260076	22.81	-4.26326e-12
3	261285	22.91	-3.90799e-12
3	262506	23.01	-3.55271e-12
3	263715	23.11	-3.19744e-12
3	264924	23.21	-2.84217e-12
3	266133	23.31	-2.4869e-12
3	267342	23.41	-2.13163e-12
3	268551	23.51	-2.13163e-12
3	269760	23.61	-1.77636e-12
3	270969	23.71	-1.77636e-12
3	272178	23.81	-1.42109e-12
3	273387	23.91	-1.42109e-12
3	274608	24.01	-1.06581e-12
3	275817	24.11	-1.06581e-12
3	277026	24.21	-1.06581e-12
3	278235	24.31	-1.06581e-12
3	279384	24.41	-7.10543e-13
3	280593	24.51	-7.10543e-13
3	281802	24.61	-7.10543e-13
3	283011	24.71	-7.10543e-13
3	284220	24.81	-7.10543e-13
3	285429	24.91	-3.55271e-13
3	286650	25.01	-3.55271e-13
3	287859	25.11	-3.55271e-13
3	289068	25.21	-3.55271e-13
3	290277	25.31	-3.55271e-13
3	291486	25.41	-3.55271e-13
3	292695	25.51	-3.55271e-13
3	293904	25.61	-3.55271e-13
3	295113	25.71	-3.55271e-13
3	296322	25.81	-3.55271e-13
3	297531	25.91	0
3	298752	26.01	0
3	299961	26.11	0
3	301170	26.21	0
3	302379	26.31	0
3	303588	26.41	0
3	304797	26.51	0
3	306006	26.61	0
3	307155	26.71	0
3	308364	26.81	0
3	309573	26.91	0
3	310794	27.01	0
3	312003	27.11	0
3	313212	27.21	0
3	314421	27.31	0
3	315630	27.41	0
3	316839	27.51	0
3	318048	27.61	0
3	319257	27.71	0
3	320466	27.81	0
3	321675	27.91	0
3	322896	28.01	0
3	324105	28.11	0
3	325314	28.21	0
3	326523	28.31	0
3	327732	28.41	0
3	328941	28.51	0
3	330150	28.61	0
3	331359	28.71	0
3	332568	28.81	0
3	333777	28.91	0
3	334938	29.01	0
3	336087	29.11	0
3	337296	29.21	0
3	338638	29.31	0
3	339846	29.41	0
3	341054	29.51	0
3	342262	29.61	0
3	343470	29.71	0
3	344618	29.81	0
3	345826	29.91	0
3	347046	30.01	0
3	348254	30.11	0
3	349402	30.21	0
3	350610	30.31	0
3	351818	30.41	0
3	353026	30.51	0
3	354234	30.61	0
3	355442	30.71	0
3	356650	30.81	0
3	357858	30.91	0
3	359078	31.01	0
3	360226	31.11	0
3	361434	31.21	0
3	362582	31.31	0
3	363790	31.41	0
3	364998	31.51	0
3	366206	31.61	0
3	367414	31.71	0
3	368622	31.81	0
3	369830	31.91	0
3	371050	32.01	0
3	372258	32.11	0
3	373466	32.21	0
3	374614	32.31	0
3	375822	32.41	0
3	377030	32.51	0
3	378238	32.61	0
3	379446	32.71	0
3	380654	32.81	0
3	381862	32.91	0
3	383082	33.01	0
3	384290	33.11	0
3	385498	33.21	0
3	386646	33.31	0
3	387854	33.41	0
3	389195	33.51	0
3	390402	33.61	0
3	391609	33.71	0
3	392816	33.81	0
3	394023	33.91	0
3	395242	34.01	0
3	396449	34.11	0
3	397656	34.21	0
3	398863	34.31	0
3	400070	34.41	0
3	401277	34.51	0
3	402484	34.61	0
3	403631	34.71	0
3	404838	34.81	0
3	406045	34.91	0
3	407264	35.01	0
3	408471	35.11	0
3	409618	35.21	0
3	410765	35.31	0
3	411912	35.41	0
3	413119	35.51	0
3	414326	35.61	0
3	415533	35.71	0
3	416740	35.81	0
3	417947	35.91	0
3	419166	36.01	0
3	420373	36.11	0
3	421580	36.21	0
3	422787	36.31	0
3	423994	36.41	0
3	425141	36.51	0
3	426288	36.61	0
3	427495	36.71	0
3	428702	36.81	0
3	429909	36.91	0
3	431128	37.01	0
3	432335	37.11	0
3	433542	37.21	0
3	434749	37.31	0
3	435956	37.41	0
3	437236	37.51	0
3	438442	37.61	0
3	439648	37.71	0
3	440794	37.81	0
3	442000	37.91	0
3	443218	38.01	0
3	444424	38.11	0
3	445630	38.21	0
3	446836	38.31	0
3	447982	38.41	0
3	449188	38.51	0
3	450394	38.61	0
3	451600	38.71	0
3	452746	38.81	0
3	453952	38.91	0
3	455170	39.01	0
3	456376	39.11	0
3	457582	39.21	0
3	458788	39.31	0
3	459994	39.41	0
3	461200	39.51	0
3	462346	39.61	0
3	463552	39.71	0
3	464758	39.81	0
3	465964	39.91	0
3	467182	40.01	0
3	468388	40.11	0
3	469594	40.21	0
3	470800	40.31	0
3	472006	40.41	0
3	473212	40.51	0
3	474418	40.61	0
3	475624	40.71	0
3	476830	40.81	0
3	478036	40.91	0
3	479194	41.01	0
3	480400	41.11	0
3	481606	41.21	0
3	482945	41.31	0
3	484150	41.41	0
3	485295	41.51	0
3	486440	41.61	0
3	487645	41.71	0
3	488790	41.81	0
3	489995	41.91	0
3	491212	42.01	0
3	492357	42.11	0
3	493562	42.21	0
3	494707	42.31	0
3	495912	42.41	0
3	497117	42.51	0
3	498322	42.61	0
3	499527	42.71	0
3	500732	42.81	0
3	501877	42.91	0
3	503034	43.01	0
3	504239	43.11	0
3	505444	43.21	0
3	506649	43.31	0
3	507854	43.41	0
3	508999	43.51	0
3	510204	43.61	0
3	511409	43.71	0
3	512614	43.81	0
3	513819	43.91	0
3	515036	44.01	0
3	516241	44.11	0
3	517446	44.21	0
3	518651	44.31	0
3	519856	44.41	0
3	521001	44.51	0
3	522206	44.61	0
3	523411	44.71	0
3	524616	44.81	0
3	525821	44.91	0
3	527171	45.01	0
3	528375	45.11	0
3	529579	45.21	0
3	530783	45.31	0
3	531987	45.41	0
3	533191	45.51	0
3	534395	45.61	0
3	535599	45.71	0
3	536803	45.81	0
3	538007	45.91	0
3	539163	46.01	0
3	540367	46.11	0
3	541571	46.21	0
3	542775	46.31	0
3	543979	46.41	0
3	545183	46.51	0
3	546387	46.61	0
3	547591	46.71	0
3	548795	46.81	0
3	549999	46.91	0
3	551215	47.01	0
3	552419	47.11	0
3	553563	47.21	0
3	554767	47.31	0
3	555971	47.41	0
3	557175	47.51	0
3	558319	47.61	0
3	559523	47.71	0
3	560727	47.81	0
3	561931	47.91	0
3	563147	48.01	0
3	564351	48.11	0
3	565555	48.21	0
3	566759	48.31	0
3	567963	48.41	0
3	569167	48.51	0
3	570504	48.61	0
3	571707	48.71	0
3	572910	48.81	0
3	574113	48.91	0
3	575328	49.01	0
3	576531	49.11	0
3	577734	49.21	0
3	578937	49.31	0
3	580140	49.41	0
3	581343	49.51	0
3	582546	49.61	0
3	583749	49.71	0
3	584952	49.81	0
3	586155	49.91	0
3	587370	50.01	0
3	588573	50.11	0
3	589776	50.21	0
3	590979	50.31	0
3	592122	50.41	0
3	593325	50.51	0
3	594528	50.61	0
3	595731	50.71	0
3	596934	50.81	0
3	598137	50.91	0
3	599352	51.01	0
3	600495	51.11	0
3	601698	51.21	0
3	602901	51.31	0
3	604104	51.41	0
3	605307	51.51	0
3	606450	51.61	0
3	607653	51.71	0
3	608796	51.81	0
3	609999	51.91	0
3	611214	52.01	0
3	612550	52.11	0
3	613752	52.21	0
3	614954	52.31	0
3	616156	52.41	0
3	617358	52.51	0
3	618560	52.61	0
3	619762	52.71	0
3	620964	52.81	0
3	622166	52.91	0
3	623380	53.01	0
3	624582	53.11	0
3	625784	53.21	0
3	626986	53.31	0
3	628128	53.41	0
3	629330	53.51	0
3	630532	53.61	0
3	631734	53.71	0
3	632936	53.81	0
3	634138	53.91	0
3	635352	54.01	0
3	636554	54.11	0
3	637756	54.21	0
3	638958	54.31	0
3	640160	54.41	0
3	641302	54.51	0
3	642504	54.61	0
3	643706	54.71	0
3	644848	54.81	0
3	646050	54.91	0
3	647264	55.01	0
3	648466	55.11	0
3	649608	55.21	0
3	650810	55.31	0
3	652012	55.41	0
3	653214	55.51	0
3	654549	55.61	0
3	655690	55.71	0
3	656891	55.81	0
3	658032	55.91	0
3	659245	56.01	0
3	660446	56.11	0
3	661647	56.21	0
3	662848	56.31	0
3	664049	56.41	0
3	665250	56.51	0
3	666391	56.61	0
3	667592	56.71	0
3	668793	56.81	0
3	669994	56.91	0
3	671207	57.01	0
3	672408	57.11	0
3	673609	57.21	0
3	674810	57.31	0
3	676011	57.41	0
3	677212	57.51	0
3	678413	57.61	0
3	679614	57.71	0
3	680815	57.81	0
3	682016	57.91	0
3	683229	58.01	0
3	684430	58.11	0
3	685631	58.21	0
3	686832	58.31	0
3	688033	58.41	0
3	689234	58.51	0
3	690435	58.61	0
3	691576	58.71	0
3	692777	58.81	0
3	693978	58.91	0
3	695324	59.01	0
3	696524	59.11	0
3	697724	59.21	0
3	698924	59.31	0
3	700124	59.41	0
3	701324	59.51	0
3	702524	59.61	0
3	703724	59.71	0
3	704924	59.81	0
3	706064	59.91	0
3	707276	60.01	0
3	708476	60.11	0
3	709676	60.21	0
3	710876	60.31	0
3	712076	60.41	0
3	713216	60.51	0
3	714416	60.61	0
3	715616	60.71	0
3	716756	60.81	0
3	717896	60.91	0
3	719108	61.01	0
3	720308	61.11	0
3	721508	61.21	0
3	722708	61.31	0
3	723908	61.41	0
3	725108	61.51	0
3	726308	61.61	0
3	727508	61.71	0
3	728708	61.81	0
3	729908	61.91	0
3	731060	62.01	0
3	732260	62.11	0
3	733460	62.21	0
3	734600	62.31	0
3	735933	62.41	0
3	737072	62.51	0
3	738271	62.61	0
3	739470	62.71	0
3	740609	62.81	0
3	741808	62.91	0
3	743019	63.01	0
3	744218	63.11	0
3	745417	63.21	0
3	746616	63.31	0
3	747815	63.41	0
3	749014	63.51	0
3	750213	63.61	0
3	751412	63.71	0
3	752611	63.81	0
3	753810	63.91	0
3	754961	64.01	0
3	756160	64.11	0
3	757359	64.21	0
3	758558	64.31	0
3	759757	64.41	0
3	760956	64.51	0
3	762155	64.61	0
3	763354	64.71	0
3	764493	64.81	0
3	765692	64.91	0
3	766903	65.01	0
3	768102	65.11	0
3	769301	65.21	0
3	770500	65.31	0
3	771639	65.41	0
3	772838	65.51	0
3	774037	65.61	0
3	776832	65.71	0
3	778030	65.81	0
3	779228	65.91	0
3	780438	66.01	0
3	781636	66.11	0
3	782834	66.21	0
3	784032	66.31	0
3	785173	66.41	0
3	786371	66.51	0
3	787569	66.61	0
3	788767	66.71	0
3	789965	66.81	0
3	791106	66.91	0
3	792316	67.01	0
3	793514	67.11	0
3	794712	67.21	0
3	795910	67.31	0
3	797108	67.41	0
3	798306	67.51	0
3	799504	67.61	0
3	800702	67.71	0
3	801900	67.81	0
3	803098	67.91	0
3	804308	68.01	0
3	805506	68.11	0
3	806704	68.21	0
3	807902	68.31	0
3	809100	68.41	0
3	810298	68.51	0
3	811496	68.61	0
3	812694	68.71	0
3	813892	68.81	0
3	815090	68.91	0
3	816240	69.01	0
3	817378	69.11	0
3	818576	69.21	0
3	819774	69.31	0
3	820972	69.41	0
3	822170	69.51	0
3	823368	69.61	0
3	824506	69.71	0
3	825704	69.81	0
3	826902	69.91	0
3	828112	70.01	0
3	829310	70.11	0
3	830508	70.21	0
3	831643	70.31	0
3	832841	70.41	0
3	833976	70.51	0
3	835174	70.61	0
3	836372	70.71	0
3	837570	70.81	0
3	838702	70.91	0
3	839912	71.01	0
3	841110	71.11	0
3	842245	71.21	0
3	843380	71.31	0
3	844515	71.41	0
3	845650	71.51	0
3	846848	71.61	0
3	847983	71.71	0
3	849181	71.81	0
3	850379	71.91	0
3	851589	72.01	0
3	852787	72.11	0
3	853985	72.21	0
3	855183	72.31	0
3	856381	72.41	0
3	857579	72.51	0
3	858777	72.61	0
3	859975	72.71	0
3	861173	72.81	0
[...]
165	1077598	91	0.03713665144
165	1089428	92	0.036513387648
165	1101252	93	0.036513035661
165	1113187	94	0.037135053494
165	1125065	95	0.036829754933
165	1137000	96	0.03713372675
165	1148884	97	0.036828382912
165	1160876	98	0.037450538212
165	1172814	99	0.0371448831
165	1184752	100	0.037131533132
166	10538	2	0
166	22410	3	0
166	34282	4	0
166	46094	5	0
166	57972	6	0
166	69904	7	0
166	81668	8	0
166	93603	9	0
166	105539	10	0
166	117682	11	0
166	129664	12	0
166	141646	13	0
166	153628	14	0
166	165670	15	0
166	177592	16	0
166	189634	17	0
166	201676	18	0
166	213778	19	0
166	225820	20	0
166	237922	21	0
166	250024	22	0
166	262126	23	0
166	274228	24	0
166	286270	25	0
166	298372	26	0
166	310414	27	0
166	322516	28	0
166	334618	29	0
166	346667	30	0
166	358699	31	0
166	370671	32	0
166	382703	33	0
166	394864	34	0
166	406886	35	0
166	418788	36	0
166	430750	37	0
166	442841	38	0
166	454793	39	0
166	466805	40	0
166	478877	41	0
166	490836	42	0
166	502718	43	0
166	514660	44	0
166	526662	45	0
166	538848	46	0
166	550840	47	0
166	562772	48	0
166	574954	49	0
166	586996	50	0
166	598978	51	0
166	610840	52	0
166	623007	53	0
166	634979	54	0
166	646891	55	0
166	658873	56	0
166	670835	57	0
166	682857	58	0
166	694819	59	0
166	706905	60	0
166	718737	61	0
166	730749	62	0
166	742649	63	0
166	754651	64	0
166	766533	65	0
166	780069	66	0
166	791947	67	0
166	803939	68	0
166	815931	69	0
166	827743	70	0
166	839543	71	0
166	851220	72	0
166	863212	73	0
166	875057	74	0
166	886830	75	0
166	898603	76	0
166	910517	77	0
166	922431	78	0
166	934348	79	0
166	946265	80	0
166	958179	81	0
166	970171	82	0
166	982016	83	0
166	993939	84	0
166	1005931	85	0
166	1017923	86	0
166	1029915	87	0
166	1041850	88	0
166	1053668	89	0
166	1065660	90	0
166	1077598	91	0
166	1089428	92	0
166	1101252	93	0
166	1113187	94	0
166	1125065	95	0
166	1137000	96	0
166	1148884	97	0
166	1160876	98	0
166	1172814	99	0
166	1184752	100	0
167	10539	2	7
167	22411	3	7
167	34283	4	7
167	46095	5	7
167	57973	6	7
167	69905	7	7
167	81669	8	7
167	93604	9	7
167	105540	10	7
167	117683	11	7
167	129665	12	7
167	141647	13	7
167	153629	14	7
167	165671	15	7
167	177593	16	7
167	189635	17	7
167	201677	18	7
167	213779	19	7
167	225821	20	7
167	237923	21	7
167	250025	22	7
167	262127	23	7
167	274229	24	7
167	286271	25	7
167	298373	26	7
167	310415	27	7
167	322517	28	7
167	334619	29	7
167	346668	30	7
167	358700	31	7
167	370672	32	7
167	382704	33	7
167	394865	34	7
167	406887	35	7
167	418789	36	7
167	430751	37	7
167	442842	38	7
167	454794	39	7
167	466806	40	7
167	478878	41	7
167	490837	42	7
167	502719	43	7
167	514661	44	7
167	526663	45	7
167	538849	46	7
167	550841	47	7
167	562773	48	7
167	574955	49	7
167	586997	50	7
167	598979	51	7
167	610841	52	7
167	623008	53	7
167	634980	54	7
167	646892	55	7
167	658874	56	7
167	670836	57	7
167	682858	58	7
167	694820	59	7
167	706906	60	7
167	718738	61	7
167	730750	62	7
167	742650	63	7
167	754652	64	7
167	766534	65	7
167	780070	66	7
167	791948	67	7
167	803940	68	7
167	815932	69	7
167	827744	70	7
167	839544	71	7
167	851221	72	7
167	863213	73	7
167	875058	74	7
167	886831	75	7
167	898604	76	7
167	910518	77	7
167	922432	78	7
167	934349	79	7
167	946266	80	7
167	958180	81	7
167	970172	82	7
167	982017	83	7
167	993940	84	7
167	1005932	85	7
167	1017924	86	7
167	1029916	87	7
167	1041851	88	7
167	1053669	89	7
167	1065661	90	7
167	1077599	91	7
167	1089429	92	7
167	1101253	93	7
167	1113188	94	7
167	1125066	95	7
167	1137001	96	7
167	1148885	97	7
167	1160877	98	7
167	1172815	99	7
167	1184753	100	7
168	10539	2	0.032570174585
168	22411	3	0.036837394119
168	34283	4	0.03682451426
168	46095	5	0.036506674406
168	57973	6	0.036824394254
168	69905	7	0.037142354248
168	81669	8	0.036201834592
168	93604	9	0.037142354292
168	105540	10	0.037129354306
168	117683	11	0.037186993731
168	129665	12	0.03683726962
168	141647	13	0.036824378149
168	153629	14	0.036824359231
168	165671	15	0.037142052983
168	177593	16	0.036506464118
168	189635	17	0.03714198557
168	201677	18	0.037129065337
168	213779	19	0.037459980123
168	225821	20	0.037128976542
168	237923	21	0.037459885426
168	250025	22	0.037446713933
168	262127	23	0.037446663269
168	274229	24	0.037446734814
168	286271	25	0.037141729797
168	298373	26	0.037446510162
168	310415	27	0.037141755994
168	322517	28	0.037446286625
168	334619	29	0.037459238527
168	346668	30	0.036622444908
168	358700	31	0.037141574402
168	370672	32	0.036823708276
168	382704	33	0.037141364747
168	394865	34	0.037244925563
168	406887	35	0.037141418952
168	418789	36	0.036505741359
168	430751	37	0.036836530927
168	442842	38	0.036939963509
168	454794	39	0.036823471797
168	466806	40	0.037141263487
168	478878	41	0.037446055783
168	490837	42	0.036317216103
168	502719	43	0.036505555176
168	514661	44	0.036836082431
168	526663	45	0.037128148798
168	538849	46	0.037562398565
168	550841	47	0.037140705839
168	562773	48	0.036823144891
168	574955	49	0.037562345936
168	586997	50	0.037458883108
168	598979	51	0.037128054882
168	610841	52	0.036518413132
168	623008	53	0.037595343349
168	634980	54	0.037140746512
168	646892	55	0.036823198044
168	658874	56	0.036621819744
168	670836	57	0.037140857629
168	682858	58	0.037458525919
168	694820	59	0.037127981913
168	706906	60	0.037257557472
168	718738	61	0.036505342441
168	730750	62	0.037458778734
168	742650	63	0.036317100116
168	754652	64	0.03744549129
168	766534	65	0.036822999081
168	780070	66	0.038521487794
168	791948	67	0.036822864492
168	803940	68	0.037445276864
168	815932	69	0.037458437994
168	827744	70	0.036504395209
168	839544	71	0.036516063284
168	851221	72	0.03589172524
168	863213	73	0.037454165547
168	875058	74	0.036817046619
168	886831	75	0.036524042366
168	898604	76	0.036510185644
168	910518	77	0.037132384964
168	922432	78	0.037144667166
168	934349	79	0.037130926771
168	946266	80	0.037143201884
168	958180	81	0.037142467797
168	970172	82	0.037446706812
168	982017	83	0.036823023489
168	993940	84	0.037140314788
168	1005932	85	0.037444697248
168	1017924	86	0.037457139147
168	1029916	87	0.037443429934
168	1041851	88	0.037137956061
168	1053669	89	0.036515031847
168	1065661	90	0.037454992122
168	1077599	91	0.037136771799
168	1089429	92	0.036513739845
168	1101253	93	0.036513429605
168	1113188	94	0.037135206918
168	1125066	95	0.036830073503
168	1137001	96	0.037133905004
168	1148885	97	0.036828738656
168	1160877	98	0.037450556942
168	1172815	99	0.037145090392
168	1184753	100	0.037131750472
169	10539	2	0
169	22411	3	0
169	34283	4	0
169	46095	5	0
169	57973	6	0
169	69905	7	0
169	81669	8	0
169	93604	9	0
169	105540	10	0
169	117683	11	0
169	129665	12	0
169	141647	13	0
169	153629	14	0
169	165671	15	0
169	177593	16	0
169	189635	17	0
169	201677	18	0
169	213779	19	0
169	225821	20	0
169	237923	21	0
169	250025	22	0
169	262127	23	0
169	274229	24	0
169	286271	25	0
169	298373	26	0
169	310415	27	0
169	322517	28	0
169	334619	29	0
169	346668	30	0
169	358700	31	0
169	370672	32	0
169	382704	33	0
169	394865	34	0
169	406887	35	0
169	418789	36	0
169	430751	37	0
169	442842	38	0
169	454794	39	0
169	466806	40	0
169	478878	41	0
169	490837	42	0
169	502719	43	0
169	514661	44	0
169	526663	45	0
169	538849	46	0
169	550841	47	0
169	562773	48	0
169	574955	49	0
169	586997	50	0
169	598979	51	0
169	610841	52	0
169	623008	53	0
169	634980	54	0
169	646892	55	0
169	658874	56	0
169	670836	57	0
169	682858	58	0
169	694820	59	0
169	706906	60	0
169	718738	61	0
169	730750	62	0
169	742650	63	0
169	754652	64	0
169	766534	65	0
169	780070	66	0
169	791948	67	0
169	803940	68	0
169	815932	69	0
169	827744	70	0
169	839544	71	0
169	851221	72	0
169	863213	73	0
169	875058	74	0
169	886831	75	0
169	898604	76	0
169	910518	77	0
169	922432	78	0
169	934349	79	0
169	946266	80	0
169	958180	81	0
169	970172	82	0
169	982017	83	0
169	993940	84	0
169	1005932	85	0
169	1017924	86	0
169	1029916	87	0
169	1041851	88	0
169	1053669	89	0
169	1065661	90	0
169	1077599	91	0
169	1089429	92	0
169	1101253	93	0
169	1113188	94	0
169	1125066	95	0
169	1137001	96	0
169	1148885	97	0
169	1160877	98	0
169	1172815	99	0
169	1184753	100	0
170	10540	2	8
170	22412	3	8
170	34284	4	8
170	46096	5	8
170	57974	6	8
170	69906	7	8
170	81670	8	8
170	93605	9	8
170	105541	10	8
170	117684	11	8
170	129666	12	8
170	141648	13	8
170	153630	14	8
170	165672	15	8
170	177594	16	8
170	189636	17	8
170	201678	18	8
170	213780	19	8
170	225822	20	8
170	237924	21	8
170	250026	22	8
170	262128	23	8
170	274230	24	8
170	286272	25	8
170	298374	26	8
170	310416	27	8
170	322518	28	8
170	334620	29	8
170	346669	30	8
170	358701	31	8
170	370673	32	8
170	382705	33	8
170	394866	34	8
170	406888	35	8
170	418790	36	8
170	430752	37	8
170	442843	38	8
170	454795	39	8
170	466807	40	8
170	478879	41	8
170	490838	42	8
170	502720	43	8
170	514662	44	8
170	526664	45	8
170	538850	46	8
170	550842	47	8
170	562774	48	8
170	574956	49	8
170	586998	50	8
170	598980	51	8
170	610842	52	8
170	623009	53	8
170	634981	54	8
170	646893	55	8
170	658875	56	8
170	670837	57	8
170	682859	58	8
170	694821	59	8
170	706907	60	8
170	718739	61	8
170	730751	62	8
170	742651	63	8
170	754653	64	8
170	766535	65	8
170	780071	66	8
170	791949	67	8
170	803941	68	8
170	815933	69	8
170	827745	70	8
170	839545	71	8
170	851222	72	8
170	863214	73	8
170	875059	74	8
170	886832	75	8
170	898605	76	8
170	910519	77	8
170	922433	78	8
170	934350	79	8
170	946267	80	8
170	958181	81	8
170	970173	82	8
170	982018	83	8
170	993941	84	8
170	1005933	85	8
170	1017925	86	8
170	1029917	87	8
170	1041852	88	8
170	1053670	89	8
170	1065662	90	8
170	1077600	91	8
170	1089430	92	8
170	1101254	93	8
170	1113189	94	8
170	1125067	95	8
170	1137002	96	8
170	1148886	97	8
170	1160878	98	8
170	1172816	99	8
170	1184754	100	8
171	10540	2	0.032570194598
171	22412	3	0.036837474175
171	34284	4	0.036824594316
171	46096	5	0.03650679449
171	57974	6	0.03682447431
171	69906	7	0.037142394276
171	81670	8	0.036201994705
171	93605	9	0.03714239432
171	105541	10	0.037129394334
171	117684	11	0.037187033757
171	129666	12	0.036837349671
171	141648	13	0.036824458211
171	153630	14	0.03682443931
171	165672	15	0.037142093049
171	177594	16	0.03650658438
171	189636	17	0.037142025739
171	201678	18	0.037129105526
171	213780	19	0.037459980164
171	225822	20	0.037129016937
171	237924	21	0.037459885485
171	250026	22	0.037446714001
171	262128	23	0.037446663345
171	274230	24	0.037446734897
171	286272	25	0.037141770938
171	298374	26	0.037446510258
171	310416	27	0.037141797588
171	322518	28	0.037446286729
171	334620	29	0.037459238635
171	346669	30	0.036622571154
171	358701	31	0.037141616755
171	370673	32	0.036823793315
171	382705	33	0.037141407563
171	394866	34	0.037244968596
171	406888	35	0.037141462285
171	418790	36	0.036505871521
171	430752	37	0.036836618243
171	442843	38	0.036940051256
171	454795	39	0.036823559902
171	466807	40	0.037141307766
171	478879	41	0.037446055869
171	490838	42	0.036317394218
171	502720	43	0.036505689237
171	514662	44	0.036836172074
171	526664	45	0.037128193831
171	538850	46	0.03756239863
171	550842	47	0.037140751061
171	562774	48	0.036823235603
171	574956	49	0.03756234599
171	586998	50	0.037458883156
171	598980	51	0.037128100567
171	610842	52	0.036518550382
171	623009	53	0.037562018288
171	634981	54	0.037140792435
171	646893	55	0.036823290026
171	658875	56	0.036655329584
171	670837	57	0.037140903752
171	682859	58	0.037458525945
171	694821	59	0.037128028141
171	706907	60	0.037257603749
171	718739	61	0.036505481336
171	730751	62	0.037458778752
171	742651	63	0.036317285542
171	754653	64	0.037445491305
171	766535	65	0.036823091924
171	780071	66	0.038521535148
171	791949	67	0.03682295314
171	803941	68	0.037445280335
171	815933	69	0.037458452931
171	827745	70	0.036504698743
171	839545	71	0.036516437929
171	851222	72	0.03589239381
171	863214	73	0.037454148402
171	875059	74	0.036817215978
171	886832	75	0.036524245717
171	898605	76	0.036510307113
171	910519	77	0.037132375293
171	922433	78	0.037144653355
171	934350	79	0.037130958504
171	946267	80	0.037143191711
171	958181	81	0.037142455005
171	970173	82	0.037446694714
171	982018	83	0.036823000951
171	993941	84	0.037140299249
171	1005933	85	0.037444690637
171	1017925	86	0.037457133335
171	1029917	87	0.037443423755
171	1041852	88	0.037137904564
171	1053670	89	0.036514818698
171	1065662	90	0.037454984786
171	1077600	91	0.037136661255
171	1089430	92	0.036513397502
171	1101254	93	0.036513045542
171	1113189	94	0.037135063396
171	1125067	95	0.036829764851
171	1137002	96	0.037133736681
171	1148886	97	0.036828392853
171	1160878	98	0.037450548162
171	1172816	99	0.037144893056
171	1184754	100	0.037131543095
172	10540	2	0
172	22412	3	0
172	34284	4	0
172	46096	5	0
172	57974	6	0
172	69906	7	0
172	81670	8	0
172	93605	9	0
172	105541	10	0
172	117684	11	0
172	129666	12	0
172	141648	13	0
172	153630	14	0
172	165672	15	0
172	177594	16	0
172	189636	17	0
172	201678	18	0
172	213780	19	0
172	225822	20	0
172	237924	21	0
172	250026	22	0
172	262128	23	0
172	274230	24	0
172	286272	25	0
172	298374	26	0
172	310416	27	0
172	322518	28	0
172	334620	29	0
172	346669	30	0
172	358701	31	0
172	370673	32	0
172	382705	33	0
172	394866	34	0
172	406888	35	0
172	418790	36	0
172	430752	37	0
172	442843	38	0
172	454795	39	0
172	466807	40	0
172	478879	41	0
172	490838	42	0
172	502720	43	0
172	514662	44	0
172	526664	45	0
172	538850	46	0
172	550842	47	0
172	562774	48	0
172	574956	49	0
172	586998	50	0
172	598980	51	0
172	610842	52	0
172	623009	53	0
172	634981	54	0
172	646893	55	0
172	658875	56	0
172	670837	57	0
172	682859	58	0
172	694821	59	0
172	706907	60	0
172	718739	61	0
172	730751	62	0
172	742651	63	0
172	754653	64	0
172	766535	65	0
172	780071	66	0
172	791949	67	0
172	803941	68	0
172	815933	69	0
172	827745	70	0
172	839545	71	0
172	851222	72	0
172	863214	73	0
172	875059	74	0
172	886832	75	0
172	898605	76	0
172	910519	77	0
172	922433	78	0
172	934350	79	0
172	946267	80	0
172	958181	81	0
172	970173	82	0
172	982018	83	0
172	993941	84	0
172	1005933	85	0
172	1017925	86	0
172	1029917	87	0
172	1041852	88	0
172	1053670	89	0
172	1065662	90	0
172	1077600	91	0
172	1089430	92	0
172	1101254	93	0
172	1113189	94	0
172	1125067	95	0
172	1137002	96	0
172	1148886	97	0
172	1160878	98	0
172	1172816	99	0
172	1184754	100	0
173	10541	2	9
173	22413	3	9
173	34285	4	9
173	46097	5	9
173	57975	6	9
173	69907	7	9
173	81671	8	9
173	93606	9	9
173	105542	10	9
173	117685	11	9
173	129667	12	9
173	141649	13	9
173	153631	14	9
173	165673	15	9
173	177595	16	9
173	189637	17	9
173	201679	18	9
173	213781	19	9
173	225823	20	9
173	237925	21	9
173	250027	22	9
173	262129	23	9
173	274231	24	9
173	286273	25	9
173	298375	26	9
173	310417	27	9
173	322519	28	9
173	334621	29	9
173	346670	30	9
173	358702	31	9
173	370674	32	9
173	382706	33	9
173	394867	34	9
173	406889	35	9
173	418791	36	9
173	430753	37	9
173	442844	38	9
173	454796	39	9
173	466808	40	9
173	478880	41	9
173	490839	42	9
173	502721	43	9
173	514663	44	9
173	526665	45	9
173	538851	46	9
173	550843	47	9
173	562775	48	9
173	574957	49	9
173	586999	50	9
173	598981	51	9
173	610843	52	9
173	623010	53	9
173	634982	54	9
173	646894	55	9
173	658876	56	9
173	670838	57	9
173	682860	58	9
173	694822	59	9
173	706908	60	9
173	718740	61	9
173	730752	62	9
173	742652	63	9
173	754654	64	9
173	766536	65	9
173	780072	66	9
173	791950	67	9
173	803942	68	9
173	815934	69	9
173	827746	70	9
173	839546	71	9
173	851223	72	9
173	863215	73	9
173	875060	74	9
173	886833	75	9
173	898606	76	9
173	910520	77	9
173	922434	78	9
173	934351	79	9
173	946268	80	9
173	958182	81	9
173	970174	82	9
173	982019	83	9
173	993942	84	9
173	1005934	85	9
173	1017926	86	9
173	1029918	87	9
173	1041853	88	9
173	1053671	89	9
173	1065663	90	9
173	1077601	91	9
173	1089431	92	9
173	1101255	93	9
173	1113190	94	9
173	1125068	95	9
173	1137003	96	9
173	1148887	97	9
173	1160879	98	9
173	1172817	99	9
173	1184755	100	9
174	10541	2	0.032569214612
174	22413	3	0.036837554229
174	34285	4	0.036824674371
174	46097	5	0.036506914573
174	57975	6	0.036824554362
174	69907	7	0.037142434302
174	81671	8	0.036202154812
174	93606	9	0.037142434348
174	105542	10	0.037129434362
174	117685	11	0.037187073783
174	129667	12	0.036837429711
174	141649	13	0.036824538251
174	153631	14	0.036824519361
174	165673	15	0.03714213309
174	177595	16	0.036506704546
174	189637	17	0.037142065849
174	201679	18	0.037129145652
174	213781	19	0.037459980193
174	225823	20	0.037129057207
174	237925	21	0.037459885529
174	250027	22	0.037446714052
174	262129	23	0.037446663404
174	274231	24	0.037446734964
174	286273	25	0.037141811788
174	298375	26	0.037446510338
174	310417	27	0.037141838816
174	322519	28	0.037446286821
174	334621	29	0.037459238728
174	346670	30	0.036622696123
174	358702	31	0.037141658657
174	370674	32	0.036823877423
174	382706	33	0.037141449896
174	394867	34	0.037245011137
174	406889	35	0.037141505117
174	418791	36	0.036506000177
174	430753	37	0.036836704559
174	442844	38	0.03694013801
174	454796	39	0.036823647024
174	466808	40	0.037141351563
174	478880	41	0.03744605596
174	490839	42	0.03631757048
174	502721	43	0.036505821947
174	514663	44	0.036836260844
174	526665	45	0.037128238451
174	538851	46	0.037562398702
174	550843	47	0.037140795896
174	562775	48	0.036823325583
174	574957	49	0.037562346051
174	586999	50	0.037458883215
174	598981	51	0.037128145942
174	610843	52	0.03651868674
174	623010	53	0.037562018336
174	634982	54	0.037140838097
174	646894	55	0.036823381523
174	658876	56	0.036622095324
174	670838	57	0.037140949665
174	682860	58	0.037458525979
174	694822	59	0.037128074186
174	706908	60	0.037291068169
174	718740	61	0.036505619751
174	730752	62	0.037458778776
174	742652	63	0.036317470404
174	754654	64	0.037445491326
174	766536	65	0.036823184529
174	780072	66	0.038521581512
174	791950	67	0.036823042679
174	803942	68	0.037445284661
174	815934	69	0.037458451336
174	827746	70	0.036504808568
174	839546	71	0.036516453883
174	851223	72	0.035892330782
174	863215	73	0.037454169538
174	875060	74	0.03681723259
174	886833	75	0.036524257565
174	898606	76	0.036510316039
174	910520	77	0.037132387063
174	922434	78	0.037144663208
174	934351	79	0.037130970692
174	946268	80	0.037143258354
174	958182	81	0.037142547084
174	970174	82	0.037446702542
174	982019	83	0.036823285372
174	993942	84	0.037140463528
174	1005934	85	0.037444694368
174	1017926	86	0.037457136749
174	1029918	87	0.037443427979
174	1041853	88	0.037138027909
174	1053671	89	0.03651509928
174	1065663	90	0.037454991273
174	1077601	91	0.037136723758
174	1089431	92	0.036513546151
174	1101255	93	0.036513155114
174	1113190	94	0.037135096341
174	1125068	95	0.036829797302
174	1137003	96	0.037133749263
174	1148887	97	0.036828406307
174	1160879	98	0.037450556157
174	1172817	99	0.03714491731
174	1184755	100	0.037131573019
175	10541	2	0
175	22413	3	0
175	34285	4	0
175	46097	5	0
175	57975	6	0
175	69907	7	0
175	81671	8	0
175	93606	9	0
175	105542	10	0
175	117685	11	0
175	129667	12	0
175	141649	13	0
175	153631	14	0
175	165673	15	0
175	177595	16	0
175	189637	17	0
175	201679	18	0
175	213781	19	0
175	225823	20	0
175	237925	21	0
175	250027	22	0
175	262129	23	0
175	274231	24	0
175	286273	25	0
175	298375	26	0
175	310417	27	0
175	322519	28	0
175	334621	29	0
175	346670	30	0
175	358702	31	0
175	370674	32	0
175	382706	33	0
175	394867	34	0
175	406889	35	0
175	418791	36	0
175	430753	37	0
175	442844	38	0
175	454796	39	0
175	466808	40	0
175	478880	41	0
175	490839	42	0
175	502721	43	0
175	514663	44	0
175	526665	45	0
175	538851	46	0
175	550843	47	0
175	562775	48	0
175	574957	49	0
175	586999	50	0
175	598981	51	0
175	610843	52	0
175	623010	53	0
175	634982	54	0
175	646894	55	0
175	658876	56	0
175	670838	57	0
175	682860	58	0
175	694822	59	0
175	706908	60	0
175	718740	61	0
175	730752	62	0
175	742652	63	0
175	754654	64	0
175	766536	65	0
175	780072	66	0
175	791950	67	0
175	803942	68	0
175	815934	69	0
175	827746	70	0
175	839546	71	0
175	851223	72	0
175	863215	73	0
175	875060	74	0
175	886833	75	0
175	898606	76	0
175	910520	77	0
175	922434	78	0
175	934351	79	0
175	946268	80	0
175	958182	81	0
175	970174	82	0
175	982019	83	0
175	993942	84	0
175	1005934	85	0
175	1017926	86	0
175	1029918	87	0
175	1041853	88	0
175	1053671	89	0
175	1065663	90	0
175	1077601	91	0
175	1089431	92	0
175	1101255	93	0
175	1113190	94	0
175	1125068	95	0
175	1137003	96	0
175	1148887	97	0
175	1160879	98	0
175	1172817	99	0
175	1184755	100	0

