file 2386399 1720470525                                         
version 3
run BreakRanksNoGui-27-20240708-22:28:31-165749
attr configname BreakRanksNoGui
attr datetime 20240708-22:28:31
attr datetimef 20240708-222831
attr experiment BreakRanksNoGui
attr inifile omnetpp.ini
attr iterationvars "$nCars=8, $platoonSize=8, $nLanes=1, $ploegH=0.5, $controller=1, $headway=0.1, $leaderHeadway=1.2, $leaderSpeed=150, $breakRanksSafetyDistance=2, $minSpeed=140, $maxSpeed=160, $beaconInterval=0.1, $priority=4, $packetSize=200, $sController=\"CACC\", $0=2, $1=0"
attr iterationvarsd nCars=8/platoonSize=8/nLanes=1/ploegH=0.5/controller=1/headway=0.1/leaderHeadway=1.2/leaderSpeed=150/breakRanksSafetyDistance=2/minSpeed=140/maxSpeed=160/beaconInterval=0.1/priority=4/packetSize=200/sController=CACC/2/0
attr iterationvarsf nCars=8,platoonSize=8,nLanes=1,ploegH=0.5,controller=1,headway=0.1,leaderHeadway=1.2,leaderSpeed=150,breakRanksSafetyDistance=2,minSpeed=140,maxSpeed=160,beaconInterval=0.1,priority=4,packetSize=200,sController=CACC,2,0-
attr measurement "$nCars=8, $platoonSize=8, $nLanes=1, $ploegH=0.5, $controller=1, $headway=0.1, $leaderHeadway=1.2, $leaderSpeed=150, $breakRanksSafetyDistance=2, $minSpeed=140, $maxSpeed=160, $beaconInterval=0.1, $priority=4, $packetSize=200, $sController=\"CACC\", $0=2, $1=0"
attr network Highway
attr processid 165749
attr repetition 7
attr replication #7
attr resultdir results
attr runnumber 27
attr seedset 7
itervar beaconInterval 0.1
itervar breakRanksSafetyDistance 2
itervar controller 1
itervar headway 0.1
itervar leaderHeadway 1.2
itervar leaderSpeed 150
itervar maxSpeed 160
itervar minSpeed 140
itervar nCars 8
itervar nLanes 1
itervar packetSize 200
itervar platoonSize 8
itervar ploegH 0.5
itervar priority 4
itervar sController "\"CACC\""
config image-path ../../../veins/images
config repeat 10
config extends BreakRanks
config *.manager.command "\"sumo\""
config *.manager.ignoreGuiCommands true
config output-vector-file results/BreakRanks_1_0.1_150_2/result_7.vec
config output-scalar-file results/BreakRanks_1_0.1_150_2/result_7.sca
config extends Platooning
config *.node[*].scenario_type "\"BreakRanksScenario\""
config *.manager.command "\"sumo-gui\""
config *.node[*].scenario_type "\"SimpleScenario\""
config cmdenv-express-mode true
config cmdenv-autoflush true
config cmdenv-status-frequency 15s
config num-rngs 6
config network Highway
config debug-on-errors true
config print-undisposed true
config *.playgroundSizeX 65000m
config *.playgroundSizeY 25000m
config *.playgroundSizeZ 50m
config sim-time-limit "100 s"
config *.annotations.draw false
config *.obstacles.debug false
config *.world.useTorus false
config *.world.use2D false
config *.manager.updateInterval 0.01s
config *.manager.host "\"localhost\""
config *.manager.moduleType "\"org.car2x.plexe.PlatoonCar\""
config *.manager.moduleName "\"node\""
config *.manager.moduleDisplayString "\"\""
config *.manager.autoShutdown true
config *.manager.margin 25
config *.connectionManager.sendDirect true
config *.connectionManager.maxInterfDist 2600m
config *.connectionManager.drawMaxIntfDist false
config *.**.nic.mac1609_4.useServiceChannel false
config *.**.nic.mac1609_4.txPower 100mW
config *.**.nic.mac1609_4.bitrate 6Mbps
config *.**.nic.mac1609_4.useAcks true
config *.**.nic.mac1609_4.ackErrorRate 0.0
config *.**.nic.mac1609_4.frameErrorRate 0.0
config *.**.nic.phy80211p.minPowerLevel -94dBm
config *.**.nic.phy80211p.maxTXPower 100mW
config *.**.nic.phy80211p.useNoiseFloor true
config *.**.nic.phy80211p.noiseFloor -95dBm
config *.**.nic.phy80211p.decider "xmldoc(\"config.xml\")"
config *.**.nic.phy80211p.analogueModels "xmldoc(\"config.xml\")"
config *.**.nic.phy80211p.usePropagationDelay true
config *.node[*].mobility.x 0
config *.node[*].mobility.y 0
config *.node[*].mobility.z 1.895
config seed-set 7
config **.seed 7
config *.node[*].prot.rng-0 2
config *.node[*].appl.rng-0 3
config *.node[*].scenario.rng-0 4
config **.traffic.rng-0 5
config *.manager.configFile "\"./sumocfg/freeway.sumo.cfg\""
config *.manager.launchConfig "xmldoc(\"./sumocfg/freeway.launchd.xml\")"
config **.numberOfCars 8
config **.numberOfCarsPerPlatoon 8
config **.numberOfLanes 1
config *.node[*].helper_type "\"PositionHelper\""
config *.node[*].scenario.caccC1 0.5
config *.node[*].scenario.caccXi 1
config *.node[*].scenario.caccOmegaN "0.2 Hz"
config *.node[*].scenario.caccSpacing "2 m"
config *.node[*].scenario.engineTau "0.5 s"
config *.node[*].scenario.ploegH 0.5s
config *.node[*].scenario.ploegKp 0.2
config *.node[*].scenario.ploegKd 0.7
config *.node[*].scenario.useRealisticEngine false
config *.node[*].scenario.useControllerAcceleration true
config *.node[*].scenario.nLanes 1
config **.numericController 1
config **.headway 0.1s
config *.node[*].scenario.accHeadway 0.1s
config *.node[*].scenario.leaderHeadway 1.2s
config *.node[*].scenario.leaderSpeed 150kmph
config *.node[*].appl_type "\"SimplePlatooningApp\""
config *.node[*].appl.*.scalar-recording true
config *.node[*].appl.*.vector-recording true
config *.node[0].appl.breakRanksSafetyDistance 2m
config *.node[*].appl.minSpeed 140kmph
config *.node[*].appl.maxSpeed 160kmph
config *.node[*].protocol_type "\"SimplePlatooningBeaconing\""
config *.node[*].prot.*.scalar-recording true
config *.node[*].prot.*.vector-recording true
config *.node[*].prot.beaconingInterval 0.1s
config *.node[*].prot.priority 4
config *.node[*].prot.packetSize 200
config **.traffic_type "\"PlatoonsTrafficManager\""
config **.traffic.platoonInsertTime "1 s"
config **.traffic.platoonInsertSpeed 150kmph
config **.traffic.nCars 8
config **.traffic.platoonSize 8
config **.traffic.nLanes 1
config **.traffic.platooningVType "\"vtypeauto\""
config **.traffic.controller "\"CACC\""
config **.traffic.platoonInsertDistance 2m
config **.traffic.platoonInsertHeadway 0s
config **.traffic.platoonLeaderHeadway 1.2s
config **.scalar-recording false
config **.vector-recording false
config output-vector-file results/BreakRanksNoGui_1_0.1_150_2/result_7.vec
config output-scalar-file results/BreakRanksNoGui_1_0.1_150_2/result_7.sca

vector 0 Highway.node[0].appl distance ETV
vector 1 Highway.node[0].appl relativeSpeed ETV
vector 2 Highway.node[0].appl nodeId ETV
vector 3 Highway.node[0].appl acceleration ETV
vector 4 Highway.node[0].appl controllerAcceleration ETV
vector 5 Highway.node[0].appl speed ETV
vector 6 Highway.node[0].appl posx ETV
vector 7 Highway.node[0].appl posy ETV
vector 8 Highway.node[1].appl distance ETV
vector 9 Highway.node[1].appl relativeSpeed ETV
vector 10 Highway.node[1].appl nodeId ETV
vector 11 Highway.node[1].appl acceleration ETV
vector 12 Highway.node[1].appl controllerAcceleration ETV
vector 13 Highway.node[1].appl speed ETV
vector 14 Highway.node[1].appl posx ETV
vector 15 Highway.node[1].appl posy ETV
vector 16 Highway.node[2].appl distance ETV
vector 17 Highway.node[2].appl relativeSpeed ETV
vector 18 Highway.node[2].appl nodeId ETV
vector 19 Highway.node[2].appl acceleration ETV
vector 20 Highway.node[2].appl controllerAcceleration ETV
vector 21 Highway.node[2].appl speed ETV
vector 22 Highway.node[2].appl posx ETV
vector 23 Highway.node[2].appl posy ETV
vector 24 Highway.node[3].appl distance ETV
vector 25 Highway.node[3].appl relativeSpeed ETV
vector 26 Highway.node[3].appl nodeId ETV
vector 27 Highway.node[3].appl acceleration ETV
vector 28 Highway.node[3].appl controllerAcceleration ETV
vector 29 Highway.node[3].appl speed ETV
vector 30 Highway.node[3].appl posx ETV
vector 31 Highway.node[3].appl posy ETV
vector 32 Highway.node[4].appl distance ETV
vector 33 Highway.node[4].appl relativeSpeed ETV
vector 34 Highway.node[4].appl nodeId ETV
vector 35 Highway.node[4].appl acceleration ETV
vector 36 Highway.node[4].appl controllerAcceleration ETV
vector 37 Highway.node[4].appl speed ETV
vector 38 Highway.node[4].appl posx ETV
vector 39 Highway.node[4].appl posy ETV
vector 40 Highway.node[5].appl distance ETV
vector 41 Highway.node[5].appl relativeSpeed ETV
vector 42 Highway.node[5].appl nodeId ETV
vector 43 Highway.node[5].appl acceleration ETV
vector 44 Highway.node[5].appl controllerAcceleration ETV
vector 45 Highway.node[5].appl speed ETV
vector 46 Highway.node[5].appl posx ETV
vector 47 Highway.node[5].appl posy ETV
vector 48 Highway.node[6].appl distance ETV
vector 49 Highway.node[6].appl relativeSpeed ETV
vector 50 Highway.node[6].appl nodeId ETV
vector 51 Highway.node[6].appl acceleration ETV
vector 52 Highway.node[6].appl controllerAcceleration ETV
vector 53 Highway.node[6].appl speed ETV
vector 54 Highway.node[6].appl posx ETV
vector 55 Highway.node[6].appl posy ETV
vector 56 Highway.node[7].appl distance ETV
vector 57 Highway.node[7].appl relativeSpeed ETV
vector 58 Highway.node[7].appl nodeId ETV
vector 59 Highway.node[7].appl acceleration ETV
vector 60 Highway.node[7].appl controllerAcceleration ETV
vector 61 Highway.node[7].appl speed ETV
vector 62 Highway.node[7].appl posx ETV
vector 63 Highway.node[7].appl posy ETV
vector 64 Highway.node[4].prot frontDelay ETV
vector 65 Highway.node[4].prot frontDelayId ETV
vector 66 Highway.node[3].prot frontDelay ETV
vector 67 Highway.node[3].prot frontDelayId ETV
vector 68 Highway.node[7].prot frontDelay ETV
vector 69 Highway.node[7].prot frontDelayId ETV
vector 70 Highway.node[2].prot frontDelay ETV
vector 71 Highway.node[2].prot frontDelayId ETV
vector 72 Highway.node[6].prot frontDelay ETV
vector 73 Highway.node[6].prot frontDelayId ETV
vector 74 Highway.node[5].prot frontDelay ETV
vector 75 Highway.node[5].prot frontDelayId ETV
vector 76 Highway.node[1].prot leaderDelay ETV
vector 77 Highway.node[1].prot leaderDelayId ETV
vector 78 Highway.node[1].prot frontDelay ETV
vector 79 Highway.node[1].prot frontDelayId ETV
vector 80 Highway.node[2].prot leaderDelay ETV
vector 81 Highway.node[2].prot leaderDelayId ETV
vector 82 Highway.node[3].prot leaderDelay ETV
vector 83 Highway.node[3].prot leaderDelayId ETV
vector 84 Highway.node[4].prot leaderDelay ETV
vector 85 Highway.node[4].prot leaderDelayId ETV
vector 86 Highway.node[5].prot leaderDelay ETV
vector 87 Highway.node[5].prot leaderDelayId ETV
vector 88 Highway.node[6].prot leaderDelay ETV
vector 89 Highway.node[6].prot leaderDelayId ETV
vector 90 Highway.node[7].prot leaderDelay ETV
vector 91 Highway.node[7].prot leaderDelayId ETV
vector 92 Highway.node[0].prot nodeId ETV
vector 93 Highway.node[0].prot busyTime ETV
vector 94 Highway.node[0].prot collisions ETV
vector 95 Highway.node[1].prot nodeId ETV
vector 96 Highway.node[1].prot busyTime ETV
vector 97 Highway.node[1].prot collisions ETV
vector 98 Highway.node[2].prot nodeId ETV
vector 99 Highway.node[2].prot busyTime ETV
vector 100 Highway.node[2].prot collisions ETV
vector 101 Highway.node[3].prot nodeId ETV
vector 102 Highway.node[3].prot busyTime ETV
vector 103 Highway.node[3].prot collisions ETV
vector 104 Highway.node[4].prot nodeId ETV
vector 105 Highway.node[4].prot busyTime ETV
vector 106 Highway.node[4].prot collisions ETV
vector 107 Highway.node[5].prot nodeId ETV
vector 108 Highway.node[5].prot busyTime ETV
vector 109 Highway.node[5].prot collisions ETV
vector 110 Highway.node[6].prot nodeId ETV
vector 111 Highway.node[6].prot busyTime ETV
vector 112 Highway.node[6].prot collisions ETV
vector 113 Highway.node[7].prot nodeId ETV
vector 114 Highway.node[7].prot busyTime ETV
vector 115 Highway.node[7].prot collisions ETV
0	11335 17512 113 542089 1.11 99.91 989 -1 -1 -989 989
1	28847 16523 113 542089 1.11 99.91 989 0 0 0 0
2	45370 16523 113 542089 1.11 99.91 989 0 0 0 0
3	61893 19176 113 542089 1.11 99.91 989 -0.00212335 9.44677e-05 -0.032974721603572 5.4457223400247e-05
4	81069 26476 113 542089 1.11 99.91 989 -0.00327777 0.00014682 -0.031844474217828 7.8133755621892e-05
5	107545 22452 113 542089 1.11 99.91 989 41.6666 41.67 41208.398000001 1717019.2778579
6	129997 22405 113 542089 1.11 99.91 989 52.0203 4168.69 2087144.3826 5804163776.37
7	152402 21468 113 542089 1.11 99.91 989 242.45 242.45 239783.05 58135400.472499
8	173870 20241 114 542090 1.11 99.91 989 -1 128.57 38777.64594 3502188.6926069
9	194111 17458 114 542090 1.11 99.91 989 -0.000401432 2 977.99404999792 1956.0000024403
10	211569 17512 114 542090 1.11 99.91 989 1 1 989 989
11	229081 21592 114 542090 1.11 99.91 989 -1.06512 0.0473751 -16.652452447376 13.757319110931
12	250673 27375 114 542090 1.11 99.91 989 -1.5 0.0736657 -15.755947473328 18.806094182606
13	278048 19453 114 542090 1.11 99.91 989 39.9264 41.67 39725.9027 1595941.8345455
14	297501 23439 114 542090 1.11 99.91 989 46.0203 4014.53 2015280.1848 5399396860.2121
15	320940 22457 114 542090 1.11 99.91 989 242.45 245.75 242749.75 59583743.4125
16	343397 23304 115 542091 1.11 99.91 989 1.99972 166.997 82598.86837 9302545.8984058
17	366701 23161 115 542091 1.11 99.91 989 -6.89836e-05 3.7693 1590.8075710306 2962.9601053369
18	389862 17512 115 542091 1.11 99.91 989 2 2 1978 3956
19	407374 21889 115 542091 1.11 99.91 989 -2.38342 0.417122 -16.63579861502 73.981413357567
20	429263 27166 115 542091 1.11 99.91 989 -3.6372 0.470463 -15.000430257928 103.3337599866
21	456429 19776 115 542091 1.11 99.91 989 37.8974 41.67 39617.5969 1587415.3735163
22	476205 22683 115 542091 1.11 99.91 989 40.0203 3997.7 2000052.2005 5332725062.7535
23	498888 22457 115 542091 1.11 99.91 989 242.45 242.45 239783.05 58135400.472499
24	521345 23242 116 542092 1.11 99.91 989 -1 60.5828 43963.51357 2333055.9337999
25	544587 25781 116 542092 1.11 99.91 989 -0.465059 4.13493 308.05558739911 1039.8590705353
26	570368 17512 116 542092 1.11 99.91 989 3 3 2967 8901
27	587880 26516 116 542092 1.11 99.91 989 -3.34517 1.29175 23.346486820525 279.34442107836
28	614396 26480 116 542092 1.11 99.91 989 -4.16037 1.5 25.228283735843 345.22189442069
29	640876 23039 116 542092 1.11 99.91 989 34.0871 44.0841 40927.3441 1698387.8836008
30	663915 23353 116 542092 1.11 99.91 989 34.0203 4122.47 2012548.2978 5473307873.8439
31	687268 22457 116 542092 1.11 99.91 989 242.45 252.35 245046.55 60726320.232501
32	709725 20915 117 542093 1.11 99.91 989 -1 52.2492 17107.26227 860195.85765902
33	730640 21399 117 542093 1.11 99.91 989 -3.05423e-05 10.2782 522.72033476884 3167.4021790443
34	752039 17512 117 542093 1.11 99.91 989 4 4 3956 15824
35	769551 24801 117 542093 1.11 99.91 989 -3.63798 1.5 23.381769526296 489.18519079149
36	794352 26424 117 542093 1.11 99.91 989 -4.1632 1.5 25.589527192378 550.60466664264
37	820776 21486 117 542093 1.11 99.91 989 30.6949 44.0846 41631.866 1761105.9282479
38	842262 23398 117 542093 1.11 99.91 989 28.0203 4186.92 2030031.6652 5610001900.6771
39	865660 22457 117 542093 1.11 99.91 989 242.45 252.35 248089.15 62244714.252501
40	888117 23380 118 542094 1.11 99.91 989 1.9999 185.431 87959.31469 10854528.205826
41	911497 19866 118 542094 1.11 99.91 989 -2.89899e-05 4.31049 2211.7001817565 6189.3928501584
42	931363 17512 118 542094 1.11 99.91 989 5 5 4945 24725
43	948875 21728 118 542094 1.11 99.91 989 -3.69981 1.20879 -36.633017541379 195.82088854638
44	970603 27835 118 542094 1.11 99.91 989 -4.1632 1.5 -33.25664418529 291.97007816591
45	998438 19585 118 542094 1.11 99.91 989 35.89 41.67 37902.2849 1453807.4424911
46	1018023 23434 118 542094 1.11 99.91 989 22.0203 3808.27 1908513.6917 4851719749.9094
47	1041457 22457 118 542094 1.11 99.91 989 242.45 252.35 241858.75000001 59155857.492499
48	1063914 18959 119 542095 1.11 99.91 989 -1 2 -680.00487 1297.9805203243
49	1082873 18609 119 542095 1.11 99.91 989 -2.21776e-05 0.000330017 -0.000366762807 1.6693046614917e-07
50	1101482 17512 119 542095 1.11 99.91 989 6 6 5934 35604
51	1118994 21720 119 542095 1.11 99.91 989 -3.658 1.49297 3.3921366103891 193.06147142618
52	1140714 27638 119 542095 1.11 99.91 989 -4.1632 1.5 6.294296399144 295.46162228158
53	1168352 19667 119 542095 1.11 99.91 989 37.1106 42.1035 41352.6066 1729592.428599
54	1188019 22678 119 542095 1.11 99.91 989 16.0203 4147.1 2051433.5416 5670133723.1986
55	1210697 22457 119 542095 1.11 99.91 989 242.45 249.05 244016.95 60211037.1125
56	1233154 18980 120 542096 1.11 99.91 989 -1 35.1692 -170.26831 18400.41708373
57	1252134 18564 120 542096 1.11 99.91 989 -2.51263e-05 2 29.522336326146 58.321021802674
58	1270698 17512 120 542096 1.11 99.91 989 7 7 6923 48461
59	1288210 21666 120 542096 1.11 99.91 989 -3.48118 1.46003 3.2932093089404 123.61178545289
60	1309876 27739 120 542096 1.11 99.91 989 -4.1632 1.5 2.8870486348019 228.01368409159
61	1337615 19601 120 542096 1.11 99.91 989 38.4866 42.1012 41419.1746 1734858.2166162
62	1357216 23431 120 542096 1.11 99.91 989 10.0203 4147.75 2051257.8091 5672361917.9636
63	1380647 22457 120 542096 1.11 99.91 989 242.45 252.35 246963.85 61677722.772502
64	1403104 39995 702 542144 1.214462500346 99.914471495502 988 0.099987480317 0.100003542541 98.800009475488 9.8800019138281
65	1443099 27261 702 542144 1.214462500346 99.914471495502 988 4 4 3952 15808
66	1470360 40029 769 542199 1.22169752036 99.921694115654 988 0.099987480318 0.100003545201 98.799997075626 9.8799994339699
67	1510389 27269 769 542199 1.22169752036 99.921694115654 988 3 3 2964 8892
68	1537658 40020 903 542327 1.247009640443 99.947006221478 988 0.099987480317 0.100003544537 98.799997061367 9.8799994311024
69	1577678 27274 903 542327 1.247009640443 99.947006221478 988 7 7 6916 48412
70	1604952 40041 970 542394 1.254140740512 99.954137709939 988 0.099987480317 0.100003539903 98.799997449759 9.8799995087753
71	1644993 27290 970 542394 1.254140740512 99.954137709939 988 2 2 1976 3952
72	1672283 40030 1038 542480 1.273478820567 99.973477472375 988 0.099987480317 0.100003547205 98.79999913214 9.87999984527
73	1712313 27286 1038 542480 1.273478820567 99.973477472375 988 6 6 5928 35568
74	1739599 39982 1105 542565 1.285042840581 99.985042870685 988 0.099987480315 0.10000660304 98.800000510436 9.8800001211029
75	1779581 27252 1105 542565 1.285042840581 99.985042870685 988 5 5 4940 24700
76	1806833 40019 1166 542620 1.293967920636 99.993967185943 988 0.099987480317 0.100003549159 98.799999745639 9.8799999679539
77	1846852 27277 1166 542620 1.293967920636 99.993967185943 988 1 1 988 988
78	1874129 40019 1166 542620 1.293967920636 99.993967185943 988 0.099987480317 0.100003549159 98.799999745639 9.8799999679539
79	1914148 27277 1166 542620 1.293967920636 99.993967185943 988 1 1 988 988
80	1941425 40008 1172 542626 1.29396794065 99.993967241966 988 0.099987480317 0.100003549159 98.799999781648 9.8799999751558
81	1981433 27273 1172 542626 1.29396794065 99.993967241966 988 2 2 1976 3952
82	2008706 40027 1178 542614 1.293967960663 99.993966828074 988 0.099987480317 0.100003547843 98.799999347742 9.8799998883746
83	2048733 27282 1178 542614 1.293967960663 99.993966828074 988 3 3 2964 8892
84	2076015 39990 1184 542596 1.293967980677 99.993966736413 988 0.099987480317 0.100003549337 98.799999236068 9.8799998660397
85	2116005 27262 1184 542596 1.293967980677 99.993966736413 988 4 4 3952 15808
86	2143267 39973 1190 542632 1.293968000691 99.993967874441 988 0.099987480317 0.100003549827 98.800000354082 9.8800000896426
87	2183240 27259 1190 542632 1.293968000691 99.993967874441 988 5 5 4940 24700
88	2210499 40002 1196 542602 1.293968020705 99.993966743855 988 0.099987480317 0.100003548494 98.799999203482 9.8799998595226
89	2250501 27266 1196 542602 1.293968020705 99.993966743855 988 6 6 5928 35568
90	2277767 39973 1202 542608 1.293968040719 99.993966744219 988 0.099987480317 0.100003548498 98.799999183832 9.8799998555926
91	2317740 27243 1202 542608 1.293968040719 99.993966744219 988 7 7 6916 48412
92	2344983 1459 5026 542634 2 100 99 0 0 0 0
93	2346442 2061 5026 542634 2 100 99 0.022473 0.027091360882 2.471654360882 0.061718564863439
94	2348503 1459 5026 542634 2 100 99 0 0 0 0
95	2349962 1459 5027 542635 2 100 99 1 1 99 99
96	2351421 2061 5027 542635 2 100 99 0.022473 0.026794240156 2.471357240156 0.061702554334537
97	2353482 1459 5027 542635 2 100 99 0 0 0 0
98	2354941 1459 5028 542636 2 100 99 2 2 198 396
99	2356400 2061 5028 542636 2 100 99 0.022473 0.026794280182 2.471357280182 0.061702556479471
100	2358461 1558 5028 542636 2 100 99 0 0 0 0
101	2360019 1558 5029 542637 2 100 99 3 3 297 891
102	2361577 2160 5029 542637 2 100 99 0.022473 0.026794200128 2.471357200128 0.061702552189499
103	2363737 1558 5029 542637 2 100 99 0 0 0 0
104	2365295 1558 5030 542638 2 100 99 4 4 396 1584
105	2366853 2159 5030 542638 2 100 99 0.022473 0.02686036023 2.47142336023 0.061706101980685
106	2369012 1558 5030 542638 2 100 99 0 0 0 0
107	2370570 1558 5031 542639 2 100 99 5 5 495 2475
108	2372128 2160 5031 542639 2 100 99 0.022473 0.026794240157 2.471357240157 0.061702554334591
109	2374288 1558 5031 542639 2 100 99 0 0 0 0
110	2375846 1558 5032 542640 2 100 99 6 6 594 3564
111	2377404 2160 5032 542640 2 100 99 0.022473 0.026827360232 2.471390360232 0.061704330286017
112	2379564 1558 5032 542640 2 100 99 0 0 0 0
113	2381122 1558 5033 542641 2 100 99 7 7 693 4851
114	2382680 2160 5033 542641 2 100 99 0.022473 0.026794280185 2.471357280185 0.061702556479632
115	2384840 1558 5033 542641 2 100 99 0 0 0 0

