file 2402550 1720470539                                         
version 3
run BreakRanksNoGui-28-20240708-22:28:46-165763
attr configname BreakRanksNoGui
attr datetime 20240708-22:28:46
attr datetimef 20240708-222846
attr experiment BreakRanksNoGui
attr inifile omnetpp.ini
attr iterationvars "$nCars=8, $platoonSize=8, $nLanes=1, $ploegH=0.5, $controller=1, $headway=0.1, $leaderHeadway=1.2, $leaderSpeed=150, $breakRanksSafetyDistance=2, $minSpeed=140, $maxSpeed=160, $beaconInterval=0.1, $priority=4, $packetSize=200, $sController=\"CACC\", $0=2, $1=0"
attr iterationvarsd nCars=8/platoonSize=8/nLanes=1/ploegH=0.5/controller=1/headway=0.1/leaderHeadway=1.2/leaderSpeed=150/breakRanksSafetyDistance=2/minSpeed=140/maxSpeed=160/beaconInterval=0.1/priority=4/packetSize=200/sController=CACC/2/0
attr iterationvarsf nCars=8,platoonSize=8,nLanes=1,ploegH=0.5,controller=1,headway=0.1,leaderHeadway=1.2,leaderSpeed=150,breakRanksSafetyDistance=2,minSpeed=140,maxSpeed=160,beaconInterval=0.1,priority=4,packetSize=200,sController=CACC,2,0-
attr measurement "$nCars=8, $platoonSize=8, $nLanes=1, $ploegH=0.5, $controller=1, $headway=0.1, $leaderHeadway=1.2, $leaderSpeed=150, $breakRanksSafetyDistance=2, $minSpeed=140, $maxSpeed=160, $beaconInterval=0.1, $priority=4, $packetSize=200, $sController=\"CACC\", $0=2, $1=0"
attr network Highway
attr processid 165763
attr repetition 8
attr replication #8
attr resultdir results
attr runnumber 28
attr seedset 8
itervar beaconInterval 0.1
itervar breakRanksSafetyDistance 2
itervar controller 1
itervar headway 0.1
itervar leaderHeadway 1.2
itervar leaderSpeed 150
itervar maxSpeed 160
itervar minSpeed 140
itervar nCars 8
itervar nLanes 1
itervar packetSize 200
itervar platoonSize 8
itervar ploegH 0.5
itervar priority 4
itervar sController "\"CACC\""
config image-path ../../../veins/images
config repeat 10
config extends BreakRanks
config *.manager.command "\"sumo\""
config *.manager.ignoreGuiCommands true
config output-vector-file results/BreakRanks_1_0.1_150_2/result_8.vec
config output-scalar-file results/BreakRanks_1_0.1_150_2/result_8.sca
config extends Platooning
config *.node[*].scenario_type "\"BreakRanksScenario\""
config *.manager.command "\"sumo-gui\""
config *.node[*].scenario_type "\"SimpleScenario\""
config cmdenv-express-mode true
config cmdenv-autoflush true
config cmdenv-status-frequency 15s
config num-rngs 6
config network Highway
config debug-on-errors true
config print-undisposed true
config *.playgroundSizeX 65000m
config *.playgroundSizeY 25000m
config *.playgroundSizeZ 50m
config sim-time-limit "100 s"
config *.annotations.draw false
config *.obstacles.debug false
config *.world.useTorus false
config *.world.use2D false
config *.manager.updateInterval 0.01s
config *.manager.host "\"localhost\""
config *.manager.moduleType "\"org.car2x.plexe.PlatoonCar\""
config *.manager.moduleName "\"node\""
config *.manager.moduleDisplayString "\"\""
config *.manager.autoShutdown true
config *.manager.margin 25
config *.connectionManager.sendDirect true
config *.connectionManager.maxInterfDist 2600m
config *.connectionManager.drawMaxIntfDist false
config *.**.nic.mac1609_4.useServiceChannel false
config *.**.nic.mac1609_4.txPower 100mW
config *.**.nic.mac1609_4.bitrate 6Mbps
config *.**.nic.mac1609_4.useAcks true
config *.**.nic.mac1609_4.ackErrorRate 0.0
config *.**.nic.mac1609_4.frameErrorRate 0.0
config *.**.nic.phy80211p.minPowerLevel -94dBm
config *.**.nic.phy80211p.maxTXPower 100mW
config *.**.nic.phy80211p.useNoiseFloor true
config *.**.nic.phy80211p.noiseFloor -95dBm
config *.**.nic.phy80211p.decider "xmldoc(\"config.xml\")"
config *.**.nic.phy80211p.analogueModels "xmldoc(\"config.xml\")"
config *.**.nic.phy80211p.usePropagationDelay true
config *.node[*].mobility.x 0
config *.node[*].mobility.y 0
config *.node[*].mobility.z 1.895
config seed-set 8
config **.seed 8
config *.node[*].prot.rng-0 2
config *.node[*].appl.rng-0 3
config *.node[*].scenario.rng-0 4
config **.traffic.rng-0 5
config *.manager.configFile "\"./sumocfg/freeway.sumo.cfg\""
config *.manager.launchConfig "xmldoc(\"./sumocfg/freeway.launchd.xml\")"
config **.numberOfCars 8
config **.numberOfCarsPerPlatoon 8
config **.numberOfLanes 1
config *.node[*].helper_type "\"PositionHelper\""
config *.node[*].scenario.caccC1 0.5
config *.node[*].scenario.caccXi 1
config *.node[*].scenario.caccOmegaN "0.2 Hz"
config *.node[*].scenario.caccSpacing "2 m"
config *.node[*].scenario.engineTau "0.5 s"
config *.node[*].scenario.ploegH 0.5s
config *.node[*].scenario.ploegKp 0.2
config *.node[*].scenario.ploegKd 0.7
config *.node[*].scenario.useRealisticEngine false
config *.node[*].scenario.useControllerAcceleration true
config *.node[*].scenario.nLanes 1
config **.numericController 1
config **.headway 0.1s
config *.node[*].scenario.accHeadway 0.1s
config *.node[*].scenario.leaderHeadway 1.2s
config *.node[*].scenario.leaderSpeed 150kmph
config *.node[*].appl_type "\"SimplePlatooningApp\""
config *.node[*].appl.*.scalar-recording true
config *.node[*].appl.*.vector-recording true
config *.node[0].appl.breakRanksSafetyDistance 2m
config *.node[*].appl.minSpeed 140kmph
config *.node[*].appl.maxSpeed 160kmph
config *.node[*].protocol_type "\"SimplePlatooningBeaconing\""
config *.node[*].prot.*.scalar-recording true
config *.node[*].prot.*.vector-recording true
config *.node[*].prot.beaconingInterval 0.1s
config *.node[*].prot.priority 4
config *.node[*].prot.packetSize 200
config **.traffic_type "\"PlatoonsTrafficManager\""
config **.traffic.platoonInsertTime "1 s"
config **.traffic.platoonInsertSpeed 150kmph
config **.traffic.nCars 8
config **.traffic.platoonSize 8
config **.traffic.nLanes 1
config **.traffic.platooningVType "\"vtypeauto\""
config **.traffic.controller "\"CACC\""
config **.traffic.platoonInsertDistance 2m
config **.traffic.platoonInsertHeadway 0s
config **.traffic.platoonLeaderHeadway 1.2s
config **.scalar-recording false
config **.vector-recording false
config output-vector-file results/BreakRanksNoGui_1_0.1_150_2/result_8.vec
config output-scalar-file results/BreakRanksNoGui_1_0.1_150_2/result_8.sca

vector 0 Highway.node[0].appl distance ETV
vector 1 Highway.node[0].appl relativeSpeed ETV
vector 2 Highway.node[0].appl nodeId ETV
vector 3 Highway.node[0].appl acceleration ETV
vector 4 Highway.node[0].appl controllerAcceleration ETV
vector 5 Highway.node[0].appl speed ETV
vector 6 Highway.node[0].appl posx ETV
vector 7 Highway.node[0].appl posy ETV
vector 8 Highway.node[1].appl distance ETV
vector 9 Highway.node[1].appl relativeSpeed ETV
vector 10 Highway.node[1].appl nodeId ETV
vector 11 Highway.node[1].appl acceleration ETV
vector 12 Highway.node[1].appl controllerAcceleration ETV
vector 13 Highway.node[1].appl speed ETV
vector 14 Highway.node[1].appl posx ETV
vector 15 Highway.node[1].appl posy ETV
vector 16 Highway.node[2].appl distance ETV
vector 17 Highway.node[2].appl relativeSpeed ETV
vector 18 Highway.node[2].appl nodeId ETV
vector 19 Highway.node[2].appl acceleration ETV
vector 20 Highway.node[2].appl controllerAcceleration ETV
vector 21 Highway.node[2].appl speed ETV
vector 22 Highway.node[2].appl posx ETV
vector 23 Highway.node[2].appl posy ETV
vector 24 Highway.node[3].appl distance ETV
vector 25 Highway.node[3].appl relativeSpeed ETV
vector 26 Highway.node[3].appl nodeId ETV
vector 27 Highway.node[3].appl acceleration ETV
vector 28 Highway.node[3].appl controllerAcceleration ETV
vector 29 Highway.node[3].appl speed ETV
vector 30 Highway.node[3].appl posx ETV
vector 31 Highway.node[3].appl posy ETV
vector 32 Highway.node[4].appl distance ETV
vector 33 Highway.node[4].appl relativeSpeed ETV
vector 34 Highway.node[4].appl nodeId ETV
vector 35 Highway.node[4].appl acceleration ETV
vector 36 Highway.node[4].appl controllerAcceleration ETV
vector 37 Highway.node[4].appl speed ETV
vector 38 Highway.node[4].appl posx ETV
vector 39 Highway.node[4].appl posy ETV
vector 40 Highway.node[5].appl distance ETV
vector 41 Highway.node[5].appl relativeSpeed ETV
vector 42 Highway.node[5].appl nodeId ETV
vector 43 Highway.node[5].appl acceleration ETV
vector 44 Highway.node[5].appl controllerAcceleration ETV
vector 45 Highway.node[5].appl speed ETV
vector 46 Highway.node[5].appl posx ETV
vector 47 Highway.node[5].appl posy ETV
vector 48 Highway.node[6].appl distance ETV
vector 49 Highway.node[6].appl relativeSpeed ETV
vector 50 Highway.node[6].appl nodeId ETV
vector 51 Highway.node[6].appl acceleration ETV
vector 52 Highway.node[6].appl controllerAcceleration ETV
vector 53 Highway.node[6].appl speed ETV
vector 54 Highway.node[6].appl posx ETV
vector 55 Highway.node[6].appl posy ETV
vector 56 Highway.node[7].appl distance ETV
vector 57 Highway.node[7].appl relativeSpeed ETV
vector 58 Highway.node[7].appl nodeId ETV
vector 59 Highway.node[7].appl acceleration ETV
vector 60 Highway.node[7].appl controllerAcceleration ETV
vector 61 Highway.node[7].appl speed ETV
vector 62 Highway.node[7].appl posx ETV
vector 63 Highway.node[7].appl posy ETV
vector 64 Highway.node[4].prot frontDelay ETV
vector 65 Highway.node[4].prot frontDelayId ETV
vector 66 Highway.node[2].prot frontDelay ETV
vector 67 Highway.node[2].prot frontDelayId ETV
vector 68 Highway.node[3].prot frontDelay ETV
vector 69 Highway.node[3].prot frontDelayId ETV
vector 70 Highway.node[5].prot frontDelay ETV
vector 71 Highway.node[5].prot frontDelayId ETV
vector 72 Highway.node[7].prot frontDelay ETV
vector 73 Highway.node[7].prot frontDelayId ETV
vector 74 Highway.node[1].prot leaderDelay ETV
vector 75 Highway.node[1].prot leaderDelayId ETV
vector 76 Highway.node[1].prot frontDelay ETV
vector 77 Highway.node[1].prot frontDelayId ETV
vector 78 Highway.node[2].prot leaderDelay ETV
vector 79 Highway.node[2].prot leaderDelayId ETV
vector 80 Highway.node[3].prot leaderDelay ETV
vector 81 Highway.node[3].prot leaderDelayId ETV
vector 82 Highway.node[4].prot leaderDelay ETV
vector 83 Highway.node[4].prot leaderDelayId ETV
vector 84 Highway.node[5].prot leaderDelay ETV
vector 85 Highway.node[5].prot leaderDelayId ETV
vector 86 Highway.node[6].prot leaderDelay ETV
vector 87 Highway.node[6].prot leaderDelayId ETV
vector 88 Highway.node[7].prot leaderDelay ETV
vector 89 Highway.node[7].prot leaderDelayId ETV
vector 90 Highway.node[6].prot frontDelay ETV
vector 91 Highway.node[6].prot frontDelayId ETV
vector 92 Highway.node[0].prot nodeId ETV
vector 93 Highway.node[0].prot busyTime ETV
vector 94 Highway.node[0].prot collisions ETV
vector 95 Highway.node[1].prot nodeId ETV
vector 96 Highway.node[1].prot busyTime ETV
vector 97 Highway.node[1].prot collisions ETV
vector 98 Highway.node[2].prot nodeId ETV
vector 99 Highway.node[2].prot busyTime ETV
vector 100 Highway.node[2].prot collisions ETV
vector 101 Highway.node[3].prot nodeId ETV
vector 102 Highway.node[3].prot busyTime ETV
vector 103 Highway.node[3].prot collisions ETV
vector 104 Highway.node[4].prot nodeId ETV
vector 105 Highway.node[4].prot busyTime ETV
vector 106 Highway.node[4].prot collisions ETV
vector 107 Highway.node[5].prot nodeId ETV
vector 108 Highway.node[5].prot busyTime ETV
vector 109 Highway.node[5].prot collisions ETV
vector 110 Highway.node[6].prot nodeId ETV
vector 111 Highway.node[6].prot busyTime ETV
vector 112 Highway.node[6].prot collisions ETV
vector 113 Highway.node[7].prot nodeId ETV
vector 114 Highway.node[7].prot busyTime ETV
vector 115 Highway.node[7].prot collisions ETV
0	11335 17512 113 542255 1.11 99.91 989 -1 -1 -989 989
1	28847 16523 113 542255 1.11 99.91 989 0 0 0 0
2	45370 16523 113 542255 1.11 99.91 989 0 0 0 0
3	61893 19176 113 542255 1.11 99.91 989 -0.00212335 9.44677e-05 -0.032974721603572 5.4457223400247e-05
4	81069 26476 113 542255 1.11 99.91 989 -0.00327777 0.00014682 -0.031844474217828 7.8133755621892e-05
5	107545 22452 113 542255 1.11 99.91 989 41.6666 41.67 41208.398000001 1717019.2778579
6	129997 22405 113 542255 1.11 99.91 989 66.6803 4183.35 2101643.1233 5865571403.1479
7	152402 21468 113 542255 1.11 99.91 989 242.45 242.45 239783.05 58135400.472499
8	173870 20910 114 542256 1.11 99.91 989 -1 135.833 51148.44031 4906937.6557046
9	194780 20548 114 542256 1.11 99.91 989 -0.000322672 1.6667 948.75717078122 1528.1797010684
10	215328 17512 114 542256 1.11 99.91 989 1 1 989 989
11	232840 22324 114 542256 1.11 99.91 989 -1.06513 0.120565 -16.65265887252 14.480851194208
12	255164 27246 114 542256 1.11 99.91 989 -1.5 0.128902 -15.667284588675 19.89269824342
13	282410 19873 114 542256 1.11 99.91 989 39.7254 41.67 39718.1583 1595323.915578
14	302283 23418 114 542256 1.11 99.91 989 60.6803 4028.41 2029729.6449 5458313093.6199
15	325701 22457 114 542256 1.11 99.91 989 242.45 245.75 240773.05 58618718.472499
16	348158 22959 115 542257 1.11 99.91 989 1.99977 94.3526 53803.1367 3596232.802114
17	371117 21595 115 542257 1.11 99.91 989 -6.80894e-05 3.76929 1408.1734662496 2849.9642599707
18	392712 17512 115 542257 1.11 99.91 989 2 2 1978 3956
19	410224 24370 115 542257 1.11 99.91 989 -2.38344 0.417121 -26.637505619142 72.311181145772
20	434594 27208 115 542257 1.11 99.91 989 -3.63722 0.470462 -25.087821901364 102.14718705203
21	461802 20093 115 542257 1.11 99.91 989 37.8974 41.67 38794.1302 1522377.3005179
22	481895 23395 115 542257 1.11 99.91 989 54.6803 3930.06 1980800.1247 5196054875.3227
23	505290 22457 115 542257 1.11 99.91 989 242.45 242.45 239783.05 58135400.472499
24	527747 23292 116 542258 1.11 99.91 989 1.99986 48.7926 38497.52458 1749537.6187355
25	551039 25311 116 542258 1.11 99.91 989 -1.93011e-05 4.13493 467.92638775637 1040.6173583907
26	576350 17512 116 542258 1.11 99.91 989 3 3 2967 8901
27	593862 26170 116 542258 1.11 99.91 989 -3.34517 0.788366 -26.639275838562 215.46140757558
28	620032 26174 116 542258 1.11 99.91 989 -4.16035 0.847333 -24.83180381709 261.79220139002
29	646206 23352 116 542258 1.11 99.91 989 34.0872 41.67 38326.2055 1487114.7305948
30	669558 23329 116 542258 1.11 99.91 989 48.6803 3877.27 1938346.5138 5000132291.2846
31	692887 22457 116 542258 1.11 99.91 989 242.45 242.45 239783.05 58135400.472499
32	715344 23099 117 542259 1.11 99.91 989 -1 201.101 83057.481299999 10548099.826995
33	738443 22925 117 542259 1.11 99.91 989 -0.30583 4.06103 625.73534929728 1412.9170938714
34	761368 17512 117 542259 1.11 99.91 989 4 4 3956 15824
35	778880 23489 117 542259 1.11 99.91 989 -3.63796 1.38857 -6.6257942080309 389.06919903394
36	802369 26771 117 542259 1.11 99.91 989 -4.16319 1.5 -5.034204636895 444.74240964642
37	829140 20872 117 542259 1.11 99.91 989 30.695 41.67 39138.2876 1555953.8227085
38	850012 23407 117 542259 1.11 99.91 989 42.6803 3952.38 1936625.4512 5055350323.1404
39	873419 22457 117 542259 1.11 99.91 989 242.45 249.05 241852.15 59145731.1125
40	895876 20195 118 542260 1.11 99.91 989 -1 48.2306 10520.15014 462929.49896862
41	916071 20357 118 542260 1.11 99.91 989 -2.3189e-05 4.12895 261.22056454258 492.68551433692
42	936428 17512 118 542260 1.11 99.91 989 5 5 4945 24725
43	953940 23626 118 542260 1.11 99.91 989 -3.69979 1.43893 13.378628048275 235.95080384632
44	977566 26829 118 542260 1.11 99.91 989 -4.16319 1.5 16.694780554521 339.52461666276
45	1004395 20882 118 542260 1.11 99.91 989 35.8901 43.0997 41250.2921 1723791.6830355
46	1025277 23410 118 542260 1.11 99.91 989 36.6803 4157.48 2037365.5592 5605575743.7884
47	1048687 22457 118 542260 1.11 99.91 989 242.45 252.35 244393.15 60399838.032501
48	1071144 20033 119 542261 1.11 99.91 989 -1 102.082 14298.90532 1139452.8596006
49	1091177 19016 119 542261 1.11 99.91 989 -2.30454e-05 2 331.33617873526 586.22604472039
50	1110193 17512 119 542261 1.11 99.91 989 6 6 5934 35604
51	1127705 21697 119 542261 1.11 99.91 989 -3.65799 1.47646 -6.6076659095951 178.0607404588
52	1149402 27706 119 542261 1.11 99.91 989 -4.16318 1.5 -3.6962409572156 280.42191782528
53	1177108 19626 119 542261 1.11 99.91 989 37.1106 41.67 40507.2419 1659428.1924464
54	1196734 23440 119 542261 1.11 99.91 989 30.6803 4077.27 2030197.3898 5519506523.1933
55	1220174 22457 119 542261 1.11 99.91 989 242.45 249.05 243535.15 59974515.5525
56	1242631 21564 120 542262 1.11 99.91 989 -1 156.909 39624.48769 3387606.9777319
57	1264195 20461 120 542262 1.11 99.91 989 -3.32296e-05 5.00003 1527.7186429841 5388.25409403
58	1284656 17512 120 542262 1.11 99.91 989 7 7 6923 48461
59	1302168 23943 120 542262 1.11 99.91 989 -3.48117 0.303863 -36.674201683835 103.87232402063
60	1326111 27279 120 542262 1.11 99.91 989 -4.16318 0.472158 -36.123586596225 171.02577205737
61	1353390 19994 120 542262 1.11 99.91 989 37.5279 41.67 37927.6431 1455676.6188275
62	1373384 23438 120 542262 1.11 99.91 989 24.6803 3813.46 1913745.6056 4872739505.0629
63	1396822 22457 120 542262 1.11 99.91 989 242.45 252.35 244442.65 60432694.1525
64	1419279 40011 768 542370 1.218681580402 99.918684794649 988 0.099987480322 0.100003124779 98.80000369458 9.8800007593331
65	1459290 27272 768 542370 1.218681580402 99.918684794649 988 4 4 3952 15808
66	1486562 40000 835 542437 1.22410962043 99.924113376141 988 0.099987480322 0.100003124779 98.800004236044 9.8800008676435
67	1526562 27258 835 542437 1.22410962043 99.924113376141 988 2 2 1976 3952
68	1553820 39995 902 542498 1.233905640444 99.933896552238 988 0.099987480321 0.100003124779 98.799991392127 9.8799982989702
69	1593815 27277 902 542498 1.233905640444 99.933896552238 988 3 3 2964 8892
70	1621092 40035 968 542588 1.236616680472 99.936608135928 988 0.099987480321 0.100003122997 98.799991935789 9.8799984077002
71	1661127 27283 968 542588 1.236616680472 99.936608135928 988 5 5 4940 24700
72	1688410 39998 1036 542662 1.2505597205 99.950551748813 988 0.099987480322 0.10000312333 98.799992508646 9.8799985222634
73	1728408 27262 1036 542662 1.2505597205 99.950551748813 988 7 7 6916 48412
74	1755670 40021 1097 542705 1.260290840583 99.960282739407 988 0.099987480321 0.100003126218 98.799992379157 9.8799984963783
75	1795691 27284 1097 542705 1.260290840583 99.960282739407 988 1 1 988 988
76	1822975 40021 1097 542705 1.260290840583 99.960282739407 988 0.099987480321 0.100003126218 98.799992379157 9.8799984963783
77	1862996 27284 1097 542705 1.260290840583 99.960282739407 988 1 1 988 988
78	1890280 40023 1103 542717 1.260290860597 99.960283067643 988 0.099987480321 0.100003126552 98.799992687379 9.8799985580227
79	1930303 27278 1103 542717 1.260290860597 99.960283067643 988 2 2 1976 3952
80	1957581 40021 1109 542723 1.26029088061 99.96028324374 988 0.099987480321 0.100003126552 98.799992843462 9.8799985892393
81	1997602 27281 1109 542723 1.26029088061 99.96028324374 988 3 3 2964 8892
82	2024883 40004 1115 542711 1.260290900624 99.960282992951 988 0.099987480321 0.100003125885 98.79999257266 9.8799985350789
83	2064887 27272 1115 542711 1.260290900624 99.960282992951 988 4 4 3952 15808
84	2092159 39997 1121 542693 1.260290920638 99.960282309097 988 0.099987480321 0.100003125221 98.799991868792 9.8799983943053
85	2132156 27266 1121 542693 1.260290920638 99.960282309097 988 5 5 4940 24700
86	2159422 39976 1127 542699 1.260290940652 99.960282576266 988 0.099987480321 0.100003125885 98.799992115947 9.8799984437363
87	2199398 27247 1127 542699 1.260290940652 99.960282576266 988 6 6 5928 35568
88	2226645 39980 1133 542729 1.260290960666 99.960283456741 988 0.099987480321 0.100003126886 98.799992976408 9.8799986158285
89	2266625 27262 1133 542729 1.260290960666 99.960283456741 988 7 7 6916 48412
90	2293887 39997 1170 542766 1.271698940652 99.971703577326 988 0.099987480321 0.100003125888 98.800005117007 9.8800010438073
91	2333884 27252 1170 542766 1.271698940652 99.971703577326 988 6 6 5928 35568
92	2361136 1459 5026 542800 2 100 99 0 0 0 0
93	2362595 2061 5026 542800 2 100 99 0.022473 0.027187561032 2.471750561032 0.061723786503869
94	2364656 1459 5026 542800 2 100 99 0 0 0 0
95	2366115 1459 5027 542801 2 100 99 1 1 99 99
96	2367574 2060 5027 542801 2 100 99 0.022473 0.02689024016 2.47145324016 0.061707708044862
97	2369634 1459 5027 542801 2 100 99 0 0 0 0
98	2371093 1459 5028 542802 2 100 99 2 2 198 396
99	2372552 2061 5028 542802 2 100 99 0.022473 0.026963320214 2.471526320214 0.061711643665963
100	2374613 1558 5028 542802 2 100 99 0 0 0 0
101	2376171 1558 5029 542803 2 100 99 3 3 297 891
102	2377729 2160 5029 542803 2 100 99 0.022473 0.026996400264 2.471559400264 0.061713428656214
103	2379889 1558 5029 542803 2 100 99 0 0 0 0
104	2381447 1558 5030 542804 2 100 99 4 4 396 1584
105	2383005 2159 5030 542804 2 100 99 0.022473 0.02696336024 2.47152636024 0.061711645824432
106	2385164 1558 5030 542804 2 100 99 0 0 0 0
107	2386722 1558 5031 542805 2 100 99 5 5 495 2475
108	2388280 2159 5031 542805 2 100 99 0.022473 0.02696336024 2.47152636024 0.061711645824432
109	2390439 1558 5031 542805 2 100 99 0 0 0 0
110	2391997 1558 5032 542806 2 100 99 6 6 594 3564
111	2393555 2160 5032 542806 2 100 99 0.022473 0.026963400269 2.471526400269 0.061711647983066
112	2395715 1558 5032 542806 2 100 99 0 0 0 0
113	2397273 1558 5033 542807 2 100 99 7 7 693 4851
114	2398831 2160 5033 542807 2 100 99 0.022473 0.026963440294 2.471526440294 0.061711650141488
115	2400991 1558 5033 542807 2 100 99 0 0 0 0

