file 2396235 1720470445                                         
version 3
run BreakRanksNoGui-21-20240708-22:27:15-165675
attr configname BreakRanksNoGui
attr datetime 20240708-22:27:15
attr datetimef 20240708-222715
attr experiment BreakRanksNoGui
attr inifile omnetpp.ini
attr iterationvars "$nCars=8, $platoonSize=8, $nLanes=1, $ploegH=0.5, $controller=1, $headway=0.1, $leaderHeadway=1.2, $leaderSpeed=150, $breakRanksSafetyDistance=2, $minSpeed=140, $maxSpeed=160, $beaconInterval=0.1, $priority=4, $packetSize=200, $sController=\"CACC\", $0=2, $1=0"
attr iterationvarsd nCars=8/platoonSize=8/nLanes=1/ploegH=0.5/controller=1/headway=0.1/leaderHeadway=1.2/leaderSpeed=150/breakRanksSafetyDistance=2/minSpeed=140/maxSpeed=160/beaconInterval=0.1/priority=4/packetSize=200/sController=CACC/2/0
attr iterationvarsf nCars=8,platoonSize=8,nLanes=1,ploegH=0.5,controller=1,headway=0.1,leaderHeadway=1.2,leaderSpeed=150,breakRanksSafetyDistance=2,minSpeed=140,maxSpeed=160,beaconInterval=0.1,priority=4,packetSize=200,sController=CACC,2,0-
attr measurement "$nCars=8, $platoonSize=8, $nLanes=1, $ploegH=0.5, $controller=1, $headway=0.1, $leaderHeadway=1.2, $leaderSpeed=150, $breakRanksSafetyDistance=2, $minSpeed=140, $maxSpeed=160, $beaconInterval=0.1, $priority=4, $packetSize=200, $sController=\"CACC\", $0=2, $1=0"
attr network Highway
attr processid 165675
attr repetition 1
attr replication #1
attr resultdir results
attr runnumber 21
attr seedset 1
itervar beaconInterval 0.1
itervar breakRanksSafetyDistance 2
itervar controller 1
itervar headway 0.1
itervar leaderHeadway 1.2
itervar leaderSpeed 150
itervar maxSpeed 160
itervar minSpeed 140
itervar nCars 8
itervar nLanes 1
itervar packetSize 200
itervar platoonSize 8
itervar ploegH 0.5
itervar priority 4
itervar sController "\"CACC\""
config image-path ../../../veins/images
config repeat 10
config extends BreakRanks
config *.manager.command "\"sumo\""
config *.manager.ignoreGuiCommands true
config output-vector-file results/BreakRanks_1_0.1_150_2/result_1.vec
config output-scalar-file results/BreakRanks_1_0.1_150_2/result_1.sca
config extends Platooning
config *.node[*].scenario_type "\"BreakRanksScenario\""
config *.manager.command "\"sumo-gui\""
config *.node[*].scenario_type "\"SimpleScenario\""
config cmdenv-express-mode true
config cmdenv-autoflush true
config cmdenv-status-frequency 15s
config num-rngs 6
config network Highway
config debug-on-errors true
config print-undisposed true
config *.playgroundSizeX 65000m
config *.playgroundSizeY 25000m
config *.playgroundSizeZ 50m
config sim-time-limit "100 s"
config *.annotations.draw false
config *.obstacles.debug false
config *.world.useTorus false
config *.world.use2D false
config *.manager.updateInterval 0.01s
config *.manager.host "\"localhost\""
config *.manager.moduleType "\"org.car2x.plexe.PlatoonCar\""
config *.manager.moduleName "\"node\""
config *.manager.moduleDisplayString "\"\""
config *.manager.autoShutdown true
config *.manager.margin 25
config *.connectionManager.sendDirect true
config *.connectionManager.maxInterfDist 2600m
config *.connectionManager.drawMaxIntfDist false
config *.**.nic.mac1609_4.useServiceChannel false
config *.**.nic.mac1609_4.txPower 100mW
config *.**.nic.mac1609_4.bitrate 6Mbps
config *.**.nic.mac1609_4.useAcks true
config *.**.nic.mac1609_4.ackErrorRate 0.0
config *.**.nic.mac1609_4.frameErrorRate 0.0
config *.**.nic.phy80211p.minPowerLevel -94dBm
config *.**.nic.phy80211p.maxTXPower 100mW
config *.**.nic.phy80211p.useNoiseFloor true
config *.**.nic.phy80211p.noiseFloor -95dBm
config *.**.nic.phy80211p.decider "xmldoc(\"config.xml\")"
config *.**.nic.phy80211p.analogueModels "xmldoc(\"config.xml\")"
config *.**.nic.phy80211p.usePropagationDelay true
config *.node[*].mobility.x 0
config *.node[*].mobility.y 0
config *.node[*].mobility.z 1.895
config seed-set 1
config **.seed 1
config *.node[*].prot.rng-0 2
config *.node[*].appl.rng-0 3
config *.node[*].scenario.rng-0 4
config **.traffic.rng-0 5
config *.manager.configFile "\"./sumocfg/freeway.sumo.cfg\""
config *.manager.launchConfig "xmldoc(\"./sumocfg/freeway.launchd.xml\")"
config **.numberOfCars 8
config **.numberOfCarsPerPlatoon 8
config **.numberOfLanes 1
config *.node[*].helper_type "\"PositionHelper\""
config *.node[*].scenario.caccC1 0.5
config *.node[*].scenario.caccXi 1
config *.node[*].scenario.caccOmegaN "0.2 Hz"
config *.node[*].scenario.caccSpacing "2 m"
config *.node[*].scenario.engineTau "0.5 s"
config *.node[*].scenario.ploegH 0.5s
config *.node[*].scenario.ploegKp 0.2
config *.node[*].scenario.ploegKd 0.7
config *.node[*].scenario.useRealisticEngine false
config *.node[*].scenario.useControllerAcceleration true
config *.node[*].scenario.nLanes 1
config **.numericController 1
config **.headway 0.1s
config *.node[*].scenario.accHeadway 0.1s
config *.node[*].scenario.leaderHeadway 1.2s
config *.node[*].scenario.leaderSpeed 150kmph
config *.node[*].appl_type "\"SimplePlatooningApp\""
config *.node[*].appl.*.scalar-recording true
config *.node[*].appl.*.vector-recording true
config *.node[0].appl.breakRanksSafetyDistance 2m
config *.node[*].appl.minSpeed 140kmph
config *.node[*].appl.maxSpeed 160kmph
config *.node[*].protocol_type "\"SimplePlatooningBeaconing\""
config *.node[*].prot.*.scalar-recording true
config *.node[*].prot.*.vector-recording true
config *.node[*].prot.beaconingInterval 0.1s
config *.node[*].prot.priority 4
config *.node[*].prot.packetSize 200
config **.traffic_type "\"PlatoonsTrafficManager\""
config **.traffic.platoonInsertTime "1 s"
config **.traffic.platoonInsertSpeed 150kmph
config **.traffic.nCars 8
config **.traffic.platoonSize 8
config **.traffic.nLanes 1
config **.traffic.platooningVType "\"vtypeauto\""
config **.traffic.controller "\"CACC\""
config **.traffic.platoonInsertDistance 2m
config **.traffic.platoonInsertHeadway 0s
config **.traffic.platoonLeaderHeadway 1.2s
config **.scalar-recording false
config **.vector-recording false
config output-vector-file results/BreakRanksNoGui_1_0.1_150_2/result_1.vec
config output-scalar-file results/BreakRanksNoGui_1_0.1_150_2/result_1.sca

vector 0 Highway.node[0].appl distance ETV
vector 1 Highway.node[0].appl relativeSpeed ETV
vector 2 Highway.node[0].appl nodeId ETV
vector 3 Highway.node[0].appl acceleration ETV
vector 4 Highway.node[0].appl controllerAcceleration ETV
vector 5 Highway.node[0].appl speed ETV
vector 6 Highway.node[0].appl posx ETV
vector 7 Highway.node[0].appl posy ETV
vector 8 Highway.node[1].appl distance ETV
vector 9 Highway.node[1].appl relativeSpeed ETV
vector 10 Highway.node[1].appl nodeId ETV
vector 11 Highway.node[1].appl acceleration ETV
vector 12 Highway.node[1].appl controllerAcceleration ETV
vector 13 Highway.node[1].appl speed ETV
vector 14 Highway.node[1].appl posx ETV
vector 15 Highway.node[1].appl posy ETV
vector 16 Highway.node[2].appl distance ETV
vector 17 Highway.node[2].appl relativeSpeed ETV
vector 18 Highway.node[2].appl nodeId ETV
vector 19 Highway.node[2].appl acceleration ETV
vector 20 Highway.node[2].appl controllerAcceleration ETV
vector 21 Highway.node[2].appl speed ETV
vector 22 Highway.node[2].appl posx ETV
vector 23 Highway.node[2].appl posy ETV
vector 24 Highway.node[3].appl distance ETV
vector 25 Highway.node[3].appl relativeSpeed ETV
vector 26 Highway.node[3].appl nodeId ETV
vector 27 Highway.node[3].appl acceleration ETV
vector 28 Highway.node[3].appl controllerAcceleration ETV
vector 29 Highway.node[3].appl speed ETV
vector 30 Highway.node[3].appl posx ETV
vector 31 Highway.node[3].appl posy ETV
vector 32 Highway.node[4].appl distance ETV
vector 33 Highway.node[4].appl relativeSpeed ETV
vector 34 Highway.node[4].appl nodeId ETV
vector 35 Highway.node[4].appl acceleration ETV
vector 36 Highway.node[4].appl controllerAcceleration ETV
vector 37 Highway.node[4].appl speed ETV
vector 38 Highway.node[4].appl posx ETV
vector 39 Highway.node[4].appl posy ETV
vector 40 Highway.node[5].appl distance ETV
vector 41 Highway.node[5].appl relativeSpeed ETV
vector 42 Highway.node[5].appl nodeId ETV
vector 43 Highway.node[5].appl acceleration ETV
vector 44 Highway.node[5].appl controllerAcceleration ETV
vector 45 Highway.node[5].appl speed ETV
vector 46 Highway.node[5].appl posx ETV
vector 47 Highway.node[5].appl posy ETV
vector 48 Highway.node[6].appl distance ETV
vector 49 Highway.node[6].appl relativeSpeed ETV
vector 50 Highway.node[6].appl nodeId ETV
vector 51 Highway.node[6].appl acceleration ETV
vector 52 Highway.node[6].appl controllerAcceleration ETV
vector 53 Highway.node[6].appl speed ETV
vector 54 Highway.node[6].appl posx ETV
vector 55 Highway.node[6].appl posy ETV
vector 56 Highway.node[7].appl distance ETV
vector 57 Highway.node[7].appl relativeSpeed ETV
vector 58 Highway.node[7].appl nodeId ETV
vector 59 Highway.node[7].appl acceleration ETV
vector 60 Highway.node[7].appl controllerAcceleration ETV
vector 61 Highway.node[7].appl speed ETV
vector 62 Highway.node[7].appl posx ETV
vector 63 Highway.node[7].appl posy ETV
vector 64 Highway.node[2].prot frontDelay ETV
vector 65 Highway.node[2].prot frontDelayId ETV
vector 66 Highway.node[4].prot frontDelay ETV
vector 67 Highway.node[4].prot frontDelayId ETV
vector 68 Highway.node[6].prot frontDelay ETV
vector 69 Highway.node[6].prot frontDelayId ETV
vector 70 Highway.node[7].prot frontDelay ETV
vector 71 Highway.node[7].prot frontDelayId ETV
vector 72 Highway.node[5].prot frontDelay ETV
vector 73 Highway.node[5].prot frontDelayId ETV
vector 74 Highway.node[1].prot leaderDelay ETV
vector 75 Highway.node[1].prot leaderDelayId ETV
vector 76 Highway.node[1].prot frontDelay ETV
vector 77 Highway.node[1].prot frontDelayId ETV
vector 78 Highway.node[2].prot leaderDelay ETV
vector 79 Highway.node[2].prot leaderDelayId ETV
vector 80 Highway.node[3].prot leaderDelay ETV
vector 81 Highway.node[3].prot leaderDelayId ETV
vector 82 Highway.node[4].prot leaderDelay ETV
vector 83 Highway.node[4].prot leaderDelayId ETV
vector 84 Highway.node[5].prot leaderDelay ETV
vector 85 Highway.node[5].prot leaderDelayId ETV
vector 86 Highway.node[6].prot leaderDelay ETV
vector 87 Highway.node[6].prot leaderDelayId ETV
vector 88 Highway.node[7].prot leaderDelay ETV
vector 89 Highway.node[7].prot leaderDelayId ETV
vector 90 Highway.node[3].prot frontDelay ETV
vector 91 Highway.node[3].prot frontDelayId ETV
vector 92 Highway.node[0].prot nodeId ETV
vector 93 Highway.node[0].prot busyTime ETV
vector 94 Highway.node[0].prot collisions ETV
vector 95 Highway.node[1].prot nodeId ETV
vector 96 Highway.node[1].prot busyTime ETV
vector 97 Highway.node[1].prot collisions ETV
vector 98 Highway.node[2].prot nodeId ETV
vector 99 Highway.node[2].prot busyTime ETV
vector 100 Highway.node[2].prot collisions ETV
vector 101 Highway.node[3].prot nodeId ETV
vector 102 Highway.node[3].prot busyTime ETV
vector 103 Highway.node[3].prot collisions ETV
vector 104 Highway.node[4].prot nodeId ETV
vector 105 Highway.node[4].prot busyTime ETV
vector 106 Highway.node[4].prot collisions ETV
vector 107 Highway.node[5].prot nodeId ETV
vector 108 Highway.node[5].prot busyTime ETV
vector 109 Highway.node[5].prot collisions ETV
vector 110 Highway.node[6].prot nodeId ETV
vector 111 Highway.node[6].prot busyTime ETV
vector 112 Highway.node[6].prot collisions ETV
vector 113 Highway.node[7].prot nodeId ETV
vector 114 Highway.node[7].prot busyTime ETV
vector 115 Highway.node[7].prot collisions ETV
0	11335 20972 113 542135 1.11 99.91 989 -1 137.343 51663.9411 4404639.5499719
1	32307 20204 113 542135 1.11 99.91 989 0 2.3333 1411.96779 2956.0625919869
2	52511 16523 113 542135 1.11 99.91 989 0 0 0 0
3	69034 21697 113 542135 1.11 99.91 989 -0.142863 0.0962891 -0.030866551206636 0.29042371918589
4	90731 26465 113 542135 1.11 99.91 989 -0.261364 0.127273 0.062944248468607 0.48127199914156
5	117196 22439 113 542135 1.11 99.91 989 41.5105 41.6734 41205.072900001 1716742.5874366
6	139635 22164 113 542135 1.11 99.91 989 53.3603 4169.7 2088390.4826 5809176964.9527
7	161799 21468 113 542135 1.11 99.91 989 242.45 242.45 239783.05 58135400.472499
8	183267 17939 114 542136 1.11 99.91 989 -1 2 -719.05706 1258.7718004168
9	201206 17458 114 542136 1.11 99.91 989 -0.000401432 6.60441e-05 -0.005950002078 2.4402784564518e-06
10	218664 17512 114 542136 1.11 99.91 989 1 1 989 989
11	236176 21520 114 542136 1.11 99.91 989 -0.0586951 1.31565 23.324450806757 23.774026142731
12	257696 27919 114 542136 1.11 99.91 989 -0.0911793 1.5 23.18827525935 31.37805940479
13	285615 19482 114 542136 1.11 99.91 989 41.6666 44.0912 43277.9903 1894298.2205452
14	305097 23438 114 542136 1.11 99.91 989 47.3603 4370.88 2174324.4108 6336040821.5622
15	328535 22457 114 542136 1.11 99.91 989 242.45 245.75 240396.85 58435057.632499
16	350992 23350 115 542137 1.11 99.91 989 1.9997 256.928 101013.0394 15622298.992003
17	374342 20140 115 542137 1.11 99.91 989 -5.60731e-05 4 3459.6730451047 13443.226316748
18	394482 17512 115 542137 1.11 99.91 989 2 2 1978 3956
19	411994 21495 115 542137 1.11 99.91 989 -2.38342 0.113179 -36.635779027032 68.488780332517
20	433489 27348 115 542137 1.11 99.91 989 -3.6372 0.175991 -34.998773107958 96.785516544419
21	460837 19485 115 542137 1.11 99.91 989 37.8241 41.67 37946.0444 1457086.7450748
22	480322 23437 115 542137 1.11 99.91 989 41.3603 3831.98 1931471.6713 4942506845.6711
23	503759 22457 115 542137 1.11 99.91 989 242.45 242.45 239783.05 58135400.472499
24	526216 23325 116 542138 1.11 99.91 989 1.99974 92.8219 65365.48441 5225942.8239978
25	549541 24052 116 542138 1.11 99.91 989 -0.489547 6.5873 406.15102560849 1856.4257141606
26	573593 17512 116 542138 1.11 99.91 989 3 3 2967 8901
27	591105 22474 116 542138 1.11 99.91 989 -3.34517 1.49722 3.367868141584 277.5929200548
28	613579 27206 116 542138 1.11 99.91 989 -4.16037 1.5 5.643434116456 330.59147521711
29	640785 20215 116 542138 1.11 99.91 989 34.0217 42.1037 40617.3266 1672801.3097558
30	661000 23421 116 542138 1.11 99.91 989 35.3603 4092.91 2010830.4517 5460324539.3853
31	684421 22457 116 542138 1.11 99.91 989 242.45 245.75 240383.65 58428613.392499
32	706878 20955 117 542139 1.11 99.91 989 -1 123.453 35128.72084 3450292.4766469
33	727833 19624 117 542139 1.11 99.91 989 -2.60849e-05 6.45778 611.52115657378 1515.5258181142
34	747457 17512 117 542139 1.11 99.91 989 4 4 3956 15824
35	764969 21925 117 542139 1.11 99.91 989 -3.62402 1.49338 13.405737160276 192.25004493722
36	786894 27009 117 542139 1.11 99.91 989 -4.16321 1.5 14.924078818854 295.74501309051
37	813903 19783 117 542139 1.11 99.91 989 37.2339 43.0071 42182.9599 1800121.5315005
38	833686 23433 117 542139 1.11 99.91 989 29.3603 4243.42 2099133.6433 5933825650.8195
39	857119 22457 117 542139 1.11 99.91 989 242.45 245.75 241865.35 59151979.332499
40	879576 21920 118 542140 1.11 99.91 989 -1 92.3238 36222.77439 2336813.2863213
41	901496 19502 118 542140 1.11 99.91 989 -4.56285e-05 2 818.75678468602 1265.4991841012
42	920998 17512 118 542140 1.11 99.91 989 5 5 4945 24725
43	938510 24739 118 542140 1.11 99.91 989 -3.61601 1.45119 -6.6366226300701 150.78464442496
44	963249 27312 118 542140 1.11 99.91 989 -4.1632 1.5 -6.0695260579186 257.43793479931
45	990561 20157 118 542140 1.11 99.91 989 37.6625 41.67 40521.9762 1660538.416683
46	1010718 22973 118 542140 1.11 99.91 989 23.3603 4071.42 2024686.6297 5497123288.12
47	1033691 22457 118 542140 1.11 99.91 989 242.45 249.05 243683.65 60046098.4925
48	1056148 23156 119 542141 1.11 99.91 989 1.9999 81.6041 42094.64886 2088331.6345178
49	1079304 24908 119 542141 1.11 99.91 989 -2.47482e-05 7.48164 951.91333082775 4080.900902736
50	1104212 17512 119 542141 1.11 99.91 989 6 6 5934 35604
51	1121724 26407 119 542141 1.11 99.91 989 -3.61714 1.49651 -36.619388371325 319.85576012805
52	1148131 26282 119 542141 1.11 99.91 989 -4.1632 1.5 -34.766401952285 390.16346605214
53	1174413 23013 119 542141 1.11 99.91 989 32.6459 41.67 37670.1596 1436902.0371461
54	1197426 23289 119 542141 1.11 99.91 989 17.3603 3780.39 1886326.4197 4753114555.7216
55	1220715 22457 119 542141 1.11 99.91 989 242.45 252.35 241149.25 58808063.892499
56	1243172 19459 120 542142 1.11 99.91 989 -1 63.8632 6324.61815 402379.36335473
57	1262631 18552 120 542142 1.11 99.91 989 -2.13393e-05 1 118.99912068548 119.00000001333
58	1281183 17512 120 542142 1.11 99.91 989 7 7 6923 48461
59	1298695 21655 120 542142 1.11 99.91 989 -3.37821 1.44384 3.4079909915994 111.1483469917
60	1320350 27763 120 542142 1.11 99.91 989 -4.1632 1.5 4.9510660341355 209.66534800785
61	1348113 19595 120 542142 1.11 99.91 989 38.7242 42.1002 41428.8281 1735630.4022637
62	1367708 23412 120 542142 1.11 99.91 989 11.3603 4150.06 2053427.3208 5681784478.1306
63	1391120 22457 120 542142 1.11 99.91 989 242.45 252.35 245396.35 60899902.2125
64	1413577 39938 702 542202 1.212421340237 99.912424489327 988 0.09998732021 0.100006685103 98.800003469313 9.8800007215983
65	1453515 27254 702 542202 1.212421340237 99.912424489327 988 2 2 1976 3952
66	1480769 39993 770 542258 1.235022380265 99.935025120989 988 0.09998732021 0.100006684102 98.800003060947 9.8800006398882
67	1520762 27272 770 542258 1.235022380265 99.935025120989 988 4 4 3952 15808
68	1548034 39979 837 542337 1.248692420293 99.948695662677 988 0.09998732021 0.1000066851 98.800003562607 9.8800007402273
69	1588013 27258 837 542337 1.248692420293 99.948695662677 988 6 6 5928 35568
70	1615271 39932 905 542393 1.263870440307 99.963874896603 988 0.09998732021 0.1000066791 98.800004776519 9.8800009829839
71	1655203 27231 905 542393 1.263870440307 99.963874896603 988 7 7 6916 48412
72	1682434 39985 1040 542534 1.297372520363 99.997364782955 988 0.09998732021 0.1000066801 98.799992582815 9.8799985443289
73	1722419 27286 1040 542534 1.297372520363 99.997364782955 988 5 5 4940 24700
74	1749705 39986 1100 542600 1.297782600418 99.997788126582 988 0.099987320211 0.100009646031 98.799992846387 9.8799985973355
75	1789691 27295 1100 542600 1.297782600418 99.997788126582 988 1 1 988 988
76	1816986 39986 1100 542600 1.297782600418 99.997788126582 988 0.099987320211 0.100009646031 98.799992846387 9.8799985973355
77	1856972 27295 1100 542600 1.297782600418 99.997788126582 988 1 1 988 988
78	1884267 39992 1106 542606 1.297782620432 99.997788582446 988 0.099987320211 0.100009643206 98.799993282237 9.8799986845055
79	1924259 27273 1106 542606 1.297782620432 99.997788582446 988 2 2 1976 3952
80	1951532 39951 1112 542588 1.297782640445 99.997787710882 988 0.099987320211 0.100009643206 98.799992390659 9.8799985061899
81	1991483 27223 1112 542588 1.297782640445 99.997787710882 988 3 3 2964 8892
82	2018706 39973 1118 542582 1.297782660459 99.997787701144 988 0.09998732021 0.100009643207 98.799992360908 9.8799985002397
83	2058679 27272 1118 542582 1.297782660459 99.997787701144 988 4 4 3952 15808
84	2085951 39959 1124 542594 1.297782680473 99.997787783034 988 0.099987320211 0.100009643206 98.799992422784 9.8799985126149
85	2125910 27266 1124 542594 1.297782680473 99.997787783034 988 5 5 4940 24700
86	2153176 39954 1130 542612 1.297782700487 99.997788754527 988 0.099987320211 0.100009643207 98.799993374263 9.8799987029107
87	2193130 27260 1130 542612 1.297782700487 99.997788754527 988 6 6 5928 35568
88	2220390 39976 1136 542576 1.297782720501 99.99778752117 988 0.099987320211 0.100009643206 98.799992120892 9.8799984522365
89	2260366 27263 1136 542576 1.297782720501 99.99778752117 988 7 7 6916 48412
90	2287629 39943 1173 542109 1.307201640446 99.907201764372 987 0.09998732021 0.100006675101 98.700000444149 9.8700001164874
91	2327572 27248 1173 542109 1.307201640446 99.907201764372 987 3 3 2961 8883
92	2354820 1459 4960 542614 2 100 99 0 0 0 0
93	2356279 2061 4960 542614 2 100 99 0.022161 0.027139440936 2.471390440936 0.061707246475319
94	2358340 1459 4960 542614 2 100 99 0 0 0 0
95	2359799 1459 4961 542615 2 100 99 1 1 99 99
96	2361258 2060 4961 542615 2 100 99 0.022161 0.02684236024 2.47109336024 0.061691209524254
97	2363318 1459 4961 542615 2 100 99 0 0 0 0
98	2364777 1459 4962 542616 2 100 99 2 2 198 396
99	2366236 2060 4962 542616 2 100 99 0.02216 0.026842280186 2.471092280186 0.061691160905584
100	2368296 1558 4962 542616 2 100 99 0 0 0 0
101	2369854 1558 4963 542617 2 100 99 3 3 297 891
102	2371412 2160 4963 542617 2 100 99 0.022161 0.026842400266 2.471093400266 0.06169121167304
103	2373572 1558 4963 542617 2 100 99 0 0 0 0
104	2375130 1558 4964 542618 2 100 99 4 4 396 1584
105	2376688 2160 4964 542618 2 100 99 0.022161 0.026842280184 2.471093280184 0.061691205226476
106	2378848 1558 4964 542618 2 100 99 0 0 0 0
107	2380406 1558 4965 542619 2 100 99 5 5 495 2475
108	2381964 2160 4965 542619 2 100 99 0.022161 0.026935520343 2.471186520343 0.061696219477148
109	2384124 1558 4965 542619 2 100 99 0 0 0 0
110	2385682 1558 4966 542620 2 100 99 6 6 594 3564
111	2387240 2160 4966 542620 2 100 99 0.022161 0.026842320212 2.471093320212 0.061691207375363
112	2389400 1558 4966 542620 2 100 99 0 0 0 0
113	2390958 1558 4967 542621 2 100 99 7 7 693 4851
114	2392516 2160 4967 542621 2 100 99 0.022161 0.026935600394 2.471186600394 0.061696223789585
115	2394676 1558 4967 542621 2 100 99 0 0 0 0

