version 3
run BreakRanksNoGui-26-20240708-22:28:18-165739
attr configname BreakRanksNoGui
attr datetime 20240708-22:28:18
attr datetimef 20240708-222818
attr experiment BreakRanksNoGui
attr inifile omnetpp.ini
attr iterationvars "$nCars=8, $platoonSize=8, $nLanes=1, $ploegH=0.5, $controller=1, $headway=0.1, $leaderHeadway=1.2, $leaderSpeed=150, $breakRanksSafetyDistance=2, $minSpeed=140, $maxSpeed=160, $beaconInterval=0.1, $priority=4, $packetSize=200, $sController=\"CACC\", $0=2, $1=0"
attr iterationvarsd nCars=8/platoonSize=8/nLanes=1/ploegH=0.5/controller=1/headway=0.1/leaderHeadway=1.2/leaderSpeed=150/breakRanksSafetyDistance=2/minSpeed=140/maxSpeed=160/beaconInterval=0.1/priority=4/packetSize=200/sController=CACC/2/0
attr iterationvarsf nCars=8,platoonSize=8,nLanes=1,ploegH=0.5,controller=1,headway=0.1,leaderHeadway=1.2,leaderSpeed=150,breakRanksSafetyDistance=2,minSpeed=140,maxSpeed=160,beaconInterval=0.1,priority=4,packetSize=200,sController=CACC,2,0-
attr measurement "$nCars=8, $platoonSize=8, $nLanes=1, $ploegH=0.5, $controller=1, $headway=0.1, $leaderHeadway=1.2, $leaderSpeed=150, $breakRanksSafetyDistance=2, $minSpeed=140, $maxSpeed=160, $beaconInterval=0.1, $priority=4, $packetSize=200, $sController=\"CACC\", $0=2, $1=0"
attr network Highway
attr processid 165739
attr repetition 6
attr replication #6
attr resultdir results
attr runnumber 26
attr seedset 6
itervar beaconInterval 0.1
itervar breakRanksSafetyDistance 2
itervar controller 1
itervar headway 0.1
itervar leaderHeadway 1.2
itervar leaderSpeed 150
itervar maxSpeed 160
itervar minSpeed 140
itervar nCars 8
itervar nLanes 1
itervar packetSize 200
itervar platoonSize 8
itervar ploegH 0.5
itervar priority 4
itervar sController "\"CACC\""
config image-path ../../../veins/images
config repeat 10
config extends BreakRanks
config *.manager.command "\"sumo\""
config *.manager.ignoreGuiCommands true
config output-vector-file results/BreakRanks_1_0.1_150_2/result_6.vec
config output-scalar-file results/BreakRanks_1_0.1_150_2/result_6.sca
config extends Platooning
config *.node[*].scenario_type "\"BreakRanksScenario\""
config *.manager.command "\"sumo-gui\""
config *.node[*].scenario_type "\"SimpleScenario\""
config cmdenv-express-mode true
config cmdenv-autoflush true
config cmdenv-status-frequency 15s
config num-rngs 6
config network Highway
config debug-on-errors true
config print-undisposed true
config *.playgroundSizeX 65000m
config *.playgroundSizeY 25000m
config *.playgroundSizeZ 50m
config sim-time-limit "100 s"
config *.annotations.draw false
config *.obstacles.debug false
config *.world.useTorus false
config *.world.use2D false
config *.manager.updateInterval 0.01s
config *.manager.host "\"localhost\""
config *.manager.moduleType "\"org.car2x.plexe.PlatoonCar\""
config *.manager.moduleName "\"node\""
config *.manager.moduleDisplayString "\"\""
config *.manager.autoShutdown true
config *.manager.margin 25
config *.connectionManager.sendDirect true
config *.connectionManager.maxInterfDist 2600m
config *.connectionManager.drawMaxIntfDist false
config *.**.nic.mac1609_4.useServiceChannel false
config *.**.nic.mac1609_4.txPower 100mW
config *.**.nic.mac1609_4.bitrate 6Mbps
config *.**.nic.mac1609_4.useAcks true
config *.**.nic.mac1609_4.ackErrorRate 0.0
config *.**.nic.mac1609_4.frameErrorRate 0.0
config *.**.nic.phy80211p.minPowerLevel -94dBm
config *.**.nic.phy80211p.maxTXPower 100mW
config *.**.nic.phy80211p.useNoiseFloor true
config *.**.nic.phy80211p.noiseFloor -95dBm
config *.**.nic.phy80211p.decider "xmldoc(\"config.xml\")"
config *.**.nic.phy80211p.analogueModels "xmldoc(\"config.xml\")"
config *.**.nic.phy80211p.usePropagationDelay true
config *.node[*].mobility.x 0
config *.node[*].mobility.y 0
config *.node[*].mobility.z 1.895
config seed-set 6
config **.seed 6
config *.node[*].prot.rng-0 2
config *.node[*].appl.rng-0 3
config *.node[*].scenario.rng-0 4
config **.traffic.rng-0 5
config *.manager.configFile "\"./sumocfg/freeway.sumo.cfg\""
config *.manager.launchConfig "xmldoc(\"./sumocfg/freeway.launchd.xml\")"
config **.numberOfCars 8
config **.numberOfCarsPerPlatoon 8
config **.numberOfLanes 1
config *.node[*].helper_type "\"PositionHelper\""
config *.node[*].scenario.caccC1 0.5
config *.node[*].scenario.caccXi 1
config *.node[*].scenario.caccOmegaN "0.2 Hz"
config *.node[*].scenario.caccSpacing "2 m"
config *.node[*].scenario.engineTau "0.5 s"
config *.node[*].scenario.ploegH 0.5s
config *.node[*].scenario.ploegKp 0.2
config *.node[*].scenario.ploegKd 0.7
config *.node[*].scenario.useRealisticEngine false
config *.node[*].scenario.useControllerAcceleration true
config *.node[*].scenario.nLanes 1
config **.numericController 1
config **.headway 0.1s
config *.node[*].scenario.accHeadway 0.1s
config *.node[*].scenario.leaderHeadway 1.2s
config *.node[*].scenario.leaderSpeed 150kmph
config *.node[*].appl_type "\"SimplePlatooningApp\""
config *.node[*].appl.*.scalar-recording true
config *.node[*].appl.*.vector-recording true
config *.node[0].appl.breakRanksSafetyDistance 2m
config *.node[*].appl.minSpeed 140kmph
config *.node[*].appl.maxSpeed 160kmph
config *.node[*].protocol_type "\"SimplePlatooningBeaconing\""
config *.node[*].prot.*.scalar-recording true
config *.node[*].prot.*.vector-recording true
config *.node[*].prot.beaconingInterval 0.1s
config *.node[*].prot.priority 4
config *.node[*].prot.packetSize 200
config **.traffic_type "\"PlatoonsTrafficManager\""
config **.traffic.platoonInsertTime "1 s"
config **.traffic.platoonInsertSpeed 150kmph
config **.traffic.nCars 8
config **.traffic.platoonSize 8
config **.traffic.nLanes 1
config **.traffic.platooningVType "\"vtypeauto\""
config **.traffic.controller "\"CACC\""
config **.traffic.platoonInsertDistance 2m
config **.traffic.platoonInsertHeadway 0s
config **.traffic.platoonLeaderHeadway 1.2s
config **.scalar-recording false
config **.vector-recording false
config output-vector-file results/BreakRanksNoGui_1_0.1_150_2/result_6.vec
config output-scalar-file results/BreakRanksNoGui_1_0.1_150_2/result_6.sca

vector 0 Highway.node[0].appl distance ETV
vector 1 Highway.node[0].appl relativeSpeed ETV
vector 2 Highway.node[0].appl nodeId ETV
vector 3 Highway.node[0].appl acceleration ETV
vector 4 Highway.node[0].appl controllerAcceleration ETV
vector 5 Highway.node[0].appl speed ETV
vector 6 Highway.node[0].appl posx ETV
vector 7 Highway.node[0].appl posy ETV
vector 8 Highway.node[1].appl distance ETV
vector 9 Highway.node[1].appl relativeSpeed ETV
vector 10 Highway.node[1].appl nodeId ETV
vector 11 Highway.node[1].appl acceleration ETV
vector 12 Highway.node[1].appl controllerAcceleration ETV
vector 13 Highway.node[1].appl speed ETV
vector 14 Highway.node[1].appl posx ETV
vector 15 Highway.node[1].appl posy ETV
vector 16 Highway.node[2].appl distance ETV
vector 17 Highway.node[2].appl relativeSpeed ETV
vector 18 Highway.node[2].appl nodeId ETV
vector 19 Highway.node[2].appl acceleration ETV
vector 20 Highway.node[2].appl controllerAcceleration ETV
vector 21 Highway.node[2].appl speed ETV
vector 22 Highway.node[2].appl posx ETV
vector 23 Highway.node[2].appl posy ETV
vector 24 Highway.node[3].appl distance ETV
vector 25 Highway.node[3].appl relativeSpeed ETV
vector 26 Highway.node[3].appl nodeId ETV
vector 27 Highway.node[3].appl acceleration ETV
vector 28 Highway.node[3].appl controllerAcceleration ETV
vector 29 Highway.node[3].appl speed ETV
vector 30 Highway.node[3].appl posx ETV
vector 31 Highway.node[3].appl posy ETV
vector 32 Highway.node[4].appl distance ETV
vector 33 Highway.node[4].appl relativeSpeed ETV
vector 34 Highway.node[4].appl nodeId ETV
vector 35 Highway.node[4].appl acceleration ETV
vector 36 Highway.node[4].appl controllerAcceleration ETV
vector 37 Highway.node[4].appl speed ETV
vector 38 Highway.node[4].appl posx ETV
vector 39 Highway.node[4].appl posy ETV
vector 40 Highway.node[5].appl distance ETV
vector 41 Highway.node[5].appl relativeSpeed ETV
vector 42 Highway.node[5].appl nodeId ETV
vector 43 Highway.node[5].appl acceleration ETV
vector 44 Highway.node[5].appl controllerAcceleration ETV
vector 45 Highway.node[5].appl speed ETV
vector 46 Highway.node[5].appl posx ETV
vector 47 Highway.node[5].appl posy ETV
vector 48 Highway.node[6].appl distance ETV
vector 49 Highway.node[6].appl relativeSpeed ETV
vector 50 Highway.node[6].appl nodeId ETV
vector 51 Highway.node[6].appl acceleration ETV
vector 52 Highway.node[6].appl controllerAcceleration ETV
vector 53 Highway.node[6].appl speed ETV
vector 54 Highway.node[6].appl posx ETV
vector 55 Highway.node[6].appl posy ETV
vector 56 Highway.node[7].appl distance ETV
vector 57 Highway.node[7].appl relativeSpeed ETV
vector 58 Highway.node[7].appl nodeId ETV
vector 59 Highway.node[7].appl acceleration ETV
vector 60 Highway.node[7].appl controllerAcceleration ETV
vector 61 Highway.node[7].appl speed ETV
vector 62 Highway.node[7].appl posx ETV
vector 63 Highway.node[7].appl posy ETV
vector 64 Highway.node[1].prot leaderDelay ETV
vector 65 Highway.node[1].prot leaderDelayId ETV
vector 66 Highway.node[1].prot frontDelay ETV
vector 67 Highway.node[1].prot frontDelayId ETV
vector 68 Highway.node[2].prot leaderDelay ETV
vector 69 Highway.node[2].prot leaderDelayId ETV
vector 70 Highway.node[3].prot leaderDelay ETV
vector 71 Highway.node[3].prot leaderDelayId ETV
vector 72 Highway.node[4].prot leaderDelay ETV
vector 73 Highway.node[4].prot leaderDelayId ETV
vector 74 Highway.node[5].prot leaderDelay ETV
vector 75 Highway.node[5].prot leaderDelayId ETV
vector 76 Highway.node[6].prot leaderDelay ETV
vector 77 Highway.node[6].prot leaderDelayId ETV
vector 78 Highway.node[7].prot leaderDelay ETV
vector 79 Highway.node[7].prot leaderDelayId ETV
vector 80 Highway.node[7].prot frontDelay ETV
vector 81 Highway.node[7].prot frontDelayId ETV
vector 82 Highway.node[3].prot frontDelay ETV
vector 83 Highway.node[3].prot frontDelayId ETV
vector 84 Highway.node[6].prot frontDelay ETV
vector 85 Highway.node[6].prot frontDelayId ETV
vector 86 Highway.node[2].prot frontDelay ETV
vector 87 Highway.node[2].prot frontDelayId ETV
vector 88 Highway.node[4].prot frontDelay ETV
vector 89 Highway.node[4].prot frontDelayId ETV
vector 90 Highway.node[5].prot frontDelay ETV
vector 91 Highway.node[5].prot frontDelayId ETV
vector 92 Highway.node[0].prot nodeId ETV
vector 93 Highway.node[0].prot busyTime ETV
vector 94 Highway.node[0].prot collisions ETV
vector 95 Highway.node[1].prot nodeId ETV
vector 96 Highway.node[1].prot busyTime ETV
vector 97 Highway.node[1].prot collisions ETV
vector 98 Highway.node[2].prot nodeId ETV
vector 99 Highway.node[2].prot busyTime ETV
vector 100 Highway.node[2].prot collisions ETV
vector 101 Highway.node[3].prot nodeId ETV
vector 102 Highway.node[3].prot busyTime ETV
vector 103 Highway.node[3].prot collisions ETV
vector 104 Highway.node[4].prot nodeId ETV
vector 105 Highway.node[4].prot busyTime ETV
vector 106 Highway.node[4].prot collisions ETV
vector 107 Highway.node[5].prot nodeId ETV
vector 108 Highway.node[5].prot busyTime ETV
vector 109 Highway.node[5].prot collisions ETV
vector 110 Highway.node[6].prot nodeId ETV
vector 111 Highway.node[6].prot busyTime ETV
vector 112 Highway.node[6].prot collisions ETV
vector 113 Highway.node[7].prot nodeId ETV
vector 114 Highway.node[7].prot busyTime ETV
vector 115 Highway.node[7].prot collisions ETV
0	113	1.11	-1
0	659	1.21	-1
0	1205	1.31	-1
0	1751	1.41	-1
0	2297	1.51	-1
0	2843	1.61	-1
0	3389	1.71	-1
0	3935	1.81	-1
0	4481	1.91	-1
0	5035	2.01	-1
0	5581	2.11	-1
0	6127	2.21	-1
0	6673	2.31	-1
0	7219	2.41	-1
0	7765	2.51	-1
0	8311	2.61	-1
0	8857	2.71	-1
0	9403	2.81	-1
0	9949	2.91	-1
0	10503	3.01	-1
0	11049	3.11	-1
0	11595	3.21	-1
0	12141	3.31	-1
0	12687	3.41	-1
0	13233	3.51	-1
0	13779	3.61	-1
0	14325	3.71	-1
0	14871	3.81	-1
0	15417	3.91	-1
0	15971	4.01	-1
0	16517	4.11	-1
0	17063	4.21	-1
0	17609	4.31	-1
0	18155	4.41	-1
0	18701	4.51	-1
0	19247	4.61	-1
0	19793	4.71	-1
0	20339	4.81	-1
0	20885	4.91	-1
0	21439	5.01	-1
0	21985	5.11	-1
0	22531	5.21	-1
0	23077	5.31	-1
0	23623	5.41	-1
0	24169	5.51	-1
0	24715	5.61	-1
0	25261	5.71	-1
0	25807	5.81	-1
0	26353	5.91	-1
0	26907	6.01	-1
0	27453	6.11	-1
0	27999	6.21	-1
0	28545	6.31	-1
0	29091	6.41	-1
0	29637	6.51	-1
0	30183	6.61	-1
0	30729	6.71	-1
0	31275	6.81	-1
0	31821	6.91	-1
0	32375	7.01	-1
0	32921	7.11	-1
0	33467	7.21	-1
0	34013	7.31	-1
0	34559	7.41	-1
0	35105	7.51	-1
0	35651	7.61	-1
0	36197	7.71	-1
0	36743	7.81	-1
0	37289	7.91	-1
0	37843	8.01	-1
0	38389	8.11	-1
0	38935	8.21	-1
0	39481	8.31	-1
0	40027	8.41	-1
0	40573	8.51	-1
0	41119	8.61	-1
0	41665	8.71	-1
0	42211	8.81	-1
0	42757	8.91	-1
0	43311	9.01	-1
0	43857	9.11	-1
0	44403	9.21	-1
0	44949	9.31	-1
0	45495	9.41	-1
0	46041	9.51	-1
0	46587	9.61	-1
0	47133	9.71	-1
0	47679	9.81	-1
0	48225	9.91	-1
0	50557	10.01	-1
0	51103	10.11	-1
0	51649	10.21	-1
0	52195	10.31	-1
0	52741	10.41	-1
0	53287	10.51	-1
0	53833	10.61	-1
0	54379	10.71	-1
0	54925	10.81	-1
0	55471	10.91	-1
0	56025	11.01	-1
0	56571	11.11	-1
0	57117	11.21	-1
0	57663	11.31	-1
0	58209	11.41	-1
0	58755	11.51	-1
0	59301	11.61	-1
0	59847	11.71	-1
0	60393	11.81	-1
0	60939	11.91	-1
0	61493	12.01	-1
0	62039	12.11	-1
0	62585	12.21	-1
0	63131	12.31	-1
0	63677	12.41	-1
0	64223	12.51	-1
0	64769	12.61	-1
0	65315	12.71	-1
0	65861	12.81	-1
0	66407	12.91	-1
0	66961	13.01	-1
0	67507	13.11	-1
0	68053	13.21	-1
0	68599	13.31	-1
0	69145	13.41	-1
0	69691	13.51	-1
0	70237	13.61	-1
0	70783	13.71	-1
0	71329	13.81	-1
0	71875	13.91	-1
0	72429	14.01	-1
0	72975	14.11	-1
0	73521	14.21	-1
0	74067	14.31	-1
0	74613	14.41	-1
0	75159	14.51	-1
0	75705	14.61	-1
0	76251	14.71	-1
0	76797	14.81	-1
0	77343	14.91	-1
0	77897	15.01	-1
0	78443	15.11	-1
0	78989	15.21	-1
0	79535	15.31	-1
0	80081	15.41	-1
0	80627	15.51	-1
0	81173	15.61	-1
0	81719	15.71	-1
0	82265	15.81	-1
0	82811	15.91	-1
0	83365	16.01	-1
0	83911	16.11	-1
0	84457	16.21	-1
0	85003	16.31	-1
0	85549	16.41	-1
0	86095	16.51	-1
0	86641	16.61	-1
0	87187	16.71	-1
0	87733	16.81	-1
0	88279	16.91	-1
0	88833	17.01	-1
0	89379	17.11	-1
0	89925	17.21	-1
0	90471	17.31	-1
0	91017	17.41	-1
0	91563	17.51	-1
0	92109	17.61	-1
0	92655	17.71	-1
0	93201	17.81	-1
0	93747	17.91	-1
0	94301	18.01	-1
0	94847	18.11	-1
0	95393	18.21	-1
0	95939	18.31	-1
0	96485	18.41	-1
0	97031	18.51	-1
0	97577	18.61	-1
0	98123	18.71	-1
0	98669	18.81	-1
0	99215	18.91	-1
0	99769	19.01	-1
0	100315	19.11	-1
0	100861	19.21	-1
0	101407	19.31	-1
0	101953	19.41	-1
0	102499	19.51	-1
0	103045	19.61	-1
0	103591	19.71	-1
0	104137	19.81	-1
0	104683	19.91	-1
0	105237	20.01	-1
0	105783	20.11	-1
0	106329	20.21	-1
0	106875	20.31	-1
0	107421	20.41	-1
0	107967	20.51	-1
0	108513	20.61	-1
0	109059	20.71	-1
0	109605	20.81	-1
0	110151	20.91	-1
0	110705	21.01	-1
0	111251	21.11	-1
0	111797	21.21	-1
0	112343	21.31	-1
0	112889	21.41	-1
0	113435	21.51	-1
0	113981	21.61	-1
0	114527	21.71	-1
0	115073	21.81	-1
0	115619	21.91	-1
0	116173	22.01	-1
0	116719	22.11	-1
0	117265	22.21	-1
0	117811	22.31	-1
0	118357	22.41	-1
0	118903	22.51	-1
0	119449	22.61	-1
0	119995	22.71	-1
0	120541	22.81	-1
0	121087	22.91	-1
0	121641	23.01	-1
0	122187	23.11	-1
0	122733	23.21	-1
0	123279	23.31	-1
0	123825	23.41	-1
0	124371	23.51	-1
0	124917	23.61	-1
0	125463	23.71	-1
0	126009	23.81	-1
0	126555	23.91	-1
0	127109	24.01	-1
0	127655	24.11	-1
0	128201	24.21	-1
0	128747	24.31	-1
0	129293	24.41	-1
0	129839	24.51	-1
0	130385	24.61	-1
0	130931	24.71	-1
0	131477	24.81	-1
0	132023	24.91	-1
0	132577	25.01	-1
0	133123	25.11	-1
0	133669	25.21	-1
0	134215	25.31	-1
0	134761	25.41	-1
0	135307	25.51	-1
0	135853	25.61	-1
0	136399	25.71	-1
0	136945	25.81	-1
0	137491	25.91	-1
0	138045	26.01	-1
0	138591	26.11	-1
0	139137	26.21	-1
0	139683	26.31	-1
0	140229	26.41	-1
0	140775	26.51	-1
0	141321	26.61	-1
0	141867	26.71	-1
0	142413	26.81	-1
0	142959	26.91	-1
0	143513	27.01	-1
0	144059	27.11	-1
0	144605	27.21	-1
0	145151	27.31	-1
0	145697	27.41	-1
0	146243	27.51	-1
0	146789	27.61	-1
0	147335	27.71	-1
0	147881	27.81	-1
0	148427	27.91	-1
0	148981	28.01	-1
0	149527	28.11	-1
0	150073	28.21	-1
0	150619	28.31	-1
0	151165	28.41	-1
0	151711	28.51	-1
0	152257	28.61	-1
0	152803	28.71	-1
0	153349	28.81	-1
0	153895	28.91	-1
0	154449	29.01	-1
0	154995	29.11	-1
0	155541	29.21	-1
0	156087	29.31	-1
0	156633	29.41	-1
0	157179	29.51	-1
0	157725	29.61	-1
0	158271	29.71	-1
0	158817	29.81	-1
0	159363	29.91	-1
0	159917	30.01	-1
0	160463	30.11	-1
0	161009	30.21	-1
0	161555	30.31	-1
0	162101	30.41	-1
0	162647	30.51	-1
0	163193	30.61	-1
0	163739	30.71	-1
0	164285	30.81	-1
0	164831	30.91	-1
0	165385	31.01	-1
0	165931	31.11	-1
0	166477	31.21	-1
0	167023	31.31	-1
0	167569	31.41	-1
0	168115	31.51	-1
0	168661	31.61	-1
0	169207	31.71	-1
0	169753	31.81	-1
0	170299	31.91	-1
0	170853	32.01	-1
0	171399	32.11	-1
0	171945	32.21	-1
0	172491	32.31	-1
0	173037	32.41	-1
0	173583	32.51	-1
0	174129	32.61	-1
0	174675	32.71	-1
0	175221	32.81	-1
0	175767	32.91	-1
0	176321	33.01	-1
0	176867	33.11	-1
0	177413	33.21	-1
0	177959	33.31	-1
0	178505	33.41	-1
0	179051	33.51	-1
0	179597	33.61	-1
0	180143	33.71	-1
0	180689	33.81	-1
0	181235	33.91	-1
0	181789	34.01	-1
0	182335	34.11	-1
0	182881	34.21	-1
0	183427	34.31	-1
0	183973	34.41	-1
0	184519	34.51	-1
0	185065	34.61	-1
0	185611	34.71	-1
0	186157	34.81	-1
0	186703	34.91	-1
0	187257	35.01	-1
0	187803	35.11	-1
0	188349	35.21	-1
0	188895	35.31	-1
0	189441	35.41	-1
0	189987	35.51	-1
0	190533	35.61	-1
0	191079	35.71	-1
0	191625	35.81	-1
0	192171	35.91	-1
0	192725	36.01	-1
0	193271	36.11	-1
0	193817	36.21	-1
0	194363	36.31	-1
0	194909	36.41	-1
0	195455	36.51	-1
0	196001	36.61	-1
0	196547	36.71	-1
0	197093	36.81	-1
0	197639	36.91	-1
0	198193	37.01	-1
0	198739	37.11	-1
0	199285	37.21	-1
0	199831	37.31	-1
0	200377	37.41	-1
0	200923	37.51	-1
0	201469	37.61	-1
0	202015	37.71	-1
0	202561	37.81	-1
0	203107	37.91	-1
0	203661	38.01	-1
0	204207	38.11	-1
0	204753	38.21	-1
0	205299	38.31	-1
0	205845	38.41	-1
0	206391	38.51	-1
0	206937	38.61	-1
0	207483	38.71	-1
0	208029	38.81	-1
0	208575	38.91	-1
0	209129	39.01	-1
0	209675	39.11	-1
0	210221	39.21	-1
0	210767	39.31	-1
0	211313	39.41	-1
0	211859	39.51	-1
0	212405	39.61	-1
0	212951	39.71	-1
0	213497	39.81	-1
0	214043	39.91	-1
0	214597	40.01	-1
0	215143	40.11	-1
0	215689	40.21	-1
0	216235	40.31	-1
0	216781	40.41	-1
0	217327	40.51	-1
0	217873	40.61	-1
0	218419	40.71	-1
0	218965	40.81	-1
0	219511	40.91	-1
0	220065	41.01	-1
0	220611	41.11	-1
0	221157	41.21	-1
0	221703	41.31	-1
0	222249	41.41	-1
0	222795	41.51	-1
0	223341	41.61	-1
0	223887	41.71	-1
0	224433	41.81	-1
0	224979	41.91	-1
0	225533	42.01	-1
0	226079	42.11	-1
0	226625	42.21	-1
0	227171	42.31	-1
0	227717	42.41	-1
0	228263	42.51	-1
0	228809	42.61	-1
0	229355	42.71	-1
0	229901	42.81	-1
0	230447	42.91	-1
0	231001	43.01	-1
0	231547	43.11	-1
0	232093	43.21	-1
0	232639	43.31	-1
0	233185	43.41	-1
0	233731	43.51	-1
0	234277	43.61	-1
0	234823	43.71	-1
0	235369	43.81	-1
0	235915	43.91	-1
0	236469	44.01	-1
0	237015	44.11	-1
0	237561	44.21	-1
0	238107	44.31	-1
0	238653	44.41	-1
0	239199	44.51	-1
0	239745	44.61	-1
0	240291	44.71	-1
0	240837	44.81	-1
0	241383	44.91	-1
0	241937	45.01	-1
0	242483	45.11	-1
0	243029	45.21	-1
0	243575	45.31	-1
0	244121	45.41	-1
0	244667	45.51	-1
0	245213	45.61	-1
0	245759	45.71	-1
0	246305	45.81	-1
0	246851	45.91	-1
0	247405	46.01	-1
0	247951	46.11	-1
0	248497	46.21	-1
0	249043	46.31	-1
0	249589	46.41	-1
0	250135	46.51	-1
0	250681	46.61	-1
0	251227	46.71	-1
0	251773	46.81	-1
0	252319	46.91	-1
0	252873	47.01	-1
0	253419	47.11	-1
0	253965	47.21	-1
0	254511	47.31	-1
0	255057	47.41	-1
0	255603	47.51	-1
0	256149	47.61	-1
0	256695	47.71	-1
0	257241	47.81	-1
0	257787	47.91	-1
0	258341	48.01	-1
0	258887	48.11	-1
0	259433	48.21	-1
0	259979	48.31	-1
0	260525	48.41	-1
0	261071	48.51	-1
0	261617	48.61	-1
0	262163	48.71	-1
0	262709	48.81	-1
0	263255	48.91	-1
0	263809	49.01	-1
0	264355	49.11	-1
0	264901	49.21	-1
0	265447	49.31	-1
0	265993	49.41	-1
0	266539	49.51	-1
0	267085	49.61	-1
0	267631	49.71	-1
0	268177	49.81	-1
0	268723	49.91	-1
0	269277	50.01	-1
0	269823	50.11	-1
0	270369	50.21	-1
0	270915	50.31	-1
0	271461	50.41	-1
0	272007	50.51	-1
0	272553	50.61	-1
0	273099	50.71	-1
0	273645	50.81	-1
0	274191	50.91	-1
0	274745	51.01	-1
0	275291	51.11	-1
0	275837	51.21	-1
0	276383	51.31	-1
0	276929	51.41	-1
0	277475	51.51	-1
0	278021	51.61	-1
0	278567	51.71	-1
0	279113	51.81	-1
0	279659	51.91	-1
0	280213	52.01	-1
0	280759	52.11	-1
0	281305	52.21	-1
0	281851	52.31	-1
0	282397	52.41	-1
0	282943	52.51	-1
0	283489	52.61	-1
0	284035	52.71	-1
0	284581	52.81	-1
0	285127	52.91	-1
0	285681	53.01	-1
0	286227	53.11	-1
0	286773	53.21	-1
0	287319	53.31	-1
0	287865	53.41	-1
0	288411	53.51	-1
0	288957	53.61	-1
0	289503	53.71	-1
0	290049	53.81	-1
0	290595	53.91	-1
0	291149	54.01	-1
0	291695	54.11	-1
0	292241	54.21	-1
0	292787	54.31	-1
0	293333	54.41	-1
0	293879	54.51	-1
0	294425	54.61	-1
0	294971	54.71	-1
0	295517	54.81	-1
0	296063	54.91	-1
0	296617	55.01	-1
0	297163	55.11	-1
0	297709	55.21	-1
0	298255	55.31	-1
0	298801	55.41	-1
0	299347	55.51	-1
0	299893	55.61	-1
0	300439	55.71	-1
0	300985	55.81	-1
0	301531	55.91	-1
0	302085	56.01	-1
0	302631	56.11	-1
0	303177	56.21	-1
0	303723	56.31	-1
0	304269	56.41	-1
0	304815	56.51	-1
0	305361	56.61	-1
0	305907	56.71	-1
0	306453	56.81	-1
0	306999	56.91	-1
0	307553	57.01	-1
0	308099	57.11	-1
0	308645	57.21	-1
0	309191	57.31	-1
0	309737	57.41	-1
0	310283	57.51	-1
0	310829	57.61	-1
0	311375	57.71	-1
0	311921	57.81	-1
0	312467	57.91	-1
0	313021	58.01	-1
0	313567	58.11	-1
0	314113	58.21	-1
0	314659	58.31	-1
0	315205	58.41	-1
0	315751	58.51	-1
0	316297	58.61	-1
0	316843	58.71	-1
0	317389	58.81	-1
0	317935	58.91	-1
0	318489	59.01	-1
0	319035	59.11	-1
0	319581	59.21	-1
0	320127	59.31	-1
0	320673	59.41	-1
0	321219	59.51	-1
0	321765	59.61	-1
0	322311	59.71	-1
0	322857	59.81	-1
0	323403	59.91	-1
0	323957	60.01	-1
0	324503	60.11	-1
0	325049	60.21	-1
0	325595	60.31	-1
0	326141	60.41	-1
0	326687	60.51	-1
0	327233	60.61	-1
0	327779	60.71	-1
0	328325	60.81	-1
0	328871	60.91	-1
0	329425	61.01	-1
0	329971	61.11	-1
0	330517	61.21	-1
0	331063	61.31	-1
0	331609	61.41	-1
0	332155	61.51	-1
0	332701	61.61	-1
0	333247	61.71	-1
0	333793	61.81	-1
0	334339	61.91	-1
0	334893	62.01	-1
0	335439	62.11	-1
0	335985	62.21	-1
0	336531	62.31	-1
0	337077	62.41	-1
0	337623	62.51	-1
0	338169	62.61	-1
0	338715	62.71	-1
0	339261	62.81	-1
0	339807	62.91	-1
0	340361	63.01	-1
0	340907	63.11	-1
0	341453	63.21	-1
0	341999	63.31	-1
0	342545	63.41	-1
0	343091	63.51	-1
0	343637	63.61	-1
0	344183	63.71	-1
0	344729	63.81	-1
0	345275	63.91	-1
0	345829	64.01	-1
0	346375	64.11	-1
0	346921	64.21	-1
0	347467	64.31	-1
0	348013	64.41	-1
0	348559	64.51	-1
0	349105	64.61	-1
0	349651	64.71	-1
0	350197	64.81	-1
0	350743	64.91	-1
0	351297	65.01	-1
0	351843	65.11	-1
0	352389	65.21	-1
0	352935	65.31	-1
0	353481	65.41	-1
0	354027	65.51	-1
0	354573	65.61	-1
0	355119	65.71	-1
0	355665	65.81	-1
0	356211	65.91	-1
0	356765	66.01	-1
0	357311	66.11	-1
0	357857	66.21	-1
0	358403	66.31	-1
0	358949	66.41	-1
0	359495	66.51	-1
0	360041	66.61	-1
0	360587	66.71	-1
0	361133	66.81	-1
0	361679	66.91	-1
0	362233	67.01	-1
0	362779	67.11	-1
0	363325	67.21	-1
0	363871	67.31	-1
0	364417	67.41	-1
0	364963	67.51	-1
0	365509	67.61	-1
0	366055	67.71	-1
0	366601	67.81	-1
0	367147	67.91	-1
0	367701	68.01	-1
0	368247	68.11	-1
0	368793	68.21	-1
0	369339	68.31	-1
0	369885	68.41	-1
0	370431	68.51	-1
0	370977	68.61	-1
0	371523	68.71	-1
0	372069	68.81	-1
0	372615	68.91	-1
0	373169	69.01	-1
0	373715	69.11	-1
0	374261	69.21	-1
0	374807	69.31	-1
0	375353	69.41	-1
0	375899	69.51	-1
0	376445	69.61	-1
0	376991	69.71	-1
0	377537	69.81	-1
0	378083	69.91	-1
0	378637	70.01	-1
0	379183	70.11	-1
0	379729	70.21	-1
0	380275	70.31	-1
0	380821	70.41	-1
0	381367	70.51	-1
0	381913	70.61	-1
0	382459	70.71	-1
0	383005	70.81	-1
0	383551	70.91	-1
0	384105	71.01	-1
0	384651	71.11	-1
0	385197	71.21	-1
0	385743	71.31	-1
0	386289	71.41	-1
0	386835	71.51	-1
0	387381	71.61	-1
0	387927	71.71	-1
0	388473	71.81	-1
0	389019	71.91	-1
0	389573	72.01	-1
0	390119	72.11	-1
0	390665	72.21	-1
0	391211	72.31	-1
0	391757	72.41	-1
0	392303	72.51	-1
0	392849	72.61	-1
0	393395	72.71	-1
0	393941	72.81	-1
0	394487	72.91	-1
0	395041	73.01	-1
0	395587	73.11	-1
0	396133	73.21	-1
0	396679	73.31	-1
0	397225	73.41	-1
0	397771	73.51	-1
0	398317	73.61	-1
0	398863	73.71	-1
0	399409	73.81	-1
0	399955	73.91	-1
0	400509	74.01	-1
0	401055	74.11	-1
0	401601	74.21	-1
0	402147	74.31	-1
0	402693	74.41	-1
0	403239	74.51	-1
0	403785	74.61	-1
0	404331	74.71	-1
0	404877	74.81	-1
0	405423	74.91	-1
0	405977	75.01	-1
0	406523	75.11	-1
0	407069	75.21	-1
0	407615	75.31	-1
0	408161	75.41	-1
0	408707	75.51	-1
0	409253	75.61	-1
0	409799	75.71	-1
0	410345	75.81	-1
0	410891	75.91	-1
0	411445	76.01	-1
0	411991	76.11	-1
0	412537	76.21	-1
0	413083	76.31	-1
0	413629	76.41	-1
0	414175	76.51	-1
0	414721	76.61	-1
0	415267	76.71	-1
0	415813	76.81	-1
0	416359	76.91	-1
0	416913	77.01	-1
0	417459	77.11	-1
0	418005	77.21	-1
0	418551	77.31	-1
0	419097	77.41	-1
0	419643	77.51	-1
0	420189	77.61	-1
0	420735	77.71	-1
0	421281	77.81	-1
0	421827	77.91	-1
0	422381	78.01	-1
0	422927	78.11	-1
0	423473	78.21	-1
0	424019	78.31	-1
0	424565	78.41	-1
0	425111	78.51	-1
0	425657	78.61	-1
0	426203	78.71	-1
0	426749	78.81	-1
0	427295	78.91	-1
0	427849	79.01	-1
0	428395	79.11	-1
0	428941	79.21	-1
0	429487	79.31	-1
0	430033	79.41	-1
0	430579	79.51	-1
0	431125	79.61	-1
0	431671	79.71	-1
0	432217	79.81	-1
0	432763	79.91	-1
0	433317	80.01	-1
0	433863	80.11	-1
0	434409	80.21	-1
0	434955	80.31	-1
0	435501	80.41	-1
0	436047	80.51	-1
0	436593	80.61	-1
0	437139	80.71	-1
0	437685	80.81	-1
0	438231	80.91	-1
0	438785	81.01	-1
0	439331	81.11	-1
0	439877	81.21	-1
0	440423	81.31	-1
0	440969	81.41	-1
0	441515	81.51	-1
0	442061	81.61	-1
0	442607	81.71	-1
0	443153	81.81	-1
0	443699	81.91	-1
0	444253	82.01	-1
0	444799	82.11	-1
0	445345	82.21	-1
0	445891	82.31	-1
0	446437	82.41	-1
0	446983	82.51	-1
0	447529	82.61	-1
0	448075	82.71	-1
0	448621	82.81	-1
0	449167	82.91	-1
0	449721	83.01	-1
0	450267	83.11	-1
0	450813	83.21	-1
0	451359	83.31	-1
0	451905	83.41	-1
0	452451	83.51	-1
0	452997	83.61	-1
0	453543	83.71	-1
0	454089	83.81	-1
0	454635	83.91	-1
0	455189	84.01	-1
0	455735	84.11	-1
0	456281	84.21	-1
0	456827	84.31	-1
0	457373	84.41	-1
0	457919	84.51	-1
0	458465	84.61	-1
0	459011	84.71	-1
0	459557	84.81	-1
0	460103	84.91	-1
0	460657	85.01	-1
0	461203	85.11	-1
0	461749	85.21	-1
0	462295	85.31	-1
0	462841	85.41	-1
0	463387	85.51	-1
0	463933	85.61	-1
0	464479	85.71	-1
0	465025	85.81	-1
0	465571	85.91	-1
0	466125	86.01	-1
0	466671	86.11	-1
0	467217	86.21	-1
0	467763	86.31	-1
0	468309	86.41	-1
0	468855	86.51	-1
0	469401	86.61	-1
0	469947	86.71	-1
0	470493	86.81	-1
0	471039	86.91	-1
0	471593	87.01	-1
0	472139	87.11	-1
0	472685	87.21	-1
0	473231	87.31	-1
0	473777	87.41	-1
0	474323	87.51	-1
0	474869	87.61	-1
0	475415	87.71	-1
0	475961	87.81	-1
0	476507	87.91	-1
0	477061	88.01	-1
0	477607	88.11	-1
0	478153	88.21	-1
0	478699	88.31	-1
0	479245	88.41	-1
0	479791	88.51	-1
0	480337	88.61	-1
0	480883	88.71	-1
0	481429	88.81	-1
0	481975	88.91	-1
0	482529	89.01	-1
0	483075	89.11	-1
0	483621	89.21	-1
0	484167	89.31	-1
0	484713	89.41	-1
0	485259	89.51	-1
0	485805	89.61	-1
0	486351	89.71	-1
0	486897	89.81	-1
0	487443	89.91	-1
0	487997	90.01	-1
0	488543	90.11	-1
0	489089	90.21	-1
0	489635	90.31	-1
0	490181	90.41	-1
0	490727	90.51	-1
0	491273	90.61	-1
0	491819	90.71	-1
0	492365	90.81	-1
0	492911	90.91	-1
0	493465	91.01	-1
0	494011	91.11	-1
0	494557	91.21	-1
0	495103	91.31	-1
0	495649	91.41	-1
0	496195	91.51	-1
0	496741	91.61	-1
0	497287	91.71	-1
0	497833	91.81	-1
0	498379	91.91	-1
0	498933	92.01	-1
0	499479	92.11	-1
0	500025	92.21	-1
0	500571	92.31	-1
0	501117	92.41	-1
0	501663	92.51	-1
0	502209	92.61	-1
0	502755	92.71	-1
0	503301	92.81	-1
0	503847	92.91	-1
0	504401	93.01	-1
0	504947	93.11	-1
0	505493	93.21	-1
0	506039	93.31	-1
0	506585	93.41	-1
0	507131	93.51	-1
0	507677	93.61	-1
0	508223	93.71	-1
0	508769	93.81	-1
0	509315	93.91	-1
0	509869	94.01	-1
0	510415	94.11	-1
0	510961	94.21	-1
0	511507	94.31	-1
0	512053	94.41	-1
0	512599	94.51	-1
0	513145	94.61	-1
0	513691	94.71	-1
0	514237	94.81	-1
0	514783	94.91	-1
0	515337	95.01	-1
0	515883	95.11	-1
0	516429	95.21	-1
0	516975	95.31	-1
0	517521	95.41	-1
0	518067	95.51	-1
0	518613	95.61	-1
0	519159	95.71	-1
0	519705	95.81	-1
0	520251	95.91	-1
0	520805	96.01	-1
0	521351	96.11	-1
0	521897	96.21	-1
0	522443	96.31	-1
0	522989	96.41	-1
0	523535	96.51	-1
0	524081	96.61	-1
0	524627	96.71	-1
0	525173	96.81	-1
0	525719	96.91	-1
0	526273	97.01	-1
0	526819	97.11	-1
0	527365	97.21	-1
0	527911	97.31	-1
0	528457	97.41	-1
0	529003	97.51	-1
0	529549	97.61	-1
0	530095	97.71	-1
0	530641	97.81	-1
0	531187	97.91	-1
0	531741	98.01	-1
0	532287	98.11	-1
0	532833	98.21	-1
0	533379	98.31	-1
0	533925	98.41	-1
0	534471	98.51	-1
0	535017	98.61	-1
0	535563	98.71	-1
0	536109	98.81	-1
0	536655	98.91	-1
0	537209	99.01	-1
0	537755	99.11	-1
0	538301	99.21	-1
0	538847	99.31	-1
0	539393	99.41	-1
0	539939	99.51	-1
0	540485	99.61	-1
0	541031	99.71	-1
0	541577	99.81	-1
0	542123	99.91	-1
1	113	1.11	0
1	659	1.21	0
1	1205	1.31	0
1	1751	1.41	0
1	2297	1.51	0
1	2843	1.61	0
1	3389	1.71	0
1	3935	1.81	0
1	4481	1.91	0
1	5035	2.01	0
1	5581	2.11	0
1	6127	2.21	0
1	6673	2.31	0
1	7219	2.41	0
1	7765	2.51	0
1	8311	2.61	0
1	8857	2.71	0
1	9403	2.81	0
1	9949	2.91	0
1	10503	3.01	0
1	11049	3.11	0
1	11595	3.21	0
1	12141	3.31	0
1	12687	3.41	0
1	13233	3.51	0
1	13779	3.61	0
1	14325	3.71	0
1	14871	3.81	0
1	15417	3.91	0
1	15971	4.01	0
1	16517	4.11	0
1	17063	4.21	0
1	17609	4.31	0
1	18155	4.41	0
1	18701	4.51	0
1	19247	4.61	0
1	19793	4.71	0
1	20339	4.81	0
1	20885	4.91	0
1	21439	5.01	0
1	21985	5.11	0
1	22531	5.21	0
1	23077	5.31	0
1	23623	5.41	0
1	24169	5.51	0
1	24715	5.61	0
1	25261	5.71	0
1	25807	5.81	0
1	26353	5.91	0
1	26907	6.01	0
1	27453	6.11	0
1	27999	6.21	0
1	28545	6.31	0
1	29091	6.41	0
1	29637	6.51	0
1	30183	6.61	0
1	30729	6.71	0
1	31275	6.81	0
1	31821	6.91	0
1	32375	7.01	0
1	32921	7.11	0
1	33467	7.21	0
1	34013	7.31	0
1	34559	7.41	0
1	35105	7.51	0
1	35651	7.61	0
1	36197	7.71	0
1	36743	7.81	0
1	37289	7.91	0
1	37843	8.01	0
1	38389	8.11	0
1	38935	8.21	0
1	39481	8.31	0
1	40027	8.41	0
1	40573	8.51	0
1	41119	8.61	0
1	41665	8.71	0
1	42211	8.81	0
1	42757	8.91	0
1	43311	9.01	0
1	43857	9.11	0
1	44403	9.21	0
1	44949	9.31	0
1	45495	9.41	0
1	46041	9.51	0
1	46587	9.61	0
1	47133	9.71	0
1	47679	9.81	0
1	48225	9.91	0
1	50557	10.01	0
1	51103	10.11	0
1	51649	10.21	0
1	52195	10.31	0
1	52741	10.41	0
1	53287	10.51	0
1	53833	10.61	0
1	54379	10.71	0
1	54925	10.81	0
1	55471	10.91	0
1	56025	11.01	0
1	56571	11.11	0
1	57117	11.21	0
1	57663	11.31	0
1	58209	11.41	0
1	58755	11.51	0
1	59301	11.61	0
1	59847	11.71	0
1	60393	11.81	0
1	60939	11.91	0
1	61493	12.01	0
1	62039	12.11	0
1	62585	12.21	0
1	63131	12.31	0
1	63677	12.41	0
1	64223	12.51	0
1	64769	12.61	0
1	65315	12.71	0
1	65861	12.81	0
1	66407	12.91	0
1	66961	13.01	0
1	67507	13.11	0
1	68053	13.21	0
1	68599	13.31	0
1	69145	13.41	0
1	69691	13.51	0
1	70237	13.61	0
1	70783	13.71	0
1	71329	13.81	0
1	71875	13.91	0
1	72429	14.01	0
1	72975	14.11	0
1	73521	14.21	0
1	74067	14.31	0
1	74613	14.41	0
1	75159	14.51	0
1	75705	14.61	0
1	76251	14.71	0
1	76797	14.81	0
1	77343	14.91	0
1	77897	15.01	0
1	78443	15.11	0
1	78989	15.21	0
1	79535	15.31	0
1	80081	15.41	0
1	80627	15.51	0
1	81173	15.61	0
1	81719	15.71	0
1	82265	15.81	0
1	82811	15.91	0
1	83365	16.01	0
1	83911	16.11	0
1	84457	16.21	0
1	85003	16.31	0
1	85549	16.41	0
1	86095	16.51	0
1	86641	16.61	0
1	87187	16.71	0
1	87733	16.81	0
1	88279	16.91	0
1	88833	17.01	0
1	89379	17.11	0
1	89925	17.21	0
1	90471	17.31	0
1	91017	17.41	0
1	91563	17.51	0
1	92109	17.61	0
1	92655	17.71	0
1	93201	17.81	0
1	93747	17.91	0
1	94301	18.01	0
1	94847	18.11	0
1	95393	18.21	0
1	95939	18.31	0
1	96485	18.41	0
1	97031	18.51	0
1	97577	18.61	0
1	98123	18.71	0
1	98669	18.81	0
1	99215	18.91	0
1	99769	19.01	0
1	100315	19.11	0
1	100861	19.21	0
1	101407	19.31	0
1	101953	19.41	0
1	102499	19.51	0
1	103045	19.61	0
1	103591	19.71	0
1	104137	19.81	0
1	104683	19.91	0
1	105237	20.01	0
1	105783	20.11	0
1	106329	20.21	0
1	106875	20.31	0
1	107421	20.41	0
1	107967	20.51	0
1	108513	20.61	0
1	109059	20.71	0
1	109605	20.81	0
1	110151	20.91	0
1	110705	21.01	0
1	111251	21.11	0
1	111797	21.21	0
1	112343	21.31	0
1	112889	21.41	0
1	113435	21.51	0
1	113981	21.61	0
1	114527	21.71	0
1	115073	21.81	0
1	115619	21.91	0
1	116173	22.01	0
1	116719	22.11	0
1	117265	22.21	0
1	117811	22.31	0
1	118357	22.41	0
1	118903	22.51	0
1	119449	22.61	0
1	119995	22.71	0
1	120541	22.81	0
1	121087	22.91	0
1	121641	23.01	0
1	122187	23.11	0
1	122733	23.21	0
1	123279	23.31	0
1	123825	23.41	0
1	124371	23.51	0
1	124917	23.61	0
1	125463	23.71	0
1	126009	23.81	0
1	126555	23.91	0
1	127109	24.01	0
1	127655	24.11	0
1	128201	24.21	0
1	128747	24.31	0
1	129293	24.41	0
1	129839	24.51	0
1	130385	24.61	0
1	130931	24.71	0
1	131477	24.81	0
1	132023	24.91	0
1	132577	25.01	0
1	133123	25.11	0
1	133669	25.21	0
1	134215	25.31	0
1	134761	25.41	0
1	135307	25.51	0
1	135853	25.61	0
1	136399	25.71	0
1	136945	25.81	0
1	137491	25.91	0
1	138045	26.01	0
1	138591	26.11	0
1	139137	26.21	0
1	139683	26.31	0
1	140229	26.41	0
1	140775	26.51	0
1	141321	26.61	0
1	141867	26.71	0
1	142413	26.81	0
1	142959	26.91	0
1	143513	27.01	0
1	144059	27.11	0
1	144605	27.21	0
1	145151	27.31	0
1	145697	27.41	0
1	146243	27.51	0
1	146789	27.61	0
1	147335	27.71	0
1	147881	27.81	0
1	148427	27.91	0
1	148981	28.01	0
1	149527	28.11	0
1	150073	28.21	0
1	150619	28.31	0
1	151165	28.41	0
1	151711	28.51	0
1	152257	28.61	0
1	152803	28.71	0
1	153349	28.81	0
1	153895	28.91	0
1	154449	29.01	0
1	154995	29.11	0
1	155541	29.21	0
1	156087	29.31	0
1	156633	29.41	0
1	157179	29.51	0
1	157725	29.61	0
1	158271	29.71	0
1	158817	29.81	0
1	159363	29.91	0
1	159917	30.01	0
1	160463	30.11	0
1	161009	30.21	0
1	161555	30.31	0
1	162101	30.41	0
1	162647	30.51	0
1	163193	30.61	0
1	163739	30.71	0
1	164285	30.81	0
1	164831	30.91	0
1	165385	31.01	0
1	165931	31.11	0
1	166477	31.21	0
1	167023	31.31	0
1	167569	31.41	0
1	168115	31.51	0
1	168661	31.61	0
1	169207	31.71	0
1	169753	31.81	0
1	170299	31.91	0
1	170853	32.01	0
1	171399	32.11	0
1	171945	32.21	0
1	172491	32.31	0
1	173037	32.41	0
1	173583	32.51	0
1	174129	32.61	0
1	174675	32.71	0
1	175221	32.81	0
1	175767	32.91	0
1	176321	33.01	0
1	176867	33.11	0
1	177413	33.21	0
1	177959	33.31	0
1	178505	33.41	0
1	179051	33.51	0
1	179597	33.61	0
1	180143	33.71	0
1	180689	33.81	0
1	181235	33.91	0
1	181789	34.01	0
1	182335	34.11	0
1	182881	34.21	0
1	183427	34.31	0
1	183973	34.41	0
1	184519	34.51	0
1	185065	34.61	0
1	185611	34.71	0
1	186157	34.81	0
1	186703	34.91	0
1	187257	35.01	0
1	187803	35.11	0
1	188349	35.21	0
1	188895	35.31	0
1	189441	35.41	0
1	189987	35.51	0
1	190533	35.61	0
1	191079	35.71	0
1	191625	35.81	0
1	192171	35.91	0
1	192725	36.01	0
1	193271	36.11	0
1	193817	36.21	0
1	194363	36.31	0
1	194909	36.41	0
1	195455	36.51	0
1	196001	36.61	0
1	196547	36.71	0
1	197093	36.81	0
1	197639	36.91	0
1	198193	37.01	0
1	198739	37.11	0
1	199285	37.21	0
1	199831	37.31	0
1	200377	37.41	0
1	200923	37.51	0
1	201469	37.61	0
1	202015	37.71	0
1	202561	37.81	0
1	203107	37.91	0
1	203661	38.01	0
1	204207	38.11	0
1	204753	38.21	0
1	205299	38.31	0
1	205845	38.41	0
1	206391	38.51	0
1	206937	38.61	0
1	207483	38.71	0
1	208029	38.81	0
1	208575	38.91	0
1	209129	39.01	0
1	209675	39.11	0
1	210221	39.21	0
1	210767	39.31	0
1	211313	39.41	0
1	211859	39.51	0
1	212405	39.61	0
1	212951	39.71	0
1	213497	39.81	0
1	214043	39.91	0
1	214597	40.01	0
1	215143	40.11	0
1	215689	40.21	0
1	216235	40.31	0
1	216781	40.41	0
1	217327	40.51	0
1	217873	40.61	0
1	218419	40.71	0
1	218965	40.81	0
1	219511	40.91	0
1	220065	41.01	0
1	220611	41.11	0
1	221157	41.21	0
1	221703	41.31	0
1	222249	41.41	0
1	222795	41.51	0
1	223341	41.61	0
1	223887	41.71	0
1	224433	41.81	0
1	224979	41.91	0
1	225533	42.01	0
1	226079	42.11	0
1	226625	42.21	0
1	227171	42.31	0
1	227717	42.41	0
1	228263	42.51	0
1	228809	42.61	0
1	229355	42.71	0
1	229901	42.81	0
1	230447	42.91	0
1	231001	43.01	0
1	231547	43.11	0
1	232093	43.21	0
1	232639	43.31	0
1	233185	43.41	0
1	233731	43.51	0
1	234277	43.61	0
1	234823	43.71	0
1	235369	43.81	0
1	235915	43.91	0
1	236469	44.01	0
1	237015	44.11	0
1	237561	44.21	0
1	238107	44.31	0
1	238653	44.41	0
1	239199	44.51	0
1	239745	44.61	0
1	240291	44.71	0
1	240837	44.81	0
1	241383	44.91	0
1	241937	45.01	0
1	242483	45.11	0
1	243029	45.21	0
1	243575	45.31	0
1	244121	45.41	0
1	244667	45.51	0
1	245213	45.61	0
1	245759	45.71	0
1	246305	45.81	0
1	246851	45.91	0
1	247405	46.01	0
1	247951	46.11	0
1	248497	46.21	0
1	249043	46.31	0
1	249589	46.41	0
1	250135	46.51	0
1	250681	46.61	0
1	251227	46.71	0
1	251773	46.81	0
1	252319	46.91	0
1	252873	47.01	0
1	253419	47.11	0
1	253965	47.21	0
1	254511	47.31	0
1	255057	47.41	0
1	255603	47.51	0
1	256149	47.61	0
1	256695	47.71	0
1	257241	47.81	0
1	257787	47.91	0
1	258341	48.01	0
1	258887	48.11	0
1	259433	48.21	0
1	259979	48.31	0
1	260525	48.41	0
1	261071	48.51	0
1	261617	48.61	0
1	262163	48.71	0
1	262709	48.81	0
1	263255	48.91	0
1	263809	49.01	0
1	264355	49.11	0
1	264901	49.21	0
1	265447	49.31	0
1	265993	49.41	0
1	266539	49.51	0
1	267085	49.61	0
1	267631	49.71	0
1	268177	49.81	0
1	268723	49.91	0
1	269277	50.01	0
1	269823	50.11	0
1	270369	50.21	0
1	270915	50.31	0
1	271461	50.41	0
1	272007	50.51	0
1	272553	50.61	0
1	273099	50.71	0
1	273645	50.81	0
1	274191	50.91	0
1	274745	51.01	0
1	275291	51.11	0
1	275837	51.21	0
1	276383	51.31	0
1	276929	51.41	0
1	277475	51.51	0
1	278021	51.61	0
1	278567	51.71	0
1	279113	51.81	0
1	279659	51.91	0
1	280213	52.01	0
1	280759	52.11	0
1	281305	52.21	0
1	281851	52.31	0
1	282397	52.41	0
1	282943	52.51	0
1	283489	52.61	0
1	284035	52.71	0
1	284581	52.81	0
1	285127	52.91	0
1	285681	53.01	0
1	286227	53.11	0
1	286773	53.21	0
1	287319	53.31	0
1	287865	53.41	0
1	288411	53.51	0
1	288957	53.61	0
1	289503	53.71	0
1	290049	53.81	0
1	290595	53.91	0
1	291149	54.01	0
1	291695	54.11	0
1	292241	54.21	0
1	292787	54.31	0
1	293333	54.41	0
1	293879	54.51	0
1	294425	54.61	0
1	294971	54.71	0
1	295517	54.81	0
1	296063	54.91	0
1	296617	55.01	0
1	297163	55.11	0
1	297709	55.21	0
1	298255	55.31	0
1	298801	55.41	0
1	299347	55.51	0
1	299893	55.61	0
1	300439	55.71	0
1	300985	55.81	0
1	301531	55.91	0
1	302085	56.01	0
1	302631	56.11	0
1	303177	56.21	0
1	303723	56.31	0
1	304269	56.41	0
1	304815	56.51	0
1	305361	56.61	0
1	305907	56.71	0
1	306453	56.81	0
1	306999	56.91	0
1	307553	57.01	0
1	308099	57.11	0
1	308645	57.21	0
1	309191	57.31	0
1	309737	57.41	0
1	310283	57.51	0
1	310829	57.61	0
1	311375	57.71	0
1	311921	57.81	0
1	312467	57.91	0
1	313021	58.01	0
1	313567	58.11	0
1	314113	58.21	0
1	314659	58.31	0
1	315205	58.41	0
1	315751	58.51	0
1	316297	58.61	0
1	316843	58.71	0
1	317389	58.81	0
1	317935	58.91	0
1	318489	59.01	0
1	319035	59.11	0
1	319581	59.21	0
1	320127	59.31	0
1	320673	59.41	0
1	321219	59.51	0
1	321765	59.61	0
1	322311	59.71	0
1	322857	59.81	0
1	323403	59.91	0
1	323957	60.01	0
1	324503	60.11	0
1	325049	60.21	0
1	325595	60.31	0
1	326141	60.41	0
1	326687	60.51	0
1	327233	60.61	0
1	327779	60.71	0
1	328325	60.81	0
1	328871	60.91	0
1	329425	61.01	0
1	329971	61.11	0
1	330517	61.21	0
1	331063	61.31	0
1	331609	61.41	0
1	332155	61.51	0
1	332701	61.61	0
1	333247	61.71	0
1	333793	61.81	0
1	334339	61.91	0
1	334893	62.01	0
1	335439	62.11	0
1	335985	62.21	0
1	336531	62.31	0
1	337077	62.41	0
1	337623	62.51	0
1	338169	62.61	0
1	338715	62.71	0
1	339261	62.81	0
1	339807	62.91	0
1	340361	63.01	0
1	340907	63.11	0
1	341453	63.21	0
1	341999	63.31	0
1	342545	63.41	0
1	343091	63.51	0
1	343637	63.61	0
1	344183	63.71	0
1	344729	63.81	0
1	345275	63.91	0
1	345829	64.01	0
1	346375	64.11	0
1	346921	64.21	0
1	347467	64.31	0
1	348013	64.41	0
1	348559	64.51	0
1	349105	64.61	0
1	349651	64.71	0
1	350197	64.81	0
1	350743	64.91	0
1	351297	65.01	0
1	351843	65.11	0
1	352389	65.21	0
1	352935	65.31	0
1	353481	65.41	0
1	354027	65.51	0
1	354573	65.61	0
1	355119	65.71	0
1	355665	65.81	0
1	356211	65.91	0
1	356765	66.01	0
1	357311	66.11	0
1	357857	66.21	0
1	358403	66.31	0
1	358949	66.41	0
1	359495	66.51	0
1	360041	66.61	0
1	360587	66.71	0
1	361133	66.81	0
1	361679	66.91	0
1	362233	67.01	0
1	362779	67.11	0
1	363325	67.21	0
1	363871	67.31	0
1	364417	67.41	0
1	364963	67.51	0
1	365509	67.61	0
1	366055	67.71	0
1	366601	67.81	0
1	367147	67.91	0
1	367701	68.01	0
1	368247	68.11	0
1	368793	68.21	0
1	369339	68.31	0
1	369885	68.41	0
1	370431	68.51	0
1	370977	68.61	0
1	371523	68.71	0
1	372069	68.81	0
1	372615	68.91	0
1	373169	69.01	0
1	373715	69.11	0
1	374261	69.21	0
1	374807	69.31	0
1	375353	69.41	0
1	375899	69.51	0
1	376445	69.61	0
1	376991	69.71	0
1	377537	69.81	0
1	378083	69.91	0
1	378637	70.01	0
1	379183	70.11	0
1	379729	70.21	0
1	380275	70.31	0
1	380821	70.41	0
1	381367	70.51	0
1	381913	70.61	0
1	382459	70.71	0
1	383005	70.81	0
1	383551	70.91	0
1	384105	71.01	0
1	384651	71.11	0
1	385197	71.21	0
1	385743	71.31	0
1	386289	71.41	0
1	386835	71.51	0
1	387381	71.61	0
1	387927	71.71	0
1	388473	71.81	0
1	389019	71.91	0
1	389573	72.01	0
1	390119	72.11	0
1	390665	72.21	0
1	391211	72.31	0
1	391757	72.41	0
1	392303	72.51	0
1	392849	72.61	0
1	393395	72.71	0
1	393941	72.81	0
1	394487	72.91	0
1	395041	73.01	0
1	395587	73.11	0
1	396133	73.21	0
1	396679	73.31	0
1	397225	73.41	0
1	397771	73.51	0
1	398317	73.61	0
1	398863	73.71	0
1	399409	73.81	0
1	399955	73.91	0
1	400509	74.01	0
1	401055	74.11	0
1	401601	74.21	0
1	402147	74.31	0
1	402693	74.41	0
1	403239	74.51	0
1	403785	74.61	0
1	404331	74.71	0
1	404877	74.81	0
1	405423	74.91	0
1	405977	75.01	0
1	406523	75.11	0
1	407069	75.21	0
1	407615	75.31	0
1	408161	75.41	0
1	408707	75.51	0
1	409253	75.61	0
1	409799	75.71	0
1	410345	75.81	0
1	410891	75.91	0
1	411445	76.01	0
1	411991	76.11	0
1	412537	76.21	0
1	413083	76.31	0
1	413629	76.41	0
1	414175	76.51	0
1	414721	76.61	0
1	415267	76.71	0
1	415813	76.81	0
1	416359	76.91	0
1	416913	77.01	0
1	417459	77.11	0
1	418005	77.21	0
1	418551	77.31	0
1	419097	77.41	0
1	419643	77.51	0
1	420189	77.61	0
1	420735	77.71	0
1	421281	77.81	0
1	421827	77.91	0
1	422381	78.01	0
1	422927	78.11	0
1	423473	78.21	0
1	424019	78.31	0
1	424565	78.41	0
1	425111	78.51	0
1	425657	78.61	0
1	426203	78.71	0
1	426749	78.81	0
1	427295	78.91	0
1	427849	79.01	0
1	428395	79.11	0
1	428941	79.21	0
1	429487	79.31	0
1	430033	79.41	0
1	430579	79.51	0
1	431125	79.61	0
1	431671	79.71	0
1	432217	79.81	0
1	432763	79.91	0
1	433317	80.01	0
1	433863	80.11	0
1	434409	80.21	0
1	434955	80.31	0
1	435501	80.41	0
1	436047	80.51	0
1	436593	80.61	0
1	437139	80.71	0
1	437685	80.81	0
1	438231	80.91	0
1	438785	81.01	0
1	439331	81.11	0
1	439877	81.21	0
1	440423	81.31	0
1	440969	81.41	0
1	441515	81.51	0
1	442061	81.61	0
1	442607	81.71	0
1	443153	81.81	0
1	443699	81.91	0
1	444253	82.01	0
1	444799	82.11	0
1	445345	82.21	0
1	445891	82.31	0
1	446437	82.41	0
1	446983	82.51	0
1	447529	82.61	0
1	448075	82.71	0
1	448621	82.81	0
1	449167	82.91	0
1	449721	83.01	0
1	450267	83.11	0
1	450813	83.21	0
1	451359	83.31	0
1	451905	83.41	0
1	452451	83.51	0
1	452997	83.61	0
1	453543	83.71	0
1	454089	83.81	0
1	454635	83.91	0
1	455189	84.01	0
1	455735	84.11	0
1	456281	84.21	0
1	456827	84.31	0
1	457373	84.41	0
1	457919	84.51	0
1	458465	84.61	0
1	459011	84.71	0
1	459557	84.81	0
1	460103	84.91	0
1	460657	85.01	0
1	461203	85.11	0
1	461749	85.21	0
1	462295	85.31	0
1	462841	85.41	0
1	463387	85.51	0
1	463933	85.61	0
1	464479	85.71	0
1	465025	85.81	0
1	465571	85.91	0
1	466125	86.01	0
1	466671	86.11	0
1	467217	86.21	0
1	467763	86.31	0
1	468309	86.41	0
1	468855	86.51	0
1	469401	86.61	0
1	469947	86.71	0
1	470493	86.81	0
1	471039	86.91	0
1	471593	87.01	0
1	472139	87.11	0
1	472685	87.21	0
1	473231	87.31	0
1	473777	87.41	0
1	474323	87.51	0
1	474869	87.61	0
1	475415	87.71	0
1	475961	87.81	0
1	476507	87.91	0
1	477061	88.01	0
1	477607	88.11	0
1	478153	88.21	0
1	478699	88.31	0
1	479245	88.41	0
1	479791	88.51	0
1	480337	88.61	0
1	480883	88.71	0
1	481429	88.81	0
1	481975	88.91	0
1	482529	89.01	0
1	483075	89.11	0
1	483621	89.21	0
1	484167	89.31	0
1	484713	89.41	0
1	485259	89.51	0
1	485805	89.61	0
1	486351	89.71	0
1	486897	89.81	0
1	487443	89.91	0
1	487997	90.01	0
1	488543	90.11	0
1	489089	90.21	0
1	489635	90.31	0
1	490181	90.41	0
1	490727	90.51	0
1	491273	90.61	0
1	491819	90.71	0
1	492365	90.81	0
1	492911	90.91	0
1	493465	91.01	0
1	494011	91.11	0
1	494557	91.21	0
1	495103	91.31	0
1	495649	91.41	0
1	496195	91.51	0
1	496741	91.61	0
1	497287	91.71	0
1	497833	91.81	0
1	498379	91.91	0
1	498933	92.01	0
1	499479	92.11	0
1	500025	92.21	0
1	500571	92.31	0
1	501117	92.41	0
1	501663	92.51	0
1	502209	92.61	0
1	502755	92.71	0
1	503301	92.81	0
1	503847	92.91	0
1	504401	93.01	0
1	504947	93.11	0
1	505493	93.21	0
1	506039	93.31	0
1	506585	93.41	0
1	507131	93.51	0
1	507677	93.61	0
1	508223	93.71	0
1	508769	93.81	0
1	509315	93.91	0
1	509869	94.01	0
1	510415	94.11	0
1	510961	94.21	0
1	511507	94.31	0
1	512053	94.41	0
1	512599	94.51	0
1	513145	94.61	0
1	513691	94.71	0
1	514237	94.81	0
1	514783	94.91	0
1	515337	95.01	0
1	515883	95.11	0
1	516429	95.21	0
1	516975	95.31	0
1	517521	95.41	0
1	518067	95.51	0
1	518613	95.61	0
1	519159	95.71	0
1	519705	95.81	0
1	520251	95.91	0
1	520805	96.01	0
1	521351	96.11	0
1	521897	96.21	0
1	522443	96.31	0
1	522989	96.41	0
1	523535	96.51	0
1	524081	96.61	0
1	524627	96.71	0
1	525173	96.81	0
1	525719	96.91	0
1	526273	97.01	0
1	526819	97.11	0
1	527365	97.21	0
1	527911	97.31	0
1	528457	97.41	0
1	529003	97.51	0
1	529549	97.61	0
1	530095	97.71	0
1	530641	97.81	0
1	531187	97.91	0
1	531741	98.01	0
1	532287	98.11	0
1	532833	98.21	0
1	533379	98.31	0
1	533925	98.41	0
1	534471	98.51	0
1	535017	98.61	0
1	535563	98.71	0
1	536109	98.81	0
1	536655	98.91	0
1	537209	99.01	0
1	537755	99.11	0
1	538301	99.21	0
1	538847	99.31	0
1	539393	99.41	0
1	539939	99.51	0
1	540485	99.61	0
1	541031	99.71	0
1	541577	99.81	0
1	542123	99.91	0
2	113	1.11	0
2	659	1.21	0
2	1205	1.31	0
2	1751	1.41	0
2	2297	1.51	0
2	2843	1.61	0
2	3389	1.71	0
2	3935	1.81	0
2	4481	1.91	0
2	5035	2.01	0
2	5581	2.11	0
2	6127	2.21	0
2	6673	2.31	0
2	7219	2.41	0
2	7765	2.51	0
2	8311	2.61	0
2	8857	2.71	0
2	9403	2.81	0
2	9949	2.91	0
2	10503	3.01	0
2	11049	3.11	0
2	11595	3.21	0
2	12141	3.31	0
2	12687	3.41	0
2	13233	3.51	0
2	13779	3.61	0
2	14325	3.71	0
2	14871	3.81	0
2	15417	3.91	0
2	15971	4.01	0
2	16517	4.11	0
2	17063	4.21	0
2	17609	4.31	0
2	18155	4.41	0
2	18701	4.51	0
2	19247	4.61	0
2	19793	4.71	0
2	20339	4.81	0
2	20885	4.91	0
2	21439	5.01	0
2	21985	5.11	0
2	22531	5.21	0
2	23077	5.31	0
2	23623	5.41	0
2	24169	5.51	0
2	24715	5.61	0
2	25261	5.71	0
2	25807	5.81	0
2	26353	5.91	0
2	26907	6.01	0
2	27453	6.11	0
2	27999	6.21	0
2	28545	6.31	0
2	29091	6.41	0
2	29637	6.51	0
2	30183	6.61	0
2	30729	6.71	0
2	31275	6.81	0
2	31821	6.91	0
2	32375	7.01	0
2	32921	7.11	0
2	33467	7.21	0
2	34013	7.31	0
2	34559	7.41	0
2	35105	7.51	0
2	35651	7.61	0
2	36197	7.71	0
2	36743	7.81	0
2	37289	7.91	0
2	37843	8.01	0
2	38389	8.11	0
2	38935	8.21	0
2	39481	8.31	0
2	40027	8.41	0
2	40573	8.51	0
2	41119	8.61	0
2	41665	8.71	0
2	42211	8.81	0
2	42757	8.91	0
2	43311	9.01	0
2	43857	9.11	0
2	44403	9.21	0
2	44949	9.31	0
2	45495	9.41	0
2	46041	9.51	0
2	46587	9.61	0
2	47133	9.71	0
2	47679	9.81	0
2	48225	9.91	0
2	50557	10.01	0
2	51103	10.11	0
2	51649	10.21	0
2	52195	10.31	0
2	52741	10.41	0
2	53287	10.51	0
2	53833	10.61	0
2	54379	10.71	0
2	54925	10.81	0
2	55471	10.91	0
2	56025	11.01	0
2	56571	11.11	0
2	57117	11.21	0
2	57663	11.31	0
2	58209	11.41	0
2	58755	11.51	0
2	59301	11.61	0
2	59847	11.71	0
2	60393	11.81	0
2	60939	11.91	0
2	61493	12.01	0
2	62039	12.11	0
2	62585	12.21	0
2	63131	12.31	0
2	63677	12.41	0
2	64223	12.51	0
2	64769	12.61	0
2	65315	12.71	0
2	65861	12.81	0
2	66407	12.91	0
2	66961	13.01	0
2	67507	13.11	0
2	68053	13.21	0
2	68599	13.31	0
2	69145	13.41	0
2	69691	13.51	0
2	70237	13.61	0
2	70783	13.71	0
2	71329	13.81	0
2	71875	13.91	0
2	72429	14.01	0
2	72975	14.11	0
2	73521	14.21	0
2	74067	14.31	0
2	74613	14.41	0
2	75159	14.51	0
2	75705	14.61	0
2	76251	14.71	0
2	76797	14.81	0
2	77343	14.91	0
2	77897	15.01	0
2	78443	15.11	0
2	78989	15.21	0
2	79535	15.31	0
2	80081	15.41	0
2	80627	15.51	0
2	81173	15.61	0
2	81719	15.71	0
2	82265	15.81	0
2	82811	15.91	0
2	83365	16.01	0
2	83911	16.11	0
2	84457	16.21	0
2	85003	16.31	0
2	85549	16.41	0
2	86095	16.51	0
2	86641	16.61	0
2	87187	16.71	0
2	87733	16.81	0
2	88279	16.91	0
2	88833	17.01	0
2	89379	17.11	0
2	89925	17.21	0
2	90471	17.31	0
2	91017	17.41	0
2	91563	17.51	0
2	92109	17.61	0
2	92655	17.71	0
2	93201	17.81	0
2	93747	17.91	0
2	94301	18.01	0
2	94847	18.11	0
2	95393	18.21	0
2	95939	18.31	0
2	96485	18.41	0
2	97031	18.51	0
2	97577	18.61	0
2	98123	18.71	0
2	98669	18.81	0
2	99215	18.91	0
2	99769	19.01	0
2	100315	19.11	0
2	100861	19.21	0
2	101407	19.31	0
2	101953	19.41	0
2	102499	19.51	0
2	103045	19.61	0
2	103591	19.71	0
2	104137	19.81	0
2	104683	19.91	0
2	105237	20.01	0
2	105783	20.11	0
2	106329	20.21	0
2	106875	20.31	0
2	107421	20.41	0
2	107967	20.51	0
2	108513	20.61	0
2	109059	20.71	0
2	109605	20.81	0
2	110151	20.91	0
2	110705	21.01	0
2	111251	21.11	0
2	111797	21.21	0
2	112343	21.31	0
2	112889	21.41	0
2	113435	21.51	0
2	113981	21.61	0
2	114527	21.71	0
2	115073	21.81	0
2	115619	21.91	0
2	116173	22.01	0
2	116719	22.11	0
2	117265	22.21	0
2	117811	22.31	0
2	118357	22.41	0
2	118903	22.51	0
2	119449	22.61	0
2	119995	22.71	0
2	120541	22.81	0
2	121087	22.91	0
2	121641	23.01	0
2	122187	23.11	0
2	122733	23.21	0
2	123279	23.31	0
2	123825	23.41	0
2	124371	23.51	0
2	124917	23.61	0
2	125463	23.71	0
2	126009	23.81	0
2	126555	23.91	0
2	127109	24.01	0
2	127655	24.11	0
2	128201	24.21	0
2	128747	24.31	0
2	129293	24.41	0
2	129839	24.51	0
2	130385	24.61	0
2	130931	24.71	0
2	131477	24.81	0
2	132023	24.91	0
2	132577	25.01	0
2	133123	25.11	0
2	133669	25.21	0
2	134215	25.31	0
2	134761	25.41	0
2	135307	25.51	0
2	135853	25.61	0
2	136399	25.71	0
2	136945	25.81	0
2	137491	25.91	0
2	138045	26.01	0
2	138591	26.11	0
2	139137	26.21	0
2	139683	26.31	0
2	140229	26.41	0
2	140775	26.51	0
2	141321	26.61	0
2	141867	26.71	0
2	142413	26.81	0
2	142959	26.91	0
2	143513	27.01	0
2	144059	27.11	0
2	144605	27.21	0
2	145151	27.31	0
2	145697	27.41	0
2	146243	27.51	0
2	146789	27.61	0
2	147335	27.71	0
2	147881	27.81	0
2	148427	27.91	0
2	148981	28.01	0
2	149527	28.11	0
2	150073	28.21	0
2	150619	28.31	0
2	151165	28.41	0
2	151711	28.51	0
2	152257	28.61	0
2	152803	28.71	0
2	153349	28.81	0
2	153895	28.91	0
2	154449	29.01	0
2	154995	29.11	0
2	155541	29.21	0
2	156087	29.31	0
2	156633	29.41	0
2	157179	29.51	0
2	157725	29.61	0
2	158271	29.71	0
2	158817	29.81	0
2	159363	29.91	0
2	159917	30.01	0
2	160463	30.11	0
2	161009	30.21	0
2	161555	30.31	0
2	162101	30.41	0
2	162647	30.51	0
2	163193	30.61	0
2	163739	30.71	0
2	164285	30.81	0
2	164831	30.91	0
2	165385	31.01	0
2	165931	31.11	0
2	166477	31.21	0
2	167023	31.31	0
2	167569	31.41	0
2	168115	31.51	0
2	168661	31.61	0
2	169207	31.71	0
2	169753	31.81	0
2	170299	31.91	0
2	170853	32.01	0
2	171399	32.11	0
2	171945	32.21	0
2	172491	32.31	0
2	173037	32.41	0
2	173583	32.51	0
2	174129	32.61	0
2	174675	32.71	0
2	175221	32.81	0
2	175767	32.91	0
2	176321	33.01	0
2	176867	33.11	0
2	177413	33.21	0
2	177959	33.31	0
2	178505	33.41	0
2	179051	33.51	0
2	179597	33.61	0
2	180143	33.71	0
2	180689	33.81	0
2	181235	33.91	0
2	181789	34.01	0
2	182335	34.11	0
2	182881	34.21	0
2	183427	34.31	0
2	183973	34.41	0
2	184519	34.51	0
2	185065	34.61	0
2	185611	34.71	0
2	186157	34.81	0
2	186703	34.91	0
2	187257	35.01	0
2	187803	35.11	0
2	188349	35.21	0
2	188895	35.31	0
2	189441	35.41	0
2	189987	35.51	0
2	190533	35.61	0
2	191079	35.71	0
2	191625	35.81	0
2	192171	35.91	0
2	192725	36.01	0
2	193271	36.11	0
2	193817	36.21	0
2	194363	36.31	0
2	194909	36.41	0
2	195455	36.51	0
2	196001	36.61	0
2	196547	36.71	0
2	197093	36.81	0
2	197639	36.91	0
2	198193	37.01	0
2	198739	37.11	0
2	199285	37.21	0
2	199831	37.31	0
2	200377	37.41	0
2	200923	37.51	0
2	201469	37.61	0
2	202015	37.71	0
2	202561	37.81	0
2	203107	37.91	0
2	203661	38.01	0
2	204207	38.11	0
2	204753	38.21	0
2	205299	38.31	0
2	205845	38.41	0
2	206391	38.51	0
2	206937	38.61	0
2	207483	38.71	0
2	208029	38.81	0
2	208575	38.91	0
2	209129	39.01	0
2	209675	39.11	0
2	210221	39.21	0
2	210767	39.31	0
2	211313	39.41	0
2	211859	39.51	0
2	212405	39.61	0
2	212951	39.71	0
2	213497	39.81	0
2	214043	39.91	0
2	214597	40.01	0
2	215143	40.11	0
2	215689	40.21	0
2	216235	40.31	0
2	216781	40.41	0
2	217327	40.51	0
2	217873	40.61	0
2	218419	40.71	0
2	218965	40.81	0
2	219511	40.91	0
2	220065	41.01	0
2	220611	41.11	0
2	221157	41.21	0
2	221703	41.31	0
2	222249	41.41	0
2	222795	41.51	0
2	223341	41.61	0
2	223887	41.71	0
2	224433	41.81	0
2	224979	41.91	0
2	225533	42.01	0
2	226079	42.11	0
2	226625	42.21	0
2	227171	42.31	0
2	227717	42.41	0
2	228263	42.51	0
2	228809	42.61	0
2	229355	42.71	0
2	229901	42.81	0
2	230447	42.91	0
2	231001	43.01	0
2	231547	43.11	0
2	232093	43.21	0
2	232639	43.31	0
2	233185	43.41	0
2	233731	43.51	0
2	234277	43.61	0
2	234823	43.71	0
2	235369	43.81	0
2	235915	43.91	0
2	236469	44.01	0
2	237015	44.11	0
2	237561	44.21	0
2	238107	44.31	0
2	238653	44.41	0
2	239199	44.51	0
2	239745	44.61	0
2	240291	44.71	0
2	240837	44.81	0
2	241383	44.91	0
2	241937	45.01	0
2	242483	45.11	0
2	243029	45.21	0
2	243575	45.31	0
2	244121	45.41	0
2	244667	45.51	0
2	245213	45.61	0
2	245759	45.71	0
2	246305	45.81	0
2	246851	45.91	0
2	247405	46.01	0
2	247951	46.11	0
2	248497	46.21	0
2	249043	46.31	0
2	249589	46.41	0
2	250135	46.51	0
2	250681	46.61	0
2	251227	46.71	0
2	251773	46.81	0
2	252319	46.91	0
2	252873	47.01	0
2	253419	47.11	0
2	253965	47.21	0
2	254511	47.31	0
2	255057	47.41	0
2	255603	47.51	0
2	256149	47.61	0
2	256695	47.71	0
2	257241	47.81	0
2	257787	47.91	0
2	258341	48.01	0
2	258887	48.11	0
2	259433	48.21	0
2	259979	48.31	0
2	260525	48.41	0
2	261071	48.51	0
2	261617	48.61	0
2	262163	48.71	0
2	262709	48.81	0
2	263255	48.91	0
2	263809	49.01	0
2	264355	49.11	0
2	264901	49.21	0
2	265447	49.31	0
2	265993	49.41	0
2	266539	49.51	0
2	267085	49.61	0
2	267631	49.71	0
2	268177	49.81	0
2	268723	49.91	0
2	269277	50.01	0
2	269823	50.11	0
2	270369	50.21	0
2	270915	50.31	0
2	271461	50.41	0
2	272007	50.51	0
2	272553	50.61	0
2	273099	50.71	0
2	273645	50.81	0
2	274191	50.91	0
2	274745	51.01	0
2	275291	51.11	0
2	275837	51.21	0
2	276383	51.31	0
2	276929	51.41	0
2	277475	51.51	0
2	278021	51.61	0
2	278567	51.71	0
2	279113	51.81	0
2	279659	51.91	0
2	280213	52.01	0
2	280759	52.11	0
2	281305	52.21	0
2	281851	52.31	0
2	282397	52.41	0
2	282943	52.51	0
2	283489	52.61	0
2	284035	52.71	0
2	284581	52.81	0
2	285127	52.91	0
2	285681	53.01	0
2	286227	53.11	0
2	286773	53.21	0
2	287319	53.31	0
2	287865	53.41	0
2	288411	53.51	0
2	288957	53.61	0
2	289503	53.71	0
2	290049	53.81	0
2	290595	53.91	0
2	291149	54.01	0
2	291695	54.11	0
2	292241	54.21	0
2	292787	54.31	0
2	293333	54.41	0
2	293879	54.51	0
2	294425	54.61	0
2	294971	54.71	0
2	295517	54.81	0
2	296063	54.91	0
2	296617	55.01	0
2	297163	55.11	0
2	297709	55.21	0
2	298255	55.31	0
2	298801	55.41	0
2	299347	55.51	0
2	299893	55.61	0
2	300439	55.71	0
2	300985	55.81	0
2	301531	55.91	0
2	302085	56.01	0
2	302631	56.11	0
2	303177	56.21	0
2	303723	56.31	0
2	304269	56.41	0
2	304815	56.51	0
2	305361	56.61	0
2	305907	56.71	0
2	306453	56.81	0
2	306999	56.91	0
2	307553	57.01	0
2	308099	57.11	0
2	308645	57.21	0
2	309191	57.31	0
2	309737	57.41	0
2	310283	57.51	0
2	310829	57.61	0
2	311375	57.71	0
2	311921	57.81	0
2	312467	57.91	0
2	313021	58.01	0
2	313567	58.11	0
2	314113	58.21	0
2	314659	58.31	0
2	315205	58.41	0
2	315751	58.51	0
2	316297	58.61	0
2	316843	58.71	0
2	317389	58.81	0
2	317935	58.91	0
2	318489	59.01	0
2	319035	59.11	0
2	319581	59.21	0
2	320127	59.31	0
2	320673	59.41	0
2	321219	59.51	0
2	321765	59.61	0
2	322311	59.71	0
2	322857	59.81	0
2	323403	59.91	0
2	323957	60.01	0
2	324503	60.11	0
2	325049	60.21	0
2	325595	60.31	0
2	326141	60.41	0
2	326687	60.51	0
2	327233	60.61	0
2	327779	60.71	0
2	328325	60.81	0
2	328871	60.91	0
2	329425	61.01	0
2	329971	61.11	0
2	330517	61.21	0
2	331063	61.31	0
2	331609	61.41	0
2	332155	61.51	0
2	332701	61.61	0
2	333247	61.71	0
2	333793	61.81	0
2	334339	61.91	0
2	334893	62.01	0
2	335439	62.11	0
2	335985	62.21	0
2	336531	62.31	0
2	337077	62.41	0
2	337623	62.51	0
2	338169	62.61	0
2	338715	62.71	0
2	339261	62.81	0
2	339807	62.91	0
2	340361	63.01	0
2	340907	63.11	0
2	341453	63.21	0
2	341999	63.31	0
2	342545	63.41	0
2	343091	63.51	0
2	343637	63.61	0
2	344183	63.71	0
2	344729	63.81	0
2	345275	63.91	0
2	345829	64.01	0
2	346375	64.11	0
2	346921	64.21	0
2	347467	64.31	0
2	348013	64.41	0
2	348559	64.51	0
2	349105	64.61	0
2	349651	64.71	0
2	350197	64.81	0
2	350743	64.91	0
2	351297	65.01	0
2	351843	65.11	0
2	352389	65.21	0
2	352935	65.31	0
2	353481	65.41	0
2	354027	65.51	0
2	354573	65.61	0
2	355119	65.71	0
2	355665	65.81	0
2	356211	65.91	0
2	356765	66.01	0
2	357311	66.11	0
2	357857	66.21	0
2	358403	66.31	0
2	358949	66.41	0
2	359495	66.51	0
2	360041	66.61	0
2	360587	66.71	0
2	361133	66.81	0
2	361679	66.91	0
2	362233	67.01	0
2	362779	67.11	0
2	363325	67.21	0
2	363871	67.31	0
2	364417	67.41	0
2	364963	67.51	0
2	365509	67.61	0
2	366055	67.71	0
2	366601	67.81	0
2	367147	67.91	0
2	367701	68.01	0
2	368247	68.11	0
2	368793	68.21	0
2	369339	68.31	0
2	369885	68.41	0
2	370431	68.51	0
2	370977	68.61	0
2	371523	68.71	0
2	372069	68.81	0
2	372615	68.91	0
2	373169	69.01	0
2	373715	69.11	0
2	374261	69.21	0
2	374807	69.31	0
2	375353	69.41	0
2	375899	69.51	0
2	376445	69.61	0
2	376991	69.71	0
2	377537	69.81	0
2	378083	69.91	0
2	378637	70.01	0
2	379183	70.11	0
2	379729	70.21	0
2	380275	70.31	0
2	380821	70.41	0
2	381367	70.51	0
2	381913	70.61	0
2	382459	70.71	0
2	383005	70.81	0
2	383551	70.91	0
2	384105	71.01	0
2	384651	71.11	0
2	385197	71.21	0
2	385743	71.31	0
2	386289	71.41	0
2	386835	71.51	0
2	387381	71.61	0
2	387927	71.71	0
2	388473	71.81	0
2	389019	71.91	0
2	389573	72.01	0
2	390119	72.11	0
2	390665	72.21	0
2	391211	72.31	0
2	391757	72.41	0
2	392303	72.51	0
2	392849	72.61	0
2	393395	72.71	0
2	393941	72.81	0
2	394487	72.91	0
2	395041	73.01	0
2	395587	73.11	0
2	396133	73.21	0
2	396679	73.31	0
2	397225	73.41	0
2	397771	73.51	0
2	398317	73.61	0
2	398863	73.71	0
2	399409	73.81	0
2	399955	73.91	0
2	400509	74.01	0
2	401055	74.11	0
2	401601	74.21	0
2	402147	74.31	0
2	402693	74.41	0
2	403239	74.51	0
2	403785	74.61	0
2	404331	74.71	0
2	404877	74.81	0
2	405423	74.91	0
2	405977	75.01	0
2	406523	75.11	0
2	407069	75.21	0
2	407615	75.31	0
2	408161	75.41	0
2	408707	75.51	0
2	409253	75.61	0
2	409799	75.71	0
2	410345	75.81	0
2	410891	75.91	0
2	411445	76.01	0
2	411991	76.11	0
2	412537	76.21	0
2	413083	76.31	0
2	413629	76.41	0
2	414175	76.51	0
2	414721	76.61	0
2	415267	76.71	0
2	415813	76.81	0
2	416359	76.91	0
2	416913	77.01	0
2	417459	77.11	0
2	418005	77.21	0
2	418551	77.31	0
2	419097	77.41	0
2	419643	77.51	0
2	420189	77.61	0
2	420735	77.71	0
2	421281	77.81	0
2	421827	77.91	0
2	422381	78.01	0
2	422927	78.11	0
2	423473	78.21	0
2	424019	78.31	0
2	424565	78.41	0
2	425111	78.51	0
2	425657	78.61	0
2	426203	78.71	0
2	426749	78.81	0
2	427295	78.91	0
2	427849	79.01	0
2	428395	79.11	0
2	428941	79.21	0
2	429487	79.31	0
2	430033	79.41	0
2	430579	79.51	0
2	431125	79.61	0
2	431671	79.71	0
2	432217	79.81	0
2	432763	79.91	0
2	433317	80.01	0
2	433863	80.11	0
2	434409	80.21	0
2	434955	80.31	0
2	435501	80.41	0
2	436047	80.51	0
2	436593	80.61	0
2	437139	80.71	0
2	437685	80.81	0
2	438231	80.91	0
2	438785	81.01	0
2	439331	81.11	0
2	439877	81.21	0
2	440423	81.31	0
2	440969	81.41	0
2	441515	81.51	0
2	442061	81.61	0
2	442607	81.71	0
2	443153	81.81	0
2	443699	81.91	0
2	444253	82.01	0
2	444799	82.11	0
2	445345	82.21	0
2	445891	82.31	0
2	446437	82.41	0
2	446983	82.51	0
2	447529	82.61	0
2	448075	82.71	0
2	448621	82.81	0
2	449167	82.91	0
2	449721	83.01	0
2	450267	83.11	0
2	450813	83.21	0
2	451359	83.31	0
2	451905	83.41	0
2	452451	83.51	0
2	452997	83.61	0
2	453543	83.71	0
2	454089	83.81	0
2	454635	83.91	0
2	455189	84.01	0
2	455735	84.11	0
2	456281	84.21	0
2	456827	84.31	0
2	457373	84.41	0
2	457919	84.51	0
2	458465	84.61	0
2	459011	84.71	0
2	459557	84.81	0
2	460103	84.91	0
2	460657	85.01	0
2	461203	85.11	0
2	461749	85.21	0
2	462295	85.31	0
2	462841	85.41	0
2	463387	85.51	0
2	463933	85.61	0
2	464479	85.71	0
2	465025	85.81	0
2	465571	85.91	0
2	466125	86.01	0
2	466671	86.11	0
2	467217	86.21	0
2	467763	86.31	0
2	468309	86.41	0
2	468855	86.51	0
2	469401	86.61	0
2	469947	86.71	0
2	470493	86.81	0
2	471039	86.91	0
2	471593	87.01	0
2	472139	87.11	0
2	472685	87.21	0
2	473231	87.31	0
2	473777	87.41	0
2	474323	87.51	0
2	474869	87.61	0
2	475415	87.71	0
2	475961	87.81	0
2	476507	87.91	0
2	477061	88.01	0
2	477607	88.11	0
2	478153	88.21	0
2	478699	88.31	0
2	479245	88.41	0
2	479791	88.51	0
2	480337	88.61	0
2	480883	88.71	0
2	481429	88.81	0
2	481975	88.91	0
2	482529	89.01	0
2	483075	89.11	0
2	483621	89.21	0
2	484167	89.31	0
2	484713	89.41	0
2	485259	89.51	0
2	485805	89.61	0
2	486351	89.71	0
2	486897	89.81	0
2	487443	89.91	0
2	487997	90.01	0
2	488543	90.11	0
2	489089	90.21	0
2	489635	90.31	0
2	490181	90.41	0
2	490727	90.51	0
2	491273	90.61	0
2	491819	90.71	0
2	492365	90.81	0
2	492911	90.91	0
2	493465	91.01	0
2	494011	91.11	0
2	494557	91.21	0
2	495103	91.31	0
2	495649	91.41	0
2	496195	91.51	0
2	496741	91.61	0
2	497287	91.71	0
2	497833	91.81	0
2	498379	91.91	0
2	498933	92.01	0
2	499479	92.11	0
2	500025	92.21	0
2	500571	92.31	0
2	501117	92.41	0
2	501663	92.51	0
2	502209	92.61	0
2	502755	92.71	0
2	503301	92.81	0
2	503847	92.91	0
2	504401	93.01	0
2	504947	93.11	0
2	505493	93.21	0
2	506039	93.31	0
2	506585	93.41	0
2	507131	93.51	0
2	507677	93.61	0
2	508223	93.71	0
2	508769	93.81	0
2	509315	93.91	0
2	509869	94.01	0
2	510415	94.11	0
2	510961	94.21	0
2	511507	94.31	0
2	512053	94.41	0
2	512599	94.51	0
2	513145	94.61	0
2	513691	94.71	0
2	514237	94.81	0
2	514783	94.91	0
2	515337	95.01	0
2	515883	95.11	0
2	516429	95.21	0
2	516975	95.31	0
2	517521	95.41	0
2	518067	95.51	0
2	518613	95.61	0
2	519159	95.71	0
2	519705	95.81	0
2	520251	95.91	0
2	520805	96.01	0
2	521351	96.11	0
2	521897	96.21	0
2	522443	96.31	0
2	522989	96.41	0
2	523535	96.51	0
2	524081	96.61	0
2	524627	96.71	0
2	525173	96.81	0
2	525719	96.91	0
2	526273	97.01	0
2	526819	97.11	0
2	527365	97.21	0
2	527911	97.31	0
2	528457	97.41	0
2	529003	97.51	0
2	529549	97.61	0
2	530095	97.71	0
2	530641	97.81	0
2	531187	97.91	0
2	531741	98.01	0
2	532287	98.11	0
2	532833	98.21	0
2	533379	98.31	0
2	533925	98.41	0
2	534471	98.51	0
2	535017	98.61	0
2	535563	98.71	0
2	536109	98.81	0
2	536655	98.91	0
2	537209	99.01	0
2	537755	99.11	0
2	538301	99.21	0
2	538847	99.31	0
2	539393	99.41	0
2	539939	99.51	0
2	540485	99.61	0
2	541031	99.71	0
2	541577	99.81	0
2	542123	99.91	0
3	113	1.11	-0.000537287
3	659	1.21	-0.00102256
3	1205	1.31	-0.0014023
3	1751	1.41	-0.00168868
3	2297	1.51	-0.00189332
3	2843	1.61	-0.00202724
3	3389	1.71	-0.00210073
3	3935	1.81	-0.00212335
3	4481	1.91	-0.00210382
3	5035	2.01	-0.00205006
3	5581	2.11	-0.00196919
3	6127	2.21	-0.00186754
3	6673	2.31	-0.00175064
3	7219	2.41	-0.00162335
3	7765	2.51	-0.00148981
3	8311	2.61	-0.00135354
3	8857	2.71	-0.00121748
3	9403	2.81	-0.00108402
3	9949	2.91	-0.000955094
3	10503	3.01	-0.0008322
3	11049	3.11	-0.000716459
3	11595	3.21	-0.00060866
3	12141	3.31	-0.00050931
3	12687	3.41	-0.000418674
3	13233	3.51	-0.000336812
3	13779	3.61	-0.000263615
3	14325	3.71	-0.00019884
3	14871	3.81	-0.000142136
3	15417	3.91	-9.30689e-05
3	15971	4.01	-5.11479e-05
3	16517	4.11	-1.58407e-05
3	17063	4.21	1.34077e-05
3	17609	4.31	3.7161e-05
3	18155	4.41	5.59805e-05
3	18701	4.51	7.0415e-05
3	19247	4.61	8.09934e-05
3	19793	4.71	8.82186e-05
3	20339	4.81	9.25636e-05
3	20885	4.91	9.44677e-05
3	21439	5.01	9.43354e-05
3	21985	5.11	9.25349e-05
3	22531	5.21	8.93982e-05
3	23077	5.31	8.52216e-05
3	23623	5.41	8.02667e-05
3	24169	5.51	7.47624e-05
3	24715	5.61	6.8906e-05
3	25261	5.71	6.28658e-05
3	25807	5.81	5.67832e-05
3	26353	5.91	5.07749e-05
3	26907	6.01	4.49353e-05
3	27453	6.11	3.93388e-05
3	27999	6.21	3.40422e-05
3	28545	6.31	2.90866e-05
3	29091	6.41	2.44995e-05
3	29637	6.51	2.02971e-05
3	30183	6.61	1.64857e-05
3	30729	6.71	1.30632e-05
3	31275	6.81	1.00213e-05
3	31821	6.91	7.34621e-06
3	32375	7.01	5.0199e-06
3	32921	7.11	3.02148e-06
3	33467	7.21	1.32788e-06
3	34013	7.31	-8.52687e-08
3	34559	7.41	-1.24302e-06
3	35105	7.51	-2.17048e-06
3	35651	7.61	-2.89239e-06
3	36197	7.71	-3.43273e-06
3	36743	7.81	-3.81443e-06
3	37289	7.91	-4.05915e-06
3	37843	8.01	-4.18709e-06
3	38389	8.11	-4.21695e-06
3	38935	8.21	-4.16581e-06
3	39481	8.31	-4.04914e-06
3	40027	8.41	-3.88081e-06
3	40573	8.51	-3.67311e-06
3	41119	8.61	-3.43684e-06
3	41665	8.71	-3.18138e-06
3	42211	8.81	-2.91475e-06
3	42757	8.91	-2.64374e-06
3	43311	9.01	-2.37401e-06
3	43857	9.11	-2.11015e-06
3	44403	9.21	-1.85584e-06
3	44949	9.31	-1.61394e-06
3	45495	9.41	-1.38655e-06
3	46041	9.51	-1.17514e-06
3	46587	9.61	-9.8063e-07
3	47133	9.71	-8.03478e-07
3	47679	9.81	-6.4374e-07
3	48225	9.91	-5.01153e-07
3	50557	10.01	-3.75194e-07
3	51103	10.11	-2.65135e-07
3	51649	10.21	-1.70092e-07
3	52195	10.31	-8.90743e-08
3	52741	10.41	-2.10129e-08
3	53287	10.51	3.51982e-08
3	53833	10.61	8.06793e-08
3	54379	10.71	1.16543e-07
3	54925	10.81	1.43872e-07
3	55471	10.91	1.63713e-07
3	56025	11.01	1.77052e-07
3	56571	11.11	1.84819e-07
3	57117	11.21	1.87876e-07
3	57663	11.31	1.87014e-07
3	58209	11.41	1.82953e-07
3	58755	11.51	1.7634e-07
3	59301	11.61	1.67752e-07
3	59847	11.71	1.57699e-07
3	60393	11.81	1.46622e-07
3	60939	11.91	1.34906e-07
3	61493	12.01	1.22874e-07
3	62039	12.11	1.10801e-07
3	62585	12.21	9.89097e-08
3	63131	12.31	8.73804e-08
3	63677	12.41	7.63556e-08
3	64223	12.51	6.59412e-08
3	64769	12.61	5.62153e-08
3	65315	12.71	4.72291e-08
3	65861	12.81	3.90095e-08
3	66407	12.91	3.15666e-08
3	66961	13.01	2.48953e-08
3	67507	13.11	1.8975e-08
3	68053	13.21	1.37796e-08
3	68599	13.31	9.26903e-09
3	69145	13.41	5.40297e-09
3	69691	13.51	2.13376e-09
3	70237	13.61	-5.85487e-10
3	70783	13.71	-2.80593e-09
3	71329	13.81	-4.57732e-09
3	71875	13.91	-5.94866e-09
3	72429	14.01	-6.96758e-09
3	72975	14.11	-7.67812e-09
3	73521	14.21	-8.12292e-09
3	74067	14.31	-8.34106e-09
3	74613	14.41	-8.3709e-09
3	75159	14.51	-8.24443e-09
3	75705	14.61	-7.99361e-09
3	76251	14.71	-7.64544e-09
3	76797	14.81	-7.22338e-09
3	77343	14.91	-6.74589e-09
3	77897	15.01	-6.23359e-09
3	78443	15.11	-5.70139e-09
3	78989	15.21	-5.16138e-09
3	79535	15.31	-4.62634e-09
3	80081	15.41	-4.10481e-09
3	80627	15.51	-3.60387e-09
3	81173	15.61	-3.12781e-09
3	81719	15.71	-2.68088e-09
3	82265	15.81	-2.26663e-09
3	82811	15.91	-1.88649e-09
3	83365	16.01	-1.54046e-09
3	83911	16.11	-1.22782e-09
3	84457	16.21	-9.50706e-10
3	85003	16.31	-7.06279e-10
3	85549	16.41	-4.92406e-10
3	86095	16.51	-3.09086e-10
3	86641	16.61	-1.52767e-10
3	87187	16.71	-2.13163e-11
3	87733	16.81	8.66862e-11
3	88279	16.91	1.73372e-10
3	88833	17.01	2.41585e-10
3	89379	17.11	2.92744e-10
3	89925	17.21	3.29692e-10
3	90471	17.31	3.54561e-10
3	91017	17.41	3.68061e-10
3	91563	17.51	3.72324e-10
3	92109	17.61	3.69482e-10
3	92655	17.71	3.60956e-10
3	93201	17.81	3.46745e-10
3	93747	17.91	3.28981e-10
3	94301	18.01	3.07665e-10
3	94847	18.11	2.86349e-10
3	95393	18.21	2.65032e-10
3	95939	18.31	2.43716e-10
3	96485	18.41	2.20979e-10
3	97031	18.51	1.99663e-10
3	97577	18.61	1.78346e-10
3	98123	18.71	1.5703e-10
3	98669	18.81	1.35714e-10
3	99215	18.91	1.14397e-10
3	99769	19.01	9.30811e-11
3	100315	19.11	7.74492e-11
3	100861	19.21	6.32383e-11
3	101407	19.31	4.90274e-11
3	101953	19.41	3.48166e-11
3	102499	19.51	2.41585e-11
3	103045	19.61	1.7053e-11
3	103591	19.71	9.9476e-12
3	104137	19.81	2.84217e-12
3	104683	19.91	-4.26326e-12
3	105237	20.01	-1.13687e-11
3	105783	20.11	-1.20792e-11
3	106329	20.21	-1.20792e-11
3	106875	20.31	-1.20792e-11
3	107421	20.41	-1.20792e-11
3	107967	20.51	-1.20792e-11
3	108513	20.61	-1.20792e-11
3	109059	20.71	-1.20792e-11
3	109605	20.81	-1.20792e-11
3	110151	20.91	-1.20792e-11
3	110705	21.01	-1.20792e-11
3	111251	21.11	-1.20792e-11
3	111797	21.21	-1.20792e-11
3	112343	21.31	-1.20792e-11
3	112889	21.41	-1.20792e-11
3	113435	21.51	-1.20792e-11
3	113981	21.61	-1.20792e-11
3	114527	21.71	-1.20792e-11
3	115073	21.81	-1.20792e-11
3	115619	21.91	-1.20792e-11
3	116173	22.01	-1.20792e-11
3	116719	22.11	-1.20792e-11
3	117265	22.21	-1.20792e-11
3	117811	22.31	-1.20792e-11
3	118357	22.41	-1.20792e-11
3	118903	22.51	-1.20792e-11
3	119449	22.61	-1.20792e-11
3	119995	22.71	-1.20792e-11
3	120541	22.81	-1.20792e-11
3	121087	22.91	-1.20792e-11
3	121641	23.01	-1.13687e-11
3	122187	23.11	-1.06581e-11
3	122733	23.21	-9.23706e-12
3	123279	23.31	-8.52651e-12
3	123825	23.41	-7.81597e-12
3	124371	23.51	-7.10543e-12
3	124917	23.61	-6.39488e-12
3	125463	23.71	-5.68434e-12
3	126009	23.81	-4.9738e-12
3	126555	23.91	-4.9738e-12
3	127109	24.01	-4.26326e-12
3	127655	24.11	-3.55271e-12
3	128201	24.21	-3.55271e-12
3	128747	24.31	-2.84217e-12
3	129293	24.41	-2.84217e-12
3	129839	24.51	-2.84217e-12
3	130385	24.61	-2.13163e-12
3	130931	24.71	-2.13163e-12
3	131477	24.81	-2.13163e-12
3	132023	24.91	-1.42109e-12
3	132577	25.01	-1.42109e-12
3	133123	25.11	-1.42109e-12
3	133669	25.21	-1.42109e-12
3	134215	25.31	-1.42109e-12
3	134761	25.41	-7.10543e-13
3	135307	25.51	-7.10543e-13
3	135853	25.61	-7.10543e-13
3	136399	25.71	-7.10543e-13
3	136945	25.81	-7.10543e-13
3	137491	25.91	-7.10543e-13
3	138045	26.01	-7.10543e-13
3	138591	26.11	-7.10543e-13
3	139137	26.21	-7.10543e-13
3	139683	26.31	-7.10543e-13
3	140229	26.41	0
3	140775	26.51	0
3	141321	26.61	0
3	141867	26.71	0
3	142413	26.81	0
3	142959	26.91	0
3	143513	27.01	0
3	144059	27.11	0
3	144605	27.21	0
3	145151	27.31	0
3	145697	27.41	0
3	146243	27.51	0
3	146789	27.61	0
3	147335	27.71	0
3	147881	27.81	0
3	148427	27.91	0
3	148981	28.01	0
3	149527	28.11	0
3	150073	28.21	0
3	150619	28.31	0
3	151165	28.41	0
3	151711	28.51	0
3	152257	28.61	0
3	152803	28.71	0
3	153349	28.81	0
3	153895	28.91	0
3	154449	29.01	0
3	154995	29.11	0
3	155541	29.21	0
3	156087	29.31	0
3	156633	29.41	0
3	157179	29.51	0
3	157725	29.61	0
3	158271	29.71	0
3	158817	29.81	0
3	159363	29.91	0
3	159917	30.01	0
3	160463	30.11	0
3	161009	30.21	0
3	161555	30.31	0
3	162101	30.41	0
3	162647	30.51	0
3	163193	30.61	0
3	163739	30.71	0
3	164285	30.81	0
3	164831	30.91	0
3	165385	31.01	0
3	165931	31.11	0
3	166477	31.21	0
3	167023	31.31	0
3	167569	31.41	0
3	168115	31.51	0
3	168661	31.61	0
3	169207	31.71	0
3	169753	31.81	0
3	170299	31.91	0
3	170853	32.01	0
3	171399	32.11	0
3	171945	32.21	0
3	172491	32.31	0
3	173037	32.41	0
3	173583	32.51	0
3	174129	32.61	0
3	174675	32.71	0
3	175221	32.81	0
3	175767	32.91	0
3	176321	33.01	0
3	176867	33.11	0
3	177413	33.21	0
3	177959	33.31	0
3	178505	33.41	0
3	179051	33.51	0
3	179597	33.61	0
3	180143	33.71	0
3	180689	33.81	0
3	181235	33.91	0
3	181789	34.01	0
3	182335	34.11	0
3	182881	34.21	0
3	183427	34.31	0
3	183973	34.41	0
3	184519	34.51	0
3	185065	34.61	0
3	185611	34.71	0
3	186157	34.81	0
3	186703	34.91	0
3	187257	35.01	0
3	187803	35.11	0
3	188349	35.21	0
3	188895	35.31	0
3	189441	35.41	0
3	189987	35.51	0
3	190533	35.61	0
3	191079	35.71	0
3	191625	35.81	0
3	192171	35.91	0
3	192725	36.01	0
3	193271	36.11	0
3	193817	36.21	0
3	194363	36.31	0
3	194909	36.41	0
3	195455	36.51	0
3	196001	36.61	0
3	196547	36.71	0
3	197093	36.81	0
3	197639	36.91	0
3	198193	37.01	0
3	198739	37.11	0
3	199285	37.21	0
3	199831	37.31	0
3	200377	37.41	0
3	200923	37.51	0
3	201469	37.61	0
3	202015	37.71	0
3	202561	37.81	0
3	203107	37.91	0
3	203661	38.01	0
3	204207	38.11	0
3	204753	38.21	0
3	205299	38.31	0
3	205845	38.41	0
3	206391	38.51	0
3	206937	38.61	0
3	207483	38.71	0
3	208029	38.81	0
3	208575	38.91	0
3	209129	39.01	0
3	209675	39.11	0
3	210221	39.21	0
3	210767	39.31	0
3	211313	39.41	0
3	211859	39.51	0
3	212405	39.61	0
3	212951	39.71	0
3	213497	39.81	0
3	214043	39.91	0
3	214597	40.01	0
3	215143	40.11	0
3	215689	40.21	0
3	216235	40.31	0
3	216781	40.41	0
3	217327	40.51	0
3	217873	40.61	0
3	218419	40.71	0
3	218965	40.81	0
3	219511	40.91	0
3	220065	41.01	0
3	220611	41.11	0
3	221157	41.21	0
3	221703	41.31	0
3	222249	41.41	0
3	222795	41.51	0
3	223341	41.61	0
3	223887	41.71	0
3	224433	41.81	0
3	224979	41.91	0
3	225533	42.01	0
3	226079	42.11	0
3	226625	42.21	0
3	227171	42.31	0
3	227717	42.41	0
3	228263	42.51	0
3	228809	42.61	0
3	229355	42.71	0
3	229901	42.81	0
3	230447	42.91	0
3	231001	43.01	0
3	231547	43.11	0
3	232093	43.21	0
3	232639	43.31	0
3	233185	43.41	0
3	233731	43.51	0
3	234277	43.61	0
3	234823	43.71	0
3	235369	43.81	0
3	235915	43.91	0
3	236469	44.01	0
3	237015	44.11	0
3	237561	44.21	0
3	238107	44.31	0
3	238653	44.41	0
3	239199	44.51	0
3	239745	44.61	0
3	240291	44.71	0
3	240837	44.81	0
3	241383	44.91	0
3	241937	45.01	0
3	242483	45.11	0
3	243029	45.21	0
3	243575	45.31	0
3	244121	45.41	0
3	244667	45.51	0
3	245213	45.61	0
3	245759	45.71	0
3	246305	45.81	0
3	246851	45.91	0
3	247405	46.01	0
3	247951	46.11	0
3	248497	46.21	0
3	249043	46.31	0
3	249589	46.41	0
3	250135	46.51	0
3	250681	46.61	0
3	251227	46.71	0
3	251773	46.81	0
3	252319	46.91	0
3	252873	47.01	0
3	253419	47.11	0
3	253965	47.21	0
3	254511	47.31	0
3	255057	47.41	0
3	255603	47.51	0
3	256149	47.61	0
3	256695	47.71	0
3	257241	47.81	0
3	257787	47.91	0
3	258341	48.01	0
3	258887	48.11	0
3	259433	48.21	0
3	259979	48.31	0
3	260525	48.41	0
3	261071	48.51	0
3	261617	48.61	0
3	262163	48.71	0
3	262709	48.81	0
3	263255	48.91	0
3	263809	49.01	0
3	264355	49.11	0
3	264901	49.21	0
3	265447	49.31	0
3	265993	49.41	0
3	266539	49.51	0
3	267085	49.61	0
3	267631	49.71	0
3	268177	49.81	0
3	268723	49.91	0
3	269277	50.01	0
3	269823	50.11	0
3	270369	50.21	0
3	270915	50.31	0
3	271461	50.41	0
3	272007	50.51	0
3	272553	50.61	0
3	273099	50.71	0
3	273645	50.81	0
3	274191	50.91	0
3	274745	51.01	0
3	275291	51.11	0
3	275837	51.21	0
3	276383	51.31	0
3	276929	51.41	0
3	277475	51.51	0
3	278021	51.61	0
3	278567	51.71	0
3	279113	51.81	0
3	279659	51.91	0
3	280213	52.01	0
3	280759	52.11	0
3	281305	52.21	0
3	281851	52.31	0
3	282397	52.41	0
3	282943	52.51	0
3	283489	52.61	0
3	284035	52.71	0
3	284581	52.81	0
3	285127	52.91	0
3	285681	53.01	0
3	286227	53.11	0
3	286773	53.21	0
3	287319	53.31	0
3	287865	53.41	0
3	288411	53.51	0
3	288957	53.61	0
3	289503	53.71	0
3	290049	53.81	0
3	290595	53.91	0
3	291149	54.01	0
3	291695	54.11	0
3	292241	54.21	0
3	292787	54.31	0
3	293333	54.41	0
3	293879	54.51	0
3	294425	54.61	0
3	294971	54.71	0
3	295517	54.81	0
3	296063	54.91	0
3	296617	55.01	0
3	297163	55.11	0
3	297709	55.21	0
3	298255	55.31	0
3	298801	55.41	0
3	299347	55.51	0
3	299893	55.61	0
3	300439	55.71	0
3	300985	55.81	0
3	301531	55.91	0
3	302085	56.01	0
3	302631	56.11	0
3	303177	56.21	0
3	303723	56.31	0
3	304269	56.41	0
3	304815	56.51	0
3	305361	56.61	0
3	305907	56.71	0
3	306453	56.81	0
3	306999	56.91	0
3	307553	57.01	0
3	308099	57.11	0
3	308645	57.21	0
3	309191	57.31	0
3	309737	57.41	0
3	310283	57.51	0
3	310829	57.61	0
3	311375	57.71	0
3	311921	57.81	0
3	312467	57.91	0
3	313021	58.01	0
3	313567	58.11	0
3	314113	58.21	0
3	314659	58.31	0
3	315205	58.41	0
3	315751	58.51	0
3	316297	58.61	0
3	316843	58.71	0
3	317389	58.81	0
3	317935	58.91	0
3	318489	59.01	0
3	319035	59.11	0
3	319581	59.21	0
3	320127	59.31	0
3	320673	59.41	0
3	321219	59.51	0
3	321765	59.61	0
3	322311	59.71	0
3	322857	59.81	0
3	323403	59.91	0
3	323957	60.01	0
3	324503	60.11	0
3	325049	60.21	0
3	325595	60.31	0
3	326141	60.41	0
3	326687	60.51	0
3	327233	60.61	0
3	327779	60.71	0
3	328325	60.81	0
3	328871	60.91	0
3	329425	61.01	0
3	329971	61.11	0
3	330517	61.21	0
3	331063	61.31	0
3	331609	61.41	0
3	332155	61.51	0
3	332701	61.61	0
3	333247	61.71	0
3	333793	61.81	0
3	334339	61.91	0
3	334893	62.01	0
3	335439	62.11	0
3	335985	62.21	0
3	336531	62.31	0
3	337077	62.41	0
3	337623	62.51	0
3	338169	62.61	0
3	338715	62.71	0
3	339261	62.81	0
3	339807	62.91	0
3	340361	63.01	0
3	340907	63.11	0
3	341453	63.21	0
3	341999	63.31	0
3	342545	63.41	0
3	343091	63.51	0
3	343637	63.61	0
3	344183	63.71	0
3	344729	63.81	0
3	345275	63.91	0
3	345829	64.01	0
3	346375	64.11	0
3	346921	64.21	0
3	347467	64.31	0
3	348013	64.41	0
3	348559	64.51	0
3	349105	64.61	0
3	349651	64.71	0
3	350197	64.81	0
3	350743	64.91	0
3	351297	65.01	0
3	351843	65.11	0
3	352389	65.21	0
3	352935	65.31	0
3	353481	65.41	0
3	354027	65.51	0
3	354573	65.61	0
3	355119	65.71	0
3	355665	65.81	0
3	356211	65.91	0
3	356765	66.01	0
3	357311	66.11	0
3	357857	66.21	0
3	358403	66.31	0
3	358949	66.41	0
3	359495	66.51	0
3	360041	66.61	0
3	360587	66.71	0
3	361133	66.81	0
3	361679	66.91	0
3	362233	67.01	0
3	362779	67.11	0
3	363325	67.21	0
3	363871	67.31	0
3	364417	67.41	0
3	364963	67.51	0
3	365509	67.61	0
3	366055	67.71	0
3	366601	67.81	0
3	367147	67.91	0
3	367701	68.01	0
3	368247	68.11	0
3	368793	68.21	0
3	369339	68.31	0
3	369885	68.41	0
3	370431	68.51	0
3	370977	68.61	0
3	371523	68.71	0
3	372069	68.81	0
3	372615	68.91	0
3	373169	69.01	0
3	373715	69.11	0
3	374261	69.21	0
3	374807	69.31	0
3	375353	69.41	0
3	375899	69.51	0
3	376445	69.61	0
3	376991	69.71	0
3	377537	69.81	0
3	378083	69.91	0
3	378637	70.01	0
3	379183	70.11	0
3	379729	70.21	0
3	380275	70.31	0
3	380821	70.41	0
3	381367	70.51	0
3	381913	70.61	0
3	382459	70.71	0
3	383005	70.81	0
3	383551	70.91	0
3	384105	71.01	0
3	384651	71.11	0
3	385197	71.21	0
3	385743	71.31	0
3	386289	71.41	0
3	386835	71.51	0
3	387381	71.61	0
3	387927	71.71	0
3	388473	71.81	0
3	389019	71.91	0
3	389573	72.01	0
3	390119	72.11	0
3	390665	72.21	0
3	391211	72.31	0
3	391757	72.41	0
3	392303	72.51	0
3	392849	72.61	0
3	393395	72.71	0
3	393941	72.81	0
3	394487	72.91	0
3	395041	73.01	0
3	395587	73.11	0
3	396133	73.21	0
3	396679	73.31	0
3	397225	73.41	0
3	397771	73.51	0
3	398317	73.61	0
3	398863	73.71	0
3	399409	73.81	0
3	399955	73.91	0
3	400509	74.01	0
3	401055	74.11	0
3	401601	74.21	0
3	402147	74.31	0
3	402693	74.41	0
3	403239	74.51	0
3	403785	74.61	0
3	404331	74.71	0
3	404877	74.81	0
3	405423	74.91	0
3	405977	75.01	0
3	406523	75.11	0
3	407069	75.21	0
3	407615	75.31	0
3	408161	75.41	0
3	408707	75.51	0
3	409253	75.61	0
3	409799	75.71	0
3	410345	75.81	0
3	410891	75.91	0
3	411445	76.01	0
3	411991	76.11	0
3	412537	76.21	0
3	413083	76.31	0
3	413629	76.41	0
3	414175	76.51	0
3	414721	76.61	0
3	415267	76.71	0
3	415813	76.81	0
3	416359	76.91	0
3	416913	77.01	0
3	417459	77.11	0
3	418005	77.21	0
3	418551	77.31	0
3	419097	77.41	0
3	419643	77.51	0
3	420189	77.61	0
3	420735	77.71	0
3	421281	77.81	0
3	421827	77.91	0
3	422381	78.01	0
3	422927	78.11	0
3	423473	78.21	0
3	424019	78.31	0
3	424565	78.41	0
3	425111	78.51	0
3	425657	78.61	0
3	426203	78.71	0
3	426749	78.81	0
3	427295	78.91	0
3	427849	79.01	0
3	428395	79.11	0
3	428941	79.21	0
3	429487	79.31	0
3	430033	79.41	0
3	430579	79.51	0
3	431125	79.61	0
3	431671	79.71	0
3	432217	79.81	0
3	432763	79.91	0
3	433317	80.01	0
3	433863	80.11	0
3	434409	80.21	0
3	434955	80.31	0
3	435501	80.41	0
3	436047	80.51	0
3	436593	80.61	0
3	437139	80.71	0
3	437685	80.81	0
3	438231	80.91	0
3	438785	81.01	0
3	439331	81.11	0
3	439877	81.21	0
3	440423	81.31	0
3	440969	81.41	0
3	441515	81.51	0
3	442061	81.61	0
3	442607	81.71	0
3	443153	81.81	0
3	443699	81.91	0
3	444253	82.01	0
3	444799	82.11	0
3	445345	82.21	0
3	445891	82.31	0
3	446437	82.41	0
3	446983	82.51	0
3	447529	82.61	0
3	448075	82.71	0
3	448621	82.81	0
3	449167	82.91	0
3	449721	83.01	0
3	450267	83.11	0
3	450813	83.21	0
3	451359	83.31	0
3	451905	83.41	0
3	452451	83.51	0
3	452997	83.61	0
3	453543	83.71	0
3	454089	83.81	0
3	454635	83.91	0
3	455189	84.01	0
3	455735	84.11	0
3	456281	84.21	0
3	456827	84.31	0
3	457373	84.41	0
3	457919	84.51	0
3	458465	84.61	0
3	459011	84.71	0
3	459557	84.81	0
3	460103	84.91	0
3	460657	85.01	0
3	461203	85.11	0
3	461749	85.21	0
3	462295	85.31	0
3	462841	85.41	0
3	463387	85.51	0
3	463933	85.61	0
3	464479	85.71	0
3	465025	85.81	0
3	465571	85.91	0
3	466125	86.01	0
3	466671	86.11	0
3	467217	86.21	0
3	467763	86.31	0
3	468309	86.41	0
3	468855	86.51	0
3	469401	86.61	0
3	469947	86.71	0
3	470493	86.81	0
3	471039	86.91	0
3	471593	87.01	0
3	472139	87.11	0
3	472685	87.21	0
3	473231	87.31	0
3	473777	87.41	0
3	474323	87.51	0
3	474869	87.61	0
3	475415	87.71	0
3	475961	87.81	0
3	476507	87.91	0
3	477061	88.01	0
3	477607	88.11	0
3	478153	88.21	0
3	478699	88.31	0
3	479245	88.41	0
3	479791	88.51	0
3	480337	88.61	0
3	480883	88.71	0
3	481429	88.81	0
3	481975	88.91	0
3	482529	89.01	0
3	483075	89.11	0
3	483621	89.21	0
3	484167	89.31	0
3	484713	89.41	0
3	485259	89.51	0
3	485805	89.61	0
3	486351	89.71	0
3	486897	89.81	0
3	487443	89.91	0
3	487997	90.01	0
3	488543	90.11	0
3	489089	90.21	0
3	489635	90.31	0
3	490181	90.41	0
3	490727	90.51	0
3	491273	90.61	0
3	491819	90.71	0
3	492365	90.81	0
3	492911	90.91	0
3	493465	91.01	0
3	494011	91.11	0
3	494557	91.21	0
3	495103	91.31	0
3	495649	91.41	0
3	496195	91.51	0
3	496741	91.61	0
3	497287	91.71	0
3	497833	91.81	0
3	498379	91.91	0
3	498933	92.01	0
3	499479	92.11	0
3	500025	92.21	0
3	500571	92.31	0
3	501117	92.41	0
3	501663	92.51	0
3	502209	92.61	0
3	502755	92.71	0
3	503301	92.81	0
3	503847	92.91	0
3	504401	93.01	0
3	504947	93.11	0
3	505493	93.21	0
3	506039	93.31	0
3	506585	93.41	0
3	507131	93.51	0
3	507677	93.61	0
[...]
105	438539	81	0.02497361472
105	444007	82	0.024973308037
105	449475	83	0.024960000706
105	454943	84	0.024972692862
105	460411	85	0.024972384601
105	465879	86	0.024972076003
105	471347	87	0.024971767123
105	476815	88	0.024971457985
105	482283	89	0.024958148647
105	487751	90	0.024970839134
105	493219	91	0.024970529464
105	498687	92	0.024970219655
105	504155	93	0.024969909731
105	509623	94	0.024969599701
105	515091	95	0.024969289572
105	520559	96	0.024968979357
105	526027	97	0.024981669009
105	531495	98	0.024968358064
105	536963	99	0.024968047628
105	542431	100	0.024967737153
106	4789	2	0
106	10257	3	0
106	15725	4	0
106	21193	5	0
106	26661	6	0
106	32129	7	0
106	37597	8	0
106	43065	9	0
106	48534	10	0
106	55779	11	0
106	61247	12	0
106	66715	13	0
106	72183	14	0
106	77651	15	0
106	83119	16	0
106	88587	17	0
106	94055	18	0
106	99523	19	0
106	104991	20	0
106	110459	21	0
106	115927	22	0
106	121395	23	0
106	126863	24	0
106	132331	25	0
106	137799	26	0
106	143267	27	0
106	148735	28	0
106	154203	29	0
106	159671	30	0
106	165139	31	0
106	170607	32	0
106	176075	33	0
106	181543	34	0
106	187011	35	0
106	192479	36	0
106	197947	37	0
106	203415	38	0
106	208883	39	0
106	214351	40	0
106	219819	41	0
106	225287	42	0
106	230755	43	0
106	236223	44	0
106	241691	45	0
106	247159	46	0
106	252627	47	0
106	258095	48	0
106	263563	49	0
106	269031	50	0
106	274499	51	0
106	279967	52	0
106	285435	53	0
106	290903	54	0
106	296371	55	0
106	301839	56	0
106	307307	57	0
106	312775	58	0
106	318243	59	0
106	323711	60	0
106	329179	61	0
106	334647	62	0
106	340115	63	0
106	345583	64	0
106	351051	65	0
106	356519	66	0
106	361987	67	0
106	367455	68	0
106	372923	69	0
106	378391	70	0
106	383859	71	0
106	389327	72	0
106	394795	73	0
106	400263	74	0
106	405731	75	0
106	411199	76	0
106	416667	77	0
106	422135	78	0
106	427603	79	0
106	433071	80	0
106	438539	81	0
106	444007	82	0
106	449475	83	0
106	454943	84	0
106	460411	85	0
106	465879	86	0
106	471347	87	0
106	476815	88	0
106	482283	89	0
106	487751	90	0
106	493219	91	0
106	498687	92	0
106	504155	93	0
106	509623	94	0
106	515091	95	0
106	520559	96	0
106	526027	97	0
106	531495	98	0
106	536963	99	0
106	542431	100	0
107	4790	2	5
107	10258	3	5
107	15726	4	5
107	21194	5	5
107	26662	6	5
107	32130	7	5
107	37598	8	5
107	43066	9	5
107	48535	10	5
107	55780	11	5
107	61248	12	5
107	66716	13	5
107	72184	14	5
107	77652	15	5
107	83120	16	5
107	88588	17	5
107	94056	18	5
107	99524	19	5
107	104992	20	5
107	110460	21	5
107	115928	22	5
107	121396	23	5
107	126864	24	5
107	132332	25	5
107	137800	26	5
107	143268	27	5
107	148736	28	5
107	154204	29	5
107	159672	30	5
107	165140	31	5
107	170608	32	5
107	176076	33	5
107	181544	34	5
107	187012	35	5
107	192480	36	5
107	197948	37	5
107	203416	38	5
107	208884	39	5
107	214352	40	5
107	219820	41	5
107	225288	42	5
107	230756	43	5
107	236224	44	5
107	241692	45	5
107	247160	46	5
107	252628	47	5
107	258096	48	5
107	263564	49	5
107	269032	50	5
107	274500	51	5
107	279968	52	5
107	285436	53	5
107	290904	54	5
107	296372	55	5
107	301840	56	5
107	307308	57	5
107	312776	58	5
107	318244	59	5
107	323712	60	5
107	329180	61	5
107	334648	62	5
107	340116	63	5
107	345584	64	5
107	351052	65	5
107	356520	66	5
107	361988	67	5
107	367456	68	5
107	372924	69	5
107	378392	70	5
107	383860	71	5
107	389328	72	5
107	394796	73	5
107	400264	74	5
107	405732	75	5
107	411200	76	5
107	416668	77	5
107	422136	78	5
107	427604	79	5
107	433072	80	5
107	438540	81	5
107	444008	82	5
107	449476	83	5
107	454944	84	5
107	460412	85	5
107	465880	86	5
107	471348	87	5
107	476816	88	5
107	482284	89	5
107	487752	90	5
107	493220	91	5
107	498688	92	5
107	504156	93	5
107	509624	94	5
107	515092	95	5
107	520560	96	5
107	526028	97	5
107	531496	98	5
107	536964	99	5
107	542432	100	5
108	4790	2	0.021463536924
108	10258	3	0.024964796464
108	15726	4	0.024977796515
108	21194	5	0.024964796544
108	26662	6	0.02497779656
108	32130	7	0.024964796568
108	37598	8	0.024964796596
108	43066	9	0.02497779661
108	48535	10	0.02496479662
108	55780	11	0.026795829709
108	61248	12	0.024977397267
108	66716	13	0.024963801419
108	72184	14	0.024975856593
108	77652	15	0.024961565451
108	83120	16	0.024973156704
108	88588	17	0.024971806767
108	94056	18	0.024970616095
108	99524	19	0.024969588795
108	104992	20	0.024968767026
108	110460	21	0.024968134888
108	115928	22	0.02496769449
108	121396	23	0.024967443653
108	126864	24	0.024980354257
108	132332	25	0.024967375019
108	137800	26	0.024967442792
108	143268	27	0.024967514356
108	148736	28	0.024967579094
108	154204	29	0.024980639043
108	159672	30	0.024967696731
108	165140	31	0.024967753027
108	170608	32	0.024967808046
108	176076	33	0.02496786178
108	181544	34	0.02496791427
108	187012	35	0.024980965549
108	192480	36	0.024968015615
108	197948	37	0.024968064408
108	203416	38	0.024968111752
108	208884	39	0.024968157301
108	214352	40	0.024968200363
108	219820	41	0.024968239647
108	225288	42	0.024981272458
108	230756	43	0.02496829225
108	236224	44	0.024968282271
108	241692	45	0.024968211891
108	247160	46	0.024968070294
108	252628	47	0.024967885067
108	258096	48	0.024967680073
108	263564	49	0.024980464833
108	269032	50	0.024967248968
108	274500	51	0.024967036198
108	279968	52	0.024966833625
108	285436	53	0.024979601729
108	290904	54	0.024966362606
108	296372	55	0.024966211853
108	301840	56	0.024966075427
108	307308	57	0.024978926024
108	312776	58	0.024965777603
108	318244	59	0.024965624386
108	323712	60	0.024978461307
108	329180	61	0.024965295423
108	334648	62	0.024978126343
108	340116	63	0.024964953426
108	345584	64	0.024964775937
108	351052	65	0.024977593032
108	356520	66	0.02496440391
108	361988	67	0.024977207844
108	367456	68	0.024964004215
108	372924	69	0.024976792513
108	378392	70	0.024963572465
108	383860	71	0.024976342021
108	389328	72	0.024963101829
108	394796	73	0.024975850699
108	400264	74	0.024962598781
108	405732	75	0.024975422397
108	411200	76	0.024962130495
108	416668	77	0.024974832916
108	422136	78	0.024974531901
108	427604	79	0.02496122867
108	433072	80	0.024973923911
108	438540	81	0.024973618052
108	444008	82	0.02497331137
108	449476	83	0.024960004038
108	454944	84	0.024972696195
108	460412	85	0.024972387933
108	465880	86	0.024972079336
108	471348	87	0.024971770456
108	476816	88	0.024971461318
108	482284	89	0.024958151979
108	487752	90	0.024970842467
108	493220	91	0.024970532797
108	498688	92	0.024970222989
108	504156	93	0.024969913064
108	509624	94	0.024969603034
108	515092	95	0.024969292905
108	520560	96	0.024968982691
108	526028	97	0.024981672342
108	531496	98	0.024968361397
108	536964	99	0.024968050962
108	542432	100	0.024967740486
109	4790	2	0
109	10258	3	0
109	15726	4	0
109	21194	5	0
109	26662	6	0
109	32130	7	0
109	37598	8	0
109	43066	9	0
109	48535	10	0
109	55780	11	0
109	61248	12	0
109	66716	13	0
109	72184	14	0
109	77652	15	0
109	83120	16	0
109	88588	17	0
109	94056	18	0
109	99524	19	0
109	104992	20	0
109	110460	21	0
109	115928	22	0
109	121396	23	0
109	126864	24	0
109	132332	25	0
109	137800	26	0
109	143268	27	0
109	148736	28	0
109	154204	29	0
109	159672	30	0
109	165140	31	0
109	170608	32	0
109	176076	33	0
109	181544	34	0
109	187012	35	0
109	192480	36	0
109	197948	37	0
109	203416	38	0
109	208884	39	0
109	214352	40	0
109	219820	41	0
109	225288	42	0
109	230756	43	0
109	236224	44	0
109	241692	45	0
109	247160	46	0
109	252628	47	0
109	258096	48	0
109	263564	49	0
109	269032	50	0
109	274500	51	0
109	279968	52	0
109	285436	53	0
109	290904	54	0
109	296372	55	0
109	301840	56	0
109	307308	57	0
109	312776	58	0
109	318244	59	0
109	323712	60	0
109	329180	61	0
109	334648	62	0
109	340116	63	0
109	345584	64	0
109	351052	65	0
109	356520	66	0
109	361988	67	0
109	367456	68	0
109	372924	69	0
109	378392	70	0
109	383860	71	0
109	389328	72	0
109	394796	73	0
109	400264	74	0
109	405732	75	0
109	411200	76	0
109	416668	77	0
109	422136	78	0
109	427604	79	0
109	433072	80	0
109	438540	81	0
109	444008	82	0
109	449476	83	0
109	454944	84	0
109	460412	85	0
109	465880	86	0
109	471348	87	0
109	476816	88	0
109	482284	89	0
109	487752	90	0
109	493220	91	0
109	498688	92	0
109	504156	93	0
109	509624	94	0
109	515092	95	0
109	520560	96	0
109	526028	97	0
109	531496	98	0
109	536964	99	0
109	542432	100	0
110	4791	2	6
110	10259	3	6
110	15727	4	6
110	21195	5	6
110	26663	6	6
110	32131	7	6
110	37599	8	6
110	43067	9	6
110	48536	10	6
110	55781	11	6
110	61249	12	6
110	66717	13	6
110	72185	14	6
110	77653	15	6
110	83121	16	6
110	88589	17	6
110	94057	18	6
110	99525	19	6
110	104993	20	6
110	110461	21	6
110	115929	22	6
110	121397	23	6
110	126865	24	6
110	132333	25	6
110	137801	26	6
110	143269	27	6
110	148737	28	6
110	154205	29	6
110	159673	30	6
110	165141	31	6
110	170609	32	6
110	176077	33	6
110	181545	34	6
110	187013	35	6
110	192481	36	6
110	197949	37	6
110	203417	38	6
110	208885	39	6
110	214353	40	6
110	219821	41	6
110	225289	42	6
110	230757	43	6
110	236225	44	6
110	241693	45	6
110	247161	46	6
110	252629	47	6
110	258097	48	6
110	263565	49	6
110	269033	50	6
110	274501	51	6
110	279969	52	6
110	285437	53	6
110	290905	54	6
110	296373	55	6
110	301841	56	6
110	307309	57	6
110	312777	58	6
110	318245	59	6
110	323713	60	6
110	329181	61	6
110	334649	62	6
110	340117	63	6
110	345585	64	6
110	351053	65	6
110	356521	66	6
110	361989	67	6
110	367457	68	6
110	372925	69	6
110	378393	70	6
110	383861	71	6
110	389329	72	6
110	394797	73	6
110	400265	74	6
110	405733	75	6
110	411201	76	6
110	416669	77	6
110	422137	78	6
110	427605	79	6
110	433073	80	6
110	438541	81	6
110	444009	82	6
110	449477	83	6
110	454945	84	6
110	460413	85	6
110	465881	86	6
110	471349	87	6
110	476817	88	6
110	482285	89	6
110	487753	90	6
110	493221	91	6
110	498689	92	6
110	504157	93	6
110	509625	94	6
110	515093	95	6
110	520561	96	6
110	526029	97	6
110	531497	98	6
110	536965	99	6
110	542433	100	6
111	4791	2	0.02146351691
111	10259	3	0.024964796464
111	15727	4	0.024977796515
111	21195	5	0.024964796545
111	26663	6	0.02497779656
111	32131	7	0.024964796568
111	37599	8	0.024964796596
111	43067	9	0.02497779661
111	48536	10	0.02496479662
111	55781	11	0.026796869734
111	61249	12	0.024977395016
111	66717	13	0.024963808662
111	72185	14	0.024975856286
111	77653	15	0.024961540722
111	83121	16	0.024973131013
111	88589	17	0.024971782749
111	94057	18	0.024970598868
111	99525	19	0.024969576011
111	104993	20	0.024968758826
111	110461	21	0.024968131337
111	115929	22	0.024967695621
111	121397	23	0.024967449485
111	126865	24	0.024980364753
111	132333	25	0.024967388936
111	137801	26	0.0249674576
111	143269	27	0.0249675288
111	148737	28	0.024967592923
111	154205	29	0.024980652105
111	159673	30	0.02496770841
111	165141	31	0.024967761442
111	170609	32	0.024967809406
111	176077	33	0.024967855214
111	181545	34	0.024967903602
111	187013	35	0.024980953296
111	192481	36	0.024968002708
111	197949	37	0.024968051197
111	203417	38	0.02496809839
111	208885	39	0.024968143861
111	214353	40	0.024968186884
111	219821	41	0.02496822615
111	225289	42	0.024981258955
111	230757	43	0.024968278749
111	236225	44	0.024968268776
111	241693	45	0.024968198404
111	247161	46	0.024968056816
111	252629	47	0.024967871599
111	258097	48	0.024967666614
111	263565	49	0.024980451385
111	269033	50	0.024967235528
111	274501	51	0.024967022767
111	279969	52	0.024966820203
111	285437	53	0.024979589309
111	290905	54	0.024966351978
111	296373	55	0.024966204147
111	301841	56	0.024966068969
111	307309	57	0.024978919556
111	312777	58	0.02496577117
111	318245	59	0.024965617708
111	323713	60	0.024978454626
111	329181	61	0.024965288749
111	334649	62	0.024978119672
111	340117	63	0.024964946755
111	345585	64	0.024964769266
111	351053	65	0.02497758636
111	356521	66	0.024964397239
111	361989	67	0.024977201173
111	367457	68	0.024963997544
111	372925	69	0.024976785841
111	378393	70	0.024963565794
111	383861	71	0.02497633535
111	389329	72	0.024963095157
111	394797	73	0.024975844028
111	400265	74	0.024962591971
111	405733	75	0.024975415865
111	411201	76	0.024962123823
111	416669	77	0.024974826245
111	422137	78	0.02497452523
111	427605	79	0.024961221999
111	433073	80	0.024973917239
111	438541	81	0.024973611381
111	444009	82	0.024973304699
111	449477	83	0.024959997366
111	454945	84	0.024972689524
111	460413	85	0.024972381262
111	465881	86	0.024972072665
111	471349	87	0.024971763784
111	476817	88	0.024971454647
111	482285	89	0.024958145308
111	487753	90	0.024970835795
111	493221	91	0.024970526126
111	498689	92	0.024970216318
111	504157	93	0.024969906393
111	509625	94	0.024969596362
111	515093	95	0.024969286234
111	520561	96	0.02496897602
111	526029	97	0.024981665568
111	531497	98	0.024968354727
111	536965	99	0.024968044292
111	542433	100	0.024967733815
112	4791	2	0
112	10259	3	0
112	15727	4	0
112	21195	5	0
112	26663	6	0
112	32131	7	0
112	37599	8	0
112	43067	9	0
112	48536	10	0
112	55781	11	0
112	61249	12	0
112	66717	13	0
112	72185	14	0
112	77653	15	0
112	83121	16	0
112	88589	17	0
112	94057	18	0
112	99525	19	0
112	104993	20	0
112	110461	21	0
112	115929	22	0
112	121397	23	0
112	126865	24	0
112	132333	25	0
112	137801	26	0
112	143269	27	0
112	148737	28	0
112	154205	29	0
112	159673	30	0
112	165141	31	0
112	170609	32	0
112	176077	33	0
112	181545	34	0
112	187013	35	0
112	192481	36	0
112	197949	37	0
112	203417	38	0
112	208885	39	0
112	214353	40	0
112	219821	41	0
112	225289	42	0
112	230757	43	0
112	236225	44	0
112	241693	45	0
112	247161	46	0
112	252629	47	0
112	258097	48	0
112	263565	49	0
112	269033	50	0
112	274501	51	0
112	279969	52	0
112	285437	53	0
112	290905	54	0
112	296373	55	0
112	301841	56	0
112	307309	57	0
112	312777	58	0
112	318245	59	0
112	323713	60	0
112	329181	61	0
112	334649	62	0
112	340117	63	0
112	345585	64	0
112	351053	65	0
112	356521	66	0
112	361989	67	0
112	367457	68	0
112	372925	69	0
112	378393	70	0
112	383861	71	0
112	389329	72	0
112	394797	73	0
112	400265	74	0
112	405733	75	0
112	411201	76	0
112	416669	77	0
112	422137	78	0
112	427605	79	0
112	433073	80	0
112	438541	81	0
112	444009	82	0
112	449477	83	0
112	454945	84	0
112	460413	85	0
112	465881	86	0
112	471349	87	0
112	476817	88	0
112	482285	89	0
112	487753	90	0
112	493221	91	0
112	498689	92	0
112	504157	93	0
112	509625	94	0
112	515093	95	0
112	520561	96	0
112	526029	97	0
112	531497	98	0
112	536965	99	0
112	542433	100	0
113	4792	2	7
113	10260	3	7
113	15728	4	7
113	21196	5	7
113	26664	6	7
113	32132	7	7
113	37600	8	7
113	43068	9	7
113	48537	10	7
113	55782	11	7
113	61250	12	7
113	66718	13	7
113	72186	14	7
113	77654	15	7
113	83122	16	7
113	88590	17	7
113	94058	18	7
113	99526	19	7
113	104994	20	7
113	110462	21	7
113	115930	22	7
113	121398	23	7
113	126866	24	7
113	132334	25	7
113	137802	26	7
113	143270	27	7
113	148738	28	7
113	154206	29	7
113	159674	30	7
113	165142	31	7
113	170610	32	7
113	176078	33	7
113	181546	34	7
113	187014	35	7
113	192482	36	7
113	197950	37	7
113	203418	38	7
113	208886	39	7
113	214354	40	7
113	219822	41	7
113	225290	42	7
113	230758	43	7
113	236226	44	7
113	241694	45	7
113	247162	46	7
113	252630	47	7
113	258098	48	7
113	263566	49	7
113	269034	50	7
113	274502	51	7
113	279970	52	7
113	285438	53	7
113	290906	54	7
113	296374	55	7
113	301842	56	7
113	307310	57	7
113	312778	58	7
113	318246	59	7
113	323714	60	7
113	329182	61	7
113	334650	62	7
113	340118	63	7
113	345586	64	7
113	351054	65	7
113	356522	66	7
113	361990	67	7
113	367458	68	7
113	372926	69	7
113	378394	70	7
113	383862	71	7
113	389330	72	7
113	394798	73	7
113	400266	74	7
113	405734	75	7
113	411202	76	7
113	416670	77	7
113	422138	78	7
113	427606	79	7
113	433074	80	7
113	438542	81	7
113	444010	82	7
113	449478	83	7
113	454946	84	7
113	460414	85	7
113	465882	86	7
113	471350	87	7
113	476818	88	7
113	482286	89	7
113	487754	90	7
113	493222	91	7
113	498690	92	7
113	504158	93	7
113	509626	94	7
113	515094	95	7
113	520562	96	7
113	526030	97	7
113	531498	98	7
113	536966	99	7
113	542434	100	7
114	4792	2	0.021463496896
114	10260	3	0.024964796464
114	15728	4	0.024977796516
114	21196	5	0.024964796544
114	26664	6	0.02497779656
114	32132	7	0.024964796568
114	37600	8	0.024964796596
114	43068	9	0.02497779661
114	48537	10	0.02496479662
114	55782	11	0.026796909761
114	61250	12	0.02497739468
114	66718	13	0.024963814759
114	72186	14	0.024975860616
114	77654	15	0.02496153864
114	83122	16	0.024973118886
114	88590	17	0.024971773239
114	94058	18	0.024970588212
114	99526	19	0.024969565893
114	104994	20	0.0249687491
114	110462	21	0.024968121947
114	115930	22	0.024967686542
114	121398	23	0.024967440702
114	126866	24	0.024980356267
114	132334	25	0.024967380755
114	137802	26	0.024967449722
114	143270	27	0.024967521253
114	148738	28	0.024967585811
114	154206	29	0.024980645693
114	159674	30	0.024967703378
114	165142	31	0.024967759681
114	170610	32	0.024967814703
114	176078	33	0.024967868435
114	181546	34	0.024967920924
114	187014	35	0.024980972201
114	192482	36	0.024968022265
114	197950	37	0.024968071055
114	203418	38	0.024968118397
114	208886	39	0.024968163944
114	214354	40	0.024968207001
114	219822	41	0.024968246281
114	225290	42	0.024981279087
114	230758	43	0.024968298873
114	236226	44	0.024968288885
114	241694	45	0.024968218496
114	247162	46	0.024968076885
114	252630	47	0.024967891642
114	258098	48	0.024967686624
114	263566	49	0.024980471351
114	269034	50	0.024967251319
114	274502	51	0.024967041938
114	279970	52	0.024966839032
114	285438	53	0.024979606627
114	290906	54	0.024966366702
114	296374	55	0.02496622472
114	301842	56	0.024966077582
114	307310	57	0.024978924463
114	312778	58	0.024965773328
114	318246	59	0.024965618904
114	323714	60	0.024978455311
114	329182	61	0.024965289178
114	334650	62	0.024978119964
114	340118	63	0.024964946966
114	345586	64	0.024964769426
114	351054	65	0.024977586486
114	356522	66	0.024964397339
114	361990	67	0.024977201255
114	367458	68	0.024963997612
114	372926	69	0.0249767859
114	378394	70	0.024963565844
114	383862	71	0.024976335393
114	389330	72	0.024963095196
114	394798	73	0.024975844061
114	400266	74	0.024962592645
114	405734	75	0.024975415726
114	411202	76	0.024962123824
114	416670	77	0.024974826244
114	422138	78	0.02497452523
114	427606	79	0.024961221999
114	433074	80	0.02497391724
114	438542	81	0.02497361138
114	444010	82	0.024973304699
114	449478	83	0.024959997367
114	454946	84	0.024972689523
114	460414	85	0.024972381262
114	465882	86	0.024972072665
114	471350	87	0.024971763785
114	476818	88	0.024971454646
114	482286	89	0.024958145308
114	487754	90	0.024970835796
114	493222	91	0.024970526126
114	498690	92	0.024970216317
114	504158	93	0.024969906393
114	509626	94	0.024969596363
114	515094	95	0.024969286233
114	520562	96	0.02496897602
114	526030	97	0.024981665671
114	531498	98	0.024968354726
114	536966	99	0.02496804429
114	542434	100	0.024967733815
115	4792	2	0
115	10260	3	0
115	15728	4	0
115	21196	5	0
115	26664	6	0
115	32132	7	0
115	37600	8	0
115	43068	9	0
115	48537	10	0
115	55782	11	0
115	61250	12	0
115	66718	13	0
115	72186	14	0
115	77654	15	0
115	83122	16	0
115	88590	17	0
115	94058	18	0
115	99526	19	0
115	104994	20	0
115	110462	21	0
115	115930	22	0
115	121398	23	0
115	126866	24	0
115	132334	25	0
115	137802	26	0
115	143270	27	0
115	148738	28	0
115	154206	29	0
115	159674	30	0
115	165142	31	0
115	170610	32	0
115	176078	33	0
115	181546	34	0
115	187014	35	0
115	192482	36	0
115	197950	37	0
115	203418	38	0
115	208886	39	0
115	214354	40	0
115	219822	41	0
115	225290	42	0
115	230758	43	0
115	236226	44	0
115	241694	45	0
115	247162	46	0
115	252630	47	0
115	258098	48	0
115	263566	49	0
115	269034	50	0
115	274502	51	0
115	279970	52	0
115	285438	53	0
115	290906	54	0
115	296374	55	0
115	301842	56	0
115	307310	57	0
115	312778	58	0
115	318246	59	0
115	323714	60	0
115	329182	61	0
115	334650	62	0
115	340118	63	0
115	345586	64	0
115	351054	65	0
115	356522	66	0
115	361990	67	0
115	367458	68	0
115	372926	69	0
115	378394	70	0
115	383862	71	0
115	389330	72	0
115	394798	73	0
115	400266	74	0
115	405734	75	0
115	411202	76	0
115	416670	77	0
115	422138	78	0
115	427606	79	0
115	433074	80	0
115	438542	81	0
115	444010	82	0
115	449478	83	0
115	454946	84	0
115	460414	85	0
115	465882	86	0
115	471350	87	0
115	476818	88	0
115	482286	89	0
115	487754	90	0
115	493222	91	0
115	498690	92	0
115	504158	93	0
115	509626	94	0
115	515094	95	0
115	520562	96	0
115	526030	97	0
115	531498	98	0
115	536966	99	0
115	542434	100	0

