version 3
run BreakRanksNoGui-28-20240708-22:28:46-165763
attr configname BreakRanksNoGui
attr datetime 20240708-22:28:46
attr datetimef 20240708-222846
attr experiment BreakRanksNoGui
attr inifile omnetpp.ini
attr iterationvars "$nCars=8, $platoonSize=8, $nLanes=1, $ploegH=0.5, $controller=1, $headway=0.1, $leaderHeadway=1.2, $leaderSpeed=150, $breakRanksSafetyDistance=2, $minSpeed=140, $maxSpeed=160, $beaconInterval=0.1, $priority=4, $packetSize=200, $sController=\"CACC\", $0=2, $1=0"
attr iterationvarsd nCars=8/platoonSize=8/nLanes=1/ploegH=0.5/controller=1/headway=0.1/leaderHeadway=1.2/leaderSpeed=150/breakRanksSafetyDistance=2/minSpeed=140/maxSpeed=160/beaconInterval=0.1/priority=4/packetSize=200/sController=CACC/2/0
attr iterationvarsf nCars=8,platoonSize=8,nLanes=1,ploegH=0.5,controller=1,headway=0.1,leaderHeadway=1.2,leaderSpeed=150,breakRanksSafetyDistance=2,minSpeed=140,maxSpeed=160,beaconInterval=0.1,priority=4,packetSize=200,sController=CACC,2,0-
attr measurement "$nCars=8, $platoonSize=8, $nLanes=1, $ploegH=0.5, $controller=1, $headway=0.1, $leaderHeadway=1.2, $leaderSpeed=150, $breakRanksSafetyDistance=2, $minSpeed=140, $maxSpeed=160, $beaconInterval=0.1, $priority=4, $packetSize=200, $sController=\"CACC\", $0=2, $1=0"
attr network Highway
attr processid 165763
attr repetition 8
attr replication #8
attr resultdir results
attr runnumber 28
attr seedset 8
itervar beaconInterval 0.1
itervar breakRanksSafetyDistance 2
itervar controller 1
itervar headway 0.1
itervar leaderHeadway 1.2
itervar leaderSpeed 150
itervar maxSpeed 160
itervar minSpeed 140
itervar nCars 8
itervar nLanes 1
itervar packetSize 200
itervar platoonSize 8
itervar ploegH 0.5
itervar priority 4
itervar sController "\"CACC\""
config image-path ../../../veins/images
config repeat 10
config extends BreakRanks
config *.manager.command "\"sumo\""
config *.manager.ignoreGuiCommands true
config output-vector-file results/BreakRanks_1_0.1_150_2/result_8.vec
config output-scalar-file results/BreakRanks_1_0.1_150_2/result_8.sca
config extends Platooning
config *.node[*].scenario_type "\"BreakRanksScenario\""
config *.manager.command "\"sumo-gui\""
config *.node[*].scenario_type "\"SimpleScenario\""
config cmdenv-express-mode true
config cmdenv-autoflush true
config cmdenv-status-frequency 15s
config num-rngs 6
config network Highway
config debug-on-errors true
config print-undisposed true
config *.playgroundSizeX 65000m
config *.playgroundSizeY 25000m
config *.playgroundSizeZ 50m
config sim-time-limit "100 s"
config *.annotations.draw false
config *.obstacles.debug false
config *.world.useTorus false
config *.world.use2D false
config *.manager.updateInterval 0.01s
config *.manager.host "\"localhost\""
config *.manager.moduleType "\"org.car2x.plexe.PlatoonCar\""
config *.manager.moduleName "\"node\""
config *.manager.moduleDisplayString "\"\""
config *.manager.autoShutdown true
config *.manager.margin 25
config *.connectionManager.sendDirect true
config *.connectionManager.maxInterfDist 2600m
config *.connectionManager.drawMaxIntfDist false
config *.**.nic.mac1609_4.useServiceChannel false
config *.**.nic.mac1609_4.txPower 100mW
config *.**.nic.mac1609_4.bitrate 6Mbps
config *.**.nic.mac1609_4.useAcks true
config *.**.nic.mac1609_4.ackErrorRate 0.0
config *.**.nic.mac1609_4.frameErrorRate 0.0
config *.**.nic.phy80211p.minPowerLevel -94dBm
config *.**.nic.phy80211p.maxTXPower 100mW
config *.**.nic.phy80211p.useNoiseFloor true
config *.**.nic.phy80211p.noiseFloor -95dBm
config *.**.nic.phy80211p.decider "xmldoc(\"config.xml\")"
config *.**.nic.phy80211p.analogueModels "xmldoc(\"config.xml\")"
config *.**.nic.phy80211p.usePropagationDelay true
config *.node[*].mobility.x 0
config *.node[*].mobility.y 0
config *.node[*].mobility.z 1.895
config seed-set 8
config **.seed 8
config *.node[*].prot.rng-0 2
config *.node[*].appl.rng-0 3
config *.node[*].scenario.rng-0 4
config **.traffic.rng-0 5
config *.manager.configFile "\"./sumocfg/freeway.sumo.cfg\""
config *.manager.launchConfig "xmldoc(\"./sumocfg/freeway.launchd.xml\")"
config **.numberOfCars 8
config **.numberOfCarsPerPlatoon 8
config **.numberOfLanes 1
config *.node[*].helper_type "\"PositionHelper\""
config *.node[*].scenario.caccC1 0.5
config *.node[*].scenario.caccXi 1
config *.node[*].scenario.caccOmegaN "0.2 Hz"
config *.node[*].scenario.caccSpacing "2 m"
config *.node[*].scenario.engineTau "0.5 s"
config *.node[*].scenario.ploegH 0.5s
config *.node[*].scenario.ploegKp 0.2
config *.node[*].scenario.ploegKd 0.7
config *.node[*].scenario.useRealisticEngine false
config *.node[*].scenario.useControllerAcceleration true
config *.node[*].scenario.nLanes 1
config **.numericController 1
config **.headway 0.1s
config *.node[*].scenario.accHeadway 0.1s
config *.node[*].scenario.leaderHeadway 1.2s
config *.node[*].scenario.leaderSpeed 150kmph
config *.node[*].appl_type "\"SimplePlatooningApp\""
config *.node[*].appl.*.scalar-recording true
config *.node[*].appl.*.vector-recording true
config *.node[0].appl.breakRanksSafetyDistance 2m
config *.node[*].appl.minSpeed 140kmph
config *.node[*].appl.maxSpeed 160kmph
config *.node[*].protocol_type "\"SimplePlatooningBeaconing\""
config *.node[*].prot.*.scalar-recording true
config *.node[*].prot.*.vector-recording true
config *.node[*].prot.beaconingInterval 0.1s
config *.node[*].prot.priority 4
config *.node[*].prot.packetSize 200
config **.traffic_type "\"PlatoonsTrafficManager\""
config **.traffic.platoonInsertTime "1 s"
config **.traffic.platoonInsertSpeed 150kmph
config **.traffic.nCars 8
config **.traffic.platoonSize 8
config **.traffic.nLanes 1
config **.traffic.platooningVType "\"vtypeauto\""
config **.traffic.controller "\"CACC\""
config **.traffic.platoonInsertDistance 2m
config **.traffic.platoonInsertHeadway 0s
config **.traffic.platoonLeaderHeadway 1.2s
config **.scalar-recording false
config **.vector-recording false
config output-vector-file results/BreakRanksNoGui_1_0.1_150_2/result_8.vec
config output-scalar-file results/BreakRanksNoGui_1_0.1_150_2/result_8.sca

vector 0 Highway.node[0].appl distance ETV
vector 1 Highway.node[0].appl relativeSpeed ETV
vector 2 Highway.node[0].appl nodeId ETV
vector 3 Highway.node[0].appl acceleration ETV
vector 4 Highway.node[0].appl controllerAcceleration ETV
vector 5 Highway.node[0].appl speed ETV
vector 6 Highway.node[0].appl posx ETV
vector 7 Highway.node[0].appl posy ETV
vector 8 Highway.node[1].appl distance ETV
vector 9 Highway.node[1].appl relativeSpeed ETV
vector 10 Highway.node[1].appl nodeId ETV
vector 11 Highway.node[1].appl acceleration ETV
vector 12 Highway.node[1].appl controllerAcceleration ETV
vector 13 Highway.node[1].appl speed ETV
vector 14 Highway.node[1].appl posx ETV
vector 15 Highway.node[1].appl posy ETV
vector 16 Highway.node[2].appl distance ETV
vector 17 Highway.node[2].appl relativeSpeed ETV
vector 18 Highway.node[2].appl nodeId ETV
vector 19 Highway.node[2].appl acceleration ETV
vector 20 Highway.node[2].appl controllerAcceleration ETV
vector 21 Highway.node[2].appl speed ETV
vector 22 Highway.node[2].appl posx ETV
vector 23 Highway.node[2].appl posy ETV
vector 24 Highway.node[3].appl distance ETV
vector 25 Highway.node[3].appl relativeSpeed ETV
vector 26 Highway.node[3].appl nodeId ETV
vector 27 Highway.node[3].appl acceleration ETV
vector 28 Highway.node[3].appl controllerAcceleration ETV
vector 29 Highway.node[3].appl speed ETV
vector 30 Highway.node[3].appl posx ETV
vector 31 Highway.node[3].appl posy ETV
vector 32 Highway.node[4].appl distance ETV
vector 33 Highway.node[4].appl relativeSpeed ETV
vector 34 Highway.node[4].appl nodeId ETV
vector 35 Highway.node[4].appl acceleration ETV
vector 36 Highway.node[4].appl controllerAcceleration ETV
vector 37 Highway.node[4].appl speed ETV
vector 38 Highway.node[4].appl posx ETV
vector 39 Highway.node[4].appl posy ETV
vector 40 Highway.node[5].appl distance ETV
vector 41 Highway.node[5].appl relativeSpeed ETV
vector 42 Highway.node[5].appl nodeId ETV
vector 43 Highway.node[5].appl acceleration ETV
vector 44 Highway.node[5].appl controllerAcceleration ETV
vector 45 Highway.node[5].appl speed ETV
vector 46 Highway.node[5].appl posx ETV
vector 47 Highway.node[5].appl posy ETV
vector 48 Highway.node[6].appl distance ETV
vector 49 Highway.node[6].appl relativeSpeed ETV
vector 50 Highway.node[6].appl nodeId ETV
vector 51 Highway.node[6].appl acceleration ETV
vector 52 Highway.node[6].appl controllerAcceleration ETV
vector 53 Highway.node[6].appl speed ETV
vector 54 Highway.node[6].appl posx ETV
vector 55 Highway.node[6].appl posy ETV
vector 56 Highway.node[7].appl distance ETV
vector 57 Highway.node[7].appl relativeSpeed ETV
vector 58 Highway.node[7].appl nodeId ETV
vector 59 Highway.node[7].appl acceleration ETV
vector 60 Highway.node[7].appl controllerAcceleration ETV
vector 61 Highway.node[7].appl speed ETV
vector 62 Highway.node[7].appl posx ETV
vector 63 Highway.node[7].appl posy ETV
vector 64 Highway.node[4].prot frontDelay ETV
vector 65 Highway.node[4].prot frontDelayId ETV
vector 66 Highway.node[2].prot frontDelay ETV
vector 67 Highway.node[2].prot frontDelayId ETV
vector 68 Highway.node[3].prot frontDelay ETV
vector 69 Highway.node[3].prot frontDelayId ETV
vector 70 Highway.node[5].prot frontDelay ETV
vector 71 Highway.node[5].prot frontDelayId ETV
vector 72 Highway.node[7].prot frontDelay ETV
vector 73 Highway.node[7].prot frontDelayId ETV
vector 74 Highway.node[1].prot leaderDelay ETV
vector 75 Highway.node[1].prot leaderDelayId ETV
vector 76 Highway.node[1].prot frontDelay ETV
vector 77 Highway.node[1].prot frontDelayId ETV
vector 78 Highway.node[2].prot leaderDelay ETV
vector 79 Highway.node[2].prot leaderDelayId ETV
vector 80 Highway.node[3].prot leaderDelay ETV
vector 81 Highway.node[3].prot leaderDelayId ETV
vector 82 Highway.node[4].prot leaderDelay ETV
vector 83 Highway.node[4].prot leaderDelayId ETV
vector 84 Highway.node[5].prot leaderDelay ETV
vector 85 Highway.node[5].prot leaderDelayId ETV
vector 86 Highway.node[6].prot leaderDelay ETV
vector 87 Highway.node[6].prot leaderDelayId ETV
vector 88 Highway.node[7].prot leaderDelay ETV
vector 89 Highway.node[7].prot leaderDelayId ETV
vector 90 Highway.node[6].prot frontDelay ETV
vector 91 Highway.node[6].prot frontDelayId ETV
vector 92 Highway.node[0].prot nodeId ETV
vector 93 Highway.node[0].prot busyTime ETV
vector 94 Highway.node[0].prot collisions ETV
vector 95 Highway.node[1].prot nodeId ETV
vector 96 Highway.node[1].prot busyTime ETV
vector 97 Highway.node[1].prot collisions ETV
vector 98 Highway.node[2].prot nodeId ETV
vector 99 Highway.node[2].prot busyTime ETV
vector 100 Highway.node[2].prot collisions ETV
vector 101 Highway.node[3].prot nodeId ETV
vector 102 Highway.node[3].prot busyTime ETV
vector 103 Highway.node[3].prot collisions ETV
vector 104 Highway.node[4].prot nodeId ETV
vector 105 Highway.node[4].prot busyTime ETV
vector 106 Highway.node[4].prot collisions ETV
vector 107 Highway.node[5].prot nodeId ETV
vector 108 Highway.node[5].prot busyTime ETV
vector 109 Highway.node[5].prot collisions ETV
vector 110 Highway.node[6].prot nodeId ETV
vector 111 Highway.node[6].prot busyTime ETV
vector 112 Highway.node[6].prot collisions ETV
vector 113 Highway.node[7].prot nodeId ETV
vector 114 Highway.node[7].prot busyTime ETV
vector 115 Highway.node[7].prot collisions ETV
0	113	1.11	-1
0	659	1.21	-1
0	1205	1.31	-1
0	1751	1.41	-1
0	2297	1.51	-1
0	2843	1.61	-1
0	3389	1.71	-1
0	3935	1.81	-1
0	4481	1.91	-1
0	5035	2.01	-1
0	5581	2.11	-1
0	6127	2.21	-1
0	6673	2.31	-1
0	7219	2.41	-1
0	7765	2.51	-1
0	8311	2.61	-1
0	8857	2.71	-1
0	9403	2.81	-1
0	9949	2.91	-1
0	10503	3.01	-1
0	11049	3.11	-1
0	11595	3.21	-1
0	12141	3.31	-1
0	12687	3.41	-1
0	13233	3.51	-1
0	13779	3.61	-1
0	14325	3.71	-1
0	14871	3.81	-1
0	15417	3.91	-1
0	15971	4.01	-1
0	16517	4.11	-1
0	17063	4.21	-1
0	17609	4.31	-1
0	18155	4.41	-1
0	18701	4.51	-1
0	19247	4.61	-1
0	19793	4.71	-1
0	20339	4.81	-1
0	20885	4.91	-1
0	21439	5.01	-1
0	21985	5.11	-1
0	22531	5.21	-1
0	23077	5.31	-1
0	23623	5.41	-1
0	24169	5.51	-1
0	24715	5.61	-1
0	25261	5.71	-1
0	25807	5.81	-1
0	26353	5.91	-1
0	26907	6.01	-1
0	27453	6.11	-1
0	27999	6.21	-1
0	28545	6.31	-1
0	29091	6.41	-1
0	29637	6.51	-1
0	30183	6.61	-1
0	30729	6.71	-1
0	31275	6.81	-1
0	31821	6.91	-1
0	32375	7.01	-1
0	32921	7.11	-1
0	33467	7.21	-1
0	34013	7.31	-1
0	34559	7.41	-1
0	35105	7.51	-1
0	35651	7.61	-1
0	36197	7.71	-1
0	36743	7.81	-1
0	37289	7.91	-1
0	37843	8.01	-1
0	38389	8.11	-1
0	38935	8.21	-1
0	39481	8.31	-1
0	40027	8.41	-1
0	40573	8.51	-1
0	41119	8.61	-1
0	41665	8.71	-1
0	42211	8.81	-1
0	42757	8.91	-1
0	43311	9.01	-1
0	43857	9.11	-1
0	44403	9.21	-1
0	44949	9.31	-1
0	45495	9.41	-1
0	46041	9.51	-1
0	46587	9.61	-1
0	47133	9.71	-1
0	47679	9.81	-1
0	48225	9.91	-1
0	50689	10.01	-1
0	51235	10.11	-1
0	51781	10.21	-1
0	52327	10.31	-1
0	52873	10.41	-1
0	53419	10.51	-1
0	53965	10.61	-1
0	54511	10.71	-1
0	55057	10.81	-1
0	55603	10.91	-1
0	56157	11.01	-1
0	56703	11.11	-1
0	57249	11.21	-1
0	57795	11.31	-1
0	58341	11.41	-1
0	58887	11.51	-1
0	59433	11.61	-1
0	59979	11.71	-1
0	60525	11.81	-1
0	61071	11.91	-1
0	61625	12.01	-1
0	62171	12.11	-1
0	62717	12.21	-1
0	63263	12.31	-1
0	63809	12.41	-1
0	64355	12.51	-1
0	64901	12.61	-1
0	65447	12.71	-1
0	65993	12.81	-1
0	66539	12.91	-1
0	67093	13.01	-1
0	67639	13.11	-1
0	68185	13.21	-1
0	68731	13.31	-1
0	69277	13.41	-1
0	69823	13.51	-1
0	70369	13.61	-1
0	70915	13.71	-1
0	71461	13.81	-1
0	72007	13.91	-1
0	72561	14.01	-1
0	73107	14.11	-1
0	73653	14.21	-1
0	74199	14.31	-1
0	74745	14.41	-1
0	75291	14.51	-1
0	75837	14.61	-1
0	76383	14.71	-1
0	76929	14.81	-1
0	77475	14.91	-1
0	78029	15.01	-1
0	78575	15.11	-1
0	79121	15.21	-1
0	79667	15.31	-1
0	80213	15.41	-1
0	80759	15.51	-1
0	81305	15.61	-1
0	81851	15.71	-1
0	82397	15.81	-1
0	82943	15.91	-1
0	83497	16.01	-1
0	84043	16.11	-1
0	84589	16.21	-1
0	85135	16.31	-1
0	85681	16.41	-1
0	86227	16.51	-1
0	86773	16.61	-1
0	87319	16.71	-1
0	87865	16.81	-1
0	88411	16.91	-1
0	88965	17.01	-1
0	89511	17.11	-1
0	90057	17.21	-1
0	90603	17.31	-1
0	91149	17.41	-1
0	91695	17.51	-1
0	92241	17.61	-1
0	92787	17.71	-1
0	93333	17.81	-1
0	93879	17.91	-1
0	94433	18.01	-1
0	94979	18.11	-1
0	95525	18.21	-1
0	96071	18.31	-1
0	96617	18.41	-1
0	97163	18.51	-1
0	97709	18.61	-1
0	98255	18.71	-1
0	98801	18.81	-1
0	99347	18.91	-1
0	99901	19.01	-1
0	100447	19.11	-1
0	100993	19.21	-1
0	101539	19.31	-1
0	102085	19.41	-1
0	102631	19.51	-1
0	103177	19.61	-1
0	103723	19.71	-1
0	104269	19.81	-1
0	104815	19.91	-1
0	105369	20.01	-1
0	105915	20.11	-1
0	106461	20.21	-1
0	107007	20.31	-1
0	107553	20.41	-1
0	108099	20.51	-1
0	108645	20.61	-1
0	109191	20.71	-1
0	109737	20.81	-1
0	110283	20.91	-1
0	110837	21.01	-1
0	111383	21.11	-1
0	111929	21.21	-1
0	112475	21.31	-1
0	113021	21.41	-1
0	113567	21.51	-1
0	114113	21.61	-1
0	114659	21.71	-1
0	115205	21.81	-1
0	115751	21.91	-1
0	116305	22.01	-1
0	116851	22.11	-1
0	117397	22.21	-1
0	117943	22.31	-1
0	118489	22.41	-1
0	119035	22.51	-1
0	119581	22.61	-1
0	120127	22.71	-1
0	120673	22.81	-1
0	121219	22.91	-1
0	121773	23.01	-1
0	122319	23.11	-1
0	122865	23.21	-1
0	123411	23.31	-1
0	123957	23.41	-1
0	124503	23.51	-1
0	125049	23.61	-1
0	125595	23.71	-1
0	126141	23.81	-1
0	126687	23.91	-1
0	127241	24.01	-1
0	127787	24.11	-1
0	128333	24.21	-1
0	128879	24.31	-1
0	129425	24.41	-1
0	129971	24.51	-1
0	130517	24.61	-1
0	131063	24.71	-1
0	131609	24.81	-1
0	132155	24.91	-1
0	132709	25.01	-1
0	133255	25.11	-1
0	133801	25.21	-1
0	134347	25.31	-1
0	134893	25.41	-1
0	135439	25.51	-1
0	135985	25.61	-1
0	136531	25.71	-1
0	137077	25.81	-1
0	137623	25.91	-1
0	138177	26.01	-1
0	138723	26.11	-1
0	139269	26.21	-1
0	139815	26.31	-1
0	140361	26.41	-1
0	140907	26.51	-1
0	141453	26.61	-1
0	141999	26.71	-1
0	142545	26.81	-1
0	143091	26.91	-1
0	143645	27.01	-1
0	144191	27.11	-1
0	144737	27.21	-1
0	145283	27.31	-1
0	145829	27.41	-1
0	146375	27.51	-1
0	146921	27.61	-1
0	147467	27.71	-1
0	148013	27.81	-1
0	148559	27.91	-1
0	149113	28.01	-1
0	149659	28.11	-1
0	150205	28.21	-1
0	150751	28.31	-1
0	151297	28.41	-1
0	151843	28.51	-1
0	152389	28.61	-1
0	152935	28.71	-1
0	153481	28.81	-1
0	154027	28.91	-1
0	154581	29.01	-1
0	155127	29.11	-1
0	155673	29.21	-1
0	156219	29.31	-1
0	156765	29.41	-1
0	157311	29.51	-1
0	157857	29.61	-1
0	158403	29.71	-1
0	158949	29.81	-1
0	159495	29.91	-1
0	160049	30.01	-1
0	160595	30.11	-1
0	161141	30.21	-1
0	161687	30.31	-1
0	162233	30.41	-1
0	162779	30.51	-1
0	163325	30.61	-1
0	163871	30.71	-1
0	164417	30.81	-1
0	164963	30.91	-1
0	165517	31.01	-1
0	166063	31.11	-1
0	166609	31.21	-1
0	167155	31.31	-1
0	167701	31.41	-1
0	168247	31.51	-1
0	168793	31.61	-1
0	169339	31.71	-1
0	169885	31.81	-1
0	170431	31.91	-1
0	170985	32.01	-1
0	171531	32.11	-1
0	172077	32.21	-1
0	172623	32.31	-1
0	173169	32.41	-1
0	173715	32.51	-1
0	174261	32.61	-1
0	174807	32.71	-1
0	175353	32.81	-1
0	175899	32.91	-1
0	176453	33.01	-1
0	176999	33.11	-1
0	177545	33.21	-1
0	178091	33.31	-1
0	178637	33.41	-1
0	179183	33.51	-1
0	179729	33.61	-1
0	180275	33.71	-1
0	180821	33.81	-1
0	181367	33.91	-1
0	181921	34.01	-1
0	182467	34.11	-1
0	183013	34.21	-1
0	183559	34.31	-1
0	184105	34.41	-1
0	184651	34.51	-1
0	185197	34.61	-1
0	185743	34.71	-1
0	186289	34.81	-1
0	186835	34.91	-1
0	187389	35.01	-1
0	187935	35.11	-1
0	188481	35.21	-1
0	189027	35.31	-1
0	189573	35.41	-1
0	190119	35.51	-1
0	190665	35.61	-1
0	191211	35.71	-1
0	191757	35.81	-1
0	192303	35.91	-1
0	192857	36.01	-1
0	193403	36.11	-1
0	193949	36.21	-1
0	194495	36.31	-1
0	195041	36.41	-1
0	195587	36.51	-1
0	196133	36.61	-1
0	196679	36.71	-1
0	197225	36.81	-1
0	197771	36.91	-1
0	198325	37.01	-1
0	198871	37.11	-1
0	199417	37.21	-1
0	199963	37.31	-1
0	200509	37.41	-1
0	201055	37.51	-1
0	201601	37.61	-1
0	202147	37.71	-1
0	202693	37.81	-1
0	203239	37.91	-1
0	203793	38.01	-1
0	204339	38.11	-1
0	204885	38.21	-1
0	205431	38.31	-1
0	205977	38.41	-1
0	206523	38.51	-1
0	207069	38.61	-1
0	207615	38.71	-1
0	208161	38.81	-1
0	208707	38.91	-1
0	209261	39.01	-1
0	209807	39.11	-1
0	210353	39.21	-1
0	210899	39.31	-1
0	211445	39.41	-1
0	211991	39.51	-1
0	212537	39.61	-1
0	213083	39.71	-1
0	213629	39.81	-1
0	214175	39.91	-1
0	214729	40.01	-1
0	215275	40.11	-1
0	215821	40.21	-1
0	216367	40.31	-1
0	216913	40.41	-1
0	217459	40.51	-1
0	218005	40.61	-1
0	218551	40.71	-1
0	219097	40.81	-1
0	219643	40.91	-1
0	220197	41.01	-1
0	220743	41.11	-1
0	221289	41.21	-1
0	221835	41.31	-1
0	222381	41.41	-1
0	222927	41.51	-1
0	223473	41.61	-1
0	224019	41.71	-1
0	224565	41.81	-1
0	225111	41.91	-1
0	225665	42.01	-1
0	226211	42.11	-1
0	226757	42.21	-1
0	227303	42.31	-1
0	227849	42.41	-1
0	228395	42.51	-1
0	228941	42.61	-1
0	229487	42.71	-1
0	230033	42.81	-1
0	230579	42.91	-1
0	231133	43.01	-1
0	231679	43.11	-1
0	232225	43.21	-1
0	232771	43.31	-1
0	233317	43.41	-1
0	233863	43.51	-1
0	234409	43.61	-1
0	234955	43.71	-1
0	235501	43.81	-1
0	236047	43.91	-1
0	236601	44.01	-1
0	237147	44.11	-1
0	237693	44.21	-1
0	238239	44.31	-1
0	238785	44.41	-1
0	239331	44.51	-1
0	239877	44.61	-1
0	240423	44.71	-1
0	240969	44.81	-1
0	241515	44.91	-1
0	242069	45.01	-1
0	242615	45.11	-1
0	243161	45.21	-1
0	243707	45.31	-1
0	244253	45.41	-1
0	244799	45.51	-1
0	245345	45.61	-1
0	245891	45.71	-1
0	246437	45.81	-1
0	246983	45.91	-1
0	247537	46.01	-1
0	248083	46.11	-1
0	248629	46.21	-1
0	249175	46.31	-1
0	249721	46.41	-1
0	250267	46.51	-1
0	250813	46.61	-1
0	251359	46.71	-1
0	251905	46.81	-1
0	252451	46.91	-1
0	253005	47.01	-1
0	253551	47.11	-1
0	254097	47.21	-1
0	254643	47.31	-1
0	255189	47.41	-1
0	255735	47.51	-1
0	256281	47.61	-1
0	256827	47.71	-1
0	257373	47.81	-1
0	257919	47.91	-1
0	258473	48.01	-1
0	259019	48.11	-1
0	259565	48.21	-1
0	260111	48.31	-1
0	260657	48.41	-1
0	261203	48.51	-1
0	261749	48.61	-1
0	262295	48.71	-1
0	262841	48.81	-1
0	263387	48.91	-1
0	263941	49.01	-1
0	264487	49.11	-1
0	265033	49.21	-1
0	265579	49.31	-1
0	266125	49.41	-1
0	266671	49.51	-1
0	267217	49.61	-1
0	267763	49.71	-1
0	268309	49.81	-1
0	268855	49.91	-1
0	269409	50.01	-1
0	269955	50.11	-1
0	270501	50.21	-1
0	271047	50.31	-1
0	271593	50.41	-1
0	272139	50.51	-1
0	272685	50.61	-1
0	273231	50.71	-1
0	273777	50.81	-1
0	274323	50.91	-1
0	274877	51.01	-1
0	275423	51.11	-1
0	275969	51.21	-1
0	276515	51.31	-1
0	277061	51.41	-1
0	277607	51.51	-1
0	278153	51.61	-1
0	278699	51.71	-1
0	279245	51.81	-1
0	279791	51.91	-1
0	280345	52.01	-1
0	280891	52.11	-1
0	281437	52.21	-1
0	281983	52.31	-1
0	282529	52.41	-1
0	283075	52.51	-1
0	283621	52.61	-1
0	284167	52.71	-1
0	284713	52.81	-1
0	285259	52.91	-1
0	285813	53.01	-1
0	286359	53.11	-1
0	286905	53.21	-1
0	287451	53.31	-1
0	287997	53.41	-1
0	288543	53.51	-1
0	289089	53.61	-1
0	289635	53.71	-1
0	290181	53.81	-1
0	290727	53.91	-1
0	291281	54.01	-1
0	291827	54.11	-1
0	292373	54.21	-1
0	292919	54.31	-1
0	293465	54.41	-1
0	294011	54.51	-1
0	294557	54.61	-1
0	295103	54.71	-1
0	295649	54.81	-1
0	296195	54.91	-1
0	296749	55.01	-1
0	297295	55.11	-1
0	297841	55.21	-1
0	298387	55.31	-1
0	298933	55.41	-1
0	299479	55.51	-1
0	300025	55.61	-1
0	300571	55.71	-1
0	301117	55.81	-1
0	301663	55.91	-1
0	302217	56.01	-1
0	302763	56.11	-1
0	303309	56.21	-1
0	303855	56.31	-1
0	304401	56.41	-1
0	304947	56.51	-1
0	305493	56.61	-1
0	306039	56.71	-1
0	306585	56.81	-1
0	307131	56.91	-1
0	307685	57.01	-1
0	308231	57.11	-1
0	308777	57.21	-1
0	309323	57.31	-1
0	309869	57.41	-1
0	310415	57.51	-1
0	310961	57.61	-1
0	311507	57.71	-1
0	312053	57.81	-1
0	312599	57.91	-1
0	313153	58.01	-1
0	313699	58.11	-1
0	314245	58.21	-1
0	314791	58.31	-1
0	315337	58.41	-1
0	315883	58.51	-1
0	316429	58.61	-1
0	316975	58.71	-1
0	317521	58.81	-1
0	318067	58.91	-1
0	318621	59.01	-1
0	319167	59.11	-1
0	319713	59.21	-1
0	320259	59.31	-1
0	320805	59.41	-1
0	321351	59.51	-1
0	321897	59.61	-1
0	322443	59.71	-1
0	322989	59.81	-1
0	323535	59.91	-1
0	324089	60.01	-1
0	324635	60.11	-1
0	325181	60.21	-1
0	325727	60.31	-1
0	326273	60.41	-1
0	326819	60.51	-1
0	327365	60.61	-1
0	327911	60.71	-1
0	328457	60.81	-1
0	329003	60.91	-1
0	329557	61.01	-1
0	330103	61.11	-1
0	330649	61.21	-1
0	331195	61.31	-1
0	331741	61.41	-1
0	332287	61.51	-1
0	332833	61.61	-1
0	333379	61.71	-1
0	333925	61.81	-1
0	334471	61.91	-1
0	335025	62.01	-1
0	335571	62.11	-1
0	336117	62.21	-1
0	336663	62.31	-1
0	337209	62.41	-1
0	337755	62.51	-1
0	338301	62.61	-1
0	338847	62.71	-1
0	339393	62.81	-1
0	339939	62.91	-1
0	340493	63.01	-1
0	341039	63.11	-1
0	341585	63.21	-1
0	342131	63.31	-1
0	342677	63.41	-1
0	343223	63.51	-1
0	343769	63.61	-1
0	344315	63.71	-1
0	344861	63.81	-1
0	345407	63.91	-1
0	345961	64.01	-1
0	346507	64.11	-1
0	347053	64.21	-1
0	347599	64.31	-1
0	348145	64.41	-1
0	348691	64.51	-1
0	349237	64.61	-1
0	349783	64.71	-1
0	350329	64.81	-1
0	350875	64.91	-1
0	351429	65.01	-1
0	351975	65.11	-1
0	352521	65.21	-1
0	353067	65.31	-1
0	353613	65.41	-1
0	354159	65.51	-1
0	354705	65.61	-1
0	355251	65.71	-1
0	355797	65.81	-1
0	356343	65.91	-1
0	356897	66.01	-1
0	357443	66.11	-1
0	357989	66.21	-1
0	358535	66.31	-1
0	359081	66.41	-1
0	359627	66.51	-1
0	360173	66.61	-1
0	360719	66.71	-1
0	361265	66.81	-1
0	361811	66.91	-1
0	362365	67.01	-1
0	362911	67.11	-1
0	363457	67.21	-1
0	364003	67.31	-1
0	364549	67.41	-1
0	365095	67.51	-1
0	365641	67.61	-1
0	366187	67.71	-1
0	366733	67.81	-1
0	367279	67.91	-1
0	367833	68.01	-1
0	368379	68.11	-1
0	368925	68.21	-1
0	369471	68.31	-1
0	370017	68.41	-1
0	370563	68.51	-1
0	371109	68.61	-1
0	371655	68.71	-1
0	372201	68.81	-1
0	372747	68.91	-1
0	373301	69.01	-1
0	373847	69.11	-1
0	374393	69.21	-1
0	374939	69.31	-1
0	375485	69.41	-1
0	376031	69.51	-1
0	376577	69.61	-1
0	377123	69.71	-1
0	377669	69.81	-1
0	378215	69.91	-1
0	378769	70.01	-1
0	379315	70.11	-1
0	379861	70.21	-1
0	380407	70.31	-1
0	380953	70.41	-1
0	381499	70.51	-1
0	382045	70.61	-1
0	382591	70.71	-1
0	383137	70.81	-1
0	383683	70.91	-1
0	384237	71.01	-1
0	384783	71.11	-1
0	385329	71.21	-1
0	385875	71.31	-1
0	386421	71.41	-1
0	386967	71.51	-1
0	387513	71.61	-1
0	388059	71.71	-1
0	388605	71.81	-1
0	389151	71.91	-1
0	389705	72.01	-1
0	390251	72.11	-1
0	390797	72.21	-1
0	391343	72.31	-1
0	391889	72.41	-1
0	392435	72.51	-1
0	392981	72.61	-1
0	393527	72.71	-1
0	394073	72.81	-1
0	394619	72.91	-1
0	395173	73.01	-1
0	395719	73.11	-1
0	396265	73.21	-1
0	396811	73.31	-1
0	397357	73.41	-1
0	397903	73.51	-1
0	398449	73.61	-1
0	398995	73.71	-1
0	399541	73.81	-1
0	400087	73.91	-1
0	400641	74.01	-1
0	401187	74.11	-1
0	401733	74.21	-1
0	402279	74.31	-1
0	402825	74.41	-1
0	403371	74.51	-1
0	403917	74.61	-1
0	404463	74.71	-1
0	405009	74.81	-1
0	405555	74.91	-1
0	406109	75.01	-1
0	406655	75.11	-1
0	407201	75.21	-1
0	407747	75.31	-1
0	408293	75.41	-1
0	408839	75.51	-1
0	409385	75.61	-1
0	409931	75.71	-1
0	410477	75.81	-1
0	411023	75.91	-1
0	411577	76.01	-1
0	412123	76.11	-1
0	412669	76.21	-1
0	413215	76.31	-1
0	413761	76.41	-1
0	414307	76.51	-1
0	414853	76.61	-1
0	415399	76.71	-1
0	415945	76.81	-1
0	416491	76.91	-1
0	417045	77.01	-1
0	417591	77.11	-1
0	418137	77.21	-1
0	418683	77.31	-1
0	419229	77.41	-1
0	419775	77.51	-1
0	420321	77.61	-1
0	420867	77.71	-1
0	421413	77.81	-1
0	421959	77.91	-1
0	422513	78.01	-1
0	423059	78.11	-1
0	423605	78.21	-1
0	424151	78.31	-1
0	424697	78.41	-1
0	425243	78.51	-1
0	425789	78.61	-1
0	426335	78.71	-1
0	426881	78.81	-1
0	427427	78.91	-1
0	427981	79.01	-1
0	428527	79.11	-1
0	429073	79.21	-1
0	429619	79.31	-1
0	430165	79.41	-1
0	430711	79.51	-1
0	431257	79.61	-1
0	431803	79.71	-1
0	432349	79.81	-1
0	432895	79.91	-1
0	433449	80.01	-1
0	433995	80.11	-1
0	434541	80.21	-1
0	435087	80.31	-1
0	435633	80.41	-1
0	436179	80.51	-1
0	436725	80.61	-1
0	437271	80.71	-1
0	437817	80.81	-1
0	438363	80.91	-1
0	438917	81.01	-1
0	439463	81.11	-1
0	440009	81.21	-1
0	440555	81.31	-1
0	441101	81.41	-1
0	441647	81.51	-1
0	442193	81.61	-1
0	442739	81.71	-1
0	443285	81.81	-1
0	443831	81.91	-1
0	444385	82.01	-1
0	444931	82.11	-1
0	445477	82.21	-1
0	446023	82.31	-1
0	446569	82.41	-1
0	447115	82.51	-1
0	447661	82.61	-1
0	448207	82.71	-1
0	448753	82.81	-1
0	449299	82.91	-1
0	449853	83.01	-1
0	450399	83.11	-1
0	450945	83.21	-1
0	451491	83.31	-1
0	452037	83.41	-1
0	452583	83.51	-1
0	453129	83.61	-1
0	453675	83.71	-1
0	454221	83.81	-1
0	454767	83.91	-1
0	455321	84.01	-1
0	455867	84.11	-1
0	456413	84.21	-1
0	456959	84.31	-1
0	457505	84.41	-1
0	458051	84.51	-1
0	458597	84.61	-1
0	459143	84.71	-1
0	459689	84.81	-1
0	460235	84.91	-1
0	460789	85.01	-1
0	461335	85.11	-1
0	461881	85.21	-1
0	462427	85.31	-1
0	462973	85.41	-1
0	463519	85.51	-1
0	464065	85.61	-1
0	464611	85.71	-1
0	465157	85.81	-1
0	465703	85.91	-1
0	466257	86.01	-1
0	466803	86.11	-1
0	467349	86.21	-1
0	467895	86.31	-1
0	468441	86.41	-1
0	468987	86.51	-1
0	469533	86.61	-1
0	470079	86.71	-1
0	470625	86.81	-1
0	471171	86.91	-1
0	471725	87.01	-1
0	472271	87.11	-1
0	472817	87.21	-1
0	473363	87.31	-1
0	473909	87.41	-1
0	474455	87.51	-1
0	475001	87.61	-1
0	475547	87.71	-1
0	476093	87.81	-1
0	476639	87.91	-1
0	477193	88.01	-1
0	477739	88.11	-1
0	478285	88.21	-1
0	478831	88.31	-1
0	479377	88.41	-1
0	479923	88.51	-1
0	480469	88.61	-1
0	481015	88.71	-1
0	481561	88.81	-1
0	482107	88.91	-1
0	482661	89.01	-1
0	483207	89.11	-1
0	483753	89.21	-1
0	484299	89.31	-1
0	484845	89.41	-1
0	485391	89.51	-1
0	485937	89.61	-1
0	486483	89.71	-1
0	487029	89.81	-1
0	487575	89.91	-1
0	488129	90.01	-1
0	488675	90.11	-1
0	489221	90.21	-1
0	489767	90.31	-1
0	490313	90.41	-1
0	490859	90.51	-1
0	491405	90.61	-1
0	491951	90.71	-1
0	492497	90.81	-1
0	493043	90.91	-1
0	493597	91.01	-1
0	494143	91.11	-1
0	494689	91.21	-1
0	495235	91.31	-1
0	495781	91.41	-1
0	496327	91.51	-1
0	496873	91.61	-1
0	497419	91.71	-1
0	497965	91.81	-1
0	498511	91.91	-1
0	499065	92.01	-1
0	499611	92.11	-1
0	500157	92.21	-1
0	500703	92.31	-1
0	501249	92.41	-1
0	501795	92.51	-1
0	502341	92.61	-1
0	502887	92.71	-1
0	503433	92.81	-1
0	503979	92.91	-1
0	504533	93.01	-1
0	505079	93.11	-1
0	505625	93.21	-1
0	506171	93.31	-1
0	506717	93.41	-1
0	507263	93.51	-1
0	507809	93.61	-1
0	508355	93.71	-1
0	508901	93.81	-1
0	509447	93.91	-1
0	510001	94.01	-1
0	510547	94.11	-1
0	511093	94.21	-1
0	511639	94.31	-1
0	512185	94.41	-1
0	512731	94.51	-1
0	513277	94.61	-1
0	513823	94.71	-1
0	514369	94.81	-1
0	514915	94.91	-1
0	515469	95.01	-1
0	516015	95.11	-1
0	516561	95.21	-1
0	517107	95.31	-1
0	517653	95.41	-1
0	518199	95.51	-1
0	518745	95.61	-1
0	519291	95.71	-1
0	519837	95.81	-1
0	520383	95.91	-1
0	520937	96.01	-1
0	521483	96.11	-1
0	522029	96.21	-1
0	522575	96.31	-1
0	523121	96.41	-1
0	523667	96.51	-1
0	524213	96.61	-1
0	524759	96.71	-1
0	525305	96.81	-1
0	525851	96.91	-1
0	526405	97.01	-1
0	526951	97.11	-1
0	527497	97.21	-1
0	528043	97.31	-1
0	528589	97.41	-1
0	529135	97.51	-1
0	529681	97.61	-1
0	530227	97.71	-1
0	530773	97.81	-1
0	531319	97.91	-1
0	531873	98.01	-1
0	532419	98.11	-1
0	532965	98.21	-1
0	533511	98.31	-1
0	534057	98.41	-1
0	534603	98.51	-1
0	535149	98.61	-1
0	535695	98.71	-1
0	536241	98.81	-1
0	536787	98.91	-1
0	537341	99.01	-1
0	537887	99.11	-1
0	538433	99.21	-1
0	538979	99.31	-1
0	539525	99.41	-1
0	540071	99.51	-1
0	540617	99.61	-1
0	541163	99.71	-1
0	541709	99.81	-1
0	542255	99.91	-1
1	113	1.11	0
1	659	1.21	0
1	1205	1.31	0
1	1751	1.41	0
1	2297	1.51	0
1	2843	1.61	0
1	3389	1.71	0
1	3935	1.81	0
1	4481	1.91	0
1	5035	2.01	0
1	5581	2.11	0
1	6127	2.21	0
1	6673	2.31	0
1	7219	2.41	0
1	7765	2.51	0
1	8311	2.61	0
1	8857	2.71	0
1	9403	2.81	0
1	9949	2.91	0
1	10503	3.01	0
1	11049	3.11	0
1	11595	3.21	0
1	12141	3.31	0
1	12687	3.41	0
1	13233	3.51	0
1	13779	3.61	0
1	14325	3.71	0
1	14871	3.81	0
1	15417	3.91	0
1	15971	4.01	0
1	16517	4.11	0
1	17063	4.21	0
1	17609	4.31	0
1	18155	4.41	0
1	18701	4.51	0
1	19247	4.61	0
1	19793	4.71	0
1	20339	4.81	0
1	20885	4.91	0
1	21439	5.01	0
1	21985	5.11	0
1	22531	5.21	0
1	23077	5.31	0
1	23623	5.41	0
1	24169	5.51	0
1	24715	5.61	0
1	25261	5.71	0
1	25807	5.81	0
1	26353	5.91	0
1	26907	6.01	0
1	27453	6.11	0
1	27999	6.21	0
1	28545	6.31	0
1	29091	6.41	0
1	29637	6.51	0
1	30183	6.61	0
1	30729	6.71	0
1	31275	6.81	0
1	31821	6.91	0
1	32375	7.01	0
1	32921	7.11	0
1	33467	7.21	0
1	34013	7.31	0
1	34559	7.41	0
1	35105	7.51	0
1	35651	7.61	0
1	36197	7.71	0
1	36743	7.81	0
1	37289	7.91	0
1	37843	8.01	0
1	38389	8.11	0
1	38935	8.21	0
1	39481	8.31	0
1	40027	8.41	0
1	40573	8.51	0
1	41119	8.61	0
1	41665	8.71	0
1	42211	8.81	0
1	42757	8.91	0
1	43311	9.01	0
1	43857	9.11	0
1	44403	9.21	0
1	44949	9.31	0
1	45495	9.41	0
1	46041	9.51	0
1	46587	9.61	0
1	47133	9.71	0
1	47679	9.81	0
1	48225	9.91	0
1	50689	10.01	0
1	51235	10.11	0
1	51781	10.21	0
1	52327	10.31	0
1	52873	10.41	0
1	53419	10.51	0
1	53965	10.61	0
1	54511	10.71	0
1	55057	10.81	0
1	55603	10.91	0
1	56157	11.01	0
1	56703	11.11	0
1	57249	11.21	0
1	57795	11.31	0
1	58341	11.41	0
1	58887	11.51	0
1	59433	11.61	0
1	59979	11.71	0
1	60525	11.81	0
1	61071	11.91	0
1	61625	12.01	0
1	62171	12.11	0
1	62717	12.21	0
1	63263	12.31	0
1	63809	12.41	0
1	64355	12.51	0
1	64901	12.61	0
1	65447	12.71	0
1	65993	12.81	0
1	66539	12.91	0
1	67093	13.01	0
1	67639	13.11	0
1	68185	13.21	0
1	68731	13.31	0
1	69277	13.41	0
1	69823	13.51	0
1	70369	13.61	0
1	70915	13.71	0
1	71461	13.81	0
1	72007	13.91	0
1	72561	14.01	0
1	73107	14.11	0
1	73653	14.21	0
1	74199	14.31	0
1	74745	14.41	0
1	75291	14.51	0
1	75837	14.61	0
1	76383	14.71	0
1	76929	14.81	0
1	77475	14.91	0
1	78029	15.01	0
1	78575	15.11	0
1	79121	15.21	0
1	79667	15.31	0
1	80213	15.41	0
1	80759	15.51	0
1	81305	15.61	0
1	81851	15.71	0
1	82397	15.81	0
1	82943	15.91	0
1	83497	16.01	0
1	84043	16.11	0
1	84589	16.21	0
1	85135	16.31	0
1	85681	16.41	0
1	86227	16.51	0
1	86773	16.61	0
1	87319	16.71	0
1	87865	16.81	0
1	88411	16.91	0
1	88965	17.01	0
1	89511	17.11	0
1	90057	17.21	0
1	90603	17.31	0
1	91149	17.41	0
1	91695	17.51	0
1	92241	17.61	0
1	92787	17.71	0
1	93333	17.81	0
1	93879	17.91	0
1	94433	18.01	0
1	94979	18.11	0
1	95525	18.21	0
1	96071	18.31	0
1	96617	18.41	0
1	97163	18.51	0
1	97709	18.61	0
1	98255	18.71	0
1	98801	18.81	0
1	99347	18.91	0
1	99901	19.01	0
1	100447	19.11	0
1	100993	19.21	0
1	101539	19.31	0
1	102085	19.41	0
1	102631	19.51	0
1	103177	19.61	0
1	103723	19.71	0
1	104269	19.81	0
1	104815	19.91	0
1	105369	20.01	0
1	105915	20.11	0
1	106461	20.21	0
1	107007	20.31	0
1	107553	20.41	0
1	108099	20.51	0
1	108645	20.61	0
1	109191	20.71	0
1	109737	20.81	0
1	110283	20.91	0
1	110837	21.01	0
1	111383	21.11	0
1	111929	21.21	0
1	112475	21.31	0
1	113021	21.41	0
1	113567	21.51	0
1	114113	21.61	0
1	114659	21.71	0
1	115205	21.81	0
1	115751	21.91	0
1	116305	22.01	0
1	116851	22.11	0
1	117397	22.21	0
1	117943	22.31	0
1	118489	22.41	0
1	119035	22.51	0
1	119581	22.61	0
1	120127	22.71	0
1	120673	22.81	0
1	121219	22.91	0
1	121773	23.01	0
1	122319	23.11	0
1	122865	23.21	0
1	123411	23.31	0
1	123957	23.41	0
1	124503	23.51	0
1	125049	23.61	0
1	125595	23.71	0
1	126141	23.81	0
1	126687	23.91	0
1	127241	24.01	0
1	127787	24.11	0
1	128333	24.21	0
1	128879	24.31	0
1	129425	24.41	0
1	129971	24.51	0
1	130517	24.61	0
1	131063	24.71	0
1	131609	24.81	0
1	132155	24.91	0
1	132709	25.01	0
1	133255	25.11	0
1	133801	25.21	0
1	134347	25.31	0
1	134893	25.41	0
1	135439	25.51	0
1	135985	25.61	0
1	136531	25.71	0
1	137077	25.81	0
1	137623	25.91	0
1	138177	26.01	0
1	138723	26.11	0
1	139269	26.21	0
1	139815	26.31	0
1	140361	26.41	0
1	140907	26.51	0
1	141453	26.61	0
1	141999	26.71	0
1	142545	26.81	0
1	143091	26.91	0
1	143645	27.01	0
1	144191	27.11	0
1	144737	27.21	0
1	145283	27.31	0
1	145829	27.41	0
1	146375	27.51	0
1	146921	27.61	0
1	147467	27.71	0
1	148013	27.81	0
1	148559	27.91	0
1	149113	28.01	0
1	149659	28.11	0
1	150205	28.21	0
1	150751	28.31	0
1	151297	28.41	0
1	151843	28.51	0
1	152389	28.61	0
1	152935	28.71	0
1	153481	28.81	0
1	154027	28.91	0
1	154581	29.01	0
1	155127	29.11	0
1	155673	29.21	0
1	156219	29.31	0
1	156765	29.41	0
1	157311	29.51	0
1	157857	29.61	0
1	158403	29.71	0
1	158949	29.81	0
1	159495	29.91	0
1	160049	30.01	0
1	160595	30.11	0
1	161141	30.21	0
1	161687	30.31	0
1	162233	30.41	0
1	162779	30.51	0
1	163325	30.61	0
1	163871	30.71	0
1	164417	30.81	0
1	164963	30.91	0
1	165517	31.01	0
1	166063	31.11	0
1	166609	31.21	0
1	167155	31.31	0
1	167701	31.41	0
1	168247	31.51	0
1	168793	31.61	0
1	169339	31.71	0
1	169885	31.81	0
1	170431	31.91	0
1	170985	32.01	0
1	171531	32.11	0
1	172077	32.21	0
1	172623	32.31	0
1	173169	32.41	0
1	173715	32.51	0
1	174261	32.61	0
1	174807	32.71	0
1	175353	32.81	0
1	175899	32.91	0
1	176453	33.01	0
1	176999	33.11	0
1	177545	33.21	0
1	178091	33.31	0
1	178637	33.41	0
1	179183	33.51	0
1	179729	33.61	0
1	180275	33.71	0
1	180821	33.81	0
1	181367	33.91	0
1	181921	34.01	0
1	182467	34.11	0
1	183013	34.21	0
1	183559	34.31	0
1	184105	34.41	0
1	184651	34.51	0
1	185197	34.61	0
1	185743	34.71	0
1	186289	34.81	0
1	186835	34.91	0
1	187389	35.01	0
1	187935	35.11	0
1	188481	35.21	0
1	189027	35.31	0
1	189573	35.41	0
1	190119	35.51	0
1	190665	35.61	0
1	191211	35.71	0
1	191757	35.81	0
1	192303	35.91	0
1	192857	36.01	0
1	193403	36.11	0
1	193949	36.21	0
1	194495	36.31	0
1	195041	36.41	0
1	195587	36.51	0
1	196133	36.61	0
1	196679	36.71	0
1	197225	36.81	0
1	197771	36.91	0
1	198325	37.01	0
1	198871	37.11	0
1	199417	37.21	0
1	199963	37.31	0
1	200509	37.41	0
1	201055	37.51	0
1	201601	37.61	0
1	202147	37.71	0
1	202693	37.81	0
1	203239	37.91	0
1	203793	38.01	0
1	204339	38.11	0
1	204885	38.21	0
1	205431	38.31	0
1	205977	38.41	0
1	206523	38.51	0
1	207069	38.61	0
1	207615	38.71	0
1	208161	38.81	0
1	208707	38.91	0
1	209261	39.01	0
1	209807	39.11	0
1	210353	39.21	0
1	210899	39.31	0
1	211445	39.41	0
1	211991	39.51	0
1	212537	39.61	0
1	213083	39.71	0
1	213629	39.81	0
1	214175	39.91	0
1	214729	40.01	0
1	215275	40.11	0
1	215821	40.21	0
1	216367	40.31	0
1	216913	40.41	0
1	217459	40.51	0
1	218005	40.61	0
1	218551	40.71	0
1	219097	40.81	0
1	219643	40.91	0
1	220197	41.01	0
1	220743	41.11	0
1	221289	41.21	0
1	221835	41.31	0
1	222381	41.41	0
1	222927	41.51	0
1	223473	41.61	0
1	224019	41.71	0
1	224565	41.81	0
1	225111	41.91	0
1	225665	42.01	0
1	226211	42.11	0
1	226757	42.21	0
1	227303	42.31	0
1	227849	42.41	0
1	228395	42.51	0
1	228941	42.61	0
1	229487	42.71	0
1	230033	42.81	0
1	230579	42.91	0
1	231133	43.01	0
1	231679	43.11	0
1	232225	43.21	0
1	232771	43.31	0
1	233317	43.41	0
1	233863	43.51	0
1	234409	43.61	0
1	234955	43.71	0
1	235501	43.81	0
1	236047	43.91	0
1	236601	44.01	0
1	237147	44.11	0
1	237693	44.21	0
1	238239	44.31	0
1	238785	44.41	0
1	239331	44.51	0
1	239877	44.61	0
1	240423	44.71	0
1	240969	44.81	0
1	241515	44.91	0
1	242069	45.01	0
1	242615	45.11	0
1	243161	45.21	0
1	243707	45.31	0
1	244253	45.41	0
1	244799	45.51	0
1	245345	45.61	0
1	245891	45.71	0
1	246437	45.81	0
1	246983	45.91	0
1	247537	46.01	0
1	248083	46.11	0
1	248629	46.21	0
1	249175	46.31	0
1	249721	46.41	0
1	250267	46.51	0
1	250813	46.61	0
1	251359	46.71	0
1	251905	46.81	0
1	252451	46.91	0
1	253005	47.01	0
1	253551	47.11	0
1	254097	47.21	0
1	254643	47.31	0
1	255189	47.41	0
1	255735	47.51	0
1	256281	47.61	0
1	256827	47.71	0
1	257373	47.81	0
1	257919	47.91	0
1	258473	48.01	0
1	259019	48.11	0
1	259565	48.21	0
1	260111	48.31	0
1	260657	48.41	0
1	261203	48.51	0
1	261749	48.61	0
1	262295	48.71	0
1	262841	48.81	0
1	263387	48.91	0
1	263941	49.01	0
1	264487	49.11	0
1	265033	49.21	0
1	265579	49.31	0
1	266125	49.41	0
1	266671	49.51	0
1	267217	49.61	0
1	267763	49.71	0
1	268309	49.81	0
1	268855	49.91	0
1	269409	50.01	0
1	269955	50.11	0
1	270501	50.21	0
1	271047	50.31	0
1	271593	50.41	0
1	272139	50.51	0
1	272685	50.61	0
1	273231	50.71	0
1	273777	50.81	0
1	274323	50.91	0
1	274877	51.01	0
1	275423	51.11	0
1	275969	51.21	0
1	276515	51.31	0
1	277061	51.41	0
1	277607	51.51	0
1	278153	51.61	0
1	278699	51.71	0
1	279245	51.81	0
1	279791	51.91	0
1	280345	52.01	0
1	280891	52.11	0
1	281437	52.21	0
1	281983	52.31	0
1	282529	52.41	0
1	283075	52.51	0
1	283621	52.61	0
1	284167	52.71	0
1	284713	52.81	0
1	285259	52.91	0
1	285813	53.01	0
1	286359	53.11	0
1	286905	53.21	0
1	287451	53.31	0
1	287997	53.41	0
1	288543	53.51	0
1	289089	53.61	0
1	289635	53.71	0
1	290181	53.81	0
1	290727	53.91	0
1	291281	54.01	0
1	291827	54.11	0
1	292373	54.21	0
1	292919	54.31	0
1	293465	54.41	0
1	294011	54.51	0
1	294557	54.61	0
1	295103	54.71	0
1	295649	54.81	0
1	296195	54.91	0
1	296749	55.01	0
1	297295	55.11	0
1	297841	55.21	0
1	298387	55.31	0
1	298933	55.41	0
1	299479	55.51	0
1	300025	55.61	0
1	300571	55.71	0
1	301117	55.81	0
1	301663	55.91	0
1	302217	56.01	0
1	302763	56.11	0
1	303309	56.21	0
1	303855	56.31	0
1	304401	56.41	0
1	304947	56.51	0
1	305493	56.61	0
1	306039	56.71	0
1	306585	56.81	0
1	307131	56.91	0
1	307685	57.01	0
1	308231	57.11	0
1	308777	57.21	0
1	309323	57.31	0
1	309869	57.41	0
1	310415	57.51	0
1	310961	57.61	0
1	311507	57.71	0
1	312053	57.81	0
1	312599	57.91	0
1	313153	58.01	0
1	313699	58.11	0
1	314245	58.21	0
1	314791	58.31	0
1	315337	58.41	0
1	315883	58.51	0
1	316429	58.61	0
1	316975	58.71	0
1	317521	58.81	0
1	318067	58.91	0
1	318621	59.01	0
1	319167	59.11	0
1	319713	59.21	0
1	320259	59.31	0
1	320805	59.41	0
1	321351	59.51	0
1	321897	59.61	0
1	322443	59.71	0
1	322989	59.81	0
1	323535	59.91	0
1	324089	60.01	0
1	324635	60.11	0
1	325181	60.21	0
1	325727	60.31	0
1	326273	60.41	0
1	326819	60.51	0
1	327365	60.61	0
1	327911	60.71	0
1	328457	60.81	0
1	329003	60.91	0
1	329557	61.01	0
1	330103	61.11	0
1	330649	61.21	0
1	331195	61.31	0
1	331741	61.41	0
1	332287	61.51	0
1	332833	61.61	0
1	333379	61.71	0
1	333925	61.81	0
1	334471	61.91	0
1	335025	62.01	0
1	335571	62.11	0
1	336117	62.21	0
1	336663	62.31	0
1	337209	62.41	0
1	337755	62.51	0
1	338301	62.61	0
1	338847	62.71	0
1	339393	62.81	0
1	339939	62.91	0
1	340493	63.01	0
1	341039	63.11	0
1	341585	63.21	0
1	342131	63.31	0
1	342677	63.41	0
1	343223	63.51	0
1	343769	63.61	0
1	344315	63.71	0
1	344861	63.81	0
1	345407	63.91	0
1	345961	64.01	0
1	346507	64.11	0
1	347053	64.21	0
1	347599	64.31	0
1	348145	64.41	0
1	348691	64.51	0
1	349237	64.61	0
1	349783	64.71	0
1	350329	64.81	0
1	350875	64.91	0
1	351429	65.01	0
1	351975	65.11	0
1	352521	65.21	0
1	353067	65.31	0
1	353613	65.41	0
1	354159	65.51	0
1	354705	65.61	0
1	355251	65.71	0
1	355797	65.81	0
1	356343	65.91	0
1	356897	66.01	0
1	357443	66.11	0
1	357989	66.21	0
1	358535	66.31	0
1	359081	66.41	0
1	359627	66.51	0
1	360173	66.61	0
1	360719	66.71	0
1	361265	66.81	0
1	361811	66.91	0
1	362365	67.01	0
1	362911	67.11	0
1	363457	67.21	0
1	364003	67.31	0
1	364549	67.41	0
1	365095	67.51	0
1	365641	67.61	0
1	366187	67.71	0
1	366733	67.81	0
1	367279	67.91	0
1	367833	68.01	0
1	368379	68.11	0
1	368925	68.21	0
1	369471	68.31	0
1	370017	68.41	0
1	370563	68.51	0
1	371109	68.61	0
1	371655	68.71	0
1	372201	68.81	0
1	372747	68.91	0
1	373301	69.01	0
1	373847	69.11	0
1	374393	69.21	0
1	374939	69.31	0
1	375485	69.41	0
1	376031	69.51	0
1	376577	69.61	0
1	377123	69.71	0
1	377669	69.81	0
1	378215	69.91	0
1	378769	70.01	0
1	379315	70.11	0
1	379861	70.21	0
1	380407	70.31	0
1	380953	70.41	0
1	381499	70.51	0
1	382045	70.61	0
1	382591	70.71	0
1	383137	70.81	0
1	383683	70.91	0
1	384237	71.01	0
1	384783	71.11	0
1	385329	71.21	0
1	385875	71.31	0
1	386421	71.41	0
1	386967	71.51	0
1	387513	71.61	0
1	388059	71.71	0
1	388605	71.81	0
1	389151	71.91	0
1	389705	72.01	0
1	390251	72.11	0
1	390797	72.21	0
1	391343	72.31	0
1	391889	72.41	0
1	392435	72.51	0
1	392981	72.61	0
1	393527	72.71	0
1	394073	72.81	0
1	394619	72.91	0
1	395173	73.01	0
1	395719	73.11	0
1	396265	73.21	0
1	396811	73.31	0
1	397357	73.41	0
1	397903	73.51	0
1	398449	73.61	0
1	398995	73.71	0
1	399541	73.81	0
1	400087	73.91	0
1	400641	74.01	0
1	401187	74.11	0
1	401733	74.21	0
1	402279	74.31	0
1	402825	74.41	0
1	403371	74.51	0
1	403917	74.61	0
1	404463	74.71	0
1	405009	74.81	0
1	405555	74.91	0
1	406109	75.01	0
1	406655	75.11	0
1	407201	75.21	0
1	407747	75.31	0
1	408293	75.41	0
1	408839	75.51	0
1	409385	75.61	0
1	409931	75.71	0
1	410477	75.81	0
1	411023	75.91	0
1	411577	76.01	0
1	412123	76.11	0
1	412669	76.21	0
1	413215	76.31	0
1	413761	76.41	0
1	414307	76.51	0
1	414853	76.61	0
1	415399	76.71	0
1	415945	76.81	0
1	416491	76.91	0
1	417045	77.01	0
1	417591	77.11	0
1	418137	77.21	0
1	418683	77.31	0
1	419229	77.41	0
1	419775	77.51	0
1	420321	77.61	0
1	420867	77.71	0
1	421413	77.81	0
1	421959	77.91	0
1	422513	78.01	0
1	423059	78.11	0
1	423605	78.21	0
1	424151	78.31	0
1	424697	78.41	0
1	425243	78.51	0
1	425789	78.61	0
1	426335	78.71	0
1	426881	78.81	0
1	427427	78.91	0
1	427981	79.01	0
1	428527	79.11	0
1	429073	79.21	0
1	429619	79.31	0
1	430165	79.41	0
1	430711	79.51	0
1	431257	79.61	0
1	431803	79.71	0
1	432349	79.81	0
1	432895	79.91	0
1	433449	80.01	0
1	433995	80.11	0
1	434541	80.21	0
1	435087	80.31	0
1	435633	80.41	0
1	436179	80.51	0
1	436725	80.61	0
1	437271	80.71	0
1	437817	80.81	0
1	438363	80.91	0
1	438917	81.01	0
1	439463	81.11	0
1	440009	81.21	0
1	440555	81.31	0
1	441101	81.41	0
1	441647	81.51	0
1	442193	81.61	0
1	442739	81.71	0
1	443285	81.81	0
1	443831	81.91	0
1	444385	82.01	0
1	444931	82.11	0
1	445477	82.21	0
1	446023	82.31	0
1	446569	82.41	0
1	447115	82.51	0
1	447661	82.61	0
1	448207	82.71	0
1	448753	82.81	0
1	449299	82.91	0
1	449853	83.01	0
1	450399	83.11	0
1	450945	83.21	0
1	451491	83.31	0
1	452037	83.41	0
1	452583	83.51	0
1	453129	83.61	0
1	453675	83.71	0
1	454221	83.81	0
1	454767	83.91	0
1	455321	84.01	0
1	455867	84.11	0
1	456413	84.21	0
1	456959	84.31	0
1	457505	84.41	0
1	458051	84.51	0
1	458597	84.61	0
1	459143	84.71	0
1	459689	84.81	0
1	460235	84.91	0
1	460789	85.01	0
1	461335	85.11	0
1	461881	85.21	0
1	462427	85.31	0
1	462973	85.41	0
1	463519	85.51	0
1	464065	85.61	0
1	464611	85.71	0
1	465157	85.81	0
1	465703	85.91	0
1	466257	86.01	0
1	466803	86.11	0
1	467349	86.21	0
1	467895	86.31	0
1	468441	86.41	0
1	468987	86.51	0
1	469533	86.61	0
1	470079	86.71	0
1	470625	86.81	0
1	471171	86.91	0
1	471725	87.01	0
1	472271	87.11	0
1	472817	87.21	0
1	473363	87.31	0
1	473909	87.41	0
1	474455	87.51	0
1	475001	87.61	0
1	475547	87.71	0
1	476093	87.81	0
1	476639	87.91	0
1	477193	88.01	0
1	477739	88.11	0
1	478285	88.21	0
1	478831	88.31	0
1	479377	88.41	0
1	479923	88.51	0
1	480469	88.61	0
1	481015	88.71	0
1	481561	88.81	0
1	482107	88.91	0
1	482661	89.01	0
1	483207	89.11	0
1	483753	89.21	0
1	484299	89.31	0
1	484845	89.41	0
1	485391	89.51	0
1	485937	89.61	0
1	486483	89.71	0
1	487029	89.81	0
1	487575	89.91	0
1	488129	90.01	0
1	488675	90.11	0
1	489221	90.21	0
1	489767	90.31	0
1	490313	90.41	0
1	490859	90.51	0
1	491405	90.61	0
1	491951	90.71	0
1	492497	90.81	0
1	493043	90.91	0
1	493597	91.01	0
1	494143	91.11	0
1	494689	91.21	0
1	495235	91.31	0
1	495781	91.41	0
1	496327	91.51	0
1	496873	91.61	0
1	497419	91.71	0
1	497965	91.81	0
1	498511	91.91	0
1	499065	92.01	0
1	499611	92.11	0
1	500157	92.21	0
1	500703	92.31	0
1	501249	92.41	0
1	501795	92.51	0
1	502341	92.61	0
1	502887	92.71	0
1	503433	92.81	0
1	503979	92.91	0
1	504533	93.01	0
1	505079	93.11	0
1	505625	93.21	0
1	506171	93.31	0
1	506717	93.41	0
1	507263	93.51	0
1	507809	93.61	0
1	508355	93.71	0
1	508901	93.81	0
1	509447	93.91	0
1	510001	94.01	0
1	510547	94.11	0
1	511093	94.21	0
1	511639	94.31	0
1	512185	94.41	0
1	512731	94.51	0
1	513277	94.61	0
1	513823	94.71	0
1	514369	94.81	0
1	514915	94.91	0
1	515469	95.01	0
1	516015	95.11	0
1	516561	95.21	0
1	517107	95.31	0
1	517653	95.41	0
1	518199	95.51	0
1	518745	95.61	0
1	519291	95.71	0
1	519837	95.81	0
1	520383	95.91	0
1	520937	96.01	0
1	521483	96.11	0
1	522029	96.21	0
1	522575	96.31	0
1	523121	96.41	0
1	523667	96.51	0
1	524213	96.61	0
1	524759	96.71	0
1	525305	96.81	0
1	525851	96.91	0
1	526405	97.01	0
1	526951	97.11	0
1	527497	97.21	0
1	528043	97.31	0
1	528589	97.41	0
1	529135	97.51	0
1	529681	97.61	0
1	530227	97.71	0
1	530773	97.81	0
1	531319	97.91	0
1	531873	98.01	0
1	532419	98.11	0
1	532965	98.21	0
1	533511	98.31	0
1	534057	98.41	0
1	534603	98.51	0
1	535149	98.61	0
1	535695	98.71	0
1	536241	98.81	0
1	536787	98.91	0
1	537341	99.01	0
1	537887	99.11	0
1	538433	99.21	0
1	538979	99.31	0
1	539525	99.41	0
1	540071	99.51	0
1	540617	99.61	0
1	541163	99.71	0
1	541709	99.81	0
1	542255	99.91	0
2	113	1.11	0
2	659	1.21	0
2	1205	1.31	0
2	1751	1.41	0
2	2297	1.51	0
2	2843	1.61	0
2	3389	1.71	0
2	3935	1.81	0
2	4481	1.91	0
2	5035	2.01	0
2	5581	2.11	0
2	6127	2.21	0
2	6673	2.31	0
2	7219	2.41	0
2	7765	2.51	0
2	8311	2.61	0
2	8857	2.71	0
2	9403	2.81	0
2	9949	2.91	0
2	10503	3.01	0
2	11049	3.11	0
2	11595	3.21	0
2	12141	3.31	0
2	12687	3.41	0
2	13233	3.51	0
2	13779	3.61	0
2	14325	3.71	0
2	14871	3.81	0
2	15417	3.91	0
2	15971	4.01	0
2	16517	4.11	0
2	17063	4.21	0
2	17609	4.31	0
2	18155	4.41	0
2	18701	4.51	0
2	19247	4.61	0
2	19793	4.71	0
2	20339	4.81	0
2	20885	4.91	0
2	21439	5.01	0
2	21985	5.11	0
2	22531	5.21	0
2	23077	5.31	0
2	23623	5.41	0
2	24169	5.51	0
2	24715	5.61	0
2	25261	5.71	0
2	25807	5.81	0
2	26353	5.91	0
2	26907	6.01	0
2	27453	6.11	0
2	27999	6.21	0
2	28545	6.31	0
2	29091	6.41	0
2	29637	6.51	0
2	30183	6.61	0
2	30729	6.71	0
2	31275	6.81	0
2	31821	6.91	0
2	32375	7.01	0
2	32921	7.11	0
2	33467	7.21	0
2	34013	7.31	0
2	34559	7.41	0
2	35105	7.51	0
2	35651	7.61	0
2	36197	7.71	0
2	36743	7.81	0
2	37289	7.91	0
2	37843	8.01	0
2	38389	8.11	0
2	38935	8.21	0
2	39481	8.31	0
2	40027	8.41	0
2	40573	8.51	0
2	41119	8.61	0
2	41665	8.71	0
2	42211	8.81	0
2	42757	8.91	0
2	43311	9.01	0
2	43857	9.11	0
2	44403	9.21	0
2	44949	9.31	0
2	45495	9.41	0
2	46041	9.51	0
2	46587	9.61	0
2	47133	9.71	0
2	47679	9.81	0
2	48225	9.91	0
2	50689	10.01	0
2	51235	10.11	0
2	51781	10.21	0
2	52327	10.31	0
2	52873	10.41	0
2	53419	10.51	0
2	53965	10.61	0
2	54511	10.71	0
2	55057	10.81	0
2	55603	10.91	0
2	56157	11.01	0
2	56703	11.11	0
2	57249	11.21	0
2	57795	11.31	0
2	58341	11.41	0
2	58887	11.51	0
2	59433	11.61	0
2	59979	11.71	0
2	60525	11.81	0
2	61071	11.91	0
2	61625	12.01	0
2	62171	12.11	0
2	62717	12.21	0
2	63263	12.31	0
2	63809	12.41	0
2	64355	12.51	0
2	64901	12.61	0
2	65447	12.71	0
2	65993	12.81	0
2	66539	12.91	0
2	67093	13.01	0
2	67639	13.11	0
2	68185	13.21	0
2	68731	13.31	0
2	69277	13.41	0
2	69823	13.51	0
2	70369	13.61	0
2	70915	13.71	0
2	71461	13.81	0
2	72007	13.91	0
2	72561	14.01	0
2	73107	14.11	0
2	73653	14.21	0
2	74199	14.31	0
2	74745	14.41	0
2	75291	14.51	0
2	75837	14.61	0
2	76383	14.71	0
2	76929	14.81	0
2	77475	14.91	0
2	78029	15.01	0
2	78575	15.11	0
2	79121	15.21	0
2	79667	15.31	0
2	80213	15.41	0
2	80759	15.51	0
2	81305	15.61	0
2	81851	15.71	0
2	82397	15.81	0
2	82943	15.91	0
2	83497	16.01	0
2	84043	16.11	0
2	84589	16.21	0
2	85135	16.31	0
2	85681	16.41	0
2	86227	16.51	0
2	86773	16.61	0
2	87319	16.71	0
2	87865	16.81	0
2	88411	16.91	0
2	88965	17.01	0
2	89511	17.11	0
2	90057	17.21	0
2	90603	17.31	0
2	91149	17.41	0
2	91695	17.51	0
2	92241	17.61	0
2	92787	17.71	0
2	93333	17.81	0
2	93879	17.91	0
2	94433	18.01	0
2	94979	18.11	0
2	95525	18.21	0
2	96071	18.31	0
2	96617	18.41	0
2	97163	18.51	0
2	97709	18.61	0
2	98255	18.71	0
2	98801	18.81	0
2	99347	18.91	0
2	99901	19.01	0
2	100447	19.11	0
2	100993	19.21	0
2	101539	19.31	0
2	102085	19.41	0
2	102631	19.51	0
2	103177	19.61	0
2	103723	19.71	0
2	104269	19.81	0
2	104815	19.91	0
2	105369	20.01	0
2	105915	20.11	0
2	106461	20.21	0
2	107007	20.31	0
2	107553	20.41	0
2	108099	20.51	0
2	108645	20.61	0
2	109191	20.71	0
2	109737	20.81	0
2	110283	20.91	0
2	110837	21.01	0
2	111383	21.11	0
2	111929	21.21	0
2	112475	21.31	0
2	113021	21.41	0
2	113567	21.51	0
2	114113	21.61	0
2	114659	21.71	0
2	115205	21.81	0
2	115751	21.91	0
2	116305	22.01	0
2	116851	22.11	0
2	117397	22.21	0
2	117943	22.31	0
2	118489	22.41	0
2	119035	22.51	0
2	119581	22.61	0
2	120127	22.71	0
2	120673	22.81	0
2	121219	22.91	0
2	121773	23.01	0
2	122319	23.11	0
2	122865	23.21	0
2	123411	23.31	0
2	123957	23.41	0
2	124503	23.51	0
2	125049	23.61	0
2	125595	23.71	0
2	126141	23.81	0
2	126687	23.91	0
2	127241	24.01	0
2	127787	24.11	0
2	128333	24.21	0
2	128879	24.31	0
2	129425	24.41	0
2	129971	24.51	0
2	130517	24.61	0
2	131063	24.71	0
2	131609	24.81	0
2	132155	24.91	0
2	132709	25.01	0
2	133255	25.11	0
2	133801	25.21	0
2	134347	25.31	0
2	134893	25.41	0
2	135439	25.51	0
2	135985	25.61	0
2	136531	25.71	0
2	137077	25.81	0
2	137623	25.91	0
2	138177	26.01	0
2	138723	26.11	0
2	139269	26.21	0
2	139815	26.31	0
2	140361	26.41	0
2	140907	26.51	0
2	141453	26.61	0
2	141999	26.71	0
2	142545	26.81	0
2	143091	26.91	0
2	143645	27.01	0
2	144191	27.11	0
2	144737	27.21	0
2	145283	27.31	0
2	145829	27.41	0
2	146375	27.51	0
2	146921	27.61	0
2	147467	27.71	0
2	148013	27.81	0
2	148559	27.91	0
2	149113	28.01	0
2	149659	28.11	0
2	150205	28.21	0
2	150751	28.31	0
2	151297	28.41	0
2	151843	28.51	0
2	152389	28.61	0
2	152935	28.71	0
2	153481	28.81	0
2	154027	28.91	0
2	154581	29.01	0
2	155127	29.11	0
2	155673	29.21	0
2	156219	29.31	0
2	156765	29.41	0
2	157311	29.51	0
2	157857	29.61	0
2	158403	29.71	0
2	158949	29.81	0
2	159495	29.91	0
2	160049	30.01	0
2	160595	30.11	0
2	161141	30.21	0
2	161687	30.31	0
2	162233	30.41	0
2	162779	30.51	0
2	163325	30.61	0
2	163871	30.71	0
2	164417	30.81	0
2	164963	30.91	0
2	165517	31.01	0
2	166063	31.11	0
2	166609	31.21	0
2	167155	31.31	0
2	167701	31.41	0
2	168247	31.51	0
2	168793	31.61	0
2	169339	31.71	0
2	169885	31.81	0
2	170431	31.91	0
2	170985	32.01	0
2	171531	32.11	0
2	172077	32.21	0
2	172623	32.31	0
2	173169	32.41	0
2	173715	32.51	0
2	174261	32.61	0
2	174807	32.71	0
2	175353	32.81	0
2	175899	32.91	0
2	176453	33.01	0
2	176999	33.11	0
2	177545	33.21	0
2	178091	33.31	0
2	178637	33.41	0
2	179183	33.51	0
2	179729	33.61	0
2	180275	33.71	0
2	180821	33.81	0
2	181367	33.91	0
2	181921	34.01	0
2	182467	34.11	0
2	183013	34.21	0
2	183559	34.31	0
2	184105	34.41	0
2	184651	34.51	0
2	185197	34.61	0
2	185743	34.71	0
2	186289	34.81	0
2	186835	34.91	0
2	187389	35.01	0
2	187935	35.11	0
2	188481	35.21	0
2	189027	35.31	0
2	189573	35.41	0
2	190119	35.51	0
2	190665	35.61	0
2	191211	35.71	0
2	191757	35.81	0
2	192303	35.91	0
2	192857	36.01	0
2	193403	36.11	0
2	193949	36.21	0
2	194495	36.31	0
2	195041	36.41	0
2	195587	36.51	0
2	196133	36.61	0
2	196679	36.71	0
2	197225	36.81	0
2	197771	36.91	0
2	198325	37.01	0
2	198871	37.11	0
2	199417	37.21	0
2	199963	37.31	0
2	200509	37.41	0
2	201055	37.51	0
2	201601	37.61	0
2	202147	37.71	0
2	202693	37.81	0
2	203239	37.91	0
2	203793	38.01	0
2	204339	38.11	0
2	204885	38.21	0
2	205431	38.31	0
2	205977	38.41	0
2	206523	38.51	0
2	207069	38.61	0
2	207615	38.71	0
2	208161	38.81	0
2	208707	38.91	0
2	209261	39.01	0
2	209807	39.11	0
2	210353	39.21	0
2	210899	39.31	0
2	211445	39.41	0
2	211991	39.51	0
2	212537	39.61	0
2	213083	39.71	0
2	213629	39.81	0
2	214175	39.91	0
2	214729	40.01	0
2	215275	40.11	0
2	215821	40.21	0
2	216367	40.31	0
2	216913	40.41	0
2	217459	40.51	0
2	218005	40.61	0
2	218551	40.71	0
2	219097	40.81	0
2	219643	40.91	0
2	220197	41.01	0
2	220743	41.11	0
2	221289	41.21	0
2	221835	41.31	0
2	222381	41.41	0
2	222927	41.51	0
2	223473	41.61	0
2	224019	41.71	0
2	224565	41.81	0
2	225111	41.91	0
2	225665	42.01	0
2	226211	42.11	0
2	226757	42.21	0
2	227303	42.31	0
2	227849	42.41	0
2	228395	42.51	0
2	228941	42.61	0
2	229487	42.71	0
2	230033	42.81	0
2	230579	42.91	0
2	231133	43.01	0
2	231679	43.11	0
2	232225	43.21	0
2	232771	43.31	0
2	233317	43.41	0
2	233863	43.51	0
2	234409	43.61	0
2	234955	43.71	0
2	235501	43.81	0
2	236047	43.91	0
2	236601	44.01	0
2	237147	44.11	0
2	237693	44.21	0
2	238239	44.31	0
2	238785	44.41	0
2	239331	44.51	0
2	239877	44.61	0
2	240423	44.71	0
2	240969	44.81	0
2	241515	44.91	0
2	242069	45.01	0
2	242615	45.11	0
2	243161	45.21	0
2	243707	45.31	0
2	244253	45.41	0
2	244799	45.51	0
2	245345	45.61	0
2	245891	45.71	0
2	246437	45.81	0
2	246983	45.91	0
2	247537	46.01	0
2	248083	46.11	0
2	248629	46.21	0
2	249175	46.31	0
2	249721	46.41	0
2	250267	46.51	0
2	250813	46.61	0
2	251359	46.71	0
2	251905	46.81	0
2	252451	46.91	0
2	253005	47.01	0
2	253551	47.11	0
2	254097	47.21	0
2	254643	47.31	0
2	255189	47.41	0
2	255735	47.51	0
2	256281	47.61	0
2	256827	47.71	0
2	257373	47.81	0
2	257919	47.91	0
2	258473	48.01	0
2	259019	48.11	0
2	259565	48.21	0
2	260111	48.31	0
2	260657	48.41	0
2	261203	48.51	0
2	261749	48.61	0
2	262295	48.71	0
2	262841	48.81	0
2	263387	48.91	0
2	263941	49.01	0
2	264487	49.11	0
2	265033	49.21	0
2	265579	49.31	0
2	266125	49.41	0
2	266671	49.51	0
2	267217	49.61	0
2	267763	49.71	0
2	268309	49.81	0
2	268855	49.91	0
2	269409	50.01	0
2	269955	50.11	0
2	270501	50.21	0
2	271047	50.31	0
2	271593	50.41	0
2	272139	50.51	0
2	272685	50.61	0
2	273231	50.71	0
2	273777	50.81	0
2	274323	50.91	0
2	274877	51.01	0
2	275423	51.11	0
2	275969	51.21	0
2	276515	51.31	0
2	277061	51.41	0
2	277607	51.51	0
2	278153	51.61	0
2	278699	51.71	0
2	279245	51.81	0
2	279791	51.91	0
2	280345	52.01	0
2	280891	52.11	0
2	281437	52.21	0
2	281983	52.31	0
2	282529	52.41	0
2	283075	52.51	0
2	283621	52.61	0
2	284167	52.71	0
2	284713	52.81	0
2	285259	52.91	0
2	285813	53.01	0
2	286359	53.11	0
2	286905	53.21	0
2	287451	53.31	0
2	287997	53.41	0
2	288543	53.51	0
2	289089	53.61	0
2	289635	53.71	0
2	290181	53.81	0
2	290727	53.91	0
2	291281	54.01	0
2	291827	54.11	0
2	292373	54.21	0
2	292919	54.31	0
2	293465	54.41	0
2	294011	54.51	0
2	294557	54.61	0
2	295103	54.71	0
2	295649	54.81	0
2	296195	54.91	0
2	296749	55.01	0
2	297295	55.11	0
2	297841	55.21	0
2	298387	55.31	0
2	298933	55.41	0
2	299479	55.51	0
2	300025	55.61	0
2	300571	55.71	0
2	301117	55.81	0
2	301663	55.91	0
2	302217	56.01	0
2	302763	56.11	0
2	303309	56.21	0
2	303855	56.31	0
2	304401	56.41	0
2	304947	56.51	0
2	305493	56.61	0
2	306039	56.71	0
2	306585	56.81	0
2	307131	56.91	0
2	307685	57.01	0
2	308231	57.11	0
2	308777	57.21	0
2	309323	57.31	0
2	309869	57.41	0
2	310415	57.51	0
2	310961	57.61	0
2	311507	57.71	0
2	312053	57.81	0
2	312599	57.91	0
2	313153	58.01	0
2	313699	58.11	0
2	314245	58.21	0
2	314791	58.31	0
2	315337	58.41	0
2	315883	58.51	0
2	316429	58.61	0
2	316975	58.71	0
2	317521	58.81	0
2	318067	58.91	0
2	318621	59.01	0
2	319167	59.11	0
2	319713	59.21	0
2	320259	59.31	0
2	320805	59.41	0
2	321351	59.51	0
2	321897	59.61	0
2	322443	59.71	0
2	322989	59.81	0
2	323535	59.91	0
2	324089	60.01	0
2	324635	60.11	0
2	325181	60.21	0
2	325727	60.31	0
2	326273	60.41	0
2	326819	60.51	0
2	327365	60.61	0
2	327911	60.71	0
2	328457	60.81	0
2	329003	60.91	0
2	329557	61.01	0
2	330103	61.11	0
2	330649	61.21	0
2	331195	61.31	0
2	331741	61.41	0
2	332287	61.51	0
2	332833	61.61	0
2	333379	61.71	0
2	333925	61.81	0
2	334471	61.91	0
2	335025	62.01	0
2	335571	62.11	0
2	336117	62.21	0
2	336663	62.31	0
2	337209	62.41	0
2	337755	62.51	0
2	338301	62.61	0
2	338847	62.71	0
2	339393	62.81	0
2	339939	62.91	0
2	340493	63.01	0
2	341039	63.11	0
2	341585	63.21	0
2	342131	63.31	0
2	342677	63.41	0
2	343223	63.51	0
2	343769	63.61	0
2	344315	63.71	0
2	344861	63.81	0
2	345407	63.91	0
2	345961	64.01	0
2	346507	64.11	0
2	347053	64.21	0
2	347599	64.31	0
2	348145	64.41	0
2	348691	64.51	0
2	349237	64.61	0
2	349783	64.71	0
2	350329	64.81	0
2	350875	64.91	0
2	351429	65.01	0
2	351975	65.11	0
2	352521	65.21	0
2	353067	65.31	0
2	353613	65.41	0
2	354159	65.51	0
2	354705	65.61	0
2	355251	65.71	0
2	355797	65.81	0
2	356343	65.91	0
2	356897	66.01	0
2	357443	66.11	0
2	357989	66.21	0
2	358535	66.31	0
2	359081	66.41	0
2	359627	66.51	0
2	360173	66.61	0
2	360719	66.71	0
2	361265	66.81	0
2	361811	66.91	0
2	362365	67.01	0
2	362911	67.11	0
2	363457	67.21	0
2	364003	67.31	0
2	364549	67.41	0
2	365095	67.51	0
2	365641	67.61	0
2	366187	67.71	0
2	366733	67.81	0
2	367279	67.91	0
2	367833	68.01	0
2	368379	68.11	0
2	368925	68.21	0
2	369471	68.31	0
2	370017	68.41	0
2	370563	68.51	0
2	371109	68.61	0
2	371655	68.71	0
2	372201	68.81	0
2	372747	68.91	0
2	373301	69.01	0
2	373847	69.11	0
2	374393	69.21	0
2	374939	69.31	0
2	375485	69.41	0
2	376031	69.51	0
2	376577	69.61	0
2	377123	69.71	0
2	377669	69.81	0
2	378215	69.91	0
2	378769	70.01	0
2	379315	70.11	0
2	379861	70.21	0
2	380407	70.31	0
2	380953	70.41	0
2	381499	70.51	0
2	382045	70.61	0
2	382591	70.71	0
2	383137	70.81	0
2	383683	70.91	0
2	384237	71.01	0
2	384783	71.11	0
2	385329	71.21	0
2	385875	71.31	0
2	386421	71.41	0
2	386967	71.51	0
2	387513	71.61	0
2	388059	71.71	0
2	388605	71.81	0
2	389151	71.91	0
2	389705	72.01	0
2	390251	72.11	0
2	390797	72.21	0
2	391343	72.31	0
2	391889	72.41	0
2	392435	72.51	0
2	392981	72.61	0
2	393527	72.71	0
2	394073	72.81	0
2	394619	72.91	0
2	395173	73.01	0
2	395719	73.11	0
2	396265	73.21	0
2	396811	73.31	0
2	397357	73.41	0
2	397903	73.51	0
2	398449	73.61	0
2	398995	73.71	0
2	399541	73.81	0
2	400087	73.91	0
2	400641	74.01	0
2	401187	74.11	0
2	401733	74.21	0
2	402279	74.31	0
2	402825	74.41	0
2	403371	74.51	0
2	403917	74.61	0
2	404463	74.71	0
2	405009	74.81	0
2	405555	74.91	0
2	406109	75.01	0
2	406655	75.11	0
2	407201	75.21	0
2	407747	75.31	0
2	408293	75.41	0
2	408839	75.51	0
2	409385	75.61	0
2	409931	75.71	0
2	410477	75.81	0
2	411023	75.91	0
2	411577	76.01	0
2	412123	76.11	0
2	412669	76.21	0
2	413215	76.31	0
2	413761	76.41	0
2	414307	76.51	0
2	414853	76.61	0
2	415399	76.71	0
2	415945	76.81	0
2	416491	76.91	0
2	417045	77.01	0
2	417591	77.11	0
2	418137	77.21	0
2	418683	77.31	0
2	419229	77.41	0
2	419775	77.51	0
2	420321	77.61	0
2	420867	77.71	0
2	421413	77.81	0
2	421959	77.91	0
2	422513	78.01	0
2	423059	78.11	0
2	423605	78.21	0
2	424151	78.31	0
2	424697	78.41	0
2	425243	78.51	0
2	425789	78.61	0
2	426335	78.71	0
2	426881	78.81	0
2	427427	78.91	0
2	427981	79.01	0
2	428527	79.11	0
2	429073	79.21	0
2	429619	79.31	0
2	430165	79.41	0
2	430711	79.51	0
2	431257	79.61	0
2	431803	79.71	0
2	432349	79.81	0
2	432895	79.91	0
2	433449	80.01	0
2	433995	80.11	0
2	434541	80.21	0
2	435087	80.31	0
2	435633	80.41	0
2	436179	80.51	0
2	436725	80.61	0
2	437271	80.71	0
2	437817	80.81	0
2	438363	80.91	0
2	438917	81.01	0
2	439463	81.11	0
2	440009	81.21	0
2	440555	81.31	0
2	441101	81.41	0
2	441647	81.51	0
2	442193	81.61	0
2	442739	81.71	0
2	443285	81.81	0
2	443831	81.91	0
2	444385	82.01	0
2	444931	82.11	0
2	445477	82.21	0
2	446023	82.31	0
2	446569	82.41	0
2	447115	82.51	0
2	447661	82.61	0
2	448207	82.71	0
2	448753	82.81	0
2	449299	82.91	0
2	449853	83.01	0
2	450399	83.11	0
2	450945	83.21	0
2	451491	83.31	0
2	452037	83.41	0
2	452583	83.51	0
2	453129	83.61	0
2	453675	83.71	0
2	454221	83.81	0
2	454767	83.91	0
2	455321	84.01	0
2	455867	84.11	0
2	456413	84.21	0
2	456959	84.31	0
2	457505	84.41	0
2	458051	84.51	0
2	458597	84.61	0
2	459143	84.71	0
2	459689	84.81	0
2	460235	84.91	0
2	460789	85.01	0
2	461335	85.11	0
2	461881	85.21	0
2	462427	85.31	0
2	462973	85.41	0
2	463519	85.51	0
2	464065	85.61	0
2	464611	85.71	0
2	465157	85.81	0
2	465703	85.91	0
2	466257	86.01	0
2	466803	86.11	0
2	467349	86.21	0
2	467895	86.31	0
2	468441	86.41	0
2	468987	86.51	0
2	469533	86.61	0
2	470079	86.71	0
2	470625	86.81	0
2	471171	86.91	0
2	471725	87.01	0
2	472271	87.11	0
2	472817	87.21	0
2	473363	87.31	0
2	473909	87.41	0
2	474455	87.51	0
2	475001	87.61	0
2	475547	87.71	0
2	476093	87.81	0
2	476639	87.91	0
2	477193	88.01	0
2	477739	88.11	0
2	478285	88.21	0
2	478831	88.31	0
2	479377	88.41	0
2	479923	88.51	0
2	480469	88.61	0
2	481015	88.71	0
2	481561	88.81	0
2	482107	88.91	0
2	482661	89.01	0
2	483207	89.11	0
2	483753	89.21	0
2	484299	89.31	0
2	484845	89.41	0
2	485391	89.51	0
2	485937	89.61	0
2	486483	89.71	0
2	487029	89.81	0
2	487575	89.91	0
2	488129	90.01	0
2	488675	90.11	0
2	489221	90.21	0
2	489767	90.31	0
2	490313	90.41	0
2	490859	90.51	0
2	491405	90.61	0
2	491951	90.71	0
2	492497	90.81	0
2	493043	90.91	0
2	493597	91.01	0
2	494143	91.11	0
2	494689	91.21	0
2	495235	91.31	0
2	495781	91.41	0
2	496327	91.51	0
2	496873	91.61	0
2	497419	91.71	0
2	497965	91.81	0
2	498511	91.91	0
2	499065	92.01	0
2	499611	92.11	0
2	500157	92.21	0
2	500703	92.31	0
2	501249	92.41	0
2	501795	92.51	0
2	502341	92.61	0
2	502887	92.71	0
2	503433	92.81	0
2	503979	92.91	0
2	504533	93.01	0
2	505079	93.11	0
2	505625	93.21	0
2	506171	93.31	0
2	506717	93.41	0
2	507263	93.51	0
2	507809	93.61	0
2	508355	93.71	0
2	508901	93.81	0
2	509447	93.91	0
2	510001	94.01	0
2	510547	94.11	0
2	511093	94.21	0
2	511639	94.31	0
2	512185	94.41	0
2	512731	94.51	0
2	513277	94.61	0
2	513823	94.71	0
2	514369	94.81	0
2	514915	94.91	0
2	515469	95.01	0
2	516015	95.11	0
2	516561	95.21	0
2	517107	95.31	0
2	517653	95.41	0
2	518199	95.51	0
2	518745	95.61	0
2	519291	95.71	0
2	519837	95.81	0
2	520383	95.91	0
2	520937	96.01	0
2	521483	96.11	0
2	522029	96.21	0
2	522575	96.31	0
2	523121	96.41	0
2	523667	96.51	0
2	524213	96.61	0
2	524759	96.71	0
2	525305	96.81	0
2	525851	96.91	0
2	526405	97.01	0
2	526951	97.11	0
2	527497	97.21	0
2	528043	97.31	0
2	528589	97.41	0
2	529135	97.51	0
2	529681	97.61	0
2	530227	97.71	0
2	530773	97.81	0
2	531319	97.91	0
2	531873	98.01	0
2	532419	98.11	0
2	532965	98.21	0
2	533511	98.31	0
2	534057	98.41	0
2	534603	98.51	0
2	535149	98.61	0
2	535695	98.71	0
2	536241	98.81	0
2	536787	98.91	0
2	537341	99.01	0
2	537887	99.11	0
2	538433	99.21	0
2	538979	99.31	0
2	539525	99.41	0
2	540071	99.51	0
2	540617	99.61	0
2	541163	99.71	0
2	541709	99.81	0
2	542255	99.91	0
3	113	1.11	-0.000537287
3	659	1.21	-0.00102256
3	1205	1.31	-0.0014023
3	1751	1.41	-0.00168868
3	2297	1.51	-0.00189332
3	2843	1.61	-0.00202724
3	3389	1.71	-0.00210073
3	3935	1.81	-0.00212335
3	4481	1.91	-0.00210382
3	5035	2.01	-0.00205006
3	5581	2.11	-0.00196919
3	6127	2.21	-0.00186754
3	6673	2.31	-0.00175064
3	7219	2.41	-0.00162335
3	7765	2.51	-0.00148981
3	8311	2.61	-0.00135354
3	8857	2.71	-0.00121748
3	9403	2.81	-0.00108402
3	9949	2.91	-0.000955094
3	10503	3.01	-0.0008322
3	11049	3.11	-0.000716459
3	11595	3.21	-0.00060866
3	12141	3.31	-0.00050931
3	12687	3.41	-0.000418674
3	13233	3.51	-0.000336812
3	13779	3.61	-0.000263615
3	14325	3.71	-0.00019884
3	14871	3.81	-0.000142136
3	15417	3.91	-9.30689e-05
3	15971	4.01	-5.11479e-05
3	16517	4.11	-1.58407e-05
3	17063	4.21	1.34077e-05
3	17609	4.31	3.7161e-05
3	18155	4.41	5.59805e-05
3	18701	4.51	7.0415e-05
3	19247	4.61	8.09934e-05
3	19793	4.71	8.82186e-05
3	20339	4.81	9.25636e-05
3	20885	4.91	9.44677e-05
3	21439	5.01	9.43354e-05
3	21985	5.11	9.25349e-05
3	22531	5.21	8.93982e-05
3	23077	5.31	8.52216e-05
3	23623	5.41	8.02667e-05
3	24169	5.51	7.47624e-05
3	24715	5.61	6.8906e-05
3	25261	5.71	6.28658e-05
3	25807	5.81	5.67832e-05
3	26353	5.91	5.07749e-05
3	26907	6.01	4.49353e-05
3	27453	6.11	3.93388e-05
3	27999	6.21	3.40422e-05
3	28545	6.31	2.90866e-05
3	29091	6.41	2.44995e-05
3	29637	6.51	2.02971e-05
3	30183	6.61	1.64857e-05
3	30729	6.71	1.30632e-05
3	31275	6.81	1.00213e-05
3	31821	6.91	7.34621e-06
3	32375	7.01	5.0199e-06
3	32921	7.11	3.02148e-06
3	33467	7.21	1.32788e-06
3	34013	7.31	-8.52687e-08
3	34559	7.41	-1.24302e-06
3	35105	7.51	-2.17048e-06
3	35651	7.61	-2.89239e-06
3	36197	7.71	-3.43273e-06
3	36743	7.81	-3.81443e-06
3	37289	7.91	-4.05915e-06
3	37843	8.01	-4.18709e-06
3	38389	8.11	-4.21695e-06
3	38935	8.21	-4.16581e-06
3	39481	8.31	-4.04914e-06
3	40027	8.41	-3.88081e-06
3	40573	8.51	-3.67311e-06
3	41119	8.61	-3.43684e-06
3	41665	8.71	-3.18138e-06
3	42211	8.81	-2.91475e-06
3	42757	8.91	-2.64374e-06
3	43311	9.01	-2.37401e-06
3	43857	9.11	-2.11015e-06
3	44403	9.21	-1.85584e-06
3	44949	9.31	-1.61394e-06
3	45495	9.41	-1.38655e-06
3	46041	9.51	-1.17514e-06
3	46587	9.61	-9.8063e-07
3	47133	9.71	-8.03478e-07
3	47679	9.81	-6.4374e-07
3	48225	9.91	-5.01153e-07
3	50689	10.01	-3.75194e-07
3	51235	10.11	-2.65135e-07
3	51781	10.21	-1.70092e-07
3	52327	10.31	-8.90743e-08
3	52873	10.41	-2.10129e-08
3	53419	10.51	3.51982e-08
3	53965	10.61	8.06793e-08
3	54511	10.71	1.16543e-07
3	55057	10.81	1.43872e-07
3	55603	10.91	1.63713e-07
3	56157	11.01	1.77052e-07
3	56703	11.11	1.84819e-07
3	57249	11.21	1.87876e-07
3	57795	11.31	1.87014e-07
3	58341	11.41	1.82953e-07
3	58887	11.51	1.7634e-07
3	59433	11.61	1.67752e-07
3	59979	11.71	1.57699e-07
3	60525	11.81	1.46622e-07
3	61071	11.91	1.34906e-07
3	61625	12.01	1.22874e-07
3	62171	12.11	1.10801e-07
3	62717	12.21	9.89097e-08
3	63263	12.31	8.73804e-08
3	63809	12.41	7.63556e-08
3	64355	12.51	6.59412e-08
3	64901	12.61	5.62153e-08
3	65447	12.71	4.72291e-08
3	65993	12.81	3.90095e-08
3	66539	12.91	3.15666e-08
3	67093	13.01	2.48953e-08
3	67639	13.11	1.8975e-08
3	68185	13.21	1.37796e-08
3	68731	13.31	9.26903e-09
3	69277	13.41	5.40297e-09
3	69823	13.51	2.13376e-09
3	70369	13.61	-5.85487e-10
3	70915	13.71	-2.80593e-09
3	71461	13.81	-4.57732e-09
3	72007	13.91	-5.94866e-09
3	72561	14.01	-6.96758e-09
3	73107	14.11	-7.67812e-09
3	73653	14.21	-8.12292e-09
3	74199	14.31	-8.34106e-09
3	74745	14.41	-8.3709e-09
3	75291	14.51	-8.24443e-09
3	75837	14.61	-7.99361e-09
3	76383	14.71	-7.64544e-09
3	76929	14.81	-7.22338e-09
3	77475	14.91	-6.74589e-09
3	78029	15.01	-6.23359e-09
3	78575	15.11	-5.70139e-09
3	79121	15.21	-5.16138e-09
3	79667	15.31	-4.62634e-09
3	80213	15.41	-4.10481e-09
3	80759	15.51	-3.60387e-09
3	81305	15.61	-3.12781e-09
3	81851	15.71	-2.68088e-09
3	82397	15.81	-2.26663e-09
3	82943	15.91	-1.88649e-09
3	83497	16.01	-1.54046e-09
3	84043	16.11	-1.22782e-09
3	84589	16.21	-9.50706e-10
3	85135	16.31	-7.06279e-10
3	85681	16.41	-4.92406e-10
3	86227	16.51	-3.09086e-10
3	86773	16.61	-1.52767e-10
3	87319	16.71	-2.13163e-11
3	87865	16.81	8.66862e-11
3	88411	16.91	1.73372e-10
3	88965	17.01	2.41585e-10
3	89511	17.11	2.92744e-10
3	90057	17.21	3.29692e-10
3	90603	17.31	3.54561e-10
3	91149	17.41	3.68061e-10
3	91695	17.51	3.72324e-10
3	92241	17.61	3.69482e-10
3	92787	17.71	3.60956e-10
3	93333	17.81	3.46745e-10
3	93879	17.91	3.28981e-10
3	94433	18.01	3.07665e-10
3	94979	18.11	2.86349e-10
3	95525	18.21	2.65032e-10
3	96071	18.31	2.43716e-10
3	96617	18.41	2.20979e-10
3	97163	18.51	1.99663e-10
3	97709	18.61	1.78346e-10
3	98255	18.71	1.5703e-10
3	98801	18.81	1.35714e-10
3	99347	18.91	1.14397e-10
3	99901	19.01	9.30811e-11
3	100447	19.11	7.74492e-11
3	100993	19.21	6.32383e-11
3	101539	19.31	4.90274e-11
3	102085	19.41	3.48166e-11
3	102631	19.51	2.41585e-11
3	103177	19.61	1.7053e-11
3	103723	19.71	9.9476e-12
3	104269	19.81	2.84217e-12
3	104815	19.91	-4.26326e-12
3	105369	20.01	-1.13687e-11
3	105915	20.11	-1.20792e-11
3	106461	20.21	-1.20792e-11
3	107007	20.31	-1.20792e-11
3	107553	20.41	-1.20792e-11
3	108099	20.51	-1.20792e-11
3	108645	20.61	-1.20792e-11
3	109191	20.71	-1.20792e-11
3	109737	20.81	-1.20792e-11
3	110283	20.91	-1.20792e-11
3	110837	21.01	-1.20792e-11
3	111383	21.11	-1.20792e-11
3	111929	21.21	-1.20792e-11
3	112475	21.31	-1.20792e-11
3	113021	21.41	-1.20792e-11
3	113567	21.51	-1.20792e-11
3	114113	21.61	-1.20792e-11
3	114659	21.71	-1.20792e-11
3	115205	21.81	-1.20792e-11
3	115751	21.91	-1.20792e-11
3	116305	22.01	-1.20792e-11
3	116851	22.11	-1.20792e-11
3	117397	22.21	-1.20792e-11
3	117943	22.31	-1.20792e-11
3	118489	22.41	-1.20792e-11
3	119035	22.51	-1.20792e-11
3	119581	22.61	-1.20792e-11
3	120127	22.71	-1.20792e-11
3	120673	22.81	-1.20792e-11
3	121219	22.91	-1.20792e-11
3	121773	23.01	-1.13687e-11
3	122319	23.11	-1.06581e-11
3	122865	23.21	-9.23706e-12
3	123411	23.31	-8.52651e-12
3	123957	23.41	-7.81597e-12
3	124503	23.51	-7.10543e-12
3	125049	23.61	-6.39488e-12
3	125595	23.71	-5.68434e-12
3	126141	23.81	-4.9738e-12
3	126687	23.91	-4.9738e-12
3	127241	24.01	-4.26326e-12
3	127787	24.11	-3.55271e-12
3	128333	24.21	-3.55271e-12
3	128879	24.31	-2.84217e-12
3	129425	24.41	-2.84217e-12
3	129971	24.51	-2.84217e-12
3	130517	24.61	-2.13163e-12
3	131063	24.71	-2.13163e-12
3	131609	24.81	-2.13163e-12
3	132155	24.91	-1.42109e-12
3	132709	25.01	-1.42109e-12
3	133255	25.11	-1.42109e-12
3	133801	25.21	-1.42109e-12
3	134347	25.31	-1.42109e-12
3	134893	25.41	-7.10543e-13
3	135439	25.51	-7.10543e-13
3	135985	25.61	-7.10543e-13
3	136531	25.71	-7.10543e-13
3	137077	25.81	-7.10543e-13
3	137623	25.91	-7.10543e-13
3	138177	26.01	-7.10543e-13
3	138723	26.11	-7.10543e-13
3	139269	26.21	-7.10543e-13
3	139815	26.31	-7.10543e-13
3	140361	26.41	0
3	140907	26.51	0
3	141453	26.61	0
3	141999	26.71	0
3	142545	26.81	0
3	143091	26.91	0
3	143645	27.01	0
3	144191	27.11	0
3	144737	27.21	0
3	145283	27.31	0
3	145829	27.41	0
3	146375	27.51	0
3	146921	27.61	0
3	147467	27.71	0
3	148013	27.81	0
3	148559	27.91	0
3	149113	28.01	0
3	149659	28.11	0
3	150205	28.21	0
3	150751	28.31	0
3	151297	28.41	0
3	151843	28.51	0
3	152389	28.61	0
3	152935	28.71	0
3	153481	28.81	0
3	154027	28.91	0
3	154581	29.01	0
3	155127	29.11	0
3	155673	29.21	0
3	156219	29.31	0
3	156765	29.41	0
3	157311	29.51	0
3	157857	29.61	0
3	158403	29.71	0
3	158949	29.81	0
3	159495	29.91	0
3	160049	30.01	0
3	160595	30.11	0
3	161141	30.21	0
3	161687	30.31	0
3	162233	30.41	0
3	162779	30.51	0
3	163325	30.61	0
3	163871	30.71	0
3	164417	30.81	0
3	164963	30.91	0
3	165517	31.01	0
3	166063	31.11	0
3	166609	31.21	0
3	167155	31.31	0
3	167701	31.41	0
3	168247	31.51	0
3	168793	31.61	0
3	169339	31.71	0
3	169885	31.81	0
3	170431	31.91	0
3	170985	32.01	0
3	171531	32.11	0
3	172077	32.21	0
3	172623	32.31	0
3	173169	32.41	0
3	173715	32.51	0
3	174261	32.61	0
3	174807	32.71	0
3	175353	32.81	0
3	175899	32.91	0
3	176453	33.01	0
3	176999	33.11	0
3	177545	33.21	0
3	178091	33.31	0
3	178637	33.41	0
3	179183	33.51	0
3	179729	33.61	0
3	180275	33.71	0
3	180821	33.81	0
3	181367	33.91	0
3	181921	34.01	0
3	182467	34.11	0
3	183013	34.21	0
3	183559	34.31	0
3	184105	34.41	0
3	184651	34.51	0
3	185197	34.61	0
3	185743	34.71	0
3	186289	34.81	0
3	186835	34.91	0
3	187389	35.01	0
3	187935	35.11	0
3	188481	35.21	0
3	189027	35.31	0
3	189573	35.41	0
3	190119	35.51	0
3	190665	35.61	0
3	191211	35.71	0
3	191757	35.81	0
3	192303	35.91	0
3	192857	36.01	0
3	193403	36.11	0
3	193949	36.21	0
3	194495	36.31	0
3	195041	36.41	0
3	195587	36.51	0
3	196133	36.61	0
3	196679	36.71	0
3	197225	36.81	0
3	197771	36.91	0
3	198325	37.01	0
3	198871	37.11	0
3	199417	37.21	0
3	199963	37.31	0
3	200509	37.41	0
3	201055	37.51	0
3	201601	37.61	0
3	202147	37.71	0
3	202693	37.81	0
3	203239	37.91	0
3	203793	38.01	0
3	204339	38.11	0
3	204885	38.21	0
3	205431	38.31	0
3	205977	38.41	0
3	206523	38.51	0
3	207069	38.61	0
3	207615	38.71	0
3	208161	38.81	0
3	208707	38.91	0
3	209261	39.01	0
3	209807	39.11	0
3	210353	39.21	0
3	210899	39.31	0
3	211445	39.41	0
3	211991	39.51	0
3	212537	39.61	0
3	213083	39.71	0
3	213629	39.81	0
3	214175	39.91	0
3	214729	40.01	0
3	215275	40.11	0
3	215821	40.21	0
3	216367	40.31	0
3	216913	40.41	0
3	217459	40.51	0
3	218005	40.61	0
3	218551	40.71	0
3	219097	40.81	0
3	219643	40.91	0
3	220197	41.01	0
3	220743	41.11	0
3	221289	41.21	0
3	221835	41.31	0
3	222381	41.41	0
3	222927	41.51	0
3	223473	41.61	0
3	224019	41.71	0
3	224565	41.81	0
3	225111	41.91	0
3	225665	42.01	0
3	226211	42.11	0
3	226757	42.21	0
3	227303	42.31	0
3	227849	42.41	0
3	228395	42.51	0
3	228941	42.61	0
3	229487	42.71	0
3	230033	42.81	0
3	230579	42.91	0
3	231133	43.01	0
3	231679	43.11	0
3	232225	43.21	0
3	232771	43.31	0
3	233317	43.41	0
3	233863	43.51	0
3	234409	43.61	0
3	234955	43.71	0
3	235501	43.81	0
3	236047	43.91	0
3	236601	44.01	0
3	237147	44.11	0
3	237693	44.21	0
3	238239	44.31	0
3	238785	44.41	0
3	239331	44.51	0
3	239877	44.61	0
3	240423	44.71	0
3	240969	44.81	0
3	241515	44.91	0
3	242069	45.01	0
3	242615	45.11	0
3	243161	45.21	0
3	243707	45.31	0
3	244253	45.41	0
3	244799	45.51	0
3	245345	45.61	0
3	245891	45.71	0
3	246437	45.81	0
3	246983	45.91	0
3	247537	46.01	0
3	248083	46.11	0
3	248629	46.21	0
3	249175	46.31	0
3	249721	46.41	0
3	250267	46.51	0
3	250813	46.61	0
3	251359	46.71	0
3	251905	46.81	0
3	252451	46.91	0
3	253005	47.01	0
3	253551	47.11	0
3	254097	47.21	0
3	254643	47.31	0
3	255189	47.41	0
3	255735	47.51	0
3	256281	47.61	0
3	256827	47.71	0
3	257373	47.81	0
3	257919	47.91	0
3	258473	48.01	0
3	259019	48.11	0
3	259565	48.21	0
3	260111	48.31	0
3	260657	48.41	0
3	261203	48.51	0
3	261749	48.61	0
3	262295	48.71	0
3	262841	48.81	0
3	263387	48.91	0
3	263941	49.01	0
3	264487	49.11	0
3	265033	49.21	0
3	265579	49.31	0
3	266125	49.41	0
3	266671	49.51	0
3	267217	49.61	0
3	267763	49.71	0
3	268309	49.81	0
3	268855	49.91	0
3	269409	50.01	0
3	269955	50.11	0
3	270501	50.21	0
3	271047	50.31	0
3	271593	50.41	0
3	272139	50.51	0
3	272685	50.61	0
3	273231	50.71	0
3	273777	50.81	0
3	274323	50.91	0
3	274877	51.01	0
3	275423	51.11	0
3	275969	51.21	0
3	276515	51.31	0
3	277061	51.41	0
3	277607	51.51	0
3	278153	51.61	0
3	278699	51.71	0
3	279245	51.81	0
3	279791	51.91	0
3	280345	52.01	0
3	280891	52.11	0
3	281437	52.21	0
3	281983	52.31	0
3	282529	52.41	0
3	283075	52.51	0
3	283621	52.61	0
3	284167	52.71	0
3	284713	52.81	0
3	285259	52.91	0
3	285813	53.01	0
3	286359	53.11	0
3	286905	53.21	0
3	287451	53.31	0
3	287997	53.41	0
3	288543	53.51	0
3	289089	53.61	0
3	289635	53.71	0
3	290181	53.81	0
3	290727	53.91	0
3	291281	54.01	0
3	291827	54.11	0
3	292373	54.21	0
3	292919	54.31	0
3	293465	54.41	0
3	294011	54.51	0
3	294557	54.61	0
3	295103	54.71	0
3	295649	54.81	0
3	296195	54.91	0
3	296749	55.01	0
3	297295	55.11	0
3	297841	55.21	0
3	298387	55.31	0
3	298933	55.41	0
3	299479	55.51	0
3	300025	55.61	0
3	300571	55.71	0
3	301117	55.81	0
3	301663	55.91	0
3	302217	56.01	0
3	302763	56.11	0
3	303309	56.21	0
3	303855	56.31	0
3	304401	56.41	0
3	304947	56.51	0
3	305493	56.61	0
3	306039	56.71	0
3	306585	56.81	0
3	307131	56.91	0
3	307685	57.01	0
3	308231	57.11	0
3	308777	57.21	0
3	309323	57.31	0
3	309869	57.41	0
3	310415	57.51	0
3	310961	57.61	0
3	311507	57.71	0
3	312053	57.81	0
3	312599	57.91	0
3	313153	58.01	0
3	313699	58.11	0
3	314245	58.21	0
3	314791	58.31	0
3	315337	58.41	0
3	315883	58.51	0
3	316429	58.61	0
3	316975	58.71	0
3	317521	58.81	0
3	318067	58.91	0
3	318621	59.01	0
3	319167	59.11	0
3	319713	59.21	0
3	320259	59.31	0
3	320805	59.41	0
3	321351	59.51	0
3	321897	59.61	0
3	322443	59.71	0
3	322989	59.81	0
3	323535	59.91	0
3	324089	60.01	0
3	324635	60.11	0
3	325181	60.21	0
3	325727	60.31	0
3	326273	60.41	0
3	326819	60.51	0
3	327365	60.61	0
3	327911	60.71	0
3	328457	60.81	0
3	329003	60.91	0
3	329557	61.01	0
3	330103	61.11	0
3	330649	61.21	0
3	331195	61.31	0
3	331741	61.41	0
3	332287	61.51	0
3	332833	61.61	0
3	333379	61.71	0
3	333925	61.81	0
3	334471	61.91	0
3	335025	62.01	0
3	335571	62.11	0
3	336117	62.21	0
3	336663	62.31	0
3	337209	62.41	0
3	337755	62.51	0
3	338301	62.61	0
3	338847	62.71	0
3	339393	62.81	0
3	339939	62.91	0
3	340493	63.01	0
3	341039	63.11	0
3	341585	63.21	0
3	342131	63.31	0
3	342677	63.41	0
3	343223	63.51	0
3	343769	63.61	0
3	344315	63.71	0
3	344861	63.81	0
3	345407	63.91	0
3	345961	64.01	0
3	346507	64.11	0
3	347053	64.21	0
3	347599	64.31	0
3	348145	64.41	0
3	348691	64.51	0
3	349237	64.61	0
3	349783	64.71	0
3	350329	64.81	0
3	350875	64.91	0
3	351429	65.01	0
3	351975	65.11	0
3	352521	65.21	0
3	353067	65.31	0
3	353613	65.41	0
3	354159	65.51	0
3	354705	65.61	0
3	355251	65.71	0
3	355797	65.81	0
3	356343	65.91	0
3	356897	66.01	0
3	357443	66.11	0
3	357989	66.21	0
3	358535	66.31	0
3	359081	66.41	0
3	359627	66.51	0
3	360173	66.61	0
3	360719	66.71	0
3	361265	66.81	0
3	361811	66.91	0
3	362365	67.01	0
3	362911	67.11	0
3	363457	67.21	0
3	364003	67.31	0
3	364549	67.41	0
3	365095	67.51	0
3	365641	67.61	0
3	366187	67.71	0
3	366733	67.81	0
3	367279	67.91	0
3	367833	68.01	0
3	368379	68.11	0
3	368925	68.21	0
3	369471	68.31	0
3	370017	68.41	0
3	370563	68.51	0
3	371109	68.61	0
3	371655	68.71	0
3	372201	68.81	0
3	372747	68.91	0
3	373301	69.01	0
3	373847	69.11	0
3	374393	69.21	0
3	374939	69.31	0
3	375485	69.41	0
3	376031	69.51	0
3	376577	69.61	0
3	377123	69.71	0
3	377669	69.81	0
3	378215	69.91	0
3	378769	70.01	0
3	379315	70.11	0
3	379861	70.21	0
3	380407	70.31	0
3	380953	70.41	0
3	381499	70.51	0
3	382045	70.61	0
3	382591	70.71	0
3	383137	70.81	0
3	383683	70.91	0
3	384237	71.01	0
3	384783	71.11	0
3	385329	71.21	0
3	385875	71.31	0
3	386421	71.41	0
3	386967	71.51	0
3	387513	71.61	0
3	388059	71.71	0
3	388605	71.81	0
3	389151	71.91	0
3	389705	72.01	0
3	390251	72.11	0
3	390797	72.21	0
3	391343	72.31	0
3	391889	72.41	0
3	392435	72.51	0
3	392981	72.61	0
3	393527	72.71	0
3	394073	72.81	0
3	394619	72.91	0
3	395173	73.01	0
3	395719	73.11	0
3	396265	73.21	0
3	396811	73.31	0
3	397357	73.41	0
3	397903	73.51	0
3	398449	73.61	0
3	398995	73.71	0
3	399541	73.81	0
3	400087	73.91	0
3	400641	74.01	0
3	401187	74.11	0
3	401733	74.21	0
3	402279	74.31	0
3	402825	74.41	0
3	403371	74.51	0
3	403917	74.61	0
3	404463	74.71	0
3	405009	74.81	0
3	405555	74.91	0
3	406109	75.01	0
3	406655	75.11	0
3	407201	75.21	0
3	407747	75.31	0
3	408293	75.41	0
3	408839	75.51	0
3	409385	75.61	0
3	409931	75.71	0
3	410477	75.81	0
3	411023	75.91	0
3	411577	76.01	0
3	412123	76.11	0
3	412669	76.21	0
3	413215	76.31	0
3	413761	76.41	0
3	414307	76.51	0
3	414853	76.61	0
3	415399	76.71	0
3	415945	76.81	0
3	416491	76.91	0
3	417045	77.01	0
3	417591	77.11	0
3	418137	77.21	0
3	418683	77.31	0
3	419229	77.41	0
3	419775	77.51	0
3	420321	77.61	0
3	420867	77.71	0
3	421413	77.81	0
3	421959	77.91	0
3	422513	78.01	0
3	423059	78.11	0
3	423605	78.21	0
3	424151	78.31	0
3	424697	78.41	0
3	425243	78.51	0
3	425789	78.61	0
3	426335	78.71	0
3	426881	78.81	0
3	427427	78.91	0
3	427981	79.01	0
3	428527	79.11	0
3	429073	79.21	0
3	429619	79.31	0
3	430165	79.41	0
3	430711	79.51	0
3	431257	79.61	0
3	431803	79.71	0
3	432349	79.81	0
3	432895	79.91	0
3	433449	80.01	0
3	433995	80.11	0
3	434541	80.21	0
3	435087	80.31	0
3	435633	80.41	0
3	436179	80.51	0
3	436725	80.61	0
3	437271	80.71	0
3	437817	80.81	0
3	438363	80.91	0
3	438917	81.01	0
3	439463	81.11	0
3	440009	81.21	0
3	440555	81.31	0
3	441101	81.41	0
3	441647	81.51	0
3	442193	81.61	0
3	442739	81.71	0
3	443285	81.81	0
3	443831	81.91	0
3	444385	82.01	0
3	444931	82.11	0
3	445477	82.21	0
3	446023	82.31	0
3	446569	82.41	0
3	447115	82.51	0
3	447661	82.61	0
3	448207	82.71	0
3	448753	82.81	0
3	449299	82.91	0
3	449853	83.01	0
3	450399	83.11	0
3	450945	83.21	0
3	451491	83.31	0
3	452037	83.41	0
3	452583	83.51	0
3	453129	83.61	0
3	453675	83.71	0
3	454221	83.81	0
3	454767	83.91	0
3	455321	84.01	0
3	455867	84.11	0
3	456413	84.21	0
3	456959	84.31	0
3	457505	84.41	0
3	458051	84.51	0
3	458597	84.61	0
3	459143	84.71	0
3	459689	84.81	0
3	460235	84.91	0
3	460789	85.01	0
3	461335	85.11	0
3	461881	85.21	0
3	462427	85.31	0
3	462973	85.41	0
3	463519	85.51	0
3	464065	85.61	0
3	464611	85.71	0
3	465157	85.81	0
3	465703	85.91	0
3	466257	86.01	0
3	466803	86.11	0
3	467349	86.21	0
3	467895	86.31	0
3	468441	86.41	0
3	468987	86.51	0
3	469533	86.61	0
3	470079	86.71	0
3	470625	86.81	0
3	471171	86.91	0
3	471725	87.01	0
3	472271	87.11	0
3	472817	87.21	0
3	473363	87.31	0
3	473909	87.41	0
3	474455	87.51	0
3	475001	87.61	0
3	475547	87.71	0
3	476093	87.81	0
3	476639	87.91	0
3	477193	88.01	0
3	477739	88.11	0
3	478285	88.21	0
3	478831	88.31	0
3	479377	88.41	0
3	479923	88.51	0
3	480469	88.61	0
3	481015	88.71	0
3	481561	88.81	0
3	482107	88.91	0
3	482661	89.01	0
3	483207	89.11	0
3	483753	89.21	0
3	484299	89.31	0
3	484845	89.41	0
3	485391	89.51	0
3	485937	89.61	0
3	486483	89.71	0
3	487029	89.81	0
3	487575	89.91	0
3	488129	90.01	0
3	488675	90.11	0
3	489221	90.21	0
3	489767	90.31	0
3	490313	90.41	0
3	490859	90.51	0
3	491405	90.61	0
3	491951	90.71	0
3	492497	90.81	0
3	493043	90.91	0
3	493597	91.01	0
3	494143	91.11	0
3	494689	91.21	0
3	495235	91.31	0
3	495781	91.41	0
3	496327	91.51	0
3	496873	91.61	0
3	497419	91.71	0
3	497965	91.81	0
3	498511	91.91	0
3	499065	92.01	0
3	499611	92.11	0
3	500157	92.21	0
3	500703	92.31	0
3	501249	92.41	0
3	501795	92.51	0
3	502341	92.61	0
3	502887	92.71	0
3	503433	92.81	0
3	503979	92.91	0
3	504533	93.01	0
3	505079	93.11	0
3	505625	93.21	0
3	506171	93.31	0
3	506717	93.41	0
3	507263	93.51	0
3	507809	93.61	0
[...]
104	395168	73	4
104	400636	74	4
104	406104	75	4
104	411572	76	4
104	417040	77	4
104	422508	78	4
104	427976	79	4
104	433444	80	4
104	438912	81	4
104	444380	82	4
104	449848	83	4
104	455316	84	4
104	460784	85	4
104	466252	86	4
104	471720	87	4
104	477188	88	4
104	482656	89	4
104	488124	90	4
104	493592	91	4
104	499060	92	4
104	504528	93	4
104	509996	94	4
104	515464	95	4
104	520932	96	4
104	526400	97	4
104	531868	98	4
104	537336	99	4
104	542804	100	4
105	5030	2	0.022473
105	10498	3	0.02497
105	15966	4	0.02497
105	21434	5	0.02497
105	26902	6	0.02497
105	32370	7	0.02497
105	37838	8	0.02497
105	43306	9	0.02497
105	48775	10	0.02497
105	56152	11	0.02696336024
105	61620	12	0.02497
105	67088	13	0.02497
105	72556	14	0.02497
105	78024	15	0.02497
105	83492	16	0.02497
105	88960	17	0.02497
105	94428	18	0.02497
105	99896	19	0.02497
105	105364	20	0.02497
105	110832	21	0.02497
105	116300	22	0.02497
105	121768	23	0.02497
105	127236	24	0.02497
105	132704	25	0.02497
105	138172	26	0.02497
105	143640	27	0.02497
105	149108	28	0.02497
105	154576	29	0.02497
105	160044	30	0.02497
105	165512	31	0.02497
105	170980	32	0.02497
105	176448	33	0.02497
105	181916	34	0.02497
105	187384	35	0.02497
105	192852	36	0.02497
105	198320	37	0.02497
105	203788	38	0.02497
105	209256	39	0.02497
105	214724	40	0.02497
105	220192	41	0.02497
105	225660	42	0.02497
105	231128	43	0.02497
105	236596	44	0.02497
105	242064	45	0.02497
105	247532	46	0.02497
105	253000	47	0.02497
105	258468	48	0.02497
105	263936	49	0.02497
105	269404	50	0.02497
105	274872	51	0.02497
105	280340	52	0.02497
105	285808	53	0.02497
105	291276	54	0.02497
105	296744	55	0.02497
105	302212	56	0.02497
105	307680	57	0.02497
105	313148	58	0.02497
105	318616	59	0.02497
105	324084	60	0.02497
105	329552	61	0.02497
105	335020	62	0.02497
105	340488	63	0.02497
105	345956	64	0.02497
105	351424	65	0.02497
105	356892	66	0.02497
105	362360	67	0.02497
105	367828	68	0.02497
105	373296	69	0.02497
105	378764	70	0.02497
105	384232	71	0.02497
105	389700	72	0.02497
105	395168	73	0.02497
105	400636	74	0.02497
105	406104	75	0.02497
105	411572	76	0.02497
105	417040	77	0.02497
105	422508	78	0.02497
105	427976	79	0.02497
105	433444	80	0.02497
105	438912	81	0.02497
105	444380	82	0.02497
105	449848	83	0.02497
105	455316	84	0.02497
105	460784	85	0.02497
105	466252	86	0.02497
105	471720	87	0.02497
105	477188	88	0.02497
105	482656	89	0.02497
105	488124	90	0.02497
105	493592	91	0.02497
105	499060	92	0.02497
105	504528	93	0.02497
105	509996	94	0.02497
105	515464	95	0.02497
105	520932	96	0.02497
105	526400	97	0.02497
105	531868	98	0.02497
105	537336	99	0.02497
105	542804	100	0.02497
106	5030	2	0
106	10498	3	0
106	15966	4	0
106	21434	5	0
106	26902	6	0
106	32370	7	0
106	37838	8	0
106	43306	9	0
106	48775	10	0
106	56152	11	0
106	61620	12	0
106	67088	13	0
106	72556	14	0
106	78024	15	0
106	83492	16	0
106	88960	17	0
106	94428	18	0
106	99896	19	0
106	105364	20	0
106	110832	21	0
106	116300	22	0
106	121768	23	0
106	127236	24	0
106	132704	25	0
106	138172	26	0
106	143640	27	0
106	149108	28	0
106	154576	29	0
106	160044	30	0
106	165512	31	0
106	170980	32	0
106	176448	33	0
106	181916	34	0
106	187384	35	0
106	192852	36	0
106	198320	37	0
106	203788	38	0
106	209256	39	0
106	214724	40	0
106	220192	41	0
106	225660	42	0
106	231128	43	0
106	236596	44	0
106	242064	45	0
106	247532	46	0
106	253000	47	0
106	258468	48	0
106	263936	49	0
106	269404	50	0
106	274872	51	0
106	280340	52	0
106	285808	53	0
106	291276	54	0
106	296744	55	0
106	302212	56	0
106	307680	57	0
106	313148	58	0
106	318616	59	0
106	324084	60	0
106	329552	61	0
106	335020	62	0
106	340488	63	0
106	345956	64	0
106	351424	65	0
106	356892	66	0
106	362360	67	0
106	367828	68	0
106	373296	69	0
106	378764	70	0
106	384232	71	0
106	389700	72	0
106	395168	73	0
106	400636	74	0
106	406104	75	0
106	411572	76	0
106	417040	77	0
106	422508	78	0
106	427976	79	0
106	433444	80	0
106	438912	81	0
106	444380	82	0
106	449848	83	0
106	455316	84	0
106	460784	85	0
106	466252	86	0
106	471720	87	0
106	477188	88	0
106	482656	89	0
106	488124	90	0
106	493592	91	0
106	499060	92	0
106	504528	93	0
106	509996	94	0
106	515464	95	0
106	520932	96	0
106	526400	97	0
106	531868	98	0
106	537336	99	0
106	542804	100	0
107	5031	2	5
107	10499	3	5
107	15967	4	5
107	21435	5	5
107	26903	6	5
107	32371	7	5
107	37839	8	5
107	43307	9	5
107	48776	10	5
107	56153	11	5
107	61621	12	5
107	67089	13	5
107	72557	14	5
107	78025	15	5
107	83493	16	5
107	88961	17	5
107	94429	18	5
107	99897	19	5
107	105365	20	5
107	110833	21	5
107	116301	22	5
107	121769	23	5
107	127237	24	5
107	132705	25	5
107	138173	26	5
107	143641	27	5
107	149109	28	5
107	154577	29	5
107	160045	30	5
107	165513	31	5
107	170981	32	5
107	176449	33	5
107	181917	34	5
107	187385	35	5
107	192853	36	5
107	198321	37	5
107	203789	38	5
107	209257	39	5
107	214725	40	5
107	220193	41	5
107	225661	42	5
107	231129	43	5
107	236597	44	5
107	242065	45	5
107	247533	46	5
107	253001	47	5
107	258469	48	5
107	263937	49	5
107	269405	50	5
107	274873	51	5
107	280341	52	5
107	285809	53	5
107	291277	54	5
107	296745	55	5
107	302213	56	5
107	307681	57	5
107	313149	58	5
107	318617	59	5
107	324085	60	5
107	329553	61	5
107	335021	62	5
107	340489	63	5
107	345957	64	5
107	351425	65	5
107	356893	66	5
107	362361	67	5
107	367829	68	5
107	373297	69	5
107	378765	70	5
107	384233	71	5
107	389701	72	5
107	395169	73	5
107	400637	74	5
107	406105	75	5
107	411573	76	5
107	417041	77	5
107	422509	78	5
107	427977	79	5
107	433445	80	5
107	438913	81	5
107	444381	82	5
107	449849	83	5
107	455317	84	5
107	460785	85	5
107	466253	86	5
107	471721	87	5
107	477189	88	5
107	482657	89	5
107	488125	90	5
107	493593	91	5
107	499061	92	5
107	504529	93	5
107	509997	94	5
107	515465	95	5
107	520933	96	5
107	526401	97	5
107	531869	98	5
107	537337	99	5
107	542805	100	5
108	5031	2	0.022473
108	10499	3	0.02497
108	15967	4	0.02497
108	21435	5	0.02497
108	26903	6	0.02497
108	32371	7	0.02497
108	37839	8	0.02497
108	43307	9	0.02497
108	48776	10	0.02497
108	56153	11	0.02696336024
108	61621	12	0.02497
108	67089	13	0.02497
108	72557	14	0.02497
108	78025	15	0.02497
108	83493	16	0.02497
108	88961	17	0.02497
108	94429	18	0.02497
108	99897	19	0.02497
108	105365	20	0.02497
108	110833	21	0.02497
108	116301	22	0.02497
108	121769	23	0.02497
108	127237	24	0.02497
108	132705	25	0.02497
108	138173	26	0.02497
108	143641	27	0.02497
108	149109	28	0.02497
108	154577	29	0.02497
108	160045	30	0.02497
108	165513	31	0.02497
108	170981	32	0.02497
108	176449	33	0.02497
108	181917	34	0.02497
108	187385	35	0.02497
108	192853	36	0.02497
108	198321	37	0.02497
108	203789	38	0.02497
108	209257	39	0.02497
108	214725	40	0.02497
108	220193	41	0.02497
108	225661	42	0.02497
108	231129	43	0.02497
108	236597	44	0.02497
108	242065	45	0.02497
108	247533	46	0.02497
108	253001	47	0.02497
108	258469	48	0.02497
108	263937	49	0.02497
108	269405	50	0.02497
108	274873	51	0.02497
108	280341	52	0.02497
108	285809	53	0.02497
108	291277	54	0.02497
108	296745	55	0.02497
108	302213	56	0.02497
108	307681	57	0.02497
108	313149	58	0.02497
108	318617	59	0.02497
108	324085	60	0.02497
108	329553	61	0.02497
108	335021	62	0.02497
108	340489	63	0.02497
108	345957	64	0.02497
108	351425	65	0.02497
108	356893	66	0.02497
108	362361	67	0.02497
108	367829	68	0.02497
108	373297	69	0.02497
108	378765	70	0.02497
108	384233	71	0.02497
108	389701	72	0.02497
108	395169	73	0.02497
108	400637	74	0.02497
108	406105	75	0.02497
108	411573	76	0.02497
108	417041	77	0.02497
108	422509	78	0.02497
108	427977	79	0.02497
108	433445	80	0.02497
108	438913	81	0.02497
108	444381	82	0.02497
108	449849	83	0.02497
108	455317	84	0.02497
108	460785	85	0.02497
108	466253	86	0.02497
108	471721	87	0.02497
108	477189	88	0.02497
108	482657	89	0.02497
108	488125	90	0.02497
108	493593	91	0.02497
108	499061	92	0.02497
108	504529	93	0.02497
108	509997	94	0.02497
108	515465	95	0.02497
108	520933	96	0.02497
108	526401	97	0.02497
108	531869	98	0.02497
108	537337	99	0.02497
108	542805	100	0.02497
109	5031	2	0
109	10499	3	0
109	15967	4	0
109	21435	5	0
109	26903	6	0
109	32371	7	0
109	37839	8	0
109	43307	9	0
109	48776	10	0
109	56153	11	0
109	61621	12	0
109	67089	13	0
109	72557	14	0
109	78025	15	0
109	83493	16	0
109	88961	17	0
109	94429	18	0
109	99897	19	0
109	105365	20	0
109	110833	21	0
109	116301	22	0
109	121769	23	0
109	127237	24	0
109	132705	25	0
109	138173	26	0
109	143641	27	0
109	149109	28	0
109	154577	29	0
109	160045	30	0
109	165513	31	0
109	170981	32	0
109	176449	33	0
109	181917	34	0
109	187385	35	0
109	192853	36	0
109	198321	37	0
109	203789	38	0
109	209257	39	0
109	214725	40	0
109	220193	41	0
109	225661	42	0
109	231129	43	0
109	236597	44	0
109	242065	45	0
109	247533	46	0
109	253001	47	0
109	258469	48	0
109	263937	49	0
109	269405	50	0
109	274873	51	0
109	280341	52	0
109	285809	53	0
109	291277	54	0
109	296745	55	0
109	302213	56	0
109	307681	57	0
109	313149	58	0
109	318617	59	0
109	324085	60	0
109	329553	61	0
109	335021	62	0
109	340489	63	0
109	345957	64	0
109	351425	65	0
109	356893	66	0
109	362361	67	0
109	367829	68	0
109	373297	69	0
109	378765	70	0
109	384233	71	0
109	389701	72	0
109	395169	73	0
109	400637	74	0
109	406105	75	0
109	411573	76	0
109	417041	77	0
109	422509	78	0
109	427977	79	0
109	433445	80	0
109	438913	81	0
109	444381	82	0
109	449849	83	0
109	455317	84	0
109	460785	85	0
109	466253	86	0
109	471721	87	0
109	477189	88	0
109	482657	89	0
109	488125	90	0
109	493593	91	0
109	499061	92	0
109	504529	93	0
109	509997	94	0
109	515465	95	0
109	520933	96	0
109	526401	97	0
109	531869	98	0
109	537337	99	0
109	542805	100	0
110	5032	2	6
110	10500	3	6
110	15968	4	6
110	21436	5	6
110	26904	6	6
110	32372	7	6
110	37840	8	6
110	43308	9	6
110	48777	10	6
110	56154	11	6
110	61622	12	6
110	67090	13	6
110	72558	14	6
110	78026	15	6
110	83494	16	6
110	88962	17	6
110	94430	18	6
110	99898	19	6
110	105366	20	6
110	110834	21	6
110	116302	22	6
110	121770	23	6
110	127238	24	6
110	132706	25	6
110	138174	26	6
110	143642	27	6
110	149110	28	6
110	154578	29	6
110	160046	30	6
110	165514	31	6
110	170982	32	6
110	176450	33	6
110	181918	34	6
110	187386	35	6
110	192854	36	6
110	198322	37	6
110	203790	38	6
110	209258	39	6
110	214726	40	6
110	220194	41	6
110	225662	42	6
110	231130	43	6
110	236598	44	6
110	242066	45	6
110	247534	46	6
110	253002	47	6
110	258470	48	6
110	263938	49	6
110	269406	50	6
110	274874	51	6
110	280342	52	6
110	285810	53	6
110	291278	54	6
110	296746	55	6
110	302214	56	6
110	307682	57	6
110	313150	58	6
110	318618	59	6
110	324086	60	6
110	329554	61	6
110	335022	62	6
110	340490	63	6
110	345958	64	6
110	351426	65	6
110	356894	66	6
110	362362	67	6
110	367830	68	6
110	373298	69	6
110	378766	70	6
110	384234	71	6
110	389702	72	6
110	395170	73	6
110	400638	74	6
110	406106	75	6
110	411574	76	6
110	417042	77	6
110	422510	78	6
110	427978	79	6
110	433446	80	6
110	438914	81	6
110	444382	82	6
110	449850	83	6
110	455318	84	6
110	460786	85	6
110	466254	86	6
110	471722	87	6
110	477190	88	6
110	482658	89	6
110	488126	90	6
110	493594	91	6
110	499062	92	6
110	504530	93	6
110	509998	94	6
110	515466	95	6
110	520934	96	6
110	526402	97	6
110	531870	98	6
110	537338	99	6
110	542806	100	6
111	5032	2	0.022473
111	10500	3	0.02497
111	15968	4	0.02497
111	21436	5	0.02497
111	26904	6	0.02497
111	32372	7	0.02497
111	37840	8	0.02497
111	43308	9	0.02497
111	48777	10	0.02497
111	56154	11	0.026963400269
111	61622	12	0.02497
111	67090	13	0.02497
111	72558	14	0.02497
111	78026	15	0.02497
111	83494	16	0.02497
111	88962	17	0.02497
111	94430	18	0.02497
111	99898	19	0.02497
111	105366	20	0.02497
111	110834	21	0.02497
111	116302	22	0.02497
111	121770	23	0.02497
111	127238	24	0.02497
111	132706	25	0.02497
111	138174	26	0.02497
111	143642	27	0.02497
111	149110	28	0.02497
111	154578	29	0.02497
111	160046	30	0.02497
111	165514	31	0.02497
111	170982	32	0.02497
111	176450	33	0.02497
111	181918	34	0.02497
111	187386	35	0.02497
111	192854	36	0.02497
111	198322	37	0.02497
111	203790	38	0.02497
111	209258	39	0.02497
111	214726	40	0.02497
111	220194	41	0.02497
111	225662	42	0.02497
111	231130	43	0.02497
111	236598	44	0.02497
111	242066	45	0.02497
111	247534	46	0.02497
111	253002	47	0.02497
111	258470	48	0.02497
111	263938	49	0.02497
111	269406	50	0.02497
111	274874	51	0.02497
111	280342	52	0.02497
111	285810	53	0.02497
111	291278	54	0.02497
111	296746	55	0.02497
111	302214	56	0.02497
111	307682	57	0.02497
111	313150	58	0.02497
111	318618	59	0.02497
111	324086	60	0.02497
111	329554	61	0.02497
111	335022	62	0.02497
111	340490	63	0.02497
111	345958	64	0.02497
111	351426	65	0.02497
111	356894	66	0.02497
111	362362	67	0.02497
111	367830	68	0.02497
111	373298	69	0.02497
111	378766	70	0.02497
111	384234	71	0.02497
111	389702	72	0.02497
111	395170	73	0.02497
111	400638	74	0.02497
111	406106	75	0.02497
111	411574	76	0.02497
111	417042	77	0.02497
111	422510	78	0.02497
111	427978	79	0.02497
111	433446	80	0.02497
111	438914	81	0.02497
111	444382	82	0.02497
111	449850	83	0.02497
111	455318	84	0.02497
111	460786	85	0.02497
111	466254	86	0.02497
111	471722	87	0.02497
111	477190	88	0.02497
111	482658	89	0.02497
111	488126	90	0.02497
111	493594	91	0.02497
111	499062	92	0.02497
111	504530	93	0.02497
111	509998	94	0.02497
111	515466	95	0.02497
111	520934	96	0.02497
111	526402	97	0.02497
111	531870	98	0.02497
111	537338	99	0.02497
111	542806	100	0.02497
112	5032	2	0
112	10500	3	0
112	15968	4	0
112	21436	5	0
112	26904	6	0
112	32372	7	0
112	37840	8	0
112	43308	9	0
112	48777	10	0
112	56154	11	0
112	61622	12	0
112	67090	13	0
112	72558	14	0
112	78026	15	0
112	83494	16	0
112	88962	17	0
112	94430	18	0
112	99898	19	0
112	105366	20	0
112	110834	21	0
112	116302	22	0
112	121770	23	0
112	127238	24	0
112	132706	25	0
112	138174	26	0
112	143642	27	0
112	149110	28	0
112	154578	29	0
112	160046	30	0
112	165514	31	0
112	170982	32	0
112	176450	33	0
112	181918	34	0
112	187386	35	0
112	192854	36	0
112	198322	37	0
112	203790	38	0
112	209258	39	0
112	214726	40	0
112	220194	41	0
112	225662	42	0
112	231130	43	0
112	236598	44	0
112	242066	45	0
112	247534	46	0
112	253002	47	0
112	258470	48	0
112	263938	49	0
112	269406	50	0
112	274874	51	0
112	280342	52	0
112	285810	53	0
112	291278	54	0
112	296746	55	0
112	302214	56	0
112	307682	57	0
112	313150	58	0
112	318618	59	0
112	324086	60	0
112	329554	61	0
112	335022	62	0
112	340490	63	0
112	345958	64	0
112	351426	65	0
112	356894	66	0
112	362362	67	0
112	367830	68	0
112	373298	69	0
112	378766	70	0
112	384234	71	0
112	389702	72	0
112	395170	73	0
112	400638	74	0
112	406106	75	0
112	411574	76	0
112	417042	77	0
112	422510	78	0
112	427978	79	0
112	433446	80	0
112	438914	81	0
112	444382	82	0
112	449850	83	0
112	455318	84	0
112	460786	85	0
112	466254	86	0
112	471722	87	0
112	477190	88	0
112	482658	89	0
112	488126	90	0
112	493594	91	0
112	499062	92	0
112	504530	93	0
112	509998	94	0
112	515466	95	0
112	520934	96	0
112	526402	97	0
112	531870	98	0
112	537338	99	0
112	542806	100	0
113	5033	2	7
113	10501	3	7
113	15969	4	7
113	21437	5	7
113	26905	6	7
113	32373	7	7
113	37841	8	7
113	43309	9	7
113	48778	10	7
113	56155	11	7
113	61623	12	7
113	67091	13	7
113	72559	14	7
113	78027	15	7
113	83495	16	7
113	88963	17	7
113	94431	18	7
113	99899	19	7
113	105367	20	7
113	110835	21	7
113	116303	22	7
113	121771	23	7
113	127239	24	7
113	132707	25	7
113	138175	26	7
113	143643	27	7
113	149111	28	7
113	154579	29	7
113	160047	30	7
113	165515	31	7
113	170983	32	7
113	176451	33	7
113	181919	34	7
113	187387	35	7
113	192855	36	7
113	198323	37	7
113	203791	38	7
113	209259	39	7
113	214727	40	7
113	220195	41	7
113	225663	42	7
113	231131	43	7
113	236599	44	7
113	242067	45	7
113	247535	46	7
113	253003	47	7
113	258471	48	7
113	263939	49	7
113	269407	50	7
113	274875	51	7
113	280343	52	7
113	285811	53	7
113	291279	54	7
113	296747	55	7
113	302215	56	7
113	307683	57	7
113	313151	58	7
113	318619	59	7
113	324087	60	7
113	329555	61	7
113	335023	62	7
113	340491	63	7
113	345959	64	7
113	351427	65	7
113	356895	66	7
113	362363	67	7
113	367831	68	7
113	373299	69	7
113	378767	70	7
113	384235	71	7
113	389703	72	7
113	395171	73	7
113	400639	74	7
113	406107	75	7
113	411575	76	7
113	417043	77	7
113	422511	78	7
113	427979	79	7
113	433447	80	7
113	438915	81	7
113	444383	82	7
113	449851	83	7
113	455319	84	7
113	460787	85	7
113	466255	86	7
113	471723	87	7
113	477191	88	7
113	482659	89	7
113	488127	90	7
113	493595	91	7
113	499063	92	7
113	504531	93	7
113	509999	94	7
113	515467	95	7
113	520935	96	7
113	526403	97	7
113	531871	98	7
113	537339	99	7
113	542807	100	7
114	5033	2	0.022473
114	10501	3	0.02497
114	15969	4	0.02497
114	21437	5	0.02497
114	26905	6	0.02497
114	32373	7	0.02497
114	37841	8	0.02497
114	43309	9	0.02497
114	48778	10	0.02497
114	56155	11	0.026963440294
114	61623	12	0.02497
114	67091	13	0.02497
114	72559	14	0.02497
114	78027	15	0.02497
114	83495	16	0.02497
114	88963	17	0.02497
114	94431	18	0.02497
114	99899	19	0.02497
114	105367	20	0.02497
114	110835	21	0.02497
114	116303	22	0.02497
114	121771	23	0.02497
114	127239	24	0.02497
114	132707	25	0.02497
114	138175	26	0.02497
114	143643	27	0.02497
114	149111	28	0.02497
114	154579	29	0.02497
114	160047	30	0.02497
114	165515	31	0.02497
114	170983	32	0.02497
114	176451	33	0.02497
114	181919	34	0.02497
114	187387	35	0.02497
114	192855	36	0.02497
114	198323	37	0.02497
114	203791	38	0.02497
114	209259	39	0.02497
114	214727	40	0.02497
114	220195	41	0.02497
114	225663	42	0.02497
114	231131	43	0.02497
114	236599	44	0.02497
114	242067	45	0.02497
114	247535	46	0.02497
114	253003	47	0.02497
114	258471	48	0.02497
114	263939	49	0.02497
114	269407	50	0.02497
114	274875	51	0.02497
114	280343	52	0.02497
114	285811	53	0.02497
114	291279	54	0.02497
114	296747	55	0.02497
114	302215	56	0.02497
114	307683	57	0.02497
114	313151	58	0.02497
114	318619	59	0.02497
114	324087	60	0.02497
114	329555	61	0.02497
114	335023	62	0.02497
114	340491	63	0.02497
114	345959	64	0.02497
114	351427	65	0.02497
114	356895	66	0.02497
114	362363	67	0.02497
114	367831	68	0.02497
114	373299	69	0.02497
114	378767	70	0.02497
114	384235	71	0.02497
114	389703	72	0.02497
114	395171	73	0.02497
114	400639	74	0.02497
114	406107	75	0.02497
114	411575	76	0.02497
114	417043	77	0.02497
114	422511	78	0.02497
114	427979	79	0.02497
114	433447	80	0.02497
114	438915	81	0.02497
114	444383	82	0.02497
114	449851	83	0.02497
114	455319	84	0.02497
114	460787	85	0.02497
114	466255	86	0.02497
114	471723	87	0.02497
114	477191	88	0.02497
114	482659	89	0.02497
114	488127	90	0.02497
114	493595	91	0.02497
114	499063	92	0.02497
114	504531	93	0.02497
114	509999	94	0.02497
114	515467	95	0.02497
114	520935	96	0.02497
114	526403	97	0.02497
114	531871	98	0.02497
114	537339	99	0.02497
114	542807	100	0.02497
115	5033	2	0
115	10501	3	0
115	15969	4	0
115	21437	5	0
115	26905	6	0
115	32373	7	0
115	37841	8	0
115	43309	9	0
115	48778	10	0
115	56155	11	0
115	61623	12	0
115	67091	13	0
115	72559	14	0
115	78027	15	0
115	83495	16	0
115	88963	17	0
115	94431	18	0
115	99899	19	0
115	105367	20	0
115	110835	21	0
115	116303	22	0
115	121771	23	0
115	127239	24	0
115	132707	25	0
115	138175	26	0
115	143643	27	0
115	149111	28	0
115	154579	29	0
115	160047	30	0
115	165515	31	0
115	170983	32	0
115	176451	33	0
115	181919	34	0
115	187387	35	0
115	192855	36	0
115	198323	37	0
115	203791	38	0
115	209259	39	0
115	214727	40	0
115	220195	41	0
115	225663	42	0
115	231131	43	0
115	236599	44	0
115	242067	45	0
115	247535	46	0
115	253003	47	0
115	258471	48	0
115	263939	49	0
115	269407	50	0
115	274875	51	0
115	280343	52	0
115	285811	53	0
115	291279	54	0
115	296747	55	0
115	302215	56	0
115	307683	57	0
115	313151	58	0
115	318619	59	0
115	324087	60	0
115	329555	61	0
115	335023	62	0
115	340491	63	0
115	345959	64	0
115	351427	65	0
115	356895	66	0
115	362363	67	0
115	367831	68	0
115	373299	69	0
115	378767	70	0
115	384235	71	0
115	389703	72	0
115	395171	73	0
115	400639	74	0
115	406107	75	0
115	411575	76	0
115	417043	77	0
115	422511	78	0
115	427979	79	0
115	433447	80	0
115	438915	81	0
115	444383	82	0
115	449851	83	0
115	455319	84	0
115	460787	85	0
115	466255	86	0
115	471723	87	0
115	477191	88	0
115	482659	89	0
115	488127	90	0
115	493595	91	0
115	499063	92	0
115	504531	93	0
115	509999	94	0
115	515467	95	0
115	520935	96	0
115	526403	97	0
115	531871	98	0
115	537339	99	0
115	542807	100	0

