version 3
run BreakRanksNoGui-102-20240710-15:11:54-259093
attr configname BreakRanksNoGui
attr datetime 20240710-15:11:54
attr datetimef 20240710-151154
attr experiment BreakRanksNoGui
attr inifile omnetpp.ini
attr iterationvars "$nCars=3, $platoonSize=3, $nLanes=1, $ploegH=0.5, $controller=1, $headway=0.1, $leaderHeadway=1.2, $leaderSpeed=110, $breakRanksSafetyDistance=5, $minSpeed=100, $maxSpeed=120, $beaconInterval=0.1, $priority=4, $packetSize=200, $sController=\"CACC\", $0=2, $1=0"
attr iterationvarsd nCars=3/platoonSize=3/nLanes=1/ploegH=0.5/controller=1/headway=0.1/leaderHeadway=1.2/leaderSpeed=110/breakRanksSafetyDistance=5/minSpeed=100/maxSpeed=120/beaconInterval=0.1/priority=4/packetSize=200/sController=CACC/2/0
attr iterationvarsf nCars=3,platoonSize=3,nLanes=1,ploegH=0.5,controller=1,headway=0.1,leaderHeadway=1.2,leaderSpeed=110,breakRanksSafetyDistance=5,minSpeed=100,maxSpeed=120,beaconInterval=0.1,priority=4,packetSize=200,sController=CACC,2,0-
attr measurement "$nCars=3, $platoonSize=3, $nLanes=1, $ploegH=0.5, $controller=1, $headway=0.1, $leaderHeadway=1.2, $leaderSpeed=110, $breakRanksSafetyDistance=5, $minSpeed=100, $maxSpeed=120, $beaconInterval=0.1, $priority=4, $packetSize=200, $sController=\"CACC\", $0=2, $1=0"
attr network Highway
attr processid 259093
attr repetition 2
attr replication #2
attr resultdir results
attr runnumber 102
attr seedset 2
itervar beaconInterval 0.1
itervar breakRanksSafetyDistance 5
itervar controller 1
itervar headway 0.1
itervar leaderHeadway 1.2
itervar leaderSpeed 110
itervar maxSpeed 120
itervar minSpeed 100
itervar nCars 3
itervar nLanes 1
itervar packetSize 200
itervar platoonSize 3
itervar ploegH 0.5
itervar priority 4
itervar sController "\"CACC\""
config image-path ../../../veins/images
config repeat 10
config extends BreakRanks
config *.manager.command "\"sumo\""
config *.manager.ignoreGuiCommands true
config output-vector-file "results/BreakRanks_1_0.1_110_5_3 /result_2.vec"
config output-scalar-file "results/BreakRanks_1_0.1_110_5_3 /result_2.sca"
config extends Platooning
config *.node[*].scenario_type "\"BreakRanksScenario\""
config *.manager.command "\"sumo-gui\""
config *.node[*].scenario_type "\"SimpleScenario\""
config cmdenv-express-mode true
config cmdenv-autoflush true
config cmdenv-status-frequency 15s
config num-rngs 6
config network Highway
config debug-on-errors true
config print-undisposed true
config *.playgroundSizeX 65000m
config *.playgroundSizeY 25000m
config *.playgroundSizeZ 50m
config sim-time-limit "100 s"
config *.annotations.draw false
config *.obstacles.debug false
config *.world.useTorus false
config *.world.use2D false
config *.manager.updateInterval 0.01s
config *.manager.host "\"localhost\""
config *.manager.moduleType "\"org.car2x.plexe.PlatoonCar\""
config *.manager.moduleName "\"node\""
config *.manager.moduleDisplayString "\"\""
config *.manager.autoShutdown true
config *.manager.margin 25
config *.connectionManager.sendDirect true
config *.connectionManager.maxInterfDist 2600m
config *.connectionManager.drawMaxIntfDist false
config *.**.nic.mac1609_4.useServiceChannel false
config *.**.nic.mac1609_4.txPower 100mW
config *.**.nic.mac1609_4.bitrate 6Mbps
config *.**.nic.mac1609_4.useAcks true
config *.**.nic.mac1609_4.ackErrorRate 0.0
config *.**.nic.mac1609_4.frameErrorRate 0.0
config *.**.nic.phy80211p.minPowerLevel -94dBm
config *.**.nic.phy80211p.maxTXPower 100mW
config *.**.nic.phy80211p.useNoiseFloor true
config *.**.nic.phy80211p.noiseFloor -95dBm
config *.**.nic.phy80211p.decider "xmldoc(\"config.xml\")"
config *.**.nic.phy80211p.analogueModels "xmldoc(\"config.xml\")"
config *.**.nic.phy80211p.usePropagationDelay true
config *.node[*].mobility.x 0
config *.node[*].mobility.y 0
config *.node[*].mobility.z 1.895
config seed-set 2
config **.seed 2
config *.node[*].prot.rng-0 2
config *.node[*].appl.rng-0 3
config *.node[*].scenario.rng-0 4
config **.traffic.rng-0 5
config *.manager.configFile "\"./sumocfg/freeway.sumo.cfg\""
config *.manager.launchConfig "xmldoc(\"./sumocfg/freeway.launchd.xml\")"
config **.numberOfCars 3
config **.numberOfCarsPerPlatoon 3
config **.numberOfLanes 1
config *.node[*].helper_type "\"PositionHelper\""
config *.node[*].scenario.caccC1 0.5
config *.node[*].scenario.caccXi 1
config *.node[*].scenario.caccOmegaN "0.2 Hz"
config *.node[*].scenario.caccSpacing "2 m"
config *.node[*].scenario.engineTau "0.5 s"
config *.node[*].scenario.ploegH 0.5s
config *.node[*].scenario.ploegKp 0.2
config *.node[*].scenario.ploegKd 0.7
config *.node[*].scenario.useRealisticEngine false
config *.node[*].scenario.useControllerAcceleration true
config *.node[*].scenario.nLanes 1
config **.numericController 1
config **.headway 0.1s
config *.node[*].scenario.accHeadway 0.1s
config *.node[*].scenario.leaderHeadway 1.2s
config *.node[*].scenario.leaderSpeed 110kmph
config *.node[*].appl_type "\"SimplePlatooningApp\""
config *.node[*].appl.*.scalar-recording true
config *.node[*].appl.*.vector-recording true
config *.node[0].appl.breakRanksSafetyDistance 5m
config *.node[*].appl.minSpeed 100kmph
config *.node[*].appl.maxSpeed 120kmph
config *.node[*].protocol_type "\"SimplePlatooningBeaconing\""
config *.node[*].prot.*.scalar-recording true
config *.node[*].prot.*.vector-recording true
config *.node[*].prot.beaconingInterval 0.1s
config *.node[*].prot.priority 4
config *.node[*].prot.packetSize 200
config **.traffic_type "\"PlatoonsTrafficManager\""
config **.traffic.platoonInsertTime "1 s"
config **.traffic.platoonInsertSpeed 110kmph
config **.traffic.nCars 3
config **.traffic.platoonSize 3
config **.traffic.nLanes 1
config **.traffic.platooningVType "\"vtypeauto\""
config **.traffic.controller "\"CACC\""
config **.traffic.platoonInsertDistance 2m
config **.traffic.platoonInsertHeadway 0s
config **.traffic.platoonLeaderHeadway 1.2s
config **.scalar-recording false
config **.vector-recording false

vector 0 Highway.node[0].appl distance ETV
vector 1 Highway.node[0].appl relativeSpeed ETV
vector 2 Highway.node[0].appl nodeId ETV
vector 3 Highway.node[0].appl acceleration ETV
vector 4 Highway.node[0].appl controllerAcceleration ETV
vector 5 Highway.node[0].appl speed ETV
vector 6 Highway.node[0].appl posx ETV
vector 7 Highway.node[0].appl posy ETV
vector 8 Highway.node[1].appl distance ETV
vector 9 Highway.node[1].appl relativeSpeed ETV
vector 10 Highway.node[1].appl nodeId ETV
vector 11 Highway.node[1].appl acceleration ETV
vector 12 Highway.node[1].appl controllerAcceleration ETV
vector 13 Highway.node[1].appl speed ETV
vector 14 Highway.node[1].appl posx ETV
vector 15 Highway.node[1].appl posy ETV
vector 16 Highway.node[2].appl distance ETV
vector 17 Highway.node[2].appl relativeSpeed ETV
vector 18 Highway.node[2].appl nodeId ETV
vector 19 Highway.node[2].appl acceleration ETV
vector 20 Highway.node[2].appl controllerAcceleration ETV
vector 21 Highway.node[2].appl speed ETV
vector 22 Highway.node[2].appl posx ETV
vector 23 Highway.node[2].appl posy ETV
vector 24 Highway.node[1].prot leaderDelay ETV
vector 25 Highway.node[1].prot leaderDelayId ETV
vector 26 Highway.node[1].prot frontDelay ETV
vector 27 Highway.node[1].prot frontDelayId ETV
vector 28 Highway.node[2].prot leaderDelay ETV
vector 29 Highway.node[2].prot leaderDelayId ETV
vector 30 Highway.node[2].prot frontDelay ETV
vector 31 Highway.node[2].prot frontDelayId ETV
vector 32 Highway.node[0].prot nodeId ETV
vector 33 Highway.node[0].prot busyTime ETV
vector 34 Highway.node[0].prot collisions ETV
vector 35 Highway.node[1].prot nodeId ETV
vector 36 Highway.node[1].prot busyTime ETV
vector 37 Highway.node[1].prot collisions ETV
vector 38 Highway.node[2].prot nodeId ETV
vector 39 Highway.node[2].prot busyTime ETV
vector 40 Highway.node[2].prot collisions ETV
0	113	1.11	-1
0	204	1.21	-1
0	295	1.31	-1
0	386	1.41	-1
0	477	1.51	-1
0	568	1.61	-1
0	659	1.71	-1
0	750	1.81	-1
0	841	1.91	-1
0	935	2.01	-1
0	1026	2.11	-1
0	1117	2.21	-1
0	1208	2.31	-1
0	1299	2.41	-1
0	1390	2.51	-1
0	1481	2.61	-1
0	1572	2.71	-1
0	1663	2.81	-1
0	1754	2.91	-1
0	1848	3.01	-1
0	1939	3.11	-1
0	2030	3.21	-1
0	2121	3.31	-1
0	2212	3.41	-1
0	2303	3.51	-1
0	2394	3.61	-1
0	2485	3.71	-1
0	2576	3.81	-1
0	2667	3.91	-1
0	2761	4.01	-1
0	2852	4.11	-1
0	2943	4.21	-1
0	3034	4.31	-1
0	3125	4.41	-1
0	3216	4.51	-1
0	3307	4.61	-1
0	3398	4.71	-1
0	3489	4.81	-1
0	3580	4.91	-1
0	3674	5.01	-1
0	3765	5.11	-1
0	3856	5.21	-1
0	3947	5.31	-1
0	4038	5.41	-1
0	4129	5.51	-1
0	4220	5.61	-1
0	4311	5.71	-1
0	4402	5.81	-1
0	4493	5.91	-1
0	4587	6.01	-1
0	4678	6.11	-1
0	4769	6.21	-1
0	4860	6.31	-1
0	4951	6.41	-1
0	5042	6.51	-1
0	5133	6.61	-1
0	5224	6.71	-1
0	5315	6.81	-1
0	5406	6.91	-1
0	5500	7.01	-1
0	5591	7.11	-1
0	5682	7.21	-1
0	5773	7.31	-1
0	5864	7.41	-1
0	5955	7.51	-1
0	6046	7.61	-1
0	6137	7.71	-1
0	6228	7.81	-1
0	6319	7.91	-1
0	6413	8.01	-1
0	6504	8.11	-1
0	6595	8.21	-1
0	6686	8.31	-1
0	6777	8.41	-1
0	6868	8.51	-1
0	6959	8.61	-1
0	7050	8.71	-1
0	7141	8.81	-1
0	7232	8.91	-1
0	7326	9.01	-1
0	7417	9.11	-1
0	7508	9.21	-1
0	7599	9.31	-1
0	7690	9.41	-1
0	7781	9.51	-1
0	7872	9.61	-1
0	7963	9.71	-1
0	8054	9.81	-1
0	8145	9.91	-1
0	8268	10.01	-1
0	8361	10.11	-1
0	8454	10.21	-1
0	8547	10.31	-1
0	8640	10.41	-1
0	8733	10.51	-1
0	8826	10.61	-1
0	8919	10.71	-1
0	9012	10.81	-1
0	9105	10.91	-1
0	9201	11.01	-1
0	9294	11.11	-1
0	9387	11.21	-1
0	9480	11.31	-1
0	9573	11.41	-1
0	9666	11.51	-1
0	9759	11.61	-1
0	9852	11.71	-1
0	9945	11.81	-1
0	10038	11.91	-1
0	10134	12.01	-1
0	10227	12.11	-1
0	10320	12.21	-1
0	10413	12.31	-1
0	10506	12.41	-1
0	10599	12.51	-1
0	10692	12.61	-1
0	10785	12.71	-1
0	10878	12.81	-1
0	10971	12.91	-1
0	11067	13.01	-1
0	11160	13.11	-1
0	11253	13.21	-1
0	11346	13.31	-1
0	11439	13.41	-1
0	11532	13.51	-1
0	11625	13.61	-1
0	11718	13.71	-1
0	11811	13.81	-1
0	11904	13.91	-1
0	12000	14.01	-1
0	12093	14.11	-1
0	12186	14.21	-1
0	12279	14.31	-1
0	12372	14.41	-1
0	12465	14.51	-1
0	12558	14.61	-1
0	12651	14.71	-1
0	12744	14.81	-1
0	12837	14.91	-1
0	12933	15.01	-1
0	13026	15.11	-1
0	13119	15.21	-1
0	13212	15.31	-1
0	13305	15.41	-1
0	13398	15.51	-1
0	13491	15.61	-1
0	13584	15.71	-1
0	13677	15.81	-1
0	13770	15.91	-1
0	13866	16.01	-1
0	13959	16.11	-1
0	14052	16.21	-1
0	14145	16.31	-1
0	14238	16.41	-1
0	14331	16.51	-1
0	14424	16.61	-1
0	14517	16.71	-1
0	14610	16.81	-1
0	14703	16.91	-1
0	14799	17.01	-1
0	14892	17.11	-1
0	14985	17.21	-1
0	15078	17.31	-1
0	15171	17.41	-1
0	15264	17.51	-1
0	15357	17.61	-1
0	15450	17.71	-1
0	15543	17.81	-1
0	15636	17.91	-1
0	15732	18.01	-1
0	15825	18.11	-1
0	15918	18.21	-1
0	16011	18.31	-1
0	16104	18.41	-1
0	16197	18.51	-1
0	16290	18.61	-1
0	16383	18.71	-1
0	16476	18.81	-1
0	16569	18.91	-1
0	16665	19.01	-1
0	16758	19.11	-1
0	16851	19.21	-1
0	16944	19.31	-1
0	17037	19.41	-1
0	17130	19.51	-1
0	17223	19.61	-1
0	17316	19.71	-1
0	17409	19.81	-1
0	17502	19.91	-1
0	17598	20.01	-1
0	17691	20.11	-1
0	17784	20.21	-1
0	17877	20.31	-1
0	17970	20.41	-1
0	18063	20.51	-1
0	18156	20.61	-1
0	18249	20.71	-1
0	18342	20.81	-1
0	18435	20.91	-1
0	18531	21.01	-1
0	18624	21.11	-1
0	18717	21.21	-1
0	18810	21.31	-1
0	18903	21.41	-1
0	18996	21.51	-1
0	19089	21.61	-1
0	19182	21.71	-1
0	19275	21.81	-1
0	19368	21.91	-1
0	19464	22.01	-1
0	19557	22.11	-1
0	19650	22.21	-1
0	19743	22.31	-1
0	19836	22.41	-1
0	19929	22.51	-1
0	20022	22.61	-1
0	20115	22.71	-1
0	20208	22.81	-1
0	20301	22.91	-1
0	20397	23.01	-1
0	20490	23.11	-1
0	20583	23.21	-1
0	20676	23.31	-1
0	20769	23.41	-1
0	20862	23.51	-1
0	20955	23.61	-1
0	21048	23.71	-1
0	21141	23.81	-1
0	21234	23.91	-1
0	21330	24.01	-1
0	21423	24.11	-1
0	21516	24.21	-1
0	21609	24.31	-1
0	21702	24.41	-1
0	21795	24.51	-1
0	21888	24.61	-1
0	21981	24.71	-1
0	22074	24.81	-1
0	22167	24.91	-1
0	22263	25.01	-1
0	22356	25.11	-1
0	22449	25.21	-1
0	22542	25.31	-1
0	22635	25.41	-1
0	22728	25.51	-1
0	22821	25.61	-1
0	22914	25.71	-1
0	23007	25.81	-1
0	23100	25.91	-1
0	23196	26.01	-1
0	23289	26.11	-1
0	23382	26.21	-1
0	23475	26.31	-1
0	23568	26.41	-1
0	23661	26.51	-1
0	23754	26.61	-1
0	23847	26.71	-1
0	23940	26.81	-1
0	24033	26.91	-1
0	24129	27.01	-1
0	24222	27.11	-1
0	24315	27.21	-1
0	24408	27.31	-1
0	24501	27.41	-1
0	24594	27.51	-1
0	24687	27.61	-1
0	24780	27.71	-1
0	24873	27.81	-1
0	24966	27.91	-1
0	25062	28.01	-1
0	25155	28.11	-1
0	25248	28.21	-1
0	25341	28.31	-1
0	25434	28.41	-1
0	25527	28.51	-1
0	25620	28.61	-1
0	25713	28.71	-1
0	25806	28.81	-1
0	25899	28.91	-1
0	25995	29.01	-1
0	26088	29.11	-1
0	26181	29.21	-1
0	26274	29.31	-1
0	26367	29.41	-1
0	26460	29.51	-1
0	26553	29.61	-1
0	26646	29.71	-1
0	26739	29.81	-1
0	26832	29.91	-1
0	26928	30.01	-1
0	27021	30.11	-1
0	27114	30.21	-1
0	27207	30.31	-1
0	27300	30.41	-1
0	27393	30.51	-1
0	27486	30.61	-1
0	27579	30.71	-1
0	27672	30.81	-1
0	27765	30.91	-1
0	27861	31.01	-1
0	27954	31.11	-1
0	28047	31.21	-1
0	28140	31.31	-1
0	28233	31.41	-1
0	28326	31.51	-1
0	28419	31.61	-1
0	28512	31.71	-1
0	28605	31.81	-1
0	28698	31.91	-1
0	28794	32.01	-1
0	28887	32.11	-1
0	28980	32.21	-1
0	29073	32.31	-1
0	29166	32.41	-1
0	29259	32.51	-1
0	29352	32.61	-1
0	29445	32.71	-1
0	29538	32.81	-1
0	29631	32.91	-1
0	29727	33.01	-1
0	29820	33.11	-1
0	29913	33.21	-1
0	30006	33.31	-1
0	30099	33.41	-1
0	30192	33.51	-1
0	30285	33.61	-1
0	30378	33.71	-1
0	30471	33.81	-1
0	30564	33.91	-1
0	30660	34.01	-1
0	30753	34.11	-1
0	30846	34.21	-1
0	30939	34.31	-1
0	31032	34.41	-1
0	31125	34.51	-1
0	31218	34.61	-1
0	31311	34.71	-1
0	31404	34.81	-1
0	31497	34.91	-1
0	31593	35.01	-1
0	31686	35.11	-1
0	31779	35.21	-1
0	31872	35.31	-1
0	31965	35.41	-1
0	32058	35.51	-1
0	32151	35.61	-1
0	32244	35.71	-1
0	32337	35.81	-1
0	32430	35.91	-1
0	32526	36.01	-1
0	32619	36.11	-1
0	32712	36.21	-1
0	32805	36.31	-1
0	32941	36.41	-1
0	33033	36.51	-1
0	33125	36.61	-1
0	33217	36.71	-1
0	33309	36.81	-1
0	33401	36.91	-1
0	33496	37.01	-1
0	33588	37.11	-1
0	33680	37.21	-1
0	33772	37.31	-1
0	33864	37.41	-1
0	33956	37.51	-1
0	34048	37.61	-1
0	34140	37.71	-1
0	34232	37.81	-1
0	34324	37.91	-1
0	34419	38.01	-1
0	34511	38.11	-1
0	34603	38.21	-1
0	34695	38.31	-1
0	34787	38.41	-1
0	34879	38.51	-1
0	34971	38.61	-1
0	35063	38.71	-1
0	35155	38.81	-1
0	35247	38.91	-1
0	35342	39.01	-1
0	35434	39.11	-1
0	35526	39.21	-1
0	35618	39.31	-1
0	35710	39.41	-1
0	35802	39.51	-1
0	35894	39.61	-1
0	35986	39.71	-1
0	36078	39.81	-1
0	36170	39.91	-1
0	36265	40.01	-1
0	36357	40.11	-1
0	36449	40.21	-1
0	36541	40.31	-1
0	36633	40.41	-1
0	36725	40.51	-1
0	36817	40.61	-1
0	36909	40.71	-1
0	37001	40.81	-1
0	37093	40.91	-1
0	37188	41.01	-1
0	37280	41.11	-1
0	37372	41.21	-1
0	37464	41.31	-1
0	37556	41.41	-1
0	37777	41.51	-1
0	37868	41.61	-1
0	37959	41.71	-1
0	38050	41.81	-1
0	38141	41.91	-1
0	38235	42.01	-1
0	38326	42.11	-1
0	38417	42.21	-1
0	38508	42.31	-1
0	38599	42.41	-1
0	38690	42.51	-1
0	38781	42.61	-1
0	38872	42.71	-1
0	38963	42.81	-1
0	39054	42.91	-1
0	39148	43.01	-1
0	39239	43.11	-1
0	39330	43.21	-1
0	39421	43.31	-1
0	39512	43.41	-1
0	39603	43.51	-1
0	39694	43.61	-1
0	39785	43.71	-1
0	39876	43.81	-1
0	39967	43.91	-1
0	40061	44.01	-1
0	40152	44.11	-1
0	40243	44.21	-1
0	40334	44.31	-1
0	40425	44.41	-1
0	40516	44.51	-1
0	40607	44.61	-1
0	40698	44.71	-1
0	40789	44.81	-1
0	40880	44.91	-1
0	40974	45.01	-1
0	41065	45.11	-1
0	41156	45.21	-1
0	41247	45.31	-1
0	41338	45.41	-1
0	41429	45.51	-1
0	41520	45.61	-1
0	41611	45.71	-1
0	41702	45.81	-1
0	41793	45.91	-1
0	41887	46.01	-1
0	41978	46.11	-1
0	42069	46.21	-1
0	42160	46.31	-1
0	42251	46.41	-1
0	42342	46.51	-1
0	42433	46.61	-1
0	42524	46.71	-1
0	42615	46.81	-1
0	42706	46.91	-1
0	42800	47.01	-1
0	42891	47.11	-1
0	42982	47.21	-1
0	43073	47.31	-1
0	43164	47.41	-1
0	43255	47.51	-1
0	43346	47.61	-1
0	43437	47.71	-1
0	43528	47.81	-1
0	43619	47.91	-1
0	43713	48.01	-1
0	43804	48.11	-1
0	43895	48.21	-1
0	43986	48.31	-1
0	44077	48.41	-1
0	44168	48.51	-1
0	44259	48.61	-1
0	44350	48.71	-1
0	44441	48.81	-1
0	44532	48.91	-1
0	44626	49.01	-1
0	44717	49.11	-1
0	44808	49.21	-1
0	44899	49.31	-1
0	44990	49.41	-1
0	45081	49.51	-1
0	45172	49.61	-1
0	45263	49.71	-1
0	45354	49.81	-1
0	45445	49.91	-1
0	45539	50.01	-1
0	45630	50.11	-1
0	45721	50.21	-1
0	45812	50.31	-1
0	45903	50.41	-1
0	45994	50.51	-1
0	46085	50.61	-1
0	46176	50.71	-1
0	46267	50.81	-1
0	46358	50.91	-1
0	46452	51.01	-1
0	46543	51.11	-1
0	46634	51.21	-1
0	46725	51.31	-1
0	46816	51.41	-1
0	46907	51.51	-1
0	46998	51.61	-1
0	47089	51.71	-1
0	47180	51.81	-1
0	47271	51.91	-1
0	47365	52.01	-1
0	47456	52.11	-1
0	47547	52.21	-1
0	47638	52.31	-1
0	47729	52.41	-1
0	47820	52.51	-1
0	47911	52.61	-1
0	48002	52.71	-1
0	48093	52.81	-1
0	48184	52.91	-1
0	48278	53.01	-1
0	48369	53.11	-1
0	48460	53.21	-1
0	48551	53.31	-1
0	48642	53.41	-1
0	48733	53.51	-1
0	48824	53.61	-1
0	48915	53.71	-1
0	49006	53.81	-1
0	49097	53.91	-1
0	49191	54.01	-1
0	49282	54.11	-1
0	49373	54.21	-1
0	49464	54.31	-1
0	49555	54.41	-1
0	49646	54.51	-1
0	49737	54.61	-1
0	49828	54.71	-1
0	49919	54.81	-1
0	50010	54.91	-1
0	50104	55.01	-1
0	50195	55.11	-1
0	50286	55.21	-1
0	50377	55.31	-1
0	50468	55.41	-1
0	50559	55.51	-1
0	50650	55.61	-1
0	50741	55.71	-1
0	50832	55.81	-1
0	50923	55.91	-1
0	51017	56.01	-1
0	51108	56.11	-1
0	51199	56.21	-1
0	51290	56.31	-1
0	51381	56.41	-1
0	51472	56.51	-1
0	51563	56.61	-1
0	51654	56.71	-1
0	51745	56.81	-1
0	51836	56.91	-1
0	51930	57.01	-1
0	52021	57.11	-1
0	52112	57.21	-1
0	52203	57.31	-1
0	52294	57.41	-1
0	52385	57.51	-1
0	52476	57.61	-1
0	52567	57.71	-1
0	52658	57.81	-1
0	52749	57.91	-1
0	52843	58.01	-1
0	52934	58.11	-1
0	53025	58.21	-1
0	53116	58.31	-1
0	53207	58.41	-1
0	53298	58.51	-1
0	53389	58.61	-1
0	53480	58.71	-1
0	53571	58.81	-1
0	53662	58.91	-1
0	53756	59.01	-1
0	53847	59.11	-1
0	53938	59.21	-1
0	54029	59.31	-1
0	54120	59.41	-1
0	54211	59.51	-1
0	54302	59.61	-1
0	54393	59.71	-1
0	54484	59.81	-1
0	54575	59.91	-1
0	54669	60.01	-1
0	54760	60.11	-1
0	54851	60.21	-1
0	54942	60.31	-1
0	55033	60.41	-1
0	55124	60.51	-1
0	55215	60.61	-1
0	55306	60.71	-1
0	55397	60.81	-1
0	55488	60.91	-1
0	55582	61.01	-1
0	55673	61.11	-1
0	55764	61.21	-1
0	55855	61.31	-1
0	55946	61.41	-1
0	56037	61.51	-1
0	56128	61.61	-1
0	56219	61.71	-1
0	56310	61.81	-1
0	56401	61.91	-1
0	56495	62.01	-1
0	56586	62.11	-1
0	56677	62.21	-1
0	56768	62.31	-1
0	56859	62.41	-1
0	56950	62.51	-1
0	57041	62.61	-1
0	57132	62.71	-1
0	57223	62.81	-1
0	57314	62.91	-1
0	57408	63.01	-1
0	57499	63.11	-1
0	57590	63.21	-1
0	57681	63.31	-1
0	57772	63.41	-1
0	57863	63.51	-1
0	57954	63.61	-1
0	58045	63.71	-1
0	58136	63.81	-1
0	58227	63.91	-1
0	58321	64.01	-1
0	58412	64.11	-1
0	58503	64.21	-1
0	58594	64.31	-1
0	58685	64.41	-1
0	58776	64.51	-1
0	58867	64.61	-1
0	58958	64.71	-1
0	59049	64.81	-1
0	59140	64.91	-1
0	59234	65.01	-1
0	59325	65.11	-1
0	59416	65.21	-1
0	59507	65.31	-1
0	59598	65.41	-1
0	59689	65.51	-1
0	59780	65.61	-1
0	59871	65.71	-1
0	59962	65.81	-1
0	60053	65.91	-1
0	60147	66.01	-1
0	60238	66.11	-1
0	60329	66.21	-1
0	60420	66.31	-1
0	60511	66.41	-1
0	60602	66.51	-1
0	60693	66.61	-1
0	60784	66.71	-1
0	60875	66.81	-1
0	60966	66.91	-1
0	61060	67.01	-1
0	61151	67.11	-1
0	61242	67.21	-1
0	61333	67.31	-1
0	61424	67.41	-1
0	61515	67.51	-1
0	61606	67.61	-1
0	61697	67.71	-1
0	61788	67.81	-1
0	61879	67.91	-1
0	61973	68.01	-1
0	62064	68.11	-1
0	62155	68.21	-1
0	62246	68.31	-1
0	62337	68.41	-1
0	62428	68.51	-1
0	62519	68.61	-1
0	62610	68.71	-1
0	62701	68.81	-1
0	62792	68.91	-1
0	62886	69.01	-1
0	62977	69.11	-1
0	63068	69.21	-1
0	63159	69.31	-1
0	63250	69.41	-1
0	63341	69.51	-1
0	63432	69.61	-1
0	63523	69.71	-1
0	63614	69.81	-1
0	63705	69.91	-1
0	63799	70.01	-1
0	63890	70.11	-1
0	63981	70.21	-1
0	64072	70.31	-1
0	64163	70.41	-1
0	64254	70.51	-1
0	64345	70.61	-1
0	64436	70.71	-1
0	64527	70.81	-1
0	64618	70.91	-1
0	64712	71.01	-1
0	64803	71.11	-1
0	64894	71.21	-1
0	64985	71.31	-1
0	65076	71.41	-1
0	65167	71.51	-1
0	65258	71.61	-1
0	65349	71.71	-1
0	65440	71.81	-1
0	65531	71.91	-1
0	65625	72.01	-1
0	65716	72.11	-1
0	65807	72.21	-1
0	65898	72.31	-1
0	65989	72.41	-1
0	66080	72.51	-1
0	66171	72.61	-1
0	66262	72.71	-1
0	66353	72.81	-1
0	66444	72.91	-1
0	66538	73.01	-1
0	66629	73.11	-1
0	66720	73.21	-1
0	66811	73.31	-1
0	66902	73.41	-1
0	66993	73.51	-1
0	67084	73.61	-1
0	67175	73.71	-1
0	67266	73.81	-1
0	67357	73.91	-1
0	67451	74.01	-1
0	67542	74.11	-1
0	67633	74.21	-1
0	67724	74.31	-1
0	67815	74.41	-1
0	67906	74.51	-1
0	67997	74.61	-1
0	68088	74.71	-1
0	68179	74.81	-1
0	68270	74.91	-1
0	68364	75.01	-1
0	68455	75.11	-1
0	68546	75.21	-1
0	68637	75.31	-1
0	68728	75.41	-1
0	68819	75.51	-1
0	68910	75.61	-1
0	69001	75.71	-1
0	69092	75.81	-1
0	69183	75.91	-1
0	69277	76.01	-1
0	69368	76.11	-1
0	69459	76.21	-1
0	69550	76.31	-1
0	69641	76.41	-1
0	69732	76.51	-1
0	69823	76.61	-1
0	69914	76.71	-1
0	70005	76.81	-1
0	70096	76.91	-1
0	70190	77.01	-1
0	70281	77.11	-1
0	70372	77.21	-1
0	70463	77.31	-1
0	70554	77.41	-1
0	70645	77.51	-1
0	70736	77.61	-1
0	70827	77.71	-1
0	70918	77.81	-1
0	71009	77.91	-1
0	71103	78.01	-1
0	71194	78.11	-1
0	71285	78.21	-1
0	71376	78.31	-1
0	71467	78.41	-1
0	71558	78.51	-1
0	71649	78.61	-1
0	71740	78.71	-1
0	71831	78.81	-1
0	71922	78.91	-1
0	72016	79.01	-1
0	72107	79.11	-1
0	72198	79.21	-1
0	72289	79.31	-1
0	72380	79.41	-1
0	72471	79.51	-1
0	72562	79.61	-1
0	72653	79.71	-1
0	72744	79.81	-1
0	72835	79.91	-1
0	72929	80.01	-1
0	73020	80.11	-1
0	73111	80.21	-1
0	73202	80.31	-1
0	73293	80.41	-1
0	73384	80.51	-1
0	73475	80.61	-1
0	73566	80.71	-1
0	73657	80.81	-1
0	73748	80.91	-1
0	73842	81.01	-1
0	73933	81.11	-1
0	74024	81.21	-1
0	74115	81.31	-1
0	74206	81.41	-1
0	74297	81.51	-1
0	74388	81.61	-1
0	74479	81.71	-1
0	74570	81.81	-1
0	74661	81.91	-1
0	74755	82.01	-1
0	74846	82.11	-1
0	74937	82.21	-1
0	75028	82.31	-1
0	75119	82.41	-1
0	75210	82.51	-1
0	75301	82.61	-1
0	75392	82.71	-1
0	75483	82.81	-1
0	75574	82.91	-1
0	75668	83.01	-1
0	75759	83.11	-1
0	75850	83.21	-1
0	75941	83.31	-1
0	76032	83.41	-1
0	76123	83.51	-1
0	76214	83.61	-1
0	76305	83.71	-1
0	76396	83.81	-1
0	76487	83.91	-1
0	76581	84.01	-1
0	76672	84.11	-1
0	76763	84.21	-1
0	76854	84.31	-1
0	76945	84.41	-1
0	77036	84.51	-1
0	77127	84.61	-1
0	77218	84.71	-1
0	77309	84.81	-1
0	77400	84.91	-1
0	77494	85.01	-1
0	77585	85.11	-1
0	77676	85.21	-1
0	77767	85.31	-1
0	77858	85.41	-1
0	77949	85.51	-1
0	78040	85.61	-1
0	78131	85.71	-1
0	78222	85.81	-1
0	78313	85.91	-1
0	78407	86.01	-1
0	78498	86.11	-1
0	78589	86.21	-1
0	78680	86.31	-1
0	78771	86.41	-1
0	78862	86.51	-1
0	78953	86.61	-1
0	79044	86.71	-1
0	79135	86.81	-1
0	79226	86.91	-1
0	79320	87.01	-1
0	79411	87.11	-1
0	79502	87.21	-1
0	79593	87.31	-1
0	79684	87.41	-1
0	79775	87.51	-1
0	79866	87.61	-1
0	79957	87.71	-1
0	80048	87.81	-1
0	80139	87.91	-1
0	80233	88.01	-1
0	80324	88.11	-1
0	80415	88.21	-1
0	80506	88.31	-1
0	80597	88.41	-1
0	80688	88.51	-1
0	80779	88.61	-1
0	80870	88.71	-1
0	80961	88.81	-1
0	81052	88.91	-1
0	81146	89.01	-1
0	81237	89.11	-1
0	81328	89.21	-1
0	81419	89.31	-1
0	81510	89.41	-1
0	81601	89.51	-1
0	81692	89.61	-1
0	81783	89.71	-1
0	81874	89.81	-1
0	81965	89.91	-1
0	82059	90.01	-1
0	82150	90.11	-1
0	82241	90.21	-1
0	82332	90.31	-1
0	82423	90.41	-1
0	82514	90.51	-1
0	82605	90.61	-1
0	82696	90.71	-1
0	82787	90.81	-1
0	82878	90.91	-1
0	82972	91.01	-1
0	83063	91.11	-1
0	83154	91.21	-1
0	83245	91.31	-1
0	83336	91.41	-1
0	83427	91.51	-1
0	83518	91.61	-1
0	83609	91.71	-1
0	83700	91.81	-1
0	83791	91.91	-1
0	83885	92.01	-1
0	83976	92.11	-1
0	84067	92.21	-1
0	84158	92.31	-1
0	84249	92.41	-1
0	84340	92.51	-1
0	84431	92.61	-1
0	84522	92.71	-1
0	84613	92.81	-1
0	84704	92.91	-1
0	84798	93.01	-1
0	84889	93.11	-1
0	84980	93.21	-1
0	85071	93.31	-1
0	85162	93.41	-1
0	85253	93.51	-1
0	85344	93.61	-1
0	85435	93.71	-1
0	85526	93.81	-1
0	85617	93.91	-1
0	85711	94.01	-1
0	85802	94.11	-1
0	85893	94.21	-1
0	85984	94.31	-1
0	86075	94.41	-1
0	86166	94.51	-1
0	86257	94.61	-1
0	86348	94.71	-1
0	86439	94.81	-1
0	86530	94.91	-1
0	86624	95.01	-1
0	86715	95.11	-1
0	86806	95.21	-1
0	86897	95.31	-1
0	86988	95.41	-1
0	87079	95.51	-1
0	87170	95.61	-1
0	87261	95.71	-1
0	87352	95.81	-1
0	87443	95.91	-1
0	87537	96.01	-1
0	87628	96.11	-1
0	87719	96.21	-1
0	87810	96.31	-1
0	87901	96.41	-1
0	87992	96.51	-1
0	88083	96.61	-1
0	88174	96.71	-1
0	88265	96.81	-1
0	88356	96.91	-1
0	88450	97.01	-1
0	88541	97.11	-1
0	88632	97.21	-1
0	88723	97.31	-1
0	88814	97.41	-1
0	88905	97.51	-1
0	88996	97.61	-1
0	89087	97.71	-1
0	89178	97.81	-1
0	89269	97.91	-1
0	89363	98.01	-1
0	89454	98.11	-1
0	89545	98.21	-1
0	89636	98.31	-1
0	89727	98.41	-1
0	89818	98.51	-1
0	89909	98.61	-1
0	90000	98.71	-1
0	90091	98.81	-1
0	90182	98.91	-1
0	90276	99.01	-1
0	90367	99.11	-1
0	90458	99.21	-1
0	90549	99.31	-1
0	90640	99.41	-1
0	90731	99.51	-1
0	90822	99.61	-1
0	90913	99.71	-1
0	91004	99.81	-1
0	91095	99.91	-1
1	113	1.11	0
1	204	1.21	0
1	295	1.31	0
1	386	1.41	0
1	477	1.51	0
1	568	1.61	0
1	659	1.71	0
1	750	1.81	0
1	841	1.91	0
1	935	2.01	0
1	1026	2.11	0
1	1117	2.21	0
1	1208	2.31	0
1	1299	2.41	0
1	1390	2.51	0
1	1481	2.61	0
1	1572	2.71	0
1	1663	2.81	0
1	1754	2.91	0
1	1848	3.01	0
1	1939	3.11	0
1	2030	3.21	0
1	2121	3.31	0
1	2212	3.41	0
1	2303	3.51	0
1	2394	3.61	0
1	2485	3.71	0
1	2576	3.81	0
1	2667	3.91	0
1	2761	4.01	0
1	2852	4.11	0
1	2943	4.21	0
1	3034	4.31	0
1	3125	4.41	0
1	3216	4.51	0
1	3307	4.61	0
1	3398	4.71	0
1	3489	4.81	0
1	3580	4.91	0
1	3674	5.01	0
1	3765	5.11	0
1	3856	5.21	0
1	3947	5.31	0
1	4038	5.41	0
1	4129	5.51	0
1	4220	5.61	0
1	4311	5.71	0
1	4402	5.81	0
1	4493	5.91	0
1	4587	6.01	0
1	4678	6.11	0
1	4769	6.21	0
1	4860	6.31	0
1	4951	6.41	0
1	5042	6.51	0
1	5133	6.61	0
1	5224	6.71	0
1	5315	6.81	0
1	5406	6.91	0
1	5500	7.01	0
1	5591	7.11	0
1	5682	7.21	0
1	5773	7.31	0
1	5864	7.41	0
1	5955	7.51	0
1	6046	7.61	0
1	6137	7.71	0
1	6228	7.81	0
1	6319	7.91	0
1	6413	8.01	0
1	6504	8.11	0
1	6595	8.21	0
1	6686	8.31	0
1	6777	8.41	0
1	6868	8.51	0
1	6959	8.61	0
1	7050	8.71	0
1	7141	8.81	0
1	7232	8.91	0
1	7326	9.01	0
1	7417	9.11	0
1	7508	9.21	0
1	7599	9.31	0
1	7690	9.41	0
1	7781	9.51	0
1	7872	9.61	0
1	7963	9.71	0
1	8054	9.81	0
1	8145	9.91	0
1	8268	10.01	0
1	8361	10.11	0
1	8454	10.21	0
1	8547	10.31	0
1	8640	10.41	0
1	8733	10.51	0
1	8826	10.61	0
1	8919	10.71	0
1	9012	10.81	0
1	9105	10.91	0
1	9201	11.01	0
1	9294	11.11	0
1	9387	11.21	0
1	9480	11.31	0
1	9573	11.41	0
1	9666	11.51	0
1	9759	11.61	0
1	9852	11.71	0
1	9945	11.81	0
1	10038	11.91	0
1	10134	12.01	0
1	10227	12.11	0
1	10320	12.21	0
1	10413	12.31	0
1	10506	12.41	0
1	10599	12.51	0
1	10692	12.61	0
1	10785	12.71	0
1	10878	12.81	0
1	10971	12.91	0
1	11067	13.01	0
1	11160	13.11	0
1	11253	13.21	0
1	11346	13.31	0
1	11439	13.41	0
1	11532	13.51	0
1	11625	13.61	0
1	11718	13.71	0
1	11811	13.81	0
1	11904	13.91	0
1	12000	14.01	0
1	12093	14.11	0
1	12186	14.21	0
1	12279	14.31	0
1	12372	14.41	0
1	12465	14.51	0
1	12558	14.61	0
1	12651	14.71	0
1	12744	14.81	0
1	12837	14.91	0
1	12933	15.01	0
1	13026	15.11	0
1	13119	15.21	0
1	13212	15.31	0
1	13305	15.41	0
1	13398	15.51	0
1	13491	15.61	0
1	13584	15.71	0
1	13677	15.81	0
1	13770	15.91	0
1	13866	16.01	0
1	13959	16.11	0
1	14052	16.21	0
1	14145	16.31	0
1	14238	16.41	0
1	14331	16.51	0
1	14424	16.61	0
1	14517	16.71	0
1	14610	16.81	0
1	14703	16.91	0
1	14799	17.01	0
1	14892	17.11	0
1	14985	17.21	0
1	15078	17.31	0
1	15171	17.41	0
1	15264	17.51	0
1	15357	17.61	0
1	15450	17.71	0
1	15543	17.81	0
1	15636	17.91	0
1	15732	18.01	0
1	15825	18.11	0
1	15918	18.21	0
1	16011	18.31	0
1	16104	18.41	0
1	16197	18.51	0
1	16290	18.61	0
1	16383	18.71	0
1	16476	18.81	0
1	16569	18.91	0
1	16665	19.01	0
1	16758	19.11	0
1	16851	19.21	0
1	16944	19.31	0
1	17037	19.41	0
1	17130	19.51	0
1	17223	19.61	0
1	17316	19.71	0
1	17409	19.81	0
1	17502	19.91	0
1	17598	20.01	0
1	17691	20.11	0
1	17784	20.21	0
1	17877	20.31	0
1	17970	20.41	0
1	18063	20.51	0
1	18156	20.61	0
1	18249	20.71	0
1	18342	20.81	0
1	18435	20.91	0
1	18531	21.01	0
1	18624	21.11	0
1	18717	21.21	0
1	18810	21.31	0
1	18903	21.41	0
1	18996	21.51	0
1	19089	21.61	0
1	19182	21.71	0
1	19275	21.81	0
1	19368	21.91	0
1	19464	22.01	0
1	19557	22.11	0
1	19650	22.21	0
1	19743	22.31	0
1	19836	22.41	0
1	19929	22.51	0
1	20022	22.61	0
1	20115	22.71	0
1	20208	22.81	0
1	20301	22.91	0
1	20397	23.01	0
1	20490	23.11	0
1	20583	23.21	0
1	20676	23.31	0
1	20769	23.41	0
1	20862	23.51	0
1	20955	23.61	0
1	21048	23.71	0
1	21141	23.81	0
1	21234	23.91	0
1	21330	24.01	0
1	21423	24.11	0
1	21516	24.21	0
1	21609	24.31	0
1	21702	24.41	0
1	21795	24.51	0
1	21888	24.61	0
1	21981	24.71	0
1	22074	24.81	0
1	22167	24.91	0
1	22263	25.01	0
1	22356	25.11	0
1	22449	25.21	0
1	22542	25.31	0
1	22635	25.41	0
1	22728	25.51	0
1	22821	25.61	0
1	22914	25.71	0
1	23007	25.81	0
1	23100	25.91	0
1	23196	26.01	0
1	23289	26.11	0
1	23382	26.21	0
1	23475	26.31	0
1	23568	26.41	0
1	23661	26.51	0
1	23754	26.61	0
1	23847	26.71	0
1	23940	26.81	0
1	24033	26.91	0
1	24129	27.01	0
1	24222	27.11	0
1	24315	27.21	0
1	24408	27.31	0
1	24501	27.41	0
1	24594	27.51	0
1	24687	27.61	0
1	24780	27.71	0
1	24873	27.81	0
1	24966	27.91	0
1	25062	28.01	0
1	25155	28.11	0
1	25248	28.21	0
1	25341	28.31	0
1	25434	28.41	0
1	25527	28.51	0
1	25620	28.61	0
1	25713	28.71	0
1	25806	28.81	0
1	25899	28.91	0
1	25995	29.01	0
1	26088	29.11	0
1	26181	29.21	0
1	26274	29.31	0
1	26367	29.41	0
1	26460	29.51	0
1	26553	29.61	0
1	26646	29.71	0
1	26739	29.81	0
1	26832	29.91	0
1	26928	30.01	0
1	27021	30.11	0
1	27114	30.21	0
1	27207	30.31	0
1	27300	30.41	0
1	27393	30.51	0
1	27486	30.61	0
1	27579	30.71	0
1	27672	30.81	0
1	27765	30.91	0
1	27861	31.01	0
1	27954	31.11	0
1	28047	31.21	0
1	28140	31.31	0
1	28233	31.41	0
1	28326	31.51	0
1	28419	31.61	0
1	28512	31.71	0
1	28605	31.81	0
1	28698	31.91	0
1	28794	32.01	0
1	28887	32.11	0
1	28980	32.21	0
1	29073	32.31	0
1	29166	32.41	0
1	29259	32.51	0
1	29352	32.61	0
1	29445	32.71	0
1	29538	32.81	0
1	29631	32.91	0
1	29727	33.01	0
1	29820	33.11	0
1	29913	33.21	0
1	30006	33.31	0
1	30099	33.41	0
1	30192	33.51	0
1	30285	33.61	0
1	30378	33.71	0
1	30471	33.81	0
1	30564	33.91	0
1	30660	34.01	0
1	30753	34.11	0
1	30846	34.21	0
1	30939	34.31	0
1	31032	34.41	0
1	31125	34.51	0
1	31218	34.61	0
1	31311	34.71	0
1	31404	34.81	0
1	31497	34.91	0
1	31593	35.01	0
1	31686	35.11	0
1	31779	35.21	0
1	31872	35.31	0
1	31965	35.41	0
1	32058	35.51	0
1	32151	35.61	0
1	32244	35.71	0
1	32337	35.81	0
1	32430	35.91	0
1	32526	36.01	0
1	32619	36.11	0
1	32712	36.21	0
1	32805	36.31	0
1	32941	36.41	0
1	33033	36.51	0
1	33125	36.61	0
1	33217	36.71	0
1	33309	36.81	0
1	33401	36.91	0
1	33496	37.01	0
1	33588	37.11	0
1	33680	37.21	0
1	33772	37.31	0
1	33864	37.41	0
1	33956	37.51	0
1	34048	37.61	0
1	34140	37.71	0
1	34232	37.81	0
1	34324	37.91	0
1	34419	38.01	0
1	34511	38.11	0
1	34603	38.21	0
1	34695	38.31	0
1	34787	38.41	0
1	34879	38.51	0
1	34971	38.61	0
1	35063	38.71	0
1	35155	38.81	0
1	35247	38.91	0
1	35342	39.01	0
1	35434	39.11	0
1	35526	39.21	0
1	35618	39.31	0
1	35710	39.41	0
1	35802	39.51	0
1	35894	39.61	0
1	35986	39.71	0
1	36078	39.81	0
1	36170	39.91	0
1	36265	40.01	0
1	36357	40.11	0
1	36449	40.21	0
1	36541	40.31	0
1	36633	40.41	0
1	36725	40.51	0
1	36817	40.61	0
1	36909	40.71	0
1	37001	40.81	0
1	37093	40.91	0
1	37188	41.01	0
1	37280	41.11	0
1	37372	41.21	0
1	37464	41.31	0
1	37556	41.41	0
1	37777	41.51	0
1	37868	41.61	0
1	37959	41.71	0
1	38050	41.81	0
1	38141	41.91	0
1	38235	42.01	0
1	38326	42.11	0
1	38417	42.21	0
1	38508	42.31	0
1	38599	42.41	0
1	38690	42.51	0
1	38781	42.61	0
1	38872	42.71	0
1	38963	42.81	0
1	39054	42.91	0
1	39148	43.01	0
1	39239	43.11	0
1	39330	43.21	0
1	39421	43.31	0
1	39512	43.41	0
1	39603	43.51	0
1	39694	43.61	0
1	39785	43.71	0
1	39876	43.81	0
1	39967	43.91	0
1	40061	44.01	0
1	40152	44.11	0
1	40243	44.21	0
1	40334	44.31	0
1	40425	44.41	0
1	40516	44.51	0
1	40607	44.61	0
1	40698	44.71	0
1	40789	44.81	0
1	40880	44.91	0
1	40974	45.01	0
1	41065	45.11	0
1	41156	45.21	0
1	41247	45.31	0
1	41338	45.41	0
1	41429	45.51	0
1	41520	45.61	0
1	41611	45.71	0
1	41702	45.81	0
1	41793	45.91	0
1	41887	46.01	0
1	41978	46.11	0
1	42069	46.21	0
1	42160	46.31	0
1	42251	46.41	0
1	42342	46.51	0
1	42433	46.61	0
1	42524	46.71	0
1	42615	46.81	0
1	42706	46.91	0
1	42800	47.01	0
1	42891	47.11	0
1	42982	47.21	0
1	43073	47.31	0
1	43164	47.41	0
1	43255	47.51	0
1	43346	47.61	0
1	43437	47.71	0
1	43528	47.81	0
1	43619	47.91	0
1	43713	48.01	0
1	43804	48.11	0
1	43895	48.21	0
1	43986	48.31	0
1	44077	48.41	0
1	44168	48.51	0
1	44259	48.61	0
1	44350	48.71	0
1	44441	48.81	0
1	44532	48.91	0
1	44626	49.01	0
1	44717	49.11	0
1	44808	49.21	0
1	44899	49.31	0
1	44990	49.41	0
1	45081	49.51	0
1	45172	49.61	0
1	45263	49.71	0
1	45354	49.81	0
1	45445	49.91	0
1	45539	50.01	0
1	45630	50.11	0
1	45721	50.21	0
1	45812	50.31	0
1	45903	50.41	0
1	45994	50.51	0
1	46085	50.61	0
1	46176	50.71	0
1	46267	50.81	0
1	46358	50.91	0
1	46452	51.01	0
1	46543	51.11	0
1	46634	51.21	0
1	46725	51.31	0
1	46816	51.41	0
1	46907	51.51	0
1	46998	51.61	0
1	47089	51.71	0
1	47180	51.81	0
1	47271	51.91	0
1	47365	52.01	0
1	47456	52.11	0
1	47547	52.21	0
1	47638	52.31	0
1	47729	52.41	0
1	47820	52.51	0
1	47911	52.61	0
1	48002	52.71	0
1	48093	52.81	0
1	48184	52.91	0
1	48278	53.01	0
1	48369	53.11	0
1	48460	53.21	0
1	48551	53.31	0
1	48642	53.41	0
1	48733	53.51	0
1	48824	53.61	0
1	48915	53.71	0
1	49006	53.81	0
1	49097	53.91	0
1	49191	54.01	0
1	49282	54.11	0
1	49373	54.21	0
1	49464	54.31	0
1	49555	54.41	0
1	49646	54.51	0
1	49737	54.61	0
1	49828	54.71	0
1	49919	54.81	0
1	50010	54.91	0
1	50104	55.01	0
1	50195	55.11	0
1	50286	55.21	0
1	50377	55.31	0
1	50468	55.41	0
1	50559	55.51	0
1	50650	55.61	0
1	50741	55.71	0
1	50832	55.81	0
1	50923	55.91	0
1	51017	56.01	0
1	51108	56.11	0
1	51199	56.21	0
1	51290	56.31	0
1	51381	56.41	0
1	51472	56.51	0
1	51563	56.61	0
1	51654	56.71	0
1	51745	56.81	0
1	51836	56.91	0
1	51930	57.01	0
1	52021	57.11	0
1	52112	57.21	0
1	52203	57.31	0
1	52294	57.41	0
1	52385	57.51	0
1	52476	57.61	0
1	52567	57.71	0
1	52658	57.81	0
1	52749	57.91	0
1	52843	58.01	0
1	52934	58.11	0
1	53025	58.21	0
1	53116	58.31	0
1	53207	58.41	0
1	53298	58.51	0
1	53389	58.61	0
1	53480	58.71	0
1	53571	58.81	0
1	53662	58.91	0
1	53756	59.01	0
1	53847	59.11	0
1	53938	59.21	0
1	54029	59.31	0
1	54120	59.41	0
1	54211	59.51	0
1	54302	59.61	0
1	54393	59.71	0
1	54484	59.81	0
1	54575	59.91	0
1	54669	60.01	0
1	54760	60.11	0
1	54851	60.21	0
1	54942	60.31	0
1	55033	60.41	0
1	55124	60.51	0
1	55215	60.61	0
1	55306	60.71	0
1	55397	60.81	0
1	55488	60.91	0
1	55582	61.01	0
1	55673	61.11	0
1	55764	61.21	0
1	55855	61.31	0
1	55946	61.41	0
1	56037	61.51	0
1	56128	61.61	0
1	56219	61.71	0
1	56310	61.81	0
1	56401	61.91	0
1	56495	62.01	0
1	56586	62.11	0
1	56677	62.21	0
1	56768	62.31	0
1	56859	62.41	0
1	56950	62.51	0
1	57041	62.61	0
1	57132	62.71	0
1	57223	62.81	0
1	57314	62.91	0
1	57408	63.01	0
1	57499	63.11	0
1	57590	63.21	0
1	57681	63.31	0
1	57772	63.41	0
1	57863	63.51	0
1	57954	63.61	0
1	58045	63.71	0
1	58136	63.81	0
1	58227	63.91	0
1	58321	64.01	0
1	58412	64.11	0
1	58503	64.21	0
1	58594	64.31	0
1	58685	64.41	0
1	58776	64.51	0
1	58867	64.61	0
1	58958	64.71	0
1	59049	64.81	0
1	59140	64.91	0
1	59234	65.01	0
1	59325	65.11	0
1	59416	65.21	0
1	59507	65.31	0
1	59598	65.41	0
1	59689	65.51	0
1	59780	65.61	0
1	59871	65.71	0
1	59962	65.81	0
1	60053	65.91	0
1	60147	66.01	0
1	60238	66.11	0
1	60329	66.21	0
1	60420	66.31	0
1	60511	66.41	0
1	60602	66.51	0
1	60693	66.61	0
1	60784	66.71	0
1	60875	66.81	0
1	60966	66.91	0
1	61060	67.01	0
1	61151	67.11	0
1	61242	67.21	0
1	61333	67.31	0
1	61424	67.41	0
1	61515	67.51	0
1	61606	67.61	0
1	61697	67.71	0
1	61788	67.81	0
1	61879	67.91	0
1	61973	68.01	0
1	62064	68.11	0
1	62155	68.21	0
1	62246	68.31	0
1	62337	68.41	0
1	62428	68.51	0
1	62519	68.61	0
1	62610	68.71	0
1	62701	68.81	0
1	62792	68.91	0
1	62886	69.01	0
1	62977	69.11	0
1	63068	69.21	0
1	63159	69.31	0
1	63250	69.41	0
1	63341	69.51	0
1	63432	69.61	0
1	63523	69.71	0
1	63614	69.81	0
1	63705	69.91	0
1	63799	70.01	0
1	63890	70.11	0
1	63981	70.21	0
1	64072	70.31	0
1	64163	70.41	0
1	64254	70.51	0
1	64345	70.61	0
1	64436	70.71	0
1	64527	70.81	0
1	64618	70.91	0
1	64712	71.01	0
1	64803	71.11	0
1	64894	71.21	0
1	64985	71.31	0
1	65076	71.41	0
1	65167	71.51	0
1	65258	71.61	0
1	65349	71.71	0
1	65440	71.81	0
1	65531	71.91	0
1	65625	72.01	0
1	65716	72.11	0
1	65807	72.21	0
1	65898	72.31	0
1	65989	72.41	0
1	66080	72.51	0
1	66171	72.61	0
1	66262	72.71	0
1	66353	72.81	0
1	66444	72.91	0
1	66538	73.01	0
1	66629	73.11	0
1	66720	73.21	0
1	66811	73.31	0
1	66902	73.41	0
1	66993	73.51	0
1	67084	73.61	0
1	67175	73.71	0
1	67266	73.81	0
1	67357	73.91	0
1	67451	74.01	0
1	67542	74.11	0
1	67633	74.21	0
1	67724	74.31	0
1	67815	74.41	0
1	67906	74.51	0
1	67997	74.61	0
1	68088	74.71	0
1	68179	74.81	0
1	68270	74.91	0
1	68364	75.01	0
1	68455	75.11	0
1	68546	75.21	0
1	68637	75.31	0
1	68728	75.41	0
1	68819	75.51	0
1	68910	75.61	0
1	69001	75.71	0
1	69092	75.81	0
1	69183	75.91	0
1	69277	76.01	0
1	69368	76.11	0
1	69459	76.21	0
1	69550	76.31	0
1	69641	76.41	0
1	69732	76.51	0
1	69823	76.61	0
1	69914	76.71	0
1	70005	76.81	0
1	70096	76.91	0
1	70190	77.01	0
1	70281	77.11	0
1	70372	77.21	0
1	70463	77.31	0
1	70554	77.41	0
1	70645	77.51	0
1	70736	77.61	0
1	70827	77.71	0
1	70918	77.81	0
1	71009	77.91	0
1	71103	78.01	0
1	71194	78.11	0
1	71285	78.21	0
1	71376	78.31	0
1	71467	78.41	0
1	71558	78.51	0
1	71649	78.61	0
1	71740	78.71	0
1	71831	78.81	0
1	71922	78.91	0
1	72016	79.01	0
1	72107	79.11	0
1	72198	79.21	0
1	72289	79.31	0
1	72380	79.41	0
1	72471	79.51	0
1	72562	79.61	0
1	72653	79.71	0
1	72744	79.81	0
1	72835	79.91	0
1	72929	80.01	0
1	73020	80.11	0
1	73111	80.21	0
1	73202	80.31	0
1	73293	80.41	0
1	73384	80.51	0
1	73475	80.61	0
1	73566	80.71	0
1	73657	80.81	0
1	73748	80.91	0
1	73842	81.01	0
1	73933	81.11	0
1	74024	81.21	0
1	74115	81.31	0
1	74206	81.41	0
1	74297	81.51	0
1	74388	81.61	0
1	74479	81.71	0
1	74570	81.81	0
1	74661	81.91	0
1	74755	82.01	0
1	74846	82.11	0
1	74937	82.21	0
1	75028	82.31	0
1	75119	82.41	0
1	75210	82.51	0
1	75301	82.61	0
1	75392	82.71	0
1	75483	82.81	0
1	75574	82.91	0
1	75668	83.01	0
1	75759	83.11	0
1	75850	83.21	0
1	75941	83.31	0
1	76032	83.41	0
1	76123	83.51	0
1	76214	83.61	0
1	76305	83.71	0
1	76396	83.81	0
1	76487	83.91	0
1	76581	84.01	0
1	76672	84.11	0
1	76763	84.21	0
1	76854	84.31	0
1	76945	84.41	0
1	77036	84.51	0
1	77127	84.61	0
1	77218	84.71	0
1	77309	84.81	0
1	77400	84.91	0
1	77494	85.01	0
1	77585	85.11	0
1	77676	85.21	0
1	77767	85.31	0
1	77858	85.41	0
1	77949	85.51	0
1	78040	85.61	0
1	78131	85.71	0
1	78222	85.81	0
1	78313	85.91	0
1	78407	86.01	0
1	78498	86.11	0
1	78589	86.21	0
1	78680	86.31	0
1	78771	86.41	0
1	78862	86.51	0
1	78953	86.61	0
1	79044	86.71	0
1	79135	86.81	0
1	79226	86.91	0
1	79320	87.01	0
1	79411	87.11	0
1	79502	87.21	0
1	79593	87.31	0
1	79684	87.41	0
1	79775	87.51	0
1	79866	87.61	0
1	79957	87.71	0
1	80048	87.81	0
1	80139	87.91	0
1	80233	88.01	0
1	80324	88.11	0
1	80415	88.21	0
1	80506	88.31	0
1	80597	88.41	0
1	80688	88.51	0
1	80779	88.61	0
1	80870	88.71	0
1	80961	88.81	0
1	81052	88.91	0
1	81146	89.01	0
1	81237	89.11	0
1	81328	89.21	0
1	81419	89.31	0
1	81510	89.41	0
1	81601	89.51	0
1	81692	89.61	0
1	81783	89.71	0
1	81874	89.81	0
1	81965	89.91	0
1	82059	90.01	0
1	82150	90.11	0
1	82241	90.21	0
1	82332	90.31	0
1	82423	90.41	0
1	82514	90.51	0
1	82605	90.61	0
1	82696	90.71	0
1	82787	90.81	0
1	82878	90.91	0
1	82972	91.01	0
1	83063	91.11	0
1	83154	91.21	0
1	83245	91.31	0
1	83336	91.41	0
1	83427	91.51	0
1	83518	91.61	0
1	83609	91.71	0
1	83700	91.81	0
1	83791	91.91	0
1	83885	92.01	0
1	83976	92.11	0
1	84067	92.21	0
1	84158	92.31	0
1	84249	92.41	0
1	84340	92.51	0
1	84431	92.61	0
1	84522	92.71	0
1	84613	92.81	0
1	84704	92.91	0
1	84798	93.01	0
1	84889	93.11	0
1	84980	93.21	0
1	85071	93.31	0
1	85162	93.41	0
1	85253	93.51	0
1	85344	93.61	0
1	85435	93.71	0
1	85526	93.81	0
1	85617	93.91	0
1	85711	94.01	0
1	85802	94.11	0
1	85893	94.21	0
1	85984	94.31	0
1	86075	94.41	0
1	86166	94.51	0
1	86257	94.61	0
1	86348	94.71	0
1	86439	94.81	0
1	86530	94.91	0
1	86624	95.01	0
1	86715	95.11	0
1	86806	95.21	0
1	86897	95.31	0
1	86988	95.41	0
1	87079	95.51	0
1	87170	95.61	0
1	87261	95.71	0
1	87352	95.81	0
1	87443	95.91	0
1	87537	96.01	0
1	87628	96.11	0
1	87719	96.21	0
1	87810	96.31	0
1	87901	96.41	0
1	87992	96.51	0
1	88083	96.61	0
1	88174	96.71	0
1	88265	96.81	0
1	88356	96.91	0
1	88450	97.01	0
1	88541	97.11	0
1	88632	97.21	0
1	88723	97.31	0
1	88814	97.41	0
1	88905	97.51	0
1	88996	97.61	0
1	89087	97.71	0
1	89178	97.81	0
1	89269	97.91	0
1	89363	98.01	0
1	89454	98.11	0
1	89545	98.21	0
1	89636	98.31	0
1	89727	98.41	0
1	89818	98.51	0
1	89909	98.61	0
1	90000	98.71	0
1	90091	98.81	0
1	90182	98.91	0
1	90276	99.01	0
1	90367	99.11	0
1	90458	99.21	0
1	90549	99.31	0
1	90640	99.41	0
1	90731	99.51	0
1	90822	99.61	0
1	90913	99.71	0
1	91004	99.81	0
1	91095	99.91	0
2	113	1.11	0
2	204	1.21	0
2	295	1.31	0
2	386	1.41	0
2	477	1.51	0
2	568	1.61	0
2	659	1.71	0
2	750	1.81	0
2	841	1.91	0
2	935	2.01	0
2	1026	2.11	0
2	1117	2.21	0
2	1208	2.31	0
2	1299	2.41	0
2	1390	2.51	0
2	1481	2.61	0
2	1572	2.71	0
2	1663	2.81	0
2	1754	2.91	0
2	1848	3.01	0
2	1939	3.11	0
2	2030	3.21	0
2	2121	3.31	0
2	2212	3.41	0
2	2303	3.51	0
2	2394	3.61	0
2	2485	3.71	0
2	2576	3.81	0
2	2667	3.91	0
2	2761	4.01	0
2	2852	4.11	0
2	2943	4.21	0
2	3034	4.31	0
2	3125	4.41	0
2	3216	4.51	0
2	3307	4.61	0
2	3398	4.71	0
2	3489	4.81	0
2	3580	4.91	0
2	3674	5.01	0
2	3765	5.11	0
2	3856	5.21	0
2	3947	5.31	0
2	4038	5.41	0
2	4129	5.51	0
2	4220	5.61	0
2	4311	5.71	0
2	4402	5.81	0
2	4493	5.91	0
2	4587	6.01	0
2	4678	6.11	0
2	4769	6.21	0
2	4860	6.31	0
2	4951	6.41	0
2	5042	6.51	0
2	5133	6.61	0
2	5224	6.71	0
2	5315	6.81	0
2	5406	6.91	0
2	5500	7.01	0
2	5591	7.11	0
2	5682	7.21	0
2	5773	7.31	0
2	5864	7.41	0
2	5955	7.51	0
2	6046	7.61	0
2	6137	7.71	0
2	6228	7.81	0
2	6319	7.91	0
2	6413	8.01	0
2	6504	8.11	0
2	6595	8.21	0
2	6686	8.31	0
2	6777	8.41	0
2	6868	8.51	0
2	6959	8.61	0
2	7050	8.71	0
2	7141	8.81	0
2	7232	8.91	0
2	7326	9.01	0
2	7417	9.11	0
2	7508	9.21	0
2	7599	9.31	0
2	7690	9.41	0
2	7781	9.51	0
2	7872	9.61	0
2	7963	9.71	0
2	8054	9.81	0
2	8145	9.91	0
2	8268	10.01	0
2	8361	10.11	0
2	8454	10.21	0
2	8547	10.31	0
2	8640	10.41	0
2	8733	10.51	0
2	8826	10.61	0
2	8919	10.71	0
2	9012	10.81	0
2	9105	10.91	0
2	9201	11.01	0
2	9294	11.11	0
2	9387	11.21	0
2	9480	11.31	0
2	9573	11.41	0
2	9666	11.51	0
2	9759	11.61	0
2	9852	11.71	0
2	9945	11.81	0
2	10038	11.91	0
2	10134	12.01	0
2	10227	12.11	0
2	10320	12.21	0
2	10413	12.31	0
2	10506	12.41	0
2	10599	12.51	0
2	10692	12.61	0
2	10785	12.71	0
2	10878	12.81	0
2	10971	12.91	0
2	11067	13.01	0
2	11160	13.11	0
2	11253	13.21	0
2	11346	13.31	0
2	11439	13.41	0
2	11532	13.51	0
2	11625	13.61	0
2	11718	13.71	0
2	11811	13.81	0
2	11904	13.91	0
2	12000	14.01	0
2	12093	14.11	0
2	12186	14.21	0
2	12279	14.31	0
2	12372	14.41	0
2	12465	14.51	0
2	12558	14.61	0
2	12651	14.71	0
2	12744	14.81	0
2	12837	14.91	0
2	12933	15.01	0
2	13026	15.11	0
2	13119	15.21	0
2	13212	15.31	0
2	13305	15.41	0
2	13398	15.51	0
2	13491	15.61	0
2	13584	15.71	0
2	13677	15.81	0
2	13770	15.91	0
2	13866	16.01	0
2	13959	16.11	0
2	14052	16.21	0
2	14145	16.31	0
2	14238	16.41	0
2	14331	16.51	0
2	14424	16.61	0
2	14517	16.71	0
2	14610	16.81	0
2	14703	16.91	0
2	14799	17.01	0
2	14892	17.11	0
2	14985	17.21	0
2	15078	17.31	0
2	15171	17.41	0
2	15264	17.51	0
2	15357	17.61	0
2	15450	17.71	0
2	15543	17.81	0
2	15636	17.91	0
2	15732	18.01	0
2	15825	18.11	0
2	15918	18.21	0
2	16011	18.31	0
2	16104	18.41	0
2	16197	18.51	0
2	16290	18.61	0
2	16383	18.71	0
2	16476	18.81	0
2	16569	18.91	0
2	16665	19.01	0
2	16758	19.11	0
2	16851	19.21	0
2	16944	19.31	0
2	17037	19.41	0
2	17130	19.51	0
2	17223	19.61	0
2	17316	19.71	0
2	17409	19.81	0
2	17502	19.91	0
2	17598	20.01	0
2	17691	20.11	0
2	17784	20.21	0
2	17877	20.31	0
2	17970	20.41	0
2	18063	20.51	0
2	18156	20.61	0
2	18249	20.71	0
2	18342	20.81	0
2	18435	20.91	0
2	18531	21.01	0
2	18624	21.11	0
2	18717	21.21	0
2	18810	21.31	0
2	18903	21.41	0
2	18996	21.51	0
2	19089	21.61	0
2	19182	21.71	0
2	19275	21.81	0
2	19368	21.91	0
2	19464	22.01	0
2	19557	22.11	0
2	19650	22.21	0
2	19743	22.31	0
2	19836	22.41	0
2	19929	22.51	0
2	20022	22.61	0
2	20115	22.71	0
2	20208	22.81	0
2	20301	22.91	0
2	20397	23.01	0
2	20490	23.11	0
2	20583	23.21	0
2	20676	23.31	0
2	20769	23.41	0
2	20862	23.51	0
2	20955	23.61	0
2	21048	23.71	0
2	21141	23.81	0
2	21234	23.91	0
2	21330	24.01	0
2	21423	24.11	0
2	21516	24.21	0
2	21609	24.31	0
2	21702	24.41	0
2	21795	24.51	0
2	21888	24.61	0
2	21981	24.71	0
2	22074	24.81	0
2	22167	24.91	0
2	22263	25.01	0
2	22356	25.11	0
2	22449	25.21	0
2	22542	25.31	0
2	22635	25.41	0
2	22728	25.51	0
2	22821	25.61	0
2	22914	25.71	0
2	23007	25.81	0
2	23100	25.91	0
2	23196	26.01	0
2	23289	26.11	0
2	23382	26.21	0
2	23475	26.31	0
2	23568	26.41	0
2	23661	26.51	0
2	23754	26.61	0
2	23847	26.71	0
2	23940	26.81	0
2	24033	26.91	0
2	24129	27.01	0
2	24222	27.11	0
2	24315	27.21	0
2	24408	27.31	0
2	24501	27.41	0
2	24594	27.51	0
2	24687	27.61	0
2	24780	27.71	0
2	24873	27.81	0
2	24966	27.91	0
2	25062	28.01	0
2	25155	28.11	0
2	25248	28.21	0
2	25341	28.31	0
2	25434	28.41	0
2	25527	28.51	0
2	25620	28.61	0
2	25713	28.71	0
2	25806	28.81	0
2	25899	28.91	0
2	25995	29.01	0
2	26088	29.11	0
2	26181	29.21	0
2	26274	29.31	0
2	26367	29.41	0
2	26460	29.51	0
2	26553	29.61	0
2	26646	29.71	0
2	26739	29.81	0
2	26832	29.91	0
2	26928	30.01	0
2	27021	30.11	0
2	27114	30.21	0
2	27207	30.31	0
2	27300	30.41	0
2	27393	30.51	0
2	27486	30.61	0
2	27579	30.71	0
2	27672	30.81	0
2	27765	30.91	0
2	27861	31.01	0
2	27954	31.11	0
2	28047	31.21	0
2	28140	31.31	0
2	28233	31.41	0
2	28326	31.51	0
2	28419	31.61	0
2	28512	31.71	0
2	28605	31.81	0
2	28698	31.91	0
2	28794	32.01	0
2	28887	32.11	0
2	28980	32.21	0
2	29073	32.31	0
2	29166	32.41	0
2	29259	32.51	0
2	29352	32.61	0
2	29445	32.71	0
2	29538	32.81	0
2	29631	32.91	0
2	29727	33.01	0
2	29820	33.11	0
2	29913	33.21	0
2	30006	33.31	0
2	30099	33.41	0
2	30192	33.51	0
2	30285	33.61	0
2	30378	33.71	0
2	30471	33.81	0
2	30564	33.91	0
2	30660	34.01	0
2	30753	34.11	0
2	30846	34.21	0
2	30939	34.31	0
2	31032	34.41	0
2	31125	34.51	0
2	31218	34.61	0
2	31311	34.71	0
2	31404	34.81	0
2	31497	34.91	0
2	31593	35.01	0
2	31686	35.11	0
2	31779	35.21	0
2	31872	35.31	0
2	31965	35.41	0
2	32058	35.51	0
2	32151	35.61	0
2	32244	35.71	0
2	32337	35.81	0
2	32430	35.91	0
2	32526	36.01	0
2	32619	36.11	0
2	32712	36.21	0
2	32805	36.31	0
2	32941	36.41	0
2	33033	36.51	0
2	33125	36.61	0
2	33217	36.71	0
2	33309	36.81	0
2	33401	36.91	0
2	33496	37.01	0
2	33588	37.11	0
2	33680	37.21	0
2	33772	37.31	0
2	33864	37.41	0
2	33956	37.51	0
2	34048	37.61	0
2	34140	37.71	0
2	34232	37.81	0
2	34324	37.91	0
2	34419	38.01	0
2	34511	38.11	0
2	34603	38.21	0
2	34695	38.31	0
2	34787	38.41	0
2	34879	38.51	0
2	34971	38.61	0
2	35063	38.71	0
2	35155	38.81	0
2	35247	38.91	0
2	35342	39.01	0
2	35434	39.11	0
2	35526	39.21	0
2	35618	39.31	0
2	35710	39.41	0
2	35802	39.51	0
2	35894	39.61	0
2	35986	39.71	0
2	36078	39.81	0
2	36170	39.91	0
2	36265	40.01	0
2	36357	40.11	0
2	36449	40.21	0
2	36541	40.31	0
2	36633	40.41	0
2	36725	40.51	0
2	36817	40.61	0
2	36909	40.71	0
2	37001	40.81	0
2	37093	40.91	0
2	37188	41.01	0
2	37280	41.11	0
2	37372	41.21	0
2	37464	41.31	0
2	37556	41.41	0
2	37777	41.51	0
2	37868	41.61	0
2	37959	41.71	0
2	38050	41.81	0
2	38141	41.91	0
2	38235	42.01	0
2	38326	42.11	0
2	38417	42.21	0
2	38508	42.31	0
2	38599	42.41	0
2	38690	42.51	0
2	38781	42.61	0
2	38872	42.71	0
2	38963	42.81	0
2	39054	42.91	0
2	39148	43.01	0
2	39239	43.11	0
2	39330	43.21	0
2	39421	43.31	0
2	39512	43.41	0
2	39603	43.51	0
2	39694	43.61	0
2	39785	43.71	0
2	39876	43.81	0
2	39967	43.91	0
2	40061	44.01	0
2	40152	44.11	0
2	40243	44.21	0
2	40334	44.31	0
2	40425	44.41	0
2	40516	44.51	0
2	40607	44.61	0
2	40698	44.71	0
2	40789	44.81	0
2	40880	44.91	0
2	40974	45.01	0
2	41065	45.11	0
2	41156	45.21	0
2	41247	45.31	0
2	41338	45.41	0
2	41429	45.51	0
2	41520	45.61	0
2	41611	45.71	0
2	41702	45.81	0
2	41793	45.91	0
2	41887	46.01	0
2	41978	46.11	0
2	42069	46.21	0
2	42160	46.31	0
2	42251	46.41	0
2	42342	46.51	0
2	42433	46.61	0
2	42524	46.71	0
2	42615	46.81	0
2	42706	46.91	0
2	42800	47.01	0
2	42891	47.11	0
2	42982	47.21	0
2	43073	47.31	0
2	43164	47.41	0
2	43255	47.51	0
2	43346	47.61	0
2	43437	47.71	0
2	43528	47.81	0
2	43619	47.91	0
2	43713	48.01	0
2	43804	48.11	0
2	43895	48.21	0
2	43986	48.31	0
2	44077	48.41	0
2	44168	48.51	0
2	44259	48.61	0
2	44350	48.71	0
2	44441	48.81	0
2	44532	48.91	0
2	44626	49.01	0
2	44717	49.11	0
2	44808	49.21	0
2	44899	49.31	0
2	44990	49.41	0
2	45081	49.51	0
2	45172	49.61	0
2	45263	49.71	0
2	45354	49.81	0
2	45445	49.91	0
2	45539	50.01	0
2	45630	50.11	0
2	45721	50.21	0
2	45812	50.31	0
2	45903	50.41	0
2	45994	50.51	0
2	46085	50.61	0
2	46176	50.71	0
2	46267	50.81	0
2	46358	50.91	0
2	46452	51.01	0
2	46543	51.11	0
2	46634	51.21	0
2	46725	51.31	0
2	46816	51.41	0
2	46907	51.51	0
2	46998	51.61	0
2	47089	51.71	0
2	47180	51.81	0
2	47271	51.91	0
2	47365	52.01	0
2	47456	52.11	0
2	47547	52.21	0
2	47638	52.31	0
2	47729	52.41	0
2	47820	52.51	0
2	47911	52.61	0
2	48002	52.71	0
2	48093	52.81	0
2	48184	52.91	0
2	48278	53.01	0
2	48369	53.11	0
2	48460	53.21	0
2	48551	53.31	0
2	48642	53.41	0
2	48733	53.51	0
2	48824	53.61	0
2	48915	53.71	0
2	49006	53.81	0
2	49097	53.91	0
2	49191	54.01	0
2	49282	54.11	0
2	49373	54.21	0
2	49464	54.31	0
2	49555	54.41	0
2	49646	54.51	0
2	49737	54.61	0
2	49828	54.71	0
2	49919	54.81	0
2	50010	54.91	0
2	50104	55.01	0
2	50195	55.11	0
2	50286	55.21	0
2	50377	55.31	0
2	50468	55.41	0
2	50559	55.51	0
2	50650	55.61	0
2	50741	55.71	0
2	50832	55.81	0
2	50923	55.91	0
2	51017	56.01	0
2	51108	56.11	0
2	51199	56.21	0
2	51290	56.31	0
2	51381	56.41	0
2	51472	56.51	0
2	51563	56.61	0
2	51654	56.71	0
2	51745	56.81	0
2	51836	56.91	0
2	51930	57.01	0
2	52021	57.11	0
2	52112	57.21	0
2	52203	57.31	0
2	52294	57.41	0
2	52385	57.51	0
2	52476	57.61	0
2	52567	57.71	0
2	52658	57.81	0
2	52749	57.91	0
2	52843	58.01	0
2	52934	58.11	0
2	53025	58.21	0
2	53116	58.31	0
2	53207	58.41	0
2	53298	58.51	0
2	53389	58.61	0
2	53480	58.71	0
2	53571	58.81	0
2	53662	58.91	0
2	53756	59.01	0
2	53847	59.11	0
2	53938	59.21	0
2	54029	59.31	0
2	54120	59.41	0
2	54211	59.51	0
2	54302	59.61	0
2	54393	59.71	0
2	54484	59.81	0
2	54575	59.91	0
2	54669	60.01	0
2	54760	60.11	0
2	54851	60.21	0
2	54942	60.31	0
2	55033	60.41	0
2	55124	60.51	0
2	55215	60.61	0
2	55306	60.71	0
2	55397	60.81	0
2	55488	60.91	0
2	55582	61.01	0
2	55673	61.11	0
2	55764	61.21	0
2	55855	61.31	0
2	55946	61.41	0
2	56037	61.51	0
2	56128	61.61	0
2	56219	61.71	0
2	56310	61.81	0
2	56401	61.91	0
2	56495	62.01	0
2	56586	62.11	0
2	56677	62.21	0
2	56768	62.31	0
2	56859	62.41	0
2	56950	62.51	0
2	57041	62.61	0
2	57132	62.71	0
2	57223	62.81	0
2	57314	62.91	0
2	57408	63.01	0
2	57499	63.11	0
2	57590	63.21	0
2	57681	63.31	0
2	57772	63.41	0
2	57863	63.51	0
2	57954	63.61	0
2	58045	63.71	0
2	58136	63.81	0
2	58227	63.91	0
2	58321	64.01	0
2	58412	64.11	0
2	58503	64.21	0
2	58594	64.31	0
2	58685	64.41	0
2	58776	64.51	0
2	58867	64.61	0
2	58958	64.71	0
2	59049	64.81	0
2	59140	64.91	0
2	59234	65.01	0
2	59325	65.11	0
2	59416	65.21	0
2	59507	65.31	0
2	59598	65.41	0
2	59689	65.51	0
2	59780	65.61	0
2	59871	65.71	0
2	59962	65.81	0
2	60053	65.91	0
2	60147	66.01	0
2	60238	66.11	0
2	60329	66.21	0
2	60420	66.31	0
2	60511	66.41	0
2	60602	66.51	0
2	60693	66.61	0
2	60784	66.71	0
2	60875	66.81	0
2	60966	66.91	0
2	61060	67.01	0
2	61151	67.11	0
2	61242	67.21	0
2	61333	67.31	0
2	61424	67.41	0
2	61515	67.51	0
2	61606	67.61	0
2	61697	67.71	0
2	61788	67.81	0
2	61879	67.91	0
2	61973	68.01	0
2	62064	68.11	0
2	62155	68.21	0
2	62246	68.31	0
2	62337	68.41	0
2	62428	68.51	0
2	62519	68.61	0
2	62610	68.71	0
2	62701	68.81	0
2	62792	68.91	0
2	62886	69.01	0
2	62977	69.11	0
2	63068	69.21	0
2	63159	69.31	0
2	63250	69.41	0
2	63341	69.51	0
2	63432	69.61	0
2	63523	69.71	0
2	63614	69.81	0
2	63705	69.91	0
2	63799	70.01	0
2	63890	70.11	0
2	63981	70.21	0
2	64072	70.31	0
2	64163	70.41	0
2	64254	70.51	0
2	64345	70.61	0
2	64436	70.71	0
2	64527	70.81	0
2	64618	70.91	0
2	64712	71.01	0
2	64803	71.11	0
2	64894	71.21	0
2	64985	71.31	0
2	65076	71.41	0
2	65167	71.51	0
2	65258	71.61	0
2	65349	71.71	0
2	65440	71.81	0
2	65531	71.91	0
2	65625	72.01	0
2	65716	72.11	0
2	65807	72.21	0
2	65898	72.31	0
2	65989	72.41	0
2	66080	72.51	0
2	66171	72.61	0
2	66262	72.71	0
2	66353	72.81	0
2	66444	72.91	0
2	66538	73.01	0
2	66629	73.11	0
2	66720	73.21	0
2	66811	73.31	0
2	66902	73.41	0
2	66993	73.51	0
2	67084	73.61	0
2	67175	73.71	0
2	67266	73.81	0
2	67357	73.91	0
2	67451	74.01	0
2	67542	74.11	0
2	67633	74.21	0
2	67724	74.31	0
2	67815	74.41	0
2	67906	74.51	0
2	67997	74.61	0
2	68088	74.71	0
2	68179	74.81	0
2	68270	74.91	0
2	68364	75.01	0
2	68455	75.11	0
2	68546	75.21	0
2	68637	75.31	0
2	68728	75.41	0
2	68819	75.51	0
2	68910	75.61	0
2	69001	75.71	0
2	69092	75.81	0
2	69183	75.91	0
2	69277	76.01	0
2	69368	76.11	0
2	69459	76.21	0
2	69550	76.31	0
2	69641	76.41	0
2	69732	76.51	0
2	69823	76.61	0
2	69914	76.71	0
2	70005	76.81	0
2	70096	76.91	0
2	70190	77.01	0
2	70281	77.11	0
2	70372	77.21	0
2	70463	77.31	0
2	70554	77.41	0
2	70645	77.51	0
2	70736	77.61	0
2	70827	77.71	0
2	70918	77.81	0
2	71009	77.91	0
2	71103	78.01	0
2	71194	78.11	0
2	71285	78.21	0
2	71376	78.31	0
2	71467	78.41	0
2	71558	78.51	0
2	71649	78.61	0
2	71740	78.71	0
2	71831	78.81	0
2	71922	78.91	0
2	72016	79.01	0
2	72107	79.11	0
2	72198	79.21	0
2	72289	79.31	0
2	72380	79.41	0
2	72471	79.51	0
2	72562	79.61	0
2	72653	79.71	0
2	72744	79.81	0
2	72835	79.91	0
2	72929	80.01	0
2	73020	80.11	0
2	73111	80.21	0
2	73202	80.31	0
2	73293	80.41	0
2	73384	80.51	0
2	73475	80.61	0
2	73566	80.71	0
2	73657	80.81	0
2	73748	80.91	0
2	73842	81.01	0
2	73933	81.11	0
2	74024	81.21	0
2	74115	81.31	0
2	74206	81.41	0
2	74297	81.51	0
2	74388	81.61	0
2	74479	81.71	0
2	74570	81.81	0
2	74661	81.91	0
2	74755	82.01	0
2	74846	82.11	0
2	74937	82.21	0
2	75028	82.31	0
2	75119	82.41	0
2	75210	82.51	0
2	75301	82.61	0
2	75392	82.71	0
2	75483	82.81	0
2	75574	82.91	0
2	75668	83.01	0
2	75759	83.11	0
2	75850	83.21	0
2	75941	83.31	0
2	76032	83.41	0
2	76123	83.51	0
2	76214	83.61	0
2	76305	83.71	0
2	76396	83.81	0
2	76487	83.91	0
2	76581	84.01	0
2	76672	84.11	0
2	76763	84.21	0
2	76854	84.31	0
2	76945	84.41	0
2	77036	84.51	0
2	77127	84.61	0
2	77218	84.71	0
2	77309	84.81	0
2	77400	84.91	0
2	77494	85.01	0
2	77585	85.11	0
2	77676	85.21	0
2	77767	85.31	0
2	77858	85.41	0
2	77949	85.51	0
2	78040	85.61	0
2	78131	85.71	0
2	78222	85.81	0
2	78313	85.91	0
2	78407	86.01	0
2	78498	86.11	0
2	78589	86.21	0
2	78680	86.31	0
2	78771	86.41	0
2	78862	86.51	0
2	78953	86.61	0
2	79044	86.71	0
2	79135	86.81	0
2	79226	86.91	0
2	79320	87.01	0
2	79411	87.11	0
2	79502	87.21	0
2	79593	87.31	0
2	79684	87.41	0
2	79775	87.51	0
2	79866	87.61	0
2	79957	87.71	0
2	80048	87.81	0
2	80139	87.91	0
2	80233	88.01	0
2	80324	88.11	0
2	80415	88.21	0
2	80506	88.31	0
2	80597	88.41	0
2	80688	88.51	0
2	80779	88.61	0
2	80870	88.71	0
2	80961	88.81	0
2	81052	88.91	0
2	81146	89.01	0
2	81237	89.11	0
2	81328	89.21	0
2	81419	89.31	0
2	81510	89.41	0
2	81601	89.51	0
2	81692	89.61	0
2	81783	89.71	0
2	81874	89.81	0
2	81965	89.91	0
2	82059	90.01	0
2	82150	90.11	0
2	82241	90.21	0
2	82332	90.31	0
2	82423	90.41	0
2	82514	90.51	0
2	82605	90.61	0
2	82696	90.71	0
2	82787	90.81	0
2	82878	90.91	0
2	82972	91.01	0
2	83063	91.11	0
2	83154	91.21	0
2	83245	91.31	0
2	83336	91.41	0
2	83427	91.51	0
2	83518	91.61	0
2	83609	91.71	0
2	83700	91.81	0
2	83791	91.91	0
2	83885	92.01	0
2	83976	92.11	0
2	84067	92.21	0
2	84158	92.31	0
2	84249	92.41	0
2	84340	92.51	0
2	84431	92.61	0
2	84522	92.71	0
2	84613	92.81	0
2	84704	92.91	0
2	84798	93.01	0
2	84889	93.11	0
2	84980	93.21	0
2	85071	93.31	0
2	85162	93.41	0
2	85253	93.51	0
2	85344	93.61	0
2	85435	93.71	0
2	85526	93.81	0
2	85617	93.91	0
2	85711	94.01	0
2	85802	94.11	0
2	85893	94.21	0
2	85984	94.31	0
2	86075	94.41	0
2	86166	94.51	0
2	86257	94.61	0
2	86348	94.71	0
2	86439	94.81	0
2	86530	94.91	0
2	86624	95.01	0
2	86715	95.11	0
2	86806	95.21	0
2	86897	95.31	0
2	86988	95.41	0
2	87079	95.51	0
2	87170	95.61	0
2	87261	95.71	0
2	87352	95.81	0
2	87443	95.91	0
2	87537	96.01	0
2	87628	96.11	0
2	87719	96.21	0
2	87810	96.31	0
2	87901	96.41	0
2	87992	96.51	0
2	88083	96.61	0
2	88174	96.71	0
2	88265	96.81	0
2	88356	96.91	0
2	88450	97.01	0
2	88541	97.11	0
2	88632	97.21	0
2	88723	97.31	0
2	88814	97.41	0
2	88905	97.51	0
2	88996	97.61	0
2	89087	97.71	0
2	89178	97.81	0
2	89269	97.91	0
2	89363	98.01	0
2	89454	98.11	0
2	89545	98.21	0
2	89636	98.31	0
2	89727	98.41	0
2	89818	98.51	0
2	89909	98.61	0
2	90000	98.71	0
2	90091	98.81	0
2	90182	98.91	0
2	90276	99.01	0
2	90367	99.11	0
2	90458	99.21	0
2	90549	99.31	0
2	90640	99.41	0
2	90731	99.51	0
2	90822	99.61	0
2	90913	99.71	0
2	91004	99.81	0
2	91095	99.91	0
3	113	1.11	-0.000716383
3	204	1.21	-0.00136341
3	295	1.31	-0.00186974
3	386	1.41	-0.00225157
3	477	1.51	-0.00252443
3	568	1.61	-0.00270298
3	659	1.71	-0.00280098
3	750	1.81	-0.00283113
3	841	1.91	-0.00280509
3	935	2.01	-0.00273342
3	1026	2.11	-0.00262559
3	1117	2.21	-0.00249005
3	1208	2.31	-0.00233419
3	1299	2.41	-0.00216447
3	1390	2.51	-0.00198642
3	1481	2.61	-0.00180472
3	1572	2.71	-0.0016233
3	1663	2.81	-0.00144536
3	1754	2.91	-0.00127346
3	1848	3.01	-0.0011096
3	1939	3.11	-0.000955278
3	2030	3.21	-0.000811546
3	2121	3.31	-0.00067908
3	2212	3.41	-0.000558232
3	2303	3.51	-0.000449082
3	2394	3.61	-0.000351487
3	2485	3.71	-0.00026512
3	2576	3.81	-0.000189514
3	2667	3.91	-0.000124092
3	2761	4.01	-6.81972e-05
3	2852	4.11	-2.11209e-05
3	2943	4.21	1.78769e-05
3	3034	4.31	4.9548e-05
3	3125	4.41	7.46407e-05
3	3216	4.51	9.38867e-05
3	3307	4.61	0.000107991
3	3398	4.71	0.000117625
3	3489	4.81	0.000123418
3	3580	4.91	0.000125957
3	3674	5.01	0.000125781
3	3765	5.11	0.00012338
3	3856	5.21	0.000119198
3	3947	5.31	0.000113629
3	4038	5.41	0.000107022
3	4129	5.51	9.96832e-05
3	4220	5.61	9.18747e-05
3	4311	5.71	8.38211e-05
3	4402	5.81	7.57109e-05
3	4493	5.91	6.76999e-05
3	4587	6.01	5.99137e-05
3	4678	6.11	5.24518e-05
3	4769	6.21	4.53896e-05
3	4860	6.31	3.87821e-05
3	4951	6.41	3.2666e-05
3	5042	6.51	2.70628e-05
3	5133	6.61	2.19809e-05
3	5224	6.71	1.74176e-05
3	5315	6.81	1.33618e-05
3	5406	6.91	9.79494e-06
3	5500	7.01	6.6932e-06
3	5591	7.11	4.02864e-06
3	5682	7.21	1.77051e-06
3	5773	7.31	-1.13691e-07
3	5864	7.41	-1.65736e-06
3	5955	7.51	-2.89397e-06
3	6046	7.61	-3.85652e-06
3	6137	7.71	-4.57698e-06
3	6228	7.81	-5.08591e-06
3	6319	7.91	-5.41219e-06
3	6413	8.01	-5.58279e-06
3	6504	8.11	-5.6226e-06
3	6595	8.21	-5.55442e-06
3	6686	8.31	-5.39886e-06
3	6777	8.41	-5.17441e-06
3	6868	8.51	-4.89748e-06
3	6959	8.61	-4.58246e-06
3	7050	8.71	-4.24184e-06
3	7141	8.81	-3.88634e-06
3	7232	8.91	-3.52499e-06
3	7326	9.01	-3.16534e-06
3	7417	9.11	-2.81353e-06
3	7508	9.21	-2.47446e-06
3	7599	9.31	-2.15192e-06
3	7690	9.41	-1.84873e-06
3	7781	9.51	-1.56685e-06
3	7872	9.61	-1.30751e-06
3	7963	9.71	-1.0713e-06
3	8054	9.81	-8.58321e-07
3	8145	9.91	-6.68206e-07
3	8268	10.01	-5.0026e-07
3	8361	10.11	-3.53514e-07
3	8454	10.21	-2.2679e-07
3	8547	10.31	-1.18765e-07
3	8640	10.41	-2.80163e-08
3	8733	10.51	4.6931e-08
3	8826	10.61	1.07573e-07
3	8919	10.71	1.55391e-07
3	9012	10.81	1.91831e-07
3	9105	10.91	2.18284e-07
3	9201	11.01	2.3607e-07
3	9294	11.11	2.46427e-07
3	9387	11.21	2.50502e-07
3	9480	11.31	2.49353e-07
3	9573	11.41	2.43938e-07
3	9666	11.51	2.3512e-07
3	9759	11.61	2.23669e-07
3	9852	11.71	2.10264e-07
3	9945	11.81	1.95496e-07
3	10038	11.91	1.79874e-07
3	10134	12.01	1.63833e-07
3	10227	12.11	1.47736e-07
3	10320	12.21	1.3188e-07
3	10413	12.31	1.16508e-07
3	10506	12.41	1.01807e-07
3	10599	12.51	8.79222e-08
3	10692	12.61	7.49541e-08
3	10785	12.71	6.29711e-08
3	10878	12.81	5.20114e-08
3	10971	12.91	4.20883e-08
3	11067	13.01	3.3193e-08
3	11160	13.11	2.53003e-08
3	11253	13.21	1.83718e-08
3	11346	13.31	1.23581e-08
3	11439	13.41	7.20348e-09
3	11532	13.51	2.84537e-09
3	11625	13.61	-7.80886e-10
3	11718	13.71	-3.74136e-09
3	11811	13.81	-6.10285e-09
3	11904	13.91	-7.93072e-09
3	12000	14.01	-9.28821e-09
3	12093	14.11	-1.0235e-08
3	12186	14.21	-1.08283e-08
3	12279	14.31	-1.11211e-08
3	12372	14.41	-1.11612e-08
3	12465	14.51	-1.09946e-08
3	12558	14.61	-1.06599e-08
3	12651	14.71	-1.01945e-08
3	12744	14.81	-9.62999e-09
3	12837	14.91	-8.99405e-09
3	12933	15.01	-8.31086e-09
3	13026	15.11	-7.60103e-09
3	13119	15.21	-6.88338e-09
3	13212	15.31	-6.17071e-09
3	13305	15.41	-5.47544e-09
3	13398	15.51	-4.80682e-09
3	13491	15.61	-4.17266e-09
3	13584	15.71	-3.57687e-09
3	13677	15.81	-3.02443e-09
3	13770	15.91	-2.51674e-09
3	13866	16.01	-2.05489e-09
3	13959	16.11	-1.63958e-09
3	14052	16.21	-1.26903e-09
3	14145	16.31	-9.42535e-10
3	14238	16.41	-6.57963e-10
3	14331	16.51	-4.1247e-10
3	14424	16.61	-2.04636e-10
3	14517	16.71	-2.91323e-11
3	14610	16.81	1.14753e-10
3	14703	16.91	2.30926e-10
3	14799	17.01	3.22231e-10
3	14892	17.11	3.91154e-10
3	14985	17.21	4.40892e-10
3	15078	17.31	4.73577e-10
3	15171	17.41	4.92051e-10
3	15264	17.51	4.98446e-10
3	15357	17.61	4.94893e-10
3	15450	17.71	4.82814e-10
3	15543	17.81	4.6434e-10
3	15636	17.91	4.40892e-10
3	15732	18.01	4.13536e-10
3	15825	18.11	3.83693e-10
3	15918	18.21	3.51719e-10
3	16011	18.31	3.19744e-10
3	16104	18.41	2.8777e-10
3	16197	18.51	2.55795e-10
3	16290	18.61	2.25953e-10
3	16383	18.71	1.97531e-10
3	16476	18.81	1.6982e-10
3	16569	18.91	1.44951e-10
3	16665	19.01	1.21503e-10
3	16758	19.11	1.00187e-10
3	16851	19.21	8.10019e-11
3	16944	19.31	6.32383e-11
3	17037	19.41	4.86722e-11
3	17130	19.51	3.44613e-11
3	17223	19.61	2.34479e-11
3	17316	19.71	1.27898e-11
3	17409	19.81	4.9738e-12
3	17502	19.91	-2.13163e-12
3	17598	20.01	-8.17124e-12
3	17691	20.11	-1.1724e-11
3	17784	20.21	-1.52767e-11
3	17877	20.31	-1.88294e-11
3	17970	20.41	-2.02505e-11
3	18063	20.51	-2.02505e-11
3	18156	20.61	-2.02505e-11
3	18249	20.71	-2.02505e-11
3	18342	20.81	-2.02505e-11
3	18435	20.91	-2.02505e-11
3	18531	21.01	-2.02505e-11
3	18624	21.11	-2.02505e-11
3	18717	21.21	-2.02505e-11
3	18810	21.31	-1.88294e-11
3	18903	21.41	-1.7053e-11
3	18996	21.51	-1.52767e-11
3	19089	21.61	-1.38556e-11
3	19182	21.71	-1.24345e-11
3	19275	21.81	-1.13687e-11
3	19368	21.91	-1.03029e-11
3	19464	22.01	-9.23706e-12
3	19557	22.11	-8.52651e-12
3	19650	22.21	-7.4607e-12
3	19743	22.31	-6.75016e-12
3	19836	22.41	-6.03961e-12
3	19929	22.51	-5.68434e-12
3	20022	22.61	-4.9738e-12
3	20115	22.71	-4.61853e-12
3	20208	22.81	-4.26326e-12
3	20301	22.91	-3.90799e-12
3	20397	23.01	-3.55271e-12
3	20490	23.11	-3.19744e-12
3	20583	23.21	-2.84217e-12
3	20676	23.31	-2.4869e-12
3	20769	23.41	-2.13163e-12
3	20862	23.51	-2.13163e-12
3	20955	23.61	-1.77636e-12
3	21048	23.71	-1.77636e-12
3	21141	23.81	-1.42109e-12
3	21234	23.91	-1.42109e-12
3	21330	24.01	-1.06581e-12
3	21423	24.11	-1.06581e-12
3	21516	24.21	-1.06581e-12
3	21609	24.31	-1.06581e-12
3	21702	24.41	-7.10543e-13
3	21795	24.51	-7.10543e-13
3	21888	24.61	-7.10543e-13
3	21981	24.71	-7.10543e-13
3	22074	24.81	-7.10543e-13
3	22167	24.91	-3.55271e-13
3	22263	25.01	-3.55271e-13
3	22356	25.11	-3.55271e-13
3	22449	25.21	-3.55271e-13
3	22542	25.31	-3.55271e-13
3	22635	25.41	-3.55271e-13
3	22728	25.51	-3.55271e-13
3	22821	25.61	-3.55271e-13
3	22914	25.71	-3.55271e-13
3	23007	25.81	-3.55271e-13
3	23100	25.91	0
3	23196	26.01	0
3	23289	26.11	0
3	23382	26.21	0
3	23475	26.31	0
3	23568	26.41	0
3	23661	26.51	0
3	23754	26.61	0
3	23847	26.71	0
3	23940	26.81	0
3	24033	26.91	0
3	24129	27.01	0
3	24222	27.11	0
3	24315	27.21	0
3	24408	27.31	0
3	24501	27.41	0
3	24594	27.51	0
3	24687	27.61	0
3	24780	27.71	0
3	24873	27.81	0
3	24966	27.91	0
3	25062	28.01	0
3	25155	28.11	0
3	25248	28.21	0
3	25341	28.31	0
3	25434	28.41	0
3	25527	28.51	0
3	25620	28.61	0
3	25713	28.71	0
3	25806	28.81	0
3	25899	28.91	0
3	25995	29.01	0
3	26088	29.11	0
3	26181	29.21	0
3	26274	29.31	0
3	26367	29.41	0
3	26460	29.51	0
3	26553	29.61	0
3	26646	29.71	0
3	26739	29.81	0
3	26832	29.91	0
3	26928	30.01	0
3	27021	30.11	0
3	27114	30.21	0
3	27207	30.31	0
3	27300	30.41	0
3	27393	30.51	0
3	27486	30.61	0
3	27579	30.71	0
3	27672	30.81	0
3	27765	30.91	0
3	27861	31.01	0
3	27954	31.11	0
3	28047	31.21	0
3	28140	31.31	0
3	28233	31.41	0
3	28326	31.51	0
3	28419	31.61	0
3	28512	31.71	0
3	28605	31.81	0
3	28698	31.91	0
3	28794	32.01	0
3	28887	32.11	0
3	28980	32.21	0
3	29073	32.31	0
3	29166	32.41	0
3	29259	32.51	0
3	29352	32.61	0
3	29445	32.71	0
3	29538	32.81	0
3	29631	32.91	0
3	29727	33.01	0
3	29820	33.11	0
3	29913	33.21	0
3	30006	33.31	0
3	30099	33.41	0
3	30192	33.51	0
3	30285	33.61	0
3	30378	33.71	0
3	30471	33.81	0
3	30564	33.91	0
3	30660	34.01	0
3	30753	34.11	0
3	30846	34.21	0
3	30939	34.31	0
3	31032	34.41	0
3	31125	34.51	0
3	31218	34.61	0
3	31311	34.71	0
3	31404	34.81	0
3	31497	34.91	0
3	31593	35.01	0
3	31686	35.11	0
3	31779	35.21	0
3	31872	35.31	0
3	31965	35.41	0
3	32058	35.51	0
3	32151	35.61	0
3	32244	35.71	0
3	32337	35.81	0
3	32430	35.91	0
3	32526	36.01	0
3	32619	36.11	0
3	32712	36.21	0
3	32805	36.31	0
3	32941	36.41	0
3	33033	36.51	0
3	33125	36.61	0
3	33217	36.71	0
3	33309	36.81	0
3	33401	36.91	0
3	33496	37.01	0
3	33588	37.11	0
3	33680	37.21	0
3	33772	37.31	0
3	33864	37.41	0
3	33956	37.51	0
3	34048	37.61	0
3	34140	37.71	0
3	34232	37.81	0
3	34324	37.91	0
3	34419	38.01	0
3	34511	38.11	0
3	34603	38.21	0
3	34695	38.31	0
3	34787	38.41	0
3	34879	38.51	0
3	34971	38.61	0
3	35063	38.71	0
3	35155	38.81	0
3	35247	38.91	0
3	35342	39.01	0
3	35434	39.11	0
3	35526	39.21	0
3	35618	39.31	0
3	35710	39.41	0
3	35802	39.51	0
3	35894	39.61	0
3	35986	39.71	0
3	36078	39.81	0
3	36170	39.91	0
3	36265	40.01	0
3	36357	40.11	0
3	36449	40.21	0
3	36541	40.31	0
3	36633	40.41	0
3	36725	40.51	0
3	36817	40.61	0
3	36909	40.71	0
3	37001	40.81	0
3	37093	40.91	0
3	37188	41.01	0
3	37280	41.11	0
3	37372	41.21	0
3	37464	41.31	0
3	37556	41.41	0
3	37777	41.51	0
3	37868	41.61	0
3	37959	41.71	0
3	38050	41.81	0
3	38141	41.91	0
3	38235	42.01	0
3	38326	42.11	0
3	38417	42.21	0
3	38508	42.31	0
3	38599	42.41	0
3	38690	42.51	0
3	38781	42.61	0
3	38872	42.71	0
3	38963	42.81	0
3	39054	42.91	0
3	39148	43.01	0
3	39239	43.11	0
3	39330	43.21	0
3	39421	43.31	0
3	39512	43.41	0
3	39603	43.51	0
3	39694	43.61	0
3	39785	43.71	0
3	39876	43.81	0
3	39967	43.91	0
3	40061	44.01	0
3	40152	44.11	0
3	40243	44.21	0
3	40334	44.31	0
3	40425	44.41	0
3	40516	44.51	0
3	40607	44.61	0
3	40698	44.71	0
3	40789	44.81	0
3	40880	44.91	0
3	40974	45.01	0
3	41065	45.11	0
3	41156	45.21	0
3	41247	45.31	0
3	41338	45.41	0
3	41429	45.51	0
3	41520	45.61	0
3	41611	45.71	0
3	41702	45.81	0
3	41793	45.91	0
3	41887	46.01	0
3	41978	46.11	0
3	42069	46.21	0
3	42160	46.31	0
3	42251	46.41	0
3	42342	46.51	0
3	42433	46.61	0
3	42524	46.71	0
3	42615	46.81	0
3	42706	46.91	0
3	42800	47.01	0
3	42891	47.11	0
3	42982	47.21	0
3	43073	47.31	0
3	43164	47.41	0
3	43255	47.51	0
3	43346	47.61	0
3	43437	47.71	0
3	43528	47.81	0
3	43619	47.91	0
3	43713	48.01	0
3	43804	48.11	0
3	43895	48.21	0
3	43986	48.31	0
3	44077	48.41	0
3	44168	48.51	0
3	44259	48.61	0
3	44350	48.71	0
3	44441	48.81	0
3	44532	48.91	0
3	44626	49.01	0
3	44717	49.11	0
3	44808	49.21	0
3	44899	49.31	0
3	44990	49.41	0
3	45081	49.51	0
3	45172	49.61	0
3	45263	49.71	0
3	45354	49.81	0
3	45445	49.91	0
3	45539	50.01	0
3	45630	50.11	0
3	45721	50.21	0
3	45812	50.31	0
3	45903	50.41	0
3	45994	50.51	0
3	46085	50.61	0
3	46176	50.71	0
3	46267	50.81	0
3	46358	50.91	0
3	46452	51.01	0
3	46543	51.11	0
3	46634	51.21	0
3	46725	51.31	0
3	46816	51.41	0
3	46907	51.51	0
3	46998	51.61	0
3	47089	51.71	0
3	47180	51.81	0
3	47271	51.91	0
3	47365	52.01	0
3	47456	52.11	0
3	47547	52.21	0
3	47638	52.31	0
3	47729	52.41	0
3	47820	52.51	0
3	47911	52.61	0
3	48002	52.71	0
3	48093	52.81	0
3	48184	52.91	0
3	48278	53.01	0
3	48369	53.11	0
3	48460	53.21	0
3	48551	53.31	0
3	48642	53.41	0
3	48733	53.51	0
3	48824	53.61	0
3	48915	53.71	0
3	49006	53.81	0
3	49097	53.91	0
3	49191	54.01	0
3	49282	54.11	0
3	49373	54.21	0
3	49464	54.31	0
3	49555	54.41	0
3	49646	54.51	0
3	49737	54.61	0
3	49828	54.71	0
3	49919	54.81	0
3	50010	54.91	0
3	50104	55.01	0
3	50195	55.11	0
3	50286	55.21	0
3	50377	55.31	0
3	50468	55.41	0
3	50559	55.51	0
3	50650	55.61	0
3	50741	55.71	0
3	50832	55.81	0
3	50923	55.91	0
3	51017	56.01	0
3	51108	56.11	0
3	51199	56.21	0
3	51290	56.31	0
3	51381	56.41	0
3	51472	56.51	0
3	51563	56.61	0
3	51654	56.71	0
3	51745	56.81	0
3	51836	56.91	0
3	51930	57.01	0
3	52021	57.11	0
3	52112	57.21	0
3	52203	57.31	0
3	52294	57.41	0
3	52385	57.51	0
3	52476	57.61	0
3	52567	57.71	0
3	52658	57.81	0
3	52749	57.91	0
3	52843	58.01	0
3	52934	58.11	0
3	53025	58.21	0
3	53116	58.31	0
3	53207	58.41	0
3	53298	58.51	0
3	53389	58.61	0
3	53480	58.71	0
3	53571	58.81	0
3	53662	58.91	0
3	53756	59.01	0
3	53847	59.11	0
3	53938	59.21	0
3	54029	59.31	0
3	54120	59.41	0
3	54211	59.51	0
3	54302	59.61	0
3	54393	59.71	0
3	54484	59.81	0
3	54575	59.91	0
3	54669	60.01	0
3	54760	60.11	0
3	54851	60.21	0
3	54942	60.31	0
3	55033	60.41	0
3	55124	60.51	0
3	55215	60.61	0
3	55306	60.71	0
3	55397	60.81	0
3	55488	60.91	0
3	55582	61.01	0
3	55673	61.11	0
3	55764	61.21	0
3	55855	61.31	0
3	55946	61.41	0
3	56037	61.51	0
3	56128	61.61	0
3	56219	61.71	0
3	56310	61.81	0
3	56401	61.91	0
3	56495	62.01	0
3	56586	62.11	0
3	56677	62.21	0
3	56768	62.31	0
3	56859	62.41	0
3	56950	62.51	0
3	57041	62.61	0
3	57132	62.71	0
3	57223	62.81	0
3	57314	62.91	0
3	57408	63.01	0
3	57499	63.11	0
3	57590	63.21	0
3	57681	63.31	0
3	57772	63.41	0
3	57863	63.51	0
3	57954	63.61	0
3	58045	63.71	0
3	58136	63.81	0
3	58227	63.91	0
3	58321	64.01	0
3	58412	64.11	0
3	58503	64.21	0
3	58594	64.31	0
3	58685	64.41	0
3	58776	64.51	0
3	58867	64.61	0
3	58958	64.71	0
3	59049	64.81	0
3	59140	64.91	0
3	59234	65.01	0
3	59325	65.11	0
3	59416	65.21	0
3	59507	65.31	0
3	59598	65.41	0
3	59689	65.51	0
3	59780	65.61	0
3	59871	65.71	0
3	59962	65.81	0
3	60053	65.91	0
3	60147	66.01	0
3	60238	66.11	0
3	60329	66.21	0
3	60420	66.31	0
3	60511	66.41	0
3	60602	66.51	0
3	60693	66.61	0
3	60784	66.71	0
3	60875	66.81	0
3	60966	66.91	0
3	61060	67.01	0
3	61151	67.11	0
3	61242	67.21	0
3	61333	67.31	0
3	61424	67.41	0
3	61515	67.51	0
3	61606	67.61	0
3	61697	67.71	0
3	61788	67.81	0
3	61879	67.91	0
3	61973	68.01	0
3	62064	68.11	0
3	62155	68.21	0
3	62246	68.31	0
3	62337	68.41	0
3	62428	68.51	0
3	62519	68.61	0
3	62610	68.71	0
3	62701	68.81	0
3	62792	68.91	0
3	62886	69.01	0
3	62977	69.11	0
3	63068	69.21	0
3	63159	69.31	0
3	63250	69.41	0
3	63341	69.51	0
3	63432	69.61	0
3	63523	69.71	0
3	63614	69.81	0
3	63705	69.91	0
3	63799	70.01	0
3	63890	70.11	0
3	63981	70.21	0
3	64072	70.31	0
3	64163	70.41	0
3	64254	70.51	0
3	64345	70.61	0
3	64436	70.71	0
3	64527	70.81	0
3	64618	70.91	0
3	64712	71.01	0
3	64803	71.11	0
3	64894	71.21	0
3	64985	71.31	0
3	65076	71.41	0
3	65167	71.51	0
3	65258	71.61	0
3	65349	71.71	0
3	65440	71.81	0
3	65531	71.91	0
3	65625	72.01	0
3	65716	72.11	0
3	65807	72.21	0
3	65898	72.31	0
3	65989	72.41	0
3	66080	72.51	0
3	66171	72.61	0
3	66262	72.71	0
3	66353	72.81	0
3	66444	72.91	0
3	66538	73.01	0
3	66629	73.11	0
3	66720	73.21	0
3	66811	73.31	0
3	66902	73.41	0
3	66993	73.51	0
3	67084	73.61	0
3	67175	73.71	0
3	67266	73.81	0
3	67357	73.91	0
3	67451	74.01	0
3	67542	74.11	0
3	67633	74.21	0
3	67724	74.31	0
3	67815	74.41	0
3	67906	74.51	0
3	67997	74.61	0
3	68088	74.71	0
3	68179	74.81	0
3	68270	74.91	0
3	68364	75.01	0
3	68455	75.11	0
3	68546	75.21	0
3	68637	75.31	0
3	68728	75.41	0
3	68819	75.51	0
3	68910	75.61	0
3	69001	75.71	0
3	69092	75.81	0
3	69183	75.91	0
3	69277	76.01	0
3	69368	76.11	0
3	69459	76.21	0
3	69550	76.31	0
3	69641	76.41	0
3	69732	76.51	0
3	69823	76.61	0
3	69914	76.71	0
3	70005	76.81	0
3	70096	76.91	0
3	70190	77.01	0
3	70281	77.11	0
3	70372	77.21	0
3	70463	77.31	0
3	70554	77.41	0
3	70645	77.51	0
3	70736	77.61	0
3	70827	77.71	0
3	70918	77.81	0
3	71009	77.91	0
3	71103	78.01	0
3	71194	78.11	0
3	71285	78.21	0
3	71376	78.31	0
3	71467	78.41	0
3	71558	78.51	0
3	71649	78.61	0
3	71740	78.71	0
3	71831	78.81	0
3	71922	78.91	0
3	72016	79.01	0
3	72107	79.11	0
3	72198	79.21	0
3	72289	79.31	0
3	72380	79.41	0
3	72471	79.51	0
3	72562	79.61	0
3	72653	79.71	0
3	72744	79.81	0
3	72835	79.91	0
3	72929	80.01	0
3	73020	80.11	0
3	73111	80.21	0
3	73202	80.31	0
3	73293	80.41	0
3	73384	80.51	0
3	73475	80.61	0
3	73566	80.71	0
3	73657	80.81	0
3	73748	80.91	0
3	73842	81.01	0
3	73933	81.11	0
3	74024	81.21	0
3	74115	81.31	0
3	74206	81.41	0
3	74297	81.51	0
3	74388	81.61	0
3	74479	81.71	0
3	74570	81.81	0
3	74661	81.91	0
3	74755	82.01	0
3	74846	82.11	0
3	74937	82.21	0
3	75028	82.31	0
3	75119	82.41	0
3	75210	82.51	0
3	75301	82.61	0
3	75392	82.71	0
3	75483	82.81	0
3	75574	82.91	0
3	75668	83.01	0
3	75759	83.11	0
3	75850	83.21	0
3	75941	83.31	0
3	76032	83.41	0
3	76123	83.51	0
3	76214	83.61	0
3	76305	83.71	0
3	76396	83.81	0
3	76487	83.91	0
3	76581	84.01	0
3	76672	84.11	0
3	76763	84.21	0
3	76854	84.31	0
3	76945	84.41	0
3	77036	84.51	0
3	77127	84.61	0
3	77218	84.71	0
3	77309	84.81	0
3	77400	84.91	0
3	77494	85.01	0
3	77585	85.11	0
3	77676	85.21	0
3	77767	85.31	0
3	77858	85.41	0
3	77949	85.51	0
3	78040	85.61	0
3	78131	85.71	0
3	78222	85.81	0
3	78313	85.91	0
3	78407	86.01	0
3	78498	86.11	0
3	78589	86.21	0
3	78680	86.31	0
3	78771	86.41	0
3	78862	86.51	0
3	78953	86.61	0
3	79044	86.71	0
3	79135	86.81	0
3	79226	86.91	0
3	79320	87.01	0
3	79411	87.11	0
3	79502	87.21	0
3	79593	87.31	0
3	79684	87.41	0
3	79775	87.51	0
3	79866	87.61	0
3	79957	87.71	0
3	80048	87.81	0
3	80139	87.91	0
3	80233	88.01	0
3	80324	88.11	0
3	80415	88.21	0
3	80506	88.31	0
3	80597	88.41	0
3	80688	88.51	0
3	80779	88.61	0
3	80870	88.71	0
3	80961	88.81	0
3	81052	88.91	0
3	81146	89.01	0
3	81237	89.11	0
3	81328	89.21	0
3	81419	89.31	0
3	81510	89.41	0
3	81601	89.51	0
3	81692	89.61	0
3	81783	89.71	0
3	81874	89.81	0
3	81965	89.91	0
3	82059	90.01	0
3	82150	90.11	0
3	82241	90.21	0
3	82332	90.31	0
3	82423	90.41	0
3	82514	90.51	0
3	82605	90.61	0
3	82696	90.71	0
3	82787	90.81	0
3	82878	90.91	0
3	82972	91.01	0
3	83063	91.11	0
3	83154	91.21	0
3	83245	91.31	0
3	83336	91.41	0
3	83427	91.51	0
3	83518	91.61	0
3	83609	91.71	0
3	83700	91.81	0
3	83791	91.91	0
3	83885	92.01	0
3	83976	92.11	0
3	84067	92.21	0
3	84158	92.31	0
3	84249	92.41	0
3	84340	92.51	0
3	84431	92.61	0
3	84522	92.71	0
3	84613	92.81	0
3	84704	92.91	0
3	84798	93.01	0
3	84889	93.11	0
3	84980	93.21	0
3	85071	93.31	0
3	85162	93.41	0
3	85253	93.51	0
3	85344	93.61	0
3	85435	93.71	0
3	85526	93.81	0
3	85617	93.91	0
3	85711	94.01	0
3	85802	94.11	0
3	85893	94.21	0
3	85984	94.31	0
3	86075	94.41	0
3	86166	94.51	0
3	86257	94.61	0
3	86348	94.71	0
3	86439	94.81	0
3	86530	94.91	0
3	86624	95.01	0
3	86715	95.11	0
3	86806	95.21	0
3	86897	95.31	0
3	86988	95.41	0
3	87079	95.51	0
3	87170	95.61	0
3	87261	95.71	0
3	87352	95.81	0
3	87443	95.91	0
3	87537	96.01	0
3	87628	96.11	0
3	87719	96.21	0
3	87810	96.31	0
3	87901	96.41	0
3	87992	96.51	0
3	88083	96.61	0
3	88174	96.71	0
3	88265	96.81	0
3	88356	96.91	0
3	88450	97.01	0
3	88541	97.11	0
3	88632	97.21	0
3	88723	97.31	0
3	88814	97.41	0
3	88905	97.51	0
3	88996	97.61	0
3	89087	97.71	0
3	89178	97.81	0
3	89269	97.91	0
3	89363	98.01	0
3	89454	98.11	0
3	89545	98.21	0
3	89636	98.31	0
3	89727	98.41	0
3	89818	98.51	0
3	89909	98.61	0
3	90000	98.71	0
3	90091	98.81	0
3	90182	98.91	0
3	90276	99.01	0
3	90367	99.11	0
3	90458	99.21	0
3	90549	99.31	0
3	90640	99.41	0
3	90731	99.51	0
3	90822	99.61	0
3	90913	99.71	0
3	91004	99.81	0
3	91095	99.91	0
4	113	1.11	-0.00437036
4	204	1.21	-0.00426837
4	295	1.31	-0.00410815
4	386	1.41	-0.00390303
4	477	1.51	-0.00366476
4	568	1.61	-0.00340356
4	659	1.71	-0.00312825
4	750	1.81	-0.00284628
4	841	1.91	-0.00256392
4	935	2.01	-0.0022863
4	1026	2.11	-0.00201755
4	1117	2.21	-0.00176089
4	1208	2.31	-0.00151876
4	1299	2.41	-0.00129289
4	1390	2.51	-0.00108441
4	1481	2.61	-0.00089393
4	1572	2.71	-0.000721638
4	1663	2.81	-0.000567355
4	1754	2.91	-0.000430614
4	1848	3.01	-0.000310715
4	1939	3.11	-0.000206783
4	2030	3.21	-0.000117814
4	2121	3.31	-4.27149e-05
4	2212	3.41	1.96584e-05
4	2303	3.51	7.04736e-05
4	2394	3.61	0.000110896
4	2485	3.71	0.000142067
4	2576	3.81	0.00016509
4	2667	3.91	0.000181016
4	2761	4.01	0.000190834
4	2852	4.11	0.000195466
4	2943	4.21	0.00019576
4	3034	4.31	0.000192489
4	3125	4.41	0.000186354
4	3216	4.51	0.000177979
4	3307	4.61	0.000167916
4	3398	4.71	0.000156649
4	3489	4.81	0.000144597
4	3580	4.91	0.000132116
4	3674	5.01	0.000119508
4	3765	5.11	0.000107021
4	3856	5.21	9.48587e-05
4	3947	5.31	8.31796e-05
4	4038	5.41	7.21068e-05
4	4129	5.51	6.17299e-05
4	4220	5.61	5.21101e-05
4	4311	5.71	4.32839e-05
4	4402	5.81	3.52669e-05
4	4493	5.91	2.80577e-05
4	4587	6.01	2.16404e-05
4	4678	6.11	1.59878e-05
4	4769	6.21	1.1064e-05
4	4860	6.31	6.82631e-06
4	4951	6.41	3.22748e-06
4	5042	6.51	2.17307e-07
4	5133	6.61	-2.25598e-06
4	5224	6.71	-4.24448e-06
4	5315	6.81	-5.79961e-06
4	5406	6.91	-6.97134e-06
4	5500	7.01	-7.80753e-06
4	5591	7.11	-8.35346e-06
4	5682	7.21	-8.65149e-06
4	5773	7.31	-8.7408e-06
4	5864	7.41	-8.6573e-06
4	5955	7.51	-8.43352e-06
4	6046	7.61	-8.09868e-06
4	6137	7.71	-7.67874e-06
4	6228	7.81	-7.19651e-06
4	6319	7.91	-6.67185e-06
4	6413	8.01	-6.12177e-06
4	6504	8.11	-5.56072e-06
4	6595	8.21	-5.00073e-06
4	6686	8.31	-4.45164e-06
4	6777	8.41	-3.92136e-06
4	6868	8.51	-3.41601e-06
4	6959	8.61	-2.94018e-06
4	7050	8.71	-2.4971e-06
4	7141	8.81	-2.08883e-06
4	7232	8.91	-1.71644e-06
4	7326	9.01	-1.38016e-06
4	7417	9.11	-1.07955e-06
4	7508	9.21	-8.13576e-07
4	7599	9.31	-5.80794e-07
4	7690	9.41	-3.79414e-07
4	7781	9.51	-2.07408e-07
4	7872	9.61	-6.25825e-08
4	7963	9.71	5.73472e-08
4	8054	9.81	1.54703e-07
4	8145	9.91	2.31794e-07
4	8268	10.01	2.90877e-07
4	8361	10.11	3.3413e-07
4	8454	10.21	3.63618e-07
4	8547	10.31	3.81288e-07
4	8640	10.41	3.88944e-07
4	8733	10.51	3.88249e-07
4	8826	10.61	3.80715e-07
4	8919	10.71	3.67706e-07
4	9012	10.81	3.50439e-07
4	9105	10.91	3.29989e-07
4	9201	11.01	3.07294e-07
4	9294	11.11	2.83164e-07
4	9387	11.21	2.58291e-07
4	9480	11.31	2.33253e-07
4	9573	11.41	2.0853e-07
4	9666	11.51	1.84509e-07
4	9759	11.61	1.61493e-07
4	9852	11.71	1.39716e-07
4	9945	11.81	1.19345e-07
4	10038	11.91	1.00493e-07
4	10134	12.01	8.32259e-08
4	10227	12.11	6.75676e-08
4	10320	12.21	5.35106e-08
4	10413	12.31	4.10193e-08
4	10506	12.41	3.00361e-08
4	10599	12.51	2.04874e-08
4	10692	12.61	1.22867e-08
4	10785	12.71	5.33902e-09
4	10878	12.81	-4.56524e-10
4	10971	12.91	-5.20259e-09
4	11067	13.01	-9.00258e-09
4	11160	13.11	-1.19588e-08
4	11253	13.21	-1.41693e-08
4	11346	13.31	-1.57286e-08
4	11439	13.41	-1.67255e-08
4	11532	13.51	-1.72435e-08
4	11625	13.61	-1.73589e-08
4	11718	13.71	-1.71426e-08
4	11811	13.81	-1.66573e-08
4	11904	13.91	-1.59606e-08
4	12000	14.01	-1.51029e-08
4	12093	14.11	-1.41284e-08
4	12186	14.21	-1.30754e-08
4	12279	14.31	-1.19773e-08
4	12372	14.41	-1.08614e-08
4	12465	14.51	-9.75113e-09
4	12558	14.61	-8.66542e-09
4	12651	14.71	-7.61951e-09
4	12744	14.81	-6.62475e-09
4	12837	14.91	-5.69003e-09
4	12933	15.01	-4.82103e-09
4	13026	15.11	-4.02167e-09
4	13119	15.21	-3.29372e-09
4	13212	15.31	-2.63753e-09
4	13305	15.41	-2.05205e-09
4	13398	15.51	-1.53477e-09
4	13491	15.61	-1.08287e-09
4	13584	15.71	-6.92779e-10
4	13677	15.81	-3.606e-10
4	13770	15.91	-8.13571e-11
4	13866	16.01	1.49214e-10
4	13959	16.11	3.35731e-10
4	14052	16.21	4.82459e-10
4	14145	16.31	5.94369e-10
4	14238	16.41	6.75726e-10
4	14331	16.51	7.30083e-10
4	14424	16.61	7.61702e-10
4	14517	16.71	7.73781e-10
4	14610	16.81	7.70228e-10
4	14703	16.91	7.53175e-10
4	14799	17.01	7.25819e-10
4	14892	17.11	6.90292e-10
4	14985	17.21	6.48726e-10
4	15078	17.31	6.03251e-10
4	15171	17.41	5.54934e-10
4	15264	17.51	5.05196e-10
4	15357	17.61	4.55458e-10
4	15450	17.71	4.0643e-10
4	15543	17.81	3.58824e-10
4	15636	17.91	3.13349e-10
4	15732	18.01	2.70717e-10
4	15825	18.11	2.30571e-10
4	15918	18.21	1.93623e-10
4	16011	18.31	1.59872e-10
4	16104	18.41	1.29319e-10
4	16197	18.51	1.01963e-10
4	16290	18.61	7.78044e-11
4	16383	18.71	5.64881e-11
4	16476	18.81	3.8014e-11
4	16569	18.91	2.20268e-11
4	16665	19.01	8.88178e-12
4	16758	19.11	-2.4869e-12
4	16851	19.21	-1.13687e-11
4	16944	19.31	-1.88294e-11
4	17037	19.41	-2.45137e-11
4	17130	19.51	-2.8777e-11
4	17223	19.61	-3.16192e-11
4	17316	19.71	-3.33955e-11
4	17409	19.81	-3.44613e-11
4	17502	19.91	-3.44613e-11
4	17598	20.01	-3.41061e-11
4	17691	20.11	-3.30402e-11
4	17784	20.21	-3.16192e-11
4	17877	20.31	-3.01981e-11
4	17970	20.41	-2.80664e-11
4	18063	20.51	-2.59348e-11
4	18156	20.61	-2.41585e-11
4	18249	20.71	-2.20268e-11
4	18342	20.81	-1.98952e-11
4	18435	20.91	-1.77636e-11
4	18531	21.01	-1.59872e-11
4	18624	21.11	-1.38556e-11
4	18717	21.21	-1.1724e-11
4	18810	21.31	-9.9476e-12
4	18903	21.41	-8.17124e-12
4	18996	21.51	-6.39488e-12
4	19089	21.61	-4.9738e-12
4	19182	21.71	-3.55271e-12
4	19275	21.81	-2.4869e-12
4	19368	21.91	-1.42109e-12
4	19464	22.01	-3.55271e-13
4	19557	22.11	3.55271e-13
4	19650	22.21	1.42109e-12
4	19743	22.31	2.13163e-12
4	19836	22.41	2.84217e-12
4	19929	22.51	3.19744e-12
4	20022	22.61	3.90799e-12
4	20115	22.71	4.26326e-12
4	20208	22.81	4.61853e-12
4	20301	22.91	4.9738e-12
4	20397	23.01	5.32907e-12
4	20490	23.11	5.68434e-12
4	20583	23.21	6.03961e-12
4	20676	23.31	6.39488e-12
4	20769	23.41	6.75016e-12
4	20862	23.51	6.75016e-12
4	20955	23.61	7.10543e-12
4	21048	23.71	7.10543e-12
4	21141	23.81	7.4607e-12
4	21234	23.91	7.4607e-12
4	21330	24.01	7.81597e-12
4	21423	24.11	7.81597e-12
4	21516	24.21	7.81597e-12
4	21609	24.31	7.81597e-12
4	21702	24.41	8.17124e-12
4	21795	24.51	8.17124e-12
4	21888	24.61	8.17124e-12
4	21981	24.71	8.17124e-12
4	22074	24.81	8.17124e-12
4	22167	24.91	8.52651e-12
4	22263	25.01	8.52651e-12
4	22356	25.11	8.52651e-12
4	22449	25.21	8.52651e-12
4	22542	25.31	8.52651e-12
[...]
31	71283	78.2025894491	2
31	71374	78.302581000533	2
31	71465	78.402585553284	2
31	71556	78.502590107354	2
31	71647	78.602581662744	2
31	71738	78.702586219453	2
31	71829	78.802590777484	2
31	71920	78.902582336834	2
31	72014	79.002586897504	2
31	72105	79.102591459494	2
31	72196	79.202583022804	2
31	72287	79.302587587435	2
31	72378	79.402592153387	2
31	72469	79.502583720659	2
31	72560	79.602588289253	2
31	72651	79.702592859168	2
31	72742	79.802584430404	2
31	72833	79.902589002962	2
31	72927	80.002593576841	2
31	73018	80.102585152043	2
31	73109	80.202589728566	2
31	73200	80.302581306409	2
31	73291	80.402585885576	2
31	73382	80.502590466064	2
31	73473	80.602582047874	2
31	73564	80.702586631008	2
31	73655	80.802591215464	2
31	73746	80.902582801242	2
31	73840	81.002587388344	2
31	73931	81.102591976768	2
31	74022	81.202583566514	2
31	74113	81.302588157584	2
31	74204	81.402592749976	2
31	74295	81.502584343692	2
31	74386	81.602588938731	2
31	74477	81.702593535093	2
31	74568	81.80258513278	2
31	74659	81.902589731791	2
31	74753	82.002581332125	2
31	74844	82.102585933782	2
31	74935	82.202590536764	2
31	75026	82.30258214107	2
31	75117	82.402586746699	2
31	75208	82.502591353654	2
31	75299	82.602582961932	2
31	75390	82.702587571534	2
31	75481	82.802592182462	2
31	75572	82.902583794714	2
31	75666	83.002588408289	2
31	75757	83.10259302319	2
31	75848	83.202584639416	2
31	75939	83.302589256966	2
31	76030	83.402580875842	2
31	76121	83.502585496044	2
31	76212	83.60259011757	2
31	76303	83.702581740421	2
31	76394	83.802586364599	2
31	76485	83.902590990101	2
31	76579	84.002582616927	2
31	76670	84.10258724508	2
31	76761	84.202591874559	2
31	76852	84.302583505363	2
31	76943	84.402588137492	2
31	77034	84.502592770948	2
31	77125	84.60258440573	2
31	77216	84.702589041837	2
31	77307	84.802593679271	2
31	77398	84.902585318031	2
31	77492	85.002589958116	2
31	77583	85.102581599527	2
31	77674	85.202586242266	2
31	77765	85.302590886331	2
31	77856	85.402582531722	2
31	77947	85.502587178439	2
31	78038	85.602591826484	2
31	78129	85.702583475855	2
31	78220	85.802588126552	2
31	78311	85.902592778575	2
31	78405	86.002584431926	2
31	78496	86.102589086603	2
31	78587	86.202593742607	2
31	78678	86.302585399938	2
31	78769	86.402590058597	2
31	78860	86.502581718583	2
31	78951	86.602586379896	2
31	79042	86.702591042536	2
31	79133	86.802582706503	2
31	79224	86.902587371797	2
31	79318	87.002592038418	2
31	79409	87.102583706366	2
31	79500	87.202588375643	2
31	79591	87.302593046248	2
31	79682	87.40258471818	2
31	79773	87.502589391439	2
31	79864	87.602581066026	2
31	79955	87.70258574194	2
31	80046	87.802590419182	2
31	80137	87.902582097752	2
31	80231	88.002586777649	2
31	80322	88.102591458875	2
31	80413	88.202583141429	2
31	80504	88.302587825311	2
31	80595	88.40259251052	2
31	80686	88.502584197058	2
31	80777	88.602588884924	2
31	80868	88.702593574117	2
31	80959	88.802585264639	2
31	81050	88.902589956488	2
31	81144	89.002581649667	2
31	81235	89.102586344174	2
31	81326	89.202591040009	2
31	81417	89.302582737173	2
31	81508	89.402587435664	2
31	81599	89.502592135484	2
31	81690	89.602583836633	2
31	81781	89.70258853911	2
31	81872	89.802593242915	2
31	81963	89.90258494805	2
31	82057	90.002589654514	2
31	82148	90.102581362307	2
31	82239	90.202586071428	2
31	82330	90.302590781878	2
31	82421	90.402582493656	2
31	82512	90.502587206763	2
31	82603	90.602591921199	2
31	82694	90.702583636964	2
31	82785	90.802588354058	2
31	82876	90.90259307248	2
31	82970	91.002584792232	2
31	83061	91.102589513314	2
31	83152	91.202581235724	2
31	83243	91.302585959464	2
31	83334	91.402590684531	2
31	83425	91.502582410929	2
31	83516	91.602587138656	2
31	83607	91.702591867713	2
31	83698	91.802583598098	2
31	83789	91.902588329813	2
31	83883	92.002593062856	2
31	83974	92.10258479723	2
31	84065	92.202589532934	2
31	84156	92.302581269967	2
31	84247	92.402586008328	2
31	84338	92.502590748019	2
31	84429	92.602582489039	2
31	84520	92.70258723139	2
31	84611	92.802591975071	2
31	84702	92.902583720081	2
31	84796	93.00258846642	2
31	84887	93.102593214089	2
31	84978	93.202584963087	2
31	85069	93.302589713415	2
31	85160	93.402581465073	2
31	85251	93.502586218061	2
31	85342	93.602590972379	2
31	85433	93.702582728027	2
31	85524	93.802587485004	2
31	85615	93.902592243312	2
31	85709	94.00258400295	2
31	85800	94.102588763918	2
31	85891	94.202593526215	2
31	85982	94.302585289842	2
31	86073	94.402590054799	2
31	86164	94.502581821085	2
31	86255	94.602586588703	2
31	86346	94.702591357651	2
31	86437	94.802583127929	2
31	86528	94.902587899537	2
31	86622	95.002592672475	2
31	86713	95.102584446743	2
31	86804	95.20258922234	2
31	86895	95.302580999269	2
31	86986	95.402585777528	2
31	87077	95.502590557118	2
31	87168	95.602582338037	2
31	87259	95.702587120287	2
31	87350	95.802591903868	2
31	87441	95.902583688778	2
31	87535	96.002588475019	2
31	87626	96.10259326259	2
31	87717	96.202585051492	2
31	87808	96.302589841724	2
31	87899	96.402581633287	2
31	87990	96.50258642618	2
31	88081	96.602591220403	2
31	88172	96.702583015958	2
31	88263	96.802587812844	2
31	88354	96.902592611061	2
31	88448	97.002584410607	2
31	88539	97.102589211483	2
31	88630	97.20258101369	2
31	88721	97.302585817228	2
31	88812	97.402590622096	2
31	88903	97.502582428296	2
31	88994	97.602587235827	2
31	89085	97.702592044689	2
31	89176	97.802583854882	2
31	89267	97.902588666404	2
31	89361	98.002593479257	2
31	89452	98.102585293441	2
31	89543	98.202590108956	2
31	89634	98.302581925801	2
31	89725	98.402586743978	2
31	89816	98.502591563486	2
31	89907	98.602583384325	2
31	89998	98.702588206496	2
31	90089	98.802593029996	2
31	90180	98.902584854827	2
31	90274	99.002589680989	2
31	90365	99.102581508482	2
31	90456	99.202586337306	2
31	90547	99.302591167462	2
31	90638	99.402582998949	2
31	90729	99.502587831767	2
31	90820	99.602592665917	2
31	90911	99.702584501397	2
31	91002	99.802589338207	2
31	91093	99.902581176349	2
32	905	2	0
32	1818	3	0
32	2731	4	0
32	3644	5	0
32	4557	6	0
32	5470	7	0
32	6383	8	0
32	7296	9	0
32	8210	10	0
32	9169	11	0
32	10102	12	0
32	11035	13	0
32	11968	14	0
32	12901	15	0
32	13834	16	0
32	14767	17	0
32	15700	18	0
32	16633	19	0
32	17566	20	0
32	18499	21	0
32	19432	22	0
32	20365	23	0
32	21298	24	0
32	22231	25	0
32	23164	26	0
32	24097	27	0
32	25030	28	0
32	25963	29	0
32	26896	30	0
32	27829	31	0
32	28762	32	0
32	29695	33	0
32	30628	34	0
32	31561	35	0
32	32494	36	0
32	33465	37	0
32	34388	38	0
32	35311	39	0
32	36234	40	0
32	37157	41	0
32	38205	42	0
32	39118	43	0
32	40031	44	0
32	40944	45	0
32	41857	46	0
32	42770	47	0
32	43683	48	0
32	44596	49	0
32	45509	50	0
32	46422	51	0
32	47335	52	0
32	48248	53	0
32	49161	54	0
32	50074	55	0
32	50987	56	0
32	51900	57	0
32	52813	58	0
32	53726	59	0
32	54639	60	0
32	55552	61	0
32	56465	62	0
32	57378	63	0
32	58291	64	0
32	59204	65	0
32	60117	66	0
32	61030	67	0
32	61943	68	0
32	62856	69	0
32	63769	70	0
32	64682	71	0
32	65595	72	0
32	66508	73	0
32	67421	74	0
32	68334	75	0
32	69247	76	0
32	70160	77	0
32	71073	78	0
32	71986	79	0
32	72899	80	0
32	73812	81	0
32	74725	82	0
32	75638	83	0
32	76551	84	0
32	77464	85	0
32	78377	86	0
32	79290	87	0
32	80203	88	0
32	81116	89	0
32	82029	90	0
32	82942	91	0
32	83855	92	0
32	84768	93	0
32	85681	94	0
32	86594	95	0
32	87507	96	0
32	88420	97	0
32	89333	98	0
32	90246	99	0
32	91159	100	0
33	905	2	0.008121
33	1818	3	0.00937
33	2731	4	0.00937
33	3644	5	0.00937
33	4557	6	0.00937
33	5470	7	0.00937
33	6383	8	0.00937
33	7296	9	0.00937
33	8210	10	0.00937
33	9169	11	0.009419
33	10102	12	0.00937
33	11035	13	0.00937
33	11968	14	0.00937
33	12901	15	0.00937
33	13834	16	0.00937
33	14767	17	0.00937
33	15700	18	0.00937
33	16633	19	0.00937
33	17566	20	0.00937
33	18499	21	0.00937
33	19432	22	0.00937
33	20365	23	0.00937
33	21298	24	0.00937
33	22231	25	0.00937
33	23164	26	0.00937
33	24097	27	0.00937
33	25030	28	0.00937
33	25963	29	0.00937
33	26896	30	0.00937
33	27829	31	0.00937
33	28762	32	0.00937
33	29695	33	0.00937
33	30628	34	0.00937
33	31561	35	0.00937
33	32494	36	0.00937
33	33465	37	0.009514
33	34388	38	0.00937
33	35311	39	0.00937
33	36234	40	0.00937
33	37157	41	0.00937
33	38205	42	0.00980417886
33	39118	43	0.00937
33	40031	44	0.00937
33	40944	45	0.00937
33	41857	46	0.00937
33	42770	47	0.00937
33	43683	48	0.00937
33	44596	49	0.00937
33	45509	50	0.00937
33	46422	51	0.00937
33	47335	52	0.00937
33	48248	53	0.00937
33	49161	54	0.00937
33	50074	55	0.00937
33	50987	56	0.00937
33	51900	57	0.00937
33	52813	58	0.00937
33	53726	59	0.00937
33	54639	60	0.00937
33	55552	61	0.00937
33	56465	62	0.00937
33	57378	63	0.00937
33	58291	64	0.00937
33	59204	65	0.00937
33	60117	66	0.00937
33	61030	67	0.00937
33	61943	68	0.00937
33	62856	69	0.00937
33	63769	70	0.00937
33	64682	71	0.00937
33	65595	72	0.00937
33	66508	73	0.00937
33	67421	74	0.00937
33	68334	75	0.00937
33	69247	76	0.00937
33	70160	77	0.00937
33	71073	78	0.00937
33	71986	79	0.00937
33	72899	80	0.00937
33	73812	81	0.00937
33	74725	82	0.00937
33	75638	83	0.00937
33	76551	84	0.00937
33	77464	85	0.00937
33	78377	86	0.00937
33	79290	87	0.00937
33	80203	88	0.00937
33	81116	89	0.00937
33	82029	90	0.00937
33	82942	91	0.00937
33	83855	92	0.00937
33	84768	93	0.00937
33	85681	94	0.00937
33	86594	95	0.00937
33	87507	96	0.00937
33	88420	97	0.00937
33	89333	98	0.00937
33	90246	99	0.00937
33	91159	100	0.00937
34	905	2	0
34	1818	3	0
34	2731	4	0
34	3644	5	0
34	4557	6	0
34	5470	7	0
34	6383	8	0
34	7296	9	0
34	8210	10	0
34	9169	11	0
34	10102	12	0
34	11035	13	0
34	11968	14	0
34	12901	15	0
34	13834	16	0
34	14767	17	0
34	15700	18	0
34	16633	19	0
34	17566	20	0
34	18499	21	0
34	19432	22	0
34	20365	23	0
34	21298	24	0
34	22231	25	0
34	23164	26	0
34	24097	27	0
34	25030	28	0
34	25963	29	0
34	26896	30	0
34	27829	31	0
34	28762	32	0
34	29695	33	0
34	30628	34	0
34	31561	35	0
34	32494	36	0
34	33465	37	0
34	34388	38	0
34	35311	39	0
34	36234	40	0
34	37157	41	0
34	38205	42	0
34	39118	43	0
34	40031	44	0
34	40944	45	0
34	41857	46	0
34	42770	47	0
34	43683	48	0
34	44596	49	0
34	45509	50	0
34	46422	51	0
34	47335	52	0
34	48248	53	0
34	49161	54	0
34	50074	55	0
34	50987	56	0
34	51900	57	0
34	52813	58	0
34	53726	59	0
34	54639	60	0
34	55552	61	0
34	56465	62	0
34	57378	63	0
34	58291	64	0
34	59204	65	0
34	60117	66	0
34	61030	67	0
34	61943	68	0
34	62856	69	0
34	63769	70	0
34	64682	71	0
34	65595	72	0
34	66508	73	0
34	67421	74	0
34	68334	75	0
34	69247	76	0
34	70160	77	0
34	71073	78	0
34	71986	79	0
34	72899	80	0
34	73812	81	0
34	74725	82	0
34	75638	83	0
34	76551	84	0
34	77464	85	0
34	78377	86	0
34	79290	87	0
34	80203	88	0
34	81116	89	0
34	82029	90	0
34	82942	91	0
34	83855	92	0
34	84768	93	0
34	85681	94	0
34	86594	95	0
34	87507	96	0
34	88420	97	0
34	89333	98	0
34	90246	99	0
34	91159	100	0
35	906	2	1
35	1819	3	1
35	2732	4	1
35	3645	5	1
35	4558	6	1
35	5471	7	1
35	6384	8	1
35	7297	9	1
35	8211	10	1
35	9170	11	1
35	10103	12	1
35	11036	13	1
35	11969	14	1
35	12902	15	1
35	13835	16	1
35	14768	17	1
35	15701	18	1
35	16634	19	1
35	17567	20	1
35	18500	21	1
35	19433	22	1
35	20366	23	1
35	21299	24	1
35	22232	25	1
35	23165	26	1
35	24098	27	1
35	25031	28	1
35	25964	29	1
35	26897	30	1
35	27830	31	1
35	28763	32	1
35	29696	33	1
35	30629	34	1
35	31562	35	1
35	32495	36	1
35	33466	37	1
35	34389	38	1
35	35312	39	1
35	36235	40	1
35	37158	41	1
35	38206	42	1
35	39119	43	1
35	40032	44	1
35	40945	45	1
35	41858	46	1
35	42771	47	1
35	43684	48	1
35	44597	49	1
35	45510	50	1
35	46423	51	1
35	47336	52	1
35	48249	53	1
35	49162	54	1
35	50075	55	1
35	50988	56	1
35	51901	57	1
35	52814	58	1
35	53727	59	1
35	54640	60	1
35	55553	61	1
35	56466	62	1
35	57379	63	1
35	58292	64	1
35	59205	65	1
35	60118	66	1
35	61031	67	1
35	61944	68	1
35	62857	69	1
35	63770	70	1
35	64683	71	1
35	65596	72	1
35	66509	73	1
35	67422	74	1
35	68335	75	1
35	69248	76	1
35	70161	77	1
35	71074	78	1
35	71987	79	1
35	72900	80	1
35	73813	81	1
35	74726	82	1
35	75639	83	1
35	76552	84	1
35	77465	85	1
35	78378	86	1
35	79291	87	1
35	80204	88	1
35	81117	89	1
35	82030	90	1
35	82943	91	1
35	83856	92	1
35	84769	93	1
35	85682	94	1
35	86595	95	1
35	87508	96	1
35	88421	97	1
35	89334	98	1
35	90247	99	1
35	91160	100	1
36	906	2	0.00812
36	1819	3	0.00937
36	2732	4	0.00937
36	3645	5	0.00937
36	4558	6	0.00937
36	5471	7	0.00937
36	6384	8	0.00937
36	7297	9	0.00937
36	8211	10	0.00937
36	9170	11	0.009418
36	10103	12	0.00937
36	11036	13	0.00937
36	11969	14	0.00937
36	12902	15	0.00937
36	13835	16	0.00937
36	14768	17	0.00937
36	15701	18	0.00937
36	16634	19	0.00937
36	17567	20	0.00937
36	18500	21	0.00937
36	19433	22	0.00937
36	20366	23	0.00937
36	21299	24	0.00937
36	22232	25	0.00937
36	23165	26	0.00937
36	24098	27	0.00937
36	25031	28	0.00937
36	25964	29	0.00937
36	26897	30	0.00937
36	27830	31	0.00937
36	28763	32	0.00937
36	29696	33	0.00937
36	30629	34	0.00937
36	31562	35	0.00937
36	32495	36	0.00937
36	33466	37	0.009515059378
36	34389	38	0.00937
36	35312	39	0.00937
36	36235	40	0.00937
36	37158	41	0.00937
36	38206	42	0.009738
36	39119	43	0.00937
36	40032	44	0.00937
36	40945	45	0.00937
36	41858	46	0.00937
36	42771	47	0.00937
36	43684	48	0.00937
36	44597	49	0.00937
36	45510	50	0.00937
36	46423	51	0.00937
36	47336	52	0.00937
36	48249	53	0.00937
36	49162	54	0.00937
36	50075	55	0.00937
36	50988	56	0.00937
36	51901	57	0.00937
36	52814	58	0.00937
36	53727	59	0.00937
36	54640	60	0.00937
36	55553	61	0.00937
36	56466	62	0.00937
36	57379	63	0.00937
36	58292	64	0.00937
36	59205	65	0.00937
36	60118	66	0.00937
36	61031	67	0.00937
36	61944	68	0.00937
36	62857	69	0.00937
36	63770	70	0.00937
36	64683	71	0.00937
36	65596	72	0.00937
36	66509	73	0.00937
36	67422	74	0.00937
36	68335	75	0.00937
36	69248	76	0.00937
36	70161	77	0.00937
36	71074	78	0.00937
36	71987	79	0.00937
36	72900	80	0.00937
36	73813	81	0.00937
36	74726	82	0.00937
36	75639	83	0.00937
36	76552	84	0.00937
36	77465	85	0.00937
36	78378	86	0.00937
36	79291	87	0.00937
36	80204	88	0.00937
36	81117	89	0.00937
36	82030	90	0.00937
36	82943	91	0.00937
36	83856	92	0.00937
36	84769	93	0.00937
36	85682	94	0.00937
36	86595	95	0.00937
36	87508	96	0.00937
36	88421	97	0.00937
36	89334	98	0.00937
36	90247	99	0.00937
36	91160	100	0.00937
37	906	2	0
37	1819	3	0
37	2732	4	0
37	3645	5	0
37	4558	6	0
37	5471	7	0
37	6384	8	0
37	7297	9	0
37	8211	10	0
37	9170	11	0
37	10103	12	0
37	11036	13	0
37	11969	14	0
37	12902	15	0
37	13835	16	0
37	14768	17	0
37	15701	18	0
37	16634	19	0
37	17567	20	0
37	18500	21	0
37	19433	22	0
37	20366	23	0
37	21299	24	0
37	22232	25	0
37	23165	26	0
37	24098	27	0
37	25031	28	0
37	25964	29	0
37	26897	30	0
37	27830	31	0
37	28763	32	0
37	29696	33	0
37	30629	34	0
37	31562	35	0
37	32495	36	0
37	33466	37	0
37	34389	38	0
37	35312	39	0
37	36235	40	0
37	37158	41	0
37	38206	42	0
37	39119	43	0
37	40032	44	0
37	40945	45	0
37	41858	46	0
37	42771	47	0
37	43684	48	0
37	44597	49	0
37	45510	50	0
37	46423	51	0
37	47336	52	0
37	48249	53	0
37	49162	54	0
37	50075	55	0
37	50988	56	0
37	51901	57	0
37	52814	58	0
37	53727	59	0
37	54640	60	0
37	55553	61	0
37	56466	62	0
37	57379	63	0
37	58292	64	0
37	59205	65	0
37	60118	66	0
37	61031	67	0
37	61944	68	0
37	62857	69	0
37	63770	70	0
37	64683	71	0
37	65596	72	0
37	66509	73	0
37	67422	74	0
37	68335	75	0
37	69248	76	0
37	70161	77	0
37	71074	78	0
37	71987	79	0
37	72900	80	0
37	73813	81	0
37	74726	82	0
37	75639	83	0
37	76552	84	0
37	77465	85	0
37	78378	86	0
37	79291	87	0
37	80204	88	0
37	81117	89	0
37	82030	90	0
37	82943	91	0
37	83856	92	0
37	84769	93	0
37	85682	94	0
37	86595	95	0
37	87508	96	0
37	88421	97	0
37	89334	98	0
37	90247	99	0
37	91160	100	0
38	907	2	2
38	1820	3	2
38	2733	4	2
38	3646	5	2
38	4559	6	2
38	5472	7	2
38	6385	8	2
38	7298	9	2
38	8212	10	2
38	9171	11	2
38	10104	12	2
38	11037	13	2
38	11970	14	2
38	12903	15	2
38	13836	16	2
38	14769	17	2
38	15702	18	2
38	16635	19	2
38	17568	20	2
38	18501	21	2
38	19434	22	2
38	20367	23	2
38	21300	24	2
38	22233	25	2
38	23166	26	2
38	24099	27	2
38	25032	28	2
38	25965	29	2
38	26898	30	2
38	27831	31	2
38	28764	32	2
38	29697	33	2
38	30630	34	2
38	31563	35	2
38	32496	36	2
38	33467	37	2
38	34390	38	2
38	35313	39	2
38	36236	40	2
38	37159	41	2
38	38207	42	2
38	39120	43	2
38	40033	44	2
38	40946	45	2
38	41859	46	2
38	42772	47	2
38	43685	48	2
38	44598	49	2
38	45511	50	2
38	46424	51	2
38	47337	52	2
38	48250	53	2
38	49163	54	2
38	50076	55	2
38	50989	56	2
38	51902	57	2
38	52815	58	2
38	53728	59	2
38	54641	60	2
38	55554	61	2
38	56467	62	2
38	57380	63	2
38	58293	64	2
38	59206	65	2
38	60119	66	2
38	61032	67	2
38	61945	68	2
38	62858	69	2
38	63771	70	2
38	64684	71	2
38	65597	72	2
38	66510	73	2
38	67423	74	2
38	68336	75	2
38	69249	76	2
38	70162	77	2
38	71075	78	2
38	71988	79	2
38	72901	80	2
38	73814	81	2
38	74727	82	2
38	75640	83	2
38	76553	84	2
38	77466	85	2
38	78379	86	2
38	79292	87	2
38	80205	88	2
38	81118	89	2
38	82031	90	2
38	82944	91	2
38	83857	92	2
38	84770	93	2
38	85683	94	2
38	86596	95	2
38	87509	96	2
38	88422	97	2
38	89335	98	2
38	90248	99	2
38	91161	100	2
39	907	2	0.008121
39	1820	3	0.00937
39	2733	4	0.00937
39	3646	5	0.00937
39	4559	6	0.00937
39	5472	7	0.00937
39	6385	8	0.00937
39	7298	9	0.00937
39	8212	10	0.00937
39	9171	11	0.009418
39	10104	12	0.00937
39	11037	13	0.00937
39	11970	14	0.00937
39	12903	15	0.00937
39	13836	16	0.00937
39	14769	17	0.00937
39	15702	18	0.00937
39	16635	19	0.00937
39	17568	20	0.00937
39	18501	21	0.00937
39	19434	22	0.00937
39	20367	23	0.00937
39	21300	24	0.00937
39	22233	25	0.00937
39	23166	26	0.00937
39	24099	27	0.00937
39	25032	28	0.00937
39	25965	29	0.00937
39	26898	30	0.00937
39	27831	31	0.00937
39	28764	32	0.00937
39	29697	33	0.00937
39	30630	34	0.00937
39	31563	35	0.00937
39	32496	36	0.00937
39	33467	37	0.009482
39	34390	38	0.00937
39	35313	39	0.00937
39	36236	40	0.00937
39	37159	41	0.00937
39	38207	42	0.009771119118
39	39120	43	0.00937
39	40033	44	0.00937
39	40946	45	0.00937
39	41859	46	0.00937
39	42772	47	0.00937
39	43685	48	0.00937
39	44598	49	0.00937
39	45511	50	0.00937
39	46424	51	0.00937
39	47337	52	0.00937
39	48250	53	0.00937
39	49163	54	0.00937
39	50076	55	0.00937
39	50989	56	0.00937
39	51902	57	0.00937
39	52815	58	0.00937
39	53728	59	0.00937
39	54641	60	0.00937
39	55554	61	0.00937
39	56467	62	0.00937
39	57380	63	0.00937
39	58293	64	0.00937
39	59206	65	0.00937
39	60119	66	0.00937
39	61032	67	0.00937
39	61945	68	0.00937
39	62858	69	0.00937
39	63771	70	0.00937
39	64684	71	0.00937
39	65597	72	0.00937
39	66510	73	0.00937
39	67423	74	0.00937
39	68336	75	0.00937
39	69249	76	0.00937
39	70162	77	0.00937
39	71075	78	0.00937
39	71988	79	0.00937
39	72901	80	0.00937
39	73814	81	0.00937
39	74727	82	0.00937
39	75640	83	0.00937
39	76553	84	0.00937
39	77466	85	0.00937
39	78379	86	0.00937
39	79292	87	0.00937
39	80205	88	0.00937
39	81118	89	0.00937
39	82031	90	0.00937
39	82944	91	0.00937
39	83857	92	0.00937
39	84770	93	0.00937
39	85683	94	0.00937
39	86596	95	0.00937
39	87509	96	0.00937
39	88422	97	0.00937
39	89335	98	0.00937
39	90248	99	0.00937
39	91161	100	0.00937
40	907	2	0
40	1820	3	0
40	2733	4	0
40	3646	5	0
40	4559	6	0
40	5472	7	0
40	6385	8	0
40	7298	9	0
40	8212	10	0
40	9171	11	0
40	10104	12	0
40	11037	13	0
40	11970	14	0
40	12903	15	0
40	13836	16	0
40	14769	17	0
40	15702	18	0
40	16635	19	0
40	17568	20	0
40	18501	21	0
40	19434	22	0
40	20367	23	0
40	21300	24	0
40	22233	25	0
40	23166	26	0
40	24099	27	0
40	25032	28	0
40	25965	29	0
40	26898	30	0
40	27831	31	0
40	28764	32	0
40	29697	33	0
40	30630	34	0
40	31563	35	0
40	32496	36	0
40	33467	37	0
40	34390	38	0
40	35313	39	0
40	36236	40	0
40	37159	41	0
40	38207	42	0
40	39120	43	0
40	40033	44	0
40	40946	45	0
40	41859	46	0
40	42772	47	0
40	43685	48	0
40	44598	49	0
40	45511	50	0
40	46424	51	0
40	47337	52	0
40	48250	53	0
40	49163	54	0
40	50076	55	0
40	50989	56	0
40	51902	57	0
40	52815	58	0
40	53728	59	0
40	54641	60	0
40	55554	61	0
40	56467	62	0
40	57380	63	0
40	58293	64	0
40	59206	65	0
40	60119	66	0
40	61032	67	0
40	61945	68	0
40	62858	69	0
40	63771	70	0
40	64684	71	0
40	65597	72	0
40	66510	73	0
40	67423	74	0
40	68336	75	0
40	69249	76	0
40	70162	77	0
40	71075	78	0
40	71988	79	0
40	72901	80	0
40	73814	81	0
40	74727	82	0
40	75640	83	0
40	76553	84	0
40	77466	85	0
40	78379	86	0
40	79292	87	0
40	80205	88	0
40	81118	89	0
40	82031	90	0
40	82944	91	0
40	83857	92	0
40	84770	93	0
40	85683	94	0
40	86596	95	0
40	87509	96	0
40	88422	97	0
40	89335	98	0
40	90248	99	0
40	91161	100	0

