file 2439305 1720454548                                         
version 3
run BreakRanksNoGui-20-20240708-18:02:14-157111
attr configname BreakRanksNoGui
attr datetime 20240708-18:02:14
attr datetimef 20240708-180214
attr experiment BreakRanksNoGui
attr inifile omnetpp.ini
attr iterationvars "$nCars=8, $platoonSize=8, $nLanes=1, $ploegH=0.5, $controller=1, $headway=0.1, $leaderHeadway=1.2, $leaderSpeed=130, $breakRanksSafetyDistance=3, $minSpeed=120, $maxSpeed=140, $beaconInterval=0.1, $priority=4, $packetSize=200, $sController=\"CACC\", $0=2, $1=0"
attr iterationvarsd nCars=8/platoonSize=8/nLanes=1/ploegH=0.5/controller=1/headway=0.1/leaderHeadway=1.2/leaderSpeed=130/breakRanksSafetyDistance=3/minSpeed=120/maxSpeed=140/beaconInterval=0.1/priority=4/packetSize=200/sController=CACC/2/0
attr iterationvarsf nCars=8,platoonSize=8,nLanes=1,ploegH=0.5,controller=1,headway=0.1,leaderHeadway=1.2,leaderSpeed=130,breakRanksSafetyDistance=3,minSpeed=120,maxSpeed=140,beaconInterval=0.1,priority=4,packetSize=200,sController=CACC,2,0-
attr measurement "$nCars=8, $platoonSize=8, $nLanes=1, $ploegH=0.5, $controller=1, $headway=0.1, $leaderHeadway=1.2, $leaderSpeed=130, $breakRanksSafetyDistance=3, $minSpeed=120, $maxSpeed=140, $beaconInterval=0.1, $priority=4, $packetSize=200, $sController=\"CACC\", $0=2, $1=0"
attr network Highway
attr processid 157111
attr repetition 0
attr replication #0
attr resultdir results
attr runnumber 20
attr seedset 0
itervar beaconInterval 0.1
itervar breakRanksSafetyDistance 3
itervar controller 1
itervar headway 0.1
itervar leaderHeadway 1.2
itervar leaderSpeed 130
itervar maxSpeed 140
itervar minSpeed 120
itervar nCars 8
itervar nLanes 1
itervar packetSize 200
itervar platoonSize 8
itervar ploegH 0.5
itervar priority 4
itervar sController "\"CACC\""
config image-path ../../../veins/images
config repeat 10
config extends BreakRanks
config *.manager.command "\"sumo\""
config *.manager.ignoreGuiCommands true
config output-vector-file results/BreakRanks_1_0.1_130_3/result_0.vec
config output-scalar-file results/BreakRanks_1_0.1_130_3/result_0.sca
config extends Platooning
config *.node[*].scenario_type "\"BreakRanksScenario\""
config *.manager.command "\"sumo-gui\""
config *.node[*].scenario_type "\"SimpleScenario\""
config cmdenv-express-mode true
config cmdenv-autoflush true
config cmdenv-status-frequency 15s
config num-rngs 6
config network Highway
config debug-on-errors true
config print-undisposed true
config *.playgroundSizeX 65000m
config *.playgroundSizeY 25000m
config *.playgroundSizeZ 50m
config sim-time-limit "100 s"
config *.annotations.draw false
config *.obstacles.debug false
config *.world.useTorus false
config *.world.use2D false
config *.manager.updateInterval 0.01s
config *.manager.host "\"localhost\""
config *.manager.moduleType "\"org.car2x.plexe.PlatoonCar\""
config *.manager.moduleName "\"node\""
config *.manager.moduleDisplayString "\"\""
config *.manager.autoShutdown true
config *.manager.margin 25
config *.connectionManager.sendDirect true
config *.connectionManager.maxInterfDist 2600m
config *.connectionManager.drawMaxIntfDist false
config *.**.nic.mac1609_4.useServiceChannel false
config *.**.nic.mac1609_4.txPower 100mW
config *.**.nic.mac1609_4.bitrate 6Mbps
config *.**.nic.mac1609_4.useAcks true
config *.**.nic.mac1609_4.ackErrorRate 0.0
config *.**.nic.mac1609_4.frameErrorRate 0.0
config *.**.nic.phy80211p.minPowerLevel -94dBm
config *.**.nic.phy80211p.maxTXPower 100mW
config *.**.nic.phy80211p.useNoiseFloor true
config *.**.nic.phy80211p.noiseFloor -95dBm
config *.**.nic.phy80211p.decider "xmldoc(\"config.xml\")"
config *.**.nic.phy80211p.analogueModels "xmldoc(\"config.xml\")"
config *.**.nic.phy80211p.usePropagationDelay true
config *.node[*].mobility.x 0
config *.node[*].mobility.y 0
config *.node[*].mobility.z 1.895
config seed-set 0
config **.seed 0
config *.node[*].prot.rng-0 2
config *.node[*].appl.rng-0 3
config *.node[*].scenario.rng-0 4
config **.traffic.rng-0 5
config *.manager.configFile "\"./sumocfg/freeway.sumo.cfg\""
config *.manager.launchConfig "xmldoc(\"./sumocfg/freeway.launchd.xml\")"
config **.numberOfCars 8
config **.numberOfCarsPerPlatoon 8
config **.numberOfLanes 1
config *.node[*].helper_type "\"PositionHelper\""
config *.node[*].scenario.caccC1 0.5
config *.node[*].scenario.caccXi 1
config *.node[*].scenario.caccOmegaN "0.2 Hz"
config *.node[*].scenario.caccSpacing "2 m"
config *.node[*].scenario.engineTau "0.5 s"
config *.node[*].scenario.ploegH 0.5s
config *.node[*].scenario.ploegKp 0.2
config *.node[*].scenario.ploegKd 0.7
config *.node[*].scenario.useRealisticEngine false
config *.node[*].scenario.useControllerAcceleration true
config *.node[*].scenario.nLanes 1
config **.numericController 1
config **.headway 0.1s
config *.node[*].scenario.accHeadway 0.1s
config *.node[*].scenario.leaderHeadway 1.2s
config *.node[*].scenario.leaderSpeed 130kmph
config *.node[*].appl_type "\"SimplePlatooningApp\""
config *.node[*].appl.*.scalar-recording true
config *.node[*].appl.*.vector-recording true
config *.node[0].appl.breakRanksSafetyDistance 3m
config *.node[*].appl.minSpeed 120kmph
config *.node[*].appl.maxSpeed 140kmph
config *.node[*].protocol_type "\"SimplePlatooningBeaconing\""
config *.node[*].prot.*.scalar-recording true
config *.node[*].prot.*.vector-recording true
config *.node[*].prot.beaconingInterval 0.1s
config *.node[*].prot.priority 4
config *.node[*].prot.packetSize 200
config **.traffic_type "\"PlatoonsTrafficManager\""
config **.traffic.platoonInsertTime "1 s"
config **.traffic.platoonInsertSpeed 130kmph
config **.traffic.nCars 8
config **.traffic.platoonSize 8
config **.traffic.nLanes 1
config **.traffic.platooningVType "\"vtypeauto\""
config **.traffic.controller "\"CACC\""
config **.traffic.platoonInsertDistance 2m
config **.traffic.platoonInsertHeadway 0s
config **.traffic.platoonLeaderHeadway 1.2s
config **.scalar-recording false
config **.vector-recording false
config output-vector-file results/BreakRanksNoGui_1_0.1_130_3/result_0.vec
config output-scalar-file results/BreakRanksNoGui_1_0.1_130_3/result_0.sca

vector 0 Highway.node[0].appl distance ETV
vector 1 Highway.node[0].appl relativeSpeed ETV
vector 2 Highway.node[0].appl nodeId ETV
vector 3 Highway.node[0].appl acceleration ETV
vector 4 Highway.node[0].appl controllerAcceleration ETV
vector 5 Highway.node[0].appl speed ETV
vector 6 Highway.node[0].appl posx ETV
vector 7 Highway.node[0].appl posy ETV
vector 8 Highway.node[1].appl distance ETV
vector 9 Highway.node[1].appl relativeSpeed ETV
vector 10 Highway.node[1].appl nodeId ETV
vector 11 Highway.node[1].appl acceleration ETV
vector 12 Highway.node[1].appl controllerAcceleration ETV
vector 13 Highway.node[1].appl speed ETV
vector 14 Highway.node[1].appl posx ETV
vector 15 Highway.node[1].appl posy ETV
vector 16 Highway.node[2].appl distance ETV
vector 17 Highway.node[2].appl relativeSpeed ETV
vector 18 Highway.node[2].appl nodeId ETV
vector 19 Highway.node[2].appl acceleration ETV
vector 20 Highway.node[2].appl controllerAcceleration ETV
vector 21 Highway.node[2].appl speed ETV
vector 22 Highway.node[2].appl posx ETV
vector 23 Highway.node[2].appl posy ETV
vector 24 Highway.node[3].appl distance ETV
vector 25 Highway.node[3].appl relativeSpeed ETV
vector 26 Highway.node[3].appl nodeId ETV
vector 27 Highway.node[3].appl acceleration ETV
vector 28 Highway.node[3].appl controllerAcceleration ETV
vector 29 Highway.node[3].appl speed ETV
vector 30 Highway.node[3].appl posx ETV
vector 31 Highway.node[3].appl posy ETV
vector 32 Highway.node[4].appl distance ETV
vector 33 Highway.node[4].appl relativeSpeed ETV
vector 34 Highway.node[4].appl nodeId ETV
vector 35 Highway.node[4].appl acceleration ETV
vector 36 Highway.node[4].appl controllerAcceleration ETV
vector 37 Highway.node[4].appl speed ETV
vector 38 Highway.node[4].appl posx ETV
vector 39 Highway.node[4].appl posy ETV
vector 40 Highway.node[5].appl distance ETV
vector 41 Highway.node[5].appl relativeSpeed ETV
vector 42 Highway.node[5].appl nodeId ETV
vector 43 Highway.node[5].appl acceleration ETV
vector 44 Highway.node[5].appl controllerAcceleration ETV
vector 45 Highway.node[5].appl speed ETV
vector 46 Highway.node[5].appl posx ETV
vector 47 Highway.node[5].appl posy ETV
vector 48 Highway.node[6].appl distance ETV
vector 49 Highway.node[6].appl relativeSpeed ETV
vector 50 Highway.node[6].appl nodeId ETV
vector 51 Highway.node[6].appl acceleration ETV
vector 52 Highway.node[6].appl controllerAcceleration ETV
vector 53 Highway.node[6].appl speed ETV
vector 54 Highway.node[6].appl posx ETV
vector 55 Highway.node[6].appl posy ETV
vector 56 Highway.node[7].appl distance ETV
vector 57 Highway.node[7].appl relativeSpeed ETV
vector 58 Highway.node[7].appl nodeId ETV
vector 59 Highway.node[7].appl acceleration ETV
vector 60 Highway.node[7].appl controllerAcceleration ETV
vector 61 Highway.node[7].appl speed ETV
vector 62 Highway.node[7].appl posx ETV
vector 63 Highway.node[7].appl posy ETV
vector 64 Highway.node[3].prot frontDelay ETV
vector 65 Highway.node[3].prot frontDelayId ETV
vector 66 Highway.node[2].prot frontDelay ETV
vector 67 Highway.node[2].prot frontDelayId ETV
vector 68 Highway.node[7].prot frontDelay ETV
vector 69 Highway.node[7].prot frontDelayId ETV
vector 70 Highway.node[1].prot leaderDelay ETV
vector 71 Highway.node[1].prot leaderDelayId ETV
vector 72 Highway.node[1].prot frontDelay ETV
vector 73 Highway.node[1].prot frontDelayId ETV
vector 74 Highway.node[2].prot leaderDelay ETV
vector 75 Highway.node[2].prot leaderDelayId ETV
vector 76 Highway.node[3].prot leaderDelay ETV
vector 77 Highway.node[3].prot leaderDelayId ETV
vector 78 Highway.node[4].prot leaderDelay ETV
vector 79 Highway.node[4].prot leaderDelayId ETV
vector 80 Highway.node[5].prot leaderDelay ETV
vector 81 Highway.node[5].prot leaderDelayId ETV
vector 82 Highway.node[6].prot leaderDelay ETV
vector 83 Highway.node[6].prot leaderDelayId ETV
vector 84 Highway.node[7].prot leaderDelay ETV
vector 85 Highway.node[7].prot leaderDelayId ETV
vector 86 Highway.node[5].prot frontDelay ETV
vector 87 Highway.node[5].prot frontDelayId ETV
vector 88 Highway.node[4].prot frontDelay ETV
vector 89 Highway.node[4].prot frontDelayId ETV
vector 90 Highway.node[6].prot frontDelay ETV
vector 91 Highway.node[6].prot frontDelayId ETV
vector 92 Highway.node[0].prot nodeId ETV
vector 93 Highway.node[0].prot busyTime ETV
vector 94 Highway.node[0].prot collisions ETV
vector 95 Highway.node[1].prot nodeId ETV
vector 96 Highway.node[1].prot busyTime ETV
vector 97 Highway.node[1].prot collisions ETV
vector 98 Highway.node[2].prot nodeId ETV
vector 99 Highway.node[2].prot busyTime ETV
vector 100 Highway.node[2].prot collisions ETV
vector 101 Highway.node[3].prot nodeId ETV
vector 102 Highway.node[3].prot busyTime ETV
vector 103 Highway.node[3].prot collisions ETV
vector 104 Highway.node[4].prot nodeId ETV
vector 105 Highway.node[4].prot busyTime ETV
vector 106 Highway.node[4].prot collisions ETV
vector 107 Highway.node[5].prot nodeId ETV
vector 108 Highway.node[5].prot busyTime ETV
vector 109 Highway.node[5].prot collisions ETV
vector 110 Highway.node[6].prot nodeId ETV
vector 111 Highway.node[6].prot busyTime ETV
vector 112 Highway.node[6].prot collisions ETV
vector 113 Highway.node[7].prot nodeId ETV
vector 114 Highway.node[7].prot busyTime ETV
vector 115 Highway.node[7].prot collisions ETV
0	11335 18779 113 543894 1.11 99.91 989 -1 77.1964 12952.8573 775246.43782041
1	30114 17816 113 543894 1.11 99.91 989 0 1.8889 489.2251 924.09729139
2	47930 16521 113 543894 1.11 99.91 989 0 0 0 0
3	64451 18809 113 543894 1.11 99.91 989 -3.14892e-05 0.000707784 0.010991577126781 6.0508064149601e-06
4	83260 26467 113 543894 1.11 99.91 989 -4.89399e-05 0.00109259 0.010614843047836 8.6815283230331e-06
5	109727 22448 113 543894 1.11 99.91 989 36.11 36.1111 35713.866699999 1289666.6073546
6	132175 22316 113 543894 1.11 99.91 989 53.6899 3621.47 1817363.8604 4390754044.7921
7	154491 21466 113 543894 1.11 99.91 989 242.45 242.45 239783.05 58135400.472499
8	175957 19982 114 543895 1.11 99.91 989 -1 2.99713 865.76089 4094.1317087255
9	195939 21028 114 543895 1.11 99.91 989 -1.58028e-05 0.0796085 9.971555266715 0.526405421543
10	216967 17510 114 543895 1.11 99.91 989 1 1 989 989
11	234477 25467 114 543895 1.11 99.91 989 -0.0522603 1.17146 18.919755727359 17.129897564779
12	259944 27231 114 543895 1.11 99.91 989 -0.0812551 1.5 18.741528751753 23.949783694314
13	287175 21526 114 543895 1.11 99.91 989 36.0315 38.0812 36586.7768 1354368.9643188
14	308701 23380 114 543895 1.11 99.91 989 47.6899 3702.66 1831264.0523 4492754524.675
15	332081 22455 114 543895 1.11 99.91 989 242.45 245.75 240505.75 58488222.6125
16	354536 23318 115 543896 1.11 99.91 989 2 44.9906 19084.74379 708118.7606788
17	377854 25151 115 543896 1.11 99.91 989 0 3.02753 359.95081653376 584.34357790271
18	403005 17510 115 543896 1.11 99.91 989 2 2 1978 3956
19	420515 26024 115 543896 1.11 99.91 989 -1.91357 0.335008 -0.27411464977201 48.679256927601
20	446539 26072 115 543896 1.11 99.91 989 -2.91996 0.377847 1.0902788535112 67.534123595528
21	472611 23327 115 543896 1.11 99.91 989 33.0836 36.1111 35343.946 1263535.9061987
22	495938 23313 115 543896 1.11 99.91 989 41.6899 3572.48 1790935.4071 4265501359.0644
23	519251 22455 115 543896 1.11 99.91 989 242.45 242.45 239783.05 58135400.472499
24	541706 23300 116 543897 1.11 99.91 989 2 64.0062 19874.2853 852164.20677934
25	565006 24893 116 543897 1.11 99.91 989 0 3.48766 620.6002012681 1032.8651256898
26	589899 17510 116 543897 1.11 99.91 989 3 3 2967 8901
27	607409 26343 116 543897 1.11 99.91 989 -2.79595 0.650044 -11.041763876455 154.94587840801
28	633752 26358 116 543897 1.11 99.91 989 -3.52077 0.697976 -9.494220007289 187.43803685423
29	660110 22342 116 543897 1.11 99.91 989 29.8465 36.1111 34723.3456 1221129.0148337
30	682452 23351 116 543897 1.11 99.91 989 35.6899 3504.47 1767105.3466 4141051978.9375
31	705803 22455 116 543897 1.11 99.91 989 242.45 242.45 239783.05 58135400.472499
32	728258 22052 117 543898 1.11 99.91 989 -1 66.6314 10497.15804 467897.03517488
33	750310 22841 117 543898 1.11 99.91 989 -0.000652082 5.03865 488.9905024721 1246.0944105
34	773151 17510 117 543898 1.11 99.91 989 4 4 3956 15824
35	790661 25316 117 543898 1.11 99.91 989 -3.03617 1.44732 -1.0100879200273 118.04950529862
36	815977 26795 117 543898 1.11 99.91 989 -3.52364 1.5 0.29628915934577 197.47340137147
37	842772 21660 117 543898 1.11 99.91 989 32.7155 36.1111 35541.4622 1277441.9769839
38	864432 23356 117 543898 1.11 99.91 989 29.6899 3580.23 1785684.4435 4262973603.4199
39	887788 22455 117 543898 1.11 99.91 989 242.45 245.75 241320.85 58886154.4325
40	910243 20912 118 543899 1.11 99.91 989 -1 25.6127 839.54025 4332.3856175111
41	931155 21946 118 543899 1.11 99.91 989 -5.98389e-06 3.61558 13.223887944411 13.361017428353
42	953101 17510 118 543899 1.11 99.91 989 5 5 4945 24725
43	970611 25263 118 543899 1.11 99.91 989 -3.05971 1.43901 -1.1194962595587 113.45657177049
44	995874 26780 118 543899 1.11 99.91 989 -3.52315 1.5 -1.6417443553237 196.3877530964
45	1022654 21643 118 543899 1.11 99.91 989 32.8345 36.1111 35536.6189 1277075.8848218
46	1044297 23385 118 543899 1.11 99.91 989 23.6899 3573.75 1779280.9975 4239658952.9211
47	1067682 22455 118 543899 1.11 99.91 989 242.45 249.05 242861.94999999 59648668.932502
48	1090137 23287 119 543900 1.11 99.91 989 1.99997 79.0056 24044.13703 1251712.0125592
49	1113424 23497 119 543900 1.11 99.91 989 -0.000138637 5.95305 1153.9477054976 3264.1239700338
50	1136921 17510 119 543900 1.11 99.91 989 6 6 5934 35604
51	1154431 25399 119 543900 1.11 99.91 989 -3.0604 1.47769 -31.048543018238 205.65691144087
52	1179830 26656 119 543900 1.11 99.91 989 -3.52265 1.5 -30.435698893632 260.5865235008
53	1206486 21768 119 543900 1.11 99.91 989 29.0719 36.1111 34072.2895 1176748.3587735
54	1228254 23371 119 543900 1.11 99.91 989 17.6899 3421.46 1737707.3273 4009152168.7412
55	1251625 22455 119 543900 1.11 99.91 989 242.45 245.75 240370.45 58422169.1525
56	1274080 22852 120 543901 1.11 99.91 989 -1 147.719 35416.90909 3495300.0522151
57	1296932 22314 120 543901 1.11 99.91 989 -1.93752e-05 3.00056 1208.9297510622 3599.771600685
58	1319246 17510 120 543901 1.11 99.91 989 7 7 6923 48461
59	1336756 25206 120 543901 1.11 99.91 989 -1.43053 0.0638015 -31.057011165156 35.151011824503
60	1361962 26694 120 543901 1.11 99.91 989 -1.5 0.0991011 -30.200591142019 42.142348151631
61	1388656 21554 120 543901 1.11 99.91 989 32.9009 36.1111 34202.7733 1185001.6306305
62	1410210 23366 120 543901 1.11 99.91 989 11.6899 3428.51 1737352.3338 4018872120.0213
63	1433576 22455 120 543901 1.11 99.91 989 242.45 252.35 242271.25 59357588.472501
64	1456031 40003 702 543949 1.213890580403 99.913887946567 988 0.099987560389 0.100008880897 98.799997926553 9.8799996006225
65	1496034 27269 702 543949 1.213890580403 99.913887946567 988 3 3 2964 8892
66	1523303 39998 769 544016 1.229640600417 99.929638588393 988 0.099987560391 0.100008832119 98.799998548365 9.8799997249452
67	1563301 27266 769 544016 1.229640600417 99.929638588393 988 2 2 1976 3952
68	1590567 40033 841 544070 1.254412700486 99.954411118279 988 0.099987560391 0.100008832137 98.799998978182 9.879999810608
69	1630600 27267 841 544070 1.254412700486 99.954411118279 988 7 7 6916 48412
70	1657867 40023 898 544151 1.254874820569 99.954796031131 988 0.099897507326 0.100094443036 98.799908770951 9.8799834512952
71	1697890 27282 898 544151 1.254874820569 99.954796031131 988 1 1 988 988
72	1725172 40023 898 544151 1.254874820569 99.954796031131 988 0.099897507326 0.100094443036 98.799908770951 9.8799834512952
73	1765195 27282 898 544151 1.254874820569 99.954796031131 988 1 1 988 988
74	1792477 40011 904 544145 1.254874840583 99.954795923395 988 0.099897507085 0.100094442423 98.799908643201 9.8799834257452
75	1832488 27274 904 544145 1.254874840583 99.954795923395 988 2 2 1976 3952
76	1859762 40008 910 544157 1.254874860597 99.954796150418 988 0.099897507579 0.100094442776 98.79990885021 9.879983467147
77	1899770 27258 910 544157 1.254874860597 99.954796150418 988 3 3 2964 8892
78	1927028 39996 916 544133 1.25487488061 99.954795897978 988 0.099897506748 0.100094442443 98.799908577757 9.8799834126564
79	1967024 27263 916 544133 1.25487488061 99.954795897978 988 4 4 3952 15808
80	1994287 39984 922 544139 1.254874900624 99.954795920682 988 0.099897506748 0.100094442443 98.799908580447 9.8799834131943
81	2034271 27274 922 544139 1.254874900624 99.954795920682 988 5 5 4940 24700
82	2061545 40012 928 544169 1.254874920638 99.954796427629 988 0.099897507748 0.100094443444 98.79990906738 9.8799835105809
83	2101557 27277 928 544169 1.254874920638 99.954796427629 988 6 6 5928 35568
84	2128834 40002 934 544163 1.254874940652 99.954796404212 988 0.099897507746 0.100094443444 98.799909023949 9.8799835018948
85	2168836 27264 934 544163 1.254874940652 99.954796404212 988 7 7 6916 48412
86	2196100 40010 1037 544266 1.265731020708 99.965730935061 988 0.099987560391 0.100008776913 98.800000474742 9.8800001097041
87	2236110 27267 1037 544266 1.265731020708 99.965730935061 988 5 5 4940 24700
88	2263377 39992 1107 543802 1.303542040722 99.903538718089 987 0.099987560389 0.100008756271 98.699997237756 9.8699994624059
89	2303369 27257 1107 543802 1.303542040722 99.903538718089 987 4 4 3948 15792
90	2330626 39973 1173 543892 1.30514808075 99.905145205705 987 0.099987560389 0.100008782318 98.699997685344 9.8699995521567
91	2370599 27234 1173 543892 1.30514808075 99.905145205705 987 6 6 5922 35532
92	2397833 1459 4894 544307 2 100 99 0 0 0 0
93	2399292 2068 4894 544307 2 100 99 0.021849 0.026130303382 2.470982303382 0.061685480892835
94	2401360 1459 4894 544307 2 100 99 0 0 0 0
95	2402819 1459 4895 544308 2 100 99 1 1 99 99
96	2404278 2068 4895 544308 2 100 99 0.021849 0.025898 2.470590046036 0.06166536568639
97	2406346 1459 4895 544308 2 100 99 0 0 0 0
98	2407805 1459 4896 544309 2 100 99 2 2 198 396
99	2409264 2068 4896 544309 2 100 99 0.021849 0.025898 2.470590092388 0.061665368014658
100	2411332 1558 4896 544309 2 100 99 0 0 0 0
101	2412890 1558 4897 544310 2 100 99 3 3 297 891
102	2414448 2167 4897 544310 2 100 99 0.021848 0.025898 2.470589138866 0.061665326652258
103	2416615 1558 4897 544310 2 100 99 0 0 0 0
104	2418173 1558 4898 544311 2 100 99 4 4 396 1584
105	2419731 2166 4898 544311 2 100 99 0.021849 0.025898 2.47059018539 0.061665372686174
106	2421897 1558 4898 544311 2 100 99 0 0 0 0
107	2423455 1558 4899 544312 2 100 99 5 5 495 2475
108	2425013 2167 4899 544312 2 100 99 0.021848 0.025898 2.470589231948 0.061665331327802
109	2427180 1558 4899 544312 2 100 99 0 0 0 0
110	2428738 1558 4900 544313 2 100 99 6 6 594 3564
111	2430296 2167 4900 544313 2 100 99 0.021849 0.025898 2.470590278522 0.061665377364238
112	2432463 1558 4900 544313 2 100 99 0 0 0 0
113	2434021 1558 4901 544314 2 100 99 7 7 693 4851
114	2435579 2167 4901 544314 2 100 99 0.021849 0.025931325104 2.470590325104 0.061665434090649
115	2437746 1558 4901 544314 2 100 99 0 0 0 0

