file 2437598 1720454605                                         
version 3
run BreakRanksNoGui-24-20240708-18:03:12-157177
attr configname BreakRanksNoGui
attr datetime 20240708-18:03:12
attr datetimef 20240708-180312
attr experiment BreakRanksNoGui
attr inifile omnetpp.ini
attr iterationvars "$nCars=8, $platoonSize=8, $nLanes=1, $ploegH=0.5, $controller=1, $headway=0.1, $leaderHeadway=1.2, $leaderSpeed=130, $breakRanksSafetyDistance=3, $minSpeed=120, $maxSpeed=140, $beaconInterval=0.1, $priority=4, $packetSize=200, $sController=\"CACC\", $0=2, $1=0"
attr iterationvarsd nCars=8/platoonSize=8/nLanes=1/ploegH=0.5/controller=1/headway=0.1/leaderHeadway=1.2/leaderSpeed=130/breakRanksSafetyDistance=3/minSpeed=120/maxSpeed=140/beaconInterval=0.1/priority=4/packetSize=200/sController=CACC/2/0
attr iterationvarsf nCars=8,platoonSize=8,nLanes=1,ploegH=0.5,controller=1,headway=0.1,leaderHeadway=1.2,leaderSpeed=130,breakRanksSafetyDistance=3,minSpeed=120,maxSpeed=140,beaconInterval=0.1,priority=4,packetSize=200,sController=CACC,2,0-
attr measurement "$nCars=8, $platoonSize=8, $nLanes=1, $ploegH=0.5, $controller=1, $headway=0.1, $leaderHeadway=1.2, $leaderSpeed=130, $breakRanksSafetyDistance=3, $minSpeed=120, $maxSpeed=140, $beaconInterval=0.1, $priority=4, $packetSize=200, $sController=\"CACC\", $0=2, $1=0"
attr network Highway
attr processid 157177
attr repetition 4
attr replication #4
attr resultdir results
attr runnumber 24
attr seedset 4
itervar beaconInterval 0.1
itervar breakRanksSafetyDistance 3
itervar controller 1
itervar headway 0.1
itervar leaderHeadway 1.2
itervar leaderSpeed 130
itervar maxSpeed 140
itervar minSpeed 120
itervar nCars 8
itervar nLanes 1
itervar packetSize 200
itervar platoonSize 8
itervar ploegH 0.5
itervar priority 4
itervar sController "\"CACC\""
config image-path ../../../veins/images
config repeat 10
config extends BreakRanks
config *.manager.command "\"sumo\""
config *.manager.ignoreGuiCommands true
config output-vector-file results/BreakRanks_1_0.1_130_3/result_4.vec
config output-scalar-file results/BreakRanks_1_0.1_130_3/result_4.sca
config extends Platooning
config *.node[*].scenario_type "\"BreakRanksScenario\""
config *.manager.command "\"sumo-gui\""
config *.node[*].scenario_type "\"SimpleScenario\""
config cmdenv-express-mode true
config cmdenv-autoflush true
config cmdenv-status-frequency 15s
config num-rngs 6
config network Highway
config debug-on-errors true
config print-undisposed true
config *.playgroundSizeX 65000m
config *.playgroundSizeY 25000m
config *.playgroundSizeZ 50m
config sim-time-limit "100 s"
config *.annotations.draw false
config *.obstacles.debug false
config *.world.useTorus false
config *.world.use2D false
config *.manager.updateInterval 0.01s
config *.manager.host "\"localhost\""
config *.manager.moduleType "\"org.car2x.plexe.PlatoonCar\""
config *.manager.moduleName "\"node\""
config *.manager.moduleDisplayString "\"\""
config *.manager.autoShutdown true
config *.manager.margin 25
config *.connectionManager.sendDirect true
config *.connectionManager.maxInterfDist 2600m
config *.connectionManager.drawMaxIntfDist false
config *.**.nic.mac1609_4.useServiceChannel false
config *.**.nic.mac1609_4.txPower 100mW
config *.**.nic.mac1609_4.bitrate 6Mbps
config *.**.nic.mac1609_4.useAcks true
config *.**.nic.mac1609_4.ackErrorRate 0.0
config *.**.nic.mac1609_4.frameErrorRate 0.0
config *.**.nic.phy80211p.minPowerLevel -94dBm
config *.**.nic.phy80211p.maxTXPower 100mW
config *.**.nic.phy80211p.useNoiseFloor true
config *.**.nic.phy80211p.noiseFloor -95dBm
config *.**.nic.phy80211p.decider "xmldoc(\"config.xml\")"
config *.**.nic.phy80211p.analogueModels "xmldoc(\"config.xml\")"
config *.**.nic.phy80211p.usePropagationDelay true
config *.node[*].mobility.x 0
config *.node[*].mobility.y 0
config *.node[*].mobility.z 1.895
config seed-set 4
config **.seed 4
config *.node[*].prot.rng-0 2
config *.node[*].appl.rng-0 3
config *.node[*].scenario.rng-0 4
config **.traffic.rng-0 5
config *.manager.configFile "\"./sumocfg/freeway.sumo.cfg\""
config *.manager.launchConfig "xmldoc(\"./sumocfg/freeway.launchd.xml\")"
config **.numberOfCars 8
config **.numberOfCarsPerPlatoon 8
config **.numberOfLanes 1
config *.node[*].helper_type "\"PositionHelper\""
config *.node[*].scenario.caccC1 0.5
config *.node[*].scenario.caccXi 1
config *.node[*].scenario.caccOmegaN "0.2 Hz"
config *.node[*].scenario.caccSpacing "2 m"
config *.node[*].scenario.engineTau "0.5 s"
config *.node[*].scenario.ploegH 0.5s
config *.node[*].scenario.ploegKp 0.2
config *.node[*].scenario.ploegKd 0.7
config *.node[*].scenario.useRealisticEngine false
config *.node[*].scenario.useControllerAcceleration true
config *.node[*].scenario.nLanes 1
config **.numericController 1
config **.headway 0.1s
config *.node[*].scenario.accHeadway 0.1s
config *.node[*].scenario.leaderHeadway 1.2s
config *.node[*].scenario.leaderSpeed 130kmph
config *.node[*].appl_type "\"SimplePlatooningApp\""
config *.node[*].appl.*.scalar-recording true
config *.node[*].appl.*.vector-recording true
config *.node[0].appl.breakRanksSafetyDistance 3m
config *.node[*].appl.minSpeed 120kmph
config *.node[*].appl.maxSpeed 140kmph
config *.node[*].protocol_type "\"SimplePlatooningBeaconing\""
config *.node[*].prot.*.scalar-recording true
config *.node[*].prot.*.vector-recording true
config *.node[*].prot.beaconingInterval 0.1s
config *.node[*].prot.priority 4
config *.node[*].prot.packetSize 200
config **.traffic_type "\"PlatoonsTrafficManager\""
config **.traffic.platoonInsertTime "1 s"
config **.traffic.platoonInsertSpeed 130kmph
config **.traffic.nCars 8
config **.traffic.platoonSize 8
config **.traffic.nLanes 1
config **.traffic.platooningVType "\"vtypeauto\""
config **.traffic.controller "\"CACC\""
config **.traffic.platoonInsertDistance 2m
config **.traffic.platoonInsertHeadway 0s
config **.traffic.platoonLeaderHeadway 1.2s
config **.scalar-recording false
config **.vector-recording false
config output-vector-file results/BreakRanksNoGui_1_0.1_130_3/result_4.vec
config output-scalar-file results/BreakRanksNoGui_1_0.1_130_3/result_4.sca

vector 0 Highway.node[0].appl distance ETV
vector 1 Highway.node[0].appl relativeSpeed ETV
vector 2 Highway.node[0].appl nodeId ETV
vector 3 Highway.node[0].appl acceleration ETV
vector 4 Highway.node[0].appl controllerAcceleration ETV
vector 5 Highway.node[0].appl speed ETV
vector 6 Highway.node[0].appl posx ETV
vector 7 Highway.node[0].appl posy ETV
vector 8 Highway.node[1].appl distance ETV
vector 9 Highway.node[1].appl relativeSpeed ETV
vector 10 Highway.node[1].appl nodeId ETV
vector 11 Highway.node[1].appl acceleration ETV
vector 12 Highway.node[1].appl controllerAcceleration ETV
vector 13 Highway.node[1].appl speed ETV
vector 14 Highway.node[1].appl posx ETV
vector 15 Highway.node[1].appl posy ETV
vector 16 Highway.node[2].appl distance ETV
vector 17 Highway.node[2].appl relativeSpeed ETV
vector 18 Highway.node[2].appl nodeId ETV
vector 19 Highway.node[2].appl acceleration ETV
vector 20 Highway.node[2].appl controllerAcceleration ETV
vector 21 Highway.node[2].appl speed ETV
vector 22 Highway.node[2].appl posx ETV
vector 23 Highway.node[2].appl posy ETV
vector 24 Highway.node[3].appl distance ETV
vector 25 Highway.node[3].appl relativeSpeed ETV
vector 26 Highway.node[3].appl nodeId ETV
vector 27 Highway.node[3].appl acceleration ETV
vector 28 Highway.node[3].appl controllerAcceleration ETV
vector 29 Highway.node[3].appl speed ETV
vector 30 Highway.node[3].appl posx ETV
vector 31 Highway.node[3].appl posy ETV
vector 32 Highway.node[4].appl distance ETV
vector 33 Highway.node[4].appl relativeSpeed ETV
vector 34 Highway.node[4].appl nodeId ETV
vector 35 Highway.node[4].appl acceleration ETV
vector 36 Highway.node[4].appl controllerAcceleration ETV
vector 37 Highway.node[4].appl speed ETV
vector 38 Highway.node[4].appl posx ETV
vector 39 Highway.node[4].appl posy ETV
vector 40 Highway.node[5].appl distance ETV
vector 41 Highway.node[5].appl relativeSpeed ETV
vector 42 Highway.node[5].appl nodeId ETV
vector 43 Highway.node[5].appl acceleration ETV
vector 44 Highway.node[5].appl controllerAcceleration ETV
vector 45 Highway.node[5].appl speed ETV
vector 46 Highway.node[5].appl posx ETV
vector 47 Highway.node[5].appl posy ETV
vector 48 Highway.node[6].appl distance ETV
vector 49 Highway.node[6].appl relativeSpeed ETV
vector 50 Highway.node[6].appl nodeId ETV
vector 51 Highway.node[6].appl acceleration ETV
vector 52 Highway.node[6].appl controllerAcceleration ETV
vector 53 Highway.node[6].appl speed ETV
vector 54 Highway.node[6].appl posx ETV
vector 55 Highway.node[6].appl posy ETV
vector 56 Highway.node[7].appl distance ETV
vector 57 Highway.node[7].appl relativeSpeed ETV
vector 58 Highway.node[7].appl nodeId ETV
vector 59 Highway.node[7].appl acceleration ETV
vector 60 Highway.node[7].appl controllerAcceleration ETV
vector 61 Highway.node[7].appl speed ETV
vector 62 Highway.node[7].appl posx ETV
vector 63 Highway.node[7].appl posy ETV
vector 64 Highway.node[4].prot frontDelay ETV
vector 65 Highway.node[4].prot frontDelayId ETV
vector 66 Highway.node[1].prot leaderDelay ETV
vector 67 Highway.node[1].prot leaderDelayId ETV
vector 68 Highway.node[1].prot frontDelay ETV
vector 69 Highway.node[1].prot frontDelayId ETV
vector 70 Highway.node[2].prot leaderDelay ETV
vector 71 Highway.node[2].prot leaderDelayId ETV
vector 72 Highway.node[3].prot leaderDelay ETV
vector 73 Highway.node[3].prot leaderDelayId ETV
vector 74 Highway.node[4].prot leaderDelay ETV
vector 75 Highway.node[4].prot leaderDelayId ETV
vector 76 Highway.node[5].prot leaderDelay ETV
vector 77 Highway.node[5].prot leaderDelayId ETV
vector 78 Highway.node[6].prot leaderDelay ETV
vector 79 Highway.node[6].prot leaderDelayId ETV
vector 80 Highway.node[7].prot leaderDelay ETV
vector 81 Highway.node[7].prot leaderDelayId ETV
vector 82 Highway.node[3].prot frontDelay ETV
vector 83 Highway.node[3].prot frontDelayId ETV
vector 84 Highway.node[6].prot frontDelay ETV
vector 85 Highway.node[6].prot frontDelayId ETV
vector 86 Highway.node[2].prot frontDelay ETV
vector 87 Highway.node[2].prot frontDelayId ETV
vector 88 Highway.node[5].prot frontDelay ETV
vector 89 Highway.node[5].prot frontDelayId ETV
vector 90 Highway.node[7].prot frontDelay ETV
vector 91 Highway.node[7].prot frontDelayId ETV
vector 92 Highway.node[0].prot nodeId ETV
vector 93 Highway.node[0].prot busyTime ETV
vector 94 Highway.node[0].prot collisions ETV
vector 95 Highway.node[1].prot nodeId ETV
vector 96 Highway.node[1].prot busyTime ETV
vector 97 Highway.node[1].prot collisions ETV
vector 98 Highway.node[2].prot nodeId ETV
vector 99 Highway.node[2].prot busyTime ETV
vector 100 Highway.node[2].prot collisions ETV
vector 101 Highway.node[3].prot nodeId ETV
vector 102 Highway.node[3].prot busyTime ETV
vector 103 Highway.node[3].prot collisions ETV
vector 104 Highway.node[4].prot nodeId ETV
vector 105 Highway.node[4].prot busyTime ETV
vector 106 Highway.node[4].prot collisions ETV
vector 107 Highway.node[5].prot nodeId ETV
vector 108 Highway.node[5].prot busyTime ETV
vector 109 Highway.node[5].prot collisions ETV
vector 110 Highway.node[6].prot nodeId ETV
vector 111 Highway.node[6].prot busyTime ETV
vector 112 Highway.node[6].prot collisions ETV
vector 113 Highway.node[7].prot nodeId ETV
vector 114 Highway.node[7].prot busyTime ETV
vector 115 Highway.node[7].prot collisions ETV
0	11335 17696 113 543894 1.11 99.91 989 -1 35.3617 259.9539 39703.75748759
1	29031 16711 113 543894 1.11 99.91 989 0 1.8889 71.7782 135.58184198
2	45742 16521 113 543894 1.11 99.91 989 0 0 0 0
3	62263 18809 113 543894 1.11 99.91 989 -3.14892e-05 0.000707784 0.010991577126781 6.0508064149601e-06
4	81072 26467 113 543894 1.11 99.91 989 -4.89399e-05 0.00109259 0.010614843047836 8.6815283230331e-06
5	107539 22448 113 543894 1.11 99.91 989 36.11 36.1111 35713.866699999 1289666.6073546
6	129987 22396 113 543894 1.11 99.91 989 66.5299 3634.31 1830062.6267 4437587014.7103
7	152383 21466 113 543894 1.11 99.91 989 242.45 242.45 239783.05 58135400.472499
8	173849 21513 114 543895 1.11 99.91 989 -1 98.1597 23160.219 1624056.4367181
9	195362 21380 114 543895 1.11 99.91 989 -1.39742e-05 5 1426.8732741122 6225.196027094
10	216742 17510 114 543895 1.11 99.91 989 1 1 989 989
11	234252 25515 114 543895 1.11 99.91 989 -1.43403 0.0638669 -31.057178617246 35.435458437206
12	259767 26982 114 543895 1.11 99.91 989 -1.5 0.0991505 -30.198322307342 42.393384928787
13	286749 21553 114 543895 1.11 99.91 989 32.9008 36.1111 34260.8093 1189177.3663443
14	308302 23387 114 543895 1.11 99.91 989 60.5299 3483.16 1789858.8195 4209854124.7293
15	331689 22455 114 543895 1.11 99.91 989 242.45 249.05 241485.85 58968885.4325
16	354144 23296 115 543896 1.11 99.91 989 2 44.9906 19084.44544 708117.23861448
17	377440 25153 115 543896 1.11 99.91 989 0 3.02753 359.9507852116 584.3449178137
18	402593 17510 115 543896 1.11 99.91 989 2 2 1978 3956
19	420103 26037 115 543896 1.11 99.91 989 -1.91356 0.335008 -0.27411879519902 48.679223121068
20	446140 26053 115 543896 1.11 99.91 989 -2.91996 0.377847 1.0905183824458 67.534148978978
21	472193 23326 115 543896 1.11 99.91 989 33.0836 36.1111 35343.9454 1263535.8640186
22	495519 23315 115 543896 1.11 99.91 989 54.5299 3585.32 1803634.4897 4311656117.3799
23	518834 22455 115 543896 1.11 99.91 989 242.45 242.45 239783.05 58135400.472499
24	541289 23308 116 543897 1.11 99.91 989 2 61.4356 18782.70448 746019.99157845
25	564597 25068 116 543897 1.11 99.91 989 -1.08495 3.48766 386.16364508113 862.34519103036
26	589665 17510 116 543897 1.11 99.91 989 3 3 2967 8901
27	607175 25693 116 543897 1.11 99.91 989 -2.79595 1.22886 18.858351507031 174.84924375908
28	632868 25703 116 543897 1.11 99.91 989 -3.52077 1.5 20.050218812255 214.30970471835
29	658571 23340 116 543897 1.11 99.91 989 29.8465 38.085 35014.8472 1242081.8912066
30	681911 23339 116 543897 1.11 99.91 989 48.5299 3546.31 1782061.6162 4201451410.9588
31	705250 22455 116 543897 1.11 99.91 989 242.45 249.05 240185.65 58333278.3725
32	727705 22228 117 543898 1.11 99.91 989 -1 87.5749 17902.72188 1194870.8710176
33	749933 22823 117 543898 1.11 99.91 989 -0.127493 5.96519 469.47885955086 1230.6857295248
34	772756 17510 117 543898 1.11 99.91 989 4 4 3956 15824
35	790266 25840 117 543898 1.11 99.91 989 -3.07032 1.49914 8.9518497035262 354.44550445455
36	816106 26320 117 543898 1.11 99.91 989 -3.52364 1.5 10.056891360043 396.36416177198
37	842426 22039 117 543898 1.11 99.91 989 26.9609 37.1025 35394.1787 1270900.9463681
38	864465 23337 117 543898 1.11 99.91 989 42.5299 3578.29 1783601.5626 4229829572.2598
39	887802 22455 117 543898 1.11 99.91 989 242.45 249.05 241852.15 59149825.752501
40	910257 22359 118 543899 1.11 99.91 989 -1 66.3539 12662.55327 549246.95021841
41	932616 24057 118 543899 1.11 99.91 989 -0.282499 13.0164 620.11442381008 5552.5808988286
42	956673 17510 118 543899 1.11 99.91 989 5 5 4945 24725
43	974183 26122 118 543899 1.11 99.91 989 -3.12958 1.5 18.935625420168 466.20669234809
44	1000305 25904 118 543899 1.11 99.91 989 -3.52314 1.5 21.943892021942 520.26862570338
45	1026209 22907 118 543899 1.11 99.91 989 24.9446 38.0425 35409.9057 1274558.1905953
46	1049116 23329 118 543899 1.11 99.91 989 36.5299 3573.81 1772316.9265 4180827107.904
47	1072445 22455 118 543899 1.11 99.91 989 242.45 252.35 243894.85 60168786.552501
48	1094900 21162 119 543900 1.11 99.91 989 -1 33.4853 2127.87765 45789.352700344
49	1116062 22179 119 543900 1.11 99.91 989 -0.000101252 5.8503 39.208093048519 52.318437018502
50	1138241 17510 119 543900 1.11 99.91 989 6 6 5934 35604
51	1155751 25585 119 543900 1.11 99.91 989 -2.74554 1.4929 8.9907193974042 119.19608279085
52	1181336 26626 119 543900 1.11 99.91 989 -3.52265 1.5 11.022646521744 171.53830036545
53	1207962 21846 119 543900 1.11 99.91 989 32.1666 37.1034 35803.4667 1297091.5249393
54	1229808 23373 119 543900 1.11 99.91 989 30.5299 3607.22 1788124.8668 4281068609.5772
55	1253181 22455 119 543900 1.11 99.91 989 242.45 252.35 243558.25 59998447.152501
56	1275636 20661 120 543901 1.11 99.91 989 -1 2.9003 725.00809 3366.4713325817
57	1296297 21827 120 543901 1.11 99.91 989 -1.78496e-05 0.0355683 9.007815275582 0.24156975990496
58	1318124 17510 120 543901 1.11 99.91 989 7 7 6923 48461
59	1335634 25153 120 543901 1.11 99.91 989 -0.0664945 1.18505 18.944647178485 17.728639718673
60	1360787 26918 120 543901 1.11 99.91 989 -0.0820481 1.5 19.173506583154 25.2353956984
61	1387705 21525 120 543901 1.11 99.91 989 35.8111 38.0821 36528.4306 1350167.4124895
62	1409230 23383 120 543901 1.11 99.91 989 24.5299 3673.67 1804144.8976 4389160600.8622
63	1432613 22455 120 543901 1.11 99.91 989 242.45 249.05 241716.85 59082661.5125
64	1455068 39945 771 544006 1.240521540375 99.940510720099 988 0.099987440306 0.100008768548 98.79998962003 9.8799979344106
65	1495013 27258 771 544006 1.240521540375 99.940510720099 988 4 4 3952 15808
66	1522271 39906 831 544102 1.241802600417 99.941805411676 988 0.099987440307 0.100003680478 98.800003251565 9.880000660446
67	1562177 27213 831 544102 1.241802600417 99.941805411676 988 1 1 988 988
68	1589390 39906 831 544102 1.241802600417 99.941805411676 988 0.099987440307 0.100003680478 98.800003251565 9.880000660446
69	1629296 27213 831 544102 1.241802600417 99.941805411676 988 1 1 988 988
70	1656509 39979 837 544078 1.241802620431 99.941805070498 988 0.099987440307 0.100003680478 98.800002890373 9.8800005882075
71	1696488 27289 837 544078 1.241802620431 99.941805070498 988 2 2 1976 3952
72	1723777 39960 843 544096 1.241802640445 99.941805201176 988 0.099987440307 0.100003680478 98.800003001037 9.8800006103403
73	1763737 27264 843 544096 1.241802640445 99.941805201176 988 3 3 2964 8892
74	1791001 39960 849 544084 1.241802660458 99.941805094124 988 0.099987440307 0.100003680478 98.800002873972 9.8800005849273
75	1830961 27270 849 544084 1.241802660458 99.941805094124 988 4 4 3952 15808
76	1858231 39987 855 544090 1.241802680472 99.941805111289 988 0.099987440307 0.100003680478 98.800002871123 9.8800005843575
77	1898218 27280 855 544090 1.241802680472 99.941805111289 988 5 5 4940 24700
78	1925498 39939 861 544066 1.241802700486 99.941804999951 988 0.099987440307 0.100003680478 98.800002739771 9.8800005580871
79	1965437 27239 861 544066 1.241802700486 99.941804999951 988 6 6 5928 35568
80	1992676 39978 867 544072 1.2418027205 99.941805038626 988 0.099987440307 0.100003680478 98.800002758432 9.8800005618193
81	2032654 27286 867 544072 1.2418027205 99.941805038626 988 7 7 6916 48412
82	2059940 39919 905 544152 1.262739640445 99.962742202079 988 0.099987440307 0.100008788632 98.80000300194 9.8800006111745
83	2099859 27251 905 544152 1.262739640445 99.962742202079 988 3 3 2964 8892
84	2127110 39986 971 544218 1.266698700487 99.966688232596 988 0.099987440306 0.100008776858 98.799989972415 9.879998005102
85	2167096 27288 971 544218 1.266698700487 99.966688232596 988 6 6 5928 35568
86	2194384 39953 1039 544286 1.281915780542 99.981918767612 988 0.099987440307 0.100008788643 98.800003427376 9.8800006960408
87	2234337 27279 1039 544286 1.281915780542 99.981918767612 988 2 2 1976 3952
88	2261616 39985 1105 544340 1.287382840584 99.987385771078 988 0.099987440307 0.100008786133 98.8000033708 9.8800006849508
89	2301601 27286 1105 544340 1.287382840584 99.987385771078 988 5 5 4940 24700
90	2328887 39962 1171 544430 1.289456880612 99.989447064743 988 0.099987440306 0.100008776904 98.799990624437 9.8799981355067
91	2368849 27276 1171 544430 1.289456880612 99.989447064743 988 7 7 6916 48412
92	2396125 1459 5026 544439 2 100 99 0 0 0 0
93	2397584 2068 5026 544439 2 100 99 0.022473 0.026130303378 2.471606303378 0.061713137820626
94	2399652 1459 5026 544439 2 100 99 0 0 0 0
95	2401111 1459 5027 544440 2 100 99 1 1 99 99
96	2402570 2068 5027 544440 2 100 99 0.022473 0.025898 2.471214046036 0.06169302261439
97	2404638 1459 5027 544440 2 100 99 0 0 0 0
98	2406097 1459 5028 544441 2 100 99 2 2 198 396
99	2407556 2068 5028 544441 2 100 99 0.022473 0.025898 2.471214092388 0.061693024942658
100	2409624 1558 5028 544441 2 100 99 0 0 0 0
101	2411182 1558 5029 544442 2 100 99 3 3 297 891
102	2412740 2167 5029 544442 2 100 99 0.022473 0.025898 2.471214138864 0.061693027277158
103	2414907 1558 5029 544442 2 100 99 0 0 0 0
104	2416465 1558 5030 544443 2 100 99 4 4 396 1584
105	2418023 2167 5030 544443 2 100 99 0.022473 0.025898 2.471214185388 0.061693029614073
106	2420190 1558 5030 544443 2 100 99 0 0 0 0
107	2421748 1558 5031 544444 2 100 99 5 5 495 2475
108	2423306 2167 5031 544444 2 100 99 0.022473 0.025898 2.471214231946 0.061693031952701
109	2425473 1558 5031 544444 2 100 99 0 0 0 0
110	2427031 1558 5032 544445 2 100 99 6 6 594 3564
111	2428589 2167 5032 544445 2 100 99 0.022473 0.025898 2.471214278522 0.061693034292238
112	2430756 1558 5032 544445 2 100 99 0 0 0 0
113	2432314 1558 5033 544446 2 100 99 7 7 693 4851
114	2433872 2167 5033 544446 2 100 99 0.022473 0.025931325104 2.471214325104 0.061693091018649
115	2436039 1558 5033 544446 2 100 99 0 0 0 0

