version 3
run BreakRanksNoGui-23-20240708-18:02:58-157157
attr configname BreakRanksNoGui
attr datetime 20240708-18:02:58
attr datetimef 20240708-180258
attr experiment BreakRanksNoGui
attr inifile omnetpp.ini
attr iterationvars "$nCars=8, $platoonSize=8, $nLanes=1, $ploegH=0.5, $controller=1, $headway=0.1, $leaderHeadway=1.2, $leaderSpeed=130, $breakRanksSafetyDistance=3, $minSpeed=120, $maxSpeed=140, $beaconInterval=0.1, $priority=4, $packetSize=200, $sController=\"CACC\", $0=2, $1=0"
attr iterationvarsd nCars=8/platoonSize=8/nLanes=1/ploegH=0.5/controller=1/headway=0.1/leaderHeadway=1.2/leaderSpeed=130/breakRanksSafetyDistance=3/minSpeed=120/maxSpeed=140/beaconInterval=0.1/priority=4/packetSize=200/sController=CACC/2/0
attr iterationvarsf nCars=8,platoonSize=8,nLanes=1,ploegH=0.5,controller=1,headway=0.1,leaderHeadway=1.2,leaderSpeed=130,breakRanksSafetyDistance=3,minSpeed=120,maxSpeed=140,beaconInterval=0.1,priority=4,packetSize=200,sController=CACC,2,0-
attr measurement "$nCars=8, $platoonSize=8, $nLanes=1, $ploegH=0.5, $controller=1, $headway=0.1, $leaderHeadway=1.2, $leaderSpeed=130, $breakRanksSafetyDistance=3, $minSpeed=120, $maxSpeed=140, $beaconInterval=0.1, $priority=4, $packetSize=200, $sController=\"CACC\", $0=2, $1=0"
attr network Highway
attr processid 157157
attr repetition 3
attr replication #3
attr resultdir results
attr runnumber 23
attr seedset 3
itervar beaconInterval 0.1
itervar breakRanksSafetyDistance 3
itervar controller 1
itervar headway 0.1
itervar leaderHeadway 1.2
itervar leaderSpeed 130
itervar maxSpeed 140
itervar minSpeed 120
itervar nCars 8
itervar nLanes 1
itervar packetSize 200
itervar platoonSize 8
itervar ploegH 0.5
itervar priority 4
itervar sController "\"CACC\""
config image-path ../../../veins/images
config repeat 10
config extends BreakRanks
config *.manager.command "\"sumo\""
config *.manager.ignoreGuiCommands true
config output-vector-file results/BreakRanks_1_0.1_130_3/result_3.vec
config output-scalar-file results/BreakRanks_1_0.1_130_3/result_3.sca
config extends Platooning
config *.node[*].scenario_type "\"BreakRanksScenario\""
config *.manager.command "\"sumo-gui\""
config *.node[*].scenario_type "\"SimpleScenario\""
config cmdenv-express-mode true
config cmdenv-autoflush true
config cmdenv-status-frequency 15s
config num-rngs 6
config network Highway
config debug-on-errors true
config print-undisposed true
config *.playgroundSizeX 65000m
config *.playgroundSizeY 25000m
config *.playgroundSizeZ 50m
config sim-time-limit "100 s"
config *.annotations.draw false
config *.obstacles.debug false
config *.world.useTorus false
config *.world.use2D false
config *.manager.updateInterval 0.01s
config *.manager.host "\"localhost\""
config *.manager.moduleType "\"org.car2x.plexe.PlatoonCar\""
config *.manager.moduleName "\"node\""
config *.manager.moduleDisplayString "\"\""
config *.manager.autoShutdown true
config *.manager.margin 25
config *.connectionManager.sendDirect true
config *.connectionManager.maxInterfDist 2600m
config *.connectionManager.drawMaxIntfDist false
config *.**.nic.mac1609_4.useServiceChannel false
config *.**.nic.mac1609_4.txPower 100mW
config *.**.nic.mac1609_4.bitrate 6Mbps
config *.**.nic.mac1609_4.useAcks true
config *.**.nic.mac1609_4.ackErrorRate 0.0
config *.**.nic.mac1609_4.frameErrorRate 0.0
config *.**.nic.phy80211p.minPowerLevel -94dBm
config *.**.nic.phy80211p.maxTXPower 100mW
config *.**.nic.phy80211p.useNoiseFloor true
config *.**.nic.phy80211p.noiseFloor -95dBm
config *.**.nic.phy80211p.decider "xmldoc(\"config.xml\")"
config *.**.nic.phy80211p.analogueModels "xmldoc(\"config.xml\")"
config *.**.nic.phy80211p.usePropagationDelay true
config *.node[*].mobility.x 0
config *.node[*].mobility.y 0
config *.node[*].mobility.z 1.895
config seed-set 3
config **.seed 3
config *.node[*].prot.rng-0 2
config *.node[*].appl.rng-0 3
config *.node[*].scenario.rng-0 4
config **.traffic.rng-0 5
config *.manager.configFile "\"./sumocfg/freeway.sumo.cfg\""
config *.manager.launchConfig "xmldoc(\"./sumocfg/freeway.launchd.xml\")"
config **.numberOfCars 8
config **.numberOfCarsPerPlatoon 8
config **.numberOfLanes 1
config *.node[*].helper_type "\"PositionHelper\""
config *.node[*].scenario.caccC1 0.5
config *.node[*].scenario.caccXi 1
config *.node[*].scenario.caccOmegaN "0.2 Hz"
config *.node[*].scenario.caccSpacing "2 m"
config *.node[*].scenario.engineTau "0.5 s"
config *.node[*].scenario.ploegH 0.5s
config *.node[*].scenario.ploegKp 0.2
config *.node[*].scenario.ploegKd 0.7
config *.node[*].scenario.useRealisticEngine false
config *.node[*].scenario.useControllerAcceleration true
config *.node[*].scenario.nLanes 1
config **.numericController 1
config **.headway 0.1s
config *.node[*].scenario.accHeadway 0.1s
config *.node[*].scenario.leaderHeadway 1.2s
config *.node[*].scenario.leaderSpeed 130kmph
config *.node[*].appl_type "\"SimplePlatooningApp\""
config *.node[*].appl.*.scalar-recording true
config *.node[*].appl.*.vector-recording true
config *.node[0].appl.breakRanksSafetyDistance 3m
config *.node[*].appl.minSpeed 120kmph
config *.node[*].appl.maxSpeed 140kmph
config *.node[*].protocol_type "\"SimplePlatooningBeaconing\""
config *.node[*].prot.*.scalar-recording true
config *.node[*].prot.*.vector-recording true
config *.node[*].prot.beaconingInterval 0.1s
config *.node[*].prot.priority 4
config *.node[*].prot.packetSize 200
config **.traffic_type "\"PlatoonsTrafficManager\""
config **.traffic.platoonInsertTime "1 s"
config **.traffic.platoonInsertSpeed 130kmph
config **.traffic.nCars 8
config **.traffic.platoonSize 8
config **.traffic.nLanes 1
config **.traffic.platooningVType "\"vtypeauto\""
config **.traffic.controller "\"CACC\""
config **.traffic.platoonInsertDistance 2m
config **.traffic.platoonInsertHeadway 0s
config **.traffic.platoonLeaderHeadway 1.2s
config **.scalar-recording false
config **.vector-recording false
config output-vector-file results/BreakRanksNoGui_1_0.1_130_3/result_3.vec
config output-scalar-file results/BreakRanksNoGui_1_0.1_130_3/result_3.sca

vector 0 Highway.node[0].appl distance ETV
vector 1 Highway.node[0].appl relativeSpeed ETV
vector 2 Highway.node[0].appl nodeId ETV
vector 3 Highway.node[0].appl acceleration ETV
vector 4 Highway.node[0].appl controllerAcceleration ETV
vector 5 Highway.node[0].appl speed ETV
vector 6 Highway.node[0].appl posx ETV
vector 7 Highway.node[0].appl posy ETV
vector 8 Highway.node[1].appl distance ETV
vector 9 Highway.node[1].appl relativeSpeed ETV
vector 10 Highway.node[1].appl nodeId ETV
vector 11 Highway.node[1].appl acceleration ETV
vector 12 Highway.node[1].appl controllerAcceleration ETV
vector 13 Highway.node[1].appl speed ETV
vector 14 Highway.node[1].appl posx ETV
vector 15 Highway.node[1].appl posy ETV
vector 16 Highway.node[2].appl distance ETV
vector 17 Highway.node[2].appl relativeSpeed ETV
vector 18 Highway.node[2].appl nodeId ETV
vector 19 Highway.node[2].appl acceleration ETV
vector 20 Highway.node[2].appl controllerAcceleration ETV
vector 21 Highway.node[2].appl speed ETV
vector 22 Highway.node[2].appl posx ETV
vector 23 Highway.node[2].appl posy ETV
vector 24 Highway.node[3].appl distance ETV
vector 25 Highway.node[3].appl relativeSpeed ETV
vector 26 Highway.node[3].appl nodeId ETV
vector 27 Highway.node[3].appl acceleration ETV
vector 28 Highway.node[3].appl controllerAcceleration ETV
vector 29 Highway.node[3].appl speed ETV
vector 30 Highway.node[3].appl posx ETV
vector 31 Highway.node[3].appl posy ETV
vector 32 Highway.node[4].appl distance ETV
vector 33 Highway.node[4].appl relativeSpeed ETV
vector 34 Highway.node[4].appl nodeId ETV
vector 35 Highway.node[4].appl acceleration ETV
vector 36 Highway.node[4].appl controllerAcceleration ETV
vector 37 Highway.node[4].appl speed ETV
vector 38 Highway.node[4].appl posx ETV
vector 39 Highway.node[4].appl posy ETV
vector 40 Highway.node[5].appl distance ETV
vector 41 Highway.node[5].appl relativeSpeed ETV
vector 42 Highway.node[5].appl nodeId ETV
vector 43 Highway.node[5].appl acceleration ETV
vector 44 Highway.node[5].appl controllerAcceleration ETV
vector 45 Highway.node[5].appl speed ETV
vector 46 Highway.node[5].appl posx ETV
vector 47 Highway.node[5].appl posy ETV
vector 48 Highway.node[6].appl distance ETV
vector 49 Highway.node[6].appl relativeSpeed ETV
vector 50 Highway.node[6].appl nodeId ETV
vector 51 Highway.node[6].appl acceleration ETV
vector 52 Highway.node[6].appl controllerAcceleration ETV
vector 53 Highway.node[6].appl speed ETV
vector 54 Highway.node[6].appl posx ETV
vector 55 Highway.node[6].appl posy ETV
vector 56 Highway.node[7].appl distance ETV
vector 57 Highway.node[7].appl relativeSpeed ETV
vector 58 Highway.node[7].appl nodeId ETV
vector 59 Highway.node[7].appl acceleration ETV
vector 60 Highway.node[7].appl controllerAcceleration ETV
vector 61 Highway.node[7].appl speed ETV
vector 62 Highway.node[7].appl posx ETV
vector 63 Highway.node[7].appl posy ETV
vector 64 Highway.node[1].prot leaderDelay ETV
vector 65 Highway.node[1].prot leaderDelayId ETV
vector 66 Highway.node[1].prot frontDelay ETV
vector 67 Highway.node[1].prot frontDelayId ETV
vector 68 Highway.node[2].prot leaderDelay ETV
vector 69 Highway.node[2].prot leaderDelayId ETV
vector 70 Highway.node[3].prot leaderDelay ETV
vector 71 Highway.node[3].prot leaderDelayId ETV
vector 72 Highway.node[4].prot leaderDelay ETV
vector 73 Highway.node[4].prot leaderDelayId ETV
vector 74 Highway.node[5].prot leaderDelay ETV
vector 75 Highway.node[5].prot leaderDelayId ETV
vector 76 Highway.node[6].prot leaderDelay ETV
vector 77 Highway.node[6].prot leaderDelayId ETV
vector 78 Highway.node[7].prot leaderDelay ETV
vector 79 Highway.node[7].prot leaderDelayId ETV
vector 80 Highway.node[7].prot frontDelay ETV
vector 81 Highway.node[7].prot frontDelayId ETV
vector 82 Highway.node[2].prot frontDelay ETV
vector 83 Highway.node[2].prot frontDelayId ETV
vector 84 Highway.node[5].prot frontDelay ETV
vector 85 Highway.node[5].prot frontDelayId ETV
vector 86 Highway.node[3].prot frontDelay ETV
vector 87 Highway.node[3].prot frontDelayId ETV
vector 88 Highway.node[6].prot frontDelay ETV
vector 89 Highway.node[6].prot frontDelayId ETV
vector 90 Highway.node[4].prot frontDelay ETV
vector 91 Highway.node[4].prot frontDelayId ETV
vector 92 Highway.node[0].prot nodeId ETV
vector 93 Highway.node[0].prot busyTime ETV
vector 94 Highway.node[0].prot collisions ETV
vector 95 Highway.node[1].prot nodeId ETV
vector 96 Highway.node[1].prot busyTime ETV
vector 97 Highway.node[1].prot collisions ETV
vector 98 Highway.node[2].prot nodeId ETV
vector 99 Highway.node[2].prot busyTime ETV
vector 100 Highway.node[2].prot collisions ETV
vector 101 Highway.node[3].prot nodeId ETV
vector 102 Highway.node[3].prot busyTime ETV
vector 103 Highway.node[3].prot collisions ETV
vector 104 Highway.node[4].prot nodeId ETV
vector 105 Highway.node[4].prot busyTime ETV
vector 106 Highway.node[4].prot collisions ETV
vector 107 Highway.node[5].prot nodeId ETV
vector 108 Highway.node[5].prot busyTime ETV
vector 109 Highway.node[5].prot collisions ETV
vector 110 Highway.node[6].prot nodeId ETV
vector 111 Highway.node[6].prot busyTime ETV
vector 112 Highway.node[6].prot collisions ETV
vector 113 Highway.node[7].prot nodeId ETV
vector 114 Highway.node[7].prot busyTime ETV
vector 115 Highway.node[7].prot collisions ETV
0	113	1.11	-1
0	659	1.21	-1
0	1205	1.31	-1
0	1751	1.41	-1
0	2297	1.51	-1
0	2843	1.61	-1
0	3389	1.71	-1
0	3935	1.81	-1
0	4481	1.91	-1
0	5035	2.01	-1
0	5581	2.11	-1
0	6127	2.21	-1
0	6673	2.31	-1
0	7219	2.41	-1
0	7765	2.51	-1
0	8311	2.61	-1
0	8857	2.71	-1
0	9403	2.81	-1
0	9949	2.91	-1
0	10503	3.01	-1
0	11049	3.11	-1
0	11595	3.21	-1
0	12141	3.31	-1
0	12687	3.41	-1
0	13233	3.51	-1
0	13779	3.61	-1
0	14325	3.71	-1
0	14871	3.81	-1
0	15417	3.91	-1
0	15971	4.01	-1
0	16517	4.11	-1
0	17063	4.21	-1
0	17609	4.31	-1
0	18155	4.41	-1
0	18701	4.51	-1
0	19247	4.61	-1
0	19793	4.71	-1
0	20339	4.81	-1
0	20885	4.91	-1
0	21439	5.01	-1
0	21985	5.11	-1
0	22531	5.21	-1
0	23077	5.31	-1
0	23623	5.41	-1
0	24169	5.51	-1
0	24715	5.61	-1
0	25261	5.71	-1
0	25807	5.81	-1
0	26353	5.91	-1
0	26907	6.01	-1
0	27453	6.11	-1
0	27999	6.21	-1
0	28545	6.31	-1
0	29091	6.41	-1
0	29637	6.51	-1
0	30183	6.61	-1
0	30729	6.71	-1
0	31275	6.81	-1
0	31821	6.91	-1
0	32375	7.01	-1
0	32921	7.11	-1
0	33467	7.21	-1
0	34013	7.31	-1
0	34559	7.41	-1
0	35105	7.51	-1
0	35651	7.61	-1
0	36197	7.71	-1
0	36743	7.81	-1
0	37289	7.91	-1
0	37843	8.01	-1
0	38389	8.11	-1
0	38935	8.21	-1
0	39481	8.31	-1
0	40027	8.41	-1
0	40573	8.51	-1
0	41119	8.61	-1
0	41665	8.71	-1
0	42211	8.81	-1
0	42757	8.91	-1
0	43311	9.01	-1
0	43857	9.11	-1
0	44403	9.21	-1
0	44949	9.31	-1
0	45495	9.41	-1
0	46041	9.51	-1
0	46587	9.61	-1
0	47133	9.71	-1
0	47679	9.81	-1
0	48225	9.91	-1
0	48853	10.01	-1
0	49406	10.11	-1
0	49959	10.21	-1
0	50512	10.31	-1
0	51065	10.41	-1
0	51618	10.51	-1
0	52171	10.61	-1
0	52724	10.71	-1
0	53277	10.81	-1
0	53830	10.91	-1
0	54391	11.01	-1
0	54944	11.11	-1
0	55497	11.21	-1
0	56050	11.31	-1
0	56603	11.41	-1
0	57156	11.51	-1
0	57709	11.61	-1
0	58262	11.71	-1
0	58815	11.81	-1
0	59368	11.91	-1
0	59929	12.01	-1
0	60482	12.11	-1
0	61035	12.21	-1
0	61588	12.31	-1
0	62141	12.41	-1
0	62694	12.51	-1
0	63247	12.61	-1
0	63800	12.71	-1
0	64353	12.81	-1
0	64906	12.91	-1
0	65467	13.01	-1
0	66020	13.11	-1
0	66573	13.21	-1
0	67126	13.31	-1
0	67679	13.41	-1
0	68232	13.51	-1
0	68785	13.61	-1
0	69338	13.71	-1
0	69891	13.81	-1
0	70444	13.91	-1
0	71005	14.01	-1
0	71558	14.11	-1
0	72111	14.21	-1
0	72664	14.31	-1
0	73217	14.41	-1
0	73770	14.51	-1
0	74323	14.61	-1
0	74876	14.71	-1
0	75429	14.81	-1
0	75982	14.91	-1
0	76543	15.01	-1
0	77096	15.11	-1
0	77649	15.21	-1
0	78202	15.31	-1
0	78755	15.41	-1
0	79308	15.51	-1
0	79861	15.61	-1
0	80414	15.71	-1
0	80967	15.81	-1
0	81520	15.91	-1
0	82081	16.01	-1
0	82634	16.11	-1
0	83187	16.21	-1
0	83740	16.31	-1
0	84293	16.41	-1
0	84846	16.51	-1
0	85399	16.61	-1
0	85952	16.71	-1
0	86505	16.81	-1
0	87058	16.91	-1
0	87619	17.01	-1
0	88172	17.11	-1
0	88725	17.21	-1
0	89278	17.31	-1
0	89831	17.41	-1
0	90384	17.51	-1
0	90937	17.61	-1
0	91490	17.71	-1
0	92043	17.81	-1
0	92596	17.91	-1
0	93157	18.01	-1
0	93710	18.11	-1
0	94263	18.21	-1
0	94816	18.31	-1
0	95369	18.41	-1
0	95922	18.51	-1
0	96475	18.61	-1
0	97028	18.71	-1
0	97581	18.81	-1
0	98134	18.91	-1
0	98695	19.01	-1
0	99248	19.11	-1
0	99801	19.21	-1
0	100354	19.31	-1
0	100907	19.41	-1
0	101460	19.51	-1
0	102013	19.61	-1
0	102566	19.71	-1
0	103119	19.81	-1
0	103672	19.91	-1
0	104233	20.01	-1
0	104786	20.11	-1
0	105339	20.21	-1
0	105892	20.31	-1
0	106445	20.41	-1
0	106998	20.51	-1
0	107551	20.61	-1
0	108104	20.71	-1
0	108657	20.81	-1
0	109210	20.91	-1
0	109771	21.01	-1
0	110324	21.11	-1
0	110877	21.21	-1
0	111430	21.31	-1
0	111983	21.41	-1
0	112536	21.51	-1
0	113089	21.61	-1
0	113642	21.71	-1
0	114195	21.81	-1
0	114748	21.91	-1
0	115309	22.01	-1
0	115862	22.11	-1
0	116415	22.21	-1
0	116968	22.31	-1
0	117521	22.41	-1
0	118074	22.51	-1
0	118627	22.61	-1
0	119180	22.71	-1
0	119733	22.81	-1
0	120286	22.91	-1
0	120847	23.01	-1
0	121400	23.11	-1
0	121953	23.21	-1
0	122506	23.31	-1
0	123059	23.41	-1
0	123612	23.51	-1
0	124165	23.61	-1
0	124718	23.71	-1
0	125271	23.81	-1
0	125824	23.91	-1
0	126385	24.01	-1
0	126938	24.11	-1
0	127491	24.21	-1
0	128044	24.31	-1
0	128597	24.41	-1
0	129150	24.51	-1
0	129703	24.61	-1
0	130256	24.71	-1
0	130809	24.81	-1
0	131362	24.91	-1
0	131923	25.01	-1
0	132476	25.11	-1
0	133029	25.21	-1
0	133582	25.31	-1
0	134135	25.41	-1
0	134688	25.51	-1
0	135241	25.61	-1
0	135794	25.71	-1
0	136347	25.81	-1
0	136900	25.91	-1
0	137461	26.01	-1
0	138014	26.11	-1
0	138567	26.21	-1
0	139120	26.31	-1
0	139673	26.41	-1
0	140226	26.51	-1
0	140779	26.61	-1
0	141332	26.71	-1
0	141885	26.81	-1
0	142438	26.91	-1
0	142999	27.01	-1
0	143552	27.11	-1
0	144105	27.21	-1
0	144658	27.31	-1
0	145211	27.41	-1
0	145764	27.51	-1
0	146317	27.61	-1
0	146870	27.71	-1
0	147423	27.81	-1
0	147976	27.91	-1
0	148537	28.01	-1
0	149090	28.11	-1
0	149643	28.21	-1
0	150196	28.31	-1
0	150749	28.41	-1
0	151302	28.51	-1
0	151855	28.61	-1
0	152408	28.71	-1
0	152961	28.81	-1
0	153514	28.91	-1
0	154075	29.01	-1
0	154628	29.11	-1
0	155181	29.21	-1
0	155827	29.31	-1
0	156379	29.41	-1
0	156931	29.51	-1
0	157483	29.61	-1
0	158035	29.71	-1
0	158587	29.81	-1
0	159139	29.91	-1
0	159699	30.01	-1
0	160251	30.11	-1
0	160803	30.21	-1
0	161355	30.31	-1
0	161907	30.41	-1
0	162459	30.51	-1
0	163011	30.61	-1
0	163563	30.71	-1
0	164115	30.81	-1
0	164667	30.91	-1
0	165227	31.01	-1
0	165779	31.11	-1
0	166331	31.21	-1
0	166883	31.31	-1
0	167435	31.41	-1
0	167987	31.51	-1
0	168539	31.61	-1
0	169091	31.71	-1
0	169643	31.81	-1
0	170195	31.91	-1
0	170755	32.01	-1
0	171307	32.11	-1
0	171859	32.21	-1
0	172411	32.31	-1
0	172963	32.41	-1
0	173515	32.51	-1
0	174067	32.61	-1
0	174619	32.71	-1
0	175171	32.81	-1
0	175723	32.91	-1
0	176283	33.01	-1
0	176835	33.11	-1
0	177387	33.21	-1
0	177939	33.31	-1
0	178491	33.41	-1
0	179136	33.51	-1
0	179687	33.61	-1
0	180238	33.71	-1
0	180789	33.81	-1
0	181340	33.91	-1
0	181899	34.01	-1
0	182450	34.11	-1
0	183001	34.21	-1
0	183552	34.31	-1
0	184103	34.41	-1
0	184654	34.51	-1
0	185205	34.61	-1
0	185756	34.71	-1
0	186307	34.81	-1
0	186858	34.91	-1
0	187417	35.01	-1
0	187968	35.11	-1
0	188519	35.21	-1
0	189070	35.31	-1
0	189621	35.41	-1
0	190172	35.51	-1
0	190723	35.61	-1
0	191274	35.71	-1
0	191825	35.81	-1
0	192376	35.91	-1
0	192935	36.01	-1
0	193486	36.11	-1
0	194037	36.21	-1
0	194588	36.31	-1
0	195139	36.41	-1
0	195690	36.51	-1
0	196241	36.61	-1
0	196792	36.71	-1
0	197343	36.81	-1
0	197894	36.91	-1
0	198453	37.01	-1
0	199004	37.11	-1
0	199555	37.21	-1
0	200106	37.31	-1
0	200657	37.41	-1
0	201301	37.51	-1
0	201851	37.61	-1
0	202401	37.71	-1
0	202951	37.81	-1
0	203501	37.91	-1
0	204059	38.01	-1
0	204609	38.11	-1
0	205159	38.21	-1
0	205709	38.31	-1
0	206259	38.41	-1
0	206809	38.51	-1
0	207359	38.61	-1
0	207909	38.71	-1
0	208459	38.81	-1
0	209009	38.91	-1
0	209567	39.01	-1
0	210117	39.11	-1
0	210667	39.21	-1
0	211217	39.31	-1
0	211767	39.41	-1
0	212317	39.51	-1
0	212867	39.61	-1
0	213417	39.71	-1
0	213967	39.81	-1
0	214517	39.91	-1
0	215075	40.01	-1
0	215625	40.11	-1
0	216175	40.21	-1
0	216725	40.31	-1
0	217275	40.41	-1
0	217825	40.51	-1
0	218375	40.61	-1
0	218925	40.71	-1
0	219475	40.81	-1
0	220025	40.91	-1
0	220583	41.01	-1
0	221133	41.11	-1
0	221683	41.21	-1
0	222326	41.31	-1
0	222875	41.41	-1
0	223424	41.51	-1
0	223973	41.61	-1
0	224522	41.71	-1
0	225071	41.81	-1
0	225620	41.91	-1
0	226177	42.01	-1
0	226726	42.11	-1
0	227275	42.21	-1
0	227824	42.31	-1
0	228373	42.41	-1
0	228922	42.51	-1
0	229471	42.61	-1
0	230020	42.71	-1
0	230569	42.81	-1
0	231118	42.91	-1
0	231675	43.01	-1
0	232224	43.11	-1
0	232773	43.21	-1
0	233322	43.31	-1
0	233871	43.41	-1
0	234420	43.51	-1
0	234969	43.61	-1
0	235518	43.71	-1
0	236067	43.81	-1
0	236616	43.91	-1
0	237173	44.01	-1
0	237722	44.11	-1
0	238271	44.21	-1
0	238820	44.31	-1
0	239369	44.41	-1
0	239918	44.51	-1
0	240467	44.61	-1
0	241016	44.71	-1
0	241565	44.81	-1
0	242114	44.91	-1
0	242764	45.01	-1
0	243312	45.11	-1
0	243860	45.21	-1
0	244408	45.31	-1
0	244956	45.41	-1
0	245504	45.51	-1
0	246052	45.61	-1
0	246600	45.71	-1
0	247148	45.81	-1
0	247696	45.91	-1
0	248252	46.01	-1
0	248800	46.11	-1
0	249348	46.21	-1
0	249896	46.31	-1
0	250444	46.41	-1
0	250992	46.51	-1
0	251540	46.61	-1
0	252088	46.71	-1
0	252636	46.81	-1
0	253184	46.91	-1
0	253740	47.01	-1
0	254288	47.11	-1
0	254836	47.21	-1
0	255384	47.31	-1
0	255932	47.41	-1
0	256480	47.51	-1
0	257028	47.61	-1
0	257576	47.71	-1
0	258124	47.81	-1
0	258672	47.91	-1
0	259228	48.01	-1
0	259776	48.11	-1
0	260324	48.21	-1
0	260872	48.31	-1
0	261420	48.41	-1
0	261968	48.51	-1
0	262609	48.61	-1
0	263156	48.71	-1
0	263703	48.81	-1
0	264250	48.91	-1
0	264805	49.01	-1
0	265352	49.11	-1
0	265899	49.21	-1
0	266446	49.31	-1
0	266993	49.41	-1
0	267540	49.51	-1
0	268087	49.61	-1
0	268634	49.71	-1
0	269181	49.81	-1
0	269728	49.91	-1
0	270283	50.01	-1
0	270830	50.11	-1
0	271377	50.21	-1
0	271924	50.31	-1
0	272471	50.41	-1
0	273018	50.51	-1
0	273565	50.61	-1
0	274112	50.71	-1
0	274659	50.81	-1
0	275206	50.91	-1
0	275761	51.01	-1
0	276308	51.11	-1
0	276855	51.21	-1
0	277402	51.31	-1
0	277949	51.41	-1
0	278496	51.51	-1
0	279043	51.61	-1
0	279590	51.71	-1
0	280137	51.81	-1
0	280684	51.91	-1
0	281239	52.01	-1
0	282530	52.11	-1
0	283076	52.21	-1
0	283622	52.31	-1
0	284168	52.41	-1
0	284714	52.51	-1
0	285260	52.61	-1
0	285806	52.71	-1
0	286352	52.81	-1
0	286898	52.91	-1
0	287452	53.01	-1
0	287998	53.11	-1
0	288544	53.21	-1
0	289090	53.31	-1
0	289636	53.41	-1
0	290182	53.51	-1
0	290728	53.61	-1
0	291274	53.71	-1
0	291820	53.81	-1
0	292366	53.91	-1
0	292920	54.01	-1
0	293466	54.11	-1
0	294012	54.21	-1
0	294558	54.31	-1
0	295104	54.41	-1
0	295650	54.51	-1
0	296196	54.61	-1
0	296742	54.71	-1
0	297288	54.81	-1
0	297834	54.91	-1
0	298388	55.01	-1
0	298934	55.11	-1
0	299480	55.21	-1
0	300026	55.31	-1
0	300572	55.41	-1
0	301118	55.51	-1
0	301664	55.61	-1
0	302210	55.71	-1
0	302756	55.81	-1
0	303302	55.91	-1
0	303856	56.01	-1
0	304402	56.11	-1
0	304948	56.21	-1
0	305494	56.31	-1
0	306040	56.41	-1
0	306586	56.51	-1
0	307132	56.61	-1
0	307678	56.71	-1
0	308224	56.81	-1
0	308770	56.91	-1
0	309324	57.01	-1
0	309870	57.11	-1
0	310416	57.21	-1
0	310962	57.31	-1
0	311508	57.41	-1
0	312054	57.51	-1
0	312600	57.61	-1
0	313146	57.71	-1
0	313692	57.81	-1
0	314238	57.91	-1
0	314792	58.01	-1
0	315338	58.11	-1
0	315884	58.21	-1
0	316430	58.31	-1
0	316976	58.41	-1
0	317522	58.51	-1
0	318068	58.61	-1
0	318614	58.71	-1
0	319160	58.81	-1
0	319706	58.91	-1
0	320260	59.01	-1
0	320806	59.11	-1
0	321352	59.21	-1
0	321898	59.31	-1
0	322444	59.41	-1
0	322990	59.51	-1
0	323536	59.61	-1
0	324082	59.71	-1
0	324628	59.81	-1
0	325174	59.91	-1
0	325728	60.01	-1
0	326274	60.11	-1
0	326820	60.21	-1
0	327366	60.31	-1
0	327912	60.41	-1
0	328458	60.51	-1
0	329004	60.61	-1
0	329550	60.71	-1
0	330096	60.81	-1
0	330642	60.91	-1
0	331196	61.01	-1
0	331742	61.11	-1
0	332288	61.21	-1
0	332834	61.31	-1
0	333380	61.41	-1
0	333926	61.51	-1
0	334472	61.61	-1
0	335018	61.71	-1
0	335564	61.81	-1
0	336110	61.91	-1
0	336664	62.01	-1
0	337210	62.11	-1
0	337756	62.21	-1
0	338302	62.31	-1
0	338848	62.41	-1
0	339394	62.51	-1
0	339940	62.61	-1
0	340486	62.71	-1
0	341032	62.81	-1
0	341578	62.91	-1
0	342132	63.01	-1
0	342678	63.11	-1
0	343224	63.21	-1
0	343770	63.31	-1
0	344316	63.41	-1
0	344862	63.51	-1
0	345408	63.61	-1
0	345954	63.71	-1
0	346500	63.81	-1
0	347046	63.91	-1
0	347600	64.01	-1
0	348146	64.11	-1
0	348692	64.21	-1
0	349238	64.31	-1
0	349784	64.41	-1
0	350330	64.51	-1
0	350876	64.61	-1
0	351422	64.71	-1
0	351968	64.81	-1
0	352514	64.91	-1
0	353068	65.01	-1
0	353614	65.11	-1
0	354160	65.21	-1
0	354706	65.31	-1
0	355252	65.41	-1
0	355798	65.51	-1
0	356344	65.61	-1
0	356890	65.71	-1
0	357436	65.81	-1
0	357982	65.91	-1
0	358536	66.01	-1
0	359082	66.11	-1
0	359628	66.21	-1
0	360174	66.31	-1
0	360720	66.41	-1
0	361266	66.51	-1
0	361812	66.61	-1
0	362358	66.71	-1
0	362904	66.81	-1
0	363450	66.91	-1
0	364004	67.01	-1
0	364550	67.11	-1
0	365096	67.21	-1
0	365642	67.31	-1
0	366188	67.41	-1
0	366734	67.51	-1
0	367280	67.61	-1
0	367826	67.71	-1
0	368372	67.81	-1
0	368918	67.91	-1
0	369472	68.01	-1
0	370018	68.11	-1
0	370564	68.21	-1
0	371110	68.31	-1
0	371656	68.41	-1
0	372202	68.51	-1
0	372748	68.61	-1
0	373294	68.71	-1
0	373840	68.81	-1
0	374386	68.91	-1
0	374940	69.01	-1
0	375486	69.11	-1
0	376032	69.21	-1
0	376578	69.31	-1
0	377124	69.41	-1
0	377670	69.51	-1
0	378216	69.61	-1
0	378762	69.71	-1
0	379308	69.81	-1
0	379854	69.91	-1
0	380408	70.01	-1
0	380954	70.11	-1
0	381500	70.21	-1
0	382046	70.31	-1
0	382592	70.41	-1
0	383138	70.51	-1
0	383684	70.61	-1
0	384230	70.71	-1
0	384776	70.81	-1
0	385322	70.91	-1
0	385876	71.01	-1
0	386422	71.11	-1
0	386968	71.21	-1
0	387514	71.31	-1
0	388060	71.41	-1
0	388606	71.51	-1
0	389152	71.61	-1
0	389698	71.71	-1
0	390244	71.81	-1
0	390790	71.91	-1
0	391344	72.01	-1
0	391890	72.11	-1
0	392436	72.21	-1
0	392982	72.31	-1
0	393528	72.41	-1
0	394074	72.51	-1
0	394620	72.61	-1
0	395166	72.71	-1
0	395712	72.81	-1
0	396258	72.91	-1
0	396812	73.01	-1
0	397358	73.11	-1
0	397904	73.21	-1
0	398450	73.31	-1
0	398996	73.41	-1
0	399542	73.51	-1
0	400088	73.61	-1
0	400634	73.71	-1
0	401180	73.81	-1
0	401726	73.91	-1
0	402280	74.01	-1
0	402826	74.11	-1
0	403372	74.21	-1
0	403918	74.31	-1
0	404464	74.41	-1
0	405010	74.51	-1
0	405556	74.61	-1
0	406102	74.71	-1
0	406648	74.81	-1
0	407194	74.91	-1
0	407748	75.01	-1
0	408294	75.11	-1
0	408840	75.21	-1
0	409386	75.31	-1
0	409932	75.41	-1
0	410478	75.51	-1
0	411024	75.61	-1
0	411570	75.71	-1
0	412116	75.81	-1
0	412662	75.91	-1
0	413216	76.01	-1
0	413762	76.11	-1
0	414308	76.21	-1
0	414854	76.31	-1
0	415400	76.41	-1
0	415946	76.51	-1
0	416492	76.61	-1
0	417038	76.71	-1
0	417584	76.81	-1
0	418130	76.91	-1
0	418684	77.01	-1
0	419230	77.11	-1
0	419776	77.21	-1
0	420322	77.31	-1
0	420868	77.41	-1
0	421414	77.51	-1
0	421960	77.61	-1
0	422506	77.71	-1
0	423052	77.81	-1
0	423598	77.91	-1
0	424152	78.01	-1
0	424698	78.11	-1
0	425244	78.21	-1
0	425790	78.31	-1
0	426336	78.41	-1
0	426882	78.51	-1
0	427428	78.61	-1
0	427974	78.71	-1
0	428520	78.81	-1
0	429066	78.91	-1
0	429620	79.01	-1
0	430166	79.11	-1
0	430712	79.21	-1
0	431258	79.31	-1
0	431804	79.41	-1
0	432350	79.51	-1
0	432896	79.61	-1
0	433442	79.71	-1
0	433988	79.81	-1
0	434534	79.91	-1
0	435088	80.01	-1
0	435634	80.11	-1
0	436180	80.21	-1
0	436726	80.31	-1
0	437272	80.41	-1
0	437818	80.51	-1
0	438364	80.61	-1
0	438910	80.71	-1
0	439456	80.81	-1
0	440002	80.91	-1
0	440556	81.01	-1
0	441102	81.11	-1
0	441648	81.21	-1
0	442194	81.31	-1
0	442740	81.41	-1
0	443286	81.51	-1
0	443832	81.61	-1
0	444378	81.71	-1
0	444924	81.81	-1
0	445470	81.91	-1
0	446024	82.01	-1
0	446570	82.11	-1
0	447116	82.21	-1
0	447662	82.31	-1
0	448208	82.41	-1
0	448754	82.51	-1
0	449300	82.61	-1
0	449846	82.71	-1
0	450392	82.81	-1
0	450938	82.91	-1
0	451492	83.01	-1
0	452038	83.11	-1
0	452584	83.21	-1
0	453130	83.31	-1
0	453676	83.41	-1
0	454222	83.51	-1
0	454768	83.61	-1
0	455314	83.71	-1
0	455860	83.81	-1
0	456406	83.91	-1
0	456960	84.01	-1
0	457506	84.11	-1
0	458052	84.21	-1
0	458598	84.31	-1
0	459144	84.41	-1
0	459690	84.51	-1
0	460236	84.61	-1
0	460782	84.71	-1
0	461328	84.81	-1
0	461874	84.91	-1
0	462428	85.01	-1
0	462974	85.11	-1
0	463520	85.21	-1
0	464066	85.31	-1
0	464612	85.41	-1
0	465158	85.51	-1
0	465704	85.61	-1
0	466250	85.71	-1
0	466796	85.81	-1
0	467342	85.91	-1
0	467896	86.01	-1
0	468442	86.11	-1
0	468988	86.21	-1
0	469534	86.31	-1
0	470080	86.41	-1
0	470626	86.51	-1
0	471172	86.61	-1
0	471718	86.71	-1
0	472264	86.81	-1
0	472810	86.91	-1
0	473364	87.01	-1
0	473910	87.11	-1
0	474456	87.21	-1
0	475002	87.31	-1
0	475548	87.41	-1
0	476094	87.51	-1
0	476640	87.61	-1
0	477186	87.71	-1
0	477732	87.81	-1
0	478278	87.91	-1
0	478832	88.01	-1
0	479378	88.11	-1
0	479924	88.21	-1
0	480470	88.31	-1
0	481016	88.41	-1
0	481562	88.51	-1
0	482108	88.61	-1
0	482654	88.71	-1
0	483200	88.81	-1
0	483746	88.91	-1
0	484300	89.01	-1
0	484846	89.11	-1
0	485392	89.21	-1
0	485938	89.31	-1
0	486484	89.41	-1
0	487030	89.51	-1
0	487576	89.61	-1
0	488122	89.71	-1
0	488668	89.81	-1
0	489214	89.91	-1
0	489768	90.01	-1
0	490314	90.11	-1
0	490860	90.21	-1
0	491406	90.31	-1
0	491952	90.41	-1
0	492498	90.51	-1
0	493044	90.61	-1
0	493590	90.71	-1
0	494136	90.81	-1
0	494682	90.91	-1
0	495236	91.01	-1
0	495782	91.11	-1
0	496328	91.21	-1
0	496874	91.31	-1
0	497420	91.41	-1
0	497966	91.51	-1
0	498512	91.61	-1
0	499058	91.71	-1
0	499604	91.81	-1
0	500150	91.91	-1
0	500704	92.01	-1
0	501250	92.11	-1
0	501796	92.21	-1
0	502342	92.31	-1
0	502888	92.41	-1
0	503434	92.51	-1
0	503980	92.61	-1
0	504526	92.71	-1
0	505072	92.81	-1
0	505618	92.91	-1
0	506172	93.01	-1
0	506718	93.11	-1
0	507264	93.21	-1
0	507810	93.31	-1
0	508356	93.41	-1
0	508902	93.51	-1
0	509448	93.61	-1
0	509994	93.71	-1
0	510540	93.81	-1
0	511086	93.91	-1
0	511640	94.01	-1
0	512186	94.11	-1
0	512732	94.21	-1
0	513278	94.31	-1
0	513824	94.41	-1
0	514370	94.51	-1
0	514916	94.61	-1
0	515462	94.71	-1
0	516008	94.81	-1
0	516554	94.91	-1
0	517108	95.01	-1
0	517654	95.11	-1
0	518200	95.21	-1
0	518746	95.31	-1
0	519292	95.41	-1
0	519838	95.51	-1
0	520384	95.61	-1
0	520930	95.71	-1
0	521476	95.81	-1
0	522022	95.91	-1
0	522576	96.01	-1
0	523122	96.11	-1
0	523668	96.21	-1
0	524214	96.31	-1
0	524760	96.41	-1
0	525306	96.51	-1
0	525852	96.61	-1
0	526398	96.71	-1
0	526944	96.81	-1
0	527490	96.91	-1
0	528044	97.01	-1
0	528590	97.11	-1
0	529136	97.21	-1
0	529682	97.31	-1
0	530228	97.41	-1
0	530774	97.51	-1
0	531320	97.61	-1
0	531866	97.71	-1
0	532412	97.81	-1
0	532958	97.91	-1
0	533512	98.01	-1
0	534058	98.11	-1
0	534604	98.21	-1
0	535150	98.31	-1
0	535696	98.41	-1
0	536242	98.51	-1
0	536788	98.61	-1
0	537334	98.71	-1
0	537880	98.81	-1
0	538426	98.91	-1
0	538980	99.01	-1
0	539526	99.11	-1
0	540072	99.21	-1
0	540618	99.31	-1
0	541164	99.41	-1
0	541710	99.51	-1
0	542256	99.61	-1
0	542802	99.71	-1
0	543348	99.81	-1
0	543894	99.91	-1
1	113	1.11	0
1	659	1.21	0
1	1205	1.31	0
1	1751	1.41	0
1	2297	1.51	0
1	2843	1.61	0
1	3389	1.71	0
1	3935	1.81	0
1	4481	1.91	0
1	5035	2.01	0
1	5581	2.11	0
1	6127	2.21	0
1	6673	2.31	0
1	7219	2.41	0
1	7765	2.51	0
1	8311	2.61	0
1	8857	2.71	0
1	9403	2.81	0
1	9949	2.91	0
1	10503	3.01	0
1	11049	3.11	0
1	11595	3.21	0
1	12141	3.31	0
1	12687	3.41	0
1	13233	3.51	0
1	13779	3.61	0
1	14325	3.71	0
1	14871	3.81	0
1	15417	3.91	0
1	15971	4.01	0
1	16517	4.11	0
1	17063	4.21	0
1	17609	4.31	0
1	18155	4.41	0
1	18701	4.51	0
1	19247	4.61	0
1	19793	4.71	0
1	20339	4.81	0
1	20885	4.91	0
1	21439	5.01	0
1	21985	5.11	0
1	22531	5.21	0
1	23077	5.31	0
1	23623	5.41	0
1	24169	5.51	0
1	24715	5.61	0
1	25261	5.71	0
1	25807	5.81	0
1	26353	5.91	0
1	26907	6.01	0
1	27453	6.11	0
1	27999	6.21	0
1	28545	6.31	0
1	29091	6.41	0
1	29637	6.51	0
1	30183	6.61	0
1	30729	6.71	0
1	31275	6.81	0
1	31821	6.91	0
1	32375	7.01	0
1	32921	7.11	0
1	33467	7.21	0
1	34013	7.31	0
1	34559	7.41	0
1	35105	7.51	0
1	35651	7.61	0
1	36197	7.71	0
1	36743	7.81	0
1	37289	7.91	0
1	37843	8.01	0
1	38389	8.11	0
1	38935	8.21	0
1	39481	8.31	0
1	40027	8.41	0
1	40573	8.51	0
1	41119	8.61	0
1	41665	8.71	0
1	42211	8.81	0
1	42757	8.91	0
1	43311	9.01	0
1	43857	9.11	0
1	44403	9.21	0
1	44949	9.31	0
1	45495	9.41	0
1	46041	9.51	0
1	46587	9.61	0
1	47133	9.71	0
1	47679	9.81	0
1	48225	9.91	0
1	48853	10.01	0
1	49406	10.11	0
1	49959	10.21	0
1	50512	10.31	0
1	51065	10.41	0
1	51618	10.51	0
1	52171	10.61	0
1	52724	10.71	0
1	53277	10.81	0
1	53830	10.91	0
1	54391	11.01	0
1	54944	11.11	0
1	55497	11.21	0
1	56050	11.31	0
1	56603	11.41	0
1	57156	11.51	0
1	57709	11.61	0
1	58262	11.71	0
1	58815	11.81	0
1	59368	11.91	0
1	59929	12.01	0
1	60482	12.11	0
1	61035	12.21	0
1	61588	12.31	0
1	62141	12.41	0
1	62694	12.51	0
1	63247	12.61	0
1	63800	12.71	0
1	64353	12.81	0
1	64906	12.91	0
1	65467	13.01	0
1	66020	13.11	0
1	66573	13.21	0
1	67126	13.31	0
1	67679	13.41	0
1	68232	13.51	0
1	68785	13.61	0
1	69338	13.71	0
1	69891	13.81	0
1	70444	13.91	0
1	71005	14.01	0
1	71558	14.11	0
1	72111	14.21	0
1	72664	14.31	0
1	73217	14.41	0
1	73770	14.51	0
1	74323	14.61	0
1	74876	14.71	0
1	75429	14.81	0
1	75982	14.91	0
1	76543	15.01	0
1	77096	15.11	0
1	77649	15.21	0
1	78202	15.31	0
1	78755	15.41	0
1	79308	15.51	0
1	79861	15.61	0
1	80414	15.71	0
1	80967	15.81	0
1	81520	15.91	0
1	82081	16.01	0
1	82634	16.11	0
1	83187	16.21	0
1	83740	16.31	0
1	84293	16.41	0
1	84846	16.51	0
1	85399	16.61	0
1	85952	16.71	0
1	86505	16.81	0
1	87058	16.91	0
1	87619	17.01	0
1	88172	17.11	0
1	88725	17.21	0
1	89278	17.31	0
1	89831	17.41	0
1	90384	17.51	0
1	90937	17.61	0
1	91490	17.71	0
1	92043	17.81	0
1	92596	17.91	0
1	93157	18.01	0
1	93710	18.11	0
1	94263	18.21	0
1	94816	18.31	0
1	95369	18.41	0
1	95922	18.51	0
1	96475	18.61	0
1	97028	18.71	0
1	97581	18.81	0
1	98134	18.91	0
1	98695	19.01	0
1	99248	19.11	0
1	99801	19.21	0
1	100354	19.31	0
1	100907	19.41	0
1	101460	19.51	0
1	102013	19.61	0
1	102566	19.71	0
1	103119	19.81	0
1	103672	19.91	0
1	104233	20.01	0
1	104786	20.11	0
1	105339	20.21	0
1	105892	20.31	0
1	106445	20.41	0
1	106998	20.51	0
1	107551	20.61	0
1	108104	20.71	0
1	108657	20.81	0
1	109210	20.91	0
1	109771	21.01	0
1	110324	21.11	0
1	110877	21.21	0
1	111430	21.31	0
1	111983	21.41	0
1	112536	21.51	0
1	113089	21.61	0
1	113642	21.71	0
1	114195	21.81	0
1	114748	21.91	0
1	115309	22.01	0
1	115862	22.11	0
1	116415	22.21	0
1	116968	22.31	0
1	117521	22.41	0
1	118074	22.51	0
1	118627	22.61	0
1	119180	22.71	0
1	119733	22.81	0
1	120286	22.91	0
1	120847	23.01	0
1	121400	23.11	0
1	121953	23.21	0
1	122506	23.31	0
1	123059	23.41	0
1	123612	23.51	0
1	124165	23.61	0
1	124718	23.71	0
1	125271	23.81	0
1	125824	23.91	0
1	126385	24.01	0
1	126938	24.11	0
1	127491	24.21	0
1	128044	24.31	0
1	128597	24.41	0
1	129150	24.51	0
1	129703	24.61	0
1	130256	24.71	0
1	130809	24.81	0
1	131362	24.91	0
1	131923	25.01	0
1	132476	25.11	0
1	133029	25.21	0
1	133582	25.31	0
1	134135	25.41	0
1	134688	25.51	0
1	135241	25.61	0
1	135794	25.71	0
1	136347	25.81	0
1	136900	25.91	0
1	137461	26.01	0
1	138014	26.11	0
1	138567	26.21	0
1	139120	26.31	0
1	139673	26.41	0
1	140226	26.51	0
1	140779	26.61	0
1	141332	26.71	0
1	141885	26.81	0
1	142438	26.91	0
1	142999	27.01	0
1	143552	27.11	0
1	144105	27.21	0
1	144658	27.31	0
1	145211	27.41	0
1	145764	27.51	0
1	146317	27.61	0
1	146870	27.71	0
1	147423	27.81	0
1	147976	27.91	0
1	148537	28.01	0
1	149090	28.11	0
1	149643	28.21	0
1	150196	28.31	0
1	150749	28.41	0
1	151302	28.51	0
1	151855	28.61	0
1	152408	28.71	0
1	152961	28.81	0
1	153514	28.91	0
1	154075	29.01	0
1	154628	29.11	0
1	155181	29.21	0
1	155827	29.31	0
1	156379	29.41	0
1	156931	29.51	0
1	157483	29.61	0
1	158035	29.71	0
1	158587	29.81	0
1	159139	29.91	0
1	159699	30.01	0
1	160251	30.11	0
1	160803	30.21	0
1	161355	30.31	0
1	161907	30.41	0
1	162459	30.51	0
1	163011	30.61	0
1	163563	30.71	0
1	164115	30.81	0
1	164667	30.91	0
1	165227	31.01	0
1	165779	31.11	0
1	166331	31.21	0
1	166883	31.31	0
1	167435	31.41	0
1	167987	31.51	0
1	168539	31.61	0
1	169091	31.71	0
1	169643	31.81	0
1	170195	31.91	0
1	170755	32.01	0
1	171307	32.11	0
1	171859	32.21	0
1	172411	32.31	0
1	172963	32.41	0
1	173515	32.51	0
1	174067	32.61	0
1	174619	32.71	0
1	175171	32.81	0
1	175723	32.91	0
1	176283	33.01	0
1	176835	33.11	0
1	177387	33.21	0
1	177939	33.31	0
1	178491	33.41	0
1	179136	33.51	0
1	179687	33.61	0
1	180238	33.71	0
1	180789	33.81	0
1	181340	33.91	0
1	181899	34.01	0
1	182450	34.11	0
1	183001	34.21	0
1	183552	34.31	0
1	184103	34.41	0
1	184654	34.51	0
1	185205	34.61	0
1	185756	34.71	0
1	186307	34.81	0
1	186858	34.91	0
1	187417	35.01	0
1	187968	35.11	0
1	188519	35.21	0
1	189070	35.31	0
1	189621	35.41	0
1	190172	35.51	0
1	190723	35.61	0
1	191274	35.71	0
1	191825	35.81	0
1	192376	35.91	0
1	192935	36.01	0
1	193486	36.11	0
1	194037	36.21	0
1	194588	36.31	0
1	195139	36.41	0
1	195690	36.51	0
1	196241	36.61	0
1	196792	36.71	0
1	197343	36.81	0
1	197894	36.91	0
1	198453	37.01	0
1	199004	37.11	0
1	199555	37.21	0
1	200106	37.31	0
1	200657	37.41	0
1	201301	37.51	0
1	201851	37.61	0
1	202401	37.71	0
1	202951	37.81	0
1	203501	37.91	0
1	204059	38.01	0
1	204609	38.11	0
1	205159	38.21	0
1	205709	38.31	0
1	206259	38.41	0
1	206809	38.51	0
1	207359	38.61	0
1	207909	38.71	0
1	208459	38.81	0
1	209009	38.91	0
1	209567	39.01	0
1	210117	39.11	0
1	210667	39.21	0
1	211217	39.31	0
1	211767	39.41	0
1	212317	39.51	0
1	212867	39.61	0
1	213417	39.71	0
1	213967	39.81	0
1	214517	39.91	0
1	215075	40.01	0
1	215625	40.11	0
1	216175	40.21	0
1	216725	40.31	0
1	217275	40.41	0
1	217825	40.51	0
1	218375	40.61	0
1	218925	40.71	0
1	219475	40.81	0
1	220025	40.91	0
1	220583	41.01	0
1	221133	41.11	0
1	221683	41.21	0
1	222326	41.31	0
1	222875	41.41	0
1	223424	41.51	0
1	223973	41.61	0
1	224522	41.71	0
1	225071	41.81	0
1	225620	41.91	0
1	226177	42.01	0
1	226726	42.11	0
1	227275	42.21	0
1	227824	42.31	0
1	228373	42.41	0
1	228922	42.51	0
1	229471	42.61	0
1	230020	42.71	0
1	230569	42.81	0
1	231118	42.91	0
1	231675	43.01	0
1	232224	43.11	0
1	232773	43.21	0
1	233322	43.31	0
1	233871	43.41	0
1	234420	43.51	0
1	234969	43.61	0
1	235518	43.71	0
1	236067	43.81	0
1	236616	43.91	0
1	237173	44.01	0
1	237722	44.11	0
1	238271	44.21	0
1	238820	44.31	0
1	239369	44.41	0
1	239918	44.51	0
1	240467	44.61	0
1	241016	44.71	0
1	241565	44.81	0
1	242114	44.91	0
1	242764	45.01	0
1	243312	45.11	0
1	243860	45.21	0
1	244408	45.31	0
1	244956	45.41	0
1	245504	45.51	0
1	246052	45.61	0
1	246600	45.71	0
1	247148	45.81	0
1	247696	45.91	0
1	248252	46.01	0
1	248800	46.11	0
1	249348	46.21	0
1	249896	46.31	0
1	250444	46.41	0
1	250992	46.51	0
1	251540	46.61	0
1	252088	46.71	0
1	252636	46.81	0
1	253184	46.91	0
1	253740	47.01	0
1	254288	47.11	0
1	254836	47.21	0
1	255384	47.31	0
1	255932	47.41	0
1	256480	47.51	0
1	257028	47.61	0
1	257576	47.71	0
1	258124	47.81	0
1	258672	47.91	0
1	259228	48.01	0
1	259776	48.11	0
1	260324	48.21	0
1	260872	48.31	0
1	261420	48.41	0
1	261968	48.51	0
1	262609	48.61	0
1	263156	48.71	0
1	263703	48.81	0
1	264250	48.91	0
1	264805	49.01	0
1	265352	49.11	0
1	265899	49.21	0
1	266446	49.31	0
1	266993	49.41	0
1	267540	49.51	0
1	268087	49.61	0
1	268634	49.71	0
1	269181	49.81	0
1	269728	49.91	0
1	270283	50.01	0
1	270830	50.11	0
1	271377	50.21	0
1	271924	50.31	0
1	272471	50.41	0
1	273018	50.51	0
1	273565	50.61	0
1	274112	50.71	0
1	274659	50.81	0
1	275206	50.91	0
1	275761	51.01	0
1	276308	51.11	0
1	276855	51.21	0
1	277402	51.31	0
1	277949	51.41	0
1	278496	51.51	0
1	279043	51.61	0
1	279590	51.71	0
1	280137	51.81	0
1	280684	51.91	0
1	281239	52.01	0
1	282530	52.11	0
1	283076	52.21	0
1	283622	52.31	0
1	284168	52.41	0
1	284714	52.51	0
1	285260	52.61	0
1	285806	52.71	0
1	286352	52.81	0
1	286898	52.91	0
1	287452	53.01	0
1	287998	53.11	0
1	288544	53.21	0
1	289090	53.31	0
1	289636	53.41	0
1	290182	53.51	0
1	290728	53.61	0
1	291274	53.71	0
1	291820	53.81	0
1	292366	53.91	0
1	292920	54.01	0
1	293466	54.11	0
1	294012	54.21	0
1	294558	54.31	0
1	295104	54.41	0
1	295650	54.51	0
1	296196	54.61	0
1	296742	54.71	0
1	297288	54.81	0
1	297834	54.91	0
1	298388	55.01	0
1	298934	55.11	0
1	299480	55.21	0
1	300026	55.31	0
1	300572	55.41	0
1	301118	55.51	0
1	301664	55.61	0
1	302210	55.71	0
1	302756	55.81	0
1	303302	55.91	0
1	303856	56.01	0
1	304402	56.11	0
1	304948	56.21	0
1	305494	56.31	0
1	306040	56.41	0
1	306586	56.51	0
1	307132	56.61	0
1	307678	56.71	0
1	308224	56.81	0
1	308770	56.91	0
1	309324	57.01	0
1	309870	57.11	0
1	310416	57.21	0
1	310962	57.31	0
1	311508	57.41	0
1	312054	57.51	0
1	312600	57.61	0
1	313146	57.71	0
1	313692	57.81	0
1	314238	57.91	0
1	314792	58.01	0
1	315338	58.11	0
1	315884	58.21	0
1	316430	58.31	0
1	316976	58.41	0
1	317522	58.51	0
1	318068	58.61	0
1	318614	58.71	0
1	319160	58.81	0
1	319706	58.91	0
1	320260	59.01	0
1	320806	59.11	0
1	321352	59.21	0
1	321898	59.31	0
1	322444	59.41	0
1	322990	59.51	0
1	323536	59.61	0
1	324082	59.71	0
1	324628	59.81	0
1	325174	59.91	0
1	325728	60.01	0
1	326274	60.11	0
1	326820	60.21	0
1	327366	60.31	0
1	327912	60.41	0
1	328458	60.51	0
1	329004	60.61	0
1	329550	60.71	0
1	330096	60.81	0
1	330642	60.91	0
1	331196	61.01	0
1	331742	61.11	0
1	332288	61.21	0
1	332834	61.31	0
1	333380	61.41	0
1	333926	61.51	0
1	334472	61.61	0
1	335018	61.71	0
1	335564	61.81	0
1	336110	61.91	0
1	336664	62.01	0
1	337210	62.11	0
1	337756	62.21	0
1	338302	62.31	0
1	338848	62.41	0
1	339394	62.51	0
1	339940	62.61	0
1	340486	62.71	0
1	341032	62.81	0
1	341578	62.91	0
1	342132	63.01	0
1	342678	63.11	0
1	343224	63.21	0
1	343770	63.31	0
1	344316	63.41	0
1	344862	63.51	0
1	345408	63.61	0
1	345954	63.71	0
1	346500	63.81	0
1	347046	63.91	0
1	347600	64.01	0
1	348146	64.11	0
1	348692	64.21	0
1	349238	64.31	0
1	349784	64.41	0
1	350330	64.51	0
1	350876	64.61	0
1	351422	64.71	0
1	351968	64.81	0
1	352514	64.91	0
1	353068	65.01	0
1	353614	65.11	0
1	354160	65.21	0
1	354706	65.31	0
1	355252	65.41	0
1	355798	65.51	0
1	356344	65.61	0
1	356890	65.71	0
1	357436	65.81	0
1	357982	65.91	0
1	358536	66.01	0
1	359082	66.11	0
1	359628	66.21	0
1	360174	66.31	0
1	360720	66.41	0
1	361266	66.51	0
1	361812	66.61	0
1	362358	66.71	0
1	362904	66.81	0
1	363450	66.91	0
1	364004	67.01	0
1	364550	67.11	0
1	365096	67.21	0
1	365642	67.31	0
1	366188	67.41	0
1	366734	67.51	0
1	367280	67.61	0
1	367826	67.71	0
1	368372	67.81	0
1	368918	67.91	0
1	369472	68.01	0
1	370018	68.11	0
1	370564	68.21	0
1	371110	68.31	0
1	371656	68.41	0
1	372202	68.51	0
1	372748	68.61	0
1	373294	68.71	0
1	373840	68.81	0
1	374386	68.91	0
1	374940	69.01	0
1	375486	69.11	0
1	376032	69.21	0
1	376578	69.31	0
1	377124	69.41	0
1	377670	69.51	0
1	378216	69.61	0
1	378762	69.71	0
1	379308	69.81	0
1	379854	69.91	0
1	380408	70.01	0
1	380954	70.11	0
1	381500	70.21	0
1	382046	70.31	0
1	382592	70.41	0
1	383138	70.51	0
1	383684	70.61	0
1	384230	70.71	0
1	384776	70.81	0
1	385322	70.91	0
1	385876	71.01	0
1	386422	71.11	0
1	386968	71.21	0
1	387514	71.31	0
1	388060	71.41	0
1	388606	71.51	0
1	389152	71.61	0
1	389698	71.71	0
1	390244	71.81	0
1	390790	71.91	0
1	391344	72.01	0
1	391890	72.11	0
1	392436	72.21	0
1	392982	72.31	0
1	393528	72.41	0
1	394074	72.51	0
1	394620	72.61	0
1	395166	72.71	0
1	395712	72.81	0
1	396258	72.91	0
1	396812	73.01	0
1	397358	73.11	0
1	397904	73.21	0
1	398450	73.31	0
1	398996	73.41	0
1	399542	73.51	0
1	400088	73.61	0
1	400634	73.71	0
1	401180	73.81	0
1	401726	73.91	0
1	402280	74.01	0
1	402826	74.11	0
1	403372	74.21	0
1	403918	74.31	0
1	404464	74.41	0
1	405010	74.51	0
1	405556	74.61	0
1	406102	74.71	0
1	406648	74.81	0
1	407194	74.91	0
1	407748	75.01	0
1	408294	75.11	0
1	408840	75.21	0
1	409386	75.31	0
1	409932	75.41	0
1	410478	75.51	0
1	411024	75.61	0
1	411570	75.71	0
1	412116	75.81	0
1	412662	75.91	0
1	413216	76.01	0
1	413762	76.11	0
1	414308	76.21	0
1	414854	76.31	0
1	415400	76.41	0
1	415946	76.51	0
1	416492	76.61	0
1	417038	76.71	0
1	417584	76.81	0
1	418130	76.91	0
1	418684	77.01	0
1	419230	77.11	0
1	419776	77.21	0
1	420322	77.31	0
1	420868	77.41	0
1	421414	77.51	0
1	421960	77.61	0
1	422506	77.71	0
1	423052	77.81	0
1	423598	77.91	0
1	424152	78.01	0
1	424698	78.11	0
1	425244	78.21	0
1	425790	78.31	0
1	426336	78.41	0
1	426882	78.51	0
1	427428	78.61	0
1	427974	78.71	0
1	428520	78.81	0
1	429066	78.91	0
1	429620	79.01	0
1	430166	79.11	0
1	430712	79.21	0
1	431258	79.31	0
1	431804	79.41	0
1	432350	79.51	0
1	432896	79.61	0
1	433442	79.71	0
1	433988	79.81	0
1	434534	79.91	0
1	435088	80.01	0
1	435634	80.11	0
1	436180	80.21	0
1	436726	80.31	0
1	437272	80.41	0
1	437818	80.51	0
1	438364	80.61	0
1	438910	80.71	0
1	439456	80.81	0
1	440002	80.91	0
1	440556	81.01	0
1	441102	81.11	0
1	441648	81.21	0
1	442194	81.31	0
1	442740	81.41	0
1	443286	81.51	0
1	443832	81.61	0
1	444378	81.71	0
1	444924	81.81	0
1	445470	81.91	0
1	446024	82.01	0
1	446570	82.11	0
1	447116	82.21	0
1	447662	82.31	0
1	448208	82.41	0
1	448754	82.51	0
1	449300	82.61	0
1	449846	82.71	0
1	450392	82.81	0
1	450938	82.91	0
1	451492	83.01	0
1	452038	83.11	0
1	452584	83.21	0
1	453130	83.31	0
1	453676	83.41	0
1	454222	83.51	0
1	454768	83.61	0
1	455314	83.71	0
1	455860	83.81	0
1	456406	83.91	0
1	456960	84.01	0
1	457506	84.11	0
1	458052	84.21	0
1	458598	84.31	0
1	459144	84.41	0
1	459690	84.51	0
1	460236	84.61	0
1	460782	84.71	0
1	461328	84.81	0
1	461874	84.91	0
1	462428	85.01	0
1	462974	85.11	0
1	463520	85.21	0
1	464066	85.31	0
1	464612	85.41	0
1	465158	85.51	0
1	465704	85.61	0
1	466250	85.71	0
1	466796	85.81	0
1	467342	85.91	0
1	467896	86.01	0
1	468442	86.11	0
1	468988	86.21	0
1	469534	86.31	0
1	470080	86.41	0
1	470626	86.51	0
1	471172	86.61	0
1	471718	86.71	0
1	472264	86.81	0
1	472810	86.91	0
1	473364	87.01	0
1	473910	87.11	0
1	474456	87.21	0
1	475002	87.31	0
1	475548	87.41	0
1	476094	87.51	0
1	476640	87.61	0
1	477186	87.71	0
1	477732	87.81	0
1	478278	87.91	0
1	478832	88.01	0
1	479378	88.11	0
1	479924	88.21	0
1	480470	88.31	0
1	481016	88.41	0
1	481562	88.51	0
1	482108	88.61	0
1	482654	88.71	0
1	483200	88.81	0
1	483746	88.91	0
1	484300	89.01	0
1	484846	89.11	0
1	485392	89.21	0
1	485938	89.31	0
1	486484	89.41	0
1	487030	89.51	0
1	487576	89.61	0
1	488122	89.71	0
1	488668	89.81	0
1	489214	89.91	0
1	489768	90.01	0
1	490314	90.11	0
1	490860	90.21	0
1	491406	90.31	0
1	491952	90.41	0
1	492498	90.51	0
1	493044	90.61	0
1	493590	90.71	0
1	494136	90.81	0
1	494682	90.91	0
1	495236	91.01	0
1	495782	91.11	0
1	496328	91.21	0
1	496874	91.31	0
1	497420	91.41	0
1	497966	91.51	0
1	498512	91.61	0
1	499058	91.71	0
1	499604	91.81	0
1	500150	91.91	0
1	500704	92.01	0
1	501250	92.11	0
1	501796	92.21	0
1	502342	92.31	0
1	502888	92.41	0
1	503434	92.51	0
1	503980	92.61	0
1	504526	92.71	0
1	505072	92.81	0
1	505618	92.91	0
1	506172	93.01	0
1	506718	93.11	0
1	507264	93.21	0
1	507810	93.31	0
1	508356	93.41	0
1	508902	93.51	0
1	509448	93.61	0
1	509994	93.71	0
1	510540	93.81	0
1	511086	93.91	0
1	511640	94.01	0
1	512186	94.11	0
1	512732	94.21	0
1	513278	94.31	0
1	513824	94.41	0
1	514370	94.51	0
1	514916	94.61	0
1	515462	94.71	0
1	516008	94.81	0
1	516554	94.91	0
1	517108	95.01	0
1	517654	95.11	0
1	518200	95.21	0
1	518746	95.31	0
1	519292	95.41	0
1	519838	95.51	0
1	520384	95.61	0
1	520930	95.71	0
1	521476	95.81	0
1	522022	95.91	0
1	522576	96.01	0
1	523122	96.11	0
1	523668	96.21	0
1	524214	96.31	0
1	524760	96.41	0
1	525306	96.51	0
1	525852	96.61	0
1	526398	96.71	0
1	526944	96.81	0
1	527490	96.91	0
1	528044	97.01	0
1	528590	97.11	0
1	529136	97.21	0
1	529682	97.31	0
1	530228	97.41	0
1	530774	97.51	0
1	531320	97.61	0
1	531866	97.71	0
1	532412	97.81	0
1	532958	97.91	0
1	533512	98.01	0
1	534058	98.11	0
1	534604	98.21	0
1	535150	98.31	0
1	535696	98.41	0
1	536242	98.51	0
1	536788	98.61	0
1	537334	98.71	0
1	537880	98.81	0
1	538426	98.91	0
1	538980	99.01	0
1	539526	99.11	0
1	540072	99.21	0
1	540618	99.31	0
1	541164	99.41	0
1	541710	99.51	0
1	542256	99.61	0
1	542802	99.71	0
1	543348	99.81	0
1	543894	99.91	0
2	113	1.11	0
2	659	1.21	0
2	1205	1.31	0
2	1751	1.41	0
2	2297	1.51	0
2	2843	1.61	0
2	3389	1.71	0
2	3935	1.81	0
2	4481	1.91	0
2	5035	2.01	0
2	5581	2.11	0
2	6127	2.21	0
2	6673	2.31	0
2	7219	2.41	0
2	7765	2.51	0
2	8311	2.61	0
2	8857	2.71	0
2	9403	2.81	0
2	9949	2.91	0
2	10503	3.01	0
2	11049	3.11	0
2	11595	3.21	0
2	12141	3.31	0
2	12687	3.41	0
2	13233	3.51	0
2	13779	3.61	0
2	14325	3.71	0
2	14871	3.81	0
2	15417	3.91	0
2	15971	4.01	0
2	16517	4.11	0
2	17063	4.21	0
2	17609	4.31	0
2	18155	4.41	0
2	18701	4.51	0
2	19247	4.61	0
2	19793	4.71	0
2	20339	4.81	0
2	20885	4.91	0
2	21439	5.01	0
2	21985	5.11	0
2	22531	5.21	0
2	23077	5.31	0
2	23623	5.41	0
2	24169	5.51	0
2	24715	5.61	0
2	25261	5.71	0
2	25807	5.81	0
2	26353	5.91	0
2	26907	6.01	0
2	27453	6.11	0
2	27999	6.21	0
2	28545	6.31	0
2	29091	6.41	0
2	29637	6.51	0
2	30183	6.61	0
2	30729	6.71	0
2	31275	6.81	0
2	31821	6.91	0
2	32375	7.01	0
2	32921	7.11	0
2	33467	7.21	0
2	34013	7.31	0
2	34559	7.41	0
2	35105	7.51	0
2	35651	7.61	0
2	36197	7.71	0
2	36743	7.81	0
2	37289	7.91	0
2	37843	8.01	0
2	38389	8.11	0
2	38935	8.21	0
2	39481	8.31	0
2	40027	8.41	0
2	40573	8.51	0
2	41119	8.61	0
2	41665	8.71	0
2	42211	8.81	0
2	42757	8.91	0
2	43311	9.01	0
2	43857	9.11	0
2	44403	9.21	0
2	44949	9.31	0
2	45495	9.41	0
2	46041	9.51	0
2	46587	9.61	0
2	47133	9.71	0
2	47679	9.81	0
2	48225	9.91	0
2	48853	10.01	0
2	49406	10.11	0
2	49959	10.21	0
2	50512	10.31	0
2	51065	10.41	0
2	51618	10.51	0
2	52171	10.61	0
2	52724	10.71	0
2	53277	10.81	0
2	53830	10.91	0
2	54391	11.01	0
2	54944	11.11	0
2	55497	11.21	0
2	56050	11.31	0
2	56603	11.41	0
2	57156	11.51	0
2	57709	11.61	0
2	58262	11.71	0
2	58815	11.81	0
2	59368	11.91	0
2	59929	12.01	0
2	60482	12.11	0
2	61035	12.21	0
2	61588	12.31	0
2	62141	12.41	0
2	62694	12.51	0
2	63247	12.61	0
2	63800	12.71	0
2	64353	12.81	0
2	64906	12.91	0
2	65467	13.01	0
2	66020	13.11	0
2	66573	13.21	0
2	67126	13.31	0
2	67679	13.41	0
2	68232	13.51	0
2	68785	13.61	0
2	69338	13.71	0
2	69891	13.81	0
2	70444	13.91	0
2	71005	14.01	0
2	71558	14.11	0
2	72111	14.21	0
2	72664	14.31	0
2	73217	14.41	0
2	73770	14.51	0
2	74323	14.61	0
2	74876	14.71	0
2	75429	14.81	0
2	75982	14.91	0
2	76543	15.01	0
2	77096	15.11	0
2	77649	15.21	0
2	78202	15.31	0
2	78755	15.41	0
2	79308	15.51	0
2	79861	15.61	0
2	80414	15.71	0
2	80967	15.81	0
2	81520	15.91	0
2	82081	16.01	0
2	82634	16.11	0
2	83187	16.21	0
2	83740	16.31	0
2	84293	16.41	0
2	84846	16.51	0
2	85399	16.61	0
2	85952	16.71	0
2	86505	16.81	0
2	87058	16.91	0
2	87619	17.01	0
2	88172	17.11	0
2	88725	17.21	0
2	89278	17.31	0
2	89831	17.41	0
2	90384	17.51	0
2	90937	17.61	0
2	91490	17.71	0
2	92043	17.81	0
2	92596	17.91	0
2	93157	18.01	0
2	93710	18.11	0
2	94263	18.21	0
2	94816	18.31	0
2	95369	18.41	0
2	95922	18.51	0
2	96475	18.61	0
2	97028	18.71	0
2	97581	18.81	0
2	98134	18.91	0
2	98695	19.01	0
2	99248	19.11	0
2	99801	19.21	0
2	100354	19.31	0
2	100907	19.41	0
2	101460	19.51	0
2	102013	19.61	0
2	102566	19.71	0
2	103119	19.81	0
2	103672	19.91	0
2	104233	20.01	0
2	104786	20.11	0
2	105339	20.21	0
2	105892	20.31	0
2	106445	20.41	0
2	106998	20.51	0
2	107551	20.61	0
2	108104	20.71	0
2	108657	20.81	0
2	109210	20.91	0
2	109771	21.01	0
2	110324	21.11	0
2	110877	21.21	0
2	111430	21.31	0
2	111983	21.41	0
2	112536	21.51	0
2	113089	21.61	0
2	113642	21.71	0
2	114195	21.81	0
2	114748	21.91	0
2	115309	22.01	0
2	115862	22.11	0
2	116415	22.21	0
2	116968	22.31	0
2	117521	22.41	0
2	118074	22.51	0
2	118627	22.61	0
2	119180	22.71	0
2	119733	22.81	0
2	120286	22.91	0
2	120847	23.01	0
2	121400	23.11	0
2	121953	23.21	0
2	122506	23.31	0
2	123059	23.41	0
2	123612	23.51	0
2	124165	23.61	0
2	124718	23.71	0
2	125271	23.81	0
2	125824	23.91	0
2	126385	24.01	0
2	126938	24.11	0
2	127491	24.21	0
2	128044	24.31	0
2	128597	24.41	0
2	129150	24.51	0
2	129703	24.61	0
2	130256	24.71	0
2	130809	24.81	0
2	131362	24.91	0
2	131923	25.01	0
2	132476	25.11	0
2	133029	25.21	0
2	133582	25.31	0
2	134135	25.41	0
2	134688	25.51	0
2	135241	25.61	0
2	135794	25.71	0
2	136347	25.81	0
2	136900	25.91	0
2	137461	26.01	0
2	138014	26.11	0
2	138567	26.21	0
2	139120	26.31	0
2	139673	26.41	0
2	140226	26.51	0
2	140779	26.61	0
2	141332	26.71	0
2	141885	26.81	0
2	142438	26.91	0
2	142999	27.01	0
2	143552	27.11	0
2	144105	27.21	0
2	144658	27.31	0
2	145211	27.41	0
2	145764	27.51	0
2	146317	27.61	0
2	146870	27.71	0
2	147423	27.81	0
2	147976	27.91	0
2	148537	28.01	0
2	149090	28.11	0
2	149643	28.21	0
2	150196	28.31	0
2	150749	28.41	0
2	151302	28.51	0
2	151855	28.61	0
2	152408	28.71	0
2	152961	28.81	0
2	153514	28.91	0
2	154075	29.01	0
2	154628	29.11	0
2	155181	29.21	0
2	155827	29.31	0
2	156379	29.41	0
2	156931	29.51	0
2	157483	29.61	0
2	158035	29.71	0
2	158587	29.81	0
2	159139	29.91	0
2	159699	30.01	0
2	160251	30.11	0
2	160803	30.21	0
2	161355	30.31	0
2	161907	30.41	0
2	162459	30.51	0
2	163011	30.61	0
2	163563	30.71	0
2	164115	30.81	0
2	164667	30.91	0
2	165227	31.01	0
2	165779	31.11	0
2	166331	31.21	0
2	166883	31.31	0
2	167435	31.41	0
2	167987	31.51	0
2	168539	31.61	0
2	169091	31.71	0
2	169643	31.81	0
2	170195	31.91	0
2	170755	32.01	0
2	171307	32.11	0
2	171859	32.21	0
2	172411	32.31	0
2	172963	32.41	0
2	173515	32.51	0
2	174067	32.61	0
2	174619	32.71	0
2	175171	32.81	0
2	175723	32.91	0
2	176283	33.01	0
2	176835	33.11	0
2	177387	33.21	0
2	177939	33.31	0
2	178491	33.41	0
2	179136	33.51	0
2	179687	33.61	0
2	180238	33.71	0
2	180789	33.81	0
2	181340	33.91	0
2	181899	34.01	0
2	182450	34.11	0
2	183001	34.21	0
2	183552	34.31	0
2	184103	34.41	0
2	184654	34.51	0
2	185205	34.61	0
2	185756	34.71	0
2	186307	34.81	0
2	186858	34.91	0
2	187417	35.01	0
2	187968	35.11	0
2	188519	35.21	0
2	189070	35.31	0
2	189621	35.41	0
2	190172	35.51	0
2	190723	35.61	0
2	191274	35.71	0
2	191825	35.81	0
2	192376	35.91	0
2	192935	36.01	0
2	193486	36.11	0
2	194037	36.21	0
2	194588	36.31	0
2	195139	36.41	0
2	195690	36.51	0
2	196241	36.61	0
2	196792	36.71	0
2	197343	36.81	0
2	197894	36.91	0
2	198453	37.01	0
2	199004	37.11	0
2	199555	37.21	0
2	200106	37.31	0
2	200657	37.41	0
2	201301	37.51	0
2	201851	37.61	0
2	202401	37.71	0
2	202951	37.81	0
2	203501	37.91	0
2	204059	38.01	0
2	204609	38.11	0
2	205159	38.21	0
2	205709	38.31	0
2	206259	38.41	0
2	206809	38.51	0
2	207359	38.61	0
2	207909	38.71	0
2	208459	38.81	0
2	209009	38.91	0
2	209567	39.01	0
2	210117	39.11	0
2	210667	39.21	0
2	211217	39.31	0
2	211767	39.41	0
2	212317	39.51	0
2	212867	39.61	0
2	213417	39.71	0
2	213967	39.81	0
2	214517	39.91	0
2	215075	40.01	0
2	215625	40.11	0
2	216175	40.21	0
2	216725	40.31	0
2	217275	40.41	0
2	217825	40.51	0
2	218375	40.61	0
2	218925	40.71	0
2	219475	40.81	0
2	220025	40.91	0
2	220583	41.01	0
2	221133	41.11	0
2	221683	41.21	0
2	222326	41.31	0
2	222875	41.41	0
2	223424	41.51	0
2	223973	41.61	0
2	224522	41.71	0
2	225071	41.81	0
2	225620	41.91	0
2	226177	42.01	0
2	226726	42.11	0
2	227275	42.21	0
2	227824	42.31	0
2	228373	42.41	0
2	228922	42.51	0
2	229471	42.61	0
2	230020	42.71	0
2	230569	42.81	0
2	231118	42.91	0
2	231675	43.01	0
2	232224	43.11	0
2	232773	43.21	0
2	233322	43.31	0
2	233871	43.41	0
2	234420	43.51	0
2	234969	43.61	0
2	235518	43.71	0
2	236067	43.81	0
2	236616	43.91	0
2	237173	44.01	0
2	237722	44.11	0
2	238271	44.21	0
2	238820	44.31	0
2	239369	44.41	0
2	239918	44.51	0
2	240467	44.61	0
2	241016	44.71	0
2	241565	44.81	0
2	242114	44.91	0
2	242764	45.01	0
2	243312	45.11	0
2	243860	45.21	0
2	244408	45.31	0
2	244956	45.41	0
2	245504	45.51	0
2	246052	45.61	0
2	246600	45.71	0
2	247148	45.81	0
2	247696	45.91	0
2	248252	46.01	0
2	248800	46.11	0
2	249348	46.21	0
2	249896	46.31	0
2	250444	46.41	0
2	250992	46.51	0
2	251540	46.61	0
2	252088	46.71	0
2	252636	46.81	0
2	253184	46.91	0
2	253740	47.01	0
2	254288	47.11	0
2	254836	47.21	0
2	255384	47.31	0
2	255932	47.41	0
2	256480	47.51	0
2	257028	47.61	0
2	257576	47.71	0
2	258124	47.81	0
2	258672	47.91	0
2	259228	48.01	0
2	259776	48.11	0
2	260324	48.21	0
2	260872	48.31	0
2	261420	48.41	0
2	261968	48.51	0
2	262609	48.61	0
2	263156	48.71	0
2	263703	48.81	0
2	264250	48.91	0
2	264805	49.01	0
2	265352	49.11	0
2	265899	49.21	0
2	266446	49.31	0
2	266993	49.41	0
2	267540	49.51	0
2	268087	49.61	0
2	268634	49.71	0
2	269181	49.81	0
2	269728	49.91	0
2	270283	50.01	0
2	270830	50.11	0
2	271377	50.21	0
2	271924	50.31	0
2	272471	50.41	0
2	273018	50.51	0
2	273565	50.61	0
2	274112	50.71	0
2	274659	50.81	0
2	275206	50.91	0
2	275761	51.01	0
2	276308	51.11	0
2	276855	51.21	0
2	277402	51.31	0
2	277949	51.41	0
2	278496	51.51	0
2	279043	51.61	0
2	279590	51.71	0
2	280137	51.81	0
2	280684	51.91	0
2	281239	52.01	0
2	282530	52.11	0
2	283076	52.21	0
2	283622	52.31	0
2	284168	52.41	0
2	284714	52.51	0
2	285260	52.61	0
2	285806	52.71	0
2	286352	52.81	0
2	286898	52.91	0
2	287452	53.01	0
2	287998	53.11	0
2	288544	53.21	0
2	289090	53.31	0
2	289636	53.41	0
2	290182	53.51	0
2	290728	53.61	0
2	291274	53.71	0
2	291820	53.81	0
2	292366	53.91	0
2	292920	54.01	0
2	293466	54.11	0
2	294012	54.21	0
2	294558	54.31	0
2	295104	54.41	0
2	295650	54.51	0
2	296196	54.61	0
2	296742	54.71	0
2	297288	54.81	0
2	297834	54.91	0
2	298388	55.01	0
2	298934	55.11	0
2	299480	55.21	0
2	300026	55.31	0
2	300572	55.41	0
2	301118	55.51	0
2	301664	55.61	0
2	302210	55.71	0
2	302756	55.81	0
2	303302	55.91	0
2	303856	56.01	0
2	304402	56.11	0
2	304948	56.21	0
2	305494	56.31	0
2	306040	56.41	0
2	306586	56.51	0
2	307132	56.61	0
2	307678	56.71	0
2	308224	56.81	0
2	308770	56.91	0
2	309324	57.01	0
2	309870	57.11	0
2	310416	57.21	0
2	310962	57.31	0
2	311508	57.41	0
2	312054	57.51	0
2	312600	57.61	0
2	313146	57.71	0
2	313692	57.81	0
2	314238	57.91	0
2	314792	58.01	0
2	315338	58.11	0
2	315884	58.21	0
2	316430	58.31	0
2	316976	58.41	0
2	317522	58.51	0
2	318068	58.61	0
2	318614	58.71	0
2	319160	58.81	0
2	319706	58.91	0
2	320260	59.01	0
2	320806	59.11	0
2	321352	59.21	0
2	321898	59.31	0
2	322444	59.41	0
2	322990	59.51	0
2	323536	59.61	0
2	324082	59.71	0
2	324628	59.81	0
2	325174	59.91	0
2	325728	60.01	0
2	326274	60.11	0
2	326820	60.21	0
2	327366	60.31	0
2	327912	60.41	0
2	328458	60.51	0
2	329004	60.61	0
2	329550	60.71	0
2	330096	60.81	0
2	330642	60.91	0
2	331196	61.01	0
2	331742	61.11	0
2	332288	61.21	0
2	332834	61.31	0
2	333380	61.41	0
2	333926	61.51	0
2	334472	61.61	0
2	335018	61.71	0
2	335564	61.81	0
2	336110	61.91	0
2	336664	62.01	0
2	337210	62.11	0
2	337756	62.21	0
2	338302	62.31	0
2	338848	62.41	0
2	339394	62.51	0
2	339940	62.61	0
2	340486	62.71	0
2	341032	62.81	0
2	341578	62.91	0
2	342132	63.01	0
2	342678	63.11	0
2	343224	63.21	0
2	343770	63.31	0
2	344316	63.41	0
2	344862	63.51	0
2	345408	63.61	0
2	345954	63.71	0
2	346500	63.81	0
2	347046	63.91	0
2	347600	64.01	0
2	348146	64.11	0
2	348692	64.21	0
2	349238	64.31	0
2	349784	64.41	0
2	350330	64.51	0
2	350876	64.61	0
2	351422	64.71	0
2	351968	64.81	0
2	352514	64.91	0
2	353068	65.01	0
2	353614	65.11	0
2	354160	65.21	0
2	354706	65.31	0
2	355252	65.41	0
2	355798	65.51	0
2	356344	65.61	0
2	356890	65.71	0
2	357436	65.81	0
2	357982	65.91	0
2	358536	66.01	0
2	359082	66.11	0
2	359628	66.21	0
2	360174	66.31	0
2	360720	66.41	0
2	361266	66.51	0
2	361812	66.61	0
2	362358	66.71	0
2	362904	66.81	0
2	363450	66.91	0
2	364004	67.01	0
2	364550	67.11	0
2	365096	67.21	0
2	365642	67.31	0
2	366188	67.41	0
2	366734	67.51	0
2	367280	67.61	0
2	367826	67.71	0
2	368372	67.81	0
2	368918	67.91	0
2	369472	68.01	0
2	370018	68.11	0
2	370564	68.21	0
2	371110	68.31	0
2	371656	68.41	0
2	372202	68.51	0
2	372748	68.61	0
2	373294	68.71	0
2	373840	68.81	0
2	374386	68.91	0
2	374940	69.01	0
2	375486	69.11	0
2	376032	69.21	0
2	376578	69.31	0
2	377124	69.41	0
2	377670	69.51	0
2	378216	69.61	0
2	378762	69.71	0
2	379308	69.81	0
2	379854	69.91	0
2	380408	70.01	0
2	380954	70.11	0
2	381500	70.21	0
2	382046	70.31	0
2	382592	70.41	0
2	383138	70.51	0
2	383684	70.61	0
2	384230	70.71	0
2	384776	70.81	0
2	385322	70.91	0
2	385876	71.01	0
2	386422	71.11	0
2	386968	71.21	0
2	387514	71.31	0
2	388060	71.41	0
2	388606	71.51	0
2	389152	71.61	0
2	389698	71.71	0
2	390244	71.81	0
2	390790	71.91	0
2	391344	72.01	0
2	391890	72.11	0
2	392436	72.21	0
2	392982	72.31	0
2	393528	72.41	0
2	394074	72.51	0
2	394620	72.61	0
2	395166	72.71	0
2	395712	72.81	0
2	396258	72.91	0
2	396812	73.01	0
2	397358	73.11	0
2	397904	73.21	0
2	398450	73.31	0
2	398996	73.41	0
2	399542	73.51	0
2	400088	73.61	0
2	400634	73.71	0
2	401180	73.81	0
2	401726	73.91	0
2	402280	74.01	0
2	402826	74.11	0
2	403372	74.21	0
2	403918	74.31	0
2	404464	74.41	0
2	405010	74.51	0
2	405556	74.61	0
2	406102	74.71	0
2	406648	74.81	0
2	407194	74.91	0
2	407748	75.01	0
2	408294	75.11	0
2	408840	75.21	0
2	409386	75.31	0
2	409932	75.41	0
2	410478	75.51	0
2	411024	75.61	0
2	411570	75.71	0
2	412116	75.81	0
2	412662	75.91	0
2	413216	76.01	0
2	413762	76.11	0
2	414308	76.21	0
2	414854	76.31	0
2	415400	76.41	0
2	415946	76.51	0
2	416492	76.61	0
2	417038	76.71	0
2	417584	76.81	0
2	418130	76.91	0
2	418684	77.01	0
2	419230	77.11	0
2	419776	77.21	0
2	420322	77.31	0
2	420868	77.41	0
2	421414	77.51	0
2	421960	77.61	0
2	422506	77.71	0
2	423052	77.81	0
2	423598	77.91	0
2	424152	78.01	0
2	424698	78.11	0
2	425244	78.21	0
2	425790	78.31	0
2	426336	78.41	0
2	426882	78.51	0
2	427428	78.61	0
2	427974	78.71	0
2	428520	78.81	0
2	429066	78.91	0
2	429620	79.01	0
2	430166	79.11	0
2	430712	79.21	0
2	431258	79.31	0
2	431804	79.41	0
2	432350	79.51	0
2	432896	79.61	0
2	433442	79.71	0
2	433988	79.81	0
2	434534	79.91	0
2	435088	80.01	0
2	435634	80.11	0
2	436180	80.21	0
2	436726	80.31	0
2	437272	80.41	0
2	437818	80.51	0
2	438364	80.61	0
2	438910	80.71	0
2	439456	80.81	0
2	440002	80.91	0
2	440556	81.01	0
2	441102	81.11	0
2	441648	81.21	0
2	442194	81.31	0
2	442740	81.41	0
2	443286	81.51	0
2	443832	81.61	0
2	444378	81.71	0
2	444924	81.81	0
2	445470	81.91	0
2	446024	82.01	0
2	446570	82.11	0
2	447116	82.21	0
2	447662	82.31	0
2	448208	82.41	0
2	448754	82.51	0
2	449300	82.61	0
2	449846	82.71	0
2	450392	82.81	0
2	450938	82.91	0
2	451492	83.01	0
2	452038	83.11	0
2	452584	83.21	0
2	453130	83.31	0
2	453676	83.41	0
2	454222	83.51	0
2	454768	83.61	0
2	455314	83.71	0
2	455860	83.81	0
2	456406	83.91	0
2	456960	84.01	0
2	457506	84.11	0
2	458052	84.21	0
2	458598	84.31	0
2	459144	84.41	0
2	459690	84.51	0
2	460236	84.61	0
2	460782	84.71	0
2	461328	84.81	0
2	461874	84.91	0
2	462428	85.01	0
2	462974	85.11	0
2	463520	85.21	0
2	464066	85.31	0
2	464612	85.41	0
2	465158	85.51	0
2	465704	85.61	0
2	466250	85.71	0
2	466796	85.81	0
2	467342	85.91	0
2	467896	86.01	0
2	468442	86.11	0
2	468988	86.21	0
2	469534	86.31	0
2	470080	86.41	0
2	470626	86.51	0
2	471172	86.61	0
2	471718	86.71	0
2	472264	86.81	0
2	472810	86.91	0
2	473364	87.01	0
2	473910	87.11	0
2	474456	87.21	0
2	475002	87.31	0
2	475548	87.41	0
2	476094	87.51	0
2	476640	87.61	0
2	477186	87.71	0
2	477732	87.81	0
2	478278	87.91	0
2	478832	88.01	0
2	479378	88.11	0
2	479924	88.21	0
2	480470	88.31	0
2	481016	88.41	0
2	481562	88.51	0
2	482108	88.61	0
2	482654	88.71	0
2	483200	88.81	0
2	483746	88.91	0
2	484300	89.01	0
2	484846	89.11	0
2	485392	89.21	0
2	485938	89.31	0
2	486484	89.41	0
2	487030	89.51	0
2	487576	89.61	0
2	488122	89.71	0
2	488668	89.81	0
2	489214	89.91	0
2	489768	90.01	0
2	490314	90.11	0
2	490860	90.21	0
2	491406	90.31	0
2	491952	90.41	0
2	492498	90.51	0
2	493044	90.61	0
2	493590	90.71	0
2	494136	90.81	0
2	494682	90.91	0
2	495236	91.01	0
2	495782	91.11	0
2	496328	91.21	0
2	496874	91.31	0
2	497420	91.41	0
2	497966	91.51	0
2	498512	91.61	0
2	499058	91.71	0
2	499604	91.81	0
2	500150	91.91	0
2	500704	92.01	0
2	501250	92.11	0
2	501796	92.21	0
2	502342	92.31	0
2	502888	92.41	0
2	503434	92.51	0
2	503980	92.61	0
2	504526	92.71	0
2	505072	92.81	0
2	505618	92.91	0
2	506172	93.01	0
2	506718	93.11	0
2	507264	93.21	0
2	507810	93.31	0
2	508356	93.41	0
2	508902	93.51	0
2	509448	93.61	0
2	509994	93.71	0
2	510540	93.81	0
2	511086	93.91	0
2	511640	94.01	0
2	512186	94.11	0
2	512732	94.21	0
2	513278	94.31	0
2	513824	94.41	0
2	514370	94.51	0
2	514916	94.61	0
2	515462	94.71	0
2	516008	94.81	0
2	516554	94.91	0
2	517108	95.01	0
2	517654	95.11	0
2	518200	95.21	0
2	518746	95.31	0
2	519292	95.41	0
2	519838	95.51	0
2	520384	95.61	0
2	520930	95.71	0
2	521476	95.81	0
2	522022	95.91	0
2	522576	96.01	0
2	523122	96.11	0
2	523668	96.21	0
2	524214	96.31	0
2	524760	96.41	0
2	525306	96.51	0
2	525852	96.61	0
2	526398	96.71	0
2	526944	96.81	0
2	527490	96.91	0
2	528044	97.01	0
2	528590	97.11	0
2	529136	97.21	0
2	529682	97.31	0
2	530228	97.41	0
2	530774	97.51	0
2	531320	97.61	0
2	531866	97.71	0
2	532412	97.81	0
2	532958	97.91	0
2	533512	98.01	0
2	534058	98.11	0
2	534604	98.21	0
2	535150	98.31	0
2	535696	98.41	0
2	536242	98.51	0
2	536788	98.61	0
2	537334	98.71	0
2	537880	98.81	0
2	538426	98.91	0
2	538980	99.01	0
2	539526	99.11	0
2	540072	99.21	0
2	540618	99.31	0
2	541164	99.41	0
2	541710	99.51	0
2	542256	99.61	0
2	542802	99.71	0
2	543348	99.81	0
2	543894	99.91	0
3	113	1.11	0.000179096
3	659	1.21	0.000340852
3	1205	1.31	0.000467435
3	1751	1.41	0.000562893
3	2297	1.51	0.000631106
3	2843	1.61	0.000675745
3	3389	1.71	0.000700245
3	3935	1.81	0.000707784
3	4481	1.91	0.000701273
3	5035	2.01	0.000683354
3	5581	2.11	0.000656398
3	6127	2.21	0.000622512
3	6673	2.31	0.000583548
3	7219	2.41	0.000541117
3	7765	2.51	0.000496604
3	8311	2.61	0.000451181
3	8857	2.71	0.000405825
3	9403	2.81	0.00036134
3	9949	2.91	0.000318365
3	10503	3.01	0.0002774
3	11049	3.11	0.00023882
3	11595	3.21	0.000202887
3	12141	3.31	0.00016977
3	12687	3.41	0.000139558
3	13233	3.51	0.000112271
3	13779	3.61	8.78717e-05
3	14325	3.71	6.628e-05
3	14871	3.81	4.73785e-05
3	15417	3.91	3.1023e-05
3	15971	4.01	1.70493e-05
3	16517	4.11	5.28023e-06
3	17063	4.21	-4.46922e-06
3	17609	4.31	-1.2387e-05
3	18155	4.41	-1.86602e-05
3	18701	4.51	-2.34717e-05
3	19247	4.61	-2.69978e-05
3	19793	4.71	-2.94062e-05
3	20339	4.81	-3.08545e-05
3	20885	4.91	-3.14892e-05
3	21439	5.01	-3.14451e-05
3	21985	5.11	-3.0845e-05
3	22531	5.21	-2.97994e-05
3	23077	5.31	-2.84072e-05
3	23623	5.41	-2.67556e-05
3	24169	5.51	-2.49208e-05
3	24715	5.61	-2.29687e-05
3	25261	5.71	-2.09553e-05
3	25807	5.81	-1.89277e-05
3	26353	5.91	-1.6925e-05
3	26907	6.01	-1.49784e-05
3	27453	6.11	-1.31129e-05
3	27999	6.21	-1.13474e-05
3	28545	6.31	-9.69553e-06
3	29091	6.41	-8.16651e-06
3	29637	6.51	-6.76571e-06
3	30183	6.61	-5.49522e-06
3	30729	6.71	-4.35441e-06
3	31275	6.81	-3.34045e-06
3	31821	6.91	-2.44874e-06
3	32375	7.01	-1.6733e-06
3	32921	7.11	-1.00716e-06
3	33467	7.21	-4.42628e-07
3	34013	7.31	2.84224e-08
3	34559	7.41	4.14339e-07
3	35105	7.51	7.23492e-07
3	35651	7.61	9.6413e-07
3	36197	7.71	1.14424e-06
3	36743	7.81	1.27148e-06
3	37289	7.91	1.35305e-06
3	37843	8.01	1.3957e-06
3	38389	8.11	1.40565e-06
3	38935	8.21	1.3886e-06
3	39481	8.31	1.34971e-06
3	40027	8.41	1.2936e-06
3	40573	8.51	1.22437e-06
3	41119	8.61	1.14561e-06
3	41665	8.71	1.06046e-06
3	42211	8.81	9.71582e-07
3	42757	8.91	8.81246e-07
3	43311	9.01	7.91334e-07
3	43857	9.11	7.03381e-07
3	44403	9.21	6.18613e-07
3	44949	9.31	5.37979e-07
3	45495	9.41	4.62183e-07
3	46041	9.51	3.91714e-07
3	46587	9.61	3.26878e-07
3	47133	9.71	2.67827e-07
3	47679	9.81	2.14581e-07
3	48225	9.91	1.67052e-07
3	48853	10.01	1.25066e-07
3	49406	10.11	8.83794e-08
3	49959	10.21	5.66978e-08
3	50512	10.31	2.96922e-08
3	51065	10.41	7.00453e-09
3	51618	10.51	-1.17325e-08
3	52171	10.61	-2.68933e-08
3	52724	10.71	-3.88482e-08
3	53277	10.81	-4.79581e-08
3	53830	10.91	-5.45704e-08
3	54391	11.01	-5.90177e-08
3	54944	11.11	-6.16069e-08
3	55497	11.21	-6.26265e-08
3	56050	11.31	-6.23395e-08
3	56603	11.41	-6.09859e-08
3	57156	11.51	-5.87811e-08
3	57709	11.61	-5.59183e-08
3	58262	11.71	-5.25674e-08
3	58815	11.81	-4.88761e-08
3	59368	11.91	-4.4971e-08
3	59929	12.01	-4.09599e-08
3	60482	12.11	-3.69354e-08
3	61035	12.21	-3.29713e-08
3	61588	12.31	-2.9128e-08
3	62141	12.41	-2.54531e-08
3	62694	12.51	-2.19821e-08
3	63247	12.61	-1.87399e-08
3	63800	12.71	-1.57428e-08
3	64353	12.81	-1.30029e-08
3	64906	12.91	-1.05217e-08
3	65467	13.01	-8.29772e-09
3	66020	13.11	-6.32454e-09
3	66573	13.21	-4.59224e-09
3	67126	13.31	-3.08802e-09
3	67679	13.41	-1.79838e-09
3	68232	13.51	-7.08411e-10
3	68785	13.61	1.98241e-10
3	69338	13.71	9.37916e-10
3	69891	13.81	1.52767e-09
3	70444	13.91	1.98384e-09
3	71005	14.01	2.32276e-09
3	71558	14.11	2.55937e-09
3	72111	14.21	2.70788e-09
3	72664	14.31	2.78249e-09
3	73217	14.41	2.79243e-09
3	73770	14.51	2.7498e-09
3	74323	14.61	2.66525e-09
3	74876	14.71	2.54872e-09
3	75429	14.81	2.40803e-09
3	75982	14.91	2.24887e-09
3	76543	15.01	2.07763e-09
3	77096	15.11	1.89999e-09
3	77649	15.21	1.72236e-09
3	78202	15.31	1.54472e-09
3	78755	15.41	1.37064e-09
3	79308	15.51	1.20295e-09
3	79861	15.61	1.04379e-09
3	80414	15.71	8.94573e-10
3	80967	15.81	7.56017e-10
3	81520	15.91	6.29541e-10
3	82081	16.01	5.13012e-10
3	82634	16.11	4.09273e-10
3	83187	16.21	3.16902e-10
3	83740	16.31	2.3519e-10
3	84293	16.41	1.63425e-10
3	84846	16.51	1.02318e-10
3	85399	16.61	4.9738e-11
3	85952	16.71	5.68434e-12
3	86505	16.81	-3.05533e-11
3	87058	16.91	-5.8975e-11
3	87619	17.01	-8.10019e-11
3	88172	17.11	-9.80549e-11
3	88725	17.21	-1.11555e-10
3	89278	17.31	-1.18661e-10
3	89831	17.41	-1.23634e-10
3	90384	17.51	-1.23634e-10
3	90937	17.61	-1.23634e-10
3	91490	17.71	-1.21503e-10
3	92043	17.81	-1.14397e-10
3	92596	17.91	-1.07292e-10
3	93157	18.01	-1.00187e-10
3	93710	18.11	-9.30811e-11
3	94263	18.21	-8.59757e-11
3	94816	18.31	-7.88702e-11
3	95369	18.41	-7.17648e-11
3	95922	18.51	-6.46594e-11
3	96475	18.61	-5.7554e-11
3	97028	18.71	-5.04485e-11
3	97581	18.81	-4.33431e-11
3	98134	18.91	-3.62377e-11
3	98695	19.01	-2.91323e-11
3	99248	19.11	-2.20268e-11
3	99801	19.21	-1.7053e-11
3	100354	19.31	-1.49214e-11
3	100907	19.41	-1.35003e-11
3	101460	19.51	-1.27898e-11
3	102013	19.61	-1.13687e-11
3	102566	19.71	-9.9476e-12
3	103119	19.81	-9.23706e-12
3	103672	19.91	-8.52651e-12
3	104233	20.01	-7.81597e-12
3	104786	20.11	-7.10543e-12
3	105339	20.21	-6.39488e-12
3	105892	20.31	-5.68434e-12
3	106445	20.41	-4.9738e-12
3	106998	20.51	-4.26326e-12
3	107551	20.61	-4.26326e-12
3	108104	20.71	-3.55271e-12
3	108657	20.81	-3.55271e-12
3	109210	20.91	-2.84217e-12
3	109771	21.01	-2.84217e-12
3	110324	21.11	-2.84217e-12
3	110877	21.21	-2.13163e-12
3	111430	21.31	-2.13163e-12
3	111983	21.41	-2.13163e-12
3	112536	21.51	-1.42109e-12
3	113089	21.61	-1.42109e-12
3	113642	21.71	-1.42109e-12
3	114195	21.81	-1.42109e-12
3	114748	21.91	-1.42109e-12
3	115309	22.01	-7.10543e-13
3	115862	22.11	-7.10543e-13
3	116415	22.21	-7.10543e-13
3	116968	22.31	-7.10543e-13
3	117521	22.41	-7.10543e-13
3	118074	22.51	-7.10543e-13
3	118627	22.61	-7.10543e-13
3	119180	22.71	-7.10543e-13
3	119733	22.81	-7.10543e-13
3	120286	22.91	-7.10543e-13
3	120847	23.01	0
3	121400	23.11	0
3	121953	23.21	0
3	122506	23.31	0
3	123059	23.41	0
3	123612	23.51	0
3	124165	23.61	0
3	124718	23.71	0
3	125271	23.81	0
3	125824	23.91	0
3	126385	24.01	0
3	126938	24.11	0
3	127491	24.21	0
3	128044	24.31	0
3	128597	24.41	0
3	129150	24.51	0
3	129703	24.61	0
3	130256	24.71	0
3	130809	24.81	0
3	131362	24.91	0
3	131923	25.01	0
3	132476	25.11	0
3	133029	25.21	0
3	133582	25.31	0
3	134135	25.41	0
3	134688	25.51	0
3	135241	25.61	0
3	135794	25.71	0
3	136347	25.81	0
3	136900	25.91	0
3	137461	26.01	0
3	138014	26.11	0
3	138567	26.21	0
3	139120	26.31	0
3	139673	26.41	0
3	140226	26.51	0
3	140779	26.61	0
3	141332	26.71	0
3	141885	26.81	0
3	142438	26.91	0
3	142999	27.01	0
3	143552	27.11	0
3	144105	27.21	0
3	144658	27.31	0
3	145211	27.41	0
3	145764	27.51	0
3	146317	27.61	0
3	146870	27.71	0
3	147423	27.81	0
3	147976	27.91	0
3	148537	28.01	0
3	149090	28.11	0
3	149643	28.21	0
3	150196	28.31	0
3	150749	28.41	0
3	151302	28.51	0
3	151855	28.61	0
3	152408	28.71	0
3	152961	28.81	0
3	153514	28.91	0
3	154075	29.01	0
3	154628	29.11	0
3	155181	29.21	0
3	155827	29.31	0
3	156379	29.41	0
3	156931	29.51	0
3	157483	29.61	0
3	158035	29.71	0
3	158587	29.81	0
3	159139	29.91	0
3	159699	30.01	0
3	160251	30.11	0
3	160803	30.21	0
3	161355	30.31	0
3	161907	30.41	0
3	162459	30.51	0
3	163011	30.61	0
3	163563	30.71	0
3	164115	30.81	0
3	164667	30.91	0
3	165227	31.01	0
3	165779	31.11	0
3	166331	31.21	0
3	166883	31.31	0
3	167435	31.41	0
3	167987	31.51	0
3	168539	31.61	0
3	169091	31.71	0
3	169643	31.81	0
3	170195	31.91	0
3	170755	32.01	0
3	171307	32.11	0
3	171859	32.21	0
3	172411	32.31	0
3	172963	32.41	0
3	173515	32.51	0
3	174067	32.61	0
3	174619	32.71	0
3	175171	32.81	0
3	175723	32.91	0
3	176283	33.01	0
3	176835	33.11	0
3	177387	33.21	0
3	177939	33.31	0
3	178491	33.41	0
3	179136	33.51	0
3	179687	33.61	0
3	180238	33.71	0
3	180789	33.81	0
3	181340	33.91	0
3	181899	34.01	0
3	182450	34.11	0
3	183001	34.21	0
3	183552	34.31	0
3	184103	34.41	0
3	184654	34.51	0
3	185205	34.61	0
3	185756	34.71	0
3	186307	34.81	0
3	186858	34.91	0
3	187417	35.01	0
3	187968	35.11	0
3	188519	35.21	0
3	189070	35.31	0
3	189621	35.41	0
3	190172	35.51	0
3	190723	35.61	0
3	191274	35.71	0
3	191825	35.81	0
3	192376	35.91	0
3	192935	36.01	0
3	193486	36.11	0
3	194037	36.21	0
3	194588	36.31	0
3	195139	36.41	0
3	195690	36.51	0
3	196241	36.61	0
3	196792	36.71	0
3	197343	36.81	0
3	197894	36.91	0
3	198453	37.01	0
3	199004	37.11	0
3	199555	37.21	0
3	200106	37.31	0
3	200657	37.41	0
3	201301	37.51	0
3	201851	37.61	0
3	202401	37.71	0
3	202951	37.81	0
3	203501	37.91	0
3	204059	38.01	0
3	204609	38.11	0
3	205159	38.21	0
3	205709	38.31	0
3	206259	38.41	0
3	206809	38.51	0
3	207359	38.61	0
3	207909	38.71	0
3	208459	38.81	0
3	209009	38.91	0
3	209567	39.01	0
3	210117	39.11	0
3	210667	39.21	0
3	211217	39.31	0
3	211767	39.41	0
3	212317	39.51	0
3	212867	39.61	0
3	213417	39.71	0
3	213967	39.81	0
3	214517	39.91	0
3	215075	40.01	0
3	215625	40.11	0
3	216175	40.21	0
3	216725	40.31	0
3	217275	40.41	0
3	217825	40.51	0
3	218375	40.61	0
3	218925	40.71	0
3	219475	40.81	0
3	220025	40.91	0
3	220583	41.01	0
3	221133	41.11	0
3	221683	41.21	0
3	222326	41.31	0
3	222875	41.41	0
3	223424	41.51	0
3	223973	41.61	0
3	224522	41.71	0
3	225071	41.81	0
3	225620	41.91	0
3	226177	42.01	0
3	226726	42.11	0
3	227275	42.21	0
3	227824	42.31	0
3	228373	42.41	0
3	228922	42.51	0
3	229471	42.61	0
3	230020	42.71	0
3	230569	42.81	0
3	231118	42.91	0
3	231675	43.01	0
3	232224	43.11	0
3	232773	43.21	0
3	233322	43.31	0
3	233871	43.41	0
3	234420	43.51	0
3	234969	43.61	0
3	235518	43.71	0
3	236067	43.81	0
3	236616	43.91	0
3	237173	44.01	0
3	237722	44.11	0
3	238271	44.21	0
3	238820	44.31	0
3	239369	44.41	0
3	239918	44.51	0
3	240467	44.61	0
3	241016	44.71	0
3	241565	44.81	0
3	242114	44.91	0
3	242764	45.01	0
3	243312	45.11	0
3	243860	45.21	0
3	244408	45.31	0
3	244956	45.41	0
3	245504	45.51	0
3	246052	45.61	0
3	246600	45.71	0
3	247148	45.81	0
3	247696	45.91	0
3	248252	46.01	0
3	248800	46.11	0
3	249348	46.21	0
3	249896	46.31	0
3	250444	46.41	0
3	250992	46.51	0
3	251540	46.61	0
3	252088	46.71	0
3	252636	46.81	0
3	253184	46.91	0
3	253740	47.01	0
3	254288	47.11	0
3	254836	47.21	0
3	255384	47.31	0
3	255932	47.41	0
3	256480	47.51	0
3	257028	47.61	0
3	257576	47.71	0
3	258124	47.81	0
3	258672	47.91	0
3	259228	48.01	0
3	259776	48.11	0
3	260324	48.21	0
3	260872	48.31	0
3	261420	48.41	0
3	261968	48.51	0
3	262609	48.61	0
3	263156	48.71	0
3	263703	48.81	0
3	264250	48.91	0
3	264805	49.01	0
3	265352	49.11	0
3	265899	49.21	0
3	266446	49.31	0
3	266993	49.41	0
3	267540	49.51	0
3	268087	49.61	0
3	268634	49.71	0
3	269181	49.81	0
3	269728	49.91	0
3	270283	50.01	0
3	270830	50.11	0
3	271377	50.21	0
3	271924	50.31	0
3	272471	50.41	0
3	273018	50.51	0
3	273565	50.61	0
3	274112	50.71	0
3	274659	50.81	0
3	275206	50.91	0
3	275761	51.01	0
3	276308	51.11	0
3	276855	51.21	0
3	277402	51.31	0
3	277949	51.41	0
3	278496	51.51	0
3	279043	51.61	0
3	279590	51.71	0
3	280137	51.81	0
3	280684	51.91	0
3	281239	52.01	0
3	282530	52.11	0
3	283076	52.21	0
3	283622	52.31	0
3	284168	52.41	0
3	284714	52.51	0
3	285260	52.61	0
3	285806	52.71	0
3	286352	52.81	0
3	286898	52.91	0
3	287452	53.01	0
3	287998	53.11	0
3	288544	53.21	0
3	289090	53.31	0
3	289636	53.41	0
3	290182	53.51	0
3	290728	53.61	0
3	291274	53.71	0
3	291820	53.81	0
3	292366	53.91	0
3	292920	54.01	0
3	293466	54.11	0
3	294012	54.21	0
3	294558	54.31	0
3	295104	54.41	0
3	295650	54.51	0
3	296196	54.61	0
3	296742	54.71	0
3	297288	54.81	0
3	297834	54.91	0
3	298388	55.01	0
3	298934	55.11	0
3	299480	55.21	0
3	300026	55.31	0
3	300572	55.41	0
3	301118	55.51	0
3	301664	55.61	0
3	302210	55.71	0
3	302756	55.81	0
3	303302	55.91	0
3	303856	56.01	0
3	304402	56.11	0
3	304948	56.21	0
3	305494	56.31	0
3	306040	56.41	0
3	306586	56.51	0
3	307132	56.61	0
3	307678	56.71	0
3	308224	56.81	0
3	308770	56.91	0
3	309324	57.01	0
3	309870	57.11	0
3	310416	57.21	0
3	310962	57.31	0
3	311508	57.41	0
3	312054	57.51	0
3	312600	57.61	0
3	313146	57.71	0
3	313692	57.81	0
3	314238	57.91	0
3	314792	58.01	0
3	315338	58.11	0
3	315884	58.21	0
3	316430	58.31	0
3	316976	58.41	0
3	317522	58.51	0
3	318068	58.61	0
3	318614	58.71	0
3	319160	58.81	0
3	319706	58.91	0
3	320260	59.01	0
3	320806	59.11	0
3	321352	59.21	0
3	321898	59.31	0
3	322444	59.41	0
3	322990	59.51	0
3	323536	59.61	0
3	324082	59.71	0
3	324628	59.81	0
3	325174	59.91	0
3	325728	60.01	0
3	326274	60.11	0
3	326820	60.21	0
3	327366	60.31	0
3	327912	60.41	0
3	328458	60.51	0
3	329004	60.61	0
3	329550	60.71	0
3	330096	60.81	0
3	330642	60.91	0
3	331196	61.01	0
3	331742	61.11	0
3	332288	61.21	0
3	332834	61.31	0
3	333380	61.41	0
3	333926	61.51	0
3	334472	61.61	0
3	335018	61.71	0
3	335564	61.81	0
3	336110	61.91	0
3	336664	62.01	0
3	337210	62.11	0
3	337756	62.21	0
3	338302	62.31	0
3	338848	62.41	0
3	339394	62.51	0
3	339940	62.61	0
3	340486	62.71	0
3	341032	62.81	0
3	341578	62.91	0
3	342132	63.01	0
3	342678	63.11	0
3	343224	63.21	0
3	343770	63.31	0
3	344316	63.41	0
3	344862	63.51	0
3	345408	63.61	0
3	345954	63.71	0
3	346500	63.81	0
3	347046	63.91	0
3	347600	64.01	0
3	348146	64.11	0
3	348692	64.21	0
3	349238	64.31	0
3	349784	64.41	0
3	350330	64.51	0
3	350876	64.61	0
3	351422	64.71	0
3	351968	64.81	0
3	352514	64.91	0
3	353068	65.01	0
3	353614	65.11	0
3	354160	65.21	0
3	354706	65.31	0
3	355252	65.41	0
3	355798	65.51	0
3	356344	65.61	0
3	356890	65.71	0
3	357436	65.81	0
3	357982	65.91	0
3	358536	66.01	0
3	359082	66.11	0
3	359628	66.21	0
3	360174	66.31	0
3	360720	66.41	0
3	361266	66.51	0
3	361812	66.61	0
3	362358	66.71	0
3	362904	66.81	0
3	363450	66.91	0
3	364004	67.01	0
3	364550	67.11	0
3	365096	67.21	0
3	365642	67.31	0
3	366188	67.41	0
3	366734	67.51	0
3	367280	67.61	0
3	367826	67.71	0
3	368372	67.81	0
3	368918	67.91	0
3	369472	68.01	0
3	370018	68.11	0
3	370564	68.21	0
3	371110	68.31	0
3	371656	68.41	0
3	372202	68.51	0
3	372748	68.61	0
3	373294	68.71	0
3	373840	68.81	0
3	374386	68.91	0
3	374940	69.01	0
3	375486	69.11	0
3	376032	69.21	0
3	376578	69.31	0
3	377124	69.41	0
3	377670	69.51	0
3	378216	69.61	0
3	378762	69.71	0
3	379308	69.81	0
3	379854	69.91	0
3	380408	70.01	0
3	380954	70.11	0
3	381500	70.21	0
3	382046	70.31	0
3	382592	70.41	0
3	383138	70.51	0
3	383684	70.61	0
3	384230	70.71	0
3	384776	70.81	0
3	385322	70.91	0
3	385876	71.01	0
3	386422	71.11	0
3	386968	71.21	0
3	387514	71.31	0
3	388060	71.41	0
3	388606	71.51	0
3	389152	71.61	0
3	389698	71.71	0
3	390244	71.81	0
3	390790	71.91	0
3	391344	72.01	0
3	391890	72.11	0
3	392436	72.21	0
3	392982	72.31	0
3	393528	72.41	0
3	394074	72.51	0
3	394620	72.61	0
3	395166	72.71	0
3	395712	72.81	0
3	396258	72.91	0
3	396812	73.01	0
3	397358	73.11	0
3	397904	73.21	0
3	398450	73.31	0
3	398996	73.41	0
3	399542	73.51	0
3	400088	73.61	0
3	400634	73.71	0
3	401180	73.81	0
3	401726	73.91	0
3	402280	74.01	0
3	402826	74.11	0
3	403372	74.21	0
3	403918	74.31	0
3	404464	74.41	0
3	405010	74.51	0
3	405556	74.61	0
3	406102	74.71	0
3	406648	74.81	0
3	407194	74.91	0
3	407748	75.01	0
3	408294	75.11	0
3	408840	75.21	0
3	409386	75.31	0
3	409932	75.41	0
3	410478	75.51	0
3	411024	75.61	0
3	411570	75.71	0
3	412116	75.81	0
3	412662	75.91	0
3	413216	76.01	0
3	413762	76.11	0
3	414308	76.21	0
3	414854	76.31	0
3	415400	76.41	0
3	415946	76.51	0
3	416492	76.61	0
3	417038	76.71	0
3	417584	76.81	0
3	418130	76.91	0
3	418684	77.01	0
3	419230	77.11	0
3	419776	77.21	0
3	420322	77.31	0
3	420868	77.41	0
3	421414	77.51	0
3	421960	77.61	0
3	422506	77.71	0
3	423052	77.81	0
3	423598	77.91	0
3	424152	78.01	0
3	424698	78.11	0
3	425244	78.21	0
3	425790	78.31	0
3	426336	78.41	0
3	426882	78.51	0
3	427428	78.61	0
3	427974	78.71	0
3	428520	78.81	0
3	429066	78.91	0
3	429620	79.01	0
3	430166	79.11	0
3	430712	79.21	0
3	431258	79.31	0
3	431804	79.41	0
3	432350	79.51	0
3	432896	79.61	0
3	433442	79.71	0
3	433988	79.81	0
3	434534	79.91	0
3	435088	80.01	0
3	435634	80.11	0
3	436180	80.21	0
3	436726	80.31	0
3	437272	80.41	0
3	437818	80.51	0
3	438364	80.61	0
3	438910	80.71	0
3	439456	80.81	0
3	440002	80.91	0
3	440556	81.01	0
3	441102	81.11	0
3	441648	81.21	0
3	442194	81.31	0
3	442740	81.41	0
3	443286	81.51	0
3	443832	81.61	0
3	444378	81.71	0
3	444924	81.81	0
3	445470	81.91	0
3	446024	82.01	0
3	446570	82.11	0
3	447116	82.21	0
3	447662	82.31	0
3	448208	82.41	0
3	448754	82.51	0
3	449300	82.61	0
3	449846	82.71	0
3	450392	82.81	0
3	450938	82.91	0
3	451492	83.01	0
3	452038	83.11	0
3	452584	83.21	0
3	453130	83.31	0
3	453676	83.41	0
3	454222	83.51	0
3	454768	83.61	0
3	455314	83.71	0
3	455860	83.81	0
3	456406	83.91	0
3	456960	84.01	0
3	457506	84.11	0
3	458052	84.21	0
3	458598	84.31	0
3	459144	84.41	0
3	459690	84.51	0
3	460236	84.61	0
3	460782	84.71	0
3	461328	84.81	0
3	461874	84.91	0
3	462428	85.01	0
3	462974	85.11	0
3	463520	85.21	0
3	464066	85.31	0
3	464612	85.41	0
3	465158	85.51	0
3	465704	85.61	0
3	466250	85.71	0
3	466796	85.81	0
3	467342	85.91	0
3	467896	86.01	0
3	468442	86.11	0
3	468988	86.21	0
3	469534	86.31	0
3	470080	86.41	0
3	470626	86.51	0
3	471172	86.61	0
3	471718	86.71	0
3	472264	86.81	0
3	472810	86.91	0
3	473364	87.01	0
3	473910	87.11	0
3	474456	87.21	0
3	475002	87.31	0
3	475548	87.41	0
3	476094	87.51	0
3	476640	87.61	0
3	477186	87.71	0
3	477732	87.81	0
3	478278	87.91	0
3	478832	88.01	0
3	479378	88.11	0
3	479924	88.21	0
3	480470	88.31	0
3	481016	88.41	0
3	481562	88.51	0
3	482108	88.61	0
3	482654	88.71	0
3	483200	88.81	0
3	483746	88.91	0
3	484300	89.01	0
3	484846	89.11	0
3	485392	89.21	0
3	485938	89.31	0
3	486484	89.41	0
3	487030	89.51	0
3	487576	89.61	0
3	488122	89.71	0
3	488668	89.81	0
3	489214	89.91	0
3	489768	90.01	0
3	490314	90.11	0
3	490860	90.21	0
3	491406	90.31	0
3	491952	90.41	0
3	492498	90.51	0
3	493044	90.61	0
3	493590	90.71	0
3	494136	90.81	0
3	494682	90.91	0
3	495236	91.01	0
3	495782	91.11	0
3	496328	91.21	0
3	496874	91.31	0
3	497420	91.41	0
3	497966	91.51	0
3	498512	91.61	0
3	499058	91.71	0
3	499604	91.81	0
3	500150	91.91	0
3	500704	92.01	0
3	501250	92.11	0
3	501796	92.21	0
3	502342	92.31	0
3	502888	92.41	0
3	503434	92.51	0
3	503980	92.61	0
3	504526	92.71	0
3	505072	92.81	0
3	505618	92.91	0
3	506172	93.01	0
3	506718	93.11	0
3	507264	93.21	0
3	507810	93.31	0
3	508356	93.41	0
3	508902	93.51	0
3	509448	93.61	0
3	509994	93.71	0
3	510540	93.81	0
3	511086	93.91	0
3	511640	94.01	0
3	512186	94.11	0
3	512732	94.21	0
3	513278	94.31	0
3	513824	94.41	0
3	514370	94.51	0
3	514916	94.61	0
3	515462	94.71	0
3	516008	94.81	0
3	516554	94.91	0
3	517108	95.01	0
3	517654	95.11	0
3	518200	95.21	0
3	518746	95.31	0
3	519292	95.41	0
3	519838	95.51	0
3	520384	95.61	0
3	520930	95.71	0
3	521476	95.81	0
[...]
105	434905	80	0.024964569909
105	440373	81	0.02496438276
105	445841	82	0.024977199981
105	451309	83	0.024964021147
105	456777	84	0.024976845912
105	462245	85	0.024963673915
105	467713	86	0.024976504867
105	473181	87	0.024963338484
105	478649	88	0.024976174501
105	484117	89	0.024963012715
105	489585	90	0.024975858
105	495053	91	0.024962703269
105	500521	92	0.02497554674
105	505989	93	0.024975391689
105	511457	94	0.024962237977
105	516925	95	0.02497508547
105	522393	96	0.024961934061
105	527861	97	0.024974783648
105	533329	98	0.024974634121
105	538797	99	0.024961485413
105	544265	100	0.024974337452
106	4852	2	0
106	10320	3	0
106	15788	4	0
106	21256	5	0
106	26724	6	0
106	32192	7	0
106	37660	8	0
106	43128	9	0
106	48597	10	0
106	54201	11	0
106	59739	12	0
106	65277	13	0
106	70815	14	0
106	76353	15	0
106	81891	16	0
106	87429	17	0
106	92967	18	0
106	98505	19	0
106	104043	20	0
106	109581	21	0
106	115119	22	0
106	120657	23	0
106	126195	24	0
106	131733	25	0
106	137271	26	0
106	142809	27	0
106	148347	28	0
106	153885	29	0
106	159510	30	0
106	165038	31	0
106	170566	32	0
106	176094	33	0
106	181711	34	0
106	187229	35	0
106	192747	36	0
106	198265	37	0
106	203872	38	0
106	209380	39	0
106	214888	40	0
106	220396	41	0
106	225991	42	0
106	231489	43	0
106	236987	44	0
106	242485	45	0
106	248067	46	0
106	253555	47	0
106	259043	48	0
106	264621	49	0
106	270099	50	0
106	275577	51	0
106	281055	52	0
106	287269	53	0
106	292737	54	0
106	298205	55	0
106	303673	56	0
106	309141	57	0
106	314609	58	0
106	320077	59	0
106	325545	60	0
106	331013	61	0
106	336481	62	0
106	341949	63	0
106	347417	64	0
106	352885	65	0
106	358353	66	0
106	363821	67	0
106	369289	68	0
106	374757	69	0
106	380225	70	0
106	385693	71	0
106	391161	72	0
106	396629	73	0
106	402097	74	0
106	407565	75	0
106	413033	76	0
106	418501	77	0
106	423969	78	0
106	429437	79	0
106	434905	80	0
106	440373	81	0
106	445841	82	0
106	451309	83	0
106	456777	84	0
106	462245	85	0
106	467713	86	0
106	473181	87	0
106	478649	88	0
106	484117	89	0
106	489585	90	0
106	495053	91	0
106	500521	92	0
106	505989	93	0
106	511457	94	0
106	516925	95	0
106	522393	96	0
106	527861	97	0
106	533329	98	0
106	538797	99	0
106	544265	100	0
107	4853	2	5
107	10321	3	5
107	15789	4	5
107	21257	5	5
107	26725	6	5
107	32193	7	5
107	37661	8	5
107	43129	9	5
107	48598	10	5
107	54202	11	5
107	59740	12	5
107	65278	13	5
107	70816	14	5
107	76354	15	5
107	81892	16	5
107	87430	17	5
107	92968	18	5
107	98506	19	5
107	104044	20	5
107	109582	21	5
107	115120	22	5
107	120658	23	5
107	126196	24	5
107	131734	25	5
107	137272	26	5
107	142810	27	5
107	148348	28	5
107	153886	29	5
107	159511	30	5
107	165039	31	5
107	170567	32	5
107	176095	33	5
107	181712	34	5
107	187230	35	5
107	192748	36	5
107	198266	37	5
107	203873	38	5
107	209381	39	5
107	214889	40	5
107	220397	41	5
107	225992	42	5
107	231490	43	5
107	236988	44	5
107	242486	45	5
107	248068	46	5
107	253556	47	5
107	259044	48	5
107	264622	49	5
107	270100	50	5
107	275578	51	5
107	281056	52	5
107	287270	53	5
107	292738	54	5
107	298206	55	5
107	303674	56	5
107	309142	57	5
107	314610	58	5
107	320078	59	5
107	325546	60	5
107	331014	61	5
107	336482	62	5
107	341950	63	5
107	347418	64	5
107	352886	65	5
107	358354	66	5
107	363822	67	5
107	369290	68	5
107	374758	69	5
107	380226	70	5
107	385694	71	5
107	391162	72	5
107	396630	73	5
107	402098	74	5
107	407566	75	5
107	413034	76	5
107	418502	77	5
107	423970	78	5
107	429438	79	5
107	434906	80	5
107	440374	81	5
107	445842	82	5
107	451310	83	5
107	456778	84	5
107	462246	85	5
107	467714	86	5
107	473182	87	5
107	478650	88	5
107	484118	89	5
107	489586	90	5
107	495054	91	5
107	500522	92	5
107	505990	93	5
107	511458	94	5
107	516926	95	5
107	522394	96	5
107	527862	97	5
107	533330	98	5
107	538798	99	5
107	544266	100	5
108	4853	2	0.021650416812
108	10321	3	0.024977796369
108	15789	4	0.024964796353
108	21257	5	0.02497779635
108	26725	6	0.02496479634
108	32193	7	0.02496479634
108	37661	8	0.02497779634
108	43129	9	0.02496479634
108	48598	10	0.02497779634
108	54202	11	0.025009715927
108	59740	12	0.024977791557
108	65278	13	0.024964779663
108	70816	14	0.024964760487
108	76354	15	0.024977735156
108	81892	16	0.024964704907
108	87430	17	0.024977670924
108	92968	18	0.024964634276
108	98506	19	0.024964595914
108	104044	20	0.024977556648
108	109582	21	0.024964517159
108	115120	22	0.024977478016
108	120658	23	0.02496443968
108	126196	24	0.024977402493
108	131734	25	0.024964366731
108	137272	26	0.024964332591
108	142810	27	0.024977300198
108	148348	28	0.024964269636
108	153886	29	0.024977240942
108	159511	30	0.025081122543
108	165039	31	0.024964189135
108	170567	32	0.024977165949
108	176095	33	0.024964144503
108	181712	34	0.025081032324
108	187230	35	0.024977106512
108	192748	36	0.024964089794
108	198266	37	0.024977074484
108	203873	38	0.025080921618
108	209381	39	0.024964047709
108	214889	40	0.024977036079
108	220397	41	0.024964025495
108	225992	42	0.025080830494
108	231490	43	0.024977007155
108	236988	44	0.024963999261
108	242486	45	0.02497699211
108	248068	46	0.025113985649
108	253556	47	0.024963979815
108	259044	48	0.024976974552
108	264622	49	0.025080691289
108	270100	50	0.024963965544
108	275578	51	0.0249769617
108	281056	52	0.024963958246
108	287270	53	0.02590445033
108	292738	54	0.02496375641
108	298206	55	0.024976358684
108	303674	56	0.024962648718
108	309142	57	0.024974616348
108	314610	58	0.024960404438
108	320078	59	0.024972272037
108	325546	60	0.024971277421
108	331014	61	0.024970436906
108	336482	62	0.024969740999
108	341950	63	0.024969177275
108	347418	64	0.024968731039
108	352886	65	0.024968359603
108	358354	66	0.024981019831
108	363822	67	0.024967696314
108	369290	68	0.024967387603
108	374758	69	0.024967094073
108	380226	70	0.024966814989
108	385694	71	0.024979549028
108	391162	72	0.024966294863
108	396630	73	0.024966051363
108	402098	74	0.024978817513
108	407566	75	0.024965592427
108	413034	76	0.024965375272
108	418502	77	0.024978165308
108	423970	78	0.024964961861
108	429438	79	0.024977764305
108	434906	80	0.024964572105
108	440374	81	0.024964384748
108	445842	82	0.024977201782
108	451310	83	0.024964022779
108	456778	84	0.024976847389
108	462246	85	0.024963675254
108	467714	86	0.024976506079
108	473182	87	0.024963339582
108	478650	88	0.024976175496
108	484118	89	0.024963013615
108	489586	90	0.024975858816
108	495054	91	0.024962704008
108	500522	92	0.02497554741
108	505990	93	0.024975392295
108	511458	94	0.024962238526
108	516926	95	0.024975085968
108	522394	96	0.024961934511
108	527862	97	0.024974784056
108	533330	98	0.024974634491
108	538798	99	0.024961485748
108	544266	100	0.024974337755
109	4853	2	0
109	10321	3	0
109	15789	4	0
109	21257	5	0
109	26725	6	0
109	32193	7	0
109	37661	8	0
109	43129	9	0
109	48598	10	0
109	54202	11	0
109	59740	12	0
109	65278	13	0
109	70816	14	0
109	76354	15	0
109	81892	16	0
109	87430	17	0
109	92968	18	0
109	98506	19	0
109	104044	20	0
109	109582	21	0
109	115120	22	0
109	120658	23	0
109	126196	24	0
109	131734	25	0
109	137272	26	0
109	142810	27	0
109	148348	28	0
109	153886	29	0
109	159511	30	0
109	165039	31	0
109	170567	32	0
109	176095	33	0
109	181712	34	0
109	187230	35	0
109	192748	36	0
109	198266	37	0
109	203873	38	0
109	209381	39	0
109	214889	40	0
109	220397	41	0
109	225992	42	0
109	231490	43	0
109	236988	44	0
109	242486	45	0
109	248068	46	0
109	253556	47	0
109	259044	48	0
109	264622	49	0
109	270100	50	0
109	275578	51	0
109	281056	52	0
109	287270	53	0
109	292738	54	0
109	298206	55	0
109	303674	56	0
109	309142	57	0
109	314610	58	0
109	320078	59	0
109	325546	60	0
109	331014	61	0
109	336482	62	0
109	341950	63	0
109	347418	64	0
109	352886	65	0
109	358354	66	0
109	363822	67	0
109	369290	68	0
109	374758	69	0
109	380226	70	0
109	385694	71	0
109	391162	72	0
109	396630	73	0
109	402098	74	0
109	407566	75	0
109	413034	76	0
109	418502	77	0
109	423970	78	0
109	429438	79	0
109	434906	80	0
109	440374	81	0
109	445842	82	0
109	451310	83	0
109	456778	84	0
109	462246	85	0
109	467714	86	0
109	473182	87	0
109	478650	88	0
109	484118	89	0
109	489586	90	0
109	495054	91	0
109	500522	92	0
109	505990	93	0
109	511458	94	0
109	516926	95	0
109	522394	96	0
109	527862	97	0
109	533330	98	0
109	538798	99	0
109	544266	100	0
110	4854	2	6
110	10322	3	6
110	15790	4	6
110	21258	5	6
110	26726	6	6
110	32194	7	6
110	37662	8	6
110	43130	9	6
110	48599	10	6
110	54203	11	6
110	59741	12	6
110	65279	13	6
110	70817	14	6
110	76355	15	6
110	81893	16	6
110	87431	17	6
110	92969	18	6
110	98507	19	6
110	104045	20	6
110	109583	21	6
110	115121	22	6
110	120659	23	6
110	126197	24	6
110	131735	25	6
110	137273	26	6
110	142811	27	6
110	148349	28	6
110	153887	29	6
110	159512	30	6
110	165040	31	6
110	170568	32	6
110	176096	33	6
110	181713	34	6
110	187231	35	6
110	192749	36	6
110	198267	37	6
110	203874	38	6
110	209382	39	6
110	214890	40	6
110	220398	41	6
110	225993	42	6
110	231491	43	6
110	236989	44	6
110	242487	45	6
110	248069	46	6
110	253557	47	6
110	259045	48	6
110	264623	49	6
110	270101	50	6
110	275579	51	6
110	281057	52	6
110	287271	53	6
110	292739	54	6
110	298207	55	6
110	303675	56	6
110	309143	57	6
110	314611	58	6
110	320079	59	6
110	325547	60	6
110	331015	61	6
110	336483	62	6
110	341951	63	6
110	347419	64	6
110	352887	65	6
110	358355	66	6
110	363823	67	6
110	369291	68	6
110	374759	69	6
110	380227	70	6
110	385695	71	6
110	391163	72	6
110	396631	73	6
110	402099	74	6
110	407567	75	6
110	413035	76	6
110	418503	77	6
110	423971	78	6
110	429439	79	6
110	434907	80	6
110	440375	81	6
110	445843	82	6
110	451311	83	6
110	456779	84	6
110	462247	85	6
110	467715	86	6
110	473183	87	6
110	478651	88	6
110	484119	89	6
110	489587	90	6
110	495055	91	6
110	500523	92	6
110	505991	93	6
110	511459	94	6
110	516927	95	6
110	522395	96	6
110	527863	97	6
110	533331	98	6
110	538799	99	6
110	544267	100	6
111	4854	2	0.021651396799
111	10322	3	0.024977796368
111	15790	4	0.024964796353
111	21258	5	0.02497779635
111	26726	6	0.02496479634
111	32194	7	0.02496479634
111	37662	8	0.02497779634
111	43130	9	0.02496479634
111	48599	10	0.02497779634
111	54203	11	0.025009715926
111	59741	12	0.02497779155
111	65279	13	0.024964779651
111	70817	14	0.024964760468
111	76355	15	0.024977735126
111	81893	16	0.024964704865
111	87431	17	0.02497767087
111	92969	18	0.024964634208
111	98507	19	0.024964595833
111	104045	20	0.024977556557
111	109583	21	0.024964517056
111	115121	22	0.024977477905
111	120659	23	0.024964439562
111	126197	24	0.024977402371
111	131735	25	0.024964366605
111	137273	26	0.024964332463
111	142811	27	0.024977300069
111	148349	28	0.024964269509
111	153887	29	0.024977240817
111	159512	30	0.02508112242
111	165040	31	0.024964189017
111	170568	32	0.024977165834
111	176096	33	0.024964144394
111	181713	34	0.02508103222
111	187231	35	0.024977106412
111	192749	36	0.024964089702
111	198267	37	0.024977074395
111	203874	38	0.025080921537
111	209382	39	0.024964047631
111	214890	40	0.024977036007
111	220398	41	0.024964025429
111	225993	42	0.025080830433
111	231491	43	0.024977007098
111	236989	44	0.024963999208
111	242487	45	0.024976992062
111	248069	46	0.025080753661
111	253557	47	0.024963979773
111	259045	48	0.024976974515
111	264623	49	0.025113969773
111	270101	50	0.024963965514
111	275579	51	0.024976961671
111	281057	52	0.024963958221
111	287271	53	0.025904449659
111	292739	54	0.024963758304
111	298207	55	0.02497636822
111	303675	56	0.024962666412
111	309143	57	0.024974641415
111	314611	58	0.024960427428
111	320079	59	0.024972291261
111	325547	60	0.024971292163
111	331015	61	0.024970446949
111	336483	62	0.024969746238
111	341951	63	0.02496917769
111	347419	64	0.024968727633
111	352887	65	0.024968354907
111	358355	66	0.024981015219
111	363823	67	0.024967691984
111	369291	68	0.024967383436
111	374759	69	0.024967089992
111	380227	70	0.024966810972
111	385695	71	0.024979545071
111	391163	72	0.024966290965
111	396631	73	0.024966047519
111	402099	74	0.024978813717
111	407567	75	0.024965588676
111	413035	76	0.02496537156
111	418503	77	0.024978161631
111	423971	78	0.024964958218
111	429439	79	0.02497776069
111	434907	80	0.024964568518
111	440375	81	0.024964381184
111	445843	82	0.02497719824
111	451311	83	0.024964019257
111	456779	84	0.024976843885
111	462247	85	0.024963671767
111	467715	86	0.024976502605
111	473183	87	0.024963336122
111	478651	88	0.024976172048
111	484119	89	0.024963010178
111	489587	90	0.024975855389
111	495055	91	0.02496270059
111	500523	92	0.024975544
111	505991	93	0.024975388892
111	511459	94	0.024962235129
111	516927	95	0.024975082578
111	522395	96	0.024961931126
111	527863	97	0.024974780676
111	533331	98	0.024974631115
111	538799	99	0.024961482376
111	544267	100	0.024974334387
112	4854	2	0
112	10322	3	0
112	15790	4	0
112	21258	5	0
112	26726	6	0
112	32194	7	0
112	37662	8	0
112	43130	9	0
112	48599	10	0
112	54203	11	0
112	59741	12	0
112	65279	13	0
112	70817	14	0
112	76355	15	0
112	81893	16	0
112	87431	17	0
112	92969	18	0
112	98507	19	0
112	104045	20	0
112	109583	21	0
112	115121	22	0
112	120659	23	0
112	126197	24	0
112	131735	25	0
112	137273	26	0
112	142811	27	0
112	148349	28	0
112	153887	29	0
112	159512	30	0
112	165040	31	0
112	170568	32	0
112	176096	33	0
112	181713	34	0
112	187231	35	0
112	192749	36	0
112	198267	37	0
112	203874	38	0
112	209382	39	0
112	214890	40	0
112	220398	41	0
112	225993	42	0
112	231491	43	0
112	236989	44	0
112	242487	45	0
112	248069	46	0
112	253557	47	0
112	259045	48	0
112	264623	49	0
112	270101	50	0
112	275579	51	0
112	281057	52	0
112	287271	53	0
112	292739	54	0
112	298207	55	0
112	303675	56	0
112	309143	57	0
112	314611	58	0
112	320079	59	0
112	325547	60	0
112	331015	61	0
112	336483	62	0
112	341951	63	0
112	347419	64	0
112	352887	65	0
112	358355	66	0
112	363823	67	0
112	369291	68	0
112	374759	69	0
112	380227	70	0
112	385695	71	0
112	391163	72	0
112	396631	73	0
112	402099	74	0
112	407567	75	0
112	413035	76	0
112	418503	77	0
112	423971	78	0
112	429439	79	0
112	434907	80	0
112	440375	81	0
112	445843	82	0
112	451311	83	0
112	456779	84	0
112	462247	85	0
112	467715	86	0
112	473183	87	0
112	478651	88	0
112	484119	89	0
112	489587	90	0
112	495055	91	0
112	500523	92	0
112	505991	93	0
112	511459	94	0
112	516927	95	0
112	522395	96	0
112	527863	97	0
112	533331	98	0
112	538799	99	0
112	544267	100	0
113	4855	2	7
113	10323	3	7
113	15791	4	7
113	21259	5	7
113	26727	6	7
113	32195	7	7
113	37663	8	7
113	43131	9	7
113	48600	10	7
113	54204	11	7
113	59742	12	7
113	65280	13	7
113	70818	14	7
113	76356	15	7
113	81894	16	7
113	87432	17	7
113	92970	18	7
113	98508	19	7
113	104046	20	7
113	109584	21	7
113	115122	22	7
113	120660	23	7
113	126198	24	7
113	131736	25	7
113	137274	26	7
113	142812	27	7
113	148350	28	7
113	153888	29	7
113	159513	30	7
113	165041	31	7
113	170569	32	7
113	176097	33	7
113	181714	34	7
113	187232	35	7
113	192750	36	7
113	198268	37	7
113	203875	38	7
113	209383	39	7
113	214891	40	7
113	220399	41	7
113	225994	42	7
113	231492	43	7
113	236990	44	7
113	242488	45	7
113	248070	46	7
113	253558	47	7
113	259046	48	7
113	264624	49	7
113	270102	50	7
113	275580	51	7
113	281058	52	7
113	287272	53	7
113	292740	54	7
113	298208	55	7
113	303676	56	7
113	309144	57	7
113	314612	58	7
113	320080	59	7
113	325548	60	7
113	331016	61	7
113	336484	62	7
113	341952	63	7
113	347420	64	7
113	352888	65	7
113	358356	66	7
113	363824	67	7
113	369292	68	7
113	374760	69	7
113	380228	70	7
113	385696	71	7
113	391164	72	7
113	396632	73	7
113	402100	74	7
113	407568	75	7
113	413036	76	7
113	418504	77	7
113	423972	78	7
113	429440	79	7
113	434908	80	7
113	440376	81	7
113	445844	82	7
113	451312	83	7
113	456780	84	7
113	462248	85	7
113	467716	86	7
113	473184	87	7
113	478652	88	7
113	484120	89	7
113	489588	90	7
113	495056	91	7
113	500524	92	7
113	505992	93	7
113	511460	94	7
113	516928	95	7
113	522396	96	7
113	527864	97	7
113	533332	98	7
113	538800	99	7
113	544268	100	7
114	4855	2	0.021651376785
114	10323	3	0.024977796368
114	15791	4	0.024964796353
114	21259	5	0.02497779635
114	26727	6	0.02496479634
114	32195	7	0.02496479634
114	37663	8	0.02497779634
114	43131	9	0.02496479634
114	48600	10	0.02497779634
114	54204	11	0.025009715927
114	59742	12	0.024977791549
114	65280	13	0.024964779646
114	70818	14	0.024964760456
114	76356	15	0.024977735107
114	81894	16	0.024964704836
114	87432	17	0.024977670831
114	92970	18	0.02496463416
114	98508	19	0.024964595774
114	104046	20	0.024977556487
114	109584	21	0.024964516977
114	115122	22	0.024977477817
114	120660	23	0.024964439466
114	126198	24	0.024977402268
114	131736	25	0.024964366497
114	137274	26	0.02496433235
114	142812	27	0.024977299954
114	148350	28	0.024964269391
114	153888	29	0.024977240699
114	159513	30	0.025081122302
114	165041	31	0.0249641889
114	170569	32	0.02497716572
114	176097	33	0.024964144282
114	181714	34	0.025081032112
114	187232	35	0.024977106307
114	192750	36	0.024964089601
114	198268	37	0.024977074299
114	203875	38	0.025080921445
114	209383	39	0.024964047544
114	214891	40	0.024977035926
114	220399	41	0.024964025351
114	225994	42	0.02508083036
114	231492	43	0.02497700703
114	236990	44	0.024963999145
114	242488	45	0.024976992002
114	248070	46	0.025080753607
114	253558	47	0.024963979722
114	259046	48	0.024976974468
114	264624	49	0.025080691212
114	270102	50	0.024963965473
114	275580	51	0.024976961635
114	281058	52	0.024963958186
114	287272	53	0.025937774584
114	292740	54	0.02496376432
114	298208	55	0.024976375677
114	303676	56	0.024962674468
114	309144	57	0.024974650252
114	314612	58	0.024960436488
114	320080	59	0.024972300078
114	325548	60	0.024971300645
114	331016	61	0.024970455177
114	336484	62	0.02496975429
114	341952	63	0.024969185595
114	347420	64	0.024968735402
114	352888	65	0.024968362546
114	358356	66	0.024981022735
114	363824	67	0.024967699383
114	369292	68	0.024967390728
114	374760	69	0.02496709718
114	380228	70	0.024966818059
114	385696	71	0.02497955206
114	391164	72	0.024966297854
114	396632	73	0.024966054307
114	402100	74	0.024978820399
114	407568	75	0.024965595243
114	413036	76	0.024965378001
114	418504	77	0.02497816793
114	423972	78	0.024964964348
114	429440	79	0.024977766626
114	434908	80	0.024964574215
114	440376	81	0.024964386595
114	445844	82	0.024977203307
114	451312	83	0.024964023916
114	456780	84	0.024976848079
114	462248	85	0.024963675455
114	467716	86	0.024976505778
114	473184	87	0.024963338798
114	478652	88	0.024976174276
114	484120	89	0.02496301202
114	489588	90	0.02497586447
114	495056	91	0.024962701137
114	500524	92	0.024975544427
114	505992	93	0.024975389237
114	511460	94	0.024962235412
114	516928	95	0.024975082814
114	522396	96	0.024961931326
114	527864	97	0.024974780848
114	533332	98	0.024974631264
114	538800	99	0.024961482507
114	544268	100	0.024974334501
115	4855	2	0
115	10323	3	0
115	15791	4	0
115	21259	5	0
115	26727	6	0
115	32195	7	0
115	37663	8	0
115	43131	9	0
115	48600	10	0
115	54204	11	0
115	59742	12	0
115	65280	13	0
115	70818	14	0
115	76356	15	0
115	81894	16	0
115	87432	17	0
115	92970	18	0
115	98508	19	0
115	104046	20	0
115	109584	21	0
115	115122	22	0
115	120660	23	0
115	126198	24	0
115	131736	25	0
115	137274	26	0
115	142812	27	0
115	148350	28	0
115	153888	29	0
115	159513	30	0
115	165041	31	0
115	170569	32	0
115	176097	33	0
115	181714	34	0
115	187232	35	0
115	192750	36	0
115	198268	37	0
115	203875	38	0
115	209383	39	0
115	214891	40	0
115	220399	41	0
115	225994	42	0
115	231492	43	0
115	236990	44	0
115	242488	45	0
115	248070	46	0
115	253558	47	0
115	259046	48	0
115	264624	49	0
115	270102	50	0
115	275580	51	0
115	281058	52	0
115	287272	53	0
115	292740	54	0
115	298208	55	0
115	303676	56	0
115	309144	57	0
115	314612	58	0
115	320080	59	0
115	325548	60	0
115	331016	61	0
115	336484	62	0
115	341952	63	0
115	347420	64	0
115	352888	65	0
115	358356	66	0
115	363824	67	0
115	369292	68	0
115	374760	69	0
115	380228	70	0
115	385696	71	0
115	391164	72	0
115	396632	73	0
115	402100	74	0
115	407568	75	0
115	413036	76	0
115	418504	77	0
115	423972	78	0
115	429440	79	0
115	434908	80	0
115	440376	81	0
115	445844	82	0
115	451312	83	0
115	456780	84	0
115	462248	85	0
115	467716	86	0
115	473184	87	0
115	478652	88	0
115	484120	89	0
115	489588	90	0
115	495056	91	0
115	500524	92	0
115	505992	93	0
115	511460	94	0
115	516928	95	0
115	522396	96	0
115	527864	97	0
115	533332	98	0
115	538800	99	0
115	544268	100	0

