version 3
run BreakRanksNoGui-831-20240711-12:49:49-287395
attr configname BreakRanksNoGui
attr datetime 20240711-12:49:49
attr datetimef 20240711-124949
attr experiment BreakRanksNoGui
attr inifile omnetpp.ini
attr iterationvars "$nCars=9, $platoonSize=9, $nLanes=1, $ploegH=0.5, $controller=1, $headway=0.1, $leaderHeadway=1.2, $leaderSpeed=110, $breakRanksSafetyDistance=10, $minSpeed=100, $maxSpeed=120, $beaconInterval=0.1, $priority=4, $packetSize=200, $sController=\"CACC\", $0=2, $1=0"
attr iterationvarsd nCars=9/platoonSize=9/nLanes=1/ploegH=0.5/controller=1/headway=0.1/leaderHeadway=1.2/leaderSpeed=110/breakRanksSafetyDistance=10/minSpeed=100/maxSpeed=120/beaconInterval=0.1/priority=4/packetSize=200/sController=CACC/2/0
attr iterationvarsf nCars=9,platoonSize=9,nLanes=1,ploegH=0.5,controller=1,headway=0.1,leaderHeadway=1.2,leaderSpeed=110,breakRanksSafetyDistance=10,minSpeed=100,maxSpeed=120,beaconInterval=0.1,priority=4,packetSize=200,sController=CACC,2,0-
attr measurement "$nCars=9, $platoonSize=9, $nLanes=1, $ploegH=0.5, $controller=1, $headway=0.1, $leaderHeadway=1.2, $leaderSpeed=110, $breakRanksSafetyDistance=10, $minSpeed=100, $maxSpeed=120, $beaconInterval=0.1, $priority=4, $packetSize=200, $sController=\"CACC\", $0=2, $1=0"
attr network Highway
attr processid 287395
attr repetition 1
attr replication #1
attr resultdir results
attr runnumber 831
attr seedset 1
itervar beaconInterval 0.1
itervar breakRanksSafetyDistance 10
itervar controller 1
itervar headway 0.1
itervar leaderHeadway 1.2
itervar leaderSpeed 110
itervar maxSpeed 120
itervar minSpeed 100
itervar nCars 9
itervar nLanes 1
itervar packetSize 200
itervar platoonSize 9
itervar ploegH 0.5
itervar priority 4
itervar sController "\"CACC\""
config image-path ../../../veins/images
config repeat 10
config extends BreakRanks
config *.manager.command "\"sumo\""
config *.manager.ignoreGuiCommands true
config output-vector-file "results/BreakRanks_1_0.1_110_10_9 /result_1.vec"
config output-scalar-file "results/BreakRanks_1_0.1_110_10_9 /result_1.sca"
config extends Platooning
config *.node[*].scenario_type "\"BreakRanksScenario\""
config *.manager.command "\"sumo-gui\""
config *.node[*].scenario_type "\"SimpleScenario\""
config cmdenv-express-mode true
config cmdenv-autoflush true
config cmdenv-status-frequency 15s
config num-rngs 6
config network Highway
config debug-on-errors true
config print-undisposed true
config *.playgroundSizeX 65000m
config *.playgroundSizeY 25000m
config *.playgroundSizeZ 50m
config sim-time-limit "100 s"
config *.annotations.draw false
config *.obstacles.debug false
config *.world.useTorus false
config *.world.use2D false
config *.manager.updateInterval 0.01s
config *.manager.host "\"localhost\""
config *.manager.moduleType "\"org.car2x.plexe.PlatoonCar\""
config *.manager.moduleName "\"node\""
config *.manager.moduleDisplayString "\"\""
config *.manager.autoShutdown true
config *.manager.margin 25
config *.connectionManager.sendDirect true
config *.connectionManager.maxInterfDist 2600m
config *.connectionManager.drawMaxIntfDist false
config *.**.nic.mac1609_4.useServiceChannel false
config *.**.nic.mac1609_4.txPower 100mW
config *.**.nic.mac1609_4.bitrate 6Mbps
config *.**.nic.mac1609_4.useAcks true
config *.**.nic.mac1609_4.ackErrorRate 0.0
config *.**.nic.mac1609_4.frameErrorRate 0.0
config *.**.nic.phy80211p.minPowerLevel -94dBm
config *.**.nic.phy80211p.maxTXPower 100mW
config *.**.nic.phy80211p.useNoiseFloor true
config *.**.nic.phy80211p.noiseFloor -95dBm
config *.**.nic.phy80211p.decider "xmldoc(\"config.xml\")"
config *.**.nic.phy80211p.analogueModels "xmldoc(\"config.xml\")"
config *.**.nic.phy80211p.usePropagationDelay true
config *.node[*].mobility.x 0
config *.node[*].mobility.y 0
config *.node[*].mobility.z 1.895
config seed-set 1
config **.seed 1
config *.node[*].prot.rng-0 2
config *.node[*].appl.rng-0 3
config *.node[*].scenario.rng-0 4
config **.traffic.rng-0 5
config *.manager.configFile "\"./sumocfg/freeway.sumo.cfg\""
config *.manager.launchConfig "xmldoc(\"./sumocfg/freeway.launchd.xml\")"
config **.numberOfCars 9
config **.numberOfCarsPerPlatoon 9
config **.numberOfLanes 1
config *.node[*].helper_type "\"PositionHelper\""
config *.node[*].scenario.caccC1 0.5
config *.node[*].scenario.caccXi 1
config *.node[*].scenario.caccOmegaN "0.2 Hz"
config *.node[*].scenario.caccSpacing "2 m"
config *.node[*].scenario.engineTau "0.5 s"
config *.node[*].scenario.ploegH 0.5s
config *.node[*].scenario.ploegKp 0.2
config *.node[*].scenario.ploegKd 0.7
config *.node[*].scenario.useRealisticEngine false
config *.node[*].scenario.useControllerAcceleration true
config *.node[*].scenario.nLanes 1
config **.numericController 1
config **.headway 0.1s
config *.node[*].scenario.accHeadway 0.1s
config *.node[*].scenario.leaderHeadway 1.2s
config *.node[*].scenario.leaderSpeed 110kmph
config *.node[*].appl_type "\"SimplePlatooningApp\""
config *.node[*].appl.*.scalar-recording true
config *.node[*].appl.*.vector-recording true
config *.node[0].appl.breakRanksSafetyDistance 10m
config *.node[*].appl.minSpeed 100kmph
config *.node[*].appl.maxSpeed 120kmph
config *.node[*].protocol_type "\"SimplePlatooningBeaconing\""
config *.node[*].prot.*.scalar-recording true
config *.node[*].prot.*.vector-recording true
config *.node[*].prot.beaconingInterval 0.1s
config *.node[*].prot.priority 4
config *.node[*].prot.packetSize 200
config **.traffic_type "\"PlatoonsTrafficManager\""
config **.traffic.platoonInsertTime "1 s"
config **.traffic.platoonInsertSpeed 110kmph
config **.traffic.nCars 9
config **.traffic.platoonSize 9
config **.traffic.nLanes 1
config **.traffic.platooningVType "\"vtypeauto\""
config **.traffic.controller "\"CACC\""
config **.traffic.platoonInsertDistance 2m
config **.traffic.platoonInsertHeadway 0s
config **.traffic.platoonLeaderHeadway 1.2s
config **.scalar-recording false
config **.vector-recording false

vector 0 Highway.node[0].appl distance ETV
vector 1 Highway.node[0].appl relativeSpeed ETV
vector 2 Highway.node[0].appl nodeId ETV
vector 3 Highway.node[0].appl acceleration ETV
vector 4 Highway.node[0].appl controllerAcceleration ETV
vector 5 Highway.node[0].appl speed ETV
vector 6 Highway.node[0].appl posx ETV
vector 7 Highway.node[0].appl posy ETV
vector 8 Highway.node[1].appl distance ETV
vector 9 Highway.node[1].appl relativeSpeed ETV
vector 10 Highway.node[1].appl nodeId ETV
vector 11 Highway.node[1].appl acceleration ETV
vector 12 Highway.node[1].appl controllerAcceleration ETV
vector 13 Highway.node[1].appl speed ETV
vector 14 Highway.node[1].appl posx ETV
vector 15 Highway.node[1].appl posy ETV
vector 16 Highway.node[2].appl distance ETV
vector 17 Highway.node[2].appl relativeSpeed ETV
vector 18 Highway.node[2].appl nodeId ETV
vector 19 Highway.node[2].appl acceleration ETV
vector 20 Highway.node[2].appl controllerAcceleration ETV
vector 21 Highway.node[2].appl speed ETV
vector 22 Highway.node[2].appl posx ETV
vector 23 Highway.node[2].appl posy ETV
vector 24 Highway.node[3].appl distance ETV
vector 25 Highway.node[3].appl relativeSpeed ETV
vector 26 Highway.node[3].appl nodeId ETV
vector 27 Highway.node[3].appl acceleration ETV
vector 28 Highway.node[3].appl controllerAcceleration ETV
vector 29 Highway.node[3].appl speed ETV
vector 30 Highway.node[3].appl posx ETV
vector 31 Highway.node[3].appl posy ETV
vector 32 Highway.node[4].appl distance ETV
vector 33 Highway.node[4].appl relativeSpeed ETV
vector 34 Highway.node[4].appl nodeId ETV
vector 35 Highway.node[4].appl acceleration ETV
vector 36 Highway.node[4].appl controllerAcceleration ETV
vector 37 Highway.node[4].appl speed ETV
vector 38 Highway.node[4].appl posx ETV
vector 39 Highway.node[4].appl posy ETV
vector 40 Highway.node[5].appl distance ETV
vector 41 Highway.node[5].appl relativeSpeed ETV
vector 42 Highway.node[5].appl nodeId ETV
vector 43 Highway.node[5].appl acceleration ETV
vector 44 Highway.node[5].appl controllerAcceleration ETV
vector 45 Highway.node[5].appl speed ETV
vector 46 Highway.node[5].appl posx ETV
vector 47 Highway.node[5].appl posy ETV
vector 48 Highway.node[6].appl distance ETV
vector 49 Highway.node[6].appl relativeSpeed ETV
vector 50 Highway.node[6].appl nodeId ETV
vector 51 Highway.node[6].appl acceleration ETV
vector 52 Highway.node[6].appl controllerAcceleration ETV
vector 53 Highway.node[6].appl speed ETV
vector 54 Highway.node[6].appl posx ETV
vector 55 Highway.node[6].appl posy ETV
vector 56 Highway.node[7].appl distance ETV
vector 57 Highway.node[7].appl relativeSpeed ETV
vector 58 Highway.node[7].appl nodeId ETV
vector 59 Highway.node[7].appl acceleration ETV
vector 60 Highway.node[7].appl controllerAcceleration ETV
vector 61 Highway.node[7].appl speed ETV
vector 62 Highway.node[7].appl posx ETV
vector 63 Highway.node[7].appl posy ETV
vector 64 Highway.node[8].appl distance ETV
vector 65 Highway.node[8].appl relativeSpeed ETV
vector 66 Highway.node[8].appl nodeId ETV
vector 67 Highway.node[8].appl acceleration ETV
vector 68 Highway.node[8].appl controllerAcceleration ETV
vector 69 Highway.node[8].appl speed ETV
vector 70 Highway.node[8].appl posx ETV
vector 71 Highway.node[8].appl posy ETV
vector 72 Highway.node[2].prot frontDelay ETV
vector 73 Highway.node[2].prot frontDelayId ETV
vector 74 Highway.node[4].prot frontDelay ETV
vector 75 Highway.node[4].prot frontDelayId ETV
vector 76 Highway.node[6].prot frontDelay ETV
vector 77 Highway.node[6].prot frontDelayId ETV
vector 78 Highway.node[7].prot frontDelay ETV
vector 79 Highway.node[7].prot frontDelayId ETV
vector 80 Highway.node[8].prot frontDelay ETV
vector 81 Highway.node[8].prot frontDelayId ETV
vector 82 Highway.node[5].prot frontDelay ETV
vector 83 Highway.node[5].prot frontDelayId ETV
vector 84 Highway.node[1].prot leaderDelay ETV
vector 85 Highway.node[1].prot leaderDelayId ETV
vector 86 Highway.node[1].prot frontDelay ETV
vector 87 Highway.node[1].prot frontDelayId ETV
vector 88 Highway.node[2].prot leaderDelay ETV
vector 89 Highway.node[2].prot leaderDelayId ETV
vector 90 Highway.node[3].prot leaderDelay ETV
vector 91 Highway.node[3].prot leaderDelayId ETV
vector 92 Highway.node[4].prot leaderDelay ETV
vector 93 Highway.node[4].prot leaderDelayId ETV
vector 94 Highway.node[5].prot leaderDelay ETV
vector 95 Highway.node[5].prot leaderDelayId ETV
vector 96 Highway.node[6].prot leaderDelay ETV
vector 97 Highway.node[6].prot leaderDelayId ETV
vector 98 Highway.node[7].prot leaderDelay ETV
vector 99 Highway.node[7].prot leaderDelayId ETV
vector 100 Highway.node[8].prot leaderDelay ETV
vector 101 Highway.node[8].prot leaderDelayId ETV
vector 102 Highway.node[3].prot frontDelay ETV
vector 103 Highway.node[3].prot frontDelayId ETV
vector 104 Highway.node[0].prot nodeId ETV
vector 105 Highway.node[0].prot busyTime ETV
vector 106 Highway.node[0].prot collisions ETV
vector 107 Highway.node[1].prot nodeId ETV
vector 108 Highway.node[1].prot busyTime ETV
vector 109 Highway.node[1].prot collisions ETV
vector 110 Highway.node[2].prot nodeId ETV
vector 111 Highway.node[2].prot busyTime ETV
vector 112 Highway.node[2].prot collisions ETV
vector 113 Highway.node[3].prot nodeId ETV
vector 114 Highway.node[3].prot busyTime ETV
vector 115 Highway.node[3].prot collisions ETV
vector 116 Highway.node[4].prot nodeId ETV
vector 117 Highway.node[4].prot busyTime ETV
vector 118 Highway.node[4].prot collisions ETV
vector 119 Highway.node[5].prot nodeId ETV
vector 120 Highway.node[5].prot busyTime ETV
vector 121 Highway.node[5].prot collisions ETV
vector 122 Highway.node[6].prot nodeId ETV
vector 123 Highway.node[6].prot busyTime ETV
vector 124 Highway.node[6].prot collisions ETV
vector 125 Highway.node[7].prot nodeId ETV
vector 126 Highway.node[7].prot busyTime ETV
vector 127 Highway.node[7].prot collisions ETV
vector 128 Highway.node[8].prot nodeId ETV
vector 129 Highway.node[8].prot busyTime ETV
vector 130 Highway.node[8].prot collisions ETV
0	113	1.11	-1
0	798	1.21	-1
0	1483	1.31	-1
0	2168	1.41	-1
0	2853	1.51	-1
0	3538	1.61	-1
0	4223	1.71	-1
0	4908	1.81	-1
0	5593	1.91	-1
0	6287	2.01	-1
0	6972	2.11	-1
0	7657	2.21	-1
0	8342	2.31	-1
0	9027	2.41	-1
0	9712	2.51	-1
0	10397	2.61	-1
0	11082	2.71	-1
0	11767	2.81	-1
0	12452	2.91	-1
0	13146	3.01	-1
0	13831	3.11	-1
0	14516	3.21	-1
0	15201	3.31	-1
0	15886	3.41	-1
0	16571	3.51	-1
0	17256	3.61	-1
0	17941	3.71	-1
0	18626	3.81	-1
0	19311	3.91	-1
0	20005	4.01	-1
0	20690	4.11	-1
0	21375	4.21	-1
0	22060	4.31	-1
0	22745	4.41	-1
0	23430	4.51	-1
0	24115	4.61	-1
0	24800	4.71	-1
0	25485	4.81	-1
0	26170	4.91	-1
0	26864	5.01	-1
0	27549	5.11	-1
0	28234	5.21	-1
0	28919	5.31	-1
0	29604	5.41	-1
0	30289	5.51	-1
0	30974	5.61	-1
0	31659	5.71	-1
0	32344	5.81	-1
0	33029	5.91	-1
0	33723	6.01	-1
0	34408	6.11	-1
0	35093	6.21	-1
0	35778	6.31	-1
0	36463	6.41	-1
0	37148	6.51	-1
0	37833	6.61	-1
0	38518	6.71	-1
0	39203	6.81	-1
0	39888	6.91	-1
0	40582	7.01	-1
0	41267	7.11	-1
0	41952	7.21	-1
0	42637	7.31	-1
0	43322	7.41	-1
0	44007	7.51	-1
0	44692	7.61	-1
0	45377	7.71	-1
0	46062	7.81	-1
0	46747	7.91	-1
0	47441	8.01	-1
0	48126	8.11	-1
0	48811	8.21	-1
0	49496	8.31	-1
0	50181	8.41	-1
0	50866	8.51	-1
0	51551	8.61	-1
0	52236	8.71	-1
0	52921	8.81	-1
0	53606	8.91	-1
0	54300	9.01	-1
0	54985	9.11	-1
0	55670	9.21	-1
0	56355	9.31	-1
0	57040	9.41	-1
0	57725	9.51	-1
0	58410	9.61	-1
0	59095	9.71	-1
0	59780	9.81	-1
0	60465	9.91	-1
0	61242	10.01	-1
0	61935	10.11	-1
0	62628	10.21	-1
0	63321	10.31	-1
0	64014	10.41	-1
0	64707	10.51	-1
0	65400	10.61	-1
0	66093	10.71	-1
0	66786	10.81	-1
0	67479	10.91	-1
0	68181	11.01	-1
0	68874	11.11	-1
0	69567	11.21	-1
0	70260	11.31	-1
0	70953	11.41	-1
0	71646	11.51	-1
0	72339	11.61	-1
0	73032	11.71	-1
0	73725	11.81	-1
0	74418	11.91	-1
0	75120	12.01	-1
0	75813	12.11	-1
0	76506	12.21	-1
0	77199	12.31	-1
0	77892	12.41	-1
0	78585	12.51	-1
0	79278	12.61	-1
0	79971	12.71	-1
0	80664	12.81	-1
0	81357	12.91	-1
0	82059	13.01	-1
0	82752	13.11	-1
0	83445	13.21	-1
0	84138	13.31	-1
0	84831	13.41	-1
0	85524	13.51	-1
0	86217	13.61	-1
0	86910	13.71	-1
0	87603	13.81	-1
0	88296	13.91	-1
0	88998	14.01	-1
0	89691	14.11	-1
0	90384	14.21	-1
0	91077	14.31	-1
0	91770	14.41	-1
0	92463	14.51	-1
0	93156	14.61	-1
0	93849	14.71	-1
0	94542	14.81	-1
0	95235	14.91	-1
0	95937	15.01	-1
0	96630	15.11	-1
0	97323	15.21	-1
0	98016	15.31	-1
0	98709	15.41	-1
0	99402	15.51	-1
0	100095	15.61	-1
0	100788	15.71	-1
0	101481	15.81	-1
0	102174	15.91	-1
0	102876	16.01	-1
0	103569	16.11	-1
0	104262	16.21	-1
0	104955	16.31	-1
0	105648	16.41	-1
0	106341	16.51	-1
0	107034	16.61	-1
0	107727	16.71	-1
0	108420	16.81	-1
0	109113	16.91	-1
0	109815	17.01	-1
0	110508	17.11	-1
0	111201	17.21	-1
0	111894	17.31	-1
0	112587	17.41	-1
0	113280	17.51	-1
0	113973	17.61	-1
0	114666	17.71	-1
0	115359	17.81	-1
0	116052	17.91	-1
0	116754	18.01	-1
0	117447	18.11	-1
0	118140	18.21	-1
0	118833	18.31	-1
0	119526	18.41	-1
0	120219	18.51	-1
0	120912	18.61	-1
0	121605	18.71	-1
0	122298	18.81	-1
0	122991	18.91	-1
0	123693	19.01	-1
0	124386	19.11	-1
0	125079	19.21	-1
0	125772	19.31	-1
0	126465	19.41	-1
0	127158	19.51	-1
0	127851	19.61	-1
0	128544	19.71	-1
0	129237	19.81	-1
0	129930	19.91	-1
0	130632	20.01	-1
0	131325	20.11	-1
0	132018	20.21	-1
0	132711	20.31	-1
0	133404	20.41	-1
0	134097	20.51	-1
0	134790	20.61	-1
0	135483	20.71	-1
0	136176	20.81	-1
0	136869	20.91	-1
0	137571	21.01	-1
0	138264	21.11	-1
0	138957	21.21	-1
0	139650	21.31	-1
0	140343	21.41	-1
0	141036	21.51	-1
0	141729	21.61	-1
0	142422	21.71	-1
0	143115	21.81	-1
0	143808	21.91	-1
0	144510	22.01	-1
0	145203	22.11	-1
0	145896	22.21	-1
0	146589	22.31	-1
0	147282	22.41	-1
0	147975	22.51	-1
0	148668	22.61	-1
0	149361	22.71	-1
0	150054	22.81	-1
0	150747	22.91	-1
0	151449	23.01	-1
0	152142	23.11	-1
0	152835	23.21	-1
0	153528	23.31	-1
0	154221	23.41	-1
0	154914	23.51	-1
0	155607	23.61	-1
0	156300	23.71	-1
0	156993	23.81	-1
0	157686	23.91	-1
0	158388	24.01	-1
0	159081	24.11	-1
0	159774	24.21	-1
0	160467	24.31	-1
0	161160	24.41	-1
0	161853	24.51	-1
0	162546	24.61	-1
0	163239	24.71	-1
0	163932	24.81	-1
0	164625	24.91	-1
0	165327	25.01	-1
0	166020	25.11	-1
0	166713	25.21	-1
0	167406	25.31	-1
0	168099	25.41	-1
0	168792	25.51	-1
0	169485	25.61	-1
0	170178	25.71	-1
0	170871	25.81	-1
0	171564	25.91	-1
0	172266	26.01	-1
0	172959	26.11	-1
0	173652	26.21	-1
0	174345	26.31	-1
0	175038	26.41	-1
0	175731	26.51	-1
0	176424	26.61	-1
0	177117	26.71	-1
0	177810	26.81	-1
0	178503	26.91	-1
0	179205	27.01	-1
0	179898	27.11	-1
0	180591	27.21	-1
0	181284	27.31	-1
0	181977	27.41	-1
0	182670	27.51	-1
0	183363	27.61	-1
0	184056	27.71	-1
0	184749	27.81	-1
0	185442	27.91	-1
0	186144	28.01	-1
0	186837	28.11	-1
0	187530	28.21	-1
0	188223	28.31	-1
0	188916	28.41	-1
0	189609	28.51	-1
0	190302	28.61	-1
0	190995	28.71	-1
0	191688	28.81	-1
0	192381	28.91	-1
0	193083	29.01	-1
0	193776	29.11	-1
0	194469	29.21	-1
0	195162	29.31	-1
0	195855	29.41	-1
0	196548	29.51	-1
0	197241	29.61	-1
0	197934	29.71	-1
0	198627	29.81	-1
0	199320	29.91	-1
0	200022	30.01	-1
0	200715	30.11	-1
0	201408	30.21	-1
0	202101	30.31	-1
0	202794	30.41	-1
0	203487	30.51	-1
0	204180	30.61	-1
0	204873	30.71	-1
0	205566	30.81	-1
0	206259	30.91	-1
0	206961	31.01	-1
0	207654	31.11	-1
0	208347	31.21	-1
0	209040	31.31	-1
0	209733	31.41	-1
0	210426	31.51	-1
0	211119	31.61	-1
0	211812	31.71	-1
0	212505	31.81	-1
0	213198	31.91	-1
0	213900	32.01	-1
0	214593	32.11	-1
0	215286	32.21	-1
0	215979	32.31	-1
0	216672	32.41	-1
0	217365	32.51	-1
0	218058	32.61	-1
0	218751	32.71	-1
0	219444	32.81	-1
0	220137	32.91	-1
0	220839	33.01	-1
0	221532	33.11	-1
0	222225	33.21	-1
0	222918	33.31	-1
0	223611	33.41	-1
0	224304	33.51	-1
0	224997	33.61	-1
0	225690	33.71	-1
0	226383	33.81	-1
0	227076	33.91	-1
0	227778	34.01	-1
0	228471	34.11	-1
0	229164	34.21	-1
0	229857	34.31	-1
0	230550	34.41	-1
0	231243	34.51	-1
0	231936	34.61	-1
0	232629	34.71	-1
0	233322	34.81	-1
0	234015	34.91	-1
0	234717	35.01	-1
0	235410	35.11	-1
0	236103	35.21	-1
0	236796	35.31	-1
0	237489	35.41	-1
0	238182	35.51	-1
0	238875	35.61	-1
0	239568	35.71	-1
0	240261	35.81	-1
0	240954	35.91	-1
0	241656	36.01	-1
0	242349	36.11	-1
0	243042	36.21	-1
0	243735	36.31	-1
0	244428	36.41	-1
0	245121	36.51	-1
0	245814	36.61	-1
0	246507	36.71	-1
0	247200	36.81	-1
0	247893	36.91	-1
0	248595	37.01	-1
0	249288	37.11	-1
0	249981	37.21	-1
0	250674	37.31	-1
0	251367	37.41	-1
0	252060	37.51	-1
0	252753	37.61	-1
0	253446	37.71	-1
0	254139	37.81	-1
0	254832	37.91	-1
0	255534	38.01	-1
0	256227	38.11	-1
0	256920	38.21	-1
0	257613	38.31	-1
0	258306	38.41	-1
0	258999	38.51	-1
0	259692	38.61	-1
0	260385	38.71	-1
0	261078	38.81	-1
0	261771	38.91	-1
0	262473	39.01	-1
0	263166	39.11	-1
0	263859	39.21	-1
0	264552	39.31	-1
0	265245	39.41	-1
0	265938	39.51	-1
0	266631	39.61	-1
0	267324	39.71	-1
0	268017	39.81	-1
0	268710	39.91	-1
0	269412	40.01	-1
0	270105	40.11	-1
0	270798	40.21	-1
0	271491	40.31	-1
0	272184	40.41	-1
0	272877	40.51	-1
0	273570	40.61	-1
0	274263	40.71	-1
0	274956	40.81	-1
0	275649	40.91	-1
0	276351	41.01	-1
0	277044	41.11	-1
0	277737	41.21	-1
0	278430	41.31	-1
0	279123	41.41	-1
0	279816	41.51	-1
0	280509	41.61	-1
0	281202	41.71	-1
0	281895	41.81	-1
0	282588	41.91	-1
0	283290	42.01	-1
0	283983	42.11	-1
0	284676	42.21	-1
0	285369	42.31	-1
0	286062	42.41	-1
0	286755	42.51	-1
0	287448	42.61	-1
0	288244	42.71	-1
0	288936	42.81	-1
0	289628	42.91	-1
0	290329	43.01	-1
0	291021	43.11	-1
0	291713	43.21	-1
0	292405	43.31	-1
0	293097	43.41	-1
0	293789	43.51	-1
0	294481	43.61	-1
0	295173	43.71	-1
0	295865	43.81	-1
0	296557	43.91	-1
0	297258	44.01	-1
0	297950	44.11	-1
0	298642	44.21	-1
0	299334	44.31	-1
0	300026	44.41	-1
0	300718	44.51	-1
0	301410	44.61	-1
0	302102	44.71	-1
0	302794	44.81	-1
0	303486	44.91	-1
0	304187	45.01	-1
0	304879	45.11	-1
0	305571	45.21	-1
0	306263	45.31	-1
0	306955	45.41	-1
0	307647	45.51	-1
0	308339	45.61	-1
0	309031	45.71	-1
0	309723	45.81	-1
0	310415	45.91	-1
0	311116	46.01	-1
0	311808	46.11	-1
0	312500	46.21	-1
0	313192	46.31	-1
0	313884	46.41	-1
0	314576	46.51	-1
0	315268	46.61	-1
0	315960	46.71	-1
0	316652	46.81	-1
0	317344	46.91	-1
0	318045	47.01	-1
0	318737	47.11	-1
0	319429	47.21	-1
0	320121	47.31	-1
0	320813	47.41	-1
0	321505	47.51	-1
0	322197	47.61	-1
0	322889	47.71	-1
0	323581	47.81	-1
0	324273	47.91	-1
0	324974	48.01	-1
0	325666	48.11	-1
0	326358	48.21	-1
0	327050	48.31	-1
0	327742	48.41	-1
0	328537	48.51	-1
0	329228	48.61	-1
0	329919	48.71	-1
0	330610	48.81	-1
0	331301	48.91	-1
0	332001	49.01	-1
0	332692	49.11	-1
0	333383	49.21	-1
0	334074	49.31	-1
0	334765	49.41	-1
0	335456	49.51	-1
0	336147	49.61	-1
0	336838	49.71	-1
0	337529	49.81	-1
0	338220	49.91	-1
0	338920	50.01	-1
0	339611	50.11	-1
0	340302	50.21	-1
0	340993	50.31	-1
0	341684	50.41	-1
0	342375	50.51	-1
0	343066	50.61	-1
0	343757	50.71	-1
0	344448	50.81	-1
0	345139	50.91	-1
0	345839	51.01	-1
0	346530	51.11	-1
0	347221	51.21	-1
0	347912	51.31	-1
0	348603	51.41	-1
0	349294	51.51	-1
0	349985	51.61	-1
0	350676	51.71	-1
0	351367	51.81	-1
0	352058	51.91	-1
0	352758	52.01	-1
0	353449	52.11	-1
0	354140	52.21	-1
0	354831	52.31	-1
0	355522	52.41	-1
0	356213	52.51	-1
0	356904	52.61	-1
0	357595	52.71	-1
0	358286	52.81	-1
0	358977	52.91	-1
0	359677	53.01	-1
0	360368	53.11	-1
0	361059	53.21	-1
0	361750	53.31	-1
0	362441	53.41	-1
0	363132	53.51	-1
0	363823	53.61	-1
0	364514	53.71	-1
0	365308	53.81	-1
0	365998	53.91	-1
0	366697	54.01	-1
0	367387	54.11	-1
0	368077	54.21	-1
0	368767	54.31	-1
0	369457	54.41	-1
0	370147	54.51	-1
0	370837	54.61	-1
0	371527	54.71	-1
0	372217	54.81	-1
0	372907	54.91	-1
0	373606	55.01	-1
0	374296	55.11	-1
0	374986	55.21	-1
0	375676	55.31	-1
0	376366	55.41	-1
0	377056	55.51	-1
0	377746	55.61	-1
0	378436	55.71	-1
0	379126	55.81	-1
0	379816	55.91	-1
0	380515	56.01	-1
0	381205	56.11	-1
0	381895	56.21	-1
0	382585	56.31	-1
0	383275	56.41	-1
0	383965	56.51	-1
0	384655	56.61	-1
0	385345	56.71	-1
0	386035	56.81	-1
0	386725	56.91	-1
0	387424	57.01	-1
0	388114	57.11	-1
0	388804	57.21	-1
0	389494	57.31	-1
0	390184	57.41	-1
0	390874	57.51	-1
0	391564	57.61	-1
0	392254	57.71	-1
0	392944	57.81	-1
0	393634	57.91	-1
0	394333	58.01	-1
0	395023	58.11	-1
0	395713	58.21	-1
0	396403	58.31	-1
0	397093	58.41	-1
0	397783	58.51	-1
0	398576	58.61	-1
0	399265	58.71	-1
0	399954	58.81	-1
0	400643	58.91	-1
0	401341	59.01	-1
0	402030	59.11	-1
0	402719	59.21	-1
0	403408	59.31	-1
0	404097	59.41	-1
0	404786	59.51	-1
0	405475	59.61	-1
0	406164	59.71	-1
0	406853	59.81	-1
0	407542	59.91	-1
0	408240	60.01	-1
0	408929	60.11	-1
0	409618	60.21	-1
0	410307	60.31	-1
0	410996	60.41	-1
0	411685	60.51	-1
0	412374	60.61	-1
0	413063	60.71	-1
0	413752	60.81	-1
0	414441	60.91	-1
0	415139	61.01	-1
0	415828	61.11	-1
0	416517	61.21	-1
0	417206	61.31	-1
0	417895	61.41	-1
0	418584	61.51	-1
0	419273	61.61	-1
0	419962	61.71	-1
0	420651	61.81	-1
0	421340	61.91	-1
0	422038	62.01	-1
0	422727	62.11	-1
0	423416	62.21	-1
0	424105	62.31	-1
0	424794	62.41	-1
0	425483	62.51	-1
0	426172	62.61	-1
0	426861	62.71	-1
0	427550	62.81	-1
0	428239	62.91	-1
0	428937	63.01	-1
0	429626	63.11	-1
0	430315	63.21	-1
0	431107	63.31	-1
0	431795	63.41	-1
0	432483	63.51	-1
0	433171	63.61	-1
0	433859	63.71	-1
0	434547	63.81	-1
0	435235	63.91	-1
0	435932	64.01	-1
0	436620	64.11	-1
0	437308	64.21	-1
0	437996	64.31	-1
0	438684	64.41	-1
0	439372	64.51	-1
0	440060	64.61	-1
0	440748	64.71	-1
0	441436	64.81	-1
0	442124	64.91	-1
0	442821	65.01	-1
0	443509	65.11	-1
0	444197	65.21	-1
0	444885	65.31	-1
0	445573	65.41	-1
0	446261	65.51	-1
0	446949	65.61	-1
0	447637	65.71	-1
0	448325	65.81	-1
0	449013	65.91	-1
0	449710	66.01	-1
0	450398	66.11	-1
0	451086	66.21	-1
0	451774	66.31	-1
0	452462	66.41	-1
0	453150	66.51	-1
0	453838	66.61	-1
0	454526	66.71	-1
0	455214	66.81	-1
0	455902	66.91	-1
0	456599	67.01	-1
0	457287	67.11	-1
0	457975	67.21	-1
0	458663	67.31	-1
0	459351	67.41	-1
0	460039	67.51	-1
0	460727	67.61	-1
0	461518	67.71	-1
0	462205	67.81	-1
0	462892	67.91	-1
0	463588	68.01	-1
0	464275	68.11	-1
0	464962	68.21	-1
0	465649	68.31	-1
0	466336	68.41	-1
0	467023	68.51	-1
0	467710	68.61	-1
0	468397	68.71	-1
0	469084	68.81	-1
0	469771	68.91	-1
0	470467	69.01	-1
0	471154	69.11	-1
0	471841	69.21	-1
0	472528	69.31	-1
0	473215	69.41	-1
0	473902	69.51	-1
0	474589	69.61	-1
0	475276	69.71	-1
0	475963	69.81	-1
0	476650	69.91	-1
0	477346	70.01	-1
0	478033	70.11	-1
0	478720	70.21	-1
0	479407	70.31	-1
0	480094	70.41	-1
0	480781	70.51	-1
0	481468	70.61	-1
0	482155	70.71	-1
0	482842	70.81	-1
0	483529	70.91	-1
0	484225	71.01	-1
0	484912	71.11	-1
0	485599	71.21	-1
0	486286	71.31	-1
0	486973	71.41	-1
0	487660	71.51	-1
0	488347	71.61	-1
0	489034	71.71	-1
0	489721	71.81	-1
0	490408	71.91	-1
0	491207	72.01	-1
0	491893	72.11	-1
0	492579	72.21	-1
0	493265	72.31	-1
0	493951	72.41	-1
0	494637	72.51	-1
0	495323	72.61	-1
0	496009	72.71	-1
0	496695	72.81	-1
0	497381	72.91	-1
0	498076	73.01	-1
0	498762	73.11	-1
0	499448	73.21	-1
0	500134	73.31	-1
0	500820	73.41	-1
0	501506	73.51	-1
0	502192	73.61	-1
0	502878	73.71	-1
0	503564	73.81	-1
0	504250	73.91	-1
0	504945	74.01	-1
0	505631	74.11	-1
0	506317	74.21	-1
0	507003	74.31	-1
0	507689	74.41	-1
0	508375	74.51	-1
0	509061	74.61	-1
0	509747	74.71	-1
0	510433	74.81	-1
0	511119	74.91	-1
0	511814	75.01	-1
0	512500	75.11	-1
0	513186	75.21	-1
0	513872	75.31	-1
0	514558	75.41	-1
0	515244	75.51	-1
0	515930	75.61	-1
0	516616	75.71	-1
0	517302	75.81	-1
0	517988	75.91	-1
0	518683	76.01	-1
0	519369	76.11	-1
0	520982	76.21	-1
0	521667	76.31	-1
0	522352	76.41	-1
0	523037	76.51	-1
0	523722	76.61	-1
0	524407	76.71	-1
0	525092	76.81	-1
0	525777	76.91	-1
0	526471	77.01	-1
0	527156	77.11	-1
0	527841	77.21	-1
0	528526	77.31	-1
0	529211	77.41	-1
0	529896	77.51	-1
0	530581	77.61	-1
0	531266	77.71	-1
0	531951	77.81	-1
0	532636	77.91	-1
0	533330	78.01	-1
0	534015	78.11	-1
0	534700	78.21	-1
0	535385	78.31	-1
0	536070	78.41	-1
0	536755	78.51	-1
0	537440	78.61	-1
0	538125	78.71	-1
0	538810	78.81	-1
0	539495	78.91	-1
0	540189	79.01	-1
0	540874	79.11	-1
0	541559	79.21	-1
0	542244	79.31	-1
0	542929	79.41	-1
0	543614	79.51	-1
0	544299	79.61	-1
0	544984	79.71	-1
0	545669	79.81	-1
0	546354	79.91	-1
0	547048	80.01	-1
0	547733	80.11	-1
0	548418	80.21	-1
0	549103	80.31	-1
0	549788	80.41	-1
0	550473	80.51	-1
0	551158	80.61	-1
0	551843	80.71	-1
0	552528	80.81	-1
0	553213	80.91	-1
0	553907	81.01	-1
0	554592	81.11	-1
0	555277	81.21	-1
0	555962	81.31	-1
0	556647	81.41	-1
0	557332	81.51	-1
0	558017	81.61	-1
0	558702	81.71	-1
0	559387	81.81	-1
0	560072	81.91	-1
0	560766	82.01	-1
0	561451	82.11	-1
0	562136	82.21	-1
0	562821	82.31	-1
0	563506	82.41	-1
0	564191	82.51	-1
0	564876	82.61	-1
0	565561	82.71	-1
0	566246	82.81	-1
0	566931	82.91	-1
0	567625	83.01	-1
0	568310	83.11	-1
0	568995	83.21	-1
0	569680	83.31	-1
0	570365	83.41	-1
0	571050	83.51	-1
0	571735	83.61	-1
0	572420	83.71	-1
0	573105	83.81	-1
0	573790	83.91	-1
0	574484	84.01	-1
0	575169	84.11	-1
0	575854	84.21	-1
0	576539	84.31	-1
0	577224	84.41	-1
0	577909	84.51	-1
0	578594	84.61	-1
0	579279	84.71	-1
0	579964	84.81	-1
0	580649	84.91	-1
0	581343	85.01	-1
0	582028	85.11	-1
0	582713	85.21	-1
0	583398	85.31	-1
0	584083	85.41	-1
0	584768	85.51	-1
0	585453	85.61	-1
0	586138	85.71	-1
0	586823	85.81	-1
0	587508	85.91	-1
0	588202	86.01	-1
0	588887	86.11	-1
0	589572	86.21	-1
0	590257	86.31	-1
0	590942	86.41	-1
0	591627	86.51	-1
0	592312	86.61	-1
0	592997	86.71	-1
0	593682	86.81	-1
0	594367	86.91	-1
0	595061	87.01	-1
0	595746	87.11	-1
0	596431	87.21	-1
0	597116	87.31	-1
0	597801	87.41	-1
0	598486	87.51	-1
0	599171	87.61	-1
0	599856	87.71	-1
0	600541	87.81	-1
0	601226	87.91	-1
0	601920	88.01	-1
0	602605	88.11	-1
0	603290	88.21	-1
0	603975	88.31	-1
0	604660	88.41	-1
0	605345	88.51	-1
0	606030	88.61	-1
0	606715	88.71	-1
0	607400	88.81	-1
0	608085	88.91	-1
0	608779	89.01	-1
0	609464	89.11	-1
0	610149	89.21	-1
0	610834	89.31	-1
0	611519	89.41	-1
0	612204	89.51	-1
0	612889	89.61	-1
0	613574	89.71	-1
0	614259	89.81	-1
0	614944	89.91	-1
0	615638	90.01	-1
0	616323	90.11	-1
0	617008	90.21	-1
0	617693	90.31	-1
0	618378	90.41	-1
0	619063	90.51	-1
0	619748	90.61	-1
0	620433	90.71	-1
0	621118	90.81	-1
0	621803	90.91	-1
0	622497	91.01	-1
0	623182	91.11	-1
0	623867	91.21	-1
0	624552	91.31	-1
0	625237	91.41	-1
0	625922	91.51	-1
0	626607	91.61	-1
0	627292	91.71	-1
0	627977	91.81	-1
0	628662	91.91	-1
0	629356	92.01	-1
0	630041	92.11	-1
0	630726	92.21	-1
0	631411	92.31	-1
0	632096	92.41	-1
0	632781	92.51	-1
0	633466	92.61	-1
0	634151	92.71	-1
0	634836	92.81	-1
0	635521	92.91	-1
0	636215	93.01	-1
0	636900	93.11	-1
0	637585	93.21	-1
0	638270	93.31	-1
0	638955	93.41	-1
0	639640	93.51	-1
0	640325	93.61	-1
0	641010	93.71	-1
0	641695	93.81	-1
0	642380	93.91	22.1446
0	643074	94.01	22.389
0	643759	94.11	22.6335
0	644444	94.21	22.8779
0	645129	94.31	23.1223
0	645814	94.41	23.3668
0	646499	94.51	23.6112
0	647184	94.61	23.8557
0	647869	94.71	24.1001
0	648554	94.81	24.3445
0	649239	94.91	24.589
0	649933	95.01	24.8334
0	650618	95.11	25.0779
0	651303	95.21	25.3223
0	651988	95.31	25.5667
0	652673	95.41	25.8112
0	653358	95.51	26.0556
0	654043	95.61	26.3001
0	654728	95.71	26.5445
0	655413	95.81	26.7889
0	656098	95.91	27.0334
0	656792	96.01	27.2778
0	657477	96.11	27.5223
0	658162	96.21	27.7667
0	658847	96.31	28.0111
0	659532	96.41	28.2556
0	660217	96.51	28.5
0	660902	96.61	28.7445
0	661587	96.71	28.9889
0	662272	96.81	29.2333
0	662957	96.91	29.4778
0	663651	97.01	29.7222
0	664336	97.11	29.9667
0	665021	97.21	30.2111
0	665706	97.31	30.4555
0	666391	97.41	30.7
0	667076	97.51	30.9444
0	667761	97.61	31.1889
0	668446	97.71	31.4333
0	669131	97.81	31.6777
0	669816	97.91	31.9222
0	670510	98.01	32.1666
0	671195	98.11	32.4111
0	671880	98.21	32.6555
0	672565	98.31	32.8999
0	673250	98.41	33.1444
0	673935	98.51	33.3888
0	674620	98.61	33.6333
0	675305	98.71	33.8777
0	675990	98.81	34.1221
0	676675	98.91	34.3666
0	677369	99.01	34.611
0	678054	99.11	34.8555
0	678739	99.21	35.0999
0	679424	99.31	35.3443
0	680109	99.41	35.5888
0	680794	99.51	35.8332
0	681479	99.61	36.0777
0	682164	99.71	36.3221
0	682849	99.81	36.5665
0	683534	99.91	36.811
1	113	1.11	0
1	798	1.21	0
1	1483	1.31	0
1	2168	1.41	0
1	2853	1.51	0
1	3538	1.61	0
1	4223	1.71	0
1	4908	1.81	0
1	5593	1.91	0
1	6287	2.01	0
1	6972	2.11	0
1	7657	2.21	0
1	8342	2.31	0
1	9027	2.41	0
1	9712	2.51	0
1	10397	2.61	0
1	11082	2.71	0
1	11767	2.81	0
1	12452	2.91	0
1	13146	3.01	0
1	13831	3.11	0
1	14516	3.21	0
1	15201	3.31	0
1	15886	3.41	0
1	16571	3.51	0
1	17256	3.61	0
1	17941	3.71	0
1	18626	3.81	0
1	19311	3.91	0
1	20005	4.01	0
1	20690	4.11	0
1	21375	4.21	0
1	22060	4.31	0
1	22745	4.41	0
1	23430	4.51	0
1	24115	4.61	0
1	24800	4.71	0
1	25485	4.81	0
1	26170	4.91	0
1	26864	5.01	0
1	27549	5.11	0
1	28234	5.21	0
1	28919	5.31	0
1	29604	5.41	0
1	30289	5.51	0
1	30974	5.61	0
1	31659	5.71	0
1	32344	5.81	0
1	33029	5.91	0
1	33723	6.01	0
1	34408	6.11	0
1	35093	6.21	0
1	35778	6.31	0
1	36463	6.41	0
1	37148	6.51	0
1	37833	6.61	0
1	38518	6.71	0
1	39203	6.81	0
1	39888	6.91	0
1	40582	7.01	0
1	41267	7.11	0
1	41952	7.21	0
1	42637	7.31	0
1	43322	7.41	0
1	44007	7.51	0
1	44692	7.61	0
1	45377	7.71	0
1	46062	7.81	0
1	46747	7.91	0
1	47441	8.01	0
1	48126	8.11	0
1	48811	8.21	0
1	49496	8.31	0
1	50181	8.41	0
1	50866	8.51	0
1	51551	8.61	0
1	52236	8.71	0
1	52921	8.81	0
1	53606	8.91	0
1	54300	9.01	0
1	54985	9.11	0
1	55670	9.21	0
1	56355	9.31	0
1	57040	9.41	0
1	57725	9.51	0
1	58410	9.61	0
1	59095	9.71	0
1	59780	9.81	0
1	60465	9.91	0
1	61242	10.01	0
1	61935	10.11	0
1	62628	10.21	0
1	63321	10.31	0
1	64014	10.41	0
1	64707	10.51	0
1	65400	10.61	0
1	66093	10.71	0
1	66786	10.81	0
1	67479	10.91	0
1	68181	11.01	0
1	68874	11.11	0
1	69567	11.21	0
1	70260	11.31	0
1	70953	11.41	0
1	71646	11.51	0
1	72339	11.61	0
1	73032	11.71	0
1	73725	11.81	0
1	74418	11.91	0
1	75120	12.01	0
1	75813	12.11	0
1	76506	12.21	0
1	77199	12.31	0
1	77892	12.41	0
1	78585	12.51	0
1	79278	12.61	0
1	79971	12.71	0
1	80664	12.81	0
1	81357	12.91	0
1	82059	13.01	0
1	82752	13.11	0
1	83445	13.21	0
1	84138	13.31	0
1	84831	13.41	0
1	85524	13.51	0
1	86217	13.61	0
1	86910	13.71	0
1	87603	13.81	0
1	88296	13.91	0
1	88998	14.01	0
1	89691	14.11	0
1	90384	14.21	0
1	91077	14.31	0
1	91770	14.41	0
1	92463	14.51	0
1	93156	14.61	0
1	93849	14.71	0
1	94542	14.81	0
1	95235	14.91	0
1	95937	15.01	0
1	96630	15.11	0
1	97323	15.21	0
1	98016	15.31	0
1	98709	15.41	0
1	99402	15.51	0
1	100095	15.61	0
1	100788	15.71	0
1	101481	15.81	0
1	102174	15.91	0
1	102876	16.01	0
1	103569	16.11	0
1	104262	16.21	0
1	104955	16.31	0
1	105648	16.41	0
1	106341	16.51	0
1	107034	16.61	0
1	107727	16.71	0
1	108420	16.81	0
1	109113	16.91	0
1	109815	17.01	0
1	110508	17.11	0
1	111201	17.21	0
1	111894	17.31	0
1	112587	17.41	0
1	113280	17.51	0
1	113973	17.61	0
1	114666	17.71	0
1	115359	17.81	0
1	116052	17.91	0
1	116754	18.01	0
1	117447	18.11	0
1	118140	18.21	0
1	118833	18.31	0
1	119526	18.41	0
1	120219	18.51	0
1	120912	18.61	0
1	121605	18.71	0
1	122298	18.81	0
1	122991	18.91	0
1	123693	19.01	0
1	124386	19.11	0
1	125079	19.21	0
1	125772	19.31	0
1	126465	19.41	0
1	127158	19.51	0
1	127851	19.61	0
1	128544	19.71	0
1	129237	19.81	0
1	129930	19.91	0
1	130632	20.01	0
1	131325	20.11	0
1	132018	20.21	0
1	132711	20.31	0
1	133404	20.41	0
1	134097	20.51	0
1	134790	20.61	0
1	135483	20.71	0
1	136176	20.81	0
1	136869	20.91	0
1	137571	21.01	0
1	138264	21.11	0
1	138957	21.21	0
1	139650	21.31	0
1	140343	21.41	0
1	141036	21.51	0
1	141729	21.61	0
1	142422	21.71	0
1	143115	21.81	0
1	143808	21.91	0
1	144510	22.01	0
1	145203	22.11	0
1	145896	22.21	0
1	146589	22.31	0
1	147282	22.41	0
1	147975	22.51	0
1	148668	22.61	0
1	149361	22.71	0
1	150054	22.81	0
1	150747	22.91	0
1	151449	23.01	0
1	152142	23.11	0
1	152835	23.21	0
1	153528	23.31	0
1	154221	23.41	0
1	154914	23.51	0
1	155607	23.61	0
1	156300	23.71	0
1	156993	23.81	0
1	157686	23.91	0
1	158388	24.01	0
1	159081	24.11	0
1	159774	24.21	0
1	160467	24.31	0
1	161160	24.41	0
1	161853	24.51	0
1	162546	24.61	0
1	163239	24.71	0
1	163932	24.81	0
1	164625	24.91	0
1	165327	25.01	0
1	166020	25.11	0
1	166713	25.21	0
1	167406	25.31	0
1	168099	25.41	0
1	168792	25.51	0
1	169485	25.61	0
1	170178	25.71	0
1	170871	25.81	0
1	171564	25.91	0
1	172266	26.01	0
1	172959	26.11	0
1	173652	26.21	0
1	174345	26.31	0
1	175038	26.41	0
1	175731	26.51	0
1	176424	26.61	0
1	177117	26.71	0
1	177810	26.81	0
1	178503	26.91	0
1	179205	27.01	0
1	179898	27.11	0
1	180591	27.21	0
1	181284	27.31	0
1	181977	27.41	0
1	182670	27.51	0
1	183363	27.61	0
1	184056	27.71	0
1	184749	27.81	0
1	185442	27.91	0
1	186144	28.01	0
1	186837	28.11	0
1	187530	28.21	0
1	188223	28.31	0
1	188916	28.41	0
1	189609	28.51	0
1	190302	28.61	0
1	190995	28.71	0
1	191688	28.81	0
1	192381	28.91	0
1	193083	29.01	0
1	193776	29.11	0
1	194469	29.21	0
1	195162	29.31	0
1	195855	29.41	0
1	196548	29.51	0
1	197241	29.61	0
1	197934	29.71	0
1	198627	29.81	0
1	199320	29.91	0
1	200022	30.01	0
1	200715	30.11	0
1	201408	30.21	0
1	202101	30.31	0
1	202794	30.41	0
1	203487	30.51	0
1	204180	30.61	0
1	204873	30.71	0
1	205566	30.81	0
1	206259	30.91	0
1	206961	31.01	0
1	207654	31.11	0
1	208347	31.21	0
1	209040	31.31	0
1	209733	31.41	0
1	210426	31.51	0
1	211119	31.61	0
1	211812	31.71	0
1	212505	31.81	0
1	213198	31.91	0
1	213900	32.01	0
1	214593	32.11	0
1	215286	32.21	0
1	215979	32.31	0
1	216672	32.41	0
1	217365	32.51	0
1	218058	32.61	0
1	218751	32.71	0
1	219444	32.81	0
1	220137	32.91	0
1	220839	33.01	0
1	221532	33.11	0
1	222225	33.21	0
1	222918	33.31	0
1	223611	33.41	0
1	224304	33.51	0
1	224997	33.61	0
1	225690	33.71	0
1	226383	33.81	0
1	227076	33.91	0
1	227778	34.01	0
1	228471	34.11	0
1	229164	34.21	0
1	229857	34.31	0
1	230550	34.41	0
1	231243	34.51	0
1	231936	34.61	0
1	232629	34.71	0
1	233322	34.81	0
1	234015	34.91	0
1	234717	35.01	0
1	235410	35.11	0
1	236103	35.21	0
1	236796	35.31	0
1	237489	35.41	0
1	238182	35.51	0
1	238875	35.61	0
1	239568	35.71	0
1	240261	35.81	0
1	240954	35.91	0
1	241656	36.01	0
1	242349	36.11	0
1	243042	36.21	0
1	243735	36.31	0
1	244428	36.41	0
1	245121	36.51	0
1	245814	36.61	0
1	246507	36.71	0
1	247200	36.81	0
1	247893	36.91	0
1	248595	37.01	0
1	249288	37.11	0
1	249981	37.21	0
1	250674	37.31	0
1	251367	37.41	0
1	252060	37.51	0
1	252753	37.61	0
1	253446	37.71	0
1	254139	37.81	0
1	254832	37.91	0
1	255534	38.01	0
1	256227	38.11	0
1	256920	38.21	0
1	257613	38.31	0
1	258306	38.41	0
1	258999	38.51	0
1	259692	38.61	0
1	260385	38.71	0
1	261078	38.81	0
1	261771	38.91	0
1	262473	39.01	0
1	263166	39.11	0
1	263859	39.21	0
1	264552	39.31	0
1	265245	39.41	0
1	265938	39.51	0
1	266631	39.61	0
1	267324	39.71	0
1	268017	39.81	0
1	268710	39.91	0
1	269412	40.01	0
1	270105	40.11	0
1	270798	40.21	0
1	271491	40.31	0
1	272184	40.41	0
1	272877	40.51	0
1	273570	40.61	0
1	274263	40.71	0
1	274956	40.81	0
1	275649	40.91	0
1	276351	41.01	0
1	277044	41.11	0
1	277737	41.21	0
1	278430	41.31	0
1	279123	41.41	0
1	279816	41.51	0
1	280509	41.61	0
1	281202	41.71	0
1	281895	41.81	0
1	282588	41.91	0
1	283290	42.01	0
1	283983	42.11	0
1	284676	42.21	0
1	285369	42.31	0
1	286062	42.41	0
1	286755	42.51	0
1	287448	42.61	0
1	288244	42.71	0
1	288936	42.81	0
1	289628	42.91	0
1	290329	43.01	0
1	291021	43.11	0
1	291713	43.21	0
1	292405	43.31	0
1	293097	43.41	0
1	293789	43.51	0
1	294481	43.61	0
1	295173	43.71	0
1	295865	43.81	0
1	296557	43.91	0
1	297258	44.01	0
1	297950	44.11	0
1	298642	44.21	0
1	299334	44.31	0
1	300026	44.41	0
1	300718	44.51	0
1	301410	44.61	0
1	302102	44.71	0
1	302794	44.81	0
1	303486	44.91	0
1	304187	45.01	0
1	304879	45.11	0
1	305571	45.21	0
1	306263	45.31	0
1	306955	45.41	0
1	307647	45.51	0
1	308339	45.61	0
1	309031	45.71	0
1	309723	45.81	0
1	310415	45.91	0
1	311116	46.01	0
1	311808	46.11	0
1	312500	46.21	0
1	313192	46.31	0
1	313884	46.41	0
1	314576	46.51	0
1	315268	46.61	0
1	315960	46.71	0
1	316652	46.81	0
1	317344	46.91	0
1	318045	47.01	0
1	318737	47.11	0
1	319429	47.21	0
1	320121	47.31	0
1	320813	47.41	0
1	321505	47.51	0
1	322197	47.61	0
1	322889	47.71	0
1	323581	47.81	0
1	324273	47.91	0
1	324974	48.01	0
1	325666	48.11	0
1	326358	48.21	0
1	327050	48.31	0
1	327742	48.41	0
1	328537	48.51	0
1	329228	48.61	0
1	329919	48.71	0
1	330610	48.81	0
1	331301	48.91	0
1	332001	49.01	0
1	332692	49.11	0
1	333383	49.21	0
1	334074	49.31	0
1	334765	49.41	0
1	335456	49.51	0
1	336147	49.61	0
1	336838	49.71	0
1	337529	49.81	0
1	338220	49.91	0
1	338920	50.01	0
1	339611	50.11	0
1	340302	50.21	0
1	340993	50.31	0
1	341684	50.41	0
1	342375	50.51	0
1	343066	50.61	0
1	343757	50.71	0
1	344448	50.81	0
1	345139	50.91	0
1	345839	51.01	0
1	346530	51.11	0
1	347221	51.21	0
1	347912	51.31	0
1	348603	51.41	0
1	349294	51.51	0
1	349985	51.61	0
1	350676	51.71	0
1	351367	51.81	0
1	352058	51.91	0
1	352758	52.01	0
1	353449	52.11	0
1	354140	52.21	0
1	354831	52.31	0
1	355522	52.41	0
1	356213	52.51	0
1	356904	52.61	0
1	357595	52.71	0
1	358286	52.81	0
1	358977	52.91	0
1	359677	53.01	0
1	360368	53.11	0
1	361059	53.21	0
1	361750	53.31	0
1	362441	53.41	0
1	363132	53.51	0
1	363823	53.61	0
1	364514	53.71	0
1	365308	53.81	0
1	365998	53.91	0
1	366697	54.01	0
1	367387	54.11	0
1	368077	54.21	0
1	368767	54.31	0
1	369457	54.41	0
1	370147	54.51	0
1	370837	54.61	0
1	371527	54.71	0
1	372217	54.81	0
1	372907	54.91	0
1	373606	55.01	0
1	374296	55.11	0
1	374986	55.21	0
1	375676	55.31	0
1	376366	55.41	0
1	377056	55.51	0
1	377746	55.61	0
1	378436	55.71	0
1	379126	55.81	0
1	379816	55.91	0
1	380515	56.01	0
1	381205	56.11	0
1	381895	56.21	0
1	382585	56.31	0
1	383275	56.41	0
1	383965	56.51	0
1	384655	56.61	0
1	385345	56.71	0
1	386035	56.81	0
1	386725	56.91	0
1	387424	57.01	0
1	388114	57.11	0
1	388804	57.21	0
1	389494	57.31	0
1	390184	57.41	0
1	390874	57.51	0
1	391564	57.61	0
1	392254	57.71	0
1	392944	57.81	0
1	393634	57.91	0
1	394333	58.01	0
1	395023	58.11	0
1	395713	58.21	0
1	396403	58.31	0
1	397093	58.41	0
1	397783	58.51	0
1	398576	58.61	0
1	399265	58.71	0
1	399954	58.81	0
1	400643	58.91	0
1	401341	59.01	0
1	402030	59.11	0
1	402719	59.21	0
1	403408	59.31	0
1	404097	59.41	0
1	404786	59.51	0
1	405475	59.61	0
1	406164	59.71	0
1	406853	59.81	0
1	407542	59.91	0
1	408240	60.01	0
1	408929	60.11	0
1	409618	60.21	0
1	410307	60.31	0
1	410996	60.41	0
1	411685	60.51	0
1	412374	60.61	0
1	413063	60.71	0
1	413752	60.81	0
1	414441	60.91	0
1	415139	61.01	0
1	415828	61.11	0
1	416517	61.21	0
1	417206	61.31	0
1	417895	61.41	0
1	418584	61.51	0
1	419273	61.61	0
1	419962	61.71	0
1	420651	61.81	0
1	421340	61.91	0
1	422038	62.01	0
1	422727	62.11	0
1	423416	62.21	0
1	424105	62.31	0
1	424794	62.41	0
1	425483	62.51	0
1	426172	62.61	0
1	426861	62.71	0
1	427550	62.81	0
1	428239	62.91	0
1	428937	63.01	0
1	429626	63.11	0
1	430315	63.21	0
1	431107	63.31	0
1	431795	63.41	0
1	432483	63.51	0
1	433171	63.61	0
1	433859	63.71	0
1	434547	63.81	0
1	435235	63.91	0
1	435932	64.01	0
1	436620	64.11	0
1	437308	64.21	0
1	437996	64.31	0
1	438684	64.41	0
1	439372	64.51	0
1	440060	64.61	0
1	440748	64.71	0
1	441436	64.81	0
1	442124	64.91	0
1	442821	65.01	0
1	443509	65.11	0
1	444197	65.21	0
1	444885	65.31	0
1	445573	65.41	0
1	446261	65.51	0
1	446949	65.61	0
1	447637	65.71	0
1	448325	65.81	0
1	449013	65.91	0
1	449710	66.01	0
1	450398	66.11	0
1	451086	66.21	0
1	451774	66.31	0
1	452462	66.41	0
1	453150	66.51	0
1	453838	66.61	0
1	454526	66.71	0
1	455214	66.81	0
1	455902	66.91	0
1	456599	67.01	0
1	457287	67.11	0
1	457975	67.21	0
1	458663	67.31	0
1	459351	67.41	0
1	460039	67.51	0
1	460727	67.61	0
1	461518	67.71	0
1	462205	67.81	0
1	462892	67.91	0
1	463588	68.01	0
1	464275	68.11	0
1	464962	68.21	0
1	465649	68.31	0
1	466336	68.41	0
1	467023	68.51	0
1	467710	68.61	0
1	468397	68.71	0
1	469084	68.81	0
1	469771	68.91	0
1	470467	69.01	0
1	471154	69.11	0
1	471841	69.21	0
1	472528	69.31	0
1	473215	69.41	0
1	473902	69.51	0
1	474589	69.61	0
1	475276	69.71	0
1	475963	69.81	0
1	476650	69.91	0
1	477346	70.01	0
1	478033	70.11	0
1	478720	70.21	0
1	479407	70.31	0
1	480094	70.41	0
1	480781	70.51	0
1	481468	70.61	0
1	482155	70.71	0
1	482842	70.81	0
1	483529	70.91	0
1	484225	71.01	0
1	484912	71.11	0
1	485599	71.21	0
1	486286	71.31	0
1	486973	71.41	0
1	487660	71.51	0
1	488347	71.61	0
1	489034	71.71	0
1	489721	71.81	0
1	490408	71.91	0
1	491207	72.01	0
1	491893	72.11	0
1	492579	72.21	0
1	493265	72.31	0
1	493951	72.41	0
1	494637	72.51	0
1	495323	72.61	0
1	496009	72.71	0
1	496695	72.81	0
1	497381	72.91	0
1	498076	73.01	0
1	498762	73.11	0
1	499448	73.21	0
1	500134	73.31	0
1	500820	73.41	0
1	501506	73.51	0
1	502192	73.61	0
1	502878	73.71	0
1	503564	73.81	0
1	504250	73.91	0
1	504945	74.01	0
1	505631	74.11	0
1	506317	74.21	0
1	507003	74.31	0
1	507689	74.41	0
1	508375	74.51	0
1	509061	74.61	0
1	509747	74.71	0
1	510433	74.81	0
1	511119	74.91	0
1	511814	75.01	0
1	512500	75.11	0
1	513186	75.21	0
1	513872	75.31	0
1	514558	75.41	0
1	515244	75.51	0
1	515930	75.61	0
1	516616	75.71	0
1	517302	75.81	0
1	517988	75.91	0
1	518683	76.01	0
1	519369	76.11	0
1	520982	76.21	0
1	521667	76.31	0
1	522352	76.41	0
1	523037	76.51	0
1	523722	76.61	0
1	524407	76.71	0
1	525092	76.81	0
1	525777	76.91	0
1	526471	77.01	0
1	527156	77.11	0
1	527841	77.21	0
1	528526	77.31	0
1	529211	77.41	0
1	529896	77.51	0
1	530581	77.61	0
1	531266	77.71	0
1	531951	77.81	0
1	532636	77.91	0
1	533330	78.01	0
1	534015	78.11	0
1	534700	78.21	0
1	535385	78.31	0
1	536070	78.41	0
1	536755	78.51	0
1	537440	78.61	0
1	538125	78.71	0
1	538810	78.81	0
1	539495	78.91	0
1	540189	79.01	0
1	540874	79.11	0
1	541559	79.21	0
1	542244	79.31	0
1	542929	79.41	0
1	543614	79.51	0
1	544299	79.61	0
1	544984	79.71	0
1	545669	79.81	0
1	546354	79.91	0
1	547048	80.01	0
1	547733	80.11	0
1	548418	80.21	0
1	549103	80.31	0
1	549788	80.41	0
1	550473	80.51	0
1	551158	80.61	0
1	551843	80.71	0
1	552528	80.81	0
1	553213	80.91	0
1	553907	81.01	0
1	554592	81.11	0
1	555277	81.21	0
1	555962	81.31	0
1	556647	81.41	0
1	557332	81.51	0
1	558017	81.61	0
1	558702	81.71	0
1	559387	81.81	0
1	560072	81.91	0
1	560766	82.01	0
1	561451	82.11	0
1	562136	82.21	0
1	562821	82.31	0
1	563506	82.41	0
1	564191	82.51	0
1	564876	82.61	0
1	565561	82.71	0
1	566246	82.81	0
1	566931	82.91	0
1	567625	83.01	0
1	568310	83.11	0
1	568995	83.21	0
1	569680	83.31	0
1	570365	83.41	0
1	571050	83.51	0
1	571735	83.61	0
1	572420	83.71	0
1	573105	83.81	0
1	573790	83.91	0
1	574484	84.01	0
1	575169	84.11	0
1	575854	84.21	0
1	576539	84.31	0
1	577224	84.41	0
1	577909	84.51	0
1	578594	84.61	0
1	579279	84.71	0
1	579964	84.81	0
1	580649	84.91	0
1	581343	85.01	0
1	582028	85.11	0
1	582713	85.21	0
1	583398	85.31	0
1	584083	85.41	0
1	584768	85.51	0
1	585453	85.61	0
1	586138	85.71	0
1	586823	85.81	0
1	587508	85.91	0
1	588202	86.01	0
1	588887	86.11	0
1	589572	86.21	0
1	590257	86.31	0
1	590942	86.41	0
1	591627	86.51	0
1	592312	86.61	0
1	592997	86.71	0
1	593682	86.81	0
1	594367	86.91	0
1	595061	87.01	0
1	595746	87.11	0
1	596431	87.21	0
1	597116	87.31	0
1	597801	87.41	0
1	598486	87.51	0
1	599171	87.61	0
1	599856	87.71	0
1	600541	87.81	0
1	601226	87.91	0
1	601920	88.01	0
1	602605	88.11	0
1	603290	88.21	0
1	603975	88.31	0
1	604660	88.41	0
1	605345	88.51	0
1	606030	88.61	0
1	606715	88.71	0
1	607400	88.81	0
1	608085	88.91	0
1	608779	89.01	0
1	609464	89.11	0
1	610149	89.21	0
1	610834	89.31	0
1	611519	89.41	0
1	612204	89.51	0
1	612889	89.61	0
1	613574	89.71	0
1	614259	89.81	0
1	614944	89.91	0
1	615638	90.01	0
1	616323	90.11	0
1	617008	90.21	0
1	617693	90.31	0
1	618378	90.41	0
1	619063	90.51	0
1	619748	90.61	0
1	620433	90.71	0
1	621118	90.81	0
1	621803	90.91	0
1	622497	91.01	0
1	623182	91.11	0
1	623867	91.21	0
1	624552	91.31	0
1	625237	91.41	0
1	625922	91.51	0
1	626607	91.61	0
1	627292	91.71	0
1	627977	91.81	0
1	628662	91.91	0
1	629356	92.01	0
1	630041	92.11	0
1	630726	92.21	0
1	631411	92.31	0
1	632096	92.41	0
1	632781	92.51	0
1	633466	92.61	0
1	634151	92.71	0
1	634836	92.81	0
1	635521	92.91	0
1	636215	93.01	0
1	636900	93.11	0
1	637585	93.21	0
1	638270	93.31	0
1	638955	93.41	0
1	639640	93.51	0
1	640325	93.61	0
1	641010	93.71	0
1	641695	93.81	0
1	642380	93.91	2.4444
1	643074	94.01	2.4444
1	643759	94.11	2.4444
1	644444	94.21	2.4444
1	645129	94.31	2.4444
1	645814	94.41	2.4444
1	646499	94.51	2.4444
1	647184	94.61	2.4444
1	647869	94.71	2.4444
1	648554	94.81	2.4444
1	649239	94.91	2.4444
1	649933	95.01	2.4444
1	650618	95.11	2.4444
1	651303	95.21	2.4444
1	651988	95.31	2.4444
1	652673	95.41	2.4444
1	653358	95.51	2.4444
1	654043	95.61	2.4444
1	654728	95.71	2.4444
1	655413	95.81	2.4444
1	656098	95.91	2.4444
1	656792	96.01	2.4444
1	657477	96.11	2.4444
1	658162	96.21	2.4444
1	658847	96.31	2.4444
1	659532	96.41	2.4444
1	660217	96.51	2.4444
1	660902	96.61	2.4444
1	661587	96.71	2.4444
1	662272	96.81	2.4444
1	662957	96.91	2.4444
1	663651	97.01	2.4444
1	664336	97.11	2.4444
1	665021	97.21	2.4444
1	665706	97.31	2.4444
1	666391	97.41	2.4444
1	667076	97.51	2.4444
1	667761	97.61	2.4444
1	668446	97.71	2.4444
1	669131	97.81	2.4444
1	669816	97.91	2.4444
1	670510	98.01	2.4444
1	671195	98.11	2.4444
1	671880	98.21	2.4444
1	672565	98.31	2.4444
1	673250	98.41	2.4444
1	673935	98.51	2.4444
1	674620	98.61	2.4444
1	675305	98.71	2.4444
1	675990	98.81	2.4444
1	676675	98.91	2.4444
1	677369	99.01	2.4444
1	678054	99.11	2.4444
1	678739	99.21	2.4444
1	679424	99.31	2.4444
1	680109	99.41	2.4444
1	680794	99.51	2.4444
1	681479	99.61	2.4444
1	682164	99.71	2.4444
1	682849	99.81	2.4444
1	683534	99.91	2.4444
2	113	1.11	0
2	798	1.21	0
2	1483	1.31	0
2	2168	1.41	0
2	2853	1.51	0
2	3538	1.61	0
2	4223	1.71	0
2	4908	1.81	0
2	5593	1.91	0
2	6287	2.01	0
2	6972	2.11	0
2	7657	2.21	0
2	8342	2.31	0
2	9027	2.41	0
2	9712	2.51	0
2	10397	2.61	0
2	11082	2.71	0
2	11767	2.81	0
2	12452	2.91	0
2	13146	3.01	0
2	13831	3.11	0
2	14516	3.21	0
2	15201	3.31	0
2	15886	3.41	0
2	16571	3.51	0
2	17256	3.61	0
2	17941	3.71	0
2	18626	3.81	0
2	19311	3.91	0
2	20005	4.01	0
2	20690	4.11	0
2	21375	4.21	0
2	22060	4.31	0
2	22745	4.41	0
2	23430	4.51	0
2	24115	4.61	0
2	24800	4.71	0
2	25485	4.81	0
2	26170	4.91	0
2	26864	5.01	0
2	27549	5.11	0
2	28234	5.21	0
2	28919	5.31	0
2	29604	5.41	0
2	30289	5.51	0
2	30974	5.61	0
2	31659	5.71	0
2	32344	5.81	0
2	33029	5.91	0
2	33723	6.01	0
2	34408	6.11	0
2	35093	6.21	0
2	35778	6.31	0
2	36463	6.41	0
2	37148	6.51	0
2	37833	6.61	0
2	38518	6.71	0
2	39203	6.81	0
2	39888	6.91	0
2	40582	7.01	0
2	41267	7.11	0
2	41952	7.21	0
2	42637	7.31	0
2	43322	7.41	0
2	44007	7.51	0
2	44692	7.61	0
2	45377	7.71	0
2	46062	7.81	0
2	46747	7.91	0
2	47441	8.01	0
2	48126	8.11	0
2	48811	8.21	0
2	49496	8.31	0
2	50181	8.41	0
2	50866	8.51	0
2	51551	8.61	0
2	52236	8.71	0
2	52921	8.81	0
2	53606	8.91	0
2	54300	9.01	0
2	54985	9.11	0
2	55670	9.21	0
2	56355	9.31	0
2	57040	9.41	0
2	57725	9.51	0
2	58410	9.61	0
2	59095	9.71	0
2	59780	9.81	0
2	60465	9.91	0
2	61242	10.01	0
2	61935	10.11	0
2	62628	10.21	0
2	63321	10.31	0
2	64014	10.41	0
2	64707	10.51	0
2	65400	10.61	0
2	66093	10.71	0
2	66786	10.81	0
2	67479	10.91	0
2	68181	11.01	0
2	68874	11.11	0
2	69567	11.21	0
2	70260	11.31	0
2	70953	11.41	0
2	71646	11.51	0
2	72339	11.61	0
2	73032	11.71	0
2	73725	11.81	0
2	74418	11.91	0
2	75120	12.01	0
2	75813	12.11	0
2	76506	12.21	0
2	77199	12.31	0
2	77892	12.41	0
2	78585	12.51	0
2	79278	12.61	0
2	79971	12.71	0
2	80664	12.81	0
2	81357	12.91	0
2	82059	13.01	0
2	82752	13.11	0
2	83445	13.21	0
2	84138	13.31	0
2	84831	13.41	0
2	85524	13.51	0
2	86217	13.61	0
2	86910	13.71	0
2	87603	13.81	0
2	88296	13.91	0
2	88998	14.01	0
2	89691	14.11	0
2	90384	14.21	0
2	91077	14.31	0
2	91770	14.41	0
2	92463	14.51	0
2	93156	14.61	0
2	93849	14.71	0
2	94542	14.81	0
2	95235	14.91	0
2	95937	15.01	0
2	96630	15.11	0
2	97323	15.21	0
2	98016	15.31	0
2	98709	15.41	0
2	99402	15.51	0
2	100095	15.61	0
2	100788	15.71	0
2	101481	15.81	0
2	102174	15.91	0
2	102876	16.01	0
2	103569	16.11	0
2	104262	16.21	0
2	104955	16.31	0
2	105648	16.41	0
2	106341	16.51	0
2	107034	16.61	0
2	107727	16.71	0
2	108420	16.81	0
2	109113	16.91	0
2	109815	17.01	0
2	110508	17.11	0
2	111201	17.21	0
2	111894	17.31	0
2	112587	17.41	0
2	113280	17.51	0
2	113973	17.61	0
2	114666	17.71	0
2	115359	17.81	0
2	116052	17.91	0
2	116754	18.01	0
2	117447	18.11	0
2	118140	18.21	0
2	118833	18.31	0
2	119526	18.41	0
2	120219	18.51	0
2	120912	18.61	0
2	121605	18.71	0
2	122298	18.81	0
2	122991	18.91	0
2	123693	19.01	0
2	124386	19.11	0
2	125079	19.21	0
2	125772	19.31	0
2	126465	19.41	0
2	127158	19.51	0
2	127851	19.61	0
2	128544	19.71	0
2	129237	19.81	0
2	129930	19.91	0
2	130632	20.01	0
2	131325	20.11	0
2	132018	20.21	0
2	132711	20.31	0
2	133404	20.41	0
2	134097	20.51	0
2	134790	20.61	0
2	135483	20.71	0
2	136176	20.81	0
2	136869	20.91	0
2	137571	21.01	0
2	138264	21.11	0
2	138957	21.21	0
2	139650	21.31	0
2	140343	21.41	0
2	141036	21.51	0
2	141729	21.61	0
2	142422	21.71	0
2	143115	21.81	0
2	143808	21.91	0
2	144510	22.01	0
2	145203	22.11	0
2	145896	22.21	0
2	146589	22.31	0
2	147282	22.41	0
2	147975	22.51	0
2	148668	22.61	0
2	149361	22.71	0
2	150054	22.81	0
2	150747	22.91	0
2	151449	23.01	0
2	152142	23.11	0
2	152835	23.21	0
2	153528	23.31	0
2	154221	23.41	0
2	154914	23.51	0
2	155607	23.61	0
2	156300	23.71	0
2	156993	23.81	0
2	157686	23.91	0
2	158388	24.01	0
2	159081	24.11	0
2	159774	24.21	0
2	160467	24.31	0
2	161160	24.41	0
2	161853	24.51	0
2	162546	24.61	0
2	163239	24.71	0
2	163932	24.81	0
2	164625	24.91	0
2	165327	25.01	0
2	166020	25.11	0
2	166713	25.21	0
2	167406	25.31	0
2	168099	25.41	0
2	168792	25.51	0
2	169485	25.61	0
2	170178	25.71	0
2	170871	25.81	0
2	171564	25.91	0
2	172266	26.01	0
2	172959	26.11	0
2	173652	26.21	0
2	174345	26.31	0
2	175038	26.41	0
2	175731	26.51	0
2	176424	26.61	0
2	177117	26.71	0
2	177810	26.81	0
2	178503	26.91	0
2	179205	27.01	0
2	179898	27.11	0
2	180591	27.21	0
2	181284	27.31	0
2	181977	27.41	0
2	182670	27.51	0
2	183363	27.61	0
2	184056	27.71	0
2	184749	27.81	0
2	185442	27.91	0
2	186144	28.01	0
2	186837	28.11	0
2	187530	28.21	0
2	188223	28.31	0
2	188916	28.41	0
2	189609	28.51	0
2	190302	28.61	0
2	190995	28.71	0
2	191688	28.81	0
2	192381	28.91	0
2	193083	29.01	0
2	193776	29.11	0
2	194469	29.21	0
2	195162	29.31	0
2	195855	29.41	0
2	196548	29.51	0
2	197241	29.61	0
2	197934	29.71	0
2	198627	29.81	0
2	199320	29.91	0
2	200022	30.01	0
2	200715	30.11	0
2	201408	30.21	0
2	202101	30.31	0
2	202794	30.41	0
2	203487	30.51	0
2	204180	30.61	0
2	204873	30.71	0
2	205566	30.81	0
2	206259	30.91	0
2	206961	31.01	0
2	207654	31.11	0
2	208347	31.21	0
2	209040	31.31	0
2	209733	31.41	0
2	210426	31.51	0
2	211119	31.61	0
2	211812	31.71	0
2	212505	31.81	0
2	213198	31.91	0
2	213900	32.01	0
2	214593	32.11	0
2	215286	32.21	0
2	215979	32.31	0
2	216672	32.41	0
2	217365	32.51	0
2	218058	32.61	0
2	218751	32.71	0
2	219444	32.81	0
2	220137	32.91	0
2	220839	33.01	0
2	221532	33.11	0
2	222225	33.21	0
2	222918	33.31	0
2	223611	33.41	0
2	224304	33.51	0
2	224997	33.61	0
2	225690	33.71	0
2	226383	33.81	0
2	227076	33.91	0
2	227778	34.01	0
2	228471	34.11	0
2	229164	34.21	0
2	229857	34.31	0
2	230550	34.41	0
2	231243	34.51	0
2	231936	34.61	0
2	232629	34.71	0
2	233322	34.81	0
2	234015	34.91	0
2	234717	35.01	0
2	235410	35.11	0
2	236103	35.21	0
2	236796	35.31	0
2	237489	35.41	0
2	238182	35.51	0
2	238875	35.61	0
2	239568	35.71	0
2	240261	35.81	0
2	240954	35.91	0
2	241656	36.01	0
2	242349	36.11	0
2	243042	36.21	0
2	243735	36.31	0
2	244428	36.41	0
2	245121	36.51	0
2	245814	36.61	0
2	246507	36.71	0
2	247200	36.81	0
2	247893	36.91	0
2	248595	37.01	0
2	249288	37.11	0
2	249981	37.21	0
2	250674	37.31	0
2	251367	37.41	0
2	252060	37.51	0
2	252753	37.61	0
2	253446	37.71	0
2	254139	37.81	0
2	254832	37.91	0
2	255534	38.01	0
2	256227	38.11	0
2	256920	38.21	0
2	257613	38.31	0
2	258306	38.41	0
2	258999	38.51	0
2	259692	38.61	0
2	260385	38.71	0
2	261078	38.81	0
2	261771	38.91	0
2	262473	39.01	0
2	263166	39.11	0
2	263859	39.21	0
2	264552	39.31	0
2	265245	39.41	0
2	265938	39.51	0
2	266631	39.61	0
2	267324	39.71	0
2	268017	39.81	0
2	268710	39.91	0
2	269412	40.01	0
2	270105	40.11	0
2	270798	40.21	0
2	271491	40.31	0
2	272184	40.41	0
2	272877	40.51	0
2	273570	40.61	0
2	274263	40.71	0
2	274956	40.81	0
2	275649	40.91	0
2	276351	41.01	0
2	277044	41.11	0
2	277737	41.21	0
2	278430	41.31	0
2	279123	41.41	0
2	279816	41.51	0
2	280509	41.61	0
2	281202	41.71	0
2	281895	41.81	0
2	282588	41.91	0
2	283290	42.01	0
2	283983	42.11	0
2	284676	42.21	0
2	285369	42.31	0
2	286062	42.41	0
2	286755	42.51	0
2	287448	42.61	0
2	288244	42.71	0
2	288936	42.81	0
2	289628	42.91	0
2	290329	43.01	0
2	291021	43.11	0
2	291713	43.21	0
2	292405	43.31	0
2	293097	43.41	0
2	293789	43.51	0
2	294481	43.61	0
2	295173	43.71	0
2	295865	43.81	0
2	296557	43.91	0
2	297258	44.01	0
2	297950	44.11	0
2	298642	44.21	0
2	299334	44.31	0
2	300026	44.41	0
2	300718	44.51	0
2	301410	44.61	0
2	302102	44.71	0
2	302794	44.81	0
2	303486	44.91	0
2	304187	45.01	0
2	304879	45.11	0
2	305571	45.21	0
2	306263	45.31	0
2	306955	45.41	0
2	307647	45.51	0
2	308339	45.61	0
2	309031	45.71	0
2	309723	45.81	0
2	310415	45.91	0
2	311116	46.01	0
2	311808	46.11	0
2	312500	46.21	0
2	313192	46.31	0
2	313884	46.41	0
2	314576	46.51	0
2	315268	46.61	0
2	315960	46.71	0
2	316652	46.81	0
2	317344	46.91	0
2	318045	47.01	0
2	318737	47.11	0
2	319429	47.21	0
2	320121	47.31	0
2	320813	47.41	0
2	321505	47.51	0
2	322197	47.61	0
2	322889	47.71	0
2	323581	47.81	0
2	324273	47.91	0
2	324974	48.01	0
2	325666	48.11	0
2	326358	48.21	0
2	327050	48.31	0
2	327742	48.41	0
2	328537	48.51	0
2	329228	48.61	0
2	329919	48.71	0
2	330610	48.81	0
2	331301	48.91	0
2	332001	49.01	0
2	332692	49.11	0
2	333383	49.21	0
2	334074	49.31	0
2	334765	49.41	0
2	335456	49.51	0
2	336147	49.61	0
2	336838	49.71	0
2	337529	49.81	0
2	338220	49.91	0
2	338920	50.01	0
2	339611	50.11	0
2	340302	50.21	0
2	340993	50.31	0
2	341684	50.41	0
2	342375	50.51	0
2	343066	50.61	0
2	343757	50.71	0
2	344448	50.81	0
2	345139	50.91	0
2	345839	51.01	0
2	346530	51.11	0
2	347221	51.21	0
2	347912	51.31	0
2	348603	51.41	0
2	349294	51.51	0
2	349985	51.61	0
2	350676	51.71	0
2	351367	51.81	0
2	352058	51.91	0
2	352758	52.01	0
2	353449	52.11	0
2	354140	52.21	0
2	354831	52.31	0
2	355522	52.41	0
2	356213	52.51	0
2	356904	52.61	0
2	357595	52.71	0
2	358286	52.81	0
2	358977	52.91	0
2	359677	53.01	0
2	360368	53.11	0
2	361059	53.21	0
2	361750	53.31	0
2	362441	53.41	0
2	363132	53.51	0
2	363823	53.61	0
2	364514	53.71	0
2	365308	53.81	0
2	365998	53.91	0
2	366697	54.01	0
2	367387	54.11	0
2	368077	54.21	0
2	368767	54.31	0
2	369457	54.41	0
2	370147	54.51	0
2	370837	54.61	0
2	371527	54.71	0
2	372217	54.81	0
2	372907	54.91	0
2	373606	55.01	0
2	374296	55.11	0
2	374986	55.21	0
2	375676	55.31	0
2	376366	55.41	0
2	377056	55.51	0
2	377746	55.61	0
2	378436	55.71	0
2	379126	55.81	0
2	379816	55.91	0
2	380515	56.01	0
2	381205	56.11	0
2	381895	56.21	0
2	382585	56.31	0
2	383275	56.41	0
2	383965	56.51	0
2	384655	56.61	0
2	385345	56.71	0
2	386035	56.81	0
2	386725	56.91	0
2	387424	57.01	0
2	388114	57.11	0
2	388804	57.21	0
2	389494	57.31	0
2	390184	57.41	0
2	390874	57.51	0
2	391564	57.61	0
2	392254	57.71	0
2	392944	57.81	0
2	393634	57.91	0
2	394333	58.01	0
2	395023	58.11	0
2	395713	58.21	0
2	396403	58.31	0
2	397093	58.41	0
2	397783	58.51	0
2	398576	58.61	0
2	399265	58.71	0
2	399954	58.81	0
2	400643	58.91	0
2	401341	59.01	0
2	402030	59.11	0
2	402719	59.21	0
2	403408	59.31	0
2	404097	59.41	0
2	404786	59.51	0
2	405475	59.61	0
2	406164	59.71	0
2	406853	59.81	0
2	407542	59.91	0
2	408240	60.01	0
2	408929	60.11	0
2	409618	60.21	0
2	410307	60.31	0
2	410996	60.41	0
2	411685	60.51	0
2	412374	60.61	0
2	413063	60.71	0
2	413752	60.81	0
2	414441	60.91	0
2	415139	61.01	0
2	415828	61.11	0
2	416517	61.21	0
2	417206	61.31	0
2	417895	61.41	0
2	418584	61.51	0
2	419273	61.61	0
2	419962	61.71	0
2	420651	61.81	0
2	421340	61.91	0
2	422038	62.01	0
2	422727	62.11	0
2	423416	62.21	0
2	424105	62.31	0
2	424794	62.41	0
2	425483	62.51	0
2	426172	62.61	0
2	426861	62.71	0
2	427550	62.81	0
2	428239	62.91	0
2	428937	63.01	0
2	429626	63.11	0
2	430315	63.21	0
2	431107	63.31	0
2	431795	63.41	0
2	432483	63.51	0
2	433171	63.61	0
2	433859	63.71	0
2	434547	63.81	0
2	435235	63.91	0
2	435932	64.01	0
2	436620	64.11	0
2	437308	64.21	0
2	437996	64.31	0
2	438684	64.41	0
2	439372	64.51	0
2	440060	64.61	0
2	440748	64.71	0
2	441436	64.81	0
2	442124	64.91	0
2	442821	65.01	0
2	443509	65.11	0
2	444197	65.21	0
2	444885	65.31	0
2	445573	65.41	0
2	446261	65.51	0
2	446949	65.61	0
2	447637	65.71	0
2	448325	65.81	0
2	449013	65.91	0
2	449710	66.01	0
2	450398	66.11	0
2	451086	66.21	0
2	451774	66.31	0
2	452462	66.41	0
2	453150	66.51	0
2	453838	66.61	0
2	454526	66.71	0
2	455214	66.81	0
2	455902	66.91	0
2	456599	67.01	0
2	457287	67.11	0
2	457975	67.21	0
2	458663	67.31	0
2	459351	67.41	0
2	460039	67.51	0
2	460727	67.61	0
2	461518	67.71	0
2	462205	67.81	0
2	462892	67.91	0
2	463588	68.01	0
2	464275	68.11	0
2	464962	68.21	0
2	465649	68.31	0
2	466336	68.41	0
2	467023	68.51	0
2	467710	68.61	0
2	468397	68.71	0
2	469084	68.81	0
2	469771	68.91	0
2	470467	69.01	0
2	471154	69.11	0
2	471841	69.21	0
2	472528	69.31	0
2	473215	69.41	0
2	473902	69.51	0
2	474589	69.61	0
2	475276	69.71	0
2	475963	69.81	0
2	476650	69.91	0
2	477346	70.01	0
2	478033	70.11	0
2	478720	70.21	0
2	479407	70.31	0
2	480094	70.41	0
2	480781	70.51	0
2	481468	70.61	0
2	482155	70.71	0
2	482842	70.81	0
2	483529	70.91	0
2	484225	71.01	0
2	484912	71.11	0
2	485599	71.21	0
2	486286	71.31	0
2	486973	71.41	0
2	487660	71.51	0
2	488347	71.61	0
2	489034	71.71	0
2	489721	71.81	0
2	490408	71.91	0
2	491207	72.01	0
2	491893	72.11	0
2	492579	72.21	0
2	493265	72.31	0
2	493951	72.41	0
2	494637	72.51	0
2	495323	72.61	0
2	496009	72.71	0
2	496695	72.81	0
2	497381	72.91	0
2	498076	73.01	0
2	498762	73.11	0
2	499448	73.21	0
2	500134	73.31	0
2	500820	73.41	0
2	501506	73.51	0
2	502192	73.61	0
2	502878	73.71	0
2	503564	73.81	0
2	504250	73.91	0
2	504945	74.01	0
2	505631	74.11	0
2	506317	74.21	0
2	507003	74.31	0
2	507689	74.41	0
2	508375	74.51	0
2	509061	74.61	0
2	509747	74.71	0
2	510433	74.81	0
2	511119	74.91	0
2	511814	75.01	0
2	512500	75.11	0
2	513186	75.21	0
2	513872	75.31	0
2	514558	75.41	0
2	515244	75.51	0
2	515930	75.61	0
2	516616	75.71	0
2	517302	75.81	0
2	517988	75.91	0
2	518683	76.01	0
2	519369	76.11	0
2	520982	76.21	0
2	521667	76.31	0
2	522352	76.41	0
2	523037	76.51	0
2	523722	76.61	0
2	524407	76.71	0
2	525092	76.81	0
2	525777	76.91	0
2	526471	77.01	0
2	527156	77.11	0
2	527841	77.21	0
2	528526	77.31	0
2	529211	77.41	0
2	529896	77.51	0
2	530581	77.61	0
2	531266	77.71	0
2	531951	77.81	0
2	532636	77.91	0
2	533330	78.01	0
2	534015	78.11	0
2	534700	78.21	0
2	535385	78.31	0
2	536070	78.41	0
2	536755	78.51	0
2	537440	78.61	0
2	538125	78.71	0
2	538810	78.81	0
2	539495	78.91	0
2	540189	79.01	0
2	540874	79.11	0
2	541559	79.21	0
2	542244	79.31	0
2	542929	79.41	0
2	543614	79.51	0
2	544299	79.61	0
2	544984	79.71	0
2	545669	79.81	0
2	546354	79.91	0
2	547048	80.01	0
2	547733	80.11	0
2	548418	80.21	0
2	549103	80.31	0
2	549788	80.41	0
2	550473	80.51	0
2	551158	80.61	0
2	551843	80.71	0
2	552528	80.81	0
2	553213	80.91	0
2	553907	81.01	0
2	554592	81.11	0
2	555277	81.21	0
2	555962	81.31	0
2	556647	81.41	0
2	557332	81.51	0
2	558017	81.61	0
2	558702	81.71	0
2	559387	81.81	0
2	560072	81.91	0
2	560766	82.01	0
2	561451	82.11	0
2	562136	82.21	0
2	562821	82.31	0
2	563506	82.41	0
2	564191	82.51	0
2	564876	82.61	0
2	565561	82.71	0
2	566246	82.81	0
2	566931	82.91	0
2	567625	83.01	0
2	568310	83.11	0
2	568995	83.21	0
2	569680	83.31	0
2	570365	83.41	0
2	571050	83.51	0
2	571735	83.61	0
2	572420	83.71	0
2	573105	83.81	0
2	573790	83.91	0
2	574484	84.01	0
2	575169	84.11	0
2	575854	84.21	0
2	576539	84.31	0
2	577224	84.41	0
2	577909	84.51	0
2	578594	84.61	0
2	579279	84.71	0
2	579964	84.81	0
2	580649	84.91	0
2	581343	85.01	0
2	582028	85.11	0
2	582713	85.21	0
2	583398	85.31	0
2	584083	85.41	0
2	584768	85.51	0
2	585453	85.61	0
2	586138	85.71	0
2	586823	85.81	0
2	587508	85.91	0
2	588202	86.01	0
2	588887	86.11	0
2	589572	86.21	0
2	590257	86.31	0
2	590942	86.41	0
2	591627	86.51	0
2	592312	86.61	0
2	592997	86.71	0
2	593682	86.81	0
2	594367	86.91	0
2	595061	87.01	0
2	595746	87.11	0
2	596431	87.21	0
2	597116	87.31	0
2	597801	87.41	0
2	598486	87.51	0
2	599171	87.61	0
2	599856	87.71	0
2	600541	87.81	0
2	601226	87.91	0
2	601920	88.01	0
2	602605	88.11	0
2	603290	88.21	0
2	603975	88.31	0
2	604660	88.41	0
2	605345	88.51	0
2	606030	88.61	0
2	606715	88.71	0
2	607400	88.81	0
2	608085	88.91	0
2	608779	89.01	0
2	609464	89.11	0
2	610149	89.21	0
2	610834	89.31	0
2	611519	89.41	0
2	612204	89.51	0
2	612889	89.61	0
2	613574	89.71	0
2	614259	89.81	0
2	614944	89.91	0
2	615638	90.01	0
2	616323	90.11	0
2	617008	90.21	0
2	617693	90.31	0
2	618378	90.41	0
2	619063	90.51	0
2	619748	90.61	0
2	620433	90.71	0
2	621118	90.81	0
2	621803	90.91	0
2	622497	91.01	0
2	623182	91.11	0
2	623867	91.21	0
2	624552	91.31	0
2	625237	91.41	0
2	625922	91.51	0
2	626607	91.61	0
2	627292	91.71	0
2	627977	91.81	0
2	628662	91.91	0
2	629356	92.01	0
2	630041	92.11	0
2	630726	92.21	0
2	631411	92.31	0
2	632096	92.41	0
2	632781	92.51	0
2	633466	92.61	0
2	634151	92.71	0
2	634836	92.81	0
2	635521	92.91	0
2	636215	93.01	0
2	636900	93.11	0
2	637585	93.21	0
2	638270	93.31	0
2	638955	93.41	0
2	639640	93.51	0
2	640325	93.61	0
2	641010	93.71	0
2	641695	93.81	0
2	642380	93.91	0
2	643074	94.01	0
2	643759	94.11	0
2	644444	94.21	0
2	645129	94.31	0
2	645814	94.41	0
2	646499	94.51	0
2	647184	94.61	0
2	647869	94.71	0
2	648554	94.81	0
2	649239	94.91	0
2	649933	95.01	0
2	650618	95.11	0
2	651303	95.21	0
2	651988	95.31	0
2	652673	95.41	0
2	653358	95.51	0
2	654043	95.61	0
2	654728	95.71	0
2	655413	95.81	0
2	656098	95.91	0
2	656792	96.01	0
2	657477	96.11	0
2	658162	96.21	0
2	658847	96.31	0
2	659532	96.41	0
2	660217	96.51	0
2	660902	96.61	0
2	661587	96.71	0
2	662272	96.81	0
2	662957	96.91	0
2	663651	97.01	0
2	664336	97.11	0
2	665021	97.21	0
2	665706	97.31	0
2	666391	97.41	0
2	667076	97.51	0
2	667761	97.61	0
2	668446	97.71	0
2	669131	97.81	0
2	669816	97.91	0
2	670510	98.01	0
2	671195	98.11	0
2	671880	98.21	0
2	672565	98.31	0
2	673250	98.41	0
2	673935	98.51	0
2	674620	98.61	0
2	675305	98.71	0
2	675990	98.81	0
2	676675	98.91	0
2	677369	99.01	0
2	678054	99.11	0
2	678739	99.21	0
2	679424	99.31	0
2	680109	99.41	0
2	680794	99.51	0
2	681479	99.61	0
2	682164	99.71	0
2	682849	99.81	0
2	683534	99.91	0
3	113	1.11	-0.000716383
3	798	1.21	-0.00136341
3	1483	1.31	-0.00186974
3	2168	1.41	-0.00225157
3	2853	1.51	-0.00252443
3	3538	1.61	-0.00270298
3	4223	1.71	-0.00280098
3	4908	1.81	-0.00283113
3	5593	1.91	-0.00280509
3	6287	2.01	-0.00273342
3	6972	2.11	-0.00262559
3	7657	2.21	-0.00249005
3	8342	2.31	-0.00233419
3	9027	2.41	-0.00216447
3	9712	2.51	-0.00198642
3	10397	2.61	-0.00180472
3	11082	2.71	-0.0016233
3	11767	2.81	-0.00144536
3	12452	2.91	-0.00127346
3	13146	3.01	-0.0011096
3	13831	3.11	-0.000955278
3	14516	3.21	-0.000811546
3	15201	3.31	-0.00067908
3	15886	3.41	-0.000558232
3	16571	3.51	-0.000449082
3	17256	3.61	-0.000351487
3	17941	3.71	-0.00026512
3	18626	3.81	-0.000189514
3	19311	3.91	-0.000124092
3	20005	4.01	-6.81972e-05
3	20690	4.11	-2.11209e-05
3	21375	4.21	1.78769e-05
3	22060	4.31	4.9548e-05
3	22745	4.41	7.46407e-05
3	23430	4.51	9.38867e-05
3	24115	4.61	0.000107991
3	24800	4.71	0.000117625
3	25485	4.81	0.000123418
3	26170	4.91	0.000125957
3	26864	5.01	0.000125781
3	27549	5.11	0.00012338
3	28234	5.21	0.000119198
3	28919	5.31	0.000113629
3	29604	5.41	0.000107022
3	30289	5.51	9.96832e-05
3	30974	5.61	9.18747e-05
3	31659	5.71	8.38211e-05
3	32344	5.81	7.57109e-05
3	33029	5.91	6.76999e-05
3	33723	6.01	5.99137e-05
3	34408	6.11	5.24518e-05
3	35093	6.21	4.53896e-05
3	35778	6.31	3.87821e-05
3	36463	6.41	3.2666e-05
3	37148	6.51	2.70628e-05
3	37833	6.61	2.19809e-05
3	38518	6.71	1.74176e-05
3	39203	6.81	1.33618e-05
3	39888	6.91	9.79494e-06
3	40582	7.01	6.6932e-06
3	41267	7.11	4.02864e-06
3	41952	7.21	1.77051e-06
3	42637	7.31	-1.13691e-07
3	43322	7.41	-1.65736e-06
3	44007	7.51	-2.89397e-06
3	44692	7.61	-3.85652e-06
3	45377	7.71	-4.57698e-06
3	46062	7.81	-5.08591e-06
3	46747	7.91	-5.41219e-06
3	47441	8.01	-5.58279e-06
3	48126	8.11	-5.6226e-06
3	48811	8.21	-5.55442e-06
3	49496	8.31	-5.39886e-06
3	50181	8.41	-5.17441e-06
3	50866	8.51	-4.89748e-06
3	51551	8.61	-4.58246e-06
3	52236	8.71	-4.24184e-06
3	52921	8.81	-3.88634e-06
3	53606	8.91	-3.52499e-06
3	54300	9.01	-3.16534e-06
3	54985	9.11	-2.81353e-06
3	55670	9.21	-2.47446e-06
3	56355	9.31	-2.15192e-06
3	57040	9.41	-1.84873e-06
3	57725	9.51	-1.56685e-06
3	58410	9.61	-1.30751e-06
3	59095	9.71	-1.0713e-06
3	59780	9.81	-8.58321e-07
3	60465	9.91	-6.68206e-07
3	61242	10.01	-5.0026e-07
3	61935	10.11	-3.53514e-07
3	62628	10.21	-2.2679e-07
3	63321	10.31	-1.18765e-07
3	64014	10.41	-2.80163e-08
3	64707	10.51	4.6931e-08
3	65400	10.61	1.07573e-07
3	66093	10.71	1.55391e-07
3	66786	10.81	1.91831e-07
3	67479	10.91	2.18284e-07
3	68181	11.01	2.3607e-07
3	68874	11.11	2.46427e-07
3	69567	11.21	2.50502e-07
3	70260	11.31	2.49353e-07
3	70953	11.41	2.43938e-07
3	71646	11.51	2.3512e-07
3	72339	11.61	2.23669e-07
3	73032	11.71	2.10264e-07
3	73725	11.81	1.95496e-07
3	74418	11.91	1.79874e-07
3	75120	12.01	1.63833e-07
3	75813	12.11	1.47736e-07
3	76506	12.21	1.3188e-07
3	77199	12.31	1.16508e-07
3	77892	12.41	1.01807e-07
3	78585	12.51	8.79222e-08
3	79278	12.61	7.49541e-08
3	79971	12.71	6.29711e-08
3	80664	12.81	5.20114e-08
3	81357	12.91	4.20883e-08
3	82059	13.01	3.3193e-08
3	82752	13.11	2.53003e-08
3	83445	13.21	1.83718e-08
3	84138	13.31	1.23581e-08
3	84831	13.41	7.20348e-09
3	85524	13.51	2.84537e-09
3	86217	13.61	-7.80886e-10
3	86910	13.71	-3.74136e-09
3	87603	13.81	-6.10285e-09
3	88296	13.91	-7.93072e-09
3	88998	14.01	-9.28821e-09
3	89691	14.11	-1.0235e-08
3	90384	14.21	-1.08283e-08
3	91077	14.31	-1.11211e-08
3	91770	14.41	-1.11612e-08
3	92463	14.51	-1.09946e-08
3	93156	14.61	-1.06599e-08
3	93849	14.71	-1.01945e-08
3	94542	14.81	-9.62999e-09
3	95235	14.91	-8.99405e-09
3	95937	15.01	-8.31086e-09
3	96630	15.11	-7.60103e-09
3	97323	15.21	-6.88338e-09
3	98016	15.31	-6.17071e-09
3	98709	15.41	-5.47544e-09
3	99402	15.51	-4.80682e-09
3	100095	15.61	-4.17266e-09
3	100788	15.71	-3.57687e-09
3	101481	15.81	-3.02443e-09
3	102174	15.91	-2.51674e-09
3	102876	16.01	-2.05489e-09
3	103569	16.11	-1.63958e-09
3	104262	16.21	-1.26903e-09
3	104955	16.31	-9.42535e-10
3	105648	16.41	-6.57963e-10
3	106341	16.51	-4.1247e-10
3	107034	16.61	-2.04636e-10
3	107727	16.71	-2.91323e-11
3	108420	16.81	1.14753e-10
3	109113	16.91	2.30926e-10
3	109815	17.01	3.22231e-10
3	110508	17.11	3.91154e-10
3	111201	17.21	4.40892e-10
3	111894	17.31	4.73577e-10
3	112587	17.41	4.92051e-10
3	113280	17.51	4.98446e-10
3	113973	17.61	4.94893e-10
3	114666	17.71	4.82814e-10
3	115359	17.81	4.6434e-10
3	116052	17.91	4.40892e-10
3	116754	18.01	4.13536e-10
3	117447	18.11	3.83693e-10
3	118140	18.21	3.51719e-10
3	118833	18.31	3.19744e-10
3	119526	18.41	2.8777e-10
3	120219	18.51	2.55795e-10
3	120912	18.61	2.25953e-10
3	121605	18.71	1.97531e-10
3	122298	18.81	1.6982e-10
3	122991	18.91	1.44951e-10
3	123693	19.01	1.21503e-10
3	124386	19.11	1.00187e-10
3	125079	19.21	8.10019e-11
3	125772	19.31	6.32383e-11
3	126465	19.41	4.86722e-11
3	127158	19.51	3.44613e-11
3	127851	19.61	2.34479e-11
3	128544	19.71	1.27898e-11
3	129237	19.81	4.9738e-12
3	129930	19.91	-2.13163e-12
3	130632	20.01	-8.17124e-12
3	131325	20.11	-1.1724e-11
3	132018	20.21	-1.52767e-11
3	132711	20.31	-1.88294e-11
3	133404	20.41	-2.02505e-11
3	134097	20.51	-2.02505e-11
3	134790	20.61	-2.02505e-11
3	135483	20.71	-2.02505e-11
3	136176	20.81	-2.02505e-11
3	136869	20.91	-2.02505e-11
3	137571	21.01	-2.02505e-11
3	138264	21.11	-2.02505e-11
3	138957	21.21	-2.02505e-11
3	139650	21.31	-1.88294e-11
3	140343	21.41	-1.7053e-11
3	141036	21.51	-1.52767e-11
3	141729	21.61	-1.38556e-11
3	142422	21.71	-1.24345e-11
3	143115	21.81	-1.13687e-11
3	143808	21.91	-1.03029e-11
3	144510	22.01	-9.23706e-12
3	145203	22.11	-8.52651e-12
3	145896	22.21	-7.4607e-12
3	146589	22.31	-6.75016e-12
3	147282	22.41	-6.03961e-12
3	147975	22.51	-5.68434e-12
3	148668	22.61	-4.9738e-12
3	149361	22.71	-4.61853e-12
3	150054	22.81	-4.26326e-12
3	150747	22.91	-3.90799e-12
3	151449	23.01	-3.55271e-12
3	152142	23.11	-3.19744e-12
3	152835	23.21	-2.84217e-12
3	153528	23.31	-2.4869e-12
3	154221	23.41	-2.13163e-12
3	154914	23.51	-2.13163e-12
3	155607	23.61	-1.77636e-12
3	156300	23.71	-1.77636e-12
3	156993	23.81	-1.42109e-12
3	157686	23.91	-1.42109e-12
3	158388	24.01	-1.06581e-12
3	159081	24.11	-1.06581e-12
3	159774	24.21	-1.06581e-12
3	160467	24.31	-1.06581e-12
3	161160	24.41	-7.10543e-13
3	161853	24.51	-7.10543e-13
3	162546	24.61	-7.10543e-13
3	163239	24.71	-7.10543e-13
3	163932	24.81	-7.10543e-13
3	164625	24.91	-3.55271e-13
3	165327	25.01	-3.55271e-13
3	166020	25.11	-3.55271e-13
3	166713	25.21	-3.55271e-13
3	167406	25.31	-3.55271e-13
3	168099	25.41	-3.55271e-13
3	168792	25.51	-3.55271e-13
3	169485	25.61	-3.55271e-13
3	170178	25.71	-3.55271e-13
3	170871	25.81	-3.55271e-13
3	171564	25.91	0
3	172266	26.01	0
3	172959	26.11	0
3	173652	26.21	0
3	174345	26.31	0
3	175038	26.41	0
3	175731	26.51	0
3	176424	26.61	0
3	177117	26.71	0
3	177810	26.81	0
3	178503	26.91	0
3	179205	27.01	0
3	179898	27.11	0
3	180591	27.21	0
3	181284	27.31	0
3	181977	27.41	0
3	182670	27.51	0
3	183363	27.61	0
3	184056	27.71	0
3	184749	27.81	0
3	185442	27.91	0
3	186144	28.01	0
3	186837	28.11	0
3	187530	28.21	0
3	188223	28.31	0
3	188916	28.41	0
3	189609	28.51	0
3	190302	28.61	0
3	190995	28.71	0
3	191688	28.81	0
3	192381	28.91	0
3	193083	29.01	0
3	193776	29.11	0
3	194469	29.21	0
3	195162	29.31	0
3	195855	29.41	0
3	196548	29.51	0
3	197241	29.61	0
3	197934	29.71	0
3	198627	29.81	0
3	199320	29.91	0
3	200022	30.01	0
3	200715	30.11	0
3	201408	30.21	0
3	202101	30.31	0
3	202794	30.41	0
3	203487	30.51	0
3	204180	30.61	0
3	204873	30.71	0
3	205566	30.81	0
3	206259	30.91	0
3	206961	31.01	0
3	207654	31.11	0
3	208347	31.21	0
3	209040	31.31	0
3	209733	31.41	0
3	210426	31.51	0
3	211119	31.61	0
3	211812	31.71	0
3	212505	31.81	0
3	213198	31.91	0
3	213900	32.01	0
3	214593	32.11	0
3	215286	32.21	0
3	215979	32.31	0
3	216672	32.41	0
3	217365	32.51	0
3	218058	32.61	0
3	218751	32.71	0
3	219444	32.81	0
3	220137	32.91	0
3	220839	33.01	0
3	221532	33.11	0
3	222225	33.21	0
3	222918	33.31	0
3	223611	33.41	0
3	224304	33.51	0
3	224997	33.61	0
3	225690	33.71	0
3	226383	33.81	0
3	227076	33.91	0
3	227778	34.01	0
3	228471	34.11	0
3	229164	34.21	0
3	229857	34.31	0
3	230550	34.41	0
3	231243	34.51	0
3	231936	34.61	0
3	232629	34.71	0
3	233322	34.81	0
3	234015	34.91	0
3	234717	35.01	0
3	235410	35.11	0
3	236103	35.21	0
3	236796	35.31	0
3	237489	35.41	0
3	238182	35.51	0
3	238875	35.61	0
3	239568	35.71	0
3	240261	35.81	0
3	240954	35.91	0
3	241656	36.01	0
3	242349	36.11	0
3	243042	36.21	0
3	243735	36.31	0
3	244428	36.41	0
3	245121	36.51	0
3	245814	36.61	0
3	246507	36.71	0
3	247200	36.81	0
3	247893	36.91	0
3	248595	37.01	0
3	249288	37.11	0
3	249981	37.21	0
3	250674	37.31	0
3	251367	37.41	0
3	252060	37.51	0
3	252753	37.61	0
3	253446	37.71	0
3	254139	37.81	0
3	254832	37.91	0
3	255534	38.01	0
3	256227	38.11	0
3	256920	38.21	0
3	257613	38.31	0
3	258306	38.41	0
3	258999	38.51	0
3	259692	38.61	0
3	260385	38.71	0
3	261078	38.81	0
3	261771	38.91	0
3	262473	39.01	0
3	263166	39.11	0
3	263859	39.21	0
3	264552	39.31	0
3	265245	39.41	0
3	265938	39.51	0
3	266631	39.61	0
3	267324	39.71	0
3	268017	39.81	0
3	268710	39.91	0
3	269412	40.01	0
3	270105	40.11	0
3	270798	40.21	0
3	271491	40.31	0
3	272184	40.41	0
3	272877	40.51	0
3	273570	40.61	0
3	274263	40.71	0
3	274956	40.81	0
3	275649	40.91	0
3	276351	41.01	0
3	277044	41.11	0
3	277737	41.21	0
3	278430	41.31	0
3	279123	41.41	0
3	279816	41.51	0
3	280509	41.61	0
3	281202	41.71	0
3	281895	41.81	0
3	282588	41.91	0
3	283290	42.01	0
3	283983	42.11	0
3	284676	42.21	0
3	285369	42.31	0
3	286062	42.41	0
3	286755	42.51	0
3	287448	42.61	0
3	288244	42.71	0
3	288936	42.81	0
3	289628	42.91	0
3	290329	43.01	0
3	291021	43.11	0
3	291713	43.21	0
3	292405	43.31	0
3	293097	43.41	0
3	293789	43.51	0
3	294481	43.61	0
3	295173	43.71	0
3	295865	43.81	0
3	296557	43.91	0
3	297258	44.01	0
3	297950	44.11	0
3	298642	44.21	0
3	299334	44.31	0
3	300026	44.41	0
3	300718	44.51	0
3	301410	44.61	0
3	302102	44.71	0
3	302794	44.81	0
3	303486	44.91	0
3	304187	45.01	0
3	304879	45.11	0
3	305571	45.21	0
3	306263	45.31	0
3	306955	45.41	0
3	307647	45.51	0
3	308339	45.61	0
3	309031	45.71	0
3	309723	45.81	0
3	310415	45.91	0
3	311116	46.01	0
3	311808	46.11	0
3	312500	46.21	0
3	313192	46.31	0
3	313884	46.41	0
3	314576	46.51	0
3	315268	46.61	0
3	315960	46.71	0
3	316652	46.81	0
3	317344	46.91	0
3	318045	47.01	0
3	318737	47.11	0
3	319429	47.21	0
3	320121	47.31	0
3	320813	47.41	0
3	321505	47.51	0
3	322197	47.61	0
3	322889	47.71	0
3	323581	47.81	0
3	324273	47.91	0
3	324974	48.01	0
3	325666	48.11	0
3	326358	48.21	0
3	327050	48.31	0
3	327742	48.41	0
3	328537	48.51	0
3	329228	48.61	0
3	329919	48.71	0
3	330610	48.81	0
3	331301	48.91	0
3	332001	49.01	0
3	332692	49.11	0
3	333383	49.21	0
3	334074	49.31	0
3	334765	49.41	0
3	335456	49.51	0
3	336147	49.61	0
3	336838	49.71	0
3	337529	49.81	0
3	338220	49.91	0
3	338920	50.01	0
3	339611	50.11	0
3	340302	50.21	0
3	340993	50.31	0
3	341684	50.41	0
3	342375	50.51	0
3	343066	50.61	0
3	343757	50.71	0
3	344448	50.81	0
3	345139	50.91	0
3	345839	51.01	0
3	346530	51.11	0
3	347221	51.21	0
3	347912	51.31	0
3	348603	51.41	0
3	349294	51.51	0
3	349985	51.61	0
3	350676	51.71	0
3	351367	51.81	0
3	352058	51.91	0
3	352758	52.01	0
3	353449	52.11	0
3	354140	52.21	0
3	354831	52.31	0
3	355522	52.41	0
3	356213	52.51	0
3	356904	52.61	0
3	357595	52.71	0
3	358286	52.81	0
3	358977	52.91	0
3	359677	53.01	0
3	360368	53.11	0
3	361059	53.21	0
3	361750	53.31	0
3	362441	53.41	0
3	363132	53.51	0
3	363823	53.61	0
3	364514	53.71	0
3	365308	53.81	0
3	365998	53.91	0
3	366697	54.01	0
3	367387	54.11	0
3	368077	54.21	0
3	368767	54.31	0
3	369457	54.41	0
3	370147	54.51	0
3	370837	54.61	0
3	371527	54.71	0
3	372217	54.81	0
3	372907	54.91	0
3	373606	55.01	0
3	374296	55.11	0
3	374986	55.21	0
3	375676	55.31	0
3	376366	55.41	0
3	377056	55.51	0
3	377746	55.61	0
3	378436	55.71	0
3	379126	55.81	0
3	379816	55.91	0
3	380515	56.01	0
3	381205	56.11	0
3	381895	56.21	0
3	382585	56.31	0
3	383275	56.41	0
3	383965	56.51	0
3	384655	56.61	0
3	385345	56.71	0
3	386035	56.81	0
3	386725	56.91	0
3	387424	57.01	0
3	388114	57.11	0
3	388804	57.21	0
3	389494	57.31	0
3	390184	57.41	0
3	390874	57.51	0
3	391564	57.61	0
3	392254	57.71	0
3	392944	57.81	0
3	393634	57.91	0
3	394333	58.01	0
3	395023	58.11	0
3	395713	58.21	0
3	396403	58.31	0
3	397093	58.41	0
3	397783	58.51	0
3	398576	58.61	0
3	399265	58.71	0
3	399954	58.81	0
3	400643	58.91	0
3	401341	59.01	0
3	402030	59.11	0
3	402719	59.21	0
3	403408	59.31	0
3	404097	59.41	0
3	404786	59.51	0
3	405475	59.61	0
3	406164	59.71	0
3	406853	59.81	0
3	407542	59.91	0
3	408240	60.01	0
3	408929	60.11	0
3	409618	60.21	0
3	410307	60.31	0
3	410996	60.41	0
3	411685	60.51	0
3	412374	60.61	0
3	413063	60.71	0
3	413752	60.81	0
3	414441	60.91	0
3	415139	61.01	0
3	415828	61.11	0
3	416517	61.21	0
3	417206	61.31	0
3	417895	61.41	0
3	418584	61.51	0
3	419273	61.61	0
3	419962	61.71	0
3	420651	61.81	0
3	421340	61.91	0
3	422038	62.01	0
3	422727	62.11	0
3	423416	62.21	0
3	424105	62.31	0
3	424794	62.41	0
3	425483	62.51	0
3	426172	62.61	0
3	426861	62.71	0
3	427550	62.81	0
3	428239	62.91	0
3	428937	63.01	0
3	429626	63.11	0
3	430315	63.21	0
3	431107	63.31	0
3	431795	63.41	0
3	432483	63.51	0
3	433171	63.61	0
3	433859	63.71	0
3	434547	63.81	0
3	435235	63.91	0
3	435932	64.01	0
3	436620	64.11	0
3	437308	64.21	0
3	437996	64.31	0
3	438684	64.41	0
3	439372	64.51	0
3	440060	64.61	0
3	440748	64.71	0
3	441436	64.81	0
3	442124	64.91	0
3	442821	65.01	0
3	443509	65.11	0
3	444197	65.21	0
3	444885	65.31	0
3	445573	65.41	0
3	446261	65.51	0
3	446949	65.61	0
3	447637	65.71	0
3	448325	65.81	0
3	449013	65.91	0
3	449710	66.01	0
3	450398	66.11	0
3	451086	66.21	0
3	451774	66.31	0
3	452462	66.41	0
3	453150	66.51	0
3	453838	66.61	0
3	454526	66.71	0
3	455214	66.81	0
3	455902	66.91	0
3	456599	67.01	0
3	457287	67.11	0
3	457975	67.21	0
3	458663	67.31	0
3	459351	67.41	0
3	460039	67.51	0
3	460727	67.61	0
3	461518	67.71	0
3	462205	67.81	0
3	462892	67.91	0
3	463588	68.01	0
3	464275	68.11	0
3	464962	68.21	0
3	465649	68.31	0
3	466336	68.41	0
3	467023	68.51	0
3	467710	68.61	0
3	468397	68.71	0
3	469084	68.81	0
3	469771	68.91	0
3	470467	69.01	0
3	471154	69.11	0
3	471841	69.21	0
3	472528	69.31	0
3	473215	69.41	0
3	473902	69.51	0
3	474589	69.61	0
3	475276	69.71	0
3	475963	69.81	0
3	476650	69.91	0
3	477346	70.01	0
3	478033	70.11	0
3	478720	70.21	0
3	479407	70.31	0
3	480094	70.41	0
3	480781	70.51	0
3	481468	70.61	0
3	482155	70.71	0
3	482842	70.81	0
3	483529	70.91	0
3	484225	71.01	0
3	484912	71.11	0
3	485599	71.21	0
3	486286	71.31	0
3	486973	71.41	0
3	487660	71.51	0
3	488347	71.61	0
3	489034	71.71	0
3	489721	71.81	0
3	490408	71.91	0
3	491207	72.01	0
3	491893	72.11	0
3	492579	72.21	0
3	493265	72.31	0
3	493951	72.41	0
3	494637	72.51	0
3	495323	72.61	0
3	496009	72.71	0
3	496695	72.81	0
3	497381	72.91	0
3	498076	73.01	0
3	498762	73.11	0
3	499448	73.21	0
3	500134	73.31	0
3	500820	73.41	0
3	501506	73.51	0
3	502192	73.61	0
3	502878	73.71	0
3	503564	73.81	0
3	504250	73.91	0
3	504945	74.01	0
3	505631	74.11	0
3	506317	74.21	0
3	507003	74.31	0
3	507689	74.41	0
3	508375	74.51	0
3	509061	74.61	0
3	509747	74.71	0
3	510433	74.81	0
3	511119	74.91	0
3	511814	75.01	0
3	512500	75.11	0
3	513186	75.21	0
3	513872	75.31	0
3	514558	75.41	0
3	515244	75.51	0
3	515930	75.61	0
3	516616	75.71	0
3	517302	75.81	0
3	517988	75.91	0
3	518683	76.01	0
3	519369	76.11	0
3	520982	76.21	0
3	521667	76.31	0
3	522352	76.41	0
3	523037	76.51	0
3	523722	76.61	0
3	524407	76.71	0
3	525092	76.81	0
3	525777	76.91	0
3	526471	77.01	0
3	527156	77.11	0
3	527841	77.21	0
3	528526	77.31	0
3	529211	77.41	0
3	529896	77.51	0
3	530581	77.61	0
3	531266	77.71	0
3	531951	77.81	0
3	532636	77.91	0
3	533330	78.01	0
3	534015	78.11	0
3	534700	78.21	0
3	535385	78.31	0
3	536070	78.41	0
3	536755	78.51	0
3	537440	78.61	0
3	538125	78.71	0
3	538810	78.81	0
3	539495	78.91	0
3	540189	79.01	0
3	540874	79.11	0
3	541559	79.21	0
3	542244	79.31	0
3	542929	79.41	0
3	543614	79.51	0
3	544299	79.61	0
3	544984	79.71	0
3	545669	79.81	0
3	546354	79.91	0
3	547048	80.01	0
3	547733	80.11	0
3	548418	80.21	0
3	549103	80.31	0
3	549788	80.41	0
3	550473	80.51	0
3	551158	80.61	0
3	551843	80.71	0
3	552528	80.81	0
3	553213	80.91	0
3	553907	81.01	0
3	554592	81.11	0
3	555277	81.21	0
3	555962	81.31	0
3	556647	81.41	0
3	557332	81.51	0
3	558017	81.61	0
3	558702	81.71	0
3	559387	81.81	0
3	560072	81.91	0
3	560766	82.01	0
3	561451	82.11	0
3	562136	82.21	0
3	562821	82.31	0
3	563506	82.41	0
3	564191	82.51	0
3	564876	82.61	0
3	565561	82.71	0
3	566246	82.81	0
3	566931	82.91	0
3	567625	83.01	0
3	568310	83.11	0
3	568995	83.21	0
3	569680	83.31	0
3	570365	83.41	0
3	571050	83.51	0
3	571735	83.61	0
3	572420	83.71	0
3	573105	83.81	0
3	573790	83.91	0
3	574484	84.01	0
3	575169	84.11	0
3	575854	84.21	0
3	576539	84.31	0
3	577224	84.41	0
3	577909	84.51	0
3	578594	84.61	0
3	579279	84.71	0
3	579964	84.81	0
3	580649	84.91	0
3	581343	85.01	0
3	582028	85.11	0
3	582713	85.21	0
3	583398	85.31	0
3	584083	85.41	0
3	584768	85.51	0
3	585453	85.61	0
3	586138	85.71	0
3	586823	85.81	0
3	587508	85.91	0
3	588202	86.01	0
3	588887	86.11	0
3	589572	86.21	0
[...]
119	533251	78	5
119	540110	79	5
119	546969	80	5
119	553828	81	5
119	560687	82	5
119	567546	83	5
119	574405	84	5
119	581264	85	5
119	588123	86	5
119	594982	87	5
119	601841	88	5
119	608700	89	5
119	615559	90	5
119	622418	91	5
119	629277	92	5
119	636136	93	5
119	642995	94	5
119	649854	95	5
119	656713	96	5
119	663572	97	5
119	670431	98	5
119	677290	99	5
119	684149	100	5
120	6208	2	0.024969
120	13067	3	0.02809
120	19926	4	0.02809
120	26785	5	0.02809
120	33644	6	0.02809
120	40503	7	0.02809
120	47362	8	0.02809
120	54221	9	0.02809
120	61081	10	0.02809
120	68094	11	0.028138
120	75033	12	0.02809
120	81972	13	0.02809
120	88911	14	0.02809
120	95850	15	0.02809
120	102789	16	0.02809
120	109728	17	0.02809
120	116667	18	0.02809
120	123606	19	0.02809
120	130545	20	0.02809
120	137484	21	0.02809
120	144423	22	0.02809
120	151362	23	0.02809
120	158301	24	0.02809
120	165240	25	0.02809
120	172179	26	0.02809
120	179118	27	0.02809
120	186057	28	0.02809
120	192996	29	0.02809
120	199935	30	0.02809
120	206874	31	0.02809
120	213813	32	0.02809
120	220752	33	0.02809
120	227691	34	0.02809
120	234630	35	0.02809
120	241569	36	0.02809
120	248508	37	0.02809
120	255447	38	0.02809
120	262386	39	0.02809
120	269325	40	0.02809
120	276264	41	0.02809
120	283203	42	0.02809
120	290243	43	0.028202
120	297172	44	0.02809
120	304101	45	0.02809
120	311030	46	0.02809
120	317959	47	0.02809
120	324888	48	0.02809
120	331916	49	0.028202
120	338835	50	0.02809
120	345754	51	0.02809
120	352673	52	0.02809
120	359592	53	0.02809
120	366613	54	0.028202
120	373522	55	0.02809
120	380431	56	0.02809
120	387340	57	0.02809
120	394249	58	0.02809
120	401258	59	0.028202
120	408157	60	0.02809
120	415056	61	0.02809
120	421955	62	0.02809
120	428854	63	0.02809
120	435850	64	0.028235465668
120	442739	65	0.02809
120	449628	66	0.02809
120	456517	67	0.02809
120	463507	68	0.028202
120	470386	69	0.02809
120	477265	70	0.02809
120	484144	71	0.02809
120	491023	72	0.02809
120	497996	73	0.028202
120	504865	74	0.02809
120	511734	75	0.02809
120	518603	76	0.02809
120	526392	77	0.02913
120	533251	78	0.02809
120	540110	79	0.02809
120	546969	80	0.02809
120	553828	81	0.02809
120	560687	82	0.02809
120	567546	83	0.02809
120	574405	84	0.02809
120	581264	85	0.02809
120	588123	86	0.02809
120	594982	87	0.02809
120	601841	88	0.02809
120	608700	89	0.02809
120	615559	90	0.02809
120	622418	91	0.02809
120	629277	92	0.02809
120	636136	93	0.02809
120	642995	94	0.02809
120	649854	95	0.02809
120	656713	96	0.02809
120	663572	97	0.02809
120	670431	98	0.02809
120	677290	99	0.02809
120	684149	100	0.02809
121	6208	2	0
121	13067	3	0
121	19926	4	0
121	26785	5	0
121	33644	6	0
121	40503	7	0
121	47362	8	0
121	54221	9	0
121	61081	10	0
121	68094	11	0
121	75033	12	0
121	81972	13	0
121	88911	14	0
121	95850	15	0
121	102789	16	0
121	109728	17	0
121	116667	18	0
121	123606	19	0
121	130545	20	0
121	137484	21	0
121	144423	22	0
121	151362	23	0
121	158301	24	0
121	165240	25	0
121	172179	26	0
121	179118	27	0
121	186057	28	0
121	192996	29	0
121	199935	30	0
121	206874	31	0
121	213813	32	0
121	220752	33	0
121	227691	34	0
121	234630	35	0
121	241569	36	0
121	248508	37	0
121	255447	38	0
121	262386	39	0
121	269325	40	0
121	276264	41	0
121	283203	42	0
121	290243	43	0
121	297172	44	0
121	304101	45	0
121	311030	46	0
121	317959	47	0
121	324888	48	0
121	331916	49	0
121	338835	50	0
121	345754	51	0
121	352673	52	0
121	359592	53	0
121	366613	54	0
121	373522	55	0
121	380431	56	0
121	387340	57	0
121	394249	58	0
121	401258	59	0
121	408157	60	0
121	415056	61	0
121	421955	62	0
121	428854	63	0
121	435850	64	0
121	442739	65	0
121	449628	66	0
121	456517	67	0
121	463507	68	0
121	470386	69	0
121	477265	70	0
121	484144	71	0
121	491023	72	0
121	497996	73	0
121	504865	74	0
121	511734	75	0
121	518603	76	0
121	526392	77	0
121	533251	78	0
121	540110	79	0
121	546969	80	0
121	553828	81	0
121	560687	82	0
121	567546	83	0
121	574405	84	0
121	581264	85	0
121	588123	86	0
121	594982	87	0
121	601841	88	0
121	608700	89	0
121	615559	90	0
121	622418	91	0
121	629277	92	0
121	636136	93	0
121	642995	94	0
121	649854	95	0
121	656713	96	0
121	663572	97	0
121	670431	98	0
121	677290	99	0
121	684149	100	0
122	6209	2	6
122	13068	3	6
122	19927	4	6
122	26786	5	6
122	33645	6	6
122	40504	7	6
122	47363	8	6
122	54222	9	6
122	61082	10	6
122	68095	11	6
122	75034	12	6
122	81973	13	6
122	88912	14	6
122	95851	15	6
122	102790	16	6
122	109729	17	6
122	116668	18	6
122	123607	19	6
122	130546	20	6
122	137485	21	6
122	144424	22	6
122	151363	23	6
122	158302	24	6
122	165241	25	6
122	172180	26	6
122	179119	27	6
122	186058	28	6
122	192997	29	6
122	199936	30	6
122	206875	31	6
122	213814	32	6
122	220753	33	6
122	227692	34	6
122	234631	35	6
122	241570	36	6
122	248509	37	6
122	255448	38	6
122	262387	39	6
122	269326	40	6
122	276265	41	6
122	283204	42	6
122	290244	43	6
122	297173	44	6
122	304102	45	6
122	311031	46	6
122	317960	47	6
122	324889	48	6
122	331917	49	6
122	338836	50	6
122	345755	51	6
122	352674	52	6
122	359593	53	6
122	366614	54	6
122	373523	55	6
122	380432	56	6
122	387341	57	6
122	394250	58	6
122	401259	59	6
122	408158	60	6
122	415057	61	6
122	421956	62	6
122	428855	63	6
122	435851	64	6
122	442740	65	6
122	449629	66	6
122	456518	67	6
122	463508	68	6
122	470387	69	6
122	477266	70	6
122	484145	71	6
122	491024	72	6
122	497997	73	6
122	504866	74	6
122	511735	75	6
122	518604	76	6
122	526393	77	6
122	533252	78	6
122	540111	79	6
122	546970	80	6
122	553829	81	6
122	560688	82	6
122	567547	83	6
122	574406	84	6
122	581265	85	6
122	588124	86	6
122	594983	87	6
122	601842	88	6
122	608701	89	6
122	615560	90	6
122	622419	91	6
122	629278	92	6
122	636137	93	6
122	642996	94	6
122	649855	95	6
122	656714	96	6
122	663573	97	6
122	670432	98	6
122	677291	99	6
122	684150	100	6
123	6209	2	0.024969
123	13068	3	0.02809
123	19927	4	0.02809
123	26786	5	0.02809
123	33645	6	0.02809
123	40504	7	0.02809
123	47363	8	0.02809
123	54222	9	0.02809
123	61082	10	0.02809
123	68095	11	0.028138
123	75034	12	0.02809
123	81973	13	0.02809
123	88912	14	0.02809
123	95851	15	0.02809
123	102790	16	0.02809
123	109729	17	0.02809
123	116668	18	0.02809
123	123607	19	0.02809
123	130546	20	0.02809
123	137485	21	0.02809
123	144424	22	0.02809
123	151363	23	0.02809
123	158302	24	0.02809
123	165241	25	0.02809
123	172180	26	0.02809
123	179119	27	0.02809
123	186058	28	0.02809
123	192997	29	0.02809
123	199936	30	0.02809
123	206875	31	0.02809
123	213814	32	0.02809
123	220753	33	0.02809
123	227692	34	0.02809
123	234631	35	0.02809
123	241570	36	0.02809
123	248509	37	0.02809
123	255448	38	0.02809
123	262387	39	0.02809
123	269326	40	0.02809
123	276265	41	0.02809
123	283204	42	0.02809
123	290244	43	0.028202
123	297173	44	0.02809
123	304102	45	0.02809
123	311031	46	0.02809
123	317960	47	0.02809
123	324889	48	0.02809
123	331917	49	0.028202
123	338836	50	0.02809
123	345755	51	0.02809
123	352674	52	0.02809
123	359593	53	0.02809
123	366614	54	0.028202
123	373523	55	0.02809
123	380432	56	0.02809
123	387341	57	0.02809
123	394250	58	0.02809
123	401259	59	0.028202
123	408158	60	0.02809
123	415057	61	0.02809
123	421956	62	0.02809
123	428855	63	0.02809
123	435851	64	0.028202
123	442740	65	0.02809
123	449629	66	0.02809
123	456518	67	0.02809
123	463508	68	0.028235558966
123	470387	69	0.02809
123	477266	70	0.02809
123	484145	71	0.02809
123	491024	72	0.02809
123	497997	73	0.028202
123	504866	74	0.02809
123	511735	75	0.02809
123	518604	76	0.02809
123	526393	77	0.02913
123	533252	78	0.02809
123	540111	79	0.02809
123	546970	80	0.02809
123	553829	81	0.02809
123	560688	82	0.02809
123	567547	83	0.02809
123	574406	84	0.02809
123	581265	85	0.02809
123	588124	86	0.02809
123	594983	87	0.02809
123	601842	88	0.02809
123	608701	89	0.02809
123	615560	90	0.02809
123	622419	91	0.02809
123	629278	92	0.02809
123	636137	93	0.02809
123	642996	94	0.02809
123	649855	95	0.02809
123	656714	96	0.02809
123	663573	97	0.02809
123	670432	98	0.02809
123	677291	99	0.02809
123	684150	100	0.02809
124	6209	2	0
124	13068	3	0
124	19927	4	0
124	26786	5	0
124	33645	6	0
124	40504	7	0
124	47363	8	0
124	54222	9	0
124	61082	10	0
124	68095	11	0
124	75034	12	0
124	81973	13	0
124	88912	14	0
124	95851	15	0
124	102790	16	0
124	109729	17	0
124	116668	18	0
124	123607	19	0
124	130546	20	0
124	137485	21	0
124	144424	22	0
124	151363	23	0
124	158302	24	0
124	165241	25	0
124	172180	26	0
124	179119	27	0
124	186058	28	0
124	192997	29	0
124	199936	30	0
124	206875	31	0
124	213814	32	0
124	220753	33	0
124	227692	34	0
124	234631	35	0
124	241570	36	0
124	248509	37	0
124	255448	38	0
124	262387	39	0
124	269326	40	0
124	276265	41	0
124	283204	42	0
124	290244	43	0
124	297173	44	0
124	304102	45	0
124	311031	46	0
124	317960	47	0
124	324889	48	0
124	331917	49	0
124	338836	50	0
124	345755	51	0
124	352674	52	0
124	359593	53	0
124	366614	54	0
124	373523	55	0
124	380432	56	0
124	387341	57	0
124	394250	58	0
124	401259	59	0
124	408158	60	0
124	415057	61	0
124	421956	62	0
124	428855	63	0
124	435851	64	0
124	442740	65	0
124	449629	66	0
124	456518	67	0
124	463508	68	0
124	470387	69	0
124	477266	70	0
124	484145	71	0
124	491024	72	0
124	497997	73	0
124	504866	74	0
124	511735	75	0
124	518604	76	0
124	526393	77	0
124	533252	78	0
124	540111	79	0
124	546970	80	0
124	553829	81	0
124	560688	82	0
124	567547	83	0
124	574406	84	0
124	581265	85	0
124	588124	86	0
124	594983	87	0
124	601842	88	0
124	608701	89	0
124	615560	90	0
124	622419	91	0
124	629278	92	0
124	636137	93	0
124	642996	94	0
124	649855	95	0
124	656714	96	0
124	663573	97	0
124	670432	98	0
124	677291	99	0
124	684150	100	0
125	6210	2	7
125	13069	3	7
125	19928	4	7
125	26787	5	7
125	33646	6	7
125	40505	7	7
125	47364	8	7
125	54223	9	7
125	61083	10	7
125	68096	11	7
125	75035	12	7
125	81974	13	7
125	88913	14	7
125	95852	15	7
125	102791	16	7
125	109730	17	7
125	116669	18	7
125	123608	19	7
125	130547	20	7
125	137486	21	7
125	144425	22	7
125	151364	23	7
125	158303	24	7
125	165242	25	7
125	172181	26	7
125	179120	27	7
125	186059	28	7
125	192998	29	7
125	199937	30	7
125	206876	31	7
125	213815	32	7
125	220754	33	7
125	227693	34	7
125	234632	35	7
125	241571	36	7
125	248510	37	7
125	255449	38	7
125	262388	39	7
125	269327	40	7
125	276266	41	7
125	283205	42	7
125	290245	43	7
125	297174	44	7
125	304103	45	7
125	311032	46	7
125	317961	47	7
125	324890	48	7
125	331918	49	7
125	338837	50	7
125	345756	51	7
125	352675	52	7
125	359594	53	7
125	366615	54	7
125	373524	55	7
125	380433	56	7
125	387342	57	7
125	394251	58	7
125	401260	59	7
125	408159	60	7
125	415058	61	7
125	421957	62	7
125	428856	63	7
125	435852	64	7
125	442741	65	7
125	449630	66	7
125	456519	67	7
125	463509	68	7
125	470388	69	7
125	477267	70	7
125	484146	71	7
125	491025	72	7
125	497998	73	7
125	504867	74	7
125	511736	75	7
125	518605	76	7
125	526394	77	7
125	533253	78	7
125	540112	79	7
125	546971	80	7
125	553830	81	7
125	560689	82	7
125	567548	83	7
125	574407	84	7
125	581266	85	7
125	588125	86	7
125	594984	87	7
125	601843	88	7
125	608702	89	7
125	615561	90	7
125	622420	91	7
125	629279	92	7
125	636138	93	7
125	642997	94	7
125	649856	95	7
125	656715	96	7
125	663574	97	7
125	670433	98	7
125	677292	99	7
125	684151	100	7
126	6210	2	0.024969
126	13069	3	0.02809
126	19928	4	0.02809
126	26787	5	0.02809
126	33646	6	0.02809
126	40505	7	0.02809
126	47364	8	0.02809
126	54223	9	0.02809
126	61083	10	0.02809
126	68096	11	0.028138
126	75035	12	0.02809
126	81974	13	0.02809
126	88913	14	0.02809
126	95852	15	0.02809
126	102791	16	0.02809
126	109730	17	0.02809
126	116669	18	0.02809
126	123608	19	0.02809
126	130547	20	0.02809
126	137486	21	0.02809
126	144425	22	0.02809
126	151364	23	0.02809
126	158303	24	0.02809
126	165242	25	0.02809
126	172181	26	0.02809
126	179120	27	0.02809
126	186059	28	0.02809
126	192998	29	0.02809
126	199937	30	0.02809
126	206876	31	0.02809
126	213815	32	0.02809
126	220754	33	0.02809
126	227693	34	0.02809
126	234632	35	0.02809
126	241571	36	0.02809
126	248510	37	0.02809
126	255449	38	0.02809
126	262388	39	0.02809
126	269327	40	0.02809
126	276266	41	0.02809
126	283205	42	0.02809
126	290245	43	0.028202
126	297174	44	0.02809
126	304103	45	0.02809
126	311032	46	0.02809
126	317961	47	0.02809
126	324890	48	0.02809
126	331918	49	0.028202
126	338837	50	0.02809
126	345756	51	0.02809
126	352675	52	0.02809
126	359594	53	0.02809
126	366615	54	0.028202
126	373524	55	0.02809
126	380433	56	0.02809
126	387342	57	0.02809
126	394251	58	0.02809
126	401260	59	0.028202
126	408159	60	0.02809
126	415058	61	0.02809
126	421957	62	0.02809
126	428856	63	0.02809
126	435852	64	0.028202
126	442741	65	0.02809
126	449630	66	0.02809
126	456519	67	0.02809
126	463509	68	0.028202
126	470388	69	0.02809
126	477267	70	0.02809
126	484146	71	0.02809
126	491025	72	0.02809
126	497998	73	0.02823565228
126	504867	74	0.02809
126	511736	75	0.02809
126	518605	76	0.02809
126	526394	77	0.02913
126	533253	78	0.02809
126	540112	79	0.02809
126	546971	80	0.02809
126	553830	81	0.02809
126	560689	82	0.02809
126	567548	83	0.02809
126	574407	84	0.02809
126	581266	85	0.02809
126	588125	86	0.02809
126	594984	87	0.02809
126	601843	88	0.02809
126	608702	89	0.02809
126	615561	90	0.02809
126	622420	91	0.02809
126	629279	92	0.02809
126	636138	93	0.02809
126	642997	94	0.02809
126	649856	95	0.02809
126	656715	96	0.02809
126	663574	97	0.02809
126	670433	98	0.02809
126	677292	99	0.02809
126	684151	100	0.02809
127	6210	2	0
127	13069	3	0
127	19928	4	0
127	26787	5	0
127	33646	6	0
127	40505	7	0
127	47364	8	0
127	54223	9	0
127	61083	10	0
127	68096	11	0
127	75035	12	0
127	81974	13	0
127	88913	14	0
127	95852	15	0
127	102791	16	0
127	109730	17	0
127	116669	18	0
127	123608	19	0
127	130547	20	0
127	137486	21	0
127	144425	22	0
127	151364	23	0
127	158303	24	0
127	165242	25	0
127	172181	26	0
127	179120	27	0
127	186059	28	0
127	192998	29	0
127	199937	30	0
127	206876	31	0
127	213815	32	0
127	220754	33	0
127	227693	34	0
127	234632	35	0
127	241571	36	0
127	248510	37	0
127	255449	38	0
127	262388	39	0
127	269327	40	0
127	276266	41	0
127	283205	42	0
127	290245	43	0
127	297174	44	0
127	304103	45	0
127	311032	46	0
127	317961	47	0
127	324890	48	0
127	331918	49	0
127	338837	50	0
127	345756	51	0
127	352675	52	0
127	359594	53	0
127	366615	54	0
127	373524	55	0
127	380433	56	0
127	387342	57	0
127	394251	58	0
127	401260	59	0
127	408159	60	0
127	415058	61	0
127	421957	62	0
127	428856	63	0
127	435852	64	0
127	442741	65	0
127	449630	66	0
127	456519	67	0
127	463509	68	0
127	470388	69	0
127	477267	70	0
127	484146	71	0
127	491025	72	0
127	497998	73	0
127	504867	74	0
127	511736	75	0
127	518605	76	0
127	526394	77	0
127	533253	78	0
127	540112	79	0
127	546971	80	0
127	553830	81	0
127	560689	82	0
127	567548	83	0
127	574407	84	0
127	581266	85	0
127	588125	86	0
127	594984	87	0
127	601843	88	0
127	608702	89	0
127	615561	90	0
127	622420	91	0
127	629279	92	0
127	636138	93	0
127	642997	94	0
127	649856	95	0
127	656715	96	0
127	663574	97	0
127	670433	98	0
127	677292	99	0
127	684151	100	0
128	6211	2	8
128	13070	3	8
128	19929	4	8
128	26788	5	8
128	33647	6	8
128	40506	7	8
128	47365	8	8
128	54224	9	8
128	61084	10	8
128	68097	11	8
128	75036	12	8
128	81975	13	8
128	88914	14	8
128	95853	15	8
128	102792	16	8
128	109731	17	8
128	116670	18	8
128	123609	19	8
128	130548	20	8
128	137487	21	8
128	144426	22	8
128	151365	23	8
128	158304	24	8
128	165243	25	8
128	172182	26	8
128	179121	27	8
128	186060	28	8
128	192999	29	8
128	199938	30	8
128	206877	31	8
128	213816	32	8
128	220755	33	8
128	227694	34	8
128	234633	35	8
128	241572	36	8
128	248511	37	8
128	255450	38	8
128	262389	39	8
128	269328	40	8
128	276267	41	8
128	283206	42	8
128	290246	43	8
128	297175	44	8
128	304104	45	8
128	311033	46	8
128	317962	47	8
128	324891	48	8
128	331919	49	8
128	338838	50	8
128	345757	51	8
128	352676	52	8
128	359595	53	8
128	366616	54	8
128	373525	55	8
128	380434	56	8
128	387343	57	8
128	394252	58	8
128	401261	59	8
128	408160	60	8
128	415059	61	8
128	421958	62	8
128	428857	63	8
128	435853	64	8
128	442742	65	8
128	449631	66	8
128	456520	67	8
128	463510	68	8
128	470389	69	8
128	477268	70	8
128	484147	71	8
128	491026	72	8
128	497999	73	8
128	504868	74	8
128	511737	75	8
128	518606	76	8
128	526395	77	8
128	533254	78	8
128	540113	79	8
128	546972	80	8
128	553831	81	8
128	560690	82	8
128	567549	83	8
128	574408	84	8
128	581267	85	8
128	588126	86	8
128	594985	87	8
128	601844	88	8
128	608703	89	8
128	615562	90	8
128	622421	91	8
128	629280	92	8
128	636139	93	8
128	642998	94	8
128	649857	95	8
128	656716	96	8
128	663575	97	8
128	670434	98	8
128	677293	99	8
128	684152	100	8
129	6211	2	0.024969
129	13070	3	0.02809
129	19929	4	0.02809
129	26788	5	0.02809
129	33647	6	0.02809
129	40506	7	0.02809
129	47365	8	0.02809
129	54224	9	0.02809
129	61084	10	0.02809
129	68097	11	0.028138
129	75036	12	0.02809
129	81975	13	0.02809
129	88914	14	0.02809
129	95853	15	0.02809
129	102792	16	0.02809
129	109731	17	0.02809
129	116670	18	0.02809
129	123609	19	0.02809
129	130548	20	0.02809
129	137487	21	0.02809
129	144426	22	0.02809
129	151365	23	0.02809
129	158304	24	0.02809
129	165243	25	0.02809
129	172182	26	0.02809
129	179121	27	0.02809
129	186060	28	0.02809
129	192999	29	0.02809
129	199938	30	0.02809
129	206877	31	0.02809
129	213816	32	0.02809
129	220755	33	0.02809
129	227694	34	0.02809
129	234633	35	0.02809
129	241572	36	0.02809
129	248511	37	0.02809
129	255450	38	0.02809
129	262389	39	0.02809
129	269328	40	0.02809
129	276267	41	0.02809
129	283206	42	0.02809
129	290246	43	0.028202
129	297175	44	0.02809
129	304104	45	0.02809
129	311033	46	0.02809
129	317962	47	0.02809
129	324891	48	0.02809
129	331919	49	0.028202
129	338838	50	0.02809
129	345757	51	0.02809
129	352676	52	0.02809
129	359595	53	0.02809
129	366616	54	0.028202
129	373525	55	0.02809
129	380434	56	0.02809
129	387343	57	0.02809
129	394252	58	0.02809
129	401261	59	0.028202
129	408160	60	0.02809
129	415059	61	0.02809
129	421958	62	0.02809
129	428857	63	0.02809
129	435853	64	0.028202
129	442742	65	0.02809
129	449631	66	0.02809
129	456520	67	0.02809
129	463510	68	0.028202
129	470389	69	0.02809
129	477268	70	0.02809
129	484147	71	0.02809
129	491026	72	0.02809
129	497999	73	0.028202
129	504868	74	0.02809
129	511737	75	0.02809
129	518606	76	0.02809
129	526395	77	0.029163745602
129	533254	78	0.02809
129	540113	79	0.02809
129	546972	80	0.02809
129	553831	81	0.02809
129	560690	82	0.02809
129	567549	83	0.02809
129	574408	84	0.02809
129	581267	85	0.02809
129	588126	86	0.02809
129	594985	87	0.02809
129	601844	88	0.02809
129	608703	89	0.02809
129	615562	90	0.02809
129	622421	91	0.02809
129	629280	92	0.02809
129	636139	93	0.02809
129	642998	94	0.02809
129	649857	95	0.02809
129	656716	96	0.02809
129	663575	97	0.02809
129	670434	98	0.02809
129	677293	99	0.02809
129	684152	100	0.02809
130	6211	2	0
130	13070	3	0
130	19929	4	0
130	26788	5	0
130	33647	6	0
130	40506	7	0
130	47365	8	0
130	54224	9	0
130	61084	10	0
130	68097	11	0
130	75036	12	0
130	81975	13	0
130	88914	14	0
130	95853	15	0
130	102792	16	0
130	109731	17	0
130	116670	18	0
130	123609	19	0
130	130548	20	0
130	137487	21	0
130	144426	22	0
130	151365	23	0
130	158304	24	0
130	165243	25	0
130	172182	26	0
130	179121	27	0
130	186060	28	0
130	192999	29	0
130	199938	30	0
130	206877	31	0
130	213816	32	0
130	220755	33	0
130	227694	34	0
130	234633	35	0
130	241572	36	0
130	248511	37	0
130	255450	38	0
130	262389	39	0
130	269328	40	0
130	276267	41	0
130	283206	42	0
130	290246	43	0
130	297175	44	0
130	304104	45	0
130	311033	46	0
130	317962	47	0
130	324891	48	0
130	331919	49	0
130	338838	50	0
130	345757	51	0
130	352676	52	0
130	359595	53	0
130	366616	54	0
130	373525	55	0
130	380434	56	0
130	387343	57	0
130	394252	58	0
130	401261	59	0
130	408160	60	0
130	415059	61	0
130	421958	62	0
130	428857	63	0
130	435853	64	0
130	442742	65	0
130	449631	66	0
130	456520	67	0
130	463510	68	0
130	470389	69	0
130	477268	70	0
130	484147	71	0
130	491026	72	0
130	497999	73	0
130	504868	74	0
130	511737	75	0
130	518606	76	0
130	526395	77	0
130	533254	78	0
130	540113	79	0
130	546972	80	0
130	553831	81	0
130	560690	82	0
130	567549	83	0
130	574408	84	0
130	581267	85	0
130	588126	86	0
130	594985	87	0
130	601844	88	0
130	608703	89	0
130	615562	90	0
130	622421	91	0
130	629280	92	0
130	636139	93	0
130	642998	94	0
130	649857	95	0
130	656716	96	0
130	663575	97	0
130	670434	98	0
130	677293	99	0
130	684152	100	0

