version 3
run BreakRanksNoGui-1611-20240711-18:33:23-303875
attr configname BreakRanksNoGui
attr datetime 20240711-18:33:23
attr datetimef 20240711-183323
attr experiment BreakRanksNoGui
attr inifile omnetpp.ini
attr iterationvars "$nCars=6, $platoonSize=3, $nLanes=1, $ploegH=0.5, $controller=1, $headway=0.1, $leaderHeadway=1.2, $leaderSpeed=110, $breakRanksSafetyDistance=20, $minSpeed=100, $maxSpeed=120, $beaconInterval=0.1, $priority=4, $packetSize=200, $sController=\"CACC\", $0=2, $1=0"
attr iterationvarsd nCars=6/platoonSize=3/nLanes=1/ploegH=0.5/controller=1/headway=0.1/leaderHeadway=1.2/leaderSpeed=110/breakRanksSafetyDistance=20/minSpeed=100/maxSpeed=120/beaconInterval=0.1/priority=4/packetSize=200/sController=CACC/2/0
attr iterationvarsf nCars=6,platoonSize=3,nLanes=1,ploegH=0.5,controller=1,headway=0.1,leaderHeadway=1.2,leaderSpeed=110,breakRanksSafetyDistance=20,minSpeed=100,maxSpeed=120,beaconInterval=0.1,priority=4,packetSize=200,sController=CACC,2,0-
attr measurement "$nCars=6, $platoonSize=3, $nLanes=1, $ploegH=0.5, $controller=1, $headway=0.1, $leaderHeadway=1.2, $leaderSpeed=110, $breakRanksSafetyDistance=20, $minSpeed=100, $maxSpeed=120, $beaconInterval=0.1, $priority=4, $packetSize=200, $sController=\"CACC\", $0=2, $1=0"
attr network Highway
attr processid 303875
attr repetition 1
attr replication #1
attr resultdir results
attr runnumber 1611
attr seedset 1
itervar beaconInterval 0.1
itervar breakRanksSafetyDistance 20
itervar controller 1
itervar headway 0.1
itervar leaderHeadway 1.2
itervar leaderSpeed 110
itervar maxSpeed 120
itervar minSpeed 100
itervar nCars 6
itervar nLanes 1
itervar packetSize 200
itervar platoonSize 3
itervar ploegH 0.5
itervar priority 4
itervar sController "\"CACC\""
config image-path ../../../veins/images
config repeat 10
config extends BreakRanks
config *.manager.command "\"sumo\""
config *.manager.ignoreGuiCommands true
config output-vector-file "results/BreakRanks_1_0.1_110_20_3 /result_1.vec"
config output-scalar-file "results/BreakRanks_1_0.1_110_20_3 /result_1.sca"
config extends Platooning
config *.node[*].scenario_type "\"BreakRanksScenario\""
config *.manager.command "\"sumo-gui\""
config *.node[*].scenario_type "\"SimpleScenario\""
config cmdenv-express-mode true
config cmdenv-autoflush true
config cmdenv-status-frequency 15s
config num-rngs 6
config network Highway
config debug-on-errors true
config print-undisposed true
config *.playgroundSizeX 65000m
config *.playgroundSizeY 25000m
config *.playgroundSizeZ 50m
config sim-time-limit "100 s"
config *.annotations.draw false
config *.obstacles.debug false
config *.world.useTorus false
config *.world.use2D false
config *.manager.updateInterval 0.01s
config *.manager.host "\"localhost\""
config *.manager.moduleType "\"org.car2x.plexe.PlatoonCar\""
config *.manager.moduleName "\"node\""
config *.manager.moduleDisplayString "\"\""
config *.manager.autoShutdown true
config *.manager.margin 25
config *.connectionManager.sendDirect true
config *.connectionManager.maxInterfDist 2600m
config *.connectionManager.drawMaxIntfDist false
config *.**.nic.mac1609_4.useServiceChannel false
config *.**.nic.mac1609_4.txPower 100mW
config *.**.nic.mac1609_4.bitrate 6Mbps
config *.**.nic.mac1609_4.useAcks true
config *.**.nic.mac1609_4.ackErrorRate 0.0
config *.**.nic.mac1609_4.frameErrorRate 0.0
config *.**.nic.phy80211p.minPowerLevel -94dBm
config *.**.nic.phy80211p.maxTXPower 100mW
config *.**.nic.phy80211p.useNoiseFloor true
config *.**.nic.phy80211p.noiseFloor -95dBm
config *.**.nic.phy80211p.decider "xmldoc(\"config.xml\")"
config *.**.nic.phy80211p.analogueModels "xmldoc(\"config.xml\")"
config *.**.nic.phy80211p.usePropagationDelay true
config *.node[*].mobility.x 0
config *.node[*].mobility.y 0
config *.node[*].mobility.z 1.895
config seed-set 1
config **.seed 1
config *.node[*].prot.rng-0 2
config *.node[*].appl.rng-0 3
config *.node[*].scenario.rng-0 4
config **.traffic.rng-0 5
config *.manager.configFile "\"./sumocfg/freeway.sumo.cfg\""
config *.manager.launchConfig "xmldoc(\"./sumocfg/freeway.launchd.xml\")"
config **.numberOfCars 6
config **.numberOfCarsPerPlatoon 3
config **.numberOfLanes 1
config *.node[*].helper_type "\"PositionHelper\""
config *.node[*].scenario.caccC1 0.5
config *.node[*].scenario.caccXi 1
config *.node[*].scenario.caccOmegaN "0.2 Hz"
config *.node[*].scenario.caccSpacing "2 m"
config *.node[*].scenario.engineTau "0.5 s"
config *.node[*].scenario.ploegH 0.5s
config *.node[*].scenario.ploegKp 0.2
config *.node[*].scenario.ploegKd 0.7
config *.node[*].scenario.useRealisticEngine false
config *.node[*].scenario.useControllerAcceleration true
config *.node[*].scenario.nLanes 1
config **.numericController 1
config **.headway 0.1s
config *.node[*].scenario.accHeadway 0.1s
config *.node[*].scenario.leaderHeadway 1.2s
config *.node[*].scenario.leaderSpeed 110kmph
config *.node[*].appl_type "\"SimplePlatooningApp\""
config *.node[*].appl.*.scalar-recording true
config *.node[*].appl.*.vector-recording true
config *.node[0].appl.breakRanksSafetyDistance 20m
config *.node[*].appl.minSpeed 100kmph
config *.node[*].appl.maxSpeed 120kmph
config *.node[*].protocol_type "\"SimplePlatooningBeaconing\""
config *.node[*].prot.*.scalar-recording true
config *.node[*].prot.*.vector-recording true
config *.node[*].prot.beaconingInterval 0.1s
config *.node[*].prot.priority 4
config *.node[*].prot.packetSize 200
config **.traffic_type "\"PlatoonsTrafficManager\""
config **.traffic.platoonInsertTime "1 s"
config **.traffic.platoonInsertSpeed 110kmph
config **.traffic.nCars 6
config **.traffic.platoonSize 3
config **.traffic.nLanes 1
config **.traffic.platooningVType "\"vtypeauto\""
config **.traffic.controller "\"CACC\""
config **.traffic.platoonInsertDistance 2m
config **.traffic.platoonInsertHeadway 0s
config **.traffic.platoonLeaderHeadway 1.2s
config **.scalar-recording false
config **.vector-recording false

vector 0 Highway.node[0].appl distance ETV
vector 1 Highway.node[0].appl relativeSpeed ETV
vector 2 Highway.node[0].appl nodeId ETV
vector 3 Highway.node[0].appl acceleration ETV
vector 4 Highway.node[0].appl controllerAcceleration ETV
vector 5 Highway.node[0].appl speed ETV
vector 6 Highway.node[0].appl posx ETV
vector 7 Highway.node[0].appl posy ETV
vector 8 Highway.node[1].appl distance ETV
vector 9 Highway.node[1].appl relativeSpeed ETV
vector 10 Highway.node[1].appl nodeId ETV
vector 11 Highway.node[1].appl acceleration ETV
vector 12 Highway.node[1].appl controllerAcceleration ETV
vector 13 Highway.node[1].appl speed ETV
vector 14 Highway.node[1].appl posx ETV
vector 15 Highway.node[1].appl posy ETV
vector 16 Highway.node[2].appl distance ETV
vector 17 Highway.node[2].appl relativeSpeed ETV
vector 18 Highway.node[2].appl nodeId ETV
vector 19 Highway.node[2].appl acceleration ETV
vector 20 Highway.node[2].appl controllerAcceleration ETV
vector 21 Highway.node[2].appl speed ETV
vector 22 Highway.node[2].appl posx ETV
vector 23 Highway.node[2].appl posy ETV
vector 24 Highway.node[3].appl distance ETV
vector 25 Highway.node[3].appl relativeSpeed ETV
vector 26 Highway.node[3].appl nodeId ETV
vector 27 Highway.node[3].appl acceleration ETV
vector 28 Highway.node[3].appl controllerAcceleration ETV
vector 29 Highway.node[3].appl speed ETV
vector 30 Highway.node[3].appl posx ETV
vector 31 Highway.node[3].appl posy ETV
vector 32 Highway.node[4].appl distance ETV
vector 33 Highway.node[4].appl relativeSpeed ETV
vector 34 Highway.node[4].appl nodeId ETV
vector 35 Highway.node[4].appl acceleration ETV
vector 36 Highway.node[4].appl controllerAcceleration ETV
vector 37 Highway.node[4].appl speed ETV
vector 38 Highway.node[4].appl posx ETV
vector 39 Highway.node[4].appl posy ETV
vector 40 Highway.node[5].appl distance ETV
vector 41 Highway.node[5].appl relativeSpeed ETV
vector 42 Highway.node[5].appl nodeId ETV
vector 43 Highway.node[5].appl acceleration ETV
vector 44 Highway.node[5].appl controllerAcceleration ETV
vector 45 Highway.node[5].appl speed ETV
vector 46 Highway.node[5].appl posx ETV
vector 47 Highway.node[5].appl posy ETV
vector 48 Highway.node[2].prot frontDelay ETV
vector 49 Highway.node[2].prot frontDelayId ETV
vector 50 Highway.node[4].prot leaderDelay ETV
vector 51 Highway.node[4].prot leaderDelayId ETV
vector 52 Highway.node[4].prot frontDelay ETV
vector 53 Highway.node[4].prot frontDelayId ETV
vector 54 Highway.node[5].prot leaderDelay ETV
vector 55 Highway.node[5].prot leaderDelayId ETV
vector 56 Highway.node[5].prot frontDelay ETV
vector 57 Highway.node[5].prot frontDelayId ETV
vector 58 Highway.node[1].prot leaderDelay ETV
vector 59 Highway.node[1].prot leaderDelayId ETV
vector 60 Highway.node[1].prot frontDelay ETV
vector 61 Highway.node[1].prot frontDelayId ETV
vector 62 Highway.node[2].prot leaderDelay ETV
vector 63 Highway.node[2].prot leaderDelayId ETV
vector 64 Highway.node[0].prot nodeId ETV
vector 65 Highway.node[0].prot busyTime ETV
vector 66 Highway.node[0].prot collisions ETV
vector 67 Highway.node[1].prot nodeId ETV
vector 68 Highway.node[1].prot busyTime ETV
vector 69 Highway.node[1].prot collisions ETV
vector 70 Highway.node[2].prot nodeId ETV
vector 71 Highway.node[2].prot busyTime ETV
vector 72 Highway.node[2].prot collisions ETV
vector 73 Highway.node[3].prot nodeId ETV
vector 74 Highway.node[3].prot busyTime ETV
vector 75 Highway.node[3].prot collisions ETV
vector 76 Highway.node[4].prot nodeId ETV
vector 77 Highway.node[4].prot busyTime ETV
vector 78 Highway.node[4].prot collisions ETV
vector 79 Highway.node[5].prot nodeId ETV
vector 80 Highway.node[5].prot busyTime ETV
vector 81 Highway.node[5].prot collisions ETV
0	113	1.11	-1
0	429	1.21	-1
0	745	1.31	-1
0	1061	1.41	-1
0	1377	1.51	-1
0	1693	1.61	-1
0	2009	1.71	-1
0	2325	1.81	-1
0	2641	1.91	-1
0	2963	2.01	-1
0	3279	2.11	-1
0	3595	2.21	-1
0	3911	2.31	-1
0	4227	2.41	-1
0	4543	2.51	-1
0	4859	2.61	-1
0	5175	2.71	-1
0	5491	2.81	-1
0	5807	2.91	-1
0	6129	3.01	-1
0	6445	3.11	-1
0	6761	3.21	-1
0	7077	3.31	-1
0	7393	3.41	-1
0	7709	3.51	-1
0	8025	3.61	-1
0	8341	3.71	-1
0	8657	3.81	-1
0	8973	3.91	-1
0	9295	4.01	-1
0	9611	4.11	-1
0	9927	4.21	-1
0	10243	4.31	-1
0	10559	4.41	-1
0	10875	4.51	-1
0	11191	4.61	-1
0	11507	4.71	-1
0	11823	4.81	-1
0	12139	4.91	-1
0	12461	5.01	-1
0	12777	5.11	-1
0	13093	5.21	-1
0	13409	5.31	-1
0	13725	5.41	-1
0	14041	5.51	-1
0	14357	5.61	-1
0	14673	5.71	-1
0	14989	5.81	-1
0	15305	5.91	-1
0	15627	6.01	-1
0	15943	6.11	-1
0	16259	6.21	-1
0	16575	6.31	-1
0	16891	6.41	-1
0	17207	6.51	-1
0	17523	6.61	-1
0	17839	6.71	-1
0	18155	6.81	-1
0	18471	6.91	-1
0	18793	7.01	-1
0	19109	7.11	-1
0	19425	7.21	-1
0	19741	7.31	-1
0	20057	7.41	-1
0	20373	7.51	-1
0	20689	7.61	-1
0	21005	7.71	-1
0	21321	7.81	-1
0	21637	7.91	-1
0	21959	8.01	-1
0	22275	8.11	-1
0	22591	8.21	-1
0	22907	8.31	-1
0	23223	8.41	-1
0	23539	8.51	-1
0	23855	8.61	-1
0	24171	8.71	-1
0	24487	8.81	-1
0	24803	8.91	-1
0	25125	9.01	-1
0	25441	9.11	-1
0	25757	9.21	-1
0	26073	9.31	-1
0	26389	9.41	-1
0	26705	9.51	-1
0	27021	9.61	-1
0	27337	9.71	-1
0	27653	9.81	-1
0	27969	9.91	-1
0	28373	10.01	-1
0	28693	10.11	-1
0	29013	10.21	-1
0	29333	10.31	-1
0	29653	10.41	-1
0	29973	10.51	-1
0	30293	10.61	-1
0	30613	10.71	-1
0	30933	10.81	-1
0	31253	10.91	-1
0	31579	11.01	-1
0	31899	11.11	-1
0	32219	11.21	-1
0	32539	11.31	-1
0	32859	11.41	-1
0	33179	11.51	-1
0	33499	11.61	-1
0	33819	11.71	-1
0	34139	11.81	-1
0	34459	11.91	-1
0	34785	12.01	-1
0	35105	12.11	-1
0	35425	12.21	-1
0	35745	12.31	-1
0	36065	12.41	-1
0	36385	12.51	-1
0	36705	12.61	-1
0	37025	12.71	-1
0	37345	12.81	-1
0	37665	12.91	-1
0	37991	13.01	-1
0	38311	13.11	-1
0	38631	13.21	-1
0	38951	13.31	-1
0	39271	13.41	-1
0	39591	13.51	-1
0	39911	13.61	-1
0	40231	13.71	-1
0	40551	13.81	-1
0	40871	13.91	-1
0	41197	14.01	-1
0	41517	14.11	-1
0	41837	14.21	-1
0	42157	14.31	-1
0	42477	14.41	-1
0	42797	14.51	-1
0	43117	14.61	-1
0	43437	14.71	-1
0	43757	14.81	-1
0	44077	14.91	-1
0	44403	15.01	-1
0	44723	15.11	-1
0	45043	15.21	-1
0	45363	15.31	-1
0	45683	15.41	-1
0	46003	15.51	-1
0	46323	15.61	-1
0	46643	15.71	-1
0	46963	15.81	-1
0	47283	15.91	-1
0	47609	16.01	-1
0	47929	16.11	-1
0	48249	16.21	-1
0	48569	16.31	-1
0	48889	16.41	-1
0	49209	16.51	-1
0	49529	16.61	-1
0	49849	16.71	-1
0	50169	16.81	-1
0	50489	16.91	-1
0	50815	17.01	-1
0	51135	17.11	-1
0	51455	17.21	-1
0	51775	17.31	-1
0	52095	17.41	-1
0	52415	17.51	-1
0	52735	17.61	-1
0	53055	17.71	-1
0	53375	17.81	-1
0	53695	17.91	-1
0	54021	18.01	-1
0	54341	18.11	-1
0	54661	18.21	-1
0	54981	18.31	-1
0	55301	18.41	-1
0	55621	18.51	-1
0	55941	18.61	-1
0	56261	18.71	-1
0	56581	18.81	-1
0	56901	18.91	-1
0	57227	19.01	-1
0	57547	19.11	-1
0	57867	19.21	-1
0	58187	19.31	-1
0	58507	19.41	-1
0	58827	19.51	-1
0	59147	19.61	-1
0	59467	19.71	-1
0	59787	19.81	-1
0	60107	19.91	-1
0	60433	20.01	-1
0	60753	20.11	-1
0	61073	20.21	-1
0	61393	20.31	-1
0	61713	20.41	-1
0	62033	20.51	-1
0	62353	20.61	-1
0	62673	20.71	-1
0	62993	20.81	-1
0	63313	20.91	-1
0	63639	21.01	-1
0	63959	21.11	-1
0	64279	21.21	-1
0	64599	21.31	-1
0	64919	21.41	-1
0	65239	21.51	-1
0	65559	21.61	-1
0	65879	21.71	-1
0	66199	21.81	-1
0	66519	21.91	-1
0	66845	22.01	-1
0	67165	22.11	-1
0	67485	22.21	-1
0	67805	22.31	-1
0	68125	22.41	-1
0	68445	22.51	-1
0	68765	22.61	-1
0	69085	22.71	-1
0	69405	22.81	-1
0	69725	22.91	-1
0	70051	23.01	-1
0	70371	23.11	-1
0	70691	23.21	-1
0	71011	23.31	-1
0	71331	23.41	-1
0	71651	23.51	-1
0	71971	23.61	-1
0	72291	23.71	-1
0	72611	23.81	-1
0	72931	23.91	-1
0	73257	24.01	-1
0	73577	24.11	-1
0	73897	24.21	-1
0	74217	24.31	-1
0	74537	24.41	-1
0	74857	24.51	-1
0	75177	24.61	-1
0	75497	24.71	-1
0	75817	24.81	-1
0	76137	24.91	-1
0	76463	25.01	-1
0	76783	25.11	-1
0	77103	25.21	-1
0	77423	25.31	-1
0	77743	25.41	-1
0	78063	25.51	-1
0	78383	25.61	-1
0	78703	25.71	-1
0	79023	25.81	-1
0	79343	25.91	-1
0	79669	26.01	-1
0	79989	26.11	-1
0	80309	26.21	-1
0	80629	26.31	-1
0	80949	26.41	-1
0	81269	26.51	-1
0	81589	26.61	-1
0	81909	26.71	-1
0	82229	26.81	-1
0	82549	26.91	-1
0	82875	27.01	-1
0	83195	27.11	-1
0	83515	27.21	-1
0	83835	27.31	-1
0	84155	27.41	-1
0	84475	27.51	-1
0	84795	27.61	-1
0	85115	27.71	-1
0	85435	27.81	-1
0	85755	27.91	-1
0	86081	28.01	-1
0	86401	28.11	-1
0	86721	28.21	-1
0	87041	28.31	-1
0	87361	28.41	-1
0	87681	28.51	-1
0	88001	28.61	-1
0	88321	28.71	-1
0	88641	28.81	-1
0	88961	28.91	-1
0	89287	29.01	-1
0	89607	29.11	-1
0	89927	29.21	-1
0	90247	29.31	-1
0	90567	29.41	-1
0	90887	29.51	-1
0	91207	29.61	-1
0	91527	29.71	-1
0	91847	29.81	-1
0	92167	29.91	-1
0	92493	30.01	-1
0	92813	30.11	-1
0	93133	30.21	-1
0	93453	30.31	-1
0	93773	30.41	-1
0	94093	30.51	-1
0	94413	30.61	-1
0	94733	30.71	-1
0	95053	30.81	-1
0	95373	30.91	-1
0	95699	31.01	-1
0	96019	31.11	-1
0	96339	31.21	-1
0	96659	31.31	-1
0	96979	31.41	-1
0	97299	31.51	-1
0	97619	31.61	-1
0	97939	31.71	-1
0	98259	31.81	-1
0	98579	31.91	-1
0	98905	32.01	-1
0	99225	32.11	-1
0	99545	32.21	-1
0	99865	32.31	-1
0	100185	32.41	-1
0	100505	32.51	-1
0	100825	32.61	-1
0	101145	32.71	-1
0	101465	32.81	-1
0	101785	32.91	-1
0	102111	33.01	-1
0	102431	33.11	-1
0	102751	33.21	-1
0	103071	33.31	-1
0	103391	33.41	-1
0	103711	33.51	-1
0	104031	33.61	-1
0	104351	33.71	-1
0	104671	33.81	-1
0	104991	33.91	-1
0	105317	34.01	-1
0	105637	34.11	-1
0	105957	34.21	-1
0	106277	34.31	-1
0	106597	34.41	-1
0	106917	34.51	-1
0	107237	34.61	-1
0	107557	34.71	-1
0	107877	34.81	-1
0	108197	34.91	-1
0	108523	35.01	-1
0	108843	35.11	-1
0	109163	35.21	-1
0	109483	35.31	-1
0	109803	35.41	-1
0	110123	35.51	-1
0	110443	35.61	-1
0	110763	35.71	-1
0	111083	35.81	-1
0	111403	35.91	-1
0	111729	36.01	-1
0	112049	36.11	-1
0	112369	36.21	-1
0	112689	36.31	-1
0	113009	36.41	-1
0	113329	36.51	-1
0	113649	36.61	-1
0	113969	36.71	-1
0	114289	36.81	-1
0	114609	36.91	-1
0	114935	37.01	-1
0	115255	37.11	-1
0	115575	37.21	-1
0	115895	37.31	-1
0	116215	37.41	-1
0	116535	37.51	-1
0	116855	37.61	-1
0	117175	37.71	-1
0	117495	37.81	-1
0	117815	37.91	-1
0	118141	38.01	-1
0	118461	38.11	-1
0	118781	38.21	-1
0	119101	38.31	-1
0	119421	38.41	-1
0	119741	38.51	-1
0	120061	38.61	-1
0	120381	38.71	-1
0	120701	38.81	-1
0	121021	38.91	-1
0	121347	39.01	-1
0	121667	39.11	-1
0	121987	39.21	-1
0	122307	39.31	-1
0	122627	39.41	-1
0	122947	39.51	-1
0	123267	39.61	-1
0	123587	39.71	-1
0	123907	39.81	-1
0	124227	39.91	-1
0	124553	40.01	-1
0	124873	40.11	-1
0	125193	40.21	-1
0	125513	40.31	-1
0	125833	40.41	-1
0	126153	40.51	-1
0	126473	40.61	-1
0	126793	40.71	-1
0	127113	40.81	-1
0	127433	40.91	-1
0	127759	41.01	-1
0	128079	41.11	-1
0	128399	41.21	-1
0	128719	41.31	-1
0	129039	41.41	-1
0	129359	41.51	-1
0	129679	41.61	-1
0	129999	41.71	-1
0	130319	41.81	-1
0	130639	41.91	-1
0	130965	42.01	-1
0	131285	42.11	-1
0	131605	42.21	-1
0	131925	42.31	-1
0	132245	42.41	-1
0	132565	42.51	-1
0	132885	42.61	-1
0	133205	42.71	-1
0	133525	42.81	-1
0	133845	42.91	-1
0	134171	43.01	-1
0	134491	43.11	-1
0	134811	43.21	-1
0	135131	43.31	-1
0	135451	43.41	-1
0	135771	43.51	-1
0	136091	43.61	-1
0	136411	43.71	-1
0	136731	43.81	-1
0	137051	43.91	-1
0	137377	44.01	-1
0	137697	44.11	-1
0	138017	44.21	-1
0	138337	44.31	-1
0	138657	44.41	-1
0	138977	44.51	-1
0	139297	44.61	-1
0	139617	44.71	-1
0	139937	44.81	-1
0	140257	44.91	-1
0	140583	45.01	-1
0	140903	45.11	-1
0	141223	45.21	-1
0	141543	45.31	-1
0	141863	45.41	-1
0	142183	45.51	-1
0	142503	45.61	-1
0	142823	45.71	-1
0	143143	45.81	-1
0	143463	45.91	-1
0	143789	46.01	-1
0	144109	46.11	-1
0	144429	46.21	-1
0	144749	46.31	-1
0	145069	46.41	-1
0	145462	46.51	-1
0	145781	46.61	-1
0	146100	46.71	-1
0	146419	46.81	-1
0	146738	46.91	-1
0	147063	47.01	-1
0	147382	47.11	-1
0	147701	47.21	-1
0	148020	47.31	-1
0	148339	47.41	-1
0	148658	47.51	-1
0	148977	47.61	-1
0	149296	47.71	-1
0	149615	47.81	-1
0	150007	47.91	-1
0	150331	48.01	-1
0	150649	48.11	-1
0	150967	48.21	-1
0	151285	48.31	-1
0	151603	48.41	-1
0	151921	48.51	-1
0	152239	48.61	-1
0	152557	48.71	-1
0	152875	48.81	-1
0	153193	48.91	-1
0	153517	49.01	-1
0	153835	49.11	-1
0	154153	49.21	-1
0	154471	49.31	-1
0	154789	49.41	-1
0	155107	49.51	-1
0	155425	49.61	-1
0	155743	49.71	-1
0	156061	49.81	-1
0	156379	49.91	-1
0	156703	50.01	-1
0	157021	50.11	-1
0	157339	50.21	-1
0	157657	50.31	-1
0	157975	50.41	-1
0	158293	50.51	-1
0	158611	50.61	-1
0	158929	50.71	-1
0	159247	50.81	-1
0	159565	50.91	-1
0	159889	51.01	-1
0	160207	51.11	-1
0	160525	51.21	-1
0	160843	51.31	-1
0	161161	51.41	-1
0	161479	51.51	-1
0	161797	51.61	-1
0	162115	51.71	-1
0	162433	51.81	-1
0	162751	51.91	-1
0	163075	52.01	-1
0	163393	52.11	-1
0	163711	52.21	-1
0	164029	52.31	-1
0	164347	52.41	-1
0	164884	52.51	-1
0	165201	52.61	-1
0	165518	52.71	-1
0	165835	52.81	-1
0	166152	52.91	-1
0	166475	53.01	-1
0	166792	53.11	-1
0	167109	53.21	-1
0	167426	53.31	-1
0	167743	53.41	-1
0	168060	53.51	-1
0	168377	53.61	-1
0	168694	53.71	-1
0	169011	53.81	-1
0	169328	53.91	-1
0	169651	54.01	-1
0	169968	54.11	-1
0	170504	54.21	-1
0	170820	54.31	-1
0	171136	54.41	-1
0	171452	54.51	-1
0	171768	54.61	-1
0	172084	54.71	-1
0	172400	54.81	-1
0	172716	54.91	-1
0	173038	55.01	-1
0	173354	55.11	-1
0	173670	55.21	-1
0	173986	55.31	-1
0	174302	55.41	-1
0	174618	55.51	-1
0	174934	55.61	-1
0	175250	55.71	-1
0	175566	55.81	-1
0	175882	55.91	-1
0	176204	56.01	-1
0	176520	56.11	-1
0	176836	56.21	-1
0	177152	56.31	-1
0	177468	56.41	-1
0	177784	56.51	-1
0	178100	56.61	-1
0	178416	56.71	-1
0	178732	56.81	-1
0	179048	56.91	-1
0	179370	57.01	-1
0	179686	57.11	-1
0	180002	57.21	-1
0	180318	57.31	-1
0	180634	57.41	-1
0	180950	57.51	-1
0	181266	57.61	-1
0	181582	57.71	-1
0	181898	57.81	-1
0	182214	57.91	-1
0	182536	58.01	-1
0	182852	58.11	-1
0	183168	58.21	-1
0	183484	58.31	-1
0	183800	58.41	-1
0	184116	58.51	-1
0	184432	58.61	-1
0	184748	58.71	-1
0	185064	58.81	-1
0	185380	58.91	-1
0	185702	59.01	-1
0	186018	59.11	-1
0	186334	59.21	-1
0	186650	59.31	-1
0	186966	59.41	-1
0	187282	59.51	-1
0	187598	59.61	-1
0	187914	59.71	-1
0	188230	59.81	-1
0	188546	59.91	-1
0	188868	60.01	-1
0	189184	60.11	-1
0	189500	60.21	-1
0	189816	60.31	-1
0	190132	60.41	-1
0	190448	60.51	-1
0	190764	60.61	-1
0	191080	60.71	-1
0	191396	60.81	-1
0	191712	60.91	-1
0	192034	61.01	-1
0	192350	61.11	-1
0	192666	61.21	-1
0	192982	61.31	-1
0	193298	61.41	-1
0	193614	61.51	-1
0	193930	61.61	-1
0	194246	61.71	-1
0	194562	61.81	-1
0	194878	61.91	-1
0	195200	62.01	-1
0	195516	62.11	-1
0	195832	62.21	-1
0	196148	62.31	-1
0	196464	62.41	-1
0	196780	62.51	-1
0	197096	62.61	-1
0	197412	62.71	-1
0	197728	62.81	-1
0	198044	62.91	-1
0	198366	63.01	-1
0	198682	63.11	-1
0	198998	63.21	-1
0	199314	63.31	-1
0	199630	63.41	-1
0	199946	63.51	-1
0	200262	63.61	-1
0	200578	63.71	-1
0	200894	63.81	-1
0	201210	63.91	-1
0	201532	64.01	-1
0	201848	64.11	-1
0	202164	64.21	-1
0	202480	64.31	-1
0	202796	64.41	-1
0	203112	64.51	-1
0	203428	64.61	-1
0	203744	64.71	-1
0	204060	64.81	-1
0	204376	64.91	-1
0	204698	65.01	-1
0	205014	65.11	-1
0	205330	65.21	-1
0	205646	65.31	-1
0	205962	65.41	-1
0	206278	65.51	-1
0	206594	65.61	-1
0	206910	65.71	-1
0	207226	65.81	-1
0	207542	65.91	-1
0	207864	66.01	-1
0	208180	66.11	-1
0	208496	66.21	-1
0	208812	66.31	-1
0	209128	66.41	-1
0	209444	66.51	-1
0	209760	66.61	-1
0	210076	66.71	-1
0	210392	66.81	-1
0	210708	66.91	-1
0	211030	67.01	-1
0	211346	67.11	-1
0	211662	67.21	-1
0	211978	67.31	-1
0	212294	67.41	-1
0	212610	67.51	-1
0	212926	67.61	-1
0	213242	67.71	-1
0	213558	67.81	-1
0	213874	67.91	-1
0	214196	68.01	-1
0	214512	68.11	-1
0	214828	68.21	-1
0	215144	68.31	-1
0	215460	68.41	-1
0	215776	68.51	-1
0	216092	68.61	-1
0	216408	68.71	-1
0	216724	68.81	-1
0	217040	68.91	-1
0	217362	69.01	-1
0	217678	69.11	-1
0	217994	69.21	-1
0	218310	69.31	-1
0	218626	69.41	-1
0	218942	69.51	-1
0	219258	69.61	-1
0	219574	69.71	-1
0	219890	69.81	-1
0	220206	69.91	-1
0	220528	70.01	-1
0	220844	70.11	-1
0	221160	70.21	-1
0	221476	70.31	-1
0	221792	70.41	-1
0	222108	70.51	-1
0	222424	70.61	-1
0	222740	70.71	-1
0	223056	70.81	-1
0	223372	70.91	-1
0	223694	71.01	-1
0	224010	71.11	-1
0	224326	71.21	-1
0	224642	71.31	-1
0	224958	71.41	-1
0	225274	71.51	-1
0	225590	71.61	-1
0	225906	71.71	-1
0	226222	71.81	-1
0	226538	71.91	-1
0	226860	72.01	-1
0	227176	72.11	-1
0	227492	72.21	-1
0	227808	72.31	-1
0	228124	72.41	-1
0	228440	72.51	-1
0	228756	72.61	-1
0	229072	72.71	-1
0	229388	72.81	-1
0	229704	72.91	-1
0	230026	73.01	-1
0	230342	73.11	-1
0	230658	73.21	-1
0	230974	73.31	-1
0	231290	73.41	-1
0	231606	73.51	-1
0	231922	73.61	-1
0	232238	73.71	-1
0	232554	73.81	-1
0	232870	73.91	-1
0	233192	74.01	-1
0	233508	74.11	-1
0	233824	74.21	-1
0	234140	74.31	-1
0	234456	74.41	-1
0	234772	74.51	-1
0	235088	74.61	-1
0	235404	74.71	-1
0	235720	74.81	-1
0	236036	74.91	-1
0	236358	75.01	-1
0	236674	75.11	-1
0	236990	75.21	-1
0	237306	75.31	-1
0	237622	75.41	-1
0	237938	75.51	-1
0	238254	75.61	-1
0	238570	75.71	-1
0	238886	75.81	-1
0	239202	75.91	-1
0	239524	76.01	-1
0	239840	76.11	-1
0	240156	76.21	-1
0	240472	76.31	-1
0	240788	76.41	-1
0	241104	76.51	-1
0	241420	76.61	-1
0	241736	76.71	-1
0	242052	76.81	-1
0	242368	76.91	-1
0	242690	77.01	-1
0	243006	77.11	-1
0	243322	77.21	-1
0	243638	77.31	-1
0	243954	77.41	-1
0	244270	77.51	-1
0	244586	77.61	-1
0	244902	77.71	-1
0	245218	77.81	-1
0	245534	77.91	-1
0	245856	78.01	-1
0	246172	78.11	-1
0	246488	78.21	-1
0	246804	78.31	-1
0	247120	78.41	-1
0	247436	78.51	-1
0	247752	78.61	-1
0	248068	78.71	-1
0	248384	78.81	-1
0	248700	78.91	-1
0	249022	79.01	-1
0	249338	79.11	-1
0	249654	79.21	-1
0	249970	79.31	-1
0	250286	79.41	-1
0	250602	79.51	-1
0	250918	79.61	-1
0	251234	79.71	-1
0	251550	79.81	-1
0	251866	79.91	-1
0	252188	80.01	-1
0	252504	80.11	-1
0	252820	80.21	-1
0	253136	80.31	-1
0	253452	80.41	-1
0	253768	80.51	-1
0	254084	80.61	-1
0	254400	80.71	-1
0	254716	80.81	-1
0	255032	80.91	-1
0	255354	81.01	-1
0	255670	81.11	-1
0	255986	81.21	-1
0	256302	81.31	-1
0	256618	81.41	-1
0	256934	81.51	-1
0	257250	81.61	-1
0	257566	81.71	-1
0	257882	81.81	-1
0	258198	81.91	-1
0	258520	82.01	-1
0	258836	82.11	-1
0	259152	82.21	-1
0	259468	82.31	-1
0	259784	82.41	-1
0	260100	82.51	-1
0	260416	82.61	-1
0	260732	82.71	-1
0	261048	82.81	-1
0	261364	82.91	-1
0	261686	83.01	-1
0	262002	83.11	-1
0	262318	83.21	-1
0	262634	83.31	-1
0	262950	83.41	-1
0	263266	83.51	-1
0	263582	83.61	-1
0	263898	83.71	-1
0	264214	83.81	-1
0	264530	83.91	-1
0	264852	84.01	-1
0	265168	84.11	-1
0	265484	84.21	-1
0	265800	84.31	-1
0	266116	84.41	-1
0	266432	84.51	-1
0	266748	84.61	-1
0	267064	84.71	-1
0	267380	84.81	-1
0	267696	84.91	-1
0	268018	85.01	-1
0	268334	85.11	-1
0	268650	85.21	-1
0	268966	85.31	-1
0	269282	85.41	-1
0	269598	85.51	-1
0	269914	85.61	-1
0	270230	85.71	-1
0	270546	85.81	-1
0	270862	85.91	-1
0	271184	86.01	-1
0	271500	86.11	-1
0	271816	86.21	-1
0	272132	86.31	-1
0	272448	86.41	-1
0	272764	86.51	-1
0	273080	86.61	-1
0	273396	86.71	-1
0	273712	86.81	-1
0	274028	86.91	-1
0	274350	87.01	-1
0	274666	87.11	-1
0	274982	87.21	-1
0	275298	87.31	-1
0	275614	87.41	-1
0	275930	87.51	-1
0	276246	87.61	-1
0	276562	87.71	-1
0	276878	87.81	-1
0	277194	87.91	-1
0	277516	88.01	-1
0	277832	88.11	-1
0	278148	88.21	-1
0	278464	88.31	-1
0	278780	88.41	-1
0	279096	88.51	-1
0	279412	88.61	-1
0	279728	88.71	-1
0	280044	88.81	-1
0	280360	88.91	-1
0	280682	89.01	-1
0	280998	89.11	-1
0	281314	89.21	-1
0	281630	89.31	-1
0	281946	89.41	-1
0	282262	89.51	-1
0	282578	89.61	-1
0	282894	89.71	-1
0	283210	89.81	-1
0	283526	89.91	-1
0	283848	90.01	-1
0	284164	90.11	-1
0	284480	90.21	-1
0	284796	90.31	-1
0	285112	90.41	-1
0	285428	90.51	-1
0	285744	90.61	-1
0	286060	90.71	-1
0	286376	90.81	-1
0	286692	90.91	-1
0	287014	91.01	-1
0	287330	91.11	-1
0	287646	91.21	-1
0	287962	91.31	-1
0	288278	91.41	-1
0	288594	91.51	-1
0	288910	91.61	-1
0	289226	91.71	-1
0	289542	91.81	-1
0	289858	91.91	-1
0	290180	92.01	-1
0	290496	92.11	-1
0	290812	92.21	-1
0	291128	92.31	-1
0	291444	92.41	-1
0	291760	92.51	-1
0	292076	92.61	-1
0	292392	92.71	-1
0	292708	92.81	-1
0	293024	92.91	-1
0	293346	93.01	-1
0	293662	93.11	-1
0	293978	93.21	-1
0	294294	93.31	-1
0	294610	93.41	-1
0	294926	93.51	-1
0	295242	93.61	-1
0	295558	93.71	-1
0	295874	93.81	-1
0	296190	93.91	-1
0	296512	94.01	-1
0	296828	94.11	-1
0	297144	94.21	-1
0	297460	94.31	-1
0	297776	94.41	-1
0	298092	94.51	-1
0	298408	94.61	-1
0	298724	94.71	-1
0	299040	94.81	-1
0	299356	94.91	-1
0	299678	95.01	-1
0	299994	95.11	-1
0	300310	95.21	-1
0	300626	95.31	-1
0	300942	95.41	-1
0	301258	95.51	-1
0	301574	95.61	-1
0	301890	95.71	-1
0	302206	95.81	-1
0	302522	95.91	-1
0	302844	96.01	-1
0	303160	96.11	-1
0	303476	96.21	-1
0	303792	96.31	-1
0	304108	96.41	-1
0	304424	96.51	-1
0	304740	96.61	-1
0	305056	96.71	-1
0	305372	96.81	-1
0	305688	96.91	-1
0	306010	97.01	-1
0	306326	97.11	-1
0	306642	97.21	-1
0	306958	97.31	-1
0	307274	97.41	-1
0	307590	97.51	-1
0	307906	97.61	-1
0	308222	97.71	-1
0	308538	97.81	-1
0	308854	97.91	-1
0	309176	98.01	-1
0	309492	98.11	-1
0	309808	98.21	-1
0	310124	98.31	-1
0	310440	98.41	-1
0	310756	98.51	-1
0	311072	98.61	-1
0	311388	98.71	-1
0	311704	98.81	-1
0	312020	98.91	-1
0	312342	99.01	-1
0	312658	99.11	-1
0	312974	99.21	-1
0	313290	99.31	-1
0	313606	99.41	-1
0	313922	99.51	-1
0	314238	99.61	-1
0	314554	99.71	-1
0	314870	99.81	-1
0	315186	99.91	-1
1	113	1.11	0
1	429	1.21	0
1	745	1.31	0
1	1061	1.41	0
1	1377	1.51	0
1	1693	1.61	0
1	2009	1.71	0
1	2325	1.81	0
1	2641	1.91	0
1	2963	2.01	0
1	3279	2.11	0
1	3595	2.21	0
1	3911	2.31	0
1	4227	2.41	0
1	4543	2.51	0
1	4859	2.61	0
1	5175	2.71	0
1	5491	2.81	0
1	5807	2.91	0
1	6129	3.01	0
1	6445	3.11	0
1	6761	3.21	0
1	7077	3.31	0
1	7393	3.41	0
1	7709	3.51	0
1	8025	3.61	0
1	8341	3.71	0
1	8657	3.81	0
1	8973	3.91	0
1	9295	4.01	0
1	9611	4.11	0
1	9927	4.21	0
1	10243	4.31	0
1	10559	4.41	0
1	10875	4.51	0
1	11191	4.61	0
1	11507	4.71	0
1	11823	4.81	0
1	12139	4.91	0
1	12461	5.01	0
1	12777	5.11	0
1	13093	5.21	0
1	13409	5.31	0
1	13725	5.41	0
1	14041	5.51	0
1	14357	5.61	0
1	14673	5.71	0
1	14989	5.81	0
1	15305	5.91	0
1	15627	6.01	0
1	15943	6.11	0
1	16259	6.21	0
1	16575	6.31	0
1	16891	6.41	0
1	17207	6.51	0
1	17523	6.61	0
1	17839	6.71	0
1	18155	6.81	0
1	18471	6.91	0
1	18793	7.01	0
1	19109	7.11	0
1	19425	7.21	0
1	19741	7.31	0
1	20057	7.41	0
1	20373	7.51	0
1	20689	7.61	0
1	21005	7.71	0
1	21321	7.81	0
1	21637	7.91	0
1	21959	8.01	0
1	22275	8.11	0
1	22591	8.21	0
1	22907	8.31	0
1	23223	8.41	0
1	23539	8.51	0
1	23855	8.61	0
1	24171	8.71	0
1	24487	8.81	0
1	24803	8.91	0
1	25125	9.01	0
1	25441	9.11	0
1	25757	9.21	0
1	26073	9.31	0
1	26389	9.41	0
1	26705	9.51	0
1	27021	9.61	0
1	27337	9.71	0
1	27653	9.81	0
1	27969	9.91	0
1	28373	10.01	0
1	28693	10.11	0
1	29013	10.21	0
1	29333	10.31	0
1	29653	10.41	0
1	29973	10.51	0
1	30293	10.61	0
1	30613	10.71	0
1	30933	10.81	0
1	31253	10.91	0
1	31579	11.01	0
1	31899	11.11	0
1	32219	11.21	0
1	32539	11.31	0
1	32859	11.41	0
1	33179	11.51	0
1	33499	11.61	0
1	33819	11.71	0
1	34139	11.81	0
1	34459	11.91	0
1	34785	12.01	0
1	35105	12.11	0
1	35425	12.21	0
1	35745	12.31	0
1	36065	12.41	0
1	36385	12.51	0
1	36705	12.61	0
1	37025	12.71	0
1	37345	12.81	0
1	37665	12.91	0
1	37991	13.01	0
1	38311	13.11	0
1	38631	13.21	0
1	38951	13.31	0
1	39271	13.41	0
1	39591	13.51	0
1	39911	13.61	0
1	40231	13.71	0
1	40551	13.81	0
1	40871	13.91	0
1	41197	14.01	0
1	41517	14.11	0
1	41837	14.21	0
1	42157	14.31	0
1	42477	14.41	0
1	42797	14.51	0
1	43117	14.61	0
1	43437	14.71	0
1	43757	14.81	0
1	44077	14.91	0
1	44403	15.01	0
1	44723	15.11	0
1	45043	15.21	0
1	45363	15.31	0
1	45683	15.41	0
1	46003	15.51	0
1	46323	15.61	0
1	46643	15.71	0
1	46963	15.81	0
1	47283	15.91	0
1	47609	16.01	0
1	47929	16.11	0
1	48249	16.21	0
1	48569	16.31	0
1	48889	16.41	0
1	49209	16.51	0
1	49529	16.61	0
1	49849	16.71	0
1	50169	16.81	0
1	50489	16.91	0
1	50815	17.01	0
1	51135	17.11	0
1	51455	17.21	0
1	51775	17.31	0
1	52095	17.41	0
1	52415	17.51	0
1	52735	17.61	0
1	53055	17.71	0
1	53375	17.81	0
1	53695	17.91	0
1	54021	18.01	0
1	54341	18.11	0
1	54661	18.21	0
1	54981	18.31	0
1	55301	18.41	0
1	55621	18.51	0
1	55941	18.61	0
1	56261	18.71	0
1	56581	18.81	0
1	56901	18.91	0
1	57227	19.01	0
1	57547	19.11	0
1	57867	19.21	0
1	58187	19.31	0
1	58507	19.41	0
1	58827	19.51	0
1	59147	19.61	0
1	59467	19.71	0
1	59787	19.81	0
1	60107	19.91	0
1	60433	20.01	0
1	60753	20.11	0
1	61073	20.21	0
1	61393	20.31	0
1	61713	20.41	0
1	62033	20.51	0
1	62353	20.61	0
1	62673	20.71	0
1	62993	20.81	0
1	63313	20.91	0
1	63639	21.01	0
1	63959	21.11	0
1	64279	21.21	0
1	64599	21.31	0
1	64919	21.41	0
1	65239	21.51	0
1	65559	21.61	0
1	65879	21.71	0
1	66199	21.81	0
1	66519	21.91	0
1	66845	22.01	0
1	67165	22.11	0
1	67485	22.21	0
1	67805	22.31	0
1	68125	22.41	0
1	68445	22.51	0
1	68765	22.61	0
1	69085	22.71	0
1	69405	22.81	0
1	69725	22.91	0
1	70051	23.01	0
1	70371	23.11	0
1	70691	23.21	0
1	71011	23.31	0
1	71331	23.41	0
1	71651	23.51	0
1	71971	23.61	0
1	72291	23.71	0
1	72611	23.81	0
1	72931	23.91	0
1	73257	24.01	0
1	73577	24.11	0
1	73897	24.21	0
1	74217	24.31	0
1	74537	24.41	0
1	74857	24.51	0
1	75177	24.61	0
1	75497	24.71	0
1	75817	24.81	0
1	76137	24.91	0
1	76463	25.01	0
1	76783	25.11	0
1	77103	25.21	0
1	77423	25.31	0
1	77743	25.41	0
1	78063	25.51	0
1	78383	25.61	0
1	78703	25.71	0
1	79023	25.81	0
1	79343	25.91	0
1	79669	26.01	0
1	79989	26.11	0
1	80309	26.21	0
1	80629	26.31	0
1	80949	26.41	0
1	81269	26.51	0
1	81589	26.61	0
1	81909	26.71	0
1	82229	26.81	0
1	82549	26.91	0
1	82875	27.01	0
1	83195	27.11	0
1	83515	27.21	0
1	83835	27.31	0
1	84155	27.41	0
1	84475	27.51	0
1	84795	27.61	0
1	85115	27.71	0
1	85435	27.81	0
1	85755	27.91	0
1	86081	28.01	0
1	86401	28.11	0
1	86721	28.21	0
1	87041	28.31	0
1	87361	28.41	0
1	87681	28.51	0
1	88001	28.61	0
1	88321	28.71	0
1	88641	28.81	0
1	88961	28.91	0
1	89287	29.01	0
1	89607	29.11	0
1	89927	29.21	0
1	90247	29.31	0
1	90567	29.41	0
1	90887	29.51	0
1	91207	29.61	0
1	91527	29.71	0
1	91847	29.81	0
1	92167	29.91	0
1	92493	30.01	0
1	92813	30.11	0
1	93133	30.21	0
1	93453	30.31	0
1	93773	30.41	0
1	94093	30.51	0
1	94413	30.61	0
1	94733	30.71	0
1	95053	30.81	0
1	95373	30.91	0
1	95699	31.01	0
1	96019	31.11	0
1	96339	31.21	0
1	96659	31.31	0
1	96979	31.41	0
1	97299	31.51	0
1	97619	31.61	0
1	97939	31.71	0
1	98259	31.81	0
1	98579	31.91	0
1	98905	32.01	0
1	99225	32.11	0
1	99545	32.21	0
1	99865	32.31	0
1	100185	32.41	0
1	100505	32.51	0
1	100825	32.61	0
1	101145	32.71	0
1	101465	32.81	0
1	101785	32.91	0
1	102111	33.01	0
1	102431	33.11	0
1	102751	33.21	0
1	103071	33.31	0
1	103391	33.41	0
1	103711	33.51	0
1	104031	33.61	0
1	104351	33.71	0
1	104671	33.81	0
1	104991	33.91	0
1	105317	34.01	0
1	105637	34.11	0
1	105957	34.21	0
1	106277	34.31	0
1	106597	34.41	0
1	106917	34.51	0
1	107237	34.61	0
1	107557	34.71	0
1	107877	34.81	0
1	108197	34.91	0
1	108523	35.01	0
1	108843	35.11	0
1	109163	35.21	0
1	109483	35.31	0
1	109803	35.41	0
1	110123	35.51	0
1	110443	35.61	0
1	110763	35.71	0
1	111083	35.81	0
1	111403	35.91	0
1	111729	36.01	0
1	112049	36.11	0
1	112369	36.21	0
1	112689	36.31	0
1	113009	36.41	0
1	113329	36.51	0
1	113649	36.61	0
1	113969	36.71	0
1	114289	36.81	0
1	114609	36.91	0
1	114935	37.01	0
1	115255	37.11	0
1	115575	37.21	0
1	115895	37.31	0
1	116215	37.41	0
1	116535	37.51	0
1	116855	37.61	0
1	117175	37.71	0
1	117495	37.81	0
1	117815	37.91	0
1	118141	38.01	0
1	118461	38.11	0
1	118781	38.21	0
1	119101	38.31	0
1	119421	38.41	0
1	119741	38.51	0
1	120061	38.61	0
1	120381	38.71	0
1	120701	38.81	0
1	121021	38.91	0
1	121347	39.01	0
1	121667	39.11	0
1	121987	39.21	0
1	122307	39.31	0
1	122627	39.41	0
1	122947	39.51	0
1	123267	39.61	0
1	123587	39.71	0
1	123907	39.81	0
1	124227	39.91	0
1	124553	40.01	0
1	124873	40.11	0
1	125193	40.21	0
1	125513	40.31	0
1	125833	40.41	0
1	126153	40.51	0
1	126473	40.61	0
1	126793	40.71	0
1	127113	40.81	0
1	127433	40.91	0
1	127759	41.01	0
1	128079	41.11	0
1	128399	41.21	0
1	128719	41.31	0
1	129039	41.41	0
1	129359	41.51	0
1	129679	41.61	0
1	129999	41.71	0
1	130319	41.81	0
1	130639	41.91	0
1	130965	42.01	0
1	131285	42.11	0
1	131605	42.21	0
1	131925	42.31	0
1	132245	42.41	0
1	132565	42.51	0
1	132885	42.61	0
1	133205	42.71	0
1	133525	42.81	0
1	133845	42.91	0
1	134171	43.01	0
1	134491	43.11	0
1	134811	43.21	0
1	135131	43.31	0
1	135451	43.41	0
1	135771	43.51	0
1	136091	43.61	0
1	136411	43.71	0
1	136731	43.81	0
1	137051	43.91	0
1	137377	44.01	0
1	137697	44.11	0
1	138017	44.21	0
1	138337	44.31	0
1	138657	44.41	0
1	138977	44.51	0
1	139297	44.61	0
1	139617	44.71	0
1	139937	44.81	0
1	140257	44.91	0
1	140583	45.01	0
1	140903	45.11	0
1	141223	45.21	0
1	141543	45.31	0
1	141863	45.41	0
1	142183	45.51	0
1	142503	45.61	0
1	142823	45.71	0
1	143143	45.81	0
1	143463	45.91	0
1	143789	46.01	0
1	144109	46.11	0
1	144429	46.21	0
1	144749	46.31	0
1	145069	46.41	0
1	145462	46.51	0
1	145781	46.61	0
1	146100	46.71	0
1	146419	46.81	0
1	146738	46.91	0
1	147063	47.01	0
1	147382	47.11	0
1	147701	47.21	0
1	148020	47.31	0
1	148339	47.41	0
1	148658	47.51	0
1	148977	47.61	0
1	149296	47.71	0
1	149615	47.81	0
1	150007	47.91	0
1	150331	48.01	0
1	150649	48.11	0
1	150967	48.21	0
1	151285	48.31	0
1	151603	48.41	0
1	151921	48.51	0
1	152239	48.61	0
1	152557	48.71	0
1	152875	48.81	0
1	153193	48.91	0
1	153517	49.01	0
1	153835	49.11	0
1	154153	49.21	0
1	154471	49.31	0
1	154789	49.41	0
1	155107	49.51	0
1	155425	49.61	0
1	155743	49.71	0
1	156061	49.81	0
1	156379	49.91	0
1	156703	50.01	0
1	157021	50.11	0
1	157339	50.21	0
1	157657	50.31	0
1	157975	50.41	0
1	158293	50.51	0
1	158611	50.61	0
1	158929	50.71	0
1	159247	50.81	0
1	159565	50.91	0
1	159889	51.01	0
1	160207	51.11	0
1	160525	51.21	0
1	160843	51.31	0
1	161161	51.41	0
1	161479	51.51	0
1	161797	51.61	0
1	162115	51.71	0
1	162433	51.81	0
1	162751	51.91	0
1	163075	52.01	0
1	163393	52.11	0
1	163711	52.21	0
1	164029	52.31	0
1	164347	52.41	0
1	164884	52.51	0
1	165201	52.61	0
1	165518	52.71	0
1	165835	52.81	0
1	166152	52.91	0
1	166475	53.01	0
1	166792	53.11	0
1	167109	53.21	0
1	167426	53.31	0
1	167743	53.41	0
1	168060	53.51	0
1	168377	53.61	0
1	168694	53.71	0
1	169011	53.81	0
1	169328	53.91	0
1	169651	54.01	0
1	169968	54.11	0
1	170504	54.21	0
1	170820	54.31	0
1	171136	54.41	0
1	171452	54.51	0
1	171768	54.61	0
1	172084	54.71	0
1	172400	54.81	0
1	172716	54.91	0
1	173038	55.01	0
1	173354	55.11	0
1	173670	55.21	0
1	173986	55.31	0
1	174302	55.41	0
1	174618	55.51	0
1	174934	55.61	0
1	175250	55.71	0
1	175566	55.81	0
1	175882	55.91	0
1	176204	56.01	0
1	176520	56.11	0
1	176836	56.21	0
1	177152	56.31	0
1	177468	56.41	0
1	177784	56.51	0
1	178100	56.61	0
1	178416	56.71	0
1	178732	56.81	0
1	179048	56.91	0
1	179370	57.01	0
1	179686	57.11	0
1	180002	57.21	0
1	180318	57.31	0
1	180634	57.41	0
1	180950	57.51	0
1	181266	57.61	0
1	181582	57.71	0
1	181898	57.81	0
1	182214	57.91	0
1	182536	58.01	0
1	182852	58.11	0
1	183168	58.21	0
1	183484	58.31	0
1	183800	58.41	0
1	184116	58.51	0
1	184432	58.61	0
1	184748	58.71	0
1	185064	58.81	0
1	185380	58.91	0
1	185702	59.01	0
1	186018	59.11	0
1	186334	59.21	0
1	186650	59.31	0
1	186966	59.41	0
1	187282	59.51	0
1	187598	59.61	0
1	187914	59.71	0
1	188230	59.81	0
1	188546	59.91	0
1	188868	60.01	0
1	189184	60.11	0
1	189500	60.21	0
1	189816	60.31	0
1	190132	60.41	0
1	190448	60.51	0
1	190764	60.61	0
1	191080	60.71	0
1	191396	60.81	0
1	191712	60.91	0
1	192034	61.01	0
1	192350	61.11	0
1	192666	61.21	0
1	192982	61.31	0
1	193298	61.41	0
1	193614	61.51	0
1	193930	61.61	0
1	194246	61.71	0
1	194562	61.81	0
1	194878	61.91	0
1	195200	62.01	0
1	195516	62.11	0
1	195832	62.21	0
1	196148	62.31	0
1	196464	62.41	0
1	196780	62.51	0
1	197096	62.61	0
1	197412	62.71	0
1	197728	62.81	0
1	198044	62.91	0
1	198366	63.01	0
1	198682	63.11	0
1	198998	63.21	0
1	199314	63.31	0
1	199630	63.41	0
1	199946	63.51	0
1	200262	63.61	0
1	200578	63.71	0
1	200894	63.81	0
1	201210	63.91	0
1	201532	64.01	0
1	201848	64.11	0
1	202164	64.21	0
1	202480	64.31	0
1	202796	64.41	0
1	203112	64.51	0
1	203428	64.61	0
1	203744	64.71	0
1	204060	64.81	0
1	204376	64.91	0
1	204698	65.01	0
1	205014	65.11	0
1	205330	65.21	0
1	205646	65.31	0
1	205962	65.41	0
1	206278	65.51	0
1	206594	65.61	0
1	206910	65.71	0
1	207226	65.81	0
1	207542	65.91	0
1	207864	66.01	0
1	208180	66.11	0
1	208496	66.21	0
1	208812	66.31	0
1	209128	66.41	0
1	209444	66.51	0
1	209760	66.61	0
1	210076	66.71	0
1	210392	66.81	0
1	210708	66.91	0
1	211030	67.01	0
1	211346	67.11	0
1	211662	67.21	0
1	211978	67.31	0
1	212294	67.41	0
1	212610	67.51	0
1	212926	67.61	0
1	213242	67.71	0
1	213558	67.81	0
1	213874	67.91	0
1	214196	68.01	0
1	214512	68.11	0
1	214828	68.21	0
1	215144	68.31	0
1	215460	68.41	0
1	215776	68.51	0
1	216092	68.61	0
1	216408	68.71	0
1	216724	68.81	0
1	217040	68.91	0
1	217362	69.01	0
1	217678	69.11	0
1	217994	69.21	0
1	218310	69.31	0
1	218626	69.41	0
1	218942	69.51	0
1	219258	69.61	0
1	219574	69.71	0
1	219890	69.81	0
1	220206	69.91	0
1	220528	70.01	0
1	220844	70.11	0
1	221160	70.21	0
1	221476	70.31	0
1	221792	70.41	0
1	222108	70.51	0
1	222424	70.61	0
1	222740	70.71	0
1	223056	70.81	0
1	223372	70.91	0
1	223694	71.01	0
1	224010	71.11	0
1	224326	71.21	0
1	224642	71.31	0
1	224958	71.41	0
1	225274	71.51	0
1	225590	71.61	0
1	225906	71.71	0
1	226222	71.81	0
1	226538	71.91	0
1	226860	72.01	0
1	227176	72.11	0
1	227492	72.21	0
1	227808	72.31	0
1	228124	72.41	0
1	228440	72.51	0
1	228756	72.61	0
1	229072	72.71	0
1	229388	72.81	0
1	229704	72.91	0
1	230026	73.01	0
1	230342	73.11	0
1	230658	73.21	0
1	230974	73.31	0
1	231290	73.41	0
1	231606	73.51	0
1	231922	73.61	0
1	232238	73.71	0
1	232554	73.81	0
1	232870	73.91	0
1	233192	74.01	0
1	233508	74.11	0
1	233824	74.21	0
1	234140	74.31	0
1	234456	74.41	0
1	234772	74.51	0
1	235088	74.61	0
1	235404	74.71	0
1	235720	74.81	0
1	236036	74.91	0
1	236358	75.01	0
1	236674	75.11	0
1	236990	75.21	0
1	237306	75.31	0
1	237622	75.41	0
1	237938	75.51	0
1	238254	75.61	0
1	238570	75.71	0
1	238886	75.81	0
1	239202	75.91	0
1	239524	76.01	0
1	239840	76.11	0
1	240156	76.21	0
1	240472	76.31	0
1	240788	76.41	0
1	241104	76.51	0
1	241420	76.61	0
1	241736	76.71	0
1	242052	76.81	0
1	242368	76.91	0
1	242690	77.01	0
1	243006	77.11	0
1	243322	77.21	0
1	243638	77.31	0
1	243954	77.41	0
1	244270	77.51	0
1	244586	77.61	0
1	244902	77.71	0
1	245218	77.81	0
1	245534	77.91	0
1	245856	78.01	0
1	246172	78.11	0
1	246488	78.21	0
1	246804	78.31	0
1	247120	78.41	0
1	247436	78.51	0
1	247752	78.61	0
1	248068	78.71	0
1	248384	78.81	0
1	248700	78.91	0
1	249022	79.01	0
1	249338	79.11	0
1	249654	79.21	0
1	249970	79.31	0
1	250286	79.41	0
1	250602	79.51	0
1	250918	79.61	0
1	251234	79.71	0
1	251550	79.81	0
1	251866	79.91	0
1	252188	80.01	0
1	252504	80.11	0
1	252820	80.21	0
1	253136	80.31	0
1	253452	80.41	0
1	253768	80.51	0
1	254084	80.61	0
1	254400	80.71	0
1	254716	80.81	0
1	255032	80.91	0
1	255354	81.01	0
1	255670	81.11	0
1	255986	81.21	0
1	256302	81.31	0
1	256618	81.41	0
1	256934	81.51	0
1	257250	81.61	0
1	257566	81.71	0
1	257882	81.81	0
1	258198	81.91	0
1	258520	82.01	0
1	258836	82.11	0
1	259152	82.21	0
1	259468	82.31	0
1	259784	82.41	0
1	260100	82.51	0
1	260416	82.61	0
1	260732	82.71	0
1	261048	82.81	0
1	261364	82.91	0
1	261686	83.01	0
1	262002	83.11	0
1	262318	83.21	0
1	262634	83.31	0
1	262950	83.41	0
1	263266	83.51	0
1	263582	83.61	0
1	263898	83.71	0
1	264214	83.81	0
1	264530	83.91	0
1	264852	84.01	0
1	265168	84.11	0
1	265484	84.21	0
1	265800	84.31	0
1	266116	84.41	0
1	266432	84.51	0
1	266748	84.61	0
1	267064	84.71	0
1	267380	84.81	0
1	267696	84.91	0
1	268018	85.01	0
1	268334	85.11	0
1	268650	85.21	0
1	268966	85.31	0
1	269282	85.41	0
1	269598	85.51	0
1	269914	85.61	0
1	270230	85.71	0
1	270546	85.81	0
1	270862	85.91	0
1	271184	86.01	0
1	271500	86.11	0
1	271816	86.21	0
1	272132	86.31	0
1	272448	86.41	0
1	272764	86.51	0
1	273080	86.61	0
1	273396	86.71	0
1	273712	86.81	0
1	274028	86.91	0
1	274350	87.01	0
1	274666	87.11	0
1	274982	87.21	0
1	275298	87.31	0
1	275614	87.41	0
1	275930	87.51	0
1	276246	87.61	0
1	276562	87.71	0
1	276878	87.81	0
1	277194	87.91	0
1	277516	88.01	0
1	277832	88.11	0
1	278148	88.21	0
1	278464	88.31	0
1	278780	88.41	0
1	279096	88.51	0
1	279412	88.61	0
1	279728	88.71	0
1	280044	88.81	0
1	280360	88.91	0
1	280682	89.01	0
1	280998	89.11	0
1	281314	89.21	0
1	281630	89.31	0
1	281946	89.41	0
1	282262	89.51	0
1	282578	89.61	0
1	282894	89.71	0
1	283210	89.81	0
1	283526	89.91	0
1	283848	90.01	0
1	284164	90.11	0
1	284480	90.21	0
1	284796	90.31	0
1	285112	90.41	0
1	285428	90.51	0
1	285744	90.61	0
1	286060	90.71	0
1	286376	90.81	0
1	286692	90.91	0
1	287014	91.01	0
1	287330	91.11	0
1	287646	91.21	0
1	287962	91.31	0
1	288278	91.41	0
1	288594	91.51	0
1	288910	91.61	0
1	289226	91.71	0
1	289542	91.81	0
1	289858	91.91	0
1	290180	92.01	0
1	290496	92.11	0
1	290812	92.21	0
1	291128	92.31	0
1	291444	92.41	0
1	291760	92.51	0
1	292076	92.61	0
1	292392	92.71	0
1	292708	92.81	0
1	293024	92.91	0
1	293346	93.01	0
1	293662	93.11	0
1	293978	93.21	0
1	294294	93.31	0
1	294610	93.41	0
1	294926	93.51	0
1	295242	93.61	0
1	295558	93.71	0
1	295874	93.81	0
1	296190	93.91	0
1	296512	94.01	0
1	296828	94.11	0
1	297144	94.21	0
1	297460	94.31	0
1	297776	94.41	0
1	298092	94.51	0
1	298408	94.61	0
1	298724	94.71	0
1	299040	94.81	0
1	299356	94.91	0
1	299678	95.01	0
1	299994	95.11	0
1	300310	95.21	0
1	300626	95.31	0
1	300942	95.41	0
1	301258	95.51	0
1	301574	95.61	0
1	301890	95.71	0
1	302206	95.81	0
1	302522	95.91	0
1	302844	96.01	0
1	303160	96.11	0
1	303476	96.21	0
1	303792	96.31	0
1	304108	96.41	0
1	304424	96.51	0
1	304740	96.61	0
1	305056	96.71	0
1	305372	96.81	0
1	305688	96.91	0
1	306010	97.01	0
1	306326	97.11	0
1	306642	97.21	0
1	306958	97.31	0
1	307274	97.41	0
1	307590	97.51	0
1	307906	97.61	0
1	308222	97.71	0
1	308538	97.81	0
1	308854	97.91	0
1	309176	98.01	0
1	309492	98.11	0
1	309808	98.21	0
1	310124	98.31	0
1	310440	98.41	0
1	310756	98.51	0
1	311072	98.61	0
1	311388	98.71	0
1	311704	98.81	0
1	312020	98.91	0
1	312342	99.01	0
1	312658	99.11	0
1	312974	99.21	0
1	313290	99.31	0
1	313606	99.41	0
1	313922	99.51	0
1	314238	99.61	0
1	314554	99.71	0
1	314870	99.81	0
1	315186	99.91	0
2	113	1.11	0
2	429	1.21	0
2	745	1.31	0
2	1061	1.41	0
2	1377	1.51	0
2	1693	1.61	0
2	2009	1.71	0
2	2325	1.81	0
2	2641	1.91	0
2	2963	2.01	0
2	3279	2.11	0
2	3595	2.21	0
2	3911	2.31	0
2	4227	2.41	0
2	4543	2.51	0
2	4859	2.61	0
2	5175	2.71	0
2	5491	2.81	0
2	5807	2.91	0
2	6129	3.01	0
2	6445	3.11	0
2	6761	3.21	0
2	7077	3.31	0
2	7393	3.41	0
2	7709	3.51	0
2	8025	3.61	0
2	8341	3.71	0
2	8657	3.81	0
2	8973	3.91	0
2	9295	4.01	0
2	9611	4.11	0
2	9927	4.21	0
2	10243	4.31	0
2	10559	4.41	0
2	10875	4.51	0
2	11191	4.61	0
2	11507	4.71	0
2	11823	4.81	0
2	12139	4.91	0
2	12461	5.01	0
2	12777	5.11	0
2	13093	5.21	0
2	13409	5.31	0
2	13725	5.41	0
2	14041	5.51	0
2	14357	5.61	0
2	14673	5.71	0
2	14989	5.81	0
2	15305	5.91	0
2	15627	6.01	0
2	15943	6.11	0
2	16259	6.21	0
2	16575	6.31	0
2	16891	6.41	0
2	17207	6.51	0
2	17523	6.61	0
2	17839	6.71	0
2	18155	6.81	0
2	18471	6.91	0
2	18793	7.01	0
2	19109	7.11	0
2	19425	7.21	0
2	19741	7.31	0
2	20057	7.41	0
2	20373	7.51	0
2	20689	7.61	0
2	21005	7.71	0
2	21321	7.81	0
2	21637	7.91	0
2	21959	8.01	0
2	22275	8.11	0
2	22591	8.21	0
2	22907	8.31	0
2	23223	8.41	0
2	23539	8.51	0
2	23855	8.61	0
2	24171	8.71	0
2	24487	8.81	0
2	24803	8.91	0
2	25125	9.01	0
2	25441	9.11	0
2	25757	9.21	0
2	26073	9.31	0
2	26389	9.41	0
2	26705	9.51	0
2	27021	9.61	0
2	27337	9.71	0
2	27653	9.81	0
2	27969	9.91	0
2	28373	10.01	0
2	28693	10.11	0
2	29013	10.21	0
2	29333	10.31	0
2	29653	10.41	0
2	29973	10.51	0
2	30293	10.61	0
2	30613	10.71	0
2	30933	10.81	0
2	31253	10.91	0
2	31579	11.01	0
2	31899	11.11	0
2	32219	11.21	0
2	32539	11.31	0
2	32859	11.41	0
2	33179	11.51	0
2	33499	11.61	0
2	33819	11.71	0
2	34139	11.81	0
2	34459	11.91	0
2	34785	12.01	0
2	35105	12.11	0
2	35425	12.21	0
2	35745	12.31	0
2	36065	12.41	0
2	36385	12.51	0
2	36705	12.61	0
2	37025	12.71	0
2	37345	12.81	0
2	37665	12.91	0
2	37991	13.01	0
2	38311	13.11	0
2	38631	13.21	0
2	38951	13.31	0
2	39271	13.41	0
2	39591	13.51	0
2	39911	13.61	0
2	40231	13.71	0
2	40551	13.81	0
2	40871	13.91	0
2	41197	14.01	0
2	41517	14.11	0
2	41837	14.21	0
2	42157	14.31	0
2	42477	14.41	0
2	42797	14.51	0
2	43117	14.61	0
2	43437	14.71	0
2	43757	14.81	0
2	44077	14.91	0
2	44403	15.01	0
2	44723	15.11	0
2	45043	15.21	0
2	45363	15.31	0
2	45683	15.41	0
2	46003	15.51	0
2	46323	15.61	0
2	46643	15.71	0
2	46963	15.81	0
2	47283	15.91	0
2	47609	16.01	0
2	47929	16.11	0
2	48249	16.21	0
2	48569	16.31	0
2	48889	16.41	0
2	49209	16.51	0
2	49529	16.61	0
2	49849	16.71	0
2	50169	16.81	0
2	50489	16.91	0
2	50815	17.01	0
2	51135	17.11	0
2	51455	17.21	0
2	51775	17.31	0
2	52095	17.41	0
2	52415	17.51	0
2	52735	17.61	0
2	53055	17.71	0
2	53375	17.81	0
2	53695	17.91	0
2	54021	18.01	0
2	54341	18.11	0
2	54661	18.21	0
2	54981	18.31	0
2	55301	18.41	0
2	55621	18.51	0
2	55941	18.61	0
2	56261	18.71	0
2	56581	18.81	0
2	56901	18.91	0
2	57227	19.01	0
2	57547	19.11	0
2	57867	19.21	0
2	58187	19.31	0
2	58507	19.41	0
2	58827	19.51	0
2	59147	19.61	0
2	59467	19.71	0
2	59787	19.81	0
2	60107	19.91	0
2	60433	20.01	0
2	60753	20.11	0
2	61073	20.21	0
2	61393	20.31	0
2	61713	20.41	0
2	62033	20.51	0
2	62353	20.61	0
2	62673	20.71	0
2	62993	20.81	0
2	63313	20.91	0
2	63639	21.01	0
2	63959	21.11	0
2	64279	21.21	0
2	64599	21.31	0
2	64919	21.41	0
2	65239	21.51	0
2	65559	21.61	0
2	65879	21.71	0
2	66199	21.81	0
2	66519	21.91	0
2	66845	22.01	0
2	67165	22.11	0
2	67485	22.21	0
2	67805	22.31	0
2	68125	22.41	0
2	68445	22.51	0
2	68765	22.61	0
2	69085	22.71	0
2	69405	22.81	0
2	69725	22.91	0
2	70051	23.01	0
2	70371	23.11	0
2	70691	23.21	0
2	71011	23.31	0
2	71331	23.41	0
2	71651	23.51	0
2	71971	23.61	0
2	72291	23.71	0
2	72611	23.81	0
2	72931	23.91	0
2	73257	24.01	0
2	73577	24.11	0
2	73897	24.21	0
2	74217	24.31	0
2	74537	24.41	0
2	74857	24.51	0
2	75177	24.61	0
2	75497	24.71	0
2	75817	24.81	0
2	76137	24.91	0
2	76463	25.01	0
2	76783	25.11	0
2	77103	25.21	0
2	77423	25.31	0
2	77743	25.41	0
2	78063	25.51	0
2	78383	25.61	0
2	78703	25.71	0
2	79023	25.81	0
2	79343	25.91	0
2	79669	26.01	0
2	79989	26.11	0
2	80309	26.21	0
2	80629	26.31	0
2	80949	26.41	0
2	81269	26.51	0
2	81589	26.61	0
2	81909	26.71	0
2	82229	26.81	0
2	82549	26.91	0
2	82875	27.01	0
2	83195	27.11	0
2	83515	27.21	0
2	83835	27.31	0
2	84155	27.41	0
2	84475	27.51	0
2	84795	27.61	0
2	85115	27.71	0
2	85435	27.81	0
2	85755	27.91	0
2	86081	28.01	0
2	86401	28.11	0
2	86721	28.21	0
2	87041	28.31	0
2	87361	28.41	0
2	87681	28.51	0
2	88001	28.61	0
2	88321	28.71	0
2	88641	28.81	0
2	88961	28.91	0
2	89287	29.01	0
2	89607	29.11	0
2	89927	29.21	0
2	90247	29.31	0
2	90567	29.41	0
2	90887	29.51	0
2	91207	29.61	0
2	91527	29.71	0
2	91847	29.81	0
2	92167	29.91	0
2	92493	30.01	0
2	92813	30.11	0
2	93133	30.21	0
2	93453	30.31	0
2	93773	30.41	0
2	94093	30.51	0
2	94413	30.61	0
2	94733	30.71	0
2	95053	30.81	0
2	95373	30.91	0
2	95699	31.01	0
2	96019	31.11	0
2	96339	31.21	0
2	96659	31.31	0
2	96979	31.41	0
2	97299	31.51	0
2	97619	31.61	0
2	97939	31.71	0
2	98259	31.81	0
2	98579	31.91	0
2	98905	32.01	0
2	99225	32.11	0
2	99545	32.21	0
2	99865	32.31	0
2	100185	32.41	0
2	100505	32.51	0
2	100825	32.61	0
2	101145	32.71	0
2	101465	32.81	0
2	101785	32.91	0
2	102111	33.01	0
2	102431	33.11	0
2	102751	33.21	0
2	103071	33.31	0
2	103391	33.41	0
2	103711	33.51	0
2	104031	33.61	0
2	104351	33.71	0
2	104671	33.81	0
2	104991	33.91	0
2	105317	34.01	0
2	105637	34.11	0
2	105957	34.21	0
2	106277	34.31	0
2	106597	34.41	0
2	106917	34.51	0
2	107237	34.61	0
2	107557	34.71	0
2	107877	34.81	0
2	108197	34.91	0
2	108523	35.01	0
2	108843	35.11	0
2	109163	35.21	0
2	109483	35.31	0
2	109803	35.41	0
2	110123	35.51	0
2	110443	35.61	0
2	110763	35.71	0
2	111083	35.81	0
2	111403	35.91	0
2	111729	36.01	0
2	112049	36.11	0
2	112369	36.21	0
2	112689	36.31	0
2	113009	36.41	0
2	113329	36.51	0
2	113649	36.61	0
2	113969	36.71	0
2	114289	36.81	0
2	114609	36.91	0
2	114935	37.01	0
2	115255	37.11	0
2	115575	37.21	0
2	115895	37.31	0
2	116215	37.41	0
2	116535	37.51	0
2	116855	37.61	0
2	117175	37.71	0
2	117495	37.81	0
2	117815	37.91	0
2	118141	38.01	0
2	118461	38.11	0
2	118781	38.21	0
2	119101	38.31	0
2	119421	38.41	0
2	119741	38.51	0
2	120061	38.61	0
2	120381	38.71	0
2	120701	38.81	0
2	121021	38.91	0
2	121347	39.01	0
2	121667	39.11	0
2	121987	39.21	0
2	122307	39.31	0
2	122627	39.41	0
2	122947	39.51	0
2	123267	39.61	0
2	123587	39.71	0
2	123907	39.81	0
2	124227	39.91	0
2	124553	40.01	0
2	124873	40.11	0
2	125193	40.21	0
2	125513	40.31	0
2	125833	40.41	0
2	126153	40.51	0
2	126473	40.61	0
2	126793	40.71	0
2	127113	40.81	0
2	127433	40.91	0
2	127759	41.01	0
2	128079	41.11	0
2	128399	41.21	0
2	128719	41.31	0
2	129039	41.41	0
2	129359	41.51	0
2	129679	41.61	0
2	129999	41.71	0
2	130319	41.81	0
2	130639	41.91	0
2	130965	42.01	0
2	131285	42.11	0
2	131605	42.21	0
2	131925	42.31	0
2	132245	42.41	0
2	132565	42.51	0
2	132885	42.61	0
2	133205	42.71	0
2	133525	42.81	0
2	133845	42.91	0
2	134171	43.01	0
2	134491	43.11	0
2	134811	43.21	0
2	135131	43.31	0
2	135451	43.41	0
2	135771	43.51	0
2	136091	43.61	0
2	136411	43.71	0
2	136731	43.81	0
2	137051	43.91	0
2	137377	44.01	0
2	137697	44.11	0
2	138017	44.21	0
2	138337	44.31	0
2	138657	44.41	0
2	138977	44.51	0
2	139297	44.61	0
2	139617	44.71	0
2	139937	44.81	0
2	140257	44.91	0
2	140583	45.01	0
2	140903	45.11	0
2	141223	45.21	0
2	141543	45.31	0
2	141863	45.41	0
2	142183	45.51	0
2	142503	45.61	0
2	142823	45.71	0
2	143143	45.81	0
2	143463	45.91	0
2	143789	46.01	0
2	144109	46.11	0
2	144429	46.21	0
2	144749	46.31	0
2	145069	46.41	0
2	145462	46.51	0
2	145781	46.61	0
2	146100	46.71	0
2	146419	46.81	0
2	146738	46.91	0
2	147063	47.01	0
2	147382	47.11	0
2	147701	47.21	0
2	148020	47.31	0
2	148339	47.41	0
2	148658	47.51	0
2	148977	47.61	0
2	149296	47.71	0
2	149615	47.81	0
2	150007	47.91	0
2	150331	48.01	0
2	150649	48.11	0
2	150967	48.21	0
2	151285	48.31	0
2	151603	48.41	0
2	151921	48.51	0
2	152239	48.61	0
2	152557	48.71	0
2	152875	48.81	0
2	153193	48.91	0
2	153517	49.01	0
2	153835	49.11	0
2	154153	49.21	0
2	154471	49.31	0
2	154789	49.41	0
2	155107	49.51	0
2	155425	49.61	0
2	155743	49.71	0
2	156061	49.81	0
2	156379	49.91	0
2	156703	50.01	0
2	157021	50.11	0
2	157339	50.21	0
2	157657	50.31	0
2	157975	50.41	0
2	158293	50.51	0
2	158611	50.61	0
2	158929	50.71	0
2	159247	50.81	0
2	159565	50.91	0
2	159889	51.01	0
2	160207	51.11	0
2	160525	51.21	0
2	160843	51.31	0
2	161161	51.41	0
2	161479	51.51	0
2	161797	51.61	0
2	162115	51.71	0
2	162433	51.81	0
2	162751	51.91	0
2	163075	52.01	0
2	163393	52.11	0
2	163711	52.21	0
2	164029	52.31	0
2	164347	52.41	0
2	164884	52.51	0
2	165201	52.61	0
2	165518	52.71	0
2	165835	52.81	0
2	166152	52.91	0
2	166475	53.01	0
2	166792	53.11	0
2	167109	53.21	0
2	167426	53.31	0
2	167743	53.41	0
2	168060	53.51	0
2	168377	53.61	0
2	168694	53.71	0
2	169011	53.81	0
2	169328	53.91	0
2	169651	54.01	0
2	169968	54.11	0
2	170504	54.21	0
2	170820	54.31	0
2	171136	54.41	0
2	171452	54.51	0
2	171768	54.61	0
2	172084	54.71	0
2	172400	54.81	0
2	172716	54.91	0
2	173038	55.01	0
2	173354	55.11	0
2	173670	55.21	0
2	173986	55.31	0
2	174302	55.41	0
2	174618	55.51	0
2	174934	55.61	0
2	175250	55.71	0
2	175566	55.81	0
2	175882	55.91	0
2	176204	56.01	0
2	176520	56.11	0
2	176836	56.21	0
2	177152	56.31	0
2	177468	56.41	0
2	177784	56.51	0
2	178100	56.61	0
2	178416	56.71	0
2	178732	56.81	0
2	179048	56.91	0
2	179370	57.01	0
2	179686	57.11	0
2	180002	57.21	0
2	180318	57.31	0
2	180634	57.41	0
2	180950	57.51	0
2	181266	57.61	0
2	181582	57.71	0
2	181898	57.81	0
2	182214	57.91	0
2	182536	58.01	0
2	182852	58.11	0
2	183168	58.21	0
2	183484	58.31	0
2	183800	58.41	0
2	184116	58.51	0
2	184432	58.61	0
2	184748	58.71	0
2	185064	58.81	0
2	185380	58.91	0
2	185702	59.01	0
2	186018	59.11	0
2	186334	59.21	0
2	186650	59.31	0
2	186966	59.41	0
2	187282	59.51	0
2	187598	59.61	0
2	187914	59.71	0
2	188230	59.81	0
2	188546	59.91	0
2	188868	60.01	0
2	189184	60.11	0
2	189500	60.21	0
2	189816	60.31	0
2	190132	60.41	0
2	190448	60.51	0
2	190764	60.61	0
2	191080	60.71	0
2	191396	60.81	0
2	191712	60.91	0
2	192034	61.01	0
2	192350	61.11	0
2	192666	61.21	0
2	192982	61.31	0
2	193298	61.41	0
2	193614	61.51	0
2	193930	61.61	0
2	194246	61.71	0
2	194562	61.81	0
2	194878	61.91	0
2	195200	62.01	0
2	195516	62.11	0
2	195832	62.21	0
2	196148	62.31	0
2	196464	62.41	0
2	196780	62.51	0
2	197096	62.61	0
2	197412	62.71	0
2	197728	62.81	0
2	198044	62.91	0
2	198366	63.01	0
2	198682	63.11	0
2	198998	63.21	0
2	199314	63.31	0
2	199630	63.41	0
2	199946	63.51	0
2	200262	63.61	0
2	200578	63.71	0
2	200894	63.81	0
2	201210	63.91	0
2	201532	64.01	0
2	201848	64.11	0
2	202164	64.21	0
2	202480	64.31	0
2	202796	64.41	0
2	203112	64.51	0
2	203428	64.61	0
2	203744	64.71	0
2	204060	64.81	0
2	204376	64.91	0
2	204698	65.01	0
2	205014	65.11	0
2	205330	65.21	0
2	205646	65.31	0
2	205962	65.41	0
2	206278	65.51	0
2	206594	65.61	0
2	206910	65.71	0
2	207226	65.81	0
2	207542	65.91	0
2	207864	66.01	0
2	208180	66.11	0
2	208496	66.21	0
2	208812	66.31	0
2	209128	66.41	0
2	209444	66.51	0
2	209760	66.61	0
2	210076	66.71	0
2	210392	66.81	0
2	210708	66.91	0
2	211030	67.01	0
2	211346	67.11	0
2	211662	67.21	0
2	211978	67.31	0
2	212294	67.41	0
2	212610	67.51	0
2	212926	67.61	0
2	213242	67.71	0
2	213558	67.81	0
2	213874	67.91	0
2	214196	68.01	0
2	214512	68.11	0
2	214828	68.21	0
2	215144	68.31	0
2	215460	68.41	0
2	215776	68.51	0
2	216092	68.61	0
2	216408	68.71	0
2	216724	68.81	0
2	217040	68.91	0
2	217362	69.01	0
2	217678	69.11	0
2	217994	69.21	0
2	218310	69.31	0
2	218626	69.41	0
2	218942	69.51	0
2	219258	69.61	0
2	219574	69.71	0
2	219890	69.81	0
2	220206	69.91	0
2	220528	70.01	0
2	220844	70.11	0
2	221160	70.21	0
2	221476	70.31	0
2	221792	70.41	0
2	222108	70.51	0
2	222424	70.61	0
2	222740	70.71	0
2	223056	70.81	0
2	223372	70.91	0
2	223694	71.01	0
2	224010	71.11	0
2	224326	71.21	0
2	224642	71.31	0
2	224958	71.41	0
2	225274	71.51	0
2	225590	71.61	0
2	225906	71.71	0
2	226222	71.81	0
2	226538	71.91	0
2	226860	72.01	0
2	227176	72.11	0
2	227492	72.21	0
2	227808	72.31	0
2	228124	72.41	0
2	228440	72.51	0
2	228756	72.61	0
2	229072	72.71	0
2	229388	72.81	0
2	229704	72.91	0
2	230026	73.01	0
2	230342	73.11	0
2	230658	73.21	0
2	230974	73.31	0
2	231290	73.41	0
2	231606	73.51	0
2	231922	73.61	0
2	232238	73.71	0
2	232554	73.81	0
2	232870	73.91	0
2	233192	74.01	0
2	233508	74.11	0
2	233824	74.21	0
2	234140	74.31	0
2	234456	74.41	0
2	234772	74.51	0
2	235088	74.61	0
2	235404	74.71	0
2	235720	74.81	0
2	236036	74.91	0
2	236358	75.01	0
2	236674	75.11	0
2	236990	75.21	0
2	237306	75.31	0
2	237622	75.41	0
2	237938	75.51	0
2	238254	75.61	0
2	238570	75.71	0
2	238886	75.81	0
2	239202	75.91	0
2	239524	76.01	0
2	239840	76.11	0
2	240156	76.21	0
2	240472	76.31	0
2	240788	76.41	0
2	241104	76.51	0
2	241420	76.61	0
2	241736	76.71	0
2	242052	76.81	0
2	242368	76.91	0
2	242690	77.01	0
2	243006	77.11	0
2	243322	77.21	0
2	243638	77.31	0
2	243954	77.41	0
2	244270	77.51	0
2	244586	77.61	0
2	244902	77.71	0
2	245218	77.81	0
2	245534	77.91	0
2	245856	78.01	0
2	246172	78.11	0
2	246488	78.21	0
2	246804	78.31	0
2	247120	78.41	0
2	247436	78.51	0
2	247752	78.61	0
2	248068	78.71	0
2	248384	78.81	0
2	248700	78.91	0
2	249022	79.01	0
2	249338	79.11	0
2	249654	79.21	0
2	249970	79.31	0
2	250286	79.41	0
2	250602	79.51	0
2	250918	79.61	0
2	251234	79.71	0
2	251550	79.81	0
2	251866	79.91	0
2	252188	80.01	0
2	252504	80.11	0
2	252820	80.21	0
2	253136	80.31	0
2	253452	80.41	0
2	253768	80.51	0
2	254084	80.61	0
2	254400	80.71	0
2	254716	80.81	0
2	255032	80.91	0
2	255354	81.01	0
2	255670	81.11	0
2	255986	81.21	0
2	256302	81.31	0
2	256618	81.41	0
2	256934	81.51	0
2	257250	81.61	0
2	257566	81.71	0
2	257882	81.81	0
2	258198	81.91	0
2	258520	82.01	0
2	258836	82.11	0
2	259152	82.21	0
2	259468	82.31	0
2	259784	82.41	0
2	260100	82.51	0
2	260416	82.61	0
2	260732	82.71	0
2	261048	82.81	0
2	261364	82.91	0
2	261686	83.01	0
2	262002	83.11	0
2	262318	83.21	0
2	262634	83.31	0
2	262950	83.41	0
2	263266	83.51	0
2	263582	83.61	0
2	263898	83.71	0
2	264214	83.81	0
2	264530	83.91	0
2	264852	84.01	0
2	265168	84.11	0
2	265484	84.21	0
2	265800	84.31	0
2	266116	84.41	0
2	266432	84.51	0
2	266748	84.61	0
2	267064	84.71	0
2	267380	84.81	0
2	267696	84.91	0
2	268018	85.01	0
2	268334	85.11	0
2	268650	85.21	0
2	268966	85.31	0
2	269282	85.41	0
2	269598	85.51	0
2	269914	85.61	0
2	270230	85.71	0
2	270546	85.81	0
2	270862	85.91	0
2	271184	86.01	0
2	271500	86.11	0
2	271816	86.21	0
2	272132	86.31	0
2	272448	86.41	0
2	272764	86.51	0
2	273080	86.61	0
2	273396	86.71	0
2	273712	86.81	0
2	274028	86.91	0
2	274350	87.01	0
2	274666	87.11	0
2	274982	87.21	0
2	275298	87.31	0
2	275614	87.41	0
2	275930	87.51	0
2	276246	87.61	0
2	276562	87.71	0
2	276878	87.81	0
2	277194	87.91	0
2	277516	88.01	0
2	277832	88.11	0
2	278148	88.21	0
2	278464	88.31	0
2	278780	88.41	0
2	279096	88.51	0
2	279412	88.61	0
2	279728	88.71	0
2	280044	88.81	0
2	280360	88.91	0
2	280682	89.01	0
2	280998	89.11	0
2	281314	89.21	0
2	281630	89.31	0
2	281946	89.41	0
2	282262	89.51	0
2	282578	89.61	0
2	282894	89.71	0
2	283210	89.81	0
2	283526	89.91	0
2	283848	90.01	0
2	284164	90.11	0
2	284480	90.21	0
2	284796	90.31	0
2	285112	90.41	0
2	285428	90.51	0
2	285744	90.61	0
2	286060	90.71	0
2	286376	90.81	0
2	286692	90.91	0
2	287014	91.01	0
2	287330	91.11	0
2	287646	91.21	0
2	287962	91.31	0
2	288278	91.41	0
2	288594	91.51	0
2	288910	91.61	0
2	289226	91.71	0
2	289542	91.81	0
2	289858	91.91	0
2	290180	92.01	0
2	290496	92.11	0
2	290812	92.21	0
2	291128	92.31	0
2	291444	92.41	0
2	291760	92.51	0
2	292076	92.61	0
2	292392	92.71	0
2	292708	92.81	0
2	293024	92.91	0
2	293346	93.01	0
2	293662	93.11	0
2	293978	93.21	0
2	294294	93.31	0
2	294610	93.41	0
2	294926	93.51	0
2	295242	93.61	0
2	295558	93.71	0
2	295874	93.81	0
2	296190	93.91	0
2	296512	94.01	0
2	296828	94.11	0
2	297144	94.21	0
2	297460	94.31	0
2	297776	94.41	0
2	298092	94.51	0
2	298408	94.61	0
2	298724	94.71	0
2	299040	94.81	0
2	299356	94.91	0
2	299678	95.01	0
2	299994	95.11	0
2	300310	95.21	0
2	300626	95.31	0
2	300942	95.41	0
2	301258	95.51	0
2	301574	95.61	0
2	301890	95.71	0
2	302206	95.81	0
2	302522	95.91	0
2	302844	96.01	0
2	303160	96.11	0
2	303476	96.21	0
2	303792	96.31	0
2	304108	96.41	0
2	304424	96.51	0
2	304740	96.61	0
2	305056	96.71	0
2	305372	96.81	0
2	305688	96.91	0
2	306010	97.01	0
2	306326	97.11	0
2	306642	97.21	0
2	306958	97.31	0
2	307274	97.41	0
2	307590	97.51	0
2	307906	97.61	0
2	308222	97.71	0
2	308538	97.81	0
2	308854	97.91	0
2	309176	98.01	0
2	309492	98.11	0
2	309808	98.21	0
2	310124	98.31	0
2	310440	98.41	0
2	310756	98.51	0
2	311072	98.61	0
2	311388	98.71	0
2	311704	98.81	0
2	312020	98.91	0
2	312342	99.01	0
2	312658	99.11	0
2	312974	99.21	0
2	313290	99.31	0
2	313606	99.41	0
2	313922	99.51	0
2	314238	99.61	0
2	314554	99.71	0
2	314870	99.81	0
2	315186	99.91	0
3	113	1.11	-0.000716383
3	429	1.21	-0.00136341
3	745	1.31	-0.00186974
3	1061	1.41	-0.00225157
3	1377	1.51	-0.00252443
3	1693	1.61	-0.00270298
3	2009	1.71	-0.00280098
3	2325	1.81	-0.00283113
3	2641	1.91	-0.00280509
3	2963	2.01	-0.00273342
3	3279	2.11	-0.00262559
3	3595	2.21	-0.00249005
3	3911	2.31	-0.00233419
3	4227	2.41	-0.00216447
3	4543	2.51	-0.00198642
3	4859	2.61	-0.00180472
3	5175	2.71	-0.0016233
3	5491	2.81	-0.00144536
3	5807	2.91	-0.00127346
3	6129	3.01	-0.0011096
3	6445	3.11	-0.000955278
3	6761	3.21	-0.000811546
3	7077	3.31	-0.00067908
3	7393	3.41	-0.000558232
3	7709	3.51	-0.000449082
3	8025	3.61	-0.000351487
3	8341	3.71	-0.00026512
3	8657	3.81	-0.000189514
3	8973	3.91	-0.000124092
3	9295	4.01	-6.81972e-05
3	9611	4.11	-2.11209e-05
3	9927	4.21	1.78769e-05
3	10243	4.31	4.9548e-05
3	10559	4.41	7.46407e-05
3	10875	4.51	9.38867e-05
3	11191	4.61	0.000107991
3	11507	4.71	0.000117625
3	11823	4.81	0.000123418
3	12139	4.91	0.000125957
3	12461	5.01	0.000125781
3	12777	5.11	0.00012338
3	13093	5.21	0.000119198
3	13409	5.31	0.000113629
3	13725	5.41	0.000107022
3	14041	5.51	9.96832e-05
3	14357	5.61	9.18747e-05
3	14673	5.71	8.38211e-05
3	14989	5.81	7.57109e-05
3	15305	5.91	6.76999e-05
3	15627	6.01	5.99137e-05
3	15943	6.11	5.24518e-05
3	16259	6.21	4.53896e-05
3	16575	6.31	3.87821e-05
3	16891	6.41	3.2666e-05
3	17207	6.51	2.70628e-05
3	17523	6.61	2.19809e-05
3	17839	6.71	1.74176e-05
3	18155	6.81	1.33618e-05
3	18471	6.91	9.79494e-06
3	18793	7.01	6.6932e-06
3	19109	7.11	4.02864e-06
3	19425	7.21	1.77051e-06
3	19741	7.31	-1.13691e-07
3	20057	7.41	-1.65736e-06
3	20373	7.51	-2.89397e-06
3	20689	7.61	-3.85652e-06
3	21005	7.71	-4.57698e-06
3	21321	7.81	-5.08591e-06
3	21637	7.91	-5.41219e-06
3	21959	8.01	-5.58279e-06
3	22275	8.11	-5.6226e-06
3	22591	8.21	-5.55442e-06
3	22907	8.31	-5.39886e-06
3	23223	8.41	-5.17441e-06
3	23539	8.51	-4.89748e-06
3	23855	8.61	-4.58246e-06
3	24171	8.71	-4.24184e-06
3	24487	8.81	-3.88634e-06
3	24803	8.91	-3.52499e-06
3	25125	9.01	-3.16534e-06
3	25441	9.11	-2.81353e-06
3	25757	9.21	-2.47446e-06
3	26073	9.31	-2.15192e-06
3	26389	9.41	-1.84873e-06
3	26705	9.51	-1.56685e-06
3	27021	9.61	-1.30751e-06
3	27337	9.71	-1.0713e-06
3	27653	9.81	-8.58321e-07
3	27969	9.91	-6.68206e-07
3	28373	10.01	-5.0026e-07
3	28693	10.11	-3.53514e-07
3	29013	10.21	-2.2679e-07
3	29333	10.31	-1.18765e-07
3	29653	10.41	-2.80163e-08
3	29973	10.51	4.6931e-08
3	30293	10.61	1.07573e-07
3	30613	10.71	1.55391e-07
3	30933	10.81	1.91831e-07
3	31253	10.91	2.18284e-07
3	31579	11.01	2.3607e-07
3	31899	11.11	2.46427e-07
3	32219	11.21	2.50502e-07
3	32539	11.31	2.49353e-07
3	32859	11.41	2.43938e-07
3	33179	11.51	2.3512e-07
3	33499	11.61	2.23669e-07
3	33819	11.71	2.10264e-07
3	34139	11.81	1.95496e-07
3	34459	11.91	1.79874e-07
3	34785	12.01	1.63833e-07
3	35105	12.11	1.47736e-07
3	35425	12.21	1.3188e-07
3	35745	12.31	1.16508e-07
3	36065	12.41	1.01807e-07
3	36385	12.51	8.79222e-08
3	36705	12.61	7.49541e-08
3	37025	12.71	6.29711e-08
3	37345	12.81	5.20114e-08
3	37665	12.91	4.20883e-08
3	37991	13.01	3.3193e-08
3	38311	13.11	2.53003e-08
3	38631	13.21	1.83718e-08
3	38951	13.31	1.23581e-08
3	39271	13.41	7.20348e-09
3	39591	13.51	2.84537e-09
3	39911	13.61	-7.80886e-10
3	40231	13.71	-3.74136e-09
3	40551	13.81	-6.10285e-09
3	40871	13.91	-7.93072e-09
3	41197	14.01	-9.28821e-09
3	41517	14.11	-1.0235e-08
3	41837	14.21	-1.08283e-08
3	42157	14.31	-1.11211e-08
3	42477	14.41	-1.11612e-08
3	42797	14.51	-1.09946e-08
3	43117	14.61	-1.06599e-08
3	43437	14.71	-1.01945e-08
3	43757	14.81	-9.62999e-09
3	44077	14.91	-8.99405e-09
3	44403	15.01	-8.31086e-09
3	44723	15.11	-7.60103e-09
3	45043	15.21	-6.88338e-09
3	45363	15.31	-6.17071e-09
3	45683	15.41	-5.47544e-09
3	46003	15.51	-4.80682e-09
3	46323	15.61	-4.17266e-09
3	46643	15.71	-3.57687e-09
3	46963	15.81	-3.02443e-09
3	47283	15.91	-2.51674e-09
3	47609	16.01	-2.05489e-09
3	47929	16.11	-1.63958e-09
3	48249	16.21	-1.26903e-09
3	48569	16.31	-9.42535e-10
3	48889	16.41	-6.57963e-10
3	49209	16.51	-4.1247e-10
3	49529	16.61	-2.04636e-10
3	49849	16.71	-2.91323e-11
3	50169	16.81	1.14753e-10
3	50489	16.91	2.30926e-10
3	50815	17.01	3.22231e-10
3	51135	17.11	3.91154e-10
3	51455	17.21	4.40892e-10
3	51775	17.31	4.73577e-10
3	52095	17.41	4.92051e-10
3	52415	17.51	4.98446e-10
3	52735	17.61	4.94893e-10
3	53055	17.71	4.82814e-10
3	53375	17.81	4.6434e-10
3	53695	17.91	4.40892e-10
3	54021	18.01	4.13536e-10
3	54341	18.11	3.83693e-10
3	54661	18.21	3.51719e-10
3	54981	18.31	3.19744e-10
3	55301	18.41	2.8777e-10
3	55621	18.51	2.55795e-10
3	55941	18.61	2.25953e-10
3	56261	18.71	1.97531e-10
3	56581	18.81	1.6982e-10
3	56901	18.91	1.44951e-10
3	57227	19.01	1.21503e-10
3	57547	19.11	1.00187e-10
3	57867	19.21	8.10019e-11
3	58187	19.31	6.32383e-11
3	58507	19.41	4.86722e-11
3	58827	19.51	3.44613e-11
3	59147	19.61	2.34479e-11
3	59467	19.71	1.27898e-11
3	59787	19.81	4.9738e-12
3	60107	19.91	-2.13163e-12
3	60433	20.01	-8.17124e-12
3	60753	20.11	-1.1724e-11
3	61073	20.21	-1.52767e-11
3	61393	20.31	-1.88294e-11
3	61713	20.41	-2.02505e-11
3	62033	20.51	-2.02505e-11
3	62353	20.61	-2.02505e-11
3	62673	20.71	-2.02505e-11
3	62993	20.81	-2.02505e-11
3	63313	20.91	-2.02505e-11
3	63639	21.01	-2.02505e-11
3	63959	21.11	-2.02505e-11
3	64279	21.21	-2.02505e-11
3	64599	21.31	-1.88294e-11
3	64919	21.41	-1.7053e-11
3	65239	21.51	-1.52767e-11
3	65559	21.61	-1.38556e-11
3	65879	21.71	-1.24345e-11
3	66199	21.81	-1.13687e-11
3	66519	21.91	-1.03029e-11
3	66845	22.01	-9.23706e-12
3	67165	22.11	-8.52651e-12
3	67485	22.21	-7.4607e-12
3	67805	22.31	-6.75016e-12
3	68125	22.41	-6.03961e-12
3	68445	22.51	-5.68434e-12
3	68765	22.61	-4.9738e-12
3	69085	22.71	-4.61853e-12
3	69405	22.81	-4.26326e-12
3	69725	22.91	-3.90799e-12
3	70051	23.01	-3.55271e-12
3	70371	23.11	-3.19744e-12
3	70691	23.21	-2.84217e-12
3	71011	23.31	-2.4869e-12
3	71331	23.41	-2.13163e-12
3	71651	23.51	-2.13163e-12
3	71971	23.61	-1.77636e-12
3	72291	23.71	-1.77636e-12
3	72611	23.81	-1.42109e-12
3	72931	23.91	-1.42109e-12
3	73257	24.01	-1.06581e-12
3	73577	24.11	-1.06581e-12
3	73897	24.21	-1.06581e-12
3	74217	24.31	-1.06581e-12
3	74537	24.41	-7.10543e-13
3	74857	24.51	-7.10543e-13
3	75177	24.61	-7.10543e-13
3	75497	24.71	-7.10543e-13
3	75817	24.81	-7.10543e-13
3	76137	24.91	-3.55271e-13
3	76463	25.01	-3.55271e-13
3	76783	25.11	-3.55271e-13
3	77103	25.21	-3.55271e-13
3	77423	25.31	-3.55271e-13
3	77743	25.41	-3.55271e-13
3	78063	25.51	-3.55271e-13
3	78383	25.61	-3.55271e-13
3	78703	25.71	-3.55271e-13
3	79023	25.81	-3.55271e-13
3	79343	25.91	0
3	79669	26.01	0
3	79989	26.11	0
3	80309	26.21	0
3	80629	26.31	0
3	80949	26.41	0
3	81269	26.51	0
3	81589	26.61	0
3	81909	26.71	0
3	82229	26.81	0
3	82549	26.91	0
3	82875	27.01	0
3	83195	27.11	0
3	83515	27.21	0
3	83835	27.31	0
3	84155	27.41	0
3	84475	27.51	0
3	84795	27.61	0
3	85115	27.71	0
3	85435	27.81	0
3	85755	27.91	0
3	86081	28.01	0
3	86401	28.11	0
3	86721	28.21	0
3	87041	28.31	0
3	87361	28.41	0
3	87681	28.51	0
3	88001	28.61	0
3	88321	28.71	0
3	88641	28.81	0
3	88961	28.91	0
3	89287	29.01	0
3	89607	29.11	0
3	89927	29.21	0
3	90247	29.31	0
3	90567	29.41	0
3	90887	29.51	0
3	91207	29.61	0
3	91527	29.71	0
3	91847	29.81	0
3	92167	29.91	0
3	92493	30.01	0
3	92813	30.11	0
3	93133	30.21	0
3	93453	30.31	0
3	93773	30.41	0
3	94093	30.51	0
3	94413	30.61	0
3	94733	30.71	0
3	95053	30.81	0
3	95373	30.91	0
3	95699	31.01	0
3	96019	31.11	0
3	96339	31.21	0
3	96659	31.31	0
3	96979	31.41	0
3	97299	31.51	0
3	97619	31.61	0
3	97939	31.71	0
3	98259	31.81	0
3	98579	31.91	0
3	98905	32.01	0
3	99225	32.11	0
3	99545	32.21	0
3	99865	32.31	0
3	100185	32.41	0
3	100505	32.51	0
3	100825	32.61	0
3	101145	32.71	0
3	101465	32.81	0
3	101785	32.91	0
3	102111	33.01	0
3	102431	33.11	0
3	102751	33.21	0
3	103071	33.31	0
3	103391	33.41	0
3	103711	33.51	0
3	104031	33.61	0
3	104351	33.71	0
3	104671	33.81	0
3	104991	33.91	0
3	105317	34.01	0
3	105637	34.11	0
3	105957	34.21	0
3	106277	34.31	0
3	106597	34.41	0
3	106917	34.51	0
3	107237	34.61	0
3	107557	34.71	0
3	107877	34.81	0
3	108197	34.91	0
3	108523	35.01	0
3	108843	35.11	0
3	109163	35.21	0
3	109483	35.31	0
3	109803	35.41	0
3	110123	35.51	0
3	110443	35.61	0
3	110763	35.71	0
3	111083	35.81	0
3	111403	35.91	0
3	111729	36.01	0
3	112049	36.11	0
3	112369	36.21	0
3	112689	36.31	0
3	113009	36.41	0
3	113329	36.51	0
3	113649	36.61	0
3	113969	36.71	0
3	114289	36.81	0
3	114609	36.91	0
3	114935	37.01	0
3	115255	37.11	0
3	115575	37.21	0
3	115895	37.31	0
3	116215	37.41	0
3	116535	37.51	0
3	116855	37.61	0
3	117175	37.71	0
3	117495	37.81	0
3	117815	37.91	0
3	118141	38.01	0
3	118461	38.11	0
3	118781	38.21	0
3	119101	38.31	0
3	119421	38.41	0
3	119741	38.51	0
3	120061	38.61	0
3	120381	38.71	0
3	120701	38.81	0
3	121021	38.91	0
3	121347	39.01	0
3	121667	39.11	0
3	121987	39.21	0
3	122307	39.31	0
3	122627	39.41	0
3	122947	39.51	0
3	123267	39.61	0
3	123587	39.71	0
3	123907	39.81	0
3	124227	39.91	0
3	124553	40.01	0
3	124873	40.11	0
3	125193	40.21	0
3	125513	40.31	0
3	125833	40.41	0
3	126153	40.51	0
3	126473	40.61	0
3	126793	40.71	0
3	127113	40.81	0
3	127433	40.91	0
3	127759	41.01	0
3	128079	41.11	0
3	128399	41.21	0
3	128719	41.31	0
3	129039	41.41	0
3	129359	41.51	0
3	129679	41.61	0
3	129999	41.71	0
3	130319	41.81	0
3	130639	41.91	0
3	130965	42.01	0
3	131285	42.11	0
3	131605	42.21	0
3	131925	42.31	0
3	132245	42.41	0
3	132565	42.51	0
3	132885	42.61	0
3	133205	42.71	0
3	133525	42.81	0
3	133845	42.91	0
3	134171	43.01	0
3	134491	43.11	0
3	134811	43.21	0
3	135131	43.31	0
3	135451	43.41	0
3	135771	43.51	0
3	136091	43.61	0
3	136411	43.71	0
3	136731	43.81	0
3	137051	43.91	0
3	137377	44.01	0
3	137697	44.11	0
3	138017	44.21	0
3	138337	44.31	0
3	138657	44.41	0
3	138977	44.51	0
3	139297	44.61	0
3	139617	44.71	0
3	139937	44.81	0
3	140257	44.91	0
3	140583	45.01	0
3	140903	45.11	0
3	141223	45.21	0
3	141543	45.31	0
3	141863	45.41	0
3	142183	45.51	0
3	142503	45.61	0
3	142823	45.71	0
3	143143	45.81	0
3	143463	45.91	0
3	143789	46.01	0
3	144109	46.11	0
3	144429	46.21	0
3	144749	46.31	0
3	145069	46.41	0
3	145462	46.51	0
3	145781	46.61	0
3	146100	46.71	0
3	146419	46.81	0
3	146738	46.91	0
3	147063	47.01	0
3	147382	47.11	0
3	147701	47.21	0
3	148020	47.31	0
3	148339	47.41	0
3	148658	47.51	0
3	148977	47.61	0
3	149296	47.71	0
3	149615	47.81	0
3	150007	47.91	0
3	150331	48.01	0
3	150649	48.11	0
3	150967	48.21	0
3	151285	48.31	0
3	151603	48.41	0
3	151921	48.51	0
3	152239	48.61	0
3	152557	48.71	0
3	152875	48.81	0
3	153193	48.91	0
3	153517	49.01	0
3	153835	49.11	0
3	154153	49.21	0
3	154471	49.31	0
3	154789	49.41	0
3	155107	49.51	0
3	155425	49.61	0
3	155743	49.71	0
3	156061	49.81	0
3	156379	49.91	0
3	156703	50.01	0
3	157021	50.11	0
3	157339	50.21	0
3	157657	50.31	0
3	157975	50.41	0
3	158293	50.51	0
3	158611	50.61	0
3	158929	50.71	0
3	159247	50.81	0
3	159565	50.91	0
3	159889	51.01	0
3	160207	51.11	0
3	160525	51.21	0
3	160843	51.31	0
3	161161	51.41	0
3	161479	51.51	0
3	161797	51.61	0
3	162115	51.71	0
3	162433	51.81	0
3	162751	51.91	0
3	163075	52.01	0
3	163393	52.11	0
3	163711	52.21	0
3	164029	52.31	0
3	164347	52.41	0
3	164884	52.51	0
3	165201	52.61	0
3	165518	52.71	0
3	165835	52.81	0
3	166152	52.91	0
3	166475	53.01	0
3	166792	53.11	0
3	167109	53.21	0
3	167426	53.31	0
3	167743	53.41	0
3	168060	53.51	0
3	168377	53.61	0
3	168694	53.71	0
3	169011	53.81	0
3	169328	53.91	0
3	169651	54.01	0
3	169968	54.11	0
3	170504	54.21	0
3	170820	54.31	0
3	171136	54.41	0
3	171452	54.51	0
3	171768	54.61	0
3	172084	54.71	0
3	172400	54.81	0
3	172716	54.91	0
3	173038	55.01	0
3	173354	55.11	0
3	173670	55.21	0
3	173986	55.31	0
3	174302	55.41	0
3	174618	55.51	0
3	174934	55.61	0
3	175250	55.71	0
3	175566	55.81	0
3	175882	55.91	0
3	176204	56.01	0
3	176520	56.11	0
3	176836	56.21	0
3	177152	56.31	0
3	177468	56.41	0
3	177784	56.51	0
3	178100	56.61	0
3	178416	56.71	0
3	178732	56.81	0
3	179048	56.91	0
3	179370	57.01	0
3	179686	57.11	0
3	180002	57.21	0
3	180318	57.31	0
3	180634	57.41	0
3	180950	57.51	0
3	181266	57.61	0
3	181582	57.71	0
3	181898	57.81	0
3	182214	57.91	0
3	182536	58.01	0
3	182852	58.11	0
3	183168	58.21	0
3	183484	58.31	0
3	183800	58.41	0
3	184116	58.51	0
3	184432	58.61	0
3	184748	58.71	0
3	185064	58.81	0
3	185380	58.91	0
3	185702	59.01	0
3	186018	59.11	0
3	186334	59.21	0
3	186650	59.31	0
3	186966	59.41	0
3	187282	59.51	0
3	187598	59.61	0
3	187914	59.71	0
3	188230	59.81	0
3	188546	59.91	0
3	188868	60.01	0
3	189184	60.11	0
3	189500	60.21	0
3	189816	60.31	0
3	190132	60.41	0
3	190448	60.51	0
3	190764	60.61	0
3	191080	60.71	0
3	191396	60.81	0
3	191712	60.91	0
3	192034	61.01	0
3	192350	61.11	0
3	192666	61.21	0
3	192982	61.31	0
3	193298	61.41	0
3	193614	61.51	0
3	193930	61.61	0
3	194246	61.71	0
3	194562	61.81	0
3	194878	61.91	0
3	195200	62.01	0
3	195516	62.11	0
3	195832	62.21	0
3	196148	62.31	0
3	196464	62.41	0
3	196780	62.51	0
3	197096	62.61	0
3	197412	62.71	0
3	197728	62.81	0
3	198044	62.91	0
3	198366	63.01	0
3	198682	63.11	0
3	198998	63.21	0
3	199314	63.31	0
3	199630	63.41	0
3	199946	63.51	0
3	200262	63.61	0
3	200578	63.71	0
3	200894	63.81	0
3	201210	63.91	0
3	201532	64.01	0
3	201848	64.11	0
3	202164	64.21	0
3	202480	64.31	0
3	202796	64.41	0
3	203112	64.51	0
3	203428	64.61	0
3	203744	64.71	0
3	204060	64.81	0
3	204376	64.91	0
3	204698	65.01	0
3	205014	65.11	0
3	205330	65.21	0
3	205646	65.31	0
3	205962	65.41	0
3	206278	65.51	0
3	206594	65.61	0
3	206910	65.71	0
3	207226	65.81	0
3	207542	65.91	0
3	207864	66.01	0
3	208180	66.11	0
3	208496	66.21	0
3	208812	66.31	0
3	209128	66.41	0
3	209444	66.51	0
3	209760	66.61	0
3	210076	66.71	0
3	210392	66.81	0
3	210708	66.91	0
3	211030	67.01	0
3	211346	67.11	0
3	211662	67.21	0
3	211978	67.31	0
3	212294	67.41	0
3	212610	67.51	0
3	212926	67.61	0
3	213242	67.71	0
3	213558	67.81	0
3	213874	67.91	0
3	214196	68.01	0
3	214512	68.11	0
3	214828	68.21	0
3	215144	68.31	0
3	215460	68.41	0
3	215776	68.51	0
3	216092	68.61	0
3	216408	68.71	0
3	216724	68.81	0
3	217040	68.91	0
3	217362	69.01	0
3	217678	69.11	0
3	217994	69.21	0
3	218310	69.31	0
3	218626	69.41	0
3	218942	69.51	0
3	219258	69.61	0
3	219574	69.71	0
3	219890	69.81	0
3	220206	69.91	0
3	220528	70.01	0
3	220844	70.11	0
3	221160	70.21	0
3	221476	70.31	0
3	221792	70.41	0
3	222108	70.51	0
3	222424	70.61	0
3	222740	70.71	0
3	223056	70.81	0
3	223372	70.91	0
3	223694	71.01	0
3	224010	71.11	0
3	224326	71.21	0
3	224642	71.31	0
3	224958	71.41	0
3	225274	71.51	0
3	225590	71.61	0
3	225906	71.71	0
3	226222	71.81	0
3	226538	71.91	0
3	226860	72.01	0
3	227176	72.11	0
3	227492	72.21	0
3	227808	72.31	0
3	228124	72.41	0
3	228440	72.51	0
3	228756	72.61	0
3	229072	72.71	0
3	229388	72.81	0
3	229704	72.91	0
3	230026	73.01	0
3	230342	73.11	0
3	230658	73.21	0
3	230974	73.31	0
3	231290	73.41	0
3	231606	73.51	0
3	231922	73.61	0
3	232238	73.71	0
3	232554	73.81	0
3	232870	73.91	0
3	233192	74.01	0
3	233508	74.11	0
3	233824	74.21	0
3	234140	74.31	0
3	234456	74.41	0
3	234772	74.51	0
3	235088	74.61	0
3	235404	74.71	0
3	235720	74.81	0
3	236036	74.91	0
3	236358	75.01	0
3	236674	75.11	0
3	236990	75.21	0
3	237306	75.31	0
3	237622	75.41	0
3	237938	75.51	0
3	238254	75.61	0
3	238570	75.71	0
3	238886	75.81	0
3	239202	75.91	0
3	239524	76.01	0
3	239840	76.11	0
3	240156	76.21	0
3	240472	76.31	0
3	240788	76.41	0
3	241104	76.51	0
3	241420	76.61	0
3	241736	76.71	0
3	242052	76.81	0
3	242368	76.91	0
3	242690	77.01	0
3	243006	77.11	0
3	243322	77.21	0
3	243638	77.31	0
3	243954	77.41	0
3	244270	77.51	0
3	244586	77.61	0
3	244902	77.71	0
3	245218	77.81	0
3	245534	77.91	0
3	245856	78.01	0
3	246172	78.11	0
3	246488	78.21	0
3	246804	78.31	0
3	247120	78.41	0
3	247436	78.51	0
3	247752	78.61	0
3	248068	78.71	0
3	248384	78.81	0
3	248700	78.91	0
3	249022	79.01	0
3	249338	79.11	0
3	249654	79.21	0
3	249970	79.31	0
3	250286	79.41	0
3	250602	79.51	0
3	250918	79.61	0
3	251234	79.71	0
3	251550	79.81	0
3	251866	79.91	0
3	252188	80.01	0
3	252504	80.11	0
3	252820	80.21	0
3	253136	80.31	0
3	253452	80.41	0
3	253768	80.51	0
3	254084	80.61	0
3	254400	80.71	0
3	254716	80.81	0
3	255032	80.91	0
3	255354	81.01	0
3	255670	81.11	0
3	255986	81.21	0
3	256302	81.31	0
3	256618	81.41	0
3	256934	81.51	0
3	257250	81.61	0
3	257566	81.71	0
3	257882	81.81	0
3	258198	81.91	0
3	258520	82.01	0
3	258836	82.11	0
3	259152	82.21	0
3	259468	82.31	0
3	259784	82.41	0
3	260100	82.51	0
3	260416	82.61	0
3	260732	82.71	0
3	261048	82.81	0
3	261364	82.91	0
3	261686	83.01	0
3	262002	83.11	0
3	262318	83.21	0
3	262634	83.31	0
3	262950	83.41	0
3	263266	83.51	0
3	263582	83.61	0
3	263898	83.71	0
3	264214	83.81	0
3	264530	83.91	0
3	264852	84.01	0
3	265168	84.11	0
3	265484	84.21	0
3	265800	84.31	0
3	266116	84.41	0
3	266432	84.51	0
3	266748	84.61	0
3	267064	84.71	0
3	267380	84.81	0
3	267696	84.91	0
3	268018	85.01	0
3	268334	85.11	0
3	268650	85.21	0
3	268966	85.31	0
3	269282	85.41	0
3	269598	85.51	0
3	269914	85.61	0
3	270230	85.71	0
3	270546	85.81	0
3	270862	85.91	0
3	271184	86.01	0
3	271500	86.11	0
3	271816	86.21	0
3	272132	86.31	0
3	272448	86.41	0
3	272764	86.51	0
3	273080	86.61	0
3	273396	86.71	0
3	273712	86.81	0
3	274028	86.91	0
3	274350	87.01	0
3	274666	87.11	0
3	274982	87.21	0
3	275298	87.31	0
3	275614	87.41	0
3	275930	87.51	0
3	276246	87.61	0
3	276562	87.71	0
3	276878	87.81	0
3	277194	87.91	0
3	277516	88.01	0
3	277832	88.11	0
3	278148	88.21	0
3	278464	88.31	0
3	278780	88.41	0
3	279096	88.51	0
3	279412	88.61	0
3	279728	88.71	0
3	280044	88.81	0
3	280360	88.91	0
3	280682	89.01	0
3	280998	89.11	0
3	281314	89.21	0
3	281630	89.31	0
3	281946	89.41	0
3	282262	89.51	0
3	282578	89.61	0
3	282894	89.71	0
3	283210	89.81	0
3	283526	89.91	0
3	283848	90.01	0
3	284164	90.11	0
3	284480	90.21	0
3	284796	90.31	0
3	285112	90.41	0
3	285428	90.51	0
3	285744	90.61	0
3	286060	90.71	0
3	286376	90.81	0
3	286692	90.91	0
3	287014	91.01	0
3	287330	91.11	0
3	287646	91.21	0
3	287962	91.31	0
3	288278	91.41	0
3	288594	91.51	0
3	288910	91.61	0
3	289226	91.71	0
3	289542	91.81	0
3	289858	91.91	0
3	290180	92.01	0
3	290496	92.11	0
3	290812	92.21	0
3	291128	92.31	0
3	291444	92.41	0
3	291760	92.51	0
3	292076	92.61	0
3	292392	92.71	0
3	292708	92.81	0
3	293024	92.91	0
3	293346	93.01	0
3	293662	93.11	0
3	293978	93.21	0
3	294294	93.31	0
3	294610	93.41	0
3	294926	93.51	0
3	295242	93.61	0
3	295558	93.71	0
3	295874	93.81	0
3	296190	93.91	0
3	296512	94.01	0
3	296828	94.11	0
3	297144	94.21	0
3	297460	94.31	0
3	297776	94.41	0
3	298092	94.51	0
3	298408	94.61	0
3	298724	94.71	0
3	299040	94.81	0
3	299356	94.91	0
3	299678	95.01	0
3	299994	95.11	0
3	300310	95.21	0
3	300626	95.31	0
3	300942	95.41	0
3	301258	95.51	0
3	301574	95.61	0
3	301890	95.71	0
3	302206	95.81	0
3	302522	95.91	0
3	302844	96.01	0
3	303160	96.11	0
3	303476	96.21	0
3	303792	96.31	0
3	304108	96.41	0
3	304424	96.51	0
3	304740	96.61	0
3	305056	96.71	0
3	305372	96.81	0
3	305688	96.91	0
3	306010	97.01	0
3	306326	97.11	0
3	306642	97.21	0
3	306958	97.31	0
3	307274	97.41	0
3	307590	97.51	0
3	307906	97.61	0
3	308222	97.71	0
3	308538	97.81	0
3	308854	97.91	0
3	309176	98.01	0
3	309492	98.11	0
3	309808	98.21	0
3	310124	98.31	0
3	310440	98.41	0
3	310756	98.51	0
3	311072	98.61	0
3	311388	98.71	0
3	311704	98.81	0
3	312020	98.91	0
3	312342	99.01	0
3	312658	99.11	0
3	312974	99.21	0
3	313290	99.31	0
3	313606	99.41	0
3	313922	99.51	0
3	314238	99.61	0
3	314554	99.71	0
3	314870	99.81	0
3	315186	99.91	0
4	113	1.11	-0.00437036
4	429	1.21	-0.00426837
4	745	1.31	-0.00410815
4	1061	1.41	-0.00390303
4	1377	1.51	-0.00366476
4	1693	1.61	-0.00340356
4	2009	1.71	-0.00312825
4	2325	1.81	-0.00284628
4	2641	1.91	-0.00256392
4	2963	2.01	-0.0022863
4	3279	2.11	-0.00201755
4	3595	2.21	-0.00176089
4	3911	2.31	-0.00151876
4	4227	2.41	-0.00129289
4	4543	2.51	-0.00108441
4	4859	2.61	-0.00089393
4	5175	2.71	-0.000721638
4	5491	2.81	-0.000567355
4	5807	2.91	-0.000430614
4	6129	3.01	-0.000310715
4	6445	3.11	-0.000206783
4	6761	3.21	-0.000117814
4	7077	3.31	-4.27149e-05
4	7393	3.41	1.96584e-05
4	7709	3.51	7.04736e-05
4	8025	3.61	0.000110896
4	8341	3.71	0.000142067
4	8657	3.81	0.00016509
4	8973	3.91	0.000181016
4	9295	4.01	0.000190834
4	9611	4.11	0.000195466
4	9927	4.21	0.00019576
4	10243	4.31	0.000192489
4	10559	4.41	0.000186354
4	10875	4.51	0.000177979
4	11191	4.61	0.000167916
4	11507	4.71	0.000156649
4	11823	4.81	0.000144597
4	12139	4.91	0.000132116
4	12461	5.01	0.000119508
4	12777	5.11	0.000107021
4	13093	5.21	9.48587e-05
4	13409	5.31	8.31796e-05
4	13725	5.41	7.21068e-05
4	14041	5.51	6.17299e-05
4	14357	5.61	5.21101e-05
4	14673	5.71	4.32839e-05
4	14989	5.81	3.52669e-05
4	15305	5.91	2.80577e-05
4	15627	6.01	2.16404e-05
4	15943	6.11	1.59878e-05
4	16259	6.21	1.1064e-05
[...]
69	274294	87	0
69	277460	88	0
69	280626	89	0
69	283792	90	0
69	286958	91	0
69	290124	92	0
69	293290	93	0
69	296456	94	0
69	299622	95	0
69	302788	96	0
69	305954	97	0
69	309120	98	0
69	312286	99	0
69	315452	100	0
70	2908	2	2
70	6074	3	2
70	9240	4	2
70	12406	5	2
70	15572	6	2
70	18738	7	2
70	21904	8	2
70	25070	9	2
70	28238	10	2
70	31520	11	2
70	34726	12	2
70	37932	13	2
70	41138	14	2
70	44344	15	2
70	47550	16	2
70	50756	17	2
70	53962	18	2
70	57168	19	2
70	60374	20	2
70	63580	21	2
70	66786	22	2
70	69992	23	2
70	73198	24	2
70	76404	25	2
70	79610	26	2
70	82816	27	2
70	86022	28	2
70	89228	29	2
70	92434	30	2
70	95640	31	2
70	98846	32	2
70	102052	33	2
70	105258	34	2
70	108464	35	2
70	111670	36	2
70	114876	37	2
70	118082	38	2
70	121288	39	2
70	124494	40	2
70	127700	41	2
70	130906	42	2
70	134112	43	2
70	137318	44	2
70	140524	45	2
70	143730	46	2
70	147005	47	2
70	150274	48	2
70	153460	49	2
70	156646	50	2
70	159832	51	2
70	163018	52	2
70	166419	53	2
70	169595	54	2
70	172983	55	2
70	176149	56	2
70	179315	57	2
70	182481	58	2
70	185647	59	2
70	188813	60	2
70	191979	61	2
70	195145	62	2
70	198311	63	2
70	201477	64	2
70	204643	65	2
70	207809	66	2
70	210975	67	2
70	214141	68	2
70	217307	69	2
70	220473	70	2
70	223639	71	2
70	226805	72	2
70	229971	73	2
70	233137	74	2
70	236303	75	2
70	239469	76	2
70	242635	77	2
70	245801	78	2
70	248967	79	2
70	252133	80	2
70	255299	81	2
70	258465	82	2
70	261631	83	2
70	264797	84	2
70	267963	85	2
70	271129	86	2
70	274295	87	2
70	277461	88	2
70	280627	89	2
70	283793	90	2
70	286959	91	2
70	290125	92	2
70	293291	93	2
70	296457	94	2
70	299623	95	2
70	302789	96	2
70	305955	97	2
70	309121	98	2
70	312287	99	2
70	315453	100	2
71	2908	2	0.016544
71	6074	3	0.01873
71	9240	4	0.01873
71	12406	5	0.01873
71	15572	6	0.01873
71	18738	7	0.01873
71	21904	8	0.01873
71	25070	9	0.01873
71	28238	10	0.01873
71	31520	11	0.018778278491
71	34726	12	0.01873
71	37932	13	0.01873
71	41138	14	0.01873
71	44344	15	0.01873
71	47550	16	0.01873
71	50756	17	0.01873
71	53962	18	0.01873
71	57168	19	0.01873
71	60374	20	0.01873
71	63580	21	0.01873
71	66786	22	0.01873
71	69992	23	0.01873
71	73198	24	0.01873
71	76404	25	0.01873
71	79610	26	0.01873
71	82816	27	0.01873
71	86022	28	0.01873
71	89228	29	0.01873
71	92434	30	0.01873
71	95640	31	0.01873
71	98846	32	0.01873
71	102052	33	0.01873
71	105258	34	0.01873
71	108464	35	0.01873
71	111670	36	0.01873
71	114876	37	0.01873
71	118082	38	0.01873
71	121288	39	0.01873
71	124494	40	0.01873
71	127700	41	0.01873
71	130906	42	0.01873
71	134112	43	0.01873
71	137318	44	0.01873
71	140524	45	0.01873
71	143730	46	0.01873
71	147005	47	0.018842
71	150274	48	0.018842
71	153460	49	0.01873
71	156646	50	0.01873
71	159832	51	0.01873
71	163018	52	0.01873
71	166419	53	0.019066
71	169595	54	0.01873
71	172983	55	0.01913131931
71	176149	56	0.01873
71	179315	57	0.01873
71	182481	58	0.01873
71	185647	59	0.01873
71	188813	60	0.01873
71	191979	61	0.01873
71	195145	62	0.01873
71	198311	63	0.01873
71	201477	64	0.01873
71	204643	65	0.01873
71	207809	66	0.01873
71	210975	67	0.01873
71	214141	68	0.01873
71	217307	69	0.01873
71	220473	70	0.01873
71	223639	71	0.01873
71	226805	72	0.01873
71	229971	73	0.01873
71	233137	74	0.01873
71	236303	75	0.01873
71	239469	76	0.01873
71	242635	77	0.01873
71	245801	78	0.01873
71	248967	79	0.01873
71	252133	80	0.01873
71	255299	81	0.01873
71	258465	82	0.01873
71	261631	83	0.01873
71	264797	84	0.01873
71	267963	85	0.01873
71	271129	86	0.01873
71	274295	87	0.01873
71	277461	88	0.01873
71	280627	89	0.01873
71	283793	90	0.01873
71	286959	91	0.01873
71	290125	92	0.01873
71	293291	93	0.01873
71	296457	94	0.01873
71	299623	95	0.01873
71	302789	96	0.01873
71	305955	97	0.01873
71	309121	98	0.01873
71	312287	99	0.01873
71	315453	100	0.01873
72	2908	2	0
72	6074	3	0
72	9240	4	0
72	12406	5	0
72	15572	6	0
72	18738	7	0
72	21904	8	0
72	25070	9	0
72	28238	10	0
72	31520	11	0
72	34726	12	0
72	37932	13	0
72	41138	14	0
72	44344	15	0
72	47550	16	0
72	50756	17	0
72	53962	18	0
72	57168	19	0
72	60374	20	0
72	63580	21	0
72	66786	22	0
72	69992	23	0
72	73198	24	0
72	76404	25	0
72	79610	26	0
72	82816	27	0
72	86022	28	0
72	89228	29	0
72	92434	30	0
72	95640	31	0
72	98846	32	0
72	102052	33	0
72	105258	34	0
72	108464	35	0
72	111670	36	0
72	114876	37	0
72	118082	38	0
72	121288	39	0
72	124494	40	0
72	127700	41	0
72	130906	42	0
72	134112	43	0
72	137318	44	0
72	140524	45	0
72	143730	46	0
72	147005	47	0
72	150274	48	0
72	153460	49	0
72	156646	50	0
72	159832	51	0
72	163018	52	0
72	166419	53	0
72	169595	54	0
72	172983	55	0
72	176149	56	0
72	179315	57	0
72	182481	58	0
72	185647	59	0
72	188813	60	0
72	191979	61	0
72	195145	62	0
72	198311	63	0
72	201477	64	0
72	204643	65	0
72	207809	66	0
72	210975	67	0
72	214141	68	0
72	217307	69	0
72	220473	70	0
72	223639	71	0
72	226805	72	0
72	229971	73	0
72	233137	74	0
72	236303	75	0
72	239469	76	0
72	242635	77	0
72	245801	78	0
72	248967	79	0
72	252133	80	0
72	255299	81	0
72	258465	82	0
72	261631	83	0
72	264797	84	0
72	267963	85	0
72	271129	86	0
72	274295	87	0
72	277461	88	0
72	280627	89	0
72	283793	90	0
72	286959	91	0
72	290125	92	0
72	293291	93	0
72	296457	94	0
72	299623	95	0
72	302789	96	0
72	305955	97	0
72	309121	98	0
72	312287	99	0
72	315453	100	0
73	2909	2	3
73	6075	3	3
73	9241	4	3
73	12407	5	3
73	15573	6	3
73	18739	7	3
73	21905	8	3
73	25071	9	3
73	28239	10	3
73	31521	11	3
73	34727	12	3
73	37933	13	3
73	41139	14	3
73	44345	15	3
73	47551	16	3
73	50757	17	3
73	53963	18	3
73	57169	19	3
73	60375	20	3
73	63581	21	3
73	66787	22	3
73	69993	23	3
73	73199	24	3
73	76405	25	3
73	79611	26	3
73	82817	27	3
73	86023	28	3
73	89229	29	3
73	92435	30	3
73	95641	31	3
73	98847	32	3
73	102053	33	3
73	105259	34	3
73	108465	35	3
73	111671	36	3
73	114877	37	3
73	118083	38	3
73	121289	39	3
73	124495	40	3
73	127701	41	3
73	130907	42	3
73	134113	43	3
73	137319	44	3
73	140525	45	3
73	143731	46	3
73	147006	47	3
73	150275	48	3
73	153461	49	3
73	156647	50	3
73	159833	51	3
73	163019	52	3
73	166420	53	3
73	169596	54	3
73	172984	55	3
73	176150	56	3
73	179316	57	3
73	182482	58	3
73	185648	59	3
73	188814	60	3
73	191980	61	3
73	195146	62	3
73	198312	63	3
73	201478	64	3
73	204644	65	3
73	207810	66	3
73	210976	67	3
73	214142	68	3
73	217308	69	3
73	220474	70	3
73	223640	71	3
73	226806	72	3
73	229972	73	3
73	233138	74	3
73	236304	75	3
73	239470	76	3
73	242636	77	3
73	245802	78	3
73	248968	79	3
73	252134	80	3
73	255300	81	3
73	258466	82	3
73	261632	83	3
73	264798	84	3
73	267964	85	3
73	271130	86	3
73	274296	87	3
73	277462	88	3
73	280628	89	3
73	283794	90	3
73	286960	91	3
73	290126	92	3
73	293292	93	3
73	296458	94	3
73	299624	95	3
73	302790	96	3
73	305956	97	3
73	309122	98	3
73	312288	99	3
73	315454	100	3
74	2909	2	0.016545
74	6075	3	0.01873
74	9241	4	0.01873
74	12407	5	0.01873
74	15573	6	0.01873
74	18739	7	0.01873
74	21905	8	0.01873
74	25071	9	0.01873
74	28239	10	0.01873
74	31521	11	0.018779000003
74	34727	12	0.01873
74	37933	13	0.01873
74	41139	14	0.01873
74	44345	15	0.01873
74	47551	16	0.01873
74	50757	17	0.01873
74	53963	18	0.01873
74	57169	19	0.01873
74	60375	20	0.01873
74	63581	21	0.01873
74	66787	22	0.01873
74	69993	23	0.01873
74	73199	24	0.01873
74	76405	25	0.01873
74	79611	26	0.01873
74	82817	27	0.01873
74	86023	28	0.01873
74	89229	29	0.01873
74	92435	30	0.01873
74	95641	31	0.01873
74	98847	32	0.01873
74	102053	33	0.01873
74	105259	34	0.01873
74	108465	35	0.01873
74	111671	36	0.01873
74	114877	37	0.01873
74	118083	38	0.01873
74	121289	39	0.01873
74	124495	40	0.01873
74	127701	41	0.01873
74	130907	42	0.01873
74	134113	43	0.01873
74	137319	44	0.01873
74	140525	45	0.01873
74	143731	46	0.01873
74	147006	47	0.018874
74	150275	48	0.018842
74	153461	49	0.01873
74	156647	50	0.01873
74	159833	51	0.01873
74	163019	52	0.01873
74	166420	53	0.019164379058
74	169596	54	0.01873
74	172984	55	0.019066
74	176150	56	0.01873
74	179316	57	0.01873
74	182482	58	0.01873
74	185648	59	0.01873
74	188814	60	0.01873
74	191980	61	0.01873
74	195146	62	0.01873
74	198312	63	0.01873
74	201478	64	0.01873
74	204644	65	0.01873
74	207810	66	0.01873
74	210976	67	0.01873
74	214142	68	0.01873
74	217308	69	0.01873
74	220474	70	0.01873
74	223640	71	0.01873
74	226806	72	0.01873
74	229972	73	0.01873
74	233138	74	0.01873
74	236304	75	0.01873
74	239470	76	0.01873
74	242636	77	0.01873
74	245802	78	0.01873
74	248968	79	0.01873
74	252134	80	0.01873
74	255300	81	0.01873
74	258466	82	0.01873
74	261632	83	0.01873
74	264798	84	0.01873
74	267964	85	0.01873
74	271130	86	0.01873
74	274296	87	0.01873
74	277462	88	0.01873
74	280628	89	0.01873
74	283794	90	0.01873
74	286960	91	0.01873
74	290126	92	0.01873
74	293292	93	0.01873
74	296458	94	0.01873
74	299624	95	0.01873
74	302790	96	0.01873
74	305956	97	0.01873
74	309122	98	0.01873
74	312288	99	0.01873
74	315454	100	0.01873
75	2909	2	0
75	6075	3	0
75	9241	4	0
75	12407	5	0
75	15573	6	0
75	18739	7	0
75	21905	8	0
75	25071	9	0
75	28239	10	0
75	31521	11	0
75	34727	12	0
75	37933	13	0
75	41139	14	0
75	44345	15	0
75	47551	16	0
75	50757	17	0
75	53963	18	0
75	57169	19	0
75	60375	20	0
75	63581	21	0
75	66787	22	0
75	69993	23	0
75	73199	24	0
75	76405	25	0
75	79611	26	0
75	82817	27	0
75	86023	28	0
75	89229	29	0
75	92435	30	0
75	95641	31	0
75	98847	32	0
75	102053	33	0
75	105259	34	0
75	108465	35	0
75	111671	36	0
75	114877	37	0
75	118083	38	0
75	121289	39	0
75	124495	40	0
75	127701	41	0
75	130907	42	0
75	134113	43	0
75	137319	44	0
75	140525	45	0
75	143731	46	0
75	147006	47	0
75	150275	48	0
75	153461	49	0
75	156647	50	0
75	159833	51	0
75	163019	52	0
75	166420	53	0
75	169596	54	0
75	172984	55	0
75	176150	56	0
75	179316	57	0
75	182482	58	0
75	185648	59	0
75	188814	60	0
75	191980	61	0
75	195146	62	0
75	198312	63	0
75	201478	64	0
75	204644	65	0
75	207810	66	0
75	210976	67	0
75	214142	68	0
75	217308	69	0
75	220474	70	0
75	223640	71	0
75	226806	72	0
75	229972	73	0
75	233138	74	0
75	236304	75	0
75	239470	76	0
75	242636	77	0
75	245802	78	0
75	248968	79	0
75	252134	80	0
75	255300	81	0
75	258466	82	0
75	261632	83	0
75	264798	84	0
75	267964	85	0
75	271130	86	0
75	274296	87	0
75	277462	88	0
75	280628	89	0
75	283794	90	0
75	286960	91	0
75	290126	92	0
75	293292	93	0
75	296458	94	0
75	299624	95	0
75	302790	96	0
75	305956	97	0
75	309122	98	0
75	312288	99	0
75	315454	100	0
76	2910	2	4
76	6076	3	4
76	9242	4	4
76	12408	5	4
76	15574	6	4
76	18740	7	4
76	21906	8	4
76	25072	9	4
76	28240	10	4
76	31522	11	4
76	34728	12	4
76	37934	13	4
76	41140	14	4
76	44346	15	4
76	47552	16	4
76	50758	17	4
76	53964	18	4
76	57170	19	4
76	60376	20	4
76	63582	21	4
76	66788	22	4
76	69994	23	4
76	73200	24	4
76	76406	25	4
76	79612	26	4
76	82818	27	4
76	86024	28	4
76	89230	29	4
76	92436	30	4
76	95642	31	4
76	98848	32	4
76	102054	33	4
76	105260	34	4
76	108466	35	4
76	111672	36	4
76	114878	37	4
76	118084	38	4
76	121290	39	4
76	124496	40	4
76	127702	41	4
76	130908	42	4
76	134114	43	4
76	137320	44	4
76	140526	45	4
76	143732	46	4
76	147007	47	4
76	150276	48	4
76	153462	49	4
76	156648	50	4
76	159834	51	4
76	163020	52	4
76	166421	53	4
76	169597	54	4
76	172985	55	4
76	176151	56	4
76	179317	57	4
76	182483	58	4
76	185649	59	4
76	188815	60	4
76	191981	61	4
76	195147	62	4
76	198313	63	4
76	201479	64	4
76	204645	65	4
76	207811	66	4
76	210977	67	4
76	214143	68	4
76	217309	69	4
76	220475	70	4
76	223641	71	4
76	226807	72	4
76	229973	73	4
76	233139	74	4
76	236305	75	4
76	239471	76	4
76	242637	77	4
76	245803	78	4
76	248969	79	4
76	252135	80	4
76	255301	81	4
76	258467	82	4
76	261633	83	4
76	264799	84	4
76	267965	85	4
76	271131	86	4
76	274297	87	4
76	277463	88	4
76	280629	89	4
76	283795	90	4
76	286961	91	4
76	290127	92	4
76	293293	93	4
76	296459	94	4
76	299625	95	4
76	302791	96	4
76	305957	97	4
76	309123	98	4
76	312289	99	4
76	315455	100	4
77	2910	2	0.016545
77	6076	3	0.01873
77	9242	4	0.01873
77	12408	5	0.01873
77	15574	6	0.01873
77	18740	7	0.01873
77	21906	8	0.01873
77	25072	9	0.01873
77	28240	10	0.01873
77	31522	11	0.018778000003
77	34728	12	0.01873
77	37934	13	0.01873
77	41140	14	0.01873
77	44346	15	0.01873
77	47552	16	0.01873
77	50758	17	0.01873
77	53964	18	0.01873
77	57170	19	0.01873
77	60376	20	0.01873
77	63582	21	0.01873
77	66788	22	0.01873
77	69994	23	0.01873
77	73200	24	0.01873
77	76406	25	0.01873
77	79612	26	0.01873
77	82818	27	0.01873
77	86024	28	0.01873
77	89230	29	0.01873
77	92436	30	0.01873
77	95642	31	0.01873
77	98848	32	0.01873
77	102054	33	0.01873
77	105260	34	0.01873
77	108466	35	0.01873
77	111672	36	0.01873
77	114878	37	0.01873
77	118084	38	0.01873
77	121290	39	0.01873
77	124496	40	0.01873
77	127702	41	0.01873
77	130908	42	0.01873
77	134114	43	0.01873
77	137320	44	0.01873
77	140526	45	0.01873
77	143732	46	0.01873
77	147007	47	0.018875126094
77	150276	48	0.018842
77	153462	49	0.01873
77	156648	50	0.01873
77	159834	51	0.01873
77	163020	52	0.01873
77	166421	53	0.019098
77	169597	54	0.01873
77	172985	55	0.019066
77	176151	56	0.01873
77	179317	57	0.01873
77	182483	58	0.01873
77	185649	59	0.01873
77	188815	60	0.01873
77	191981	61	0.01873
77	195147	62	0.01873
77	198313	63	0.01873
77	201479	64	0.01873
77	204645	65	0.01873
77	207811	66	0.01873
77	210977	67	0.01873
77	214143	68	0.01873
77	217309	69	0.01873
77	220475	70	0.01873
77	223641	71	0.01873
77	226807	72	0.01873
77	229973	73	0.01873
77	233139	74	0.01873
77	236305	75	0.01873
77	239471	76	0.01873
77	242637	77	0.01873
77	245803	78	0.01873
77	248969	79	0.01873
77	252135	80	0.01873
77	255301	81	0.01873
77	258467	82	0.01873
77	261633	83	0.01873
77	264799	84	0.01873
77	267965	85	0.01873
77	271131	86	0.01873
77	274297	87	0.01873
77	277463	88	0.01873
77	280629	89	0.01873
77	283795	90	0.01873
77	286961	91	0.01873
77	290127	92	0.01873
77	293293	93	0.01873
77	296459	94	0.01873
77	299625	95	0.01873
77	302791	96	0.01873
77	305957	97	0.01873
77	309123	98	0.01873
77	312289	99	0.01873
77	315455	100	0.01873
78	2910	2	0
78	6076	3	0
78	9242	4	0
78	12408	5	0
78	15574	6	0
78	18740	7	0
78	21906	8	0
78	25072	9	0
78	28240	10	0
78	31522	11	0
78	34728	12	0
78	37934	13	0
78	41140	14	0
78	44346	15	0
78	47552	16	0
78	50758	17	0
78	53964	18	0
78	57170	19	0
78	60376	20	0
78	63582	21	0
78	66788	22	0
78	69994	23	0
78	73200	24	0
78	76406	25	0
78	79612	26	0
78	82818	27	0
78	86024	28	0
78	89230	29	0
78	92436	30	0
78	95642	31	0
78	98848	32	0
78	102054	33	0
78	105260	34	0
78	108466	35	0
78	111672	36	0
78	114878	37	0
78	118084	38	0
78	121290	39	0
78	124496	40	0
78	127702	41	0
78	130908	42	0
78	134114	43	0
78	137320	44	0
78	140526	45	0
78	143732	46	0
78	147007	47	0
78	150276	48	0
78	153462	49	0
78	156648	50	0
78	159834	51	0
78	163020	52	0
78	166421	53	0
78	169597	54	0
78	172985	55	0
78	176151	56	0
78	179317	57	0
78	182483	58	0
78	185649	59	0
78	188815	60	0
78	191981	61	0
78	195147	62	0
78	198313	63	0
78	201479	64	0
78	204645	65	0
78	207811	66	0
78	210977	67	0
78	214143	68	0
78	217309	69	0
78	220475	70	0
78	223641	71	0
78	226807	72	0
78	229973	73	0
78	233139	74	0
78	236305	75	0
78	239471	76	0
78	242637	77	0
78	245803	78	0
78	248969	79	0
78	252135	80	0
78	255301	81	0
78	258467	82	0
78	261633	83	0
78	264799	84	0
78	267965	85	0
78	271131	86	0
78	274297	87	0
78	277463	88	0
78	280629	89	0
78	283795	90	0
78	286961	91	0
78	290127	92	0
78	293293	93	0
78	296459	94	0
78	299625	95	0
78	302791	96	0
78	305957	97	0
78	309123	98	0
78	312289	99	0
78	315455	100	0
79	2911	2	5
79	6077	3	5
79	9243	4	5
79	12409	5	5
79	15575	6	5
79	18741	7	5
79	21907	8	5
79	25073	9	5
79	28241	10	5
79	31523	11	5
79	34729	12	5
79	37935	13	5
79	41141	14	5
79	44347	15	5
79	47553	16	5
79	50759	17	5
79	53965	18	5
79	57171	19	5
79	60377	20	5
79	63583	21	5
79	66789	22	5
79	69995	23	5
79	73201	24	5
79	76407	25	5
79	79613	26	5
79	82819	27	5
79	86025	28	5
79	89231	29	5
79	92437	30	5
79	95643	31	5
79	98849	32	5
79	102055	33	5
79	105261	34	5
79	108467	35	5
79	111673	36	5
79	114879	37	5
79	118085	38	5
79	121291	39	5
79	124497	40	5
79	127703	41	5
79	130909	42	5
79	134115	43	5
79	137321	44	5
79	140527	45	5
79	143733	46	5
79	147008	47	5
79	150277	48	5
79	153463	49	5
79	156649	50	5
79	159835	51	5
79	163021	52	5
79	166422	53	5
79	169598	54	5
79	172986	55	5
79	176152	56	5
79	179318	57	5
79	182484	58	5
79	185650	59	5
79	188816	60	5
79	191982	61	5
79	195148	62	5
79	198314	63	5
79	201480	64	5
79	204646	65	5
79	207812	66	5
79	210978	67	5
79	214144	68	5
79	217310	69	5
79	220476	70	5
79	223642	71	5
79	226808	72	5
79	229974	73	5
79	233140	74	5
79	236306	75	5
79	239472	76	5
79	242638	77	5
79	245804	78	5
79	248970	79	5
79	252136	80	5
79	255302	81	5
79	258468	82	5
79	261634	83	5
79	264800	84	5
79	267966	85	5
79	271132	86	5
79	274298	87	5
79	277464	88	5
79	280630	89	5
79	283796	90	5
79	286962	91	5
79	290128	92	5
79	293294	93	5
79	296460	94	5
79	299626	95	5
79	302792	96	5
79	305958	97	5
79	309124	98	5
79	312290	99	5
79	315456	100	5
80	2911	2	0.016545
80	6077	3	0.01873
80	9243	4	0.01873
80	12409	5	0.01873
80	15575	6	0.01873
80	18741	7	0.01873
80	21907	8	0.01873
80	25073	9	0.01873
80	28241	10	0.01873
80	31523	11	0.018778000003
80	34729	12	0.01873
80	37935	13	0.01873
80	41141	14	0.01873
80	44347	15	0.01873
80	47553	16	0.01873
80	50759	17	0.01873
80	53965	18	0.01873
80	57171	19	0.01873
80	60377	20	0.01873
80	63583	21	0.01873
80	66789	22	0.01873
80	69995	23	0.01873
80	73201	24	0.01873
80	76407	25	0.01873
80	79613	26	0.01873
80	82819	27	0.01873
80	86025	28	0.01873
80	89231	29	0.01873
80	92437	30	0.01873
80	95643	31	0.01873
80	98849	32	0.01873
80	102055	33	0.01873
80	105261	34	0.01873
80	108467	35	0.01873
80	111673	36	0.01873
80	114879	37	0.01873
80	118085	38	0.01873
80	121291	39	0.01873
80	124497	40	0.01873
80	127703	41	0.01873
80	130909	42	0.01873
80	134115	43	0.01873
80	137321	44	0.01873
80	140527	45	0.01873
80	143733	46	0.01873
80	147008	47	0.018842
80	150277	48	0.018842
80	153463	49	0.01873
80	156649	50	0.01873
80	159835	51	0.01873
80	163021	52	0.01873
80	166422	53	0.019131252576
80	169598	54	0.01873
80	172986	55	0.019066
80	176152	56	0.01873
80	179318	57	0.01873
80	182484	58	0.01873
80	185650	59	0.01873
80	188816	60	0.01873
80	191982	61	0.01873
80	195148	62	0.01873
80	198314	63	0.01873
80	201480	64	0.01873
80	204646	65	0.01873
80	207812	66	0.01873
80	210978	67	0.01873
80	214144	68	0.01873
80	217310	69	0.01873
80	220476	70	0.01873
80	223642	71	0.01873
80	226808	72	0.01873
80	229974	73	0.01873
80	233140	74	0.01873
80	236306	75	0.01873
80	239472	76	0.01873
80	242638	77	0.01873
80	245804	78	0.01873
80	248970	79	0.01873
80	252136	80	0.01873
80	255302	81	0.01873
80	258468	82	0.01873
80	261634	83	0.01873
80	264800	84	0.01873
80	267966	85	0.01873
80	271132	86	0.01873
80	274298	87	0.01873
80	277464	88	0.01873
80	280630	89	0.01873
80	283796	90	0.01873
80	286962	91	0.01873
80	290128	92	0.01873
80	293294	93	0.01873
80	296460	94	0.01873
80	299626	95	0.01873
80	302792	96	0.01873
80	305958	97	0.01873
80	309124	98	0.01873
80	312290	99	0.01873
80	315456	100	0.01873
81	2911	2	0
81	6077	3	0
81	9243	4	0
81	12409	5	0
81	15575	6	0
81	18741	7	0
81	21907	8	0
81	25073	9	0
81	28241	10	0
81	31523	11	0
81	34729	12	0
81	37935	13	0
81	41141	14	0
81	44347	15	0
81	47553	16	0
81	50759	17	0
81	53965	18	0
81	57171	19	0
81	60377	20	0
81	63583	21	0
81	66789	22	0
81	69995	23	0
81	73201	24	0
81	76407	25	0
81	79613	26	0
81	82819	27	0
81	86025	28	0
81	89231	29	0
81	92437	30	0
81	95643	31	0
81	98849	32	0
81	102055	33	0
81	105261	34	0
81	108467	35	0
81	111673	36	0
81	114879	37	0
81	118085	38	0
81	121291	39	0
81	124497	40	0
81	127703	41	0
81	130909	42	0
81	134115	43	0
81	137321	44	0
81	140527	45	0
81	143733	46	0
81	147008	47	0
81	150277	48	0
81	153463	49	0
81	156649	50	0
81	159835	51	0
81	163021	52	0
81	166422	53	0
81	169598	54	0
81	172986	55	0
81	176152	56	0
81	179318	57	0
81	182484	58	0
81	185650	59	0
81	188816	60	0
81	191982	61	0
81	195148	62	0
81	198314	63	0
81	201480	64	0
81	204646	65	0
81	207812	66	0
81	210978	67	0
81	214144	68	0
81	217310	69	0
81	220476	70	0
81	223642	71	0
81	226808	72	0
81	229974	73	0
81	233140	74	0
81	236306	75	0
81	239472	76	0
81	242638	77	0
81	245804	78	0
81	248970	79	0
81	252136	80	0
81	255302	81	0
81	258468	82	0
81	261634	83	0
81	264800	84	0
81	267966	85	0
81	271132	86	0
81	274298	87	0
81	277464	88	0
81	280630	89	0
81	283796	90	0
81	286962	91	0
81	290128	92	0
81	293294	93	0
81	296460	94	0
81	299626	95	0
81	302792	96	0
81	305958	97	0
81	309124	98	0
81	312290	99	0
81	315456	100	0

