version 3
run BreakRanksNoGui-113-20240710-15:18:13-260019
attr configname BreakRanksNoGui
attr datetime 20240710-15:18:13
attr datetimef 20240710-151813
attr experiment BreakRanksNoGui
attr inifile omnetpp.ini
attr iterationvars "$nCars=4, $platoonSize=4, $nLanes=1, $ploegH=0.5, $controller=1, $headway=0.1, $leaderHeadway=1.2, $leaderSpeed=110, $breakRanksSafetyDistance=10, $minSpeed=100, $maxSpeed=120, $beaconInterval=0.1, $priority=4, $packetSize=200, $sController=\"CACC\", $0=2, $1=0"
attr iterationvarsd nCars=4/platoonSize=4/nLanes=1/ploegH=0.5/controller=1/headway=0.1/leaderHeadway=1.2/leaderSpeed=110/breakRanksSafetyDistance=10/minSpeed=100/maxSpeed=120/beaconInterval=0.1/priority=4/packetSize=200/sController=CACC/2/0
attr iterationvarsf nCars=4,platoonSize=4,nLanes=1,ploegH=0.5,controller=1,headway=0.1,leaderHeadway=1.2,leaderSpeed=110,breakRanksSafetyDistance=10,minSpeed=100,maxSpeed=120,beaconInterval=0.1,priority=4,packetSize=200,sController=CACC,2,0-
attr measurement "$nCars=4, $platoonSize=4, $nLanes=1, $ploegH=0.5, $controller=1, $headway=0.1, $leaderHeadway=1.2, $leaderSpeed=110, $breakRanksSafetyDistance=10, $minSpeed=100, $maxSpeed=120, $beaconInterval=0.1, $priority=4, $packetSize=200, $sController=\"CACC\", $0=2, $1=0"
attr network Highway
attr processid 260019
attr repetition 3
attr replication #3
attr resultdir results
attr runnumber 113
attr seedset 3
itervar beaconInterval 0.1
itervar breakRanksSafetyDistance 10
itervar controller 1
itervar headway 0.1
itervar leaderHeadway 1.2
itervar leaderSpeed 110
itervar maxSpeed 120
itervar minSpeed 100
itervar nCars 4
itervar nLanes 1
itervar packetSize 200
itervar platoonSize 4
itervar ploegH 0.5
itervar priority 4
itervar sController "\"CACC\""
config image-path ../../../veins/images
config repeat 10
config extends BreakRanks
config *.manager.command "\"sumo\""
config *.manager.ignoreGuiCommands true
config output-vector-file "results/BreakRanks_1_0.1_110_10_4 /result_3.vec"
config output-scalar-file "results/BreakRanks_1_0.1_110_10_4 /result_3.sca"
config extends Platooning
config *.node[*].scenario_type "\"BreakRanksScenario\""
config *.manager.command "\"sumo-gui\""
config *.node[*].scenario_type "\"SimpleScenario\""
config cmdenv-express-mode true
config cmdenv-autoflush true
config cmdenv-status-frequency 15s
config num-rngs 6
config network Highway
config debug-on-errors true
config print-undisposed true
config *.playgroundSizeX 65000m
config *.playgroundSizeY 25000m
config *.playgroundSizeZ 50m
config sim-time-limit "100 s"
config *.annotations.draw false
config *.obstacles.debug false
config *.world.useTorus false
config *.world.use2D false
config *.manager.updateInterval 0.01s
config *.manager.host "\"localhost\""
config *.manager.moduleType "\"org.car2x.plexe.PlatoonCar\""
config *.manager.moduleName "\"node\""
config *.manager.moduleDisplayString "\"\""
config *.manager.autoShutdown true
config *.manager.margin 25
config *.connectionManager.sendDirect true
config *.connectionManager.maxInterfDist 2600m
config *.connectionManager.drawMaxIntfDist false
config *.**.nic.mac1609_4.useServiceChannel false
config *.**.nic.mac1609_4.txPower 100mW
config *.**.nic.mac1609_4.bitrate 6Mbps
config *.**.nic.mac1609_4.useAcks true
config *.**.nic.mac1609_4.ackErrorRate 0.0
config *.**.nic.mac1609_4.frameErrorRate 0.0
config *.**.nic.phy80211p.minPowerLevel -94dBm
config *.**.nic.phy80211p.maxTXPower 100mW
config *.**.nic.phy80211p.useNoiseFloor true
config *.**.nic.phy80211p.noiseFloor -95dBm
config *.**.nic.phy80211p.decider "xmldoc(\"config.xml\")"
config *.**.nic.phy80211p.analogueModels "xmldoc(\"config.xml\")"
config *.**.nic.phy80211p.usePropagationDelay true
config *.node[*].mobility.x 0
config *.node[*].mobility.y 0
config *.node[*].mobility.z 1.895
config seed-set 3
config **.seed 3
config *.node[*].prot.rng-0 2
config *.node[*].appl.rng-0 3
config *.node[*].scenario.rng-0 4
config **.traffic.rng-0 5
config *.manager.configFile "\"./sumocfg/freeway.sumo.cfg\""
config *.manager.launchConfig "xmldoc(\"./sumocfg/freeway.launchd.xml\")"
config **.numberOfCars 4
config **.numberOfCarsPerPlatoon 4
config **.numberOfLanes 1
config *.node[*].helper_type "\"PositionHelper\""
config *.node[*].scenario.caccC1 0.5
config *.node[*].scenario.caccXi 1
config *.node[*].scenario.caccOmegaN "0.2 Hz"
config *.node[*].scenario.caccSpacing "2 m"
config *.node[*].scenario.engineTau "0.5 s"
config *.node[*].scenario.ploegH 0.5s
config *.node[*].scenario.ploegKp 0.2
config *.node[*].scenario.ploegKd 0.7
config *.node[*].scenario.useRealisticEngine false
config *.node[*].scenario.useControllerAcceleration true
config *.node[*].scenario.nLanes 1
config **.numericController 1
config **.headway 0.1s
config *.node[*].scenario.accHeadway 0.1s
config *.node[*].scenario.leaderHeadway 1.2s
config *.node[*].scenario.leaderSpeed 110kmph
config *.node[*].appl_type "\"SimplePlatooningApp\""
config *.node[*].appl.*.scalar-recording true
config *.node[*].appl.*.vector-recording true
config *.node[0].appl.breakRanksSafetyDistance 10m
config *.node[*].appl.minSpeed 100kmph
config *.node[*].appl.maxSpeed 120kmph
config *.node[*].protocol_type "\"SimplePlatooningBeaconing\""
config *.node[*].prot.*.scalar-recording true
config *.node[*].prot.*.vector-recording true
config *.node[*].prot.beaconingInterval 0.1s
config *.node[*].prot.priority 4
config *.node[*].prot.packetSize 200
config **.traffic_type "\"PlatoonsTrafficManager\""
config **.traffic.platoonInsertTime "1 s"
config **.traffic.platoonInsertSpeed 110kmph
config **.traffic.nCars 4
config **.traffic.platoonSize 4
config **.traffic.nLanes 1
config **.traffic.platooningVType "\"vtypeauto\""
config **.traffic.controller "\"CACC\""
config **.traffic.platoonInsertDistance 2m
config **.traffic.platoonInsertHeadway 0s
config **.traffic.platoonLeaderHeadway 1.2s
config **.scalar-recording false
config **.vector-recording false

vector 0 Highway.node[0].appl distance ETV
vector 1 Highway.node[0].appl relativeSpeed ETV
vector 2 Highway.node[0].appl nodeId ETV
vector 3 Highway.node[0].appl acceleration ETV
vector 4 Highway.node[0].appl controllerAcceleration ETV
vector 5 Highway.node[0].appl speed ETV
vector 6 Highway.node[0].appl posx ETV
vector 7 Highway.node[0].appl posy ETV
vector 8 Highway.node[1].appl distance ETV
vector 9 Highway.node[1].appl relativeSpeed ETV
vector 10 Highway.node[1].appl nodeId ETV
vector 11 Highway.node[1].appl acceleration ETV
vector 12 Highway.node[1].appl controllerAcceleration ETV
vector 13 Highway.node[1].appl speed ETV
vector 14 Highway.node[1].appl posx ETV
vector 15 Highway.node[1].appl posy ETV
vector 16 Highway.node[2].appl distance ETV
vector 17 Highway.node[2].appl relativeSpeed ETV
vector 18 Highway.node[2].appl nodeId ETV
vector 19 Highway.node[2].appl acceleration ETV
vector 20 Highway.node[2].appl controllerAcceleration ETV
vector 21 Highway.node[2].appl speed ETV
vector 22 Highway.node[2].appl posx ETV
vector 23 Highway.node[2].appl posy ETV
vector 24 Highway.node[3].appl distance ETV
vector 25 Highway.node[3].appl relativeSpeed ETV
vector 26 Highway.node[3].appl nodeId ETV
vector 27 Highway.node[3].appl acceleration ETV
vector 28 Highway.node[3].appl controllerAcceleration ETV
vector 29 Highway.node[3].appl speed ETV
vector 30 Highway.node[3].appl posx ETV
vector 31 Highway.node[3].appl posy ETV
vector 32 Highway.node[1].prot leaderDelay ETV
vector 33 Highway.node[1].prot leaderDelayId ETV
vector 34 Highway.node[1].prot frontDelay ETV
vector 35 Highway.node[1].prot frontDelayId ETV
vector 36 Highway.node[2].prot leaderDelay ETV
vector 37 Highway.node[2].prot leaderDelayId ETV
vector 38 Highway.node[3].prot leaderDelay ETV
vector 39 Highway.node[3].prot leaderDelayId ETV
vector 40 Highway.node[2].prot frontDelay ETV
vector 41 Highway.node[2].prot frontDelayId ETV
vector 42 Highway.node[3].prot frontDelay ETV
vector 43 Highway.node[3].prot frontDelayId ETV
vector 44 Highway.node[0].prot nodeId ETV
vector 45 Highway.node[0].prot busyTime ETV
vector 46 Highway.node[0].prot collisions ETV
vector 47 Highway.node[1].prot nodeId ETV
vector 48 Highway.node[1].prot busyTime ETV
vector 49 Highway.node[1].prot collisions ETV
vector 50 Highway.node[2].prot nodeId ETV
vector 51 Highway.node[2].prot busyTime ETV
vector 52 Highway.node[2].prot collisions ETV
vector 53 Highway.node[3].prot nodeId ETV
vector 54 Highway.node[3].prot busyTime ETV
vector 55 Highway.node[3].prot collisions ETV
0	113	1.11	-1
0	263	1.21	-1
0	413	1.31	-1
0	563	1.41	-1
0	713	1.51	-1
0	863	1.61	-1
0	1013	1.71	-1
0	1163	1.81	-1
0	1313	1.91	-1
0	1467	2.01	-1
0	1617	2.11	-1
0	1767	2.21	-1
0	1917	2.31	-1
0	2067	2.41	-1
0	2217	2.51	-1
0	2367	2.61	-1
0	2517	2.71	-1
0	2667	2.81	-1
0	2817	2.91	-1
0	2971	3.01	-1
0	3121	3.11	-1
0	3271	3.21	-1
0	3421	3.31	-1
0	3571	3.41	-1
0	3721	3.51	-1
0	3871	3.61	-1
0	4021	3.71	-1
0	4171	3.81	-1
0	4321	3.91	-1
0	4475	4.01	-1
0	4625	4.11	-1
0	4775	4.21	-1
0	4925	4.31	-1
0	5075	4.41	-1
0	5225	4.51	-1
0	5375	4.61	-1
0	5525	4.71	-1
0	5675	4.81	-1
0	5825	4.91	-1
0	5979	5.01	-1
0	6129	5.11	-1
0	6279	5.21	-1
0	6429	5.31	-1
0	6579	5.41	-1
0	6729	5.51	-1
0	6879	5.61	-1
0	7029	5.71	-1
0	7179	5.81	-1
0	7329	5.91	-1
0	7483	6.01	-1
0	7633	6.11	-1
0	7783	6.21	-1
0	7933	6.31	-1
0	8083	6.41	-1
0	8233	6.51	-1
0	8383	6.61	-1
0	8533	6.71	-1
0	8683	6.81	-1
0	8833	6.91	-1
0	8987	7.01	-1
0	9137	7.11	-1
0	9287	7.21	-1
0	9437	7.31	-1
0	9587	7.41	-1
0	9737	7.51	-1
0	9887	7.61	-1
0	10037	7.71	-1
0	10187	7.81	-1
0	10337	7.91	-1
0	10491	8.01	-1
0	10641	8.11	-1
0	10791	8.21	-1
0	10941	8.31	-1
0	11091	8.41	-1
0	11241	8.51	-1
0	11391	8.61	-1
0	11541	8.71	-1
0	11691	8.81	-1
0	11841	8.91	-1
0	11995	9.01	-1
0	12145	9.11	-1
0	12295	9.21	-1
0	12445	9.31	-1
0	12595	9.41	-1
0	12745	9.51	-1
0	12895	9.61	-1
0	13045	9.71	-1
0	13195	9.81	-1
0	13345	9.91	-1
0	13537	10.01	-1
0	13690	10.11	-1
0	13843	10.21	-1
0	13996	10.31	-1
0	14149	10.41	-1
0	14302	10.51	-1
0	14455	10.61	-1
0	14608	10.71	-1
0	14761	10.81	-1
0	14914	10.91	-1
0	15071	11.01	-1
0	15224	11.11	-1
0	15377	11.21	-1
0	15530	11.31	-1
0	15683	11.41	-1
0	15836	11.51	-1
0	15989	11.61	-1
0	16142	11.71	-1
0	16295	11.81	-1
0	16448	11.91	-1
0	16605	12.01	-1
0	16758	12.11	-1
0	16911	12.21	-1
0	17064	12.31	-1
0	17217	12.41	-1
0	17370	12.51	-1
0	17523	12.61	-1
0	17676	12.71	-1
0	17829	12.81	-1
0	17982	12.91	-1
0	18139	13.01	-1
0	18292	13.11	-1
0	18445	13.21	-1
0	18598	13.31	-1
0	18751	13.41	-1
0	18904	13.51	-1
0	19057	13.61	-1
0	19210	13.71	-1
0	19363	13.81	-1
0	19516	13.91	-1
0	19673	14.01	-1
0	19826	14.11	-1
0	19979	14.21	-1
0	20132	14.31	-1
0	20285	14.41	-1
0	20438	14.51	-1
0	20591	14.61	-1
0	20744	14.71	-1
0	20897	14.81	-1
0	21050	14.91	-1
0	21207	15.01	-1
0	21360	15.11	-1
0	21513	15.21	-1
0	21666	15.31	-1
0	21819	15.41	-1
0	21972	15.51	-1
0	22125	15.61	-1
0	22278	15.71	-1
0	22431	15.81	-1
0	22584	15.91	-1
0	22741	16.01	-1
0	22894	16.11	-1
0	23047	16.21	-1
0	23200	16.31	-1
0	23353	16.41	-1
0	23506	16.51	-1
0	23659	16.61	-1
0	23812	16.71	-1
0	23965	16.81	-1
0	24118	16.91	-1
0	24275	17.01	-1
0	24428	17.11	-1
0	24581	17.21	-1
0	24734	17.31	-1
0	24887	17.41	-1
0	25040	17.51	-1
0	25193	17.61	-1
0	25346	17.71	-1
0	25499	17.81	-1
0	25652	17.91	-1
0	25809	18.01	-1
0	25962	18.11	-1
0	26115	18.21	-1
0	26268	18.31	-1
0	26421	18.41	-1
0	26574	18.51	-1
0	26727	18.61	-1
0	26880	18.71	-1
0	27033	18.81	-1
0	27186	18.91	-1
0	27343	19.01	-1
0	27496	19.11	-1
0	27649	19.21	-1
0	27802	19.31	-1
0	27955	19.41	-1
0	28108	19.51	-1
0	28261	19.61	-1
0	28414	19.71	-1
0	28567	19.81	-1
0	28720	19.91	-1
0	28877	20.01	-1
0	29030	20.11	-1
0	29183	20.21	-1
0	29336	20.31	-1
0	29489	20.41	-1
0	29642	20.51	-1
0	29795	20.61	-1
0	29948	20.71	-1
0	30101	20.81	-1
0	30254	20.91	-1
0	30411	21.01	-1
0	30564	21.11	-1
0	30717	21.21	-1
0	30870	21.31	-1
0	31023	21.41	-1
0	31176	21.51	-1
0	31329	21.61	-1
0	31482	21.71	-1
0	31635	21.81	-1
0	31788	21.91	-1
0	31945	22.01	-1
0	32098	22.11	-1
0	32251	22.21	-1
0	32404	22.31	-1
0	32557	22.41	-1
0	32710	22.51	-1
0	32863	22.61	-1
0	33016	22.71	-1
0	33169	22.81	-1
0	33322	22.91	-1
0	33479	23.01	-1
0	33632	23.11	-1
0	33785	23.21	-1
0	33938	23.31	-1
0	34091	23.41	-1
0	34244	23.51	-1
0	34397	23.61	-1
0	34550	23.71	-1
0	34703	23.81	-1
0	34856	23.91	-1
0	35013	24.01	-1
0	35166	24.11	-1
0	35319	24.21	-1
0	35472	24.31	-1
0	35625	24.41	-1
0	35778	24.51	-1
0	35931	24.61	-1
0	36084	24.71	-1
0	36237	24.81	-1
0	36390	24.91	-1
0	36547	25.01	-1
0	36700	25.11	-1
0	36853	25.21	-1
0	37006	25.31	-1
0	37159	25.41	-1
0	37312	25.51	-1
0	37465	25.61	-1
0	37618	25.71	-1
0	37771	25.81	-1
0	37924	25.91	-1
0	38081	26.01	-1
0	38234	26.11	-1
0	38387	26.21	-1
0	38540	26.31	-1
0	38693	26.41	-1
0	38846	26.51	-1
0	38999	26.61	-1
0	39152	26.71	-1
0	39305	26.81	-1
0	39458	26.91	-1
0	39615	27.01	-1
0	39768	27.11	-1
0	39921	27.21	-1
0	40074	27.31	-1
0	40227	27.41	-1
0	40380	27.51	-1
0	40533	27.61	-1
0	40686	27.71	-1
0	40839	27.81	-1
0	40992	27.91	-1
0	41149	28.01	-1
0	41302	28.11	-1
0	41455	28.21	-1
0	41608	28.31	-1
0	41761	28.41	-1
0	41914	28.51	-1
0	42067	28.61	-1
0	42220	28.71	-1
0	42373	28.81	-1
0	42526	28.91	-1
0	42683	29.01	-1
0	42836	29.11	-1
0	42989	29.21	-1
0	43142	29.31	-1
0	43295	29.41	-1
0	43448	29.51	-1
0	43601	29.61	-1
0	43754	29.71	-1
0	43907	29.81	-1
0	44060	29.91	-1
0	44217	30.01	-1
0	44370	30.11	-1
0	44523	30.21	-1
0	44676	30.31	-1
0	44829	30.41	-1
0	44982	30.51	-1
0	45135	30.61	-1
0	45288	30.71	-1
0	45441	30.81	-1
0	45594	30.91	-1
0	45751	31.01	-1
0	45904	31.11	-1
0	46057	31.21	-1
0	46210	31.31	-1
0	46363	31.41	-1
0	46516	31.51	-1
0	46669	31.61	-1
0	46822	31.71	-1
0	46975	31.81	-1
0	47128	31.91	-1
0	47285	32.01	-1
0	47438	32.11	-1
0	47591	32.21	-1
0	47744	32.31	-1
0	47897	32.41	-1
0	48050	32.51	-1
0	48203	32.61	-1
0	48356	32.71	-1
0	48509	32.81	-1
0	48662	32.91	-1
0	48819	33.01	-1
0	48972	33.11	-1
0	49125	33.21	-1
0	49278	33.31	-1
0	49431	33.41	-1
0	49584	33.51	-1
0	49737	33.61	-1
0	49890	33.71	-1
0	50043	33.81	-1
0	50196	33.91	-1
0	50353	34.01	-1
0	50506	34.11	-1
0	50659	34.21	-1
0	50812	34.31	-1
0	50965	34.41	-1
0	51118	34.51	-1
0	51271	34.61	-1
0	51424	34.71	-1
0	51577	34.81	-1
0	51730	34.91	-1
0	51887	35.01	-1
0	52040	35.11	-1
0	52193	35.21	-1
0	52346	35.31	-1
0	52499	35.41	-1
0	52652	35.51	-1
0	52805	35.61	-1
0	52958	35.71	-1
0	53111	35.81	-1
0	53264	35.91	-1
0	53421	36.01	-1
0	53574	36.11	-1
0	53727	36.21	-1
0	53880	36.31	-1
0	54033	36.41	-1
0	54186	36.51	-1
0	54339	36.61	-1
0	54492	36.71	-1
0	54645	36.81	-1
0	54798	36.91	-1
0	54955	37.01	-1
0	55108	37.11	-1
0	55261	37.21	-1
0	55414	37.31	-1
0	55567	37.41	-1
0	55720	37.51	-1
0	55873	37.61	-1
0	56026	37.71	-1
0	56179	37.81	-1
0	56332	37.91	-1
0	56489	38.01	-1
0	56642	38.11	-1
0	56795	38.21	-1
0	56948	38.31	-1
0	57101	38.41	-1
0	57254	38.51	-1
0	57407	38.61	-1
0	57560	38.71	-1
0	57713	38.81	-1
0	57866	38.91	-1
0	58023	39.01	-1
0	58176	39.11	-1
0	58329	39.21	-1
0	58482	39.31	-1
0	58635	39.41	-1
0	58788	39.51	-1
0	58941	39.61	-1
0	59094	39.71	-1
0	59247	39.81	-1
0	59400	39.91	-1
0	59557	40.01	-1
0	59710	40.11	-1
0	59863	40.21	-1
0	60016	40.31	-1
0	60169	40.41	-1
0	60322	40.51	-1
0	60475	40.61	-1
0	60628	40.71	-1
0	60781	40.81	-1
0	60934	40.91	-1
0	61091	41.01	-1
0	61244	41.11	-1
0	61397	41.21	-1
0	61550	41.31	-1
0	61703	41.41	-1
0	61856	41.51	-1
0	62009	41.61	-1
0	62162	41.71	-1
0	62315	41.81	-1
0	62468	41.91	-1
0	62625	42.01	-1
0	62778	42.11	-1
0	62931	42.21	-1
0	63084	42.31	-1
0	63237	42.41	-1
0	63390	42.51	-1
0	63543	42.61	-1
0	63749	42.71	-1
0	63901	42.81	-1
0	64053	42.91	-1
0	64209	43.01	-1
0	64361	43.11	-1
0	64513	43.21	-1
0	64665	43.31	-1
0	64817	43.41	-1
0	64969	43.51	-1
0	65121	43.61	-1
0	65273	43.71	-1
0	65425	43.81	-1
0	65577	43.91	-1
0	65733	44.01	-1
0	65885	44.11	-1
0	66037	44.21	-1
0	66189	44.31	-1
0	66341	44.41	-1
0	66493	44.51	-1
0	66645	44.61	-1
0	66797	44.71	-1
0	66949	44.81	-1
0	67101	44.91	-1
0	67257	45.01	-1
0	67409	45.11	-1
0	67561	45.21	-1
0	67713	45.31	-1
0	67865	45.41	-1
0	68017	45.51	-1
0	68169	45.61	-1
0	68321	45.71	-1
0	68473	45.81	-1
0	68625	45.91	-1
0	68781	46.01	-1
0	68933	46.11	-1
0	69085	46.21	-1
0	69237	46.31	-1
0	69389	46.41	-1
0	69541	46.51	-1
0	69693	46.61	-1
0	69845	46.71	-1
0	69997	46.81	-1
0	70149	46.91	-1
0	70305	47.01	-1
0	70457	47.11	-1
0	70609	47.21	-1
0	70761	47.31	-1
0	70913	47.41	-1
0	71065	47.51	-1
0	71217	47.61	-1
0	71369	47.71	-1
0	71521	47.81	-1
0	71673	47.91	-1
0	71829	48.01	-1
0	71981	48.11	-1
0	72133	48.21	-1
0	72285	48.31	-1
0	72437	48.41	-1
0	72642	48.51	-1
0	72793	48.61	-1
0	72944	48.71	-1
0	73095	48.81	-1
0	73246	48.91	-1
0	73401	49.01	-1
0	73552	49.11	-1
0	73703	49.21	-1
0	73854	49.31	-1
0	74005	49.41	-1
0	74156	49.51	-1
0	74307	49.61	-1
0	74458	49.71	-1
0	74609	49.81	-1
0	74760	49.91	-1
0	74915	50.01	-1
0	75066	50.11	-1
0	75217	50.21	-1
0	75368	50.31	-1
0	75519	50.41	-1
0	75670	50.51	-1
0	75821	50.61	-1
0	75972	50.71	-1
0	76123	50.81	-1
0	76274	50.91	-1
0	76429	51.01	-1
0	76580	51.11	-1
0	76731	51.21	-1
0	76882	51.31	-1
0	77033	51.41	-1
0	77184	51.51	-1
0	77335	51.61	-1
0	77486	51.71	-1
0	77637	51.81	-1
0	77788	51.91	-1
0	77943	52.01	-1
0	78094	52.11	-1
0	78245	52.21	-1
0	78396	52.31	-1
0	78547	52.41	-1
0	78698	52.51	-1
0	78849	52.61	-1
0	79000	52.71	-1
0	79151	52.81	-1
0	79302	52.91	-1
0	79457	53.01	-1
0	79608	53.11	-1
0	79759	53.21	-1
0	79910	53.31	-1
0	80061	53.41	-1
0	80212	53.51	-1
0	80363	53.61	-1
0	80514	53.71	-1
0	80877	53.81	-1
0	81027	53.91	-1
0	81181	54.01	-1
0	81331	54.11	-1
0	81481	54.21	-1
0	81631	54.31	-1
0	81781	54.41	-1
0	81931	54.51	-1
0	82081	54.61	-1
0	82231	54.71	-1
0	82381	54.81	-1
0	82531	54.91	-1
0	82685	55.01	-1
0	82835	55.11	-1
0	82985	55.21	-1
0	83135	55.31	-1
0	83285	55.41	-1
0	83435	55.51	-1
0	83585	55.61	-1
0	83735	55.71	-1
0	83885	55.81	-1
0	84035	55.91	-1
0	84189	56.01	-1
0	84339	56.11	-1
0	84489	56.21	-1
0	84639	56.31	-1
0	84789	56.41	-1
0	84939	56.51	-1
0	85089	56.61	-1
0	85239	56.71	-1
0	85389	56.81	-1
0	85539	56.91	-1
0	85693	57.01	-1
0	85843	57.11	-1
0	85993	57.21	-1
0	86143	57.31	-1
0	86293	57.41	-1
0	86443	57.51	-1
0	86593	57.61	-1
0	86743	57.71	-1
0	86893	57.81	-1
0	87043	57.91	-1
0	87197	58.01	-1
0	87347	58.11	-1
0	87497	58.21	-1
0	87647	58.31	-1
0	87797	58.41	-1
0	87947	58.51	-1
0	88097	58.61	-1
0	88247	58.71	-1
0	88397	58.81	-1
0	88547	58.91	-1
0	88701	59.01	-1
0	88851	59.11	-1
0	89001	59.21	-1
0	89151	59.31	-1
0	89301	59.41	-1
0	89451	59.51	-1
0	89601	59.61	-1
0	89751	59.71	-1
0	89901	59.81	-1
0	90051	59.91	-1
0	90205	60.01	-1
0	90355	60.11	-1
0	90505	60.21	-1
0	90655	60.31	-1
0	90805	60.41	-1
0	90955	60.51	-1
0	91105	60.61	-1
0	91255	60.71	-1
0	91405	60.81	-1
0	91555	60.91	-1
0	91709	61.01	-1
0	91859	61.11	-1
0	92009	61.21	-1
0	92159	61.31	-1
0	92309	61.41	-1
0	92459	61.51	-1
0	92609	61.61	-1
0	92759	61.71	-1
0	92909	61.81	-1
0	93059	61.91	-1
0	93213	62.01	-1
0	93363	62.11	-1
0	93513	62.21	-1
0	93663	62.31	-1
0	93813	62.41	-1
0	93963	62.51	-1
0	94113	62.61	-1
0	94263	62.71	-1
0	94413	62.81	-1
0	94563	62.91	-1
0	94717	63.01	-1
0	94867	63.11	-1
0	95017	63.21	-1
0	95167	63.31	-1
0	95317	63.41	-1
0	95467	63.51	-1
0	95617	63.61	-1
0	95767	63.71	-1
0	95917	63.81	-1
0	96067	63.91	-1
0	96221	64.01	-1
0	96371	64.11	-1
0	96521	64.21	-1
0	96671	64.31	-1
0	96821	64.41	-1
0	96971	64.51	-1
0	97121	64.61	-1
0	97271	64.71	-1
0	97421	64.81	-1
0	97571	64.91	-1
0	97725	65.01	-1
0	97875	65.11	-1
0	98025	65.21	-1
0	98175	65.31	-1
0	98325	65.41	-1
0	98475	65.51	-1
0	98625	65.61	-1
0	98775	65.71	-1
0	98925	65.81	-1
0	99075	65.91	-1
0	99229	66.01	-1
0	99379	66.11	-1
0	99529	66.21	-1
0	99679	66.31	-1
0	99829	66.41	-1
0	99979	66.51	-1
0	100129	66.61	-1
0	100279	66.71	-1
0	100429	66.81	-1
0	100579	66.91	-1
0	100733	67.01	-1
0	100883	67.11	-1
0	101033	67.21	-1
0	101183	67.31	-1
0	101333	67.41	-1
0	101483	67.51	-1
0	101633	67.61	-1
0	101783	67.71	-1
0	101933	67.81	-1
0	102083	67.91	-1
0	102237	68.01	-1
0	102387	68.11	-1
0	102537	68.21	-1
0	102687	68.31	-1
0	102837	68.41	-1
0	102987	68.51	-1
0	103137	68.61	-1
0	103287	68.71	-1
0	103437	68.81	-1
0	103587	68.91	-1
0	103741	69.01	-1
0	103891	69.11	-1
0	104041	69.21	-1
0	104191	69.31	-1
0	104341	69.41	-1
0	104491	69.51	-1
0	104641	69.61	-1
0	104791	69.71	-1
0	104941	69.81	-1
0	105091	69.91	-1
0	105245	70.01	-1
0	105395	70.11	-1
0	105545	70.21	-1
0	105695	70.31	-1
0	105845	70.41	-1
0	105995	70.51	-1
0	106145	70.61	-1
0	106295	70.71	-1
0	106445	70.81	-1
0	106595	70.91	-1
0	106749	71.01	-1
0	106899	71.11	-1
0	107049	71.21	-1
0	107199	71.31	-1
0	107349	71.41	-1
0	107499	71.51	-1
0	107649	71.61	-1
0	107799	71.71	-1
0	107949	71.81	-1
0	108099	71.91	-1
0	108253	72.01	-1
0	108403	72.11	-1
0	108553	72.21	-1
0	108703	72.31	-1
0	108853	72.41	-1
0	109003	72.51	-1
0	109153	72.61	-1
0	109303	72.71	-1
0	109453	72.81	-1
0	109603	72.91	-1
0	109757	73.01	-1
0	109907	73.11	-1
0	110057	73.21	-1
0	110207	73.31	-1
0	110357	73.41	-1
0	110507	73.51	-1
0	110657	73.61	-1
0	110807	73.71	-1
0	110957	73.81	-1
0	111107	73.91	-1
0	111261	74.01	-1
0	111411	74.11	-1
0	111561	74.21	-1
0	111711	74.31	-1
0	111861	74.41	-1
0	112011	74.51	-1
0	112161	74.61	-1
0	112311	74.71	-1
0	112461	74.81	-1
0	112611	74.91	-1
0	112765	75.01	-1
0	112915	75.11	-1
0	113065	75.21	-1
0	113215	75.31	-1
0	113365	75.41	-1
0	113515	75.51	-1
0	113665	75.61	-1
0	113815	75.71	-1
0	113965	75.81	-1
0	114115	75.91	-1
0	114269	76.01	-1
0	114419	76.11	-1
0	114569	76.21	-1
0	114719	76.31	-1
0	114869	76.41	-1
0	115019	76.51	-1
0	115169	76.61	-1
0	115319	76.71	-1
0	115469	76.81	-1
0	115619	76.91	-1
0	115773	77.01	-1
0	115923	77.11	-1
0	116073	77.21	-1
0	116223	77.31	-1
0	116373	77.41	-1
0	116523	77.51	-1
0	116673	77.61	-1
0	116823	77.71	-1
0	116973	77.81	-1
0	117123	77.91	-1
0	117277	78.01	-1
0	117427	78.11	-1
0	117577	78.21	-1
0	117727	78.31	-1
0	117877	78.41	-1
0	118027	78.51	-1
0	118177	78.61	-1
0	118327	78.71	-1
0	118477	78.81	-1
0	118627	78.91	-1
0	118781	79.01	-1
0	118931	79.11	-1
0	119081	79.21	-1
0	119231	79.31	-1
0	119381	79.41	-1
0	119531	79.51	-1
0	119681	79.61	-1
0	119831	79.71	-1
0	119981	79.81	-1
0	120131	79.91	-1
0	120285	80.01	-1
0	120435	80.11	-1
0	120585	80.21	-1
0	120735	80.31	-1
0	120885	80.41	-1
0	121035	80.51	-1
0	121185	80.61	-1
0	121335	80.71	-1
0	121485	80.81	-1
0	121635	80.91	-1
0	121789	81.01	-1
0	121939	81.11	-1
0	122089	81.21	-1
0	122239	81.31	-1
0	122389	81.41	-1
0	122539	81.51	-1
0	122689	81.61	-1
0	122839	81.71	-1
0	122989	81.81	-1
0	123139	81.91	-1
0	123293	82.01	-1
0	123443	82.11	-1
0	123593	82.21	-1
0	123743	82.31	-1
0	123893	82.41	-1
0	124043	82.51	-1
0	124193	82.61	-1
0	124343	82.71	-1
0	124493	82.81	-1
0	124643	82.91	-1
0	124797	83.01	-1
0	124947	83.11	-1
0	125097	83.21	-1
0	125247	83.31	-1
0	125397	83.41	-1
0	125547	83.51	-1
0	125697	83.61	-1
0	125847	83.71	-1
0	125997	83.81	-1
0	126147	83.91	-1
0	126301	84.01	-1
0	126451	84.11	-1
0	126601	84.21	-1
0	126751	84.31	-1
0	126901	84.41	-1
0	127051	84.51	-1
0	127201	84.61	-1
0	127351	84.71	-1
0	127501	84.81	-1
0	127651	84.91	-1
0	127805	85.01	-1
0	127955	85.11	-1
0	128105	85.21	-1
0	128255	85.31	-1
0	128405	85.41	-1
0	128555	85.51	-1
0	128705	85.61	-1
0	128855	85.71	-1
0	129005	85.81	-1
0	129155	85.91	-1
0	129309	86.01	-1
0	129459	86.11	-1
0	129609	86.21	-1
0	129759	86.31	-1
0	129909	86.41	-1
0	130059	86.51	-1
0	130209	86.61	-1
0	130359	86.71	-1
0	130509	86.81	-1
0	130659	86.91	-1
0	130813	87.01	-1
0	130963	87.11	-1
0	131113	87.21	-1
0	131263	87.31	-1
0	131413	87.41	-1
0	131563	87.51	-1
0	131713	87.61	-1
0	131863	87.71	-1
0	132013	87.81	-1
0	132163	87.91	-1
0	132317	88.01	-1
0	132467	88.11	-1
0	132617	88.21	-1
0	132767	88.31	-1
0	132917	88.41	-1
0	133067	88.51	-1
0	133217	88.61	-1
0	133367	88.71	-1
0	133517	88.81	-1
0	133667	88.91	-1
0	133821	89.01	-1
0	133971	89.11	-1
0	134121	89.21	-1
0	134271	89.31	-1
0	134421	89.41	-1
0	134571	89.51	-1
0	134721	89.61	-1
0	134871	89.71	-1
0	135021	89.81	-1
0	135171	89.91	-1
0	135325	90.01	-1
0	135475	90.11	-1
0	135625	90.21	-1
0	135775	90.31	-1
0	135925	90.41	-1
0	136075	90.51	-1
0	136225	90.61	-1
0	136375	90.71	-1
0	136525	90.81	-1
0	136675	90.91	-1
0	136829	91.01	-1
0	136979	91.11	-1
0	137129	91.21	-1
0	137279	91.31	-1
0	137429	91.41	-1
0	137579	91.51	-1
0	137729	91.61	-1
0	137879	91.71	-1
0	138029	91.81	-1
0	138179	91.91	-1
0	138333	92.01	-1
0	138483	92.11	-1
0	138633	92.21	-1
0	138783	92.31	-1
0	138933	92.41	-1
0	139083	92.51	-1
0	139233	92.61	-1
0	139383	92.71	-1
0	139533	92.81	-1
0	139683	92.91	-1
0	139837	93.01	-1
0	139987	93.11	-1
0	140137	93.21	-1
0	140287	93.31	-1
0	140437	93.41	-1
0	140587	93.51	-1
0	140737	93.61	-1
0	140887	93.71	-1
0	141037	93.81	-1
0	141187	93.91	-1
0	141341	94.01	-1
0	141491	94.11	-1
0	141641	94.21	-1
0	141791	94.31	-1
0	141941	94.41	-1
0	142091	94.51	-1
0	142241	94.61	-1
0	142391	94.71	-1
0	142541	94.81	-1
0	142691	94.91	-1
0	142845	95.01	-1
0	142995	95.11	-1
0	143145	95.21	-1
0	143295	95.31	-1
0	143445	95.41	-1
0	143595	95.51	-1
0	143745	95.61	-1
0	143895	95.71	-1
0	144045	95.81	-1
0	144195	95.91	-1
0	144349	96.01	-1
0	144499	96.11	-1
0	144649	96.21	-1
0	144799	96.31	-1
0	144949	96.41	-1
0	145099	96.51	-1
0	145249	96.61	-1
0	145399	96.71	-1
0	145549	96.81	-1
0	145699	96.91	-1
0	145853	97.01	-1
0	146003	97.11	-1
0	146153	97.21	-1
0	146303	97.31	-1
0	146453	97.41	-1
0	146603	97.51	-1
0	146753	97.61	-1
0	146903	97.71	-1
0	147053	97.81	-1
0	147203	97.91	-1
0	147357	98.01	-1
0	147507	98.11	-1
0	147657	98.21	-1
0	147807	98.31	-1
0	147957	98.41	-1
0	148107	98.51	-1
0	148257	98.61	-1
0	148407	98.71	-1
0	148557	98.81	-1
0	148707	98.91	-1
0	148861	99.01	-1
0	149011	99.11	-1
0	149161	99.21	-1
0	149311	99.31	-1
0	149461	99.41	-1
0	149611	99.51	-1
0	149761	99.61	-1
0	149911	99.71	-1
0	150061	99.81	-1
0	150211	99.91	-1
1	113	1.11	0
1	263	1.21	0
1	413	1.31	0
1	563	1.41	0
1	713	1.51	0
1	863	1.61	0
1	1013	1.71	0
1	1163	1.81	0
1	1313	1.91	0
1	1467	2.01	0
1	1617	2.11	0
1	1767	2.21	0
1	1917	2.31	0
1	2067	2.41	0
1	2217	2.51	0
1	2367	2.61	0
1	2517	2.71	0
1	2667	2.81	0
1	2817	2.91	0
1	2971	3.01	0
1	3121	3.11	0
1	3271	3.21	0
1	3421	3.31	0
1	3571	3.41	0
1	3721	3.51	0
1	3871	3.61	0
1	4021	3.71	0
1	4171	3.81	0
1	4321	3.91	0
1	4475	4.01	0
1	4625	4.11	0
1	4775	4.21	0
1	4925	4.31	0
1	5075	4.41	0
1	5225	4.51	0
1	5375	4.61	0
1	5525	4.71	0
1	5675	4.81	0
1	5825	4.91	0
1	5979	5.01	0
1	6129	5.11	0
1	6279	5.21	0
1	6429	5.31	0
1	6579	5.41	0
1	6729	5.51	0
1	6879	5.61	0
1	7029	5.71	0
1	7179	5.81	0
1	7329	5.91	0
1	7483	6.01	0
1	7633	6.11	0
1	7783	6.21	0
1	7933	6.31	0
1	8083	6.41	0
1	8233	6.51	0
1	8383	6.61	0
1	8533	6.71	0
1	8683	6.81	0
1	8833	6.91	0
1	8987	7.01	0
1	9137	7.11	0
1	9287	7.21	0
1	9437	7.31	0
1	9587	7.41	0
1	9737	7.51	0
1	9887	7.61	0
1	10037	7.71	0
1	10187	7.81	0
1	10337	7.91	0
1	10491	8.01	0
1	10641	8.11	0
1	10791	8.21	0
1	10941	8.31	0
1	11091	8.41	0
1	11241	8.51	0
1	11391	8.61	0
1	11541	8.71	0
1	11691	8.81	0
1	11841	8.91	0
1	11995	9.01	0
1	12145	9.11	0
1	12295	9.21	0
1	12445	9.31	0
1	12595	9.41	0
1	12745	9.51	0
1	12895	9.61	0
1	13045	9.71	0
1	13195	9.81	0
1	13345	9.91	0
1	13537	10.01	0
1	13690	10.11	0
1	13843	10.21	0
1	13996	10.31	0
1	14149	10.41	0
1	14302	10.51	0
1	14455	10.61	0
1	14608	10.71	0
1	14761	10.81	0
1	14914	10.91	0
1	15071	11.01	0
1	15224	11.11	0
1	15377	11.21	0
1	15530	11.31	0
1	15683	11.41	0
1	15836	11.51	0
1	15989	11.61	0
1	16142	11.71	0
1	16295	11.81	0
1	16448	11.91	0
1	16605	12.01	0
1	16758	12.11	0
1	16911	12.21	0
1	17064	12.31	0
1	17217	12.41	0
1	17370	12.51	0
1	17523	12.61	0
1	17676	12.71	0
1	17829	12.81	0
1	17982	12.91	0
1	18139	13.01	0
1	18292	13.11	0
1	18445	13.21	0
1	18598	13.31	0
1	18751	13.41	0
1	18904	13.51	0
1	19057	13.61	0
1	19210	13.71	0
1	19363	13.81	0
1	19516	13.91	0
1	19673	14.01	0
1	19826	14.11	0
1	19979	14.21	0
1	20132	14.31	0
1	20285	14.41	0
1	20438	14.51	0
1	20591	14.61	0
1	20744	14.71	0
1	20897	14.81	0
1	21050	14.91	0
1	21207	15.01	0
1	21360	15.11	0
1	21513	15.21	0
1	21666	15.31	0
1	21819	15.41	0
1	21972	15.51	0
1	22125	15.61	0
1	22278	15.71	0
1	22431	15.81	0
1	22584	15.91	0
1	22741	16.01	0
1	22894	16.11	0
1	23047	16.21	0
1	23200	16.31	0
1	23353	16.41	0
1	23506	16.51	0
1	23659	16.61	0
1	23812	16.71	0
1	23965	16.81	0
1	24118	16.91	0
1	24275	17.01	0
1	24428	17.11	0
1	24581	17.21	0
1	24734	17.31	0
1	24887	17.41	0
1	25040	17.51	0
1	25193	17.61	0
1	25346	17.71	0
1	25499	17.81	0
1	25652	17.91	0
1	25809	18.01	0
1	25962	18.11	0
1	26115	18.21	0
1	26268	18.31	0
1	26421	18.41	0
1	26574	18.51	0
1	26727	18.61	0
1	26880	18.71	0
1	27033	18.81	0
1	27186	18.91	0
1	27343	19.01	0
1	27496	19.11	0
1	27649	19.21	0
1	27802	19.31	0
1	27955	19.41	0
1	28108	19.51	0
1	28261	19.61	0
1	28414	19.71	0
1	28567	19.81	0
1	28720	19.91	0
1	28877	20.01	0
1	29030	20.11	0
1	29183	20.21	0
1	29336	20.31	0
1	29489	20.41	0
1	29642	20.51	0
1	29795	20.61	0
1	29948	20.71	0
1	30101	20.81	0
1	30254	20.91	0
1	30411	21.01	0
1	30564	21.11	0
1	30717	21.21	0
1	30870	21.31	0
1	31023	21.41	0
1	31176	21.51	0
1	31329	21.61	0
1	31482	21.71	0
1	31635	21.81	0
1	31788	21.91	0
1	31945	22.01	0
1	32098	22.11	0
1	32251	22.21	0
1	32404	22.31	0
1	32557	22.41	0
1	32710	22.51	0
1	32863	22.61	0
1	33016	22.71	0
1	33169	22.81	0
1	33322	22.91	0
1	33479	23.01	0
1	33632	23.11	0
1	33785	23.21	0
1	33938	23.31	0
1	34091	23.41	0
1	34244	23.51	0
1	34397	23.61	0
1	34550	23.71	0
1	34703	23.81	0
1	34856	23.91	0
1	35013	24.01	0
1	35166	24.11	0
1	35319	24.21	0
1	35472	24.31	0
1	35625	24.41	0
1	35778	24.51	0
1	35931	24.61	0
1	36084	24.71	0
1	36237	24.81	0
1	36390	24.91	0
1	36547	25.01	0
1	36700	25.11	0
1	36853	25.21	0
1	37006	25.31	0
1	37159	25.41	0
1	37312	25.51	0
1	37465	25.61	0
1	37618	25.71	0
1	37771	25.81	0
1	37924	25.91	0
1	38081	26.01	0
1	38234	26.11	0
1	38387	26.21	0
1	38540	26.31	0
1	38693	26.41	0
1	38846	26.51	0
1	38999	26.61	0
1	39152	26.71	0
1	39305	26.81	0
1	39458	26.91	0
1	39615	27.01	0
1	39768	27.11	0
1	39921	27.21	0
1	40074	27.31	0
1	40227	27.41	0
1	40380	27.51	0
1	40533	27.61	0
1	40686	27.71	0
1	40839	27.81	0
1	40992	27.91	0
1	41149	28.01	0
1	41302	28.11	0
1	41455	28.21	0
1	41608	28.31	0
1	41761	28.41	0
1	41914	28.51	0
1	42067	28.61	0
1	42220	28.71	0
1	42373	28.81	0
1	42526	28.91	0
1	42683	29.01	0
1	42836	29.11	0
1	42989	29.21	0
1	43142	29.31	0
1	43295	29.41	0
1	43448	29.51	0
1	43601	29.61	0
1	43754	29.71	0
1	43907	29.81	0
1	44060	29.91	0
1	44217	30.01	0
1	44370	30.11	0
1	44523	30.21	0
1	44676	30.31	0
1	44829	30.41	0
1	44982	30.51	0
1	45135	30.61	0
1	45288	30.71	0
1	45441	30.81	0
1	45594	30.91	0
1	45751	31.01	0
1	45904	31.11	0
1	46057	31.21	0
1	46210	31.31	0
1	46363	31.41	0
1	46516	31.51	0
1	46669	31.61	0
1	46822	31.71	0
1	46975	31.81	0
1	47128	31.91	0
1	47285	32.01	0
1	47438	32.11	0
1	47591	32.21	0
1	47744	32.31	0
1	47897	32.41	0
1	48050	32.51	0
1	48203	32.61	0
1	48356	32.71	0
1	48509	32.81	0
1	48662	32.91	0
1	48819	33.01	0
1	48972	33.11	0
1	49125	33.21	0
1	49278	33.31	0
1	49431	33.41	0
1	49584	33.51	0
1	49737	33.61	0
1	49890	33.71	0
1	50043	33.81	0
1	50196	33.91	0
1	50353	34.01	0
1	50506	34.11	0
1	50659	34.21	0
1	50812	34.31	0
1	50965	34.41	0
1	51118	34.51	0
1	51271	34.61	0
1	51424	34.71	0
1	51577	34.81	0
1	51730	34.91	0
1	51887	35.01	0
1	52040	35.11	0
1	52193	35.21	0
1	52346	35.31	0
1	52499	35.41	0
1	52652	35.51	0
1	52805	35.61	0
1	52958	35.71	0
1	53111	35.81	0
1	53264	35.91	0
1	53421	36.01	0
1	53574	36.11	0
1	53727	36.21	0
1	53880	36.31	0
1	54033	36.41	0
1	54186	36.51	0
1	54339	36.61	0
1	54492	36.71	0
1	54645	36.81	0
1	54798	36.91	0
1	54955	37.01	0
1	55108	37.11	0
1	55261	37.21	0
1	55414	37.31	0
1	55567	37.41	0
1	55720	37.51	0
1	55873	37.61	0
1	56026	37.71	0
1	56179	37.81	0
1	56332	37.91	0
1	56489	38.01	0
1	56642	38.11	0
1	56795	38.21	0
1	56948	38.31	0
1	57101	38.41	0
1	57254	38.51	0
1	57407	38.61	0
1	57560	38.71	0
1	57713	38.81	0
1	57866	38.91	0
1	58023	39.01	0
1	58176	39.11	0
1	58329	39.21	0
1	58482	39.31	0
1	58635	39.41	0
1	58788	39.51	0
1	58941	39.61	0
1	59094	39.71	0
1	59247	39.81	0
1	59400	39.91	0
1	59557	40.01	0
1	59710	40.11	0
1	59863	40.21	0
1	60016	40.31	0
1	60169	40.41	0
1	60322	40.51	0
1	60475	40.61	0
1	60628	40.71	0
1	60781	40.81	0
1	60934	40.91	0
1	61091	41.01	0
1	61244	41.11	0
1	61397	41.21	0
1	61550	41.31	0
1	61703	41.41	0
1	61856	41.51	0
1	62009	41.61	0
1	62162	41.71	0
1	62315	41.81	0
1	62468	41.91	0
1	62625	42.01	0
1	62778	42.11	0
1	62931	42.21	0
1	63084	42.31	0
1	63237	42.41	0
1	63390	42.51	0
1	63543	42.61	0
1	63749	42.71	0
1	63901	42.81	0
1	64053	42.91	0
1	64209	43.01	0
1	64361	43.11	0
1	64513	43.21	0
1	64665	43.31	0
1	64817	43.41	0
1	64969	43.51	0
1	65121	43.61	0
1	65273	43.71	0
1	65425	43.81	0
1	65577	43.91	0
1	65733	44.01	0
1	65885	44.11	0
1	66037	44.21	0
1	66189	44.31	0
1	66341	44.41	0
1	66493	44.51	0
1	66645	44.61	0
1	66797	44.71	0
1	66949	44.81	0
1	67101	44.91	0
1	67257	45.01	0
1	67409	45.11	0
1	67561	45.21	0
1	67713	45.31	0
1	67865	45.41	0
1	68017	45.51	0
1	68169	45.61	0
1	68321	45.71	0
1	68473	45.81	0
1	68625	45.91	0
1	68781	46.01	0
1	68933	46.11	0
1	69085	46.21	0
1	69237	46.31	0
1	69389	46.41	0
1	69541	46.51	0
1	69693	46.61	0
1	69845	46.71	0
1	69997	46.81	0
1	70149	46.91	0
1	70305	47.01	0
1	70457	47.11	0
1	70609	47.21	0
1	70761	47.31	0
1	70913	47.41	0
1	71065	47.51	0
1	71217	47.61	0
1	71369	47.71	0
1	71521	47.81	0
1	71673	47.91	0
1	71829	48.01	0
1	71981	48.11	0
1	72133	48.21	0
1	72285	48.31	0
1	72437	48.41	0
1	72642	48.51	0
1	72793	48.61	0
1	72944	48.71	0
1	73095	48.81	0
1	73246	48.91	0
1	73401	49.01	0
1	73552	49.11	0
1	73703	49.21	0
1	73854	49.31	0
1	74005	49.41	0
1	74156	49.51	0
1	74307	49.61	0
1	74458	49.71	0
1	74609	49.81	0
1	74760	49.91	0
1	74915	50.01	0
1	75066	50.11	0
1	75217	50.21	0
1	75368	50.31	0
1	75519	50.41	0
1	75670	50.51	0
1	75821	50.61	0
1	75972	50.71	0
1	76123	50.81	0
1	76274	50.91	0
1	76429	51.01	0
1	76580	51.11	0
1	76731	51.21	0
1	76882	51.31	0
1	77033	51.41	0
1	77184	51.51	0
1	77335	51.61	0
1	77486	51.71	0
1	77637	51.81	0
1	77788	51.91	0
1	77943	52.01	0
1	78094	52.11	0
1	78245	52.21	0
1	78396	52.31	0
1	78547	52.41	0
1	78698	52.51	0
1	78849	52.61	0
1	79000	52.71	0
1	79151	52.81	0
1	79302	52.91	0
1	79457	53.01	0
1	79608	53.11	0
1	79759	53.21	0
1	79910	53.31	0
1	80061	53.41	0
1	80212	53.51	0
1	80363	53.61	0
1	80514	53.71	0
1	80877	53.81	0
1	81027	53.91	0
1	81181	54.01	0
1	81331	54.11	0
1	81481	54.21	0
1	81631	54.31	0
1	81781	54.41	0
1	81931	54.51	0
1	82081	54.61	0
1	82231	54.71	0
1	82381	54.81	0
1	82531	54.91	0
1	82685	55.01	0
1	82835	55.11	0
1	82985	55.21	0
1	83135	55.31	0
1	83285	55.41	0
1	83435	55.51	0
1	83585	55.61	0
1	83735	55.71	0
1	83885	55.81	0
1	84035	55.91	0
1	84189	56.01	0
1	84339	56.11	0
1	84489	56.21	0
1	84639	56.31	0
1	84789	56.41	0
1	84939	56.51	0
1	85089	56.61	0
1	85239	56.71	0
1	85389	56.81	0
1	85539	56.91	0
1	85693	57.01	0
1	85843	57.11	0
1	85993	57.21	0
1	86143	57.31	0
1	86293	57.41	0
1	86443	57.51	0
1	86593	57.61	0
1	86743	57.71	0
1	86893	57.81	0
1	87043	57.91	0
1	87197	58.01	0
1	87347	58.11	0
1	87497	58.21	0
1	87647	58.31	0
1	87797	58.41	0
1	87947	58.51	0
1	88097	58.61	0
1	88247	58.71	0
1	88397	58.81	0
1	88547	58.91	0
1	88701	59.01	0
1	88851	59.11	0
1	89001	59.21	0
1	89151	59.31	0
1	89301	59.41	0
1	89451	59.51	0
1	89601	59.61	0
1	89751	59.71	0
1	89901	59.81	0
1	90051	59.91	0
1	90205	60.01	0
1	90355	60.11	0
1	90505	60.21	0
1	90655	60.31	0
1	90805	60.41	0
1	90955	60.51	0
1	91105	60.61	0
1	91255	60.71	0
1	91405	60.81	0
1	91555	60.91	0
1	91709	61.01	0
1	91859	61.11	0
1	92009	61.21	0
1	92159	61.31	0
1	92309	61.41	0
1	92459	61.51	0
1	92609	61.61	0
1	92759	61.71	0
1	92909	61.81	0
1	93059	61.91	0
1	93213	62.01	0
1	93363	62.11	0
1	93513	62.21	0
1	93663	62.31	0
1	93813	62.41	0
1	93963	62.51	0
1	94113	62.61	0
1	94263	62.71	0
1	94413	62.81	0
1	94563	62.91	0
1	94717	63.01	0
1	94867	63.11	0
1	95017	63.21	0
1	95167	63.31	0
1	95317	63.41	0
1	95467	63.51	0
1	95617	63.61	0
1	95767	63.71	0
1	95917	63.81	0
1	96067	63.91	0
1	96221	64.01	0
1	96371	64.11	0
1	96521	64.21	0
1	96671	64.31	0
1	96821	64.41	0
1	96971	64.51	0
1	97121	64.61	0
1	97271	64.71	0
1	97421	64.81	0
1	97571	64.91	0
1	97725	65.01	0
1	97875	65.11	0
1	98025	65.21	0
1	98175	65.31	0
1	98325	65.41	0
1	98475	65.51	0
1	98625	65.61	0
1	98775	65.71	0
1	98925	65.81	0
1	99075	65.91	0
1	99229	66.01	0
1	99379	66.11	0
1	99529	66.21	0
1	99679	66.31	0
1	99829	66.41	0
1	99979	66.51	0
1	100129	66.61	0
1	100279	66.71	0
1	100429	66.81	0
1	100579	66.91	0
1	100733	67.01	0
1	100883	67.11	0
1	101033	67.21	0
1	101183	67.31	0
1	101333	67.41	0
1	101483	67.51	0
1	101633	67.61	0
1	101783	67.71	0
1	101933	67.81	0
1	102083	67.91	0
1	102237	68.01	0
1	102387	68.11	0
1	102537	68.21	0
1	102687	68.31	0
1	102837	68.41	0
1	102987	68.51	0
1	103137	68.61	0
1	103287	68.71	0
1	103437	68.81	0
1	103587	68.91	0
1	103741	69.01	0
1	103891	69.11	0
1	104041	69.21	0
1	104191	69.31	0
1	104341	69.41	0
1	104491	69.51	0
1	104641	69.61	0
1	104791	69.71	0
1	104941	69.81	0
1	105091	69.91	0
1	105245	70.01	0
1	105395	70.11	0
1	105545	70.21	0
1	105695	70.31	0
1	105845	70.41	0
1	105995	70.51	0
1	106145	70.61	0
1	106295	70.71	0
1	106445	70.81	0
1	106595	70.91	0
1	106749	71.01	0
1	106899	71.11	0
1	107049	71.21	0
1	107199	71.31	0
1	107349	71.41	0
1	107499	71.51	0
1	107649	71.61	0
1	107799	71.71	0
1	107949	71.81	0
1	108099	71.91	0
1	108253	72.01	0
1	108403	72.11	0
1	108553	72.21	0
1	108703	72.31	0
1	108853	72.41	0
1	109003	72.51	0
1	109153	72.61	0
1	109303	72.71	0
1	109453	72.81	0
1	109603	72.91	0
1	109757	73.01	0
1	109907	73.11	0
1	110057	73.21	0
1	110207	73.31	0
1	110357	73.41	0
1	110507	73.51	0
1	110657	73.61	0
1	110807	73.71	0
1	110957	73.81	0
1	111107	73.91	0
1	111261	74.01	0
1	111411	74.11	0
1	111561	74.21	0
1	111711	74.31	0
1	111861	74.41	0
1	112011	74.51	0
1	112161	74.61	0
1	112311	74.71	0
1	112461	74.81	0
1	112611	74.91	0
1	112765	75.01	0
1	112915	75.11	0
1	113065	75.21	0
1	113215	75.31	0
1	113365	75.41	0
1	113515	75.51	0
1	113665	75.61	0
1	113815	75.71	0
1	113965	75.81	0
1	114115	75.91	0
1	114269	76.01	0
1	114419	76.11	0
1	114569	76.21	0
1	114719	76.31	0
1	114869	76.41	0
1	115019	76.51	0
1	115169	76.61	0
1	115319	76.71	0
1	115469	76.81	0
1	115619	76.91	0
1	115773	77.01	0
1	115923	77.11	0
1	116073	77.21	0
1	116223	77.31	0
1	116373	77.41	0
1	116523	77.51	0
1	116673	77.61	0
1	116823	77.71	0
1	116973	77.81	0
1	117123	77.91	0
1	117277	78.01	0
1	117427	78.11	0
1	117577	78.21	0
1	117727	78.31	0
1	117877	78.41	0
1	118027	78.51	0
1	118177	78.61	0
1	118327	78.71	0
1	118477	78.81	0
1	118627	78.91	0
1	118781	79.01	0
1	118931	79.11	0
1	119081	79.21	0
1	119231	79.31	0
1	119381	79.41	0
1	119531	79.51	0
1	119681	79.61	0
1	119831	79.71	0
1	119981	79.81	0
1	120131	79.91	0
1	120285	80.01	0
1	120435	80.11	0
1	120585	80.21	0
1	120735	80.31	0
1	120885	80.41	0
1	121035	80.51	0
1	121185	80.61	0
1	121335	80.71	0
1	121485	80.81	0
1	121635	80.91	0
1	121789	81.01	0
1	121939	81.11	0
1	122089	81.21	0
1	122239	81.31	0
1	122389	81.41	0
1	122539	81.51	0
1	122689	81.61	0
1	122839	81.71	0
1	122989	81.81	0
1	123139	81.91	0
1	123293	82.01	0
1	123443	82.11	0
1	123593	82.21	0
1	123743	82.31	0
1	123893	82.41	0
1	124043	82.51	0
1	124193	82.61	0
1	124343	82.71	0
1	124493	82.81	0
1	124643	82.91	0
1	124797	83.01	0
1	124947	83.11	0
1	125097	83.21	0
1	125247	83.31	0
1	125397	83.41	0
1	125547	83.51	0
1	125697	83.61	0
1	125847	83.71	0
1	125997	83.81	0
1	126147	83.91	0
1	126301	84.01	0
1	126451	84.11	0
1	126601	84.21	0
1	126751	84.31	0
1	126901	84.41	0
1	127051	84.51	0
1	127201	84.61	0
1	127351	84.71	0
1	127501	84.81	0
1	127651	84.91	0
1	127805	85.01	0
1	127955	85.11	0
1	128105	85.21	0
1	128255	85.31	0
1	128405	85.41	0
1	128555	85.51	0
1	128705	85.61	0
1	128855	85.71	0
1	129005	85.81	0
1	129155	85.91	0
1	129309	86.01	0
1	129459	86.11	0
1	129609	86.21	0
1	129759	86.31	0
1	129909	86.41	0
1	130059	86.51	0
1	130209	86.61	0
1	130359	86.71	0
1	130509	86.81	0
1	130659	86.91	0
1	130813	87.01	0
1	130963	87.11	0
1	131113	87.21	0
1	131263	87.31	0
1	131413	87.41	0
1	131563	87.51	0
1	131713	87.61	0
1	131863	87.71	0
1	132013	87.81	0
1	132163	87.91	0
1	132317	88.01	0
1	132467	88.11	0
1	132617	88.21	0
1	132767	88.31	0
1	132917	88.41	0
1	133067	88.51	0
1	133217	88.61	0
1	133367	88.71	0
1	133517	88.81	0
1	133667	88.91	0
1	133821	89.01	0
1	133971	89.11	0
1	134121	89.21	0
1	134271	89.31	0
1	134421	89.41	0
1	134571	89.51	0
1	134721	89.61	0
1	134871	89.71	0
1	135021	89.81	0
1	135171	89.91	0
1	135325	90.01	0
1	135475	90.11	0
1	135625	90.21	0
1	135775	90.31	0
1	135925	90.41	0
1	136075	90.51	0
1	136225	90.61	0
1	136375	90.71	0
1	136525	90.81	0
1	136675	90.91	0
1	136829	91.01	0
1	136979	91.11	0
1	137129	91.21	0
1	137279	91.31	0
1	137429	91.41	0
1	137579	91.51	0
1	137729	91.61	0
1	137879	91.71	0
1	138029	91.81	0
1	138179	91.91	0
1	138333	92.01	0
1	138483	92.11	0
1	138633	92.21	0
1	138783	92.31	0
1	138933	92.41	0
1	139083	92.51	0
1	139233	92.61	0
1	139383	92.71	0
1	139533	92.81	0
1	139683	92.91	0
1	139837	93.01	0
1	139987	93.11	0
1	140137	93.21	0
1	140287	93.31	0
1	140437	93.41	0
1	140587	93.51	0
1	140737	93.61	0
1	140887	93.71	0
1	141037	93.81	0
1	141187	93.91	0
1	141341	94.01	0
1	141491	94.11	0
1	141641	94.21	0
1	141791	94.31	0
1	141941	94.41	0
1	142091	94.51	0
1	142241	94.61	0
1	142391	94.71	0
1	142541	94.81	0
1	142691	94.91	0
1	142845	95.01	0
1	142995	95.11	0
1	143145	95.21	0
1	143295	95.31	0
1	143445	95.41	0
1	143595	95.51	0
1	143745	95.61	0
1	143895	95.71	0
1	144045	95.81	0
1	144195	95.91	0
1	144349	96.01	0
1	144499	96.11	0
1	144649	96.21	0
1	144799	96.31	0
1	144949	96.41	0
1	145099	96.51	0
1	145249	96.61	0
1	145399	96.71	0
1	145549	96.81	0
1	145699	96.91	0
1	145853	97.01	0
1	146003	97.11	0
1	146153	97.21	0
1	146303	97.31	0
1	146453	97.41	0
1	146603	97.51	0
1	146753	97.61	0
1	146903	97.71	0
1	147053	97.81	0
1	147203	97.91	0
1	147357	98.01	0
1	147507	98.11	0
1	147657	98.21	0
1	147807	98.31	0
1	147957	98.41	0
1	148107	98.51	0
1	148257	98.61	0
1	148407	98.71	0
1	148557	98.81	0
1	148707	98.91	0
1	148861	99.01	0
1	149011	99.11	0
1	149161	99.21	0
1	149311	99.31	0
1	149461	99.41	0
1	149611	99.51	0
1	149761	99.61	0
1	149911	99.71	0
1	150061	99.81	0
1	150211	99.91	0
2	113	1.11	0
2	263	1.21	0
2	413	1.31	0
2	563	1.41	0
2	713	1.51	0
2	863	1.61	0
2	1013	1.71	0
2	1163	1.81	0
2	1313	1.91	0
2	1467	2.01	0
2	1617	2.11	0
2	1767	2.21	0
2	1917	2.31	0
2	2067	2.41	0
2	2217	2.51	0
2	2367	2.61	0
2	2517	2.71	0
2	2667	2.81	0
2	2817	2.91	0
2	2971	3.01	0
2	3121	3.11	0
2	3271	3.21	0
2	3421	3.31	0
2	3571	3.41	0
2	3721	3.51	0
2	3871	3.61	0
2	4021	3.71	0
2	4171	3.81	0
2	4321	3.91	0
2	4475	4.01	0
2	4625	4.11	0
2	4775	4.21	0
2	4925	4.31	0
2	5075	4.41	0
2	5225	4.51	0
2	5375	4.61	0
2	5525	4.71	0
2	5675	4.81	0
2	5825	4.91	0
2	5979	5.01	0
2	6129	5.11	0
2	6279	5.21	0
2	6429	5.31	0
2	6579	5.41	0
2	6729	5.51	0
2	6879	5.61	0
2	7029	5.71	0
2	7179	5.81	0
2	7329	5.91	0
2	7483	6.01	0
2	7633	6.11	0
2	7783	6.21	0
2	7933	6.31	0
2	8083	6.41	0
2	8233	6.51	0
2	8383	6.61	0
2	8533	6.71	0
2	8683	6.81	0
2	8833	6.91	0
2	8987	7.01	0
2	9137	7.11	0
2	9287	7.21	0
2	9437	7.31	0
2	9587	7.41	0
2	9737	7.51	0
2	9887	7.61	0
2	10037	7.71	0
2	10187	7.81	0
2	10337	7.91	0
2	10491	8.01	0
2	10641	8.11	0
2	10791	8.21	0
2	10941	8.31	0
2	11091	8.41	0
2	11241	8.51	0
2	11391	8.61	0
2	11541	8.71	0
2	11691	8.81	0
2	11841	8.91	0
2	11995	9.01	0
2	12145	9.11	0
2	12295	9.21	0
2	12445	9.31	0
2	12595	9.41	0
2	12745	9.51	0
2	12895	9.61	0
2	13045	9.71	0
2	13195	9.81	0
2	13345	9.91	0
2	13537	10.01	0
2	13690	10.11	0
2	13843	10.21	0
2	13996	10.31	0
2	14149	10.41	0
2	14302	10.51	0
2	14455	10.61	0
2	14608	10.71	0
2	14761	10.81	0
2	14914	10.91	0
2	15071	11.01	0
2	15224	11.11	0
2	15377	11.21	0
2	15530	11.31	0
2	15683	11.41	0
2	15836	11.51	0
2	15989	11.61	0
2	16142	11.71	0
2	16295	11.81	0
2	16448	11.91	0
2	16605	12.01	0
2	16758	12.11	0
2	16911	12.21	0
2	17064	12.31	0
2	17217	12.41	0
2	17370	12.51	0
2	17523	12.61	0
2	17676	12.71	0
2	17829	12.81	0
2	17982	12.91	0
2	18139	13.01	0
2	18292	13.11	0
2	18445	13.21	0
2	18598	13.31	0
2	18751	13.41	0
2	18904	13.51	0
2	19057	13.61	0
2	19210	13.71	0
2	19363	13.81	0
2	19516	13.91	0
2	19673	14.01	0
2	19826	14.11	0
2	19979	14.21	0
2	20132	14.31	0
2	20285	14.41	0
2	20438	14.51	0
2	20591	14.61	0
2	20744	14.71	0
2	20897	14.81	0
2	21050	14.91	0
2	21207	15.01	0
2	21360	15.11	0
2	21513	15.21	0
2	21666	15.31	0
2	21819	15.41	0
2	21972	15.51	0
2	22125	15.61	0
2	22278	15.71	0
2	22431	15.81	0
2	22584	15.91	0
2	22741	16.01	0
2	22894	16.11	0
2	23047	16.21	0
2	23200	16.31	0
2	23353	16.41	0
2	23506	16.51	0
2	23659	16.61	0
2	23812	16.71	0
2	23965	16.81	0
2	24118	16.91	0
2	24275	17.01	0
2	24428	17.11	0
2	24581	17.21	0
2	24734	17.31	0
2	24887	17.41	0
2	25040	17.51	0
2	25193	17.61	0
2	25346	17.71	0
2	25499	17.81	0
2	25652	17.91	0
2	25809	18.01	0
2	25962	18.11	0
2	26115	18.21	0
2	26268	18.31	0
2	26421	18.41	0
2	26574	18.51	0
2	26727	18.61	0
2	26880	18.71	0
2	27033	18.81	0
2	27186	18.91	0
2	27343	19.01	0
2	27496	19.11	0
2	27649	19.21	0
2	27802	19.31	0
2	27955	19.41	0
2	28108	19.51	0
2	28261	19.61	0
2	28414	19.71	0
2	28567	19.81	0
2	28720	19.91	0
2	28877	20.01	0
2	29030	20.11	0
2	29183	20.21	0
2	29336	20.31	0
2	29489	20.41	0
2	29642	20.51	0
2	29795	20.61	0
2	29948	20.71	0
2	30101	20.81	0
2	30254	20.91	0
2	30411	21.01	0
2	30564	21.11	0
2	30717	21.21	0
2	30870	21.31	0
2	31023	21.41	0
2	31176	21.51	0
2	31329	21.61	0
2	31482	21.71	0
2	31635	21.81	0
2	31788	21.91	0
2	31945	22.01	0
2	32098	22.11	0
2	32251	22.21	0
2	32404	22.31	0
2	32557	22.41	0
2	32710	22.51	0
2	32863	22.61	0
2	33016	22.71	0
2	33169	22.81	0
2	33322	22.91	0
2	33479	23.01	0
2	33632	23.11	0
2	33785	23.21	0
2	33938	23.31	0
2	34091	23.41	0
2	34244	23.51	0
2	34397	23.61	0
2	34550	23.71	0
2	34703	23.81	0
2	34856	23.91	0
2	35013	24.01	0
2	35166	24.11	0
2	35319	24.21	0
2	35472	24.31	0
2	35625	24.41	0
2	35778	24.51	0
2	35931	24.61	0
2	36084	24.71	0
2	36237	24.81	0
2	36390	24.91	0
2	36547	25.01	0
2	36700	25.11	0
2	36853	25.21	0
2	37006	25.31	0
2	37159	25.41	0
2	37312	25.51	0
2	37465	25.61	0
2	37618	25.71	0
2	37771	25.81	0
2	37924	25.91	0
2	38081	26.01	0
2	38234	26.11	0
2	38387	26.21	0
2	38540	26.31	0
2	38693	26.41	0
2	38846	26.51	0
2	38999	26.61	0
2	39152	26.71	0
2	39305	26.81	0
2	39458	26.91	0
2	39615	27.01	0
2	39768	27.11	0
2	39921	27.21	0
2	40074	27.31	0
2	40227	27.41	0
2	40380	27.51	0
2	40533	27.61	0
2	40686	27.71	0
2	40839	27.81	0
2	40992	27.91	0
2	41149	28.01	0
2	41302	28.11	0
2	41455	28.21	0
2	41608	28.31	0
2	41761	28.41	0
2	41914	28.51	0
2	42067	28.61	0
2	42220	28.71	0
2	42373	28.81	0
2	42526	28.91	0
2	42683	29.01	0
2	42836	29.11	0
2	42989	29.21	0
2	43142	29.31	0
2	43295	29.41	0
2	43448	29.51	0
2	43601	29.61	0
2	43754	29.71	0
2	43907	29.81	0
2	44060	29.91	0
2	44217	30.01	0
2	44370	30.11	0
2	44523	30.21	0
2	44676	30.31	0
2	44829	30.41	0
2	44982	30.51	0
2	45135	30.61	0
2	45288	30.71	0
2	45441	30.81	0
2	45594	30.91	0
2	45751	31.01	0
2	45904	31.11	0
2	46057	31.21	0
2	46210	31.31	0
2	46363	31.41	0
2	46516	31.51	0
2	46669	31.61	0
2	46822	31.71	0
2	46975	31.81	0
2	47128	31.91	0
2	47285	32.01	0
2	47438	32.11	0
2	47591	32.21	0
2	47744	32.31	0
2	47897	32.41	0
2	48050	32.51	0
2	48203	32.61	0
2	48356	32.71	0
2	48509	32.81	0
2	48662	32.91	0
2	48819	33.01	0
2	48972	33.11	0
2	49125	33.21	0
2	49278	33.31	0
2	49431	33.41	0
2	49584	33.51	0
2	49737	33.61	0
2	49890	33.71	0
2	50043	33.81	0
2	50196	33.91	0
2	50353	34.01	0
2	50506	34.11	0
2	50659	34.21	0
2	50812	34.31	0
2	50965	34.41	0
2	51118	34.51	0
2	51271	34.61	0
2	51424	34.71	0
2	51577	34.81	0
2	51730	34.91	0
2	51887	35.01	0
2	52040	35.11	0
2	52193	35.21	0
2	52346	35.31	0
2	52499	35.41	0
2	52652	35.51	0
2	52805	35.61	0
2	52958	35.71	0
2	53111	35.81	0
2	53264	35.91	0
2	53421	36.01	0
2	53574	36.11	0
2	53727	36.21	0
2	53880	36.31	0
2	54033	36.41	0
2	54186	36.51	0
2	54339	36.61	0
2	54492	36.71	0
2	54645	36.81	0
2	54798	36.91	0
2	54955	37.01	0
2	55108	37.11	0
2	55261	37.21	0
2	55414	37.31	0
2	55567	37.41	0
2	55720	37.51	0
2	55873	37.61	0
2	56026	37.71	0
2	56179	37.81	0
2	56332	37.91	0
2	56489	38.01	0
2	56642	38.11	0
2	56795	38.21	0
2	56948	38.31	0
2	57101	38.41	0
2	57254	38.51	0
2	57407	38.61	0
2	57560	38.71	0
2	57713	38.81	0
2	57866	38.91	0
2	58023	39.01	0
2	58176	39.11	0
2	58329	39.21	0
2	58482	39.31	0
2	58635	39.41	0
2	58788	39.51	0
2	58941	39.61	0
2	59094	39.71	0
2	59247	39.81	0
2	59400	39.91	0
2	59557	40.01	0
2	59710	40.11	0
2	59863	40.21	0
2	60016	40.31	0
2	60169	40.41	0
2	60322	40.51	0
2	60475	40.61	0
2	60628	40.71	0
2	60781	40.81	0
2	60934	40.91	0
2	61091	41.01	0
2	61244	41.11	0
2	61397	41.21	0
2	61550	41.31	0
2	61703	41.41	0
2	61856	41.51	0
2	62009	41.61	0
2	62162	41.71	0
2	62315	41.81	0
2	62468	41.91	0
2	62625	42.01	0
2	62778	42.11	0
2	62931	42.21	0
2	63084	42.31	0
2	63237	42.41	0
2	63390	42.51	0
2	63543	42.61	0
2	63749	42.71	0
2	63901	42.81	0
2	64053	42.91	0
2	64209	43.01	0
2	64361	43.11	0
2	64513	43.21	0
2	64665	43.31	0
2	64817	43.41	0
2	64969	43.51	0
2	65121	43.61	0
2	65273	43.71	0
2	65425	43.81	0
2	65577	43.91	0
2	65733	44.01	0
2	65885	44.11	0
2	66037	44.21	0
2	66189	44.31	0
2	66341	44.41	0
2	66493	44.51	0
2	66645	44.61	0
2	66797	44.71	0
2	66949	44.81	0
2	67101	44.91	0
2	67257	45.01	0
2	67409	45.11	0
2	67561	45.21	0
2	67713	45.31	0
2	67865	45.41	0
2	68017	45.51	0
2	68169	45.61	0
2	68321	45.71	0
2	68473	45.81	0
2	68625	45.91	0
2	68781	46.01	0
2	68933	46.11	0
2	69085	46.21	0
2	69237	46.31	0
2	69389	46.41	0
2	69541	46.51	0
2	69693	46.61	0
2	69845	46.71	0
2	69997	46.81	0
2	70149	46.91	0
2	70305	47.01	0
2	70457	47.11	0
2	70609	47.21	0
2	70761	47.31	0
2	70913	47.41	0
2	71065	47.51	0
2	71217	47.61	0
2	71369	47.71	0
2	71521	47.81	0
2	71673	47.91	0
2	71829	48.01	0
2	71981	48.11	0
2	72133	48.21	0
2	72285	48.31	0
2	72437	48.41	0
2	72642	48.51	0
2	72793	48.61	0
2	72944	48.71	0
2	73095	48.81	0
2	73246	48.91	0
2	73401	49.01	0
2	73552	49.11	0
2	73703	49.21	0
2	73854	49.31	0
2	74005	49.41	0
2	74156	49.51	0
2	74307	49.61	0
2	74458	49.71	0
2	74609	49.81	0
2	74760	49.91	0
2	74915	50.01	0
2	75066	50.11	0
2	75217	50.21	0
2	75368	50.31	0
2	75519	50.41	0
2	75670	50.51	0
2	75821	50.61	0
2	75972	50.71	0
2	76123	50.81	0
2	76274	50.91	0
2	76429	51.01	0
2	76580	51.11	0
2	76731	51.21	0
2	76882	51.31	0
2	77033	51.41	0
2	77184	51.51	0
2	77335	51.61	0
2	77486	51.71	0
2	77637	51.81	0
2	77788	51.91	0
2	77943	52.01	0
2	78094	52.11	0
2	78245	52.21	0
2	78396	52.31	0
2	78547	52.41	0
2	78698	52.51	0
2	78849	52.61	0
2	79000	52.71	0
2	79151	52.81	0
2	79302	52.91	0
2	79457	53.01	0
2	79608	53.11	0
2	79759	53.21	0
2	79910	53.31	0
2	80061	53.41	0
2	80212	53.51	0
2	80363	53.61	0
2	80514	53.71	0
2	80877	53.81	0
2	81027	53.91	0
2	81181	54.01	0
2	81331	54.11	0
2	81481	54.21	0
2	81631	54.31	0
2	81781	54.41	0
2	81931	54.51	0
2	82081	54.61	0
2	82231	54.71	0
2	82381	54.81	0
2	82531	54.91	0
2	82685	55.01	0
2	82835	55.11	0
2	82985	55.21	0
2	83135	55.31	0
2	83285	55.41	0
2	83435	55.51	0
2	83585	55.61	0
2	83735	55.71	0
2	83885	55.81	0
2	84035	55.91	0
2	84189	56.01	0
2	84339	56.11	0
2	84489	56.21	0
2	84639	56.31	0
2	84789	56.41	0
2	84939	56.51	0
2	85089	56.61	0
2	85239	56.71	0
2	85389	56.81	0
2	85539	56.91	0
2	85693	57.01	0
2	85843	57.11	0
2	85993	57.21	0
2	86143	57.31	0
2	86293	57.41	0
2	86443	57.51	0
2	86593	57.61	0
2	86743	57.71	0
2	86893	57.81	0
2	87043	57.91	0
2	87197	58.01	0
2	87347	58.11	0
2	87497	58.21	0
2	87647	58.31	0
2	87797	58.41	0
2	87947	58.51	0
2	88097	58.61	0
2	88247	58.71	0
2	88397	58.81	0
2	88547	58.91	0
2	88701	59.01	0
2	88851	59.11	0
2	89001	59.21	0
2	89151	59.31	0
2	89301	59.41	0
2	89451	59.51	0
2	89601	59.61	0
2	89751	59.71	0
2	89901	59.81	0
2	90051	59.91	0
2	90205	60.01	0
2	90355	60.11	0
2	90505	60.21	0
2	90655	60.31	0
2	90805	60.41	0
2	90955	60.51	0
2	91105	60.61	0
2	91255	60.71	0
2	91405	60.81	0
2	91555	60.91	0
2	91709	61.01	0
2	91859	61.11	0
2	92009	61.21	0
2	92159	61.31	0
2	92309	61.41	0
2	92459	61.51	0
2	92609	61.61	0
2	92759	61.71	0
2	92909	61.81	0
2	93059	61.91	0
2	93213	62.01	0
2	93363	62.11	0
2	93513	62.21	0
2	93663	62.31	0
2	93813	62.41	0
2	93963	62.51	0
2	94113	62.61	0
2	94263	62.71	0
2	94413	62.81	0
2	94563	62.91	0
2	94717	63.01	0
2	94867	63.11	0
2	95017	63.21	0
2	95167	63.31	0
2	95317	63.41	0
2	95467	63.51	0
2	95617	63.61	0
2	95767	63.71	0
2	95917	63.81	0
2	96067	63.91	0
2	96221	64.01	0
2	96371	64.11	0
2	96521	64.21	0
2	96671	64.31	0
2	96821	64.41	0
2	96971	64.51	0
2	97121	64.61	0
2	97271	64.71	0
2	97421	64.81	0
2	97571	64.91	0
2	97725	65.01	0
2	97875	65.11	0
2	98025	65.21	0
2	98175	65.31	0
2	98325	65.41	0
2	98475	65.51	0
2	98625	65.61	0
2	98775	65.71	0
2	98925	65.81	0
2	99075	65.91	0
2	99229	66.01	0
2	99379	66.11	0
2	99529	66.21	0
2	99679	66.31	0
2	99829	66.41	0
2	99979	66.51	0
2	100129	66.61	0
2	100279	66.71	0
2	100429	66.81	0
2	100579	66.91	0
2	100733	67.01	0
2	100883	67.11	0
2	101033	67.21	0
2	101183	67.31	0
2	101333	67.41	0
2	101483	67.51	0
2	101633	67.61	0
2	101783	67.71	0
2	101933	67.81	0
2	102083	67.91	0
2	102237	68.01	0
2	102387	68.11	0
2	102537	68.21	0
2	102687	68.31	0
2	102837	68.41	0
2	102987	68.51	0
2	103137	68.61	0
2	103287	68.71	0
2	103437	68.81	0
2	103587	68.91	0
2	103741	69.01	0
2	103891	69.11	0
2	104041	69.21	0
2	104191	69.31	0
2	104341	69.41	0
2	104491	69.51	0
2	104641	69.61	0
2	104791	69.71	0
2	104941	69.81	0
2	105091	69.91	0
2	105245	70.01	0
2	105395	70.11	0
2	105545	70.21	0
2	105695	70.31	0
2	105845	70.41	0
2	105995	70.51	0
2	106145	70.61	0
2	106295	70.71	0
2	106445	70.81	0
2	106595	70.91	0
2	106749	71.01	0
2	106899	71.11	0
2	107049	71.21	0
2	107199	71.31	0
2	107349	71.41	0
2	107499	71.51	0
2	107649	71.61	0
2	107799	71.71	0
2	107949	71.81	0
2	108099	71.91	0
2	108253	72.01	0
2	108403	72.11	0
2	108553	72.21	0
2	108703	72.31	0
2	108853	72.41	0
2	109003	72.51	0
2	109153	72.61	0
2	109303	72.71	0
2	109453	72.81	0
2	109603	72.91	0
2	109757	73.01	0
2	109907	73.11	0
2	110057	73.21	0
2	110207	73.31	0
2	110357	73.41	0
2	110507	73.51	0
2	110657	73.61	0
2	110807	73.71	0
2	110957	73.81	0
2	111107	73.91	0
2	111261	74.01	0
2	111411	74.11	0
2	111561	74.21	0
2	111711	74.31	0
2	111861	74.41	0
2	112011	74.51	0
2	112161	74.61	0
2	112311	74.71	0
2	112461	74.81	0
2	112611	74.91	0
2	112765	75.01	0
2	112915	75.11	0
2	113065	75.21	0
2	113215	75.31	0
2	113365	75.41	0
2	113515	75.51	0
2	113665	75.61	0
2	113815	75.71	0
2	113965	75.81	0
2	114115	75.91	0
2	114269	76.01	0
2	114419	76.11	0
2	114569	76.21	0
2	114719	76.31	0
2	114869	76.41	0
2	115019	76.51	0
2	115169	76.61	0
2	115319	76.71	0
2	115469	76.81	0
2	115619	76.91	0
2	115773	77.01	0
2	115923	77.11	0
2	116073	77.21	0
2	116223	77.31	0
2	116373	77.41	0
2	116523	77.51	0
2	116673	77.61	0
2	116823	77.71	0
2	116973	77.81	0
2	117123	77.91	0
2	117277	78.01	0
2	117427	78.11	0
2	117577	78.21	0
2	117727	78.31	0
2	117877	78.41	0
2	118027	78.51	0
2	118177	78.61	0
2	118327	78.71	0
2	118477	78.81	0
2	118627	78.91	0
2	118781	79.01	0
2	118931	79.11	0
2	119081	79.21	0
2	119231	79.31	0
2	119381	79.41	0
2	119531	79.51	0
2	119681	79.61	0
2	119831	79.71	0
2	119981	79.81	0
2	120131	79.91	0
2	120285	80.01	0
2	120435	80.11	0
2	120585	80.21	0
2	120735	80.31	0
2	120885	80.41	0
2	121035	80.51	0
2	121185	80.61	0
2	121335	80.71	0
2	121485	80.81	0
2	121635	80.91	0
2	121789	81.01	0
2	121939	81.11	0
2	122089	81.21	0
2	122239	81.31	0
2	122389	81.41	0
2	122539	81.51	0
2	122689	81.61	0
2	122839	81.71	0
2	122989	81.81	0
2	123139	81.91	0
2	123293	82.01	0
2	123443	82.11	0
2	123593	82.21	0
2	123743	82.31	0
2	123893	82.41	0
2	124043	82.51	0
2	124193	82.61	0
2	124343	82.71	0
2	124493	82.81	0
2	124643	82.91	0
2	124797	83.01	0
2	124947	83.11	0
2	125097	83.21	0
2	125247	83.31	0
2	125397	83.41	0
2	125547	83.51	0
2	125697	83.61	0
2	125847	83.71	0
2	125997	83.81	0
2	126147	83.91	0
2	126301	84.01	0
2	126451	84.11	0
2	126601	84.21	0
2	126751	84.31	0
2	126901	84.41	0
2	127051	84.51	0
2	127201	84.61	0
2	127351	84.71	0
2	127501	84.81	0
2	127651	84.91	0
2	127805	85.01	0
2	127955	85.11	0
2	128105	85.21	0
2	128255	85.31	0
2	128405	85.41	0
2	128555	85.51	0
2	128705	85.61	0
2	128855	85.71	0
2	129005	85.81	0
2	129155	85.91	0
2	129309	86.01	0
2	129459	86.11	0
2	129609	86.21	0
2	129759	86.31	0
2	129909	86.41	0
2	130059	86.51	0
2	130209	86.61	0
2	130359	86.71	0
2	130509	86.81	0
2	130659	86.91	0
2	130813	87.01	0
2	130963	87.11	0
2	131113	87.21	0
2	131263	87.31	0
2	131413	87.41	0
2	131563	87.51	0
2	131713	87.61	0
2	131863	87.71	0
2	132013	87.81	0
2	132163	87.91	0
2	132317	88.01	0
2	132467	88.11	0
2	132617	88.21	0
2	132767	88.31	0
2	132917	88.41	0
2	133067	88.51	0
2	133217	88.61	0
2	133367	88.71	0
2	133517	88.81	0
2	133667	88.91	0
2	133821	89.01	0
2	133971	89.11	0
2	134121	89.21	0
2	134271	89.31	0
2	134421	89.41	0
2	134571	89.51	0
2	134721	89.61	0
2	134871	89.71	0
2	135021	89.81	0
2	135171	89.91	0
2	135325	90.01	0
2	135475	90.11	0
2	135625	90.21	0
2	135775	90.31	0
2	135925	90.41	0
2	136075	90.51	0
2	136225	90.61	0
2	136375	90.71	0
2	136525	90.81	0
2	136675	90.91	0
2	136829	91.01	0
2	136979	91.11	0
2	137129	91.21	0
2	137279	91.31	0
2	137429	91.41	0
2	137579	91.51	0
2	137729	91.61	0
2	137879	91.71	0
2	138029	91.81	0
2	138179	91.91	0
2	138333	92.01	0
2	138483	92.11	0
2	138633	92.21	0
2	138783	92.31	0
2	138933	92.41	0
2	139083	92.51	0
2	139233	92.61	0
2	139383	92.71	0
2	139533	92.81	0
2	139683	92.91	0
2	139837	93.01	0
2	139987	93.11	0
2	140137	93.21	0
2	140287	93.31	0
2	140437	93.41	0
2	140587	93.51	0
2	140737	93.61	0
2	140887	93.71	0
2	141037	93.81	0
2	141187	93.91	0
2	141341	94.01	0
2	141491	94.11	0
2	141641	94.21	0
2	141791	94.31	0
2	141941	94.41	0
2	142091	94.51	0
2	142241	94.61	0
2	142391	94.71	0
2	142541	94.81	0
2	142691	94.91	0
2	142845	95.01	0
2	142995	95.11	0
2	143145	95.21	0
2	143295	95.31	0
2	143445	95.41	0
2	143595	95.51	0
2	143745	95.61	0
2	143895	95.71	0
2	144045	95.81	0
2	144195	95.91	0
2	144349	96.01	0
2	144499	96.11	0
2	144649	96.21	0
2	144799	96.31	0
2	144949	96.41	0
2	145099	96.51	0
2	145249	96.61	0
2	145399	96.71	0
2	145549	96.81	0
2	145699	96.91	0
2	145853	97.01	0
2	146003	97.11	0
2	146153	97.21	0
2	146303	97.31	0
2	146453	97.41	0
2	146603	97.51	0
2	146753	97.61	0
2	146903	97.71	0
2	147053	97.81	0
2	147203	97.91	0
2	147357	98.01	0
2	147507	98.11	0
2	147657	98.21	0
2	147807	98.31	0
2	147957	98.41	0
2	148107	98.51	0
2	148257	98.61	0
2	148407	98.71	0
2	148557	98.81	0
2	148707	98.91	0
2	148861	99.01	0
2	149011	99.11	0
2	149161	99.21	0
2	149311	99.31	0
2	149461	99.41	0
2	149611	99.51	0
2	149761	99.61	0
2	149911	99.71	0
2	150061	99.81	0
2	150211	99.91	0
3	113	1.11	-0.000716383
3	263	1.21	-0.00136341
3	413	1.31	-0.00186974
3	563	1.41	-0.00225157
3	713	1.51	-0.00252443
3	863	1.61	-0.00270298
3	1013	1.71	-0.00280098
3	1163	1.81	-0.00283113
3	1313	1.91	-0.00280509
3	1467	2.01	-0.00273342
3	1617	2.11	-0.00262559
3	1767	2.21	-0.00249005
3	1917	2.31	-0.00233419
3	2067	2.41	-0.00216447
3	2217	2.51	-0.00198642
3	2367	2.61	-0.00180472
3	2517	2.71	-0.0016233
3	2667	2.81	-0.00144536
3	2817	2.91	-0.00127346
3	2971	3.01	-0.0011096
3	3121	3.11	-0.000955278
3	3271	3.21	-0.000811546
3	3421	3.31	-0.00067908
3	3571	3.41	-0.000558232
3	3721	3.51	-0.000449082
3	3871	3.61	-0.000351487
3	4021	3.71	-0.00026512
3	4171	3.81	-0.000189514
3	4321	3.91	-0.000124092
3	4475	4.01	-6.81972e-05
3	4625	4.11	-2.11209e-05
3	4775	4.21	1.78769e-05
3	4925	4.31	4.9548e-05
3	5075	4.41	7.46407e-05
3	5225	4.51	9.38867e-05
3	5375	4.61	0.000107991
3	5525	4.71	0.000117625
3	5675	4.81	0.000123418
3	5825	4.91	0.000125957
3	5979	5.01	0.000125781
3	6129	5.11	0.00012338
3	6279	5.21	0.000119198
3	6429	5.31	0.000113629
3	6579	5.41	0.000107022
3	6729	5.51	9.96832e-05
3	6879	5.61	9.18747e-05
3	7029	5.71	8.38211e-05
3	7179	5.81	7.57109e-05
3	7329	5.91	6.76999e-05
3	7483	6.01	5.99137e-05
3	7633	6.11	5.24518e-05
3	7783	6.21	4.53896e-05
3	7933	6.31	3.87821e-05
3	8083	6.41	3.2666e-05
3	8233	6.51	2.70628e-05
3	8383	6.61	2.19809e-05
3	8533	6.71	1.74176e-05
3	8683	6.81	1.33618e-05
3	8833	6.91	9.79494e-06
3	8987	7.01	6.6932e-06
3	9137	7.11	4.02864e-06
3	9287	7.21	1.77051e-06
3	9437	7.31	-1.13691e-07
3	9587	7.41	-1.65736e-06
3	9737	7.51	-2.89397e-06
3	9887	7.61	-3.85652e-06
3	10037	7.71	-4.57698e-06
3	10187	7.81	-5.08591e-06
3	10337	7.91	-5.41219e-06
3	10491	8.01	-5.58279e-06
3	10641	8.11	-5.6226e-06
3	10791	8.21	-5.55442e-06
3	10941	8.31	-5.39886e-06
3	11091	8.41	-5.17441e-06
3	11241	8.51	-4.89748e-06
3	11391	8.61	-4.58246e-06
3	11541	8.71	-4.24184e-06
3	11691	8.81	-3.88634e-06
3	11841	8.91	-3.52499e-06
3	11995	9.01	-3.16534e-06
3	12145	9.11	-2.81353e-06
3	12295	9.21	-2.47446e-06
3	12445	9.31	-2.15192e-06
3	12595	9.41	-1.84873e-06
3	12745	9.51	-1.56685e-06
3	12895	9.61	-1.30751e-06
3	13045	9.71	-1.0713e-06
3	13195	9.81	-8.58321e-07
3	13345	9.91	-6.68206e-07
3	13537	10.01	-5.0026e-07
3	13690	10.11	-3.53514e-07
3	13843	10.21	-2.2679e-07
3	13996	10.31	-1.18765e-07
3	14149	10.41	-2.80163e-08
3	14302	10.51	4.6931e-08
3	14455	10.61	1.07573e-07
3	14608	10.71	1.55391e-07
3	14761	10.81	1.91831e-07
3	14914	10.91	2.18284e-07
3	15071	11.01	2.3607e-07
3	15224	11.11	2.46427e-07
3	15377	11.21	2.50502e-07
3	15530	11.31	2.49353e-07
3	15683	11.41	2.43938e-07
3	15836	11.51	2.3512e-07
3	15989	11.61	2.23669e-07
3	16142	11.71	2.10264e-07
3	16295	11.81	1.95496e-07
3	16448	11.91	1.79874e-07
3	16605	12.01	1.63833e-07
3	16758	12.11	1.47736e-07
3	16911	12.21	1.3188e-07
3	17064	12.31	1.16508e-07
3	17217	12.41	1.01807e-07
3	17370	12.51	8.79222e-08
3	17523	12.61	7.49541e-08
3	17676	12.71	6.29711e-08
3	17829	12.81	5.20114e-08
3	17982	12.91	4.20883e-08
3	18139	13.01	3.3193e-08
3	18292	13.11	2.53003e-08
3	18445	13.21	1.83718e-08
3	18598	13.31	1.23581e-08
3	18751	13.41	7.20348e-09
3	18904	13.51	2.84537e-09
3	19057	13.61	-7.80886e-10
3	19210	13.71	-3.74136e-09
3	19363	13.81	-6.10285e-09
3	19516	13.91	-7.93072e-09
3	19673	14.01	-9.28821e-09
3	19826	14.11	-1.0235e-08
3	19979	14.21	-1.08283e-08
3	20132	14.31	-1.11211e-08
3	20285	14.41	-1.11612e-08
3	20438	14.51	-1.09946e-08
3	20591	14.61	-1.06599e-08
3	20744	14.71	-1.01945e-08
3	20897	14.81	-9.62999e-09
3	21050	14.91	-8.99405e-09
3	21207	15.01	-8.31086e-09
3	21360	15.11	-7.60103e-09
3	21513	15.21	-6.88338e-09
3	21666	15.31	-6.17071e-09
3	21819	15.41	-5.47544e-09
3	21972	15.51	-4.80682e-09
3	22125	15.61	-4.17266e-09
3	22278	15.71	-3.57687e-09
3	22431	15.81	-3.02443e-09
3	22584	15.91	-2.51674e-09
3	22741	16.01	-2.05489e-09
3	22894	16.11	-1.63958e-09
3	23047	16.21	-1.26903e-09
3	23200	16.31	-9.42535e-10
3	23353	16.41	-6.57963e-10
3	23506	16.51	-4.1247e-10
3	23659	16.61	-2.04636e-10
3	23812	16.71	-2.91323e-11
3	23965	16.81	1.14753e-10
3	24118	16.91	2.30926e-10
3	24275	17.01	3.22231e-10
3	24428	17.11	3.91154e-10
3	24581	17.21	4.40892e-10
3	24734	17.31	4.73577e-10
3	24887	17.41	4.92051e-10
3	25040	17.51	4.98446e-10
3	25193	17.61	4.94893e-10
3	25346	17.71	4.82814e-10
3	25499	17.81	4.6434e-10
3	25652	17.91	4.40892e-10
3	25809	18.01	4.13536e-10
3	25962	18.11	3.83693e-10
3	26115	18.21	3.51719e-10
3	26268	18.31	3.19744e-10
3	26421	18.41	2.8777e-10
3	26574	18.51	2.55795e-10
3	26727	18.61	2.25953e-10
3	26880	18.71	1.97531e-10
3	27033	18.81	1.6982e-10
3	27186	18.91	1.44951e-10
3	27343	19.01	1.21503e-10
3	27496	19.11	1.00187e-10
3	27649	19.21	8.10019e-11
3	27802	19.31	6.32383e-11
3	27955	19.41	4.86722e-11
3	28108	19.51	3.44613e-11
3	28261	19.61	2.34479e-11
3	28414	19.71	1.27898e-11
3	28567	19.81	4.9738e-12
3	28720	19.91	-2.13163e-12
3	28877	20.01	-8.17124e-12
3	29030	20.11	-1.1724e-11
3	29183	20.21	-1.52767e-11
3	29336	20.31	-1.88294e-11
3	29489	20.41	-2.02505e-11
3	29642	20.51	-2.02505e-11
3	29795	20.61	-2.02505e-11
3	29948	20.71	-2.02505e-11
3	30101	20.81	-2.02505e-11
3	30254	20.91	-2.02505e-11
3	30411	21.01	-2.02505e-11
3	30564	21.11	-2.02505e-11
3	30717	21.21	-2.02505e-11
3	30870	21.31	-1.88294e-11
3	31023	21.41	-1.7053e-11
3	31176	21.51	-1.52767e-11
3	31329	21.61	-1.38556e-11
3	31482	21.71	-1.24345e-11
3	31635	21.81	-1.13687e-11
3	31788	21.91	-1.03029e-11
3	31945	22.01	-9.23706e-12
3	32098	22.11	-8.52651e-12
3	32251	22.21	-7.4607e-12
3	32404	22.31	-6.75016e-12
3	32557	22.41	-6.03961e-12
3	32710	22.51	-5.68434e-12
3	32863	22.61	-4.9738e-12
3	33016	22.71	-4.61853e-12
3	33169	22.81	-4.26326e-12
3	33322	22.91	-3.90799e-12
3	33479	23.01	-3.55271e-12
3	33632	23.11	-3.19744e-12
3	33785	23.21	-2.84217e-12
3	33938	23.31	-2.4869e-12
3	34091	23.41	-2.13163e-12
3	34244	23.51	-2.13163e-12
3	34397	23.61	-1.77636e-12
3	34550	23.71	-1.77636e-12
3	34703	23.81	-1.42109e-12
3	34856	23.91	-1.42109e-12
3	35013	24.01	-1.06581e-12
3	35166	24.11	-1.06581e-12
3	35319	24.21	-1.06581e-12
3	35472	24.31	-1.06581e-12
3	35625	24.41	-7.10543e-13
3	35778	24.51	-7.10543e-13
3	35931	24.61	-7.10543e-13
3	36084	24.71	-7.10543e-13
3	36237	24.81	-7.10543e-13
3	36390	24.91	-3.55271e-13
3	36547	25.01	-3.55271e-13
3	36700	25.11	-3.55271e-13
3	36853	25.21	-3.55271e-13
3	37006	25.31	-3.55271e-13
3	37159	25.41	-3.55271e-13
3	37312	25.51	-3.55271e-13
3	37465	25.61	-3.55271e-13
3	37618	25.71	-3.55271e-13
3	37771	25.81	-3.55271e-13
3	37924	25.91	0
3	38081	26.01	0
3	38234	26.11	0
3	38387	26.21	0
3	38540	26.31	0
3	38693	26.41	0
3	38846	26.51	0
3	38999	26.61	0
3	39152	26.71	0
3	39305	26.81	0
3	39458	26.91	0
3	39615	27.01	0
3	39768	27.11	0
3	39921	27.21	0
3	40074	27.31	0
3	40227	27.41	0
3	40380	27.51	0
3	40533	27.61	0
3	40686	27.71	0
3	40839	27.81	0
3	40992	27.91	0
3	41149	28.01	0
3	41302	28.11	0
3	41455	28.21	0
3	41608	28.31	0
3	41761	28.41	0
3	41914	28.51	0
3	42067	28.61	0
3	42220	28.71	0
3	42373	28.81	0
3	42526	28.91	0
3	42683	29.01	0
3	42836	29.11	0
3	42989	29.21	0
3	43142	29.31	0
3	43295	29.41	0
3	43448	29.51	0
3	43601	29.61	0
3	43754	29.71	0
3	43907	29.81	0
3	44060	29.91	0
3	44217	30.01	0
3	44370	30.11	0
3	44523	30.21	0
3	44676	30.31	0
3	44829	30.41	0
3	44982	30.51	0
3	45135	30.61	0
3	45288	30.71	0
3	45441	30.81	0
3	45594	30.91	0
3	45751	31.01	0
3	45904	31.11	0
3	46057	31.21	0
3	46210	31.31	0
3	46363	31.41	0
3	46516	31.51	0
3	46669	31.61	0
3	46822	31.71	0
3	46975	31.81	0
3	47128	31.91	0
3	47285	32.01	0
3	47438	32.11	0
3	47591	32.21	0
3	47744	32.31	0
3	47897	32.41	0
3	48050	32.51	0
3	48203	32.61	0
3	48356	32.71	0
3	48509	32.81	0
3	48662	32.91	0
3	48819	33.01	0
3	48972	33.11	0
3	49125	33.21	0
3	49278	33.31	0
3	49431	33.41	0
3	49584	33.51	0
3	49737	33.61	0
3	49890	33.71	0
3	50043	33.81	0
3	50196	33.91	0
3	50353	34.01	0
3	50506	34.11	0
3	50659	34.21	0
3	50812	34.31	0
3	50965	34.41	0
3	51118	34.51	0
3	51271	34.61	0
3	51424	34.71	0
3	51577	34.81	0
3	51730	34.91	0
3	51887	35.01	0
3	52040	35.11	0
3	52193	35.21	0
3	52346	35.31	0
3	52499	35.41	0
3	52652	35.51	0
3	52805	35.61	0
3	52958	35.71	0
3	53111	35.81	0
3	53264	35.91	0
3	53421	36.01	0
3	53574	36.11	0
3	53727	36.21	0
3	53880	36.31	0
3	54033	36.41	0
3	54186	36.51	0
3	54339	36.61	0
3	54492	36.71	0
3	54645	36.81	0
3	54798	36.91	0
3	54955	37.01	0
3	55108	37.11	0
3	55261	37.21	0
3	55414	37.31	0
3	55567	37.41	0
3	55720	37.51	0
3	55873	37.61	0
3	56026	37.71	0
3	56179	37.81	0
3	56332	37.91	0
3	56489	38.01	0
3	56642	38.11	0
3	56795	38.21	0
3	56948	38.31	0
3	57101	38.41	0
3	57254	38.51	0
3	57407	38.61	0
3	57560	38.71	0
3	57713	38.81	0
3	57866	38.91	0
3	58023	39.01	0
3	58176	39.11	0
3	58329	39.21	0
3	58482	39.31	0
3	58635	39.41	0
3	58788	39.51	0
3	58941	39.61	0
3	59094	39.71	0
3	59247	39.81	0
3	59400	39.91	0
3	59557	40.01	0
3	59710	40.11	0
3	59863	40.21	0
3	60016	40.31	0
3	60169	40.41	0
3	60322	40.51	0
3	60475	40.61	0
3	60628	40.71	0
3	60781	40.81	0
3	60934	40.91	0
3	61091	41.01	0
3	61244	41.11	0
3	61397	41.21	0
3	61550	41.31	0
3	61703	41.41	0
3	61856	41.51	0
3	62009	41.61	0
3	62162	41.71	0
3	62315	41.81	0
3	62468	41.91	0
3	62625	42.01	0
3	62778	42.11	0
3	62931	42.21	0
3	63084	42.31	0
3	63237	42.41	0
3	63390	42.51	0
3	63543	42.61	0
3	63749	42.71	0
3	63901	42.81	0
3	64053	42.91	0
3	64209	43.01	0
3	64361	43.11	0
3	64513	43.21	0
3	64665	43.31	0
3	64817	43.41	0
3	64969	43.51	0
3	65121	43.61	0
3	65273	43.71	0
3	65425	43.81	0
3	65577	43.91	0
3	65733	44.01	0
3	65885	44.11	0
3	66037	44.21	0
3	66189	44.31	0
3	66341	44.41	0
3	66493	44.51	0
3	66645	44.61	0
3	66797	44.71	0
3	66949	44.81	0
3	67101	44.91	0
3	67257	45.01	0
3	67409	45.11	0
3	67561	45.21	0
3	67713	45.31	0
3	67865	45.41	0
3	68017	45.51	0
3	68169	45.61	0
3	68321	45.71	0
3	68473	45.81	0
3	68625	45.91	0
3	68781	46.01	0
3	68933	46.11	0
3	69085	46.21	0
3	69237	46.31	0
3	69389	46.41	0
3	69541	46.51	0
3	69693	46.61	0
3	69845	46.71	0
3	69997	46.81	0
3	70149	46.91	0
3	70305	47.01	0
3	70457	47.11	0
3	70609	47.21	0
3	70761	47.31	0
3	70913	47.41	0
3	71065	47.51	0
3	71217	47.61	0
3	71369	47.71	0
3	71521	47.81	0
3	71673	47.91	0
3	71829	48.01	0
3	71981	48.11	0
3	72133	48.21	0
3	72285	48.31	0
3	72437	48.41	0
3	72642	48.51	0
3	72793	48.61	0
3	72944	48.71	0
3	73095	48.81	0
3	73246	48.91	0
3	73401	49.01	0
3	73552	49.11	0
3	73703	49.21	0
3	73854	49.31	0
3	74005	49.41	0
3	74156	49.51	0
3	74307	49.61	0
3	74458	49.71	0
3	74609	49.81	0
3	74760	49.91	0
3	74915	50.01	0
3	75066	50.11	0
3	75217	50.21	0
3	75368	50.31	0
3	75519	50.41	0
3	75670	50.51	0
3	75821	50.61	0
3	75972	50.71	0
3	76123	50.81	0
3	76274	50.91	0
3	76429	51.01	0
3	76580	51.11	0
3	76731	51.21	0
3	76882	51.31	0
3	77033	51.41	0
3	77184	51.51	0
3	77335	51.61	0
3	77486	51.71	0
3	77637	51.81	0
3	77788	51.91	0
3	77943	52.01	0
3	78094	52.11	0
3	78245	52.21	0
3	78396	52.31	0
3	78547	52.41	0
3	78698	52.51	0
3	78849	52.61	0
3	79000	52.71	0
3	79151	52.81	0
3	79302	52.91	0
3	79457	53.01	0
3	79608	53.11	0
3	79759	53.21	0
3	79910	53.31	0
3	80061	53.41	0
3	80212	53.51	0
3	80363	53.61	0
3	80514	53.71	0
3	80877	53.81	0
3	81027	53.91	0
3	81181	54.01	0
3	81331	54.11	0
3	81481	54.21	0
3	81631	54.31	0
3	81781	54.41	0
3	81931	54.51	0
3	82081	54.61	0
3	82231	54.71	0
3	82381	54.81	0
3	82531	54.91	0
3	82685	55.01	0
3	82835	55.11	0
3	82985	55.21	0
3	83135	55.31	0
3	83285	55.41	0
3	83435	55.51	0
3	83585	55.61	0
3	83735	55.71	0
3	83885	55.81	0
3	84035	55.91	0
3	84189	56.01	0
3	84339	56.11	0
3	84489	56.21	0
3	84639	56.31	0
3	84789	56.41	0
3	84939	56.51	0
3	85089	56.61	0
3	85239	56.71	0
3	85389	56.81	0
3	85539	56.91	0
3	85693	57.01	0
3	85843	57.11	0
3	85993	57.21	0
3	86143	57.31	0
3	86293	57.41	0
3	86443	57.51	0
3	86593	57.61	0
3	86743	57.71	0
3	86893	57.81	0
3	87043	57.91	0
3	87197	58.01	0
3	87347	58.11	0
3	87497	58.21	0
3	87647	58.31	0
3	87797	58.41	0
3	87947	58.51	0
3	88097	58.61	0
3	88247	58.71	0
3	88397	58.81	0
3	88547	58.91	0
3	88701	59.01	0
3	88851	59.11	0
3	89001	59.21	0
3	89151	59.31	0
3	89301	59.41	0
3	89451	59.51	0
3	89601	59.61	0
3	89751	59.71	0
3	89901	59.81	0
3	90051	59.91	0
3	90205	60.01	0
3	90355	60.11	0
3	90505	60.21	0
3	90655	60.31	0
3	90805	60.41	0
3	90955	60.51	0
3	91105	60.61	0
3	91255	60.71	0
3	91405	60.81	0
3	91555	60.91	0
3	91709	61.01	0
3	91859	61.11	0
3	92009	61.21	0
3	92159	61.31	0
3	92309	61.41	0
3	92459	61.51	0
3	92609	61.61	0
3	92759	61.71	0
3	92909	61.81	0
3	93059	61.91	0
3	93213	62.01	0
3	93363	62.11	0
3	93513	62.21	0
3	93663	62.31	0
3	93813	62.41	0
3	93963	62.51	0
3	94113	62.61	0
3	94263	62.71	0
3	94413	62.81	0
3	94563	62.91	0
3	94717	63.01	0
3	94867	63.11	0
3	95017	63.21	0
3	95167	63.31	0
3	95317	63.41	0
3	95467	63.51	0
3	95617	63.61	0
3	95767	63.71	0
3	95917	63.81	0
3	96067	63.91	0
3	96221	64.01	0
3	96371	64.11	0
3	96521	64.21	0
3	96671	64.31	0
3	96821	64.41	0
3	96971	64.51	0
3	97121	64.61	0
3	97271	64.71	0
3	97421	64.81	0
3	97571	64.91	0
3	97725	65.01	0
3	97875	65.11	0
3	98025	65.21	0
3	98175	65.31	0
3	98325	65.41	0
3	98475	65.51	0
3	98625	65.61	0
3	98775	65.71	0
3	98925	65.81	0
3	99075	65.91	0
3	99229	66.01	0
3	99379	66.11	0
3	99529	66.21	0
3	99679	66.31	0
3	99829	66.41	0
3	99979	66.51	0
3	100129	66.61	0
3	100279	66.71	0
3	100429	66.81	0
3	100579	66.91	0
3	100733	67.01	0
3	100883	67.11	0
3	101033	67.21	0
3	101183	67.31	0
3	101333	67.41	0
3	101483	67.51	0
3	101633	67.61	0
3	101783	67.71	0
3	101933	67.81	0
3	102083	67.91	0
3	102237	68.01	0
3	102387	68.11	0
3	102537	68.21	0
3	102687	68.31	0
3	102837	68.41	0
3	102987	68.51	0
3	103137	68.61	0
3	103287	68.71	0
3	103437	68.81	0
3	103587	68.91	0
3	103741	69.01	0
3	103891	69.11	0
3	104041	69.21	0
3	104191	69.31	0
3	104341	69.41	0
3	104491	69.51	0
3	104641	69.61	0
3	104791	69.71	0
3	104941	69.81	0
3	105091	69.91	0
3	105245	70.01	0
3	105395	70.11	0
3	105545	70.21	0
3	105695	70.31	0
3	105845	70.41	0
3	105995	70.51	0
3	106145	70.61	0
3	106295	70.71	0
3	106445	70.81	0
3	106595	70.91	0
3	106749	71.01	0
3	106899	71.11	0
3	107049	71.21	0
3	107199	71.31	0
3	107349	71.41	0
3	107499	71.51	0
3	107649	71.61	0
3	107799	71.71	0
3	107949	71.81	0
3	108099	71.91	0
3	108253	72.01	0
3	108403	72.11	0
3	108553	72.21	0
3	108703	72.31	0
3	108853	72.41	0
3	109003	72.51	0
3	109153	72.61	0
3	109303	72.71	0
3	109453	72.81	0
3	109603	72.91	0
3	109757	73.01	0
3	109907	73.11	0
3	110057	73.21	0
3	110207	73.31	0
3	110357	73.41	0
3	110507	73.51	0
3	110657	73.61	0
3	110807	73.71	0
3	110957	73.81	0
3	111107	73.91	0
3	111261	74.01	0
3	111411	74.11	0
3	111561	74.21	0
3	111711	74.31	0
3	111861	74.41	0
3	112011	74.51	0
3	112161	74.61	0
3	112311	74.71	0
3	112461	74.81	0
3	112611	74.91	0
3	112765	75.01	0
3	112915	75.11	0
3	113065	75.21	0
3	113215	75.31	0
3	113365	75.41	0
3	113515	75.51	0
3	113665	75.61	0
3	113815	75.71	0
3	113965	75.81	0
3	114115	75.91	0
3	114269	76.01	0
3	114419	76.11	0
3	114569	76.21	0
3	114719	76.31	0
3	114869	76.41	0
3	115019	76.51	0
3	115169	76.61	0
3	115319	76.71	0
3	115469	76.81	0
3	115619	76.91	0
3	115773	77.01	0
3	115923	77.11	0
3	116073	77.21	0
3	116223	77.31	0
3	116373	77.41	0
3	116523	77.51	0
3	116673	77.61	0
3	116823	77.71	0
3	116973	77.81	0
3	117123	77.91	0
3	117277	78.01	0
3	117427	78.11	0
3	117577	78.21	0
3	117727	78.31	0
3	117877	78.41	0
3	118027	78.51	0
3	118177	78.61	0
3	118327	78.71	0
3	118477	78.81	0
3	118627	78.91	0
3	118781	79.01	0
3	118931	79.11	0
3	119081	79.21	0
3	119231	79.31	0
3	119381	79.41	0
3	119531	79.51	0
3	119681	79.61	0
3	119831	79.71	0
3	119981	79.81	0
3	120131	79.91	0
3	120285	80.01	0
3	120435	80.11	0
3	120585	80.21	0
3	120735	80.31	0
3	120885	80.41	0
3	121035	80.51	0
3	121185	80.61	0
3	121335	80.71	0
3	121485	80.81	0
3	121635	80.91	0
3	121789	81.01	0
3	121939	81.11	0
3	122089	81.21	0
3	122239	81.31	0
3	122389	81.41	0
3	122539	81.51	0
3	122689	81.61	0
3	122839	81.71	0
3	122989	81.81	0
3	123139	81.91	0
3	123293	82.01	0
3	123443	82.11	0
3	123593	82.21	0
3	123743	82.31	0
3	123893	82.41	0
3	124043	82.51	0
3	124193	82.61	0
3	124343	82.71	0
3	124493	82.81	0
3	124643	82.91	0
3	124797	83.01	0
3	124947	83.11	0
3	125097	83.21	0
3	125247	83.31	0
3	125397	83.41	0
3	125547	83.51	0
3	125697	83.61	0
3	125847	83.71	0
3	125997	83.81	0
3	126147	83.91	0
3	126301	84.01	0
3	126451	84.11	0
3	126601	84.21	0
3	126751	84.31	0
3	126901	84.41	0
3	127051	84.51	0
3	127201	84.61	0
3	127351	84.71	0
3	127501	84.81	0
3	127651	84.91	0
3	127805	85.01	0
3	127955	85.11	0
3	128105	85.21	0
3	128255	85.31	0
3	128405	85.41	0
3	128555	85.51	0
3	128705	85.61	0
3	128855	85.71	0
3	129005	85.81	0
3	129155	85.91	0
3	129309	86.01	0
3	129459	86.11	0
3	129609	86.21	0
3	129759	86.31	0
3	129909	86.41	0
3	130059	86.51	0
3	130209	86.61	0
3	130359	86.71	0
3	130509	86.81	0
3	130659	86.91	0
3	130813	87.01	0
3	130963	87.11	0
3	131113	87.21	0
3	131263	87.31	0
3	131413	87.41	0
3	131563	87.51	0
3	131713	87.61	0
3	131863	87.71	0
3	132013	87.81	0
3	132163	87.91	0
3	132317	88.01	0
3	132467	88.11	0
3	132617	88.21	0
3	132767	88.31	0
3	132917	88.41	0
3	133067	88.51	0
3	133217	88.61	0
3	133367	88.71	0
3	133517	88.81	0
3	133667	88.91	0
3	133821	89.01	0
3	133971	89.11	0
3	134121	89.21	0
3	134271	89.31	0
3	134421	89.41	0
3	134571	89.51	0
3	134721	89.61	0
3	134871	89.71	0
3	135021	89.81	0
3	135171	89.91	0
3	135325	90.01	0
3	135475	90.11	0
3	135625	90.21	0
3	135775	90.31	0
3	135925	90.41	0
3	136075	90.51	0
3	136225	90.61	0
3	136375	90.71	0
3	136525	90.81	0
3	136675	90.91	0
3	136829	91.01	0
3	136979	91.11	0
3	137129	91.21	0
3	137279	91.31	0
3	137429	91.41	0
3	137579	91.51	0
3	137729	91.61	0
3	137879	91.71	0
3	138029	91.81	0
3	138179	91.91	0
3	138333	92.01	0
3	138483	92.11	0
3	138633	92.21	0
3	138783	92.31	0
3	138933	92.41	0
3	139083	92.51	0
3	139233	92.61	0
3	139383	92.71	0
3	139533	92.81	0
3	139683	92.91	0
3	139837	93.01	0
3	139987	93.11	0
3	140137	93.21	0
3	140287	93.31	0
3	140437	93.41	0
3	140587	93.51	0
3	140737	93.61	0
3	140887	93.71	0
3	141037	93.81	0
3	141187	93.91	0
3	141341	94.01	0
3	141491	94.11	0
3	141641	94.21	0
3	141791	94.31	0
3	141941	94.41	0
3	142091	94.51	0
3	142241	94.61	0
3	142391	94.71	0
3	142541	94.81	0
3	142691	94.91	0
3	142845	95.01	0
3	142995	95.11	0
3	143145	95.21	0
3	143295	95.31	0
3	143445	95.41	0
3	143595	95.51	0
3	143745	95.61	0
3	143895	95.71	0
3	144045	95.81	0
3	144195	95.91	0
3	144349	96.01	0
3	144499	96.11	0
3	144649	96.21	0
3	144799	96.31	0
3	144949	96.41	0
3	145099	96.51	0
3	145249	96.61	0
3	145399	96.71	0
3	145549	96.81	0
3	145699	96.91	0
3	145853	97.01	0
3	146003	97.11	0
3	146153	97.21	0
3	146303	97.31	0
3	146453	97.41	0
3	146603	97.51	0
3	146753	97.61	0
3	146903	97.71	0
3	147053	97.81	0
3	147203	97.91	0
3	147357	98.01	0
3	147507	98.11	0
3	147657	98.21	0
3	147807	98.31	0
3	147957	98.41	0
3	148107	98.51	0
3	148257	98.61	0
3	148407	98.71	0
3	148557	98.81	0
3	148707	98.91	0
3	148861	99.01	0
3	149011	99.11	0
3	149161	99.21	0
3	149311	99.31	0
3	149461	99.41	0
3	149611	99.51	0
3	149761	99.61	0
3	149911	99.71	0
3	150061	99.81	0
3	150211	99.91	0
4	113	1.11	-0.00437036
4	263	1.21	-0.00426837
4	413	1.31	-0.00410815
4	563	1.41	-0.00390303
4	713	1.51	-0.00366476
4	863	1.61	-0.00340356
4	1013	1.71	-0.00312825
4	1163	1.81	-0.00284628
4	1313	1.91	-0.00256392
4	1467	2.01	-0.0022863
4	1617	2.11	-0.00201755
4	1767	2.21	-0.00176089
4	1917	2.31	-0.00151876
4	2067	2.41	-0.00129289
4	2217	2.51	-0.00108441
4	2367	2.61	-0.00089393
4	2517	2.71	-0.000721638
4	2667	2.81	-0.000567355
4	2817	2.91	-0.000430614
4	2971	3.01	-0.000310715
4	3121	3.11	-0.000206783
4	3271	3.21	-0.000117814
4	3421	3.31	-4.27149e-05
4	3571	3.41	1.96584e-05
4	3721	3.51	7.04736e-05
4	3871	3.61	0.000110896
4	4021	3.71	0.000142067
4	4171	3.81	0.00016509
4	4321	3.91	0.000181016
4	4475	4.01	0.000190834
4	4625	4.11	0.000195466
4	4775	4.21	0.00019576
4	4925	4.31	0.000192489
4	5075	4.41	0.000186354
4	5225	4.51	0.000177979
4	5375	4.61	0.000167916
4	5525	4.71	0.000156649
4	5675	4.81	0.000144597
4	5825	4.91	0.000132116
4	5979	5.01	0.000119508
4	6129	5.11	0.000107021
4	6279	5.21	9.48587e-05
4	6429	5.31	8.31796e-05
4	6579	5.41	7.21068e-05
4	6729	5.51	6.17299e-05
4	6879	5.61	5.21101e-05
4	7029	5.71	4.32839e-05
4	7179	5.81	3.52669e-05
4	7329	5.91	2.80577e-05
4	7483	6.01	2.16404e-05
4	7633	6.11	1.59878e-05
4	7783	6.21	1.1064e-05
4	7933	6.31	6.82631e-06
4	8083	6.41	3.22748e-06
4	8233	6.51	2.17307e-07
4	8383	6.61	-2.25598e-06
4	8533	6.71	-4.24448e-06
4	8683	6.81	-5.79961e-06
4	8833	6.91	-6.97134e-06
4	8987	7.01	-7.80753e-06
4	9137	7.11	-8.35346e-06
4	9287	7.21	-8.65149e-06
4	9437	7.31	-8.7408e-06
4	9587	7.41	-8.6573e-06
4	9737	7.51	-8.43352e-06
4	9887	7.61	-8.09868e-06
4	10037	7.71	-7.67874e-06
4	10187	7.81	-7.19651e-06
4	10337	7.91	-6.67185e-06
4	10491	8.01	-6.12177e-06
4	10641	8.11	-5.56072e-06
4	10791	8.21	-5.00073e-06
4	10941	8.31	-4.45164e-06
4	11091	8.41	-3.92136e-06
4	11241	8.51	-3.41601e-06
4	11391	8.61	-2.94018e-06
4	11541	8.71	-2.4971e-06
4	11691	8.81	-2.08883e-06
4	11841	8.91	-1.71644e-06
4	11995	9.01	-1.38016e-06
4	12145	9.11	-1.07955e-06
4	12295	9.21	-8.13576e-07
4	12445	9.31	-5.80794e-07
4	12595	9.41	-3.79414e-07
4	12745	9.51	-2.07408e-07
4	12895	9.61	-6.25825e-08
4	13045	9.71	5.73472e-08
4	13195	9.81	1.54703e-07
4	13345	9.91	2.31794e-07
4	13537	10.01	2.90877e-07
4	13690	10.11	3.3413e-07
4	13843	10.21	3.63618e-07
4	13996	10.31	3.81288e-07
4	14149	10.41	3.88944e-07
4	14302	10.51	3.88249e-07
4	14455	10.61	3.80715e-07
4	14608	10.71	3.67706e-07
4	14761	10.81	3.50439e-07
4	14914	10.91	3.29989e-07
4	15071	11.01	3.07294e-07
4	15224	11.11	2.83164e-07
4	15377	11.21	2.58291e-07
4	15530	11.31	2.33253e-07
4	15683	11.41	2.0853e-07
4	15836	11.51	1.84509e-07
4	15989	11.61	1.61493e-07
4	16142	11.71	1.39716e-07
4	16295	11.81	1.19345e-07
4	16448	11.91	1.00493e-07
4	16605	12.01	8.32259e-08
4	16758	12.11	6.75676e-08
4	16911	12.21	5.35106e-08
4	17064	12.31	4.10193e-08
4	17217	12.41	3.00361e-08
4	17370	12.51	2.04874e-08
4	17523	12.61	1.22867e-08
4	17676	12.71	5.33902e-09
4	17829	12.81	-4.56524e-10
4	17982	12.91	-5.20259e-09
4	18139	13.01	-9.00258e-09
4	18292	13.11	-1.19588e-08
4	18445	13.21	-1.41693e-08
4	18598	13.31	-1.57286e-08
4	18751	13.41	-1.67255e-08
4	18904	13.51	-1.72435e-08
4	19057	13.61	-1.73589e-08
4	19210	13.71	-1.71426e-08
4	19363	13.81	-1.66573e-08
4	19516	13.91	-1.59606e-08
4	19673	14.01	-1.51029e-08
4	19826	14.11	-1.41284e-08
4	19979	14.21	-1.30754e-08
4	20132	14.31	-1.19773e-08
4	20285	14.41	-1.08614e-08
4	20438	14.51	-9.75113e-09
4	20591	14.61	-8.66542e-09
4	20744	14.71	-7.61951e-09
4	20897	14.81	-6.62475e-09
4	21050	14.91	-5.69003e-09
4	21207	15.01	-4.82103e-09
4	21360	15.11	-4.02167e-09
4	21513	15.21	-3.29372e-09
4	21666	15.31	-2.63753e-09
4	21819	15.41	-2.05205e-09
4	21972	15.51	-1.53477e-09
4	22125	15.61	-1.08287e-09
4	22278	15.71	-6.92779e-10
4	22431	15.81	-3.606e-10
4	22584	15.91	-8.13571e-11
4	22741	16.01	1.49214e-10
4	22894	16.11	3.35731e-10
4	23047	16.21	4.82459e-10
4	23200	16.31	5.94369e-10
4	23353	16.41	6.75726e-10
4	23506	16.51	7.30083e-10
4	23659	16.61	7.61702e-10
4	23812	16.71	7.73781e-10
[...]
45	36483	25	0.012494710253
45	38017	26	0.012481652954
45	39551	27	0.012494601293
45	41085	28	0.012494554899
45	42619	29	0.012481513372
45	44153	30	0.01249447631
45	45687	31	0.012494443313
45	47221	32	0.012481414003
45	48755	33	0.01249438802
45	50289	34	0.012494365024
45	51823	35	0.012481344695
45	53357	36	0.012494326753
45	54891	37	0.012494310937
45	56425	38	0.012481297004
45	57959	39	0.012494284747
45	59493	40	0.012494273973
45	61027	41	0.012481264508
45	62561	42	0.012494256197
45	64146	43	0.012630064273
45	65670	44	0.012494242513
45	67194	45	0.012494236908
45	68718	46	0.012481232004
45	70242	47	0.012494227705
45	71766	48	0.012494223944
45	73339	49	0.01263003479
45	74853	50	0.012494217779
45	76367	51	0.012481215262
45	77881	52	0.012494213066
45	79395	53	0.012494211143
45	81120	54	0.013067204318
45	82624	55	0.012494165615
45	84128	56	0.012481062198
45	85632	57	0.012493837997
45	87136	58	0.012493607062
45	88640	59	0.012480421743
45	90144	60	0.012493250994
45	91648	61	0.012493081206
45	93152	62	0.012492906511
45	94656	63	0.012492722766
45	96160	64	0.01247952011
45	97664	65	0.012492283502
45	99168	66	0.012492012663
45	100672	67	0.012491721739
45	102176	68	0.012491420427
45	103680	69	0.012491112876
45	105184	70	0.012490800957
45	106688	71	0.012490485637
45	108192	72	0.01249016753
45	109696	73	0.012489847033
45	111200	74	0.012489524466
45	112704	75	0.012489200081
45	114208	76	0.012488897861
45	115712	77	0.012488570741
45	117216	78	0.012488240894
45	118720	79	0.012487909987
45	120224	80	0.012487578137
45	121728	81	0.012500245431
45	123232	82	0.012486911948
45	124736	83	0.012486577758
45	126240	84	0.012486242932
45	127744	85	0.012498907528
45	129248	86	0.012485571603
45	130752	87	0.012485235199
45	132256	88	0.012497898371
45	133760	89	0.012484561151
45	135264	90	0.012497223582
45	136768	91	0.012483885694
45	138272	92	0.012496547515
45	139776	93	0.012483209081
45	141280	94	0.012495870404
45	142784	95	0.012482531514
45	144288	96	0.012495192429
45	145792	97	0.012481853168
45	147296	98	0.012494513751
45	148800	99	0.012494174182
45	150304	100	0.012480834487
46	1406	2	0
46	2910	3	0
46	4414	4	0
46	5918	5	0
46	7422	6	0
46	8926	7	0
46	10430	8	0
46	11934	9	0
46	13439	10	0
46	15007	11	0
46	16541	12	0
46	18075	13	0
46	19609	14	0
46	21143	15	0
46	22677	16	0
46	24211	17	0
46	25745	18	0
46	27279	19	0
46	28813	20	0
46	30347	21	0
46	31881	22	0
46	33415	23	0
46	34949	24	0
46	36483	25	0
46	38017	26	0
46	39551	27	0
46	41085	28	0
46	42619	29	0
46	44153	30	0
46	45687	31	0
46	47221	32	0
46	48755	33	0
46	50289	34	0
46	51823	35	0
46	53357	36	0
46	54891	37	0
46	56425	38	0
46	57959	39	0
46	59493	40	0
46	61027	41	0
46	62561	42	0
46	64146	43	0
46	65670	44	0
46	67194	45	0
46	68718	46	0
46	70242	47	0
46	71766	48	0
46	73339	49	0
46	74853	50	0
46	76367	51	0
46	77881	52	0
46	79395	53	0
46	81120	54	0
46	82624	55	0
46	84128	56	0
46	85632	57	0
46	87136	58	0
46	88640	59	0
46	90144	60	0
46	91648	61	0
46	93152	62	0
46	94656	63	0
46	96160	64	0
46	97664	65	0
46	99168	66	0
46	100672	67	0
46	102176	68	0
46	103680	69	0
46	105184	70	0
46	106688	71	0
46	108192	72	0
46	109696	73	0
46	111200	74	0
46	112704	75	0
46	114208	76	0
46	115712	77	0
46	117216	78	0
46	118720	79	0
46	120224	80	0
46	121728	81	0
46	123232	82	0
46	124736	83	0
46	126240	84	0
46	127744	85	0
46	129248	86	0
46	130752	87	0
46	132256	88	0
46	133760	89	0
46	135264	90	0
46	136768	91	0
46	138272	92	0
46	139776	93	0
46	141280	94	0
46	142784	95	0
46	144288	96	0
46	145792	97	0
46	147296	98	0
46	148800	99	0
46	150304	100	0
47	1407	2	1
47	2911	3	1
47	4415	4	1
47	5919	5	1
47	7423	6	1
47	8927	7	1
47	10431	8	1
47	11935	9	1
47	13440	10	1
47	15008	11	1
47	16542	12	1
47	18076	13	1
47	19610	14	1
47	21144	15	1
47	22678	16	1
47	24212	17	1
47	25746	18	1
47	27280	19	1
47	28814	20	1
47	30348	21	1
47	31882	22	1
47	33416	23	1
47	34950	24	1
47	36484	25	1
47	38018	26	1
47	39552	27	1
47	41086	28	1
47	42620	29	1
47	44154	30	1
47	45688	31	1
47	47222	32	1
47	48756	33	1
47	50290	34	1
47	51824	35	1
47	53358	36	1
47	54892	37	1
47	56426	38	1
47	57960	39	1
47	59494	40	1
47	61028	41	1
47	62562	42	1
47	64147	43	1
47	65671	44	1
47	67195	45	1
47	68719	46	1
47	70243	47	1
47	71767	48	1
47	73340	49	1
47	74854	50	1
47	76368	51	1
47	77882	52	1
47	79396	53	1
47	81121	54	1
47	82625	55	1
47	84129	56	1
47	85633	57	1
47	87137	58	1
47	88641	59	1
47	90145	60	1
47	91649	61	1
47	93153	62	1
47	94657	63	1
47	96161	64	1
47	97665	65	1
47	99169	66	1
47	100673	67	1
47	102177	68	1
47	103681	69	1
47	105185	70	1
47	106689	71	1
47	108193	72	1
47	109697	73	1
47	111201	74	1
47	112705	75	1
47	114209	76	1
47	115713	77	1
47	117217	78	1
47	118721	79	1
47	120225	80	1
47	121729	81	1
47	123233	82	1
47	124737	83	1
47	126241	84	1
47	127745	85	1
47	129249	86	1
47	130753	87	1
47	132257	88	1
47	133761	89	1
47	135265	90	1
47	136769	91	1
47	138273	92	1
47	139777	93	1
47	141281	94	1
47	142785	95	1
47	144289	96	1
47	145793	97	1
47	147297	98	1
47	148801	99	1
47	150305	100	1
48	1407	2	0.010732979299
48	2911	3	0.012495799223
48	4415	4	0.012482799254
48	5919	5	0.012495799263
48	7423	6	0.01248279928
48	8927	7	0.01249579928
48	10431	8	0.012495799279
48	11935	9	0.012482799268
48	13440	10	0.01249579926
48	15008	11	0.012527717435
48	16542	12	0.01249577809
48	18076	13	0.012495730709
48	19610	14	0.012482660332
48	21144	15	0.012495574425
48	22678	16	0.012482479438
48	24212	17	0.012495380334
48	25746	18	0.012482280808
48	27280	19	0.012495183488
48	28814	20	0.012495090206
48	30348	21	0.012482002129
48	31882	22	0.012494919964
48	33416	23	0.012494844046
48	34950	24	0.012481774454
48	36484	25	0.012494711074
48	38018	26	0.012481653667
48	39552	27	0.01249460191
48	41086	28	0.012494555432
48	42620	29	0.012481513832
48	44154	30	0.012494476706
48	45688	31	0.012494443652
48	47222	32	0.012481414297
48	48756	33	0.012494388271
48	50290	34	0.012494365239
48	51824	35	0.01248134488
48	53358	36	0.012494326911
48	54892	37	0.012494311073
48	56426	38	0.01248129712
48	57960	39	0.012494284846
48	59494	40	0.012494274059
48	61028	41	0.012481264581
48	62562	42	0.012494256259
48	64147	43	0.012631157061
48	65671	44	0.012494242558
48	67195	45	0.012494236948
48	68719	46	0.012481232037
48	70243	47	0.012494227734
48	71767	48	0.012494223969
48	73340	49	0.012598034811
48	74854	50	0.012494217796
48	76368	51	0.012481215278
48	77882	52	0.012494213079
48	79396	53	0.012494211155
48	81121	54	0.012967644307
48	82625	55	0.012494167331
48	84129	56	0.012481067923
48	85633	57	0.012493846168
48	87137	58	0.012493615676
48	88641	59	0.012480430135
48	90145	60	0.012493259128
48	91649	61	0.012493089073
48	93153	62	0.012492913896
48	94657	63	0.012492729037
48	96161	64	0.01247952383
48	97665	65	0.012492283431
48	99169	66	0.012492009786
48	100673	67	0.012491717437
48	102177	68	0.012491415351
48	103681	69	0.012491107299
48	105185	70	0.012490795012
48	106689	71	0.012490479396
48	108193	72	0.012490161042
48	109697	73	0.012489840334
48	111201	74	0.012489517582
48	112705	75	0.012489193032
48	114209	76	0.012488891348
48	115713	77	0.012488563362
48	117217	78	0.012488233407
48	118721	79	0.012487902401
48	120225	80	0.012487570462
48	121729	81	0.012500237677
48	123233	82	0.012486904121
48	124737	83	0.012486569864
48	126241	84	0.012486234979
48	127745	85	0.012498899521
48	129249	86	0.012485563547
48	130753	87	0.012485227098
48	132257	88	0.012497890231
48	133761	89	0.012484552974
48	135265	90	0.012497215372
48	136769	91	0.012483877455
48	138273	92	0.012496539248
48	139777	93	0.012483200791
48	141281	94	0.012495862091
48	142785	95	0.01248252318
48	144289	96	0.012495184078
48	145793	97	0.012481844801
48	147297	98	0.012494505369
48	148801	99	0.012494165786
48	150305	100	0.012480826078
49	1407	2	0
49	2911	3	0
49	4415	4	0
49	5919	5	0
49	7423	6	0
49	8927	7	0
49	10431	8	0
49	11935	9	0
49	13440	10	0
49	15008	11	0
49	16542	12	0
49	18076	13	0
49	19610	14	0
49	21144	15	0
49	22678	16	0
49	24212	17	0
49	25746	18	0
49	27280	19	0
49	28814	20	0
49	30348	21	0
49	31882	22	0
49	33416	23	0
49	34950	24	0
49	36484	25	0
49	38018	26	0
49	39552	27	0
49	41086	28	0
49	42620	29	0
49	44154	30	0
49	45688	31	0
49	47222	32	0
49	48756	33	0
49	50290	34	0
49	51824	35	0
49	53358	36	0
49	54892	37	0
49	56426	38	0
49	57960	39	0
49	59494	40	0
49	61028	41	0
49	62562	42	0
49	64147	43	0
49	65671	44	0
49	67195	45	0
49	68719	46	0
49	70243	47	0
49	71767	48	0
49	73340	49	0
49	74854	50	0
49	76368	51	0
49	77882	52	0
49	79396	53	0
49	81121	54	0
49	82625	55	0
49	84129	56	0
49	85633	57	0
49	87137	58	0
49	88641	59	0
49	90145	60	0
49	91649	61	0
49	93153	62	0
49	94657	63	0
49	96161	64	0
49	97665	65	0
49	99169	66	0
49	100673	67	0
49	102177	68	0
49	103681	69	0
49	105185	70	0
49	106689	71	0
49	108193	72	0
49	109697	73	0
49	111201	74	0
49	112705	75	0
49	114209	76	0
49	115713	77	0
49	117217	78	0
49	118721	79	0
49	120225	80	0
49	121729	81	0
49	123233	82	0
49	124737	83	0
49	126241	84	0
49	127745	85	0
49	129249	86	0
49	130753	87	0
49	132257	88	0
49	133761	89	0
49	135265	90	0
49	136769	91	0
49	138273	92	0
49	139777	93	0
49	141281	94	0
49	142785	95	0
49	144289	96	0
49	145793	97	0
49	147297	98	0
49	148801	99	0
49	150305	100	0
50	1408	2	2
50	2912	3	2
50	4416	4	2
50	5920	5	2
50	7424	6	2
50	8928	7	2
50	10432	8	2
50	11936	9	2
50	13441	10	2
50	15009	11	2
50	16543	12	2
50	18077	13	2
50	19611	14	2
50	21145	15	2
50	22679	16	2
50	24213	17	2
50	25747	18	2
50	27281	19	2
50	28815	20	2
50	30349	21	2
50	31883	22	2
50	33417	23	2
50	34951	24	2
50	36485	25	2
50	38019	26	2
50	39553	27	2
50	41087	28	2
50	42621	29	2
50	44155	30	2
50	45689	31	2
50	47223	32	2
50	48757	33	2
50	50291	34	2
50	51825	35	2
50	53359	36	2
50	54893	37	2
50	56427	38	2
50	57961	39	2
50	59495	40	2
50	61029	41	2
50	62563	42	2
50	64148	43	2
50	65672	44	2
50	67196	45	2
50	68720	46	2
50	70244	47	2
50	71768	48	2
50	73341	49	2
50	74855	50	2
50	76369	51	2
50	77883	52	2
50	79397	53	2
50	81122	54	2
50	82626	55	2
50	84130	56	2
50	85634	57	2
50	87138	58	2
50	88642	59	2
50	90146	60	2
50	91650	61	2
50	93154	62	2
50	94658	63	2
50	96162	64	2
50	97666	65	2
50	99170	66	2
50	100674	67	2
50	102178	68	2
50	103682	69	2
50	105186	70	2
50	106690	71	2
50	108194	72	2
50	109698	73	2
50	111202	74	2
50	112706	75	2
50	114210	76	2
50	115714	77	2
50	117218	78	2
50	118722	79	2
50	120226	80	2
50	121730	81	2
50	123234	82	2
50	124738	83	2
50	126242	84	2
50	127746	85	2
50	129250	86	2
50	130754	87	2
50	132258	88	2
50	133762	89	2
50	135266	90	2
50	136770	91	2
50	138274	92	2
50	139778	93	2
50	141282	94	2
50	142786	95	2
50	144290	96	2
50	145794	97	2
50	147298	98	2
50	148802	99	2
50	150306	100	2
51	1408	2	0.010732999313
51	2912	3	0.012495799222
51	4416	4	0.012482799254
51	5920	5	0.012495799263
51	7424	6	0.01248279928
51	8928	7	0.01249579928
51	10432	8	0.012495799279
51	11936	9	0.012482799268
51	13441	10	0.01249579926
51	15009	11	0.012527717523
51	16543	12	0.012495778573
51	18077	13	0.012495731618
51	19611	14	0.012482661574
51	21145	15	0.012495575899
51	22679	16	0.012482481049
51	24213	17	0.012495382009
51	25747	18	0.012482282485
51	27281	19	0.012495185125
51	28815	20	0.012495091771
51	30349	21	0.012482003603
51	31883	22	0.012494921333
51	33417	23	0.012494845306
51	34951	24	0.012481775603
51	36485	25	0.012494712116
51	38019	26	0.012481654605
51	39553	27	0.012494602751
51	41087	28	0.012494556183
51	42621	29	0.0124815145
51	44155	30	0.012494477298
51	45689	31	0.012494444177
51	47223	32	0.012481414759
51	48757	33	0.012494388679
51	50291	34	0.012494365598
51	51825	35	0.012481345195
51	53359	36	0.012494327188
51	54893	37	0.012494311315
51	56427	38	0.012481297332
51	57961	39	0.012494285032
51	59495	40	0.012494274221
51	61029	41	0.012481264722
51	62563	42	0.012494256383
51	64148	43	0.012598064435
51	65672	44	0.012494242652
51	67196	45	0.012494237029
51	68720	46	0.012481232109
51	70244	47	0.012494227796
51	71768	48	0.012494224023
51	73341	49	0.01263122072
51	74855	50	0.012494217837
51	76369	51	0.012481215313
51	77883	52	0.01249421311
51	79397	53	0.012494211182
51	81122	54	0.012967645613
51	82626	55	0.012494166903
51	84130	56	0.01248106562
51	85634	57	0.012493842161
51	87138	58	0.012493611018
51	88642	59	0.012480425255
51	90146	60	0.01249325411
51	91650	61	0.012493084007
51	93154	62	0.012492909046
51	94658	63	0.012492725065
51	96162	64	0.012479522193
51	97666	65	0.012492285388
51	99170	66	0.012492014371
51	100674	67	0.012491723285
51	102178	68	0.012491421827
51	103682	69	0.012491114143
51	105186	70	0.012490802105
51	106690	71	0.012490486676
51	108194	72	0.012490168471
51	109698	73	0.012489847885
51	111202	74	0.012489525238
51	112706	75	0.012489200779
51	114210	76	0.012488898493
51	115714	77	0.012488571314
51	117218	78	0.012488241413
51	118722	79	0.012487910456
51	120226	80	0.012487578562
51	121730	81	0.012500245816
51	123234	82	0.012486912297
51	124738	83	0.012486578073
51	126242	84	0.012486243218
51	127746	85	0.012498907787
51	129250	86	0.012485571837
51	130754	87	0.012485235411
51	132258	88	0.012497898563
51	133762	89	0.012484561325
51	135266	90	0.012497223739
51	136770	91	0.012483885837
51	138274	92	0.012496547644
51	139778	93	0.012483209198
51	141282	94	0.01249587051
51	142786	95	0.012482531609
51	144290	96	0.012495192516
51	145794	97	0.012481853247
51	147298	98	0.012494513822
51	148802	99	0.012494174246
51	150306	100	0.012480834545
52	1408	2	0
52	2912	3	0
52	4416	4	0
52	5920	5	0
52	7424	6	0
52	8928	7	0
52	10432	8	0
52	11936	9	0
52	13441	10	0
52	15009	11	0
52	16543	12	0
52	18077	13	0
52	19611	14	0
52	21145	15	0
52	22679	16	0
52	24213	17	0
52	25747	18	0
52	27281	19	0
52	28815	20	0
52	30349	21	0
52	31883	22	0
52	33417	23	0
52	34951	24	0
52	36485	25	0
52	38019	26	0
52	39553	27	0
52	41087	28	0
52	42621	29	0
52	44155	30	0
52	45689	31	0
52	47223	32	0
52	48757	33	0
52	50291	34	0
52	51825	35	0
52	53359	36	0
52	54893	37	0
52	56427	38	0
52	57961	39	0
52	59495	40	0
52	61029	41	0
52	62563	42	0
52	64148	43	0
52	65672	44	0
52	67196	45	0
52	68720	46	0
52	70244	47	0
52	71768	48	0
52	73341	49	0
52	74855	50	0
52	76369	51	0
52	77883	52	0
52	79397	53	0
52	81122	54	0
52	82626	55	0
52	84130	56	0
52	85634	57	0
52	87138	58	0
52	88642	59	0
52	90146	60	0
52	91650	61	0
52	93154	62	0
52	94658	63	0
52	96162	64	0
52	97666	65	0
52	99170	66	0
52	100674	67	0
52	102178	68	0
52	103682	69	0
52	105186	70	0
52	106690	71	0
52	108194	72	0
52	109698	73	0
52	111202	74	0
52	112706	75	0
52	114210	76	0
52	115714	77	0
52	117218	78	0
52	118722	79	0
52	120226	80	0
52	121730	81	0
52	123234	82	0
52	124738	83	0
52	126242	84	0
52	127746	85	0
52	129250	86	0
52	130754	87	0
52	132258	88	0
52	133762	89	0
52	135266	90	0
52	136770	91	0
52	138274	92	0
52	139778	93	0
52	141282	94	0
52	142786	95	0
52	144290	96	0
52	145794	97	0
52	147298	98	0
52	148802	99	0
52	150306	100	0
53	1409	2	3
53	2913	3	3
53	4417	4	3
53	5921	5	3
53	7425	6	3
53	8929	7	3
53	10433	8	3
53	11937	9	3
53	13442	10	3
53	15010	11	3
53	16544	12	3
53	18078	13	3
53	19612	14	3
53	21146	15	3
53	22680	16	3
53	24214	17	3
53	25748	18	3
53	27282	19	3
53	28816	20	3
53	30350	21	3
53	31884	22	3
53	33418	23	3
53	34952	24	3
53	36486	25	3
53	38020	26	3
53	39554	27	3
53	41088	28	3
53	42622	29	3
53	44156	30	3
53	45690	31	3
53	47224	32	3
53	48758	33	3
53	50292	34	3
53	51826	35	3
53	53360	36	3
53	54894	37	3
53	56428	38	3
53	57962	39	3
53	59496	40	3
53	61030	41	3
53	62564	42	3
53	64149	43	3
53	65673	44	3
53	67197	45	3
53	68721	46	3
53	70245	47	3
53	71769	48	3
53	73342	49	3
53	74856	50	3
53	76370	51	3
53	77884	52	3
53	79398	53	3
53	81123	54	3
53	82627	55	3
53	84131	56	3
53	85635	57	3
53	87139	58	3
53	88643	59	3
53	90147	60	3
53	91651	61	3
53	93155	62	3
53	94659	63	3
53	96163	64	3
53	97667	65	3
53	99171	66	3
53	100675	67	3
53	102179	68	3
53	103683	69	3
53	105187	70	3
53	106691	71	3
53	108195	72	3
53	109699	73	3
53	111203	74	3
53	112707	75	3
53	114211	76	3
53	115715	77	3
53	117219	78	3
53	118723	79	3
53	120227	80	3
53	121731	81	3
53	123235	82	3
53	124739	83	3
53	126243	84	3
53	127747	85	3
53	129251	86	3
53	130755	87	3
53	132259	88	3
53	133763	89	3
53	135267	90	3
53	136771	91	3
53	138275	92	3
53	139779	93	3
53	141283	94	3
53	142787	95	3
53	144291	96	3
53	145795	97	3
53	147299	98	3
53	148803	99	3
53	150307	100	3
54	1409	2	0.010731979299
54	2913	3	0.012495799223
54	4417	4	0.012482799254
54	5921	5	0.012495799264
54	7425	6	0.01248279928
54	8929	7	0.01249579928
54	10433	8	0.012495799279
54	11937	9	0.012482799268
54	13442	10	0.01249579926
54	15010	11	0.012527717493
54	16544	12	0.012495778336
54	18078	13	0.012495731107
54	19612	14	0.012482660801
54	21146	15	0.012495574905
54	22680	16	0.012482479881
54	24214	17	0.012495380716
54	25748	18	0.012482281111
54	27282	19	0.012495183711
54	28816	20	0.01249509035
54	30350	21	0.012482002204
54	31884	22	0.012494919975
54	33418	23	0.012494844006
54	34952	24	0.012481774372
54	36486	25	0.01249471096
54	38020	26	0.012481653529
54	39554	27	0.012494601756
54	41088	28	0.012494555268
54	42622	29	0.012481513662
54	44156	30	0.012494476536
54	45690	31	0.012494443484
54	47224	32	0.012481414133
54	48758	33	0.012494388114
54	50292	34	0.012494365091
54	51826	35	0.012481344739
54	53360	36	0.01249432678
54	54894	37	0.01249431095
54	56428	38	0.012481297007
54	57962	39	0.012494284743
54	59496	40	0.012494273963
54	61030	41	0.012481264493
54	62564	42	0.01249425618
54	64149	43	0.012598064255
54	65673	44	0.012494242492
54	67197	45	0.012494236888
54	68721	46	0.012481231985
54	70245	47	0.012494227686
54	71769	48	0.012494223925
54	73342	49	0.012598034773
54	74856	50	0.012494217761
54	76370	51	0.012481215247
54	77884	52	0.012494213051
54	79398	53	0.012494211131
54	81123	54	0.013000924662
54	82627	55	0.012494165576
54	84131	56	0.012481061209
54	85635	57	0.012493831574
54	87139	58	0.01249360528
54	88643	59	0.012480420196
54	90147	60	0.012493249016
54	91651	61	0.012493078572
54	93155	62	0.012492903271
54	94659	63	0.012492719014
54	96163	64	0.012479515909
54	97667	65	0.012492278895
54	99171	66	0.012492007687
54	100675	67	0.012491716428
54	102179	68	0.012491414813
54	103683	69	0.012491106986
54	105187	70	0.01249079482
54	106691	71	0.012490479275
54	108195	72	0.012490160965
54	109699	73	0.012489840283
54	111203	74	0.01248951755
54	112707	75	0.012489193013
54	114211	76	0.012488891619
54	115715	77	0.012488563375
54	117219	78	0.012488233419
54	118723	79	0.012487902412
54	120227	80	0.012487570473
54	121731	81	0.012500237686
54	123235	82	0.01248690413
54	124739	83	0.012486569873
54	126243	84	0.012486234987
54	127747	85	0.012498899529
54	129251	86	0.012485563554
54	130755	87	0.012485227105
54	132259	88	0.012497890237
54	133763	89	0.01248455298
54	135267	90	0.012497215378
54	136771	91	0.01248387746
54	138275	92	0.012496539254
54	139779	93	0.012483200795
54	141283	94	0.012495862096
54	142787	95	0.012482523184
54	144291	96	0.012495184083
54	145795	97	0.012481844805
54	147299	98	0.012494505372
54	148803	99	0.01249416579
54	150307	100	0.012480826082
55	1409	2	0
55	2913	3	0
55	4417	4	0
55	5921	5	0
55	7425	6	0
55	8929	7	0
55	10433	8	0
55	11937	9	0
55	13442	10	0
55	15010	11	0
55	16544	12	0
55	18078	13	0
55	19612	14	0
55	21146	15	0
55	22680	16	0
55	24214	17	0
55	25748	18	0
55	27282	19	0
55	28816	20	0
55	30350	21	0
55	31884	22	0
55	33418	23	0
55	34952	24	0
55	36486	25	0
55	38020	26	0
55	39554	27	0
55	41088	28	0
55	42622	29	0
55	44156	30	0
55	45690	31	0
55	47224	32	0
55	48758	33	0
55	50292	34	0
55	51826	35	0
55	53360	36	0
55	54894	37	0
55	56428	38	0
55	57962	39	0
55	59496	40	0
55	61030	41	0
55	62564	42	0
55	64149	43	0
55	65673	44	0
55	67197	45	0
55	68721	46	0
55	70245	47	0
55	71769	48	0
55	73342	49	0
55	74856	50	0
55	76370	51	0
55	77884	52	0
55	79398	53	0
55	81123	54	0
55	82627	55	0
55	84131	56	0
55	85635	57	0
55	87139	58	0
55	88643	59	0
55	90147	60	0
55	91651	61	0
55	93155	62	0
55	94659	63	0
55	96163	64	0
55	97667	65	0
55	99171	66	0
55	100675	67	0
55	102179	68	0
55	103683	69	0
55	105187	70	0
55	106691	71	0
55	108195	72	0
55	109699	73	0
55	111203	74	0
55	112707	75	0
55	114211	76	0
55	115715	77	0
55	117219	78	0
55	118723	79	0
55	120227	80	0
55	121731	81	0
55	123235	82	0
55	124739	83	0
55	126243	84	0
55	127747	85	0
55	129251	86	0
55	130755	87	0
55	132259	88	0
55	133763	89	0
55	135267	90	0
55	136771	91	0
55	138275	92	0
55	139779	93	0
55	141283	94	0
55	142787	95	0
55	144291	96	0
55	145795	97	0
55	147299	98	0
55	148803	99	0
55	150307	100	0

