file 2793902 1720705207                                         
version 3
run BreakRanksNoGui-402-20240711-15:39:54-295547
attr configname BreakRanksNoGui
attr datetime 20240711-15:39:54
attr datetimef 20240711-153954
attr experiment BreakRanksNoGui
attr inifile omnetpp.ini
attr iterationvars "$nCars=9, $platoonSize=9, $nLanes=1, $ploegH=0.5, $controller=1, $headway=0.1, $leaderHeadway=1.2, $leaderSpeed=130, $breakRanksSafetyDistance=15, $minSpeed=120, $maxSpeed=140, $beaconInterval=0.1, $priority=4, $packetSize=200, $sController=\"CACC\", $0=2, $1=0"
attr iterationvarsd nCars=9/platoonSize=9/nLanes=1/ploegH=0.5/controller=1/headway=0.1/leaderHeadway=1.2/leaderSpeed=130/breakRanksSafetyDistance=15/minSpeed=120/maxSpeed=140/beaconInterval=0.1/priority=4/packetSize=200/sController=CACC/2/0
attr iterationvarsf nCars=9,platoonSize=9,nLanes=1,ploegH=0.5,controller=1,headway=0.1,leaderHeadway=1.2,leaderSpeed=130,breakRanksSafetyDistance=15,minSpeed=120,maxSpeed=140,beaconInterval=0.1,priority=4,packetSize=200,sController=CACC,2,0-
attr measurement "$nCars=9, $platoonSize=9, $nLanes=1, $ploegH=0.5, $controller=1, $headway=0.1, $leaderHeadway=1.2, $leaderSpeed=130, $breakRanksSafetyDistance=15, $minSpeed=120, $maxSpeed=140, $beaconInterval=0.1, $priority=4, $packetSize=200, $sController=\"CACC\", $0=2, $1=0"
attr network Highway
attr processid 295547
attr repetition 2
attr replication #2
attr resultdir results
attr runnumber 402
attr seedset 2
itervar beaconInterval 0.1
itervar breakRanksSafetyDistance 15
itervar controller 1
itervar headway 0.1
itervar leaderHeadway 1.2
itervar leaderSpeed 130
itervar maxSpeed 140
itervar minSpeed 120
itervar nCars 9
itervar nLanes 1
itervar packetSize 200
itervar platoonSize 9
itervar ploegH 0.5
itervar priority 4
itervar sController "\"CACC\""
config image-path ../../../veins/images
config repeat 10
config extends BreakRanks
config *.manager.command "\"sumo\""
config *.manager.ignoreGuiCommands true
config output-vector-file "results/BreakRanks_1_0.1_130_15_9 /result_2.vec"
config output-scalar-file "results/BreakRanks_1_0.1_130_15_9 /result_2.sca"
config extends Platooning
config *.node[*].scenario_type "\"BreakRanksScenario\""
config *.manager.command "\"sumo-gui\""
config *.node[*].scenario_type "\"SimpleScenario\""
config cmdenv-express-mode true
config cmdenv-autoflush true
config cmdenv-status-frequency 15s
config num-rngs 6
config network Highway
config debug-on-errors true
config print-undisposed true
config *.playgroundSizeX 65000m
config *.playgroundSizeY 25000m
config *.playgroundSizeZ 50m
config sim-time-limit "100 s"
config *.annotations.draw false
config *.obstacles.debug false
config *.world.useTorus false
config *.world.use2D false
config *.manager.updateInterval 0.01s
config *.manager.host "\"localhost\""
config *.manager.moduleType "\"org.car2x.plexe.PlatoonCar\""
config *.manager.moduleName "\"node\""
config *.manager.moduleDisplayString "\"\""
config *.manager.autoShutdown true
config *.manager.margin 25
config *.connectionManager.sendDirect true
config *.connectionManager.maxInterfDist 2600m
config *.connectionManager.drawMaxIntfDist false
config *.**.nic.mac1609_4.useServiceChannel false
config *.**.nic.mac1609_4.txPower 100mW
config *.**.nic.mac1609_4.bitrate 6Mbps
config *.**.nic.mac1609_4.useAcks true
config *.**.nic.mac1609_4.ackErrorRate 0.0
config *.**.nic.mac1609_4.frameErrorRate 0.0
config *.**.nic.phy80211p.minPowerLevel -94dBm
config *.**.nic.phy80211p.maxTXPower 100mW
config *.**.nic.phy80211p.useNoiseFloor true
config *.**.nic.phy80211p.noiseFloor -95dBm
config *.**.nic.phy80211p.decider "xmldoc(\"config.xml\")"
config *.**.nic.phy80211p.analogueModels "xmldoc(\"config.xml\")"
config *.**.nic.phy80211p.usePropagationDelay true
config *.node[*].mobility.x 0
config *.node[*].mobility.y 0
config *.node[*].mobility.z 1.895
config seed-set 2
config **.seed 2
config *.node[*].prot.rng-0 2
config *.node[*].appl.rng-0 3
config *.node[*].scenario.rng-0 4
config **.traffic.rng-0 5
config *.manager.configFile "\"./sumocfg/freeway.sumo.cfg\""
config *.manager.launchConfig "xmldoc(\"./sumocfg/freeway.launchd.xml\")"
config **.numberOfCars 9
config **.numberOfCarsPerPlatoon 9
config **.numberOfLanes 1
config *.node[*].helper_type "\"PositionHelper\""
config *.node[*].scenario.caccC1 0.5
config *.node[*].scenario.caccXi 1
config *.node[*].scenario.caccOmegaN "0.2 Hz"
config *.node[*].scenario.caccSpacing "2 m"
config *.node[*].scenario.engineTau "0.5 s"
config *.node[*].scenario.ploegH 0.5s
config *.node[*].scenario.ploegKp 0.2
config *.node[*].scenario.ploegKd 0.7
config *.node[*].scenario.useRealisticEngine false
config *.node[*].scenario.useControllerAcceleration true
config *.node[*].scenario.nLanes 1
config **.numericController 1
config **.headway 0.1s
config *.node[*].scenario.accHeadway 0.1s
config *.node[*].scenario.leaderHeadway 1.2s
config *.node[*].scenario.leaderSpeed 130kmph
config *.node[*].appl_type "\"SimplePlatooningApp\""
config *.node[*].appl.*.scalar-recording true
config *.node[*].appl.*.vector-recording true
config *.node[0].appl.breakRanksSafetyDistance 15m
config *.node[*].appl.minSpeed 120kmph
config *.node[*].appl.maxSpeed 140kmph
config *.node[*].protocol_type "\"SimplePlatooningBeaconing\""
config *.node[*].prot.*.scalar-recording true
config *.node[*].prot.*.vector-recording true
config *.node[*].prot.beaconingInterval 0.1s
config *.node[*].prot.priority 4
config *.node[*].prot.packetSize 200
config **.traffic_type "\"PlatoonsTrafficManager\""
config **.traffic.platoonInsertTime "1 s"
config **.traffic.platoonInsertSpeed 130kmph
config **.traffic.nCars 9
config **.traffic.platoonSize 9
config **.traffic.nLanes 1
config **.traffic.platooningVType "\"vtypeauto\""
config **.traffic.controller "\"CACC\""
config **.traffic.platoonInsertDistance 2m
config **.traffic.platoonInsertHeadway 0s
config **.traffic.platoonLeaderHeadway 1.2s
config **.scalar-recording false
config **.vector-recording false

vector 0 Highway.node[0].appl distance ETV
vector 1 Highway.node[0].appl relativeSpeed ETV
vector 2 Highway.node[0].appl nodeId ETV
vector 3 Highway.node[0].appl acceleration ETV
vector 4 Highway.node[0].appl controllerAcceleration ETV
vector 5 Highway.node[0].appl speed ETV
vector 6 Highway.node[0].appl posx ETV
vector 7 Highway.node[0].appl posy ETV
vector 8 Highway.node[1].appl distance ETV
vector 9 Highway.node[1].appl relativeSpeed ETV
vector 10 Highway.node[1].appl nodeId ETV
vector 11 Highway.node[1].appl acceleration ETV
vector 12 Highway.node[1].appl controllerAcceleration ETV
vector 13 Highway.node[1].appl speed ETV
vector 14 Highway.node[1].appl posx ETV
vector 15 Highway.node[1].appl posy ETV
vector 16 Highway.node[2].appl distance ETV
vector 17 Highway.node[2].appl relativeSpeed ETV
vector 18 Highway.node[2].appl nodeId ETV
vector 19 Highway.node[2].appl acceleration ETV
vector 20 Highway.node[2].appl controllerAcceleration ETV
vector 21 Highway.node[2].appl speed ETV
vector 22 Highway.node[2].appl posx ETV
vector 23 Highway.node[2].appl posy ETV
vector 24 Highway.node[3].appl distance ETV
vector 25 Highway.node[3].appl relativeSpeed ETV
vector 26 Highway.node[3].appl nodeId ETV
vector 27 Highway.node[3].appl acceleration ETV
vector 28 Highway.node[3].appl controllerAcceleration ETV
vector 29 Highway.node[3].appl speed ETV
vector 30 Highway.node[3].appl posx ETV
vector 31 Highway.node[3].appl posy ETV
vector 32 Highway.node[4].appl distance ETV
vector 33 Highway.node[4].appl relativeSpeed ETV
vector 34 Highway.node[4].appl nodeId ETV
vector 35 Highway.node[4].appl acceleration ETV
vector 36 Highway.node[4].appl controllerAcceleration ETV
vector 37 Highway.node[4].appl speed ETV
vector 38 Highway.node[4].appl posx ETV
vector 39 Highway.node[4].appl posy ETV
vector 40 Highway.node[5].appl distance ETV
vector 41 Highway.node[5].appl relativeSpeed ETV
vector 42 Highway.node[5].appl nodeId ETV
vector 43 Highway.node[5].appl acceleration ETV
vector 44 Highway.node[5].appl controllerAcceleration ETV
vector 45 Highway.node[5].appl speed ETV
vector 46 Highway.node[5].appl posx ETV
vector 47 Highway.node[5].appl posy ETV
vector 48 Highway.node[6].appl distance ETV
vector 49 Highway.node[6].appl relativeSpeed ETV
vector 50 Highway.node[6].appl nodeId ETV
vector 51 Highway.node[6].appl acceleration ETV
vector 52 Highway.node[6].appl controllerAcceleration ETV
vector 53 Highway.node[6].appl speed ETV
vector 54 Highway.node[6].appl posx ETV
vector 55 Highway.node[6].appl posy ETV
vector 56 Highway.node[7].appl distance ETV
vector 57 Highway.node[7].appl relativeSpeed ETV
vector 58 Highway.node[7].appl nodeId ETV
vector 59 Highway.node[7].appl acceleration ETV
vector 60 Highway.node[7].appl controllerAcceleration ETV
vector 61 Highway.node[7].appl speed ETV
vector 62 Highway.node[7].appl posx ETV
vector 63 Highway.node[7].appl posy ETV
vector 64 Highway.node[8].appl distance ETV
vector 65 Highway.node[8].appl relativeSpeed ETV
vector 66 Highway.node[8].appl nodeId ETV
vector 67 Highway.node[8].appl acceleration ETV
vector 68 Highway.node[8].appl controllerAcceleration ETV
vector 69 Highway.node[8].appl speed ETV
vector 70 Highway.node[8].appl posx ETV
vector 71 Highway.node[8].appl posy ETV
vector 72 Highway.node[7].prot frontDelay ETV
vector 73 Highway.node[7].prot frontDelayId ETV
vector 74 Highway.node[8].prot frontDelay ETV
vector 75 Highway.node[8].prot frontDelayId ETV
vector 76 Highway.node[6].prot frontDelay ETV
vector 77 Highway.node[6].prot frontDelayId ETV
vector 78 Highway.node[1].prot leaderDelay ETV
vector 79 Highway.node[1].prot leaderDelayId ETV
vector 80 Highway.node[1].prot frontDelay ETV
vector 81 Highway.node[1].prot frontDelayId ETV
vector 82 Highway.node[2].prot leaderDelay ETV
vector 83 Highway.node[2].prot leaderDelayId ETV
vector 84 Highway.node[3].prot leaderDelay ETV
vector 85 Highway.node[3].prot leaderDelayId ETV
vector 86 Highway.node[4].prot leaderDelay ETV
vector 87 Highway.node[4].prot leaderDelayId ETV
vector 88 Highway.node[5].prot leaderDelay ETV
vector 89 Highway.node[5].prot leaderDelayId ETV
vector 90 Highway.node[6].prot leaderDelay ETV
vector 91 Highway.node[6].prot leaderDelayId ETV
vector 92 Highway.node[7].prot leaderDelay ETV
vector 93 Highway.node[7].prot leaderDelayId ETV
vector 94 Highway.node[8].prot leaderDelay ETV
vector 95 Highway.node[8].prot leaderDelayId ETV
vector 96 Highway.node[4].prot frontDelay ETV
vector 97 Highway.node[4].prot frontDelayId ETV
vector 98 Highway.node[3].prot frontDelay ETV
vector 99 Highway.node[3].prot frontDelayId ETV
vector 100 Highway.node[5].prot frontDelay ETV
vector 101 Highway.node[5].prot frontDelayId ETV
vector 102 Highway.node[2].prot frontDelay ETV
vector 103 Highway.node[2].prot frontDelayId ETV
vector 104 Highway.node[0].prot nodeId ETV
vector 105 Highway.node[0].prot busyTime ETV
vector 106 Highway.node[0].prot collisions ETV
vector 107 Highway.node[1].prot nodeId ETV
vector 108 Highway.node[1].prot busyTime ETV
vector 109 Highway.node[1].prot collisions ETV
vector 110 Highway.node[2].prot nodeId ETV
vector 111 Highway.node[2].prot busyTime ETV
vector 112 Highway.node[2].prot collisions ETV
vector 113 Highway.node[3].prot nodeId ETV
vector 114 Highway.node[3].prot busyTime ETV
vector 115 Highway.node[3].prot collisions ETV
vector 116 Highway.node[4].prot nodeId ETV
vector 117 Highway.node[4].prot busyTime ETV
vector 118 Highway.node[4].prot collisions ETV
vector 119 Highway.node[5].prot nodeId ETV
vector 120 Highway.node[5].prot busyTime ETV
vector 121 Highway.node[5].prot collisions ETV
vector 122 Highway.node[6].prot nodeId ETV
vector 123 Highway.node[6].prot busyTime ETV
vector 124 Highway.node[6].prot collisions ETV
vector 125 Highway.node[7].prot nodeId ETV
vector 126 Highway.node[7].prot busyTime ETV
vector 127 Highway.node[7].prot collisions ETV
vector 128 Highway.node[8].prot nodeId ETV
vector 129 Highway.node[8].prot busyTime ETV
vector 130 Highway.node[8].prot collisions ETV
0	11904 17551 113 683845 1.11 99.91 989 -1 -1 -989 989
1	29455 16562 113 683845 1.11 99.91 989 0 0 0 0
2	46017 16562 113 683845 1.11 99.91 989 0 0 0 0
3	62579 18850 113 683845 1.11 99.91 989 -3.14892e-05 0.000707784 0.010991577126781 6.0508064149601e-06
4	81429 26508 113 683845 1.11 99.91 989 -4.89399e-05 0.00109259 0.010614843047836 8.6815283230331e-06
5	107937 22489 113 683845 1.11 99.91 989 36.11 36.1111 35713.866699999 1289666.6073546
6	130426 22413 113 683845 1.11 99.91 989 61.1399 3628.92 1824731.9129 4417887664.1889
7	152839 21507 113 683845 1.11 99.91 989 242.45 242.45 239783.05 58135400.472499
8	174346 21446 114 683846 1.11 99.91 989 -1 14.9996 9300.2105 131424.50943102
9	195792 23306 114 683846 1.11 99.91 989 -1.82116e-05 1.03507 129.99569192643 88.991589095619
10	219098 17551 114 683846 1.11 99.91 989 1 1 989 989
11	236649 26696 114 683846 1.11 99.91 989 -0.393657 0.0836412 -1.0687296352606 3.6263558421058
12	263345 26732 114 683846 1.11 99.91 989 -0.518252 0.0843286 -0.57451666674556 4.2206481706701
13	290077 22758 114 683846 1.11 99.91 989 35.076 36.1111 35563.3484 1278887.0884701
14	312835 23393 114 683846 1.11 99.91 989 55.1399 3607.87 1808214.3427 4349765752.4507
15	336228 22496 114 683846 1.11 99.91 989 242.45 245.75 240416.65 58444723.9925
16	358724 23337 115 683847 1.11 99.91 989 2 72.1346 19156.2752 670262.73675481
17	382061 25196 115 683847 1.11 99.91 989 0 2.1978 512.40538013965 867.0410136168
18	407257 17551 115 683847 1.11 99.91 989 2 2 1978 3956
19	424808 26350 115 683847 1.11 99.91 989 -1.2546 0.129508 -21.058047594391 30.068535527968
20	451158 26372 115 683847 1.11 99.91 989 -1.5 0.130368 -20.09342053539 37.759837418428
21	477530 22955 115 683847 1.11 99.91 989 33.9133 36.1111 35071.4657 1244381.8962017
22	500485 23391 115 683847 1.11 99.91 989 49.1399 3552.78 1788939.3812 4262083992.9478
23	523876 22496 115 683847 1.11 99.91 989 242.45 242.45 239783.05 58135400.472499
24	546372 23343 116 683848 1.11 99.91 989 2 37.7866 14237.55099 280231.12604271
25	569715 25213 116 683848 1.11 99.91 989 -3.15888e-07 2.28701 358.11442430899 398.08458101282
26	594928 17551 116 683848 1.11 99.91 989 3 3 2967 8901
27	612479 25820 116 683848 1.11 99.91 989 -1.90958 0.278646 -26.00765635908 83.566045298737
28	638299 25849 116 683848 1.11 99.91 989 -2.51966 0.309111 -24.439358585271 100.51238720829
29	664148 23357 116 683848 1.11 99.91 989 31.6524 36.1111 34713.3526 1220128.1750027
30	687505 23347 116 683848 1.11 99.91 989 43.1399 3510.99 1770745.8315 4181092490.7957
31	710852 22496 116 683848 1.11 99.91 989 242.45 242.45 239783.05 58135400.472499
32	733348 22387 117 683849 1.11 99.91 989 -1 14.9906 8324.89842 111689.16864773
33	755735 23863 117 683849 1.11 99.91 989 -1.21792e-06 0.606128 129.9061869461 54.152387661044
34	779598 17551 117 683849 1.11 99.91 989 4 4 3956 15824
35	797149 26205 117 683849 1.11 99.91 989 -0.800164 0.167357 -1.0687379745929 20.050211856646
36	823354 26232 117 683849 1.11 99.91 989 -0.967008 0.167875 -0.57508754077343 22.198054274852
37	849586 22800 117 683849 1.11 99.91 989 33.1877 36.1111 35173.4812 1251670.6699242
38	872386 23386 117 683849 1.11 99.91 989 37.1399 3550.88 1761186.4671 4156372085.5609
39	895772 22496 117 683849 1.11 99.91 989 242.45 249.05 241050.25 58758229.2725
40	918268 23154 118 683850 1.11 99.91 989 1.99998 71.9964 22014.17041 1100279.261417
41	941422 25757 118 683850 1.11 99.91 989 -0.00084287 0.546059 130.10225601075 48.885011984279
42	967179 17551 118 683850 1.11 99.91 989 5 5 4945 24725
43	984730 26091 118 683850 1.11 99.91 989 -0.833755 0.172303 -1.0562722570729 23.501200256265
44	1010821 26134 118 683850 1.11 99.91 989 -0.999056 0.172658 -0.32420051733156 25.827035109005
45	1036955 22784 118 683850 1.11 99.91 989 32.7955 36.1111 35043.3979 1242715.6992145
46	1059739 23418 118 683850 1.11 99.91 989 31.1399 3531.87 1746157.3127 4094347799.5236
47	1083157 22496 118 683850 1.11 99.91 989 242.45 245.75 240416.65 58444723.9925
48	1105653 23310 119 683851 1.11 99.91 989 1.99997 52.9371 16743.88346 510244.61246852
49	1128963 25271 119 683851 1.11 99.91 989 -2.15146 0.497262 37.537320218525 154.76182355401
50	1154234 17551 119 683851 1.11 99.91 989 6 6 5934 35604
51	1171785 25556 119 683851 1.11 99.91 989 -1.13102 0.23077 -25.040347144735 58.509431545675
52	1197341 25543 119 683851 1.11 99.91 989 -1.2326 0.257306 -23.607869133813 64.597714365822
53	1222884 23354 119 683851 1.11 99.91 989 32.3082 36.1111 34416.0985 1199430.5433787
54	1246238 23380 119 683851 1.11 99.91 989 25.1399 3463.26 1726961.7726 4004085886.0674
55	1269618 22496 119 683851 1.11 99.91 989 242.45 242.45 239783.05 58135400.472499
56	1292114 23258 120 683852 1.11 99.91 989 1.99998 52.8862 16951.6376 553789.46451173
57	1315372 25239 120 683852 1.11 99.91 989 -0.676801 0.45961 65.12546187731 68.519568671866
58	1340611 17551 120 683852 1.11 99.91 989 7 7 6923 48461
59	1358162 25673 120 683852 1.11 99.91 989 -0.86373 0.396686 0.17638402943898 29.780017413303
60	1383835 25713 120 683852 1.11 99.91 989 -1.00732 0.637949 0.35102848074602 33.103709370183
61	1409548 23371 120 683852 1.11 99.91 989 32.214 36.672 34848.8956 1229661.2797745
62	1432919 23365 120 683852 1.11 99.91 989 19.1399 3500.42 1717840.7315 3979198719.033
63	1456284 22496 120 683852 1.11 99.91 989 242.45 249.05 241050.25 58758229.2725
64	1478780 23172 121 683853 1.11 99.91 989 1.99999 93.7227 18383.93242 854043.39149718
65	1501952 24822 121 683853 1.11 99.91 989 -0.343212 4.40583 453.84911643166 834.95345386838
66	1526774 17551 121 683853 1.11 99.91 989 8 8 7912 63296
67	1544325 25657 121 683853 1.11 99.91 989 -1.24589 1.18525 -21.049280687802 79.179823558551
68	1569982 25593 121 683853 1.11 99.91 989 -1.5 1.5 -19.63013699442 100.72155304403
69	1595575 23212 121 683853 1.11 99.91 989 31.9998 36.1111 34245.1702 1187634.0765892
70	1618787 23367 121 683853 1.11 99.91 989 13.1399 3434.15 1699096.7058 3890722286.7526
71	1642154 22496 121 683853 1.11 99.91 989 242.45 249.05 240400.15 58437757.6925
72	1664650 40019 844 683891 1.212116500348 99.912120687949 988 0.099990568443 0.100009224284 98.799998667935 9.879999772244
73	1704669 27292 844 683891 1.212116500348 99.912120687949 988 7 7 6916 48412
74	1731961 40029 919 683990 1.226072520362 99.926076909404 988 0.099990624424 0.100009224992 98.800011869376 9.8800024125545
75	1771990 27300 919 683990 1.226072520362 99.926076909404 988 8 8 7904 63232
76	1799290 40053 1069 684134 1.247575600418 99.947580465082 988 0.099990605845 0.100010520367 98.799999344998 9.8799999071968
77	1839343 27306 1069 684134 1.247575600418 99.947580465082 988 6 6 5928 35568
78	1866649 40051 1139 684186 1.262194700487 99.96219963062 988 0.099990605869 0.100010520367 98.799999410467 9.8799999202932
79	1906700 27313 1139 684186 1.262194700487 99.96219963062 988 1 1 988 988
80	1934013 40051 1139 684186 1.262194700487 99.96219963062 988 0.099990605869 0.100010520367 98.799999410467 9.8799999202932
81	1974064 27313 1139 684186 1.262194700487 99.96219963062 988 1 1 988 988
82	2001377 40058 1145 684192 1.262194720501 99.962199813917 988 0.099990605873 0.100010520367 98.79999957375 9.8799999529498
83	2041435 27300 1145 684192 1.262194720501 99.962199813917 988 2 2 1976 3952
84	2068735 40053 1151 684210 1.262194740515 99.962199953402 988 0.099990605883 0.100010520367 98.799999693221 9.879999976844
85	2108788 27298 1151 684210 1.262194740515 99.962199953402 988 3 3 2964 8892
86	2136086 40076 1157 684198 1.262194760528 99.962199820779 988 0.099990605897 0.100010520367 98.799999540585 9.8799999463168
87	2176162 27328 1157 684198 1.262194760528 99.962199820779 988 4 4 3952 15808
88	2203490 40038 1163 684204 1.262194780542 99.962199883442 988 0.09999060592 0.100010520367 98.799999583234 9.8799999548466
89	2243528 27298 1163 684204 1.262194780542 99.962199883442 988 5 5 4940 24700
90	2270826 40051 1169 684222 1.262194800556 99.962200112593 988 0.099990605953 0.100010520367 98.799999792371 9.879999996674
91	2310877 27308 1169 684222 1.262194800556 99.962200112593 988 6 6 5928 35568
92	2338185 40053 1175 684216 1.26219482057 99.962199988723 988 0.099990605995 0.100010520368 98.799999648487 9.8799999678972
93	2378238 27307 1175 684216 1.26219482057 99.962199988723 988 7 7 6916 48412
94	2405545 40079 1181 684228 1.262194840584 99.962200209716 988 0.099990606049 0.100010520367 98.799999849466 9.880000008093
95	2445624 27314 1181 684228 1.262194840584 99.962200209716 988 8 8 7904 63232
96	2472938 40026 1220 684273 1.276566760529 99.976572088838 988 0.099990568909 0.100009227389 98.799999808643 9.8800000000089
97	2512964 27298 1220 684273 1.276566760529 99.976572088838 988 4 4 3952 15808
98	2540262 40074 1295 684348 1.287857780543 99.98786323242 988 0.099990605901 0.100010520367 98.799999932211 9.8800000246431
99	2580336 27323 1295 684348 1.287857780543 99.98786323242 988 3 3 2964 8892
100	2607659 41033 1370 684417 1.297497820571 99.997490180023 988 0.099990605939 0.100010520367 98.799999839786 9.8800000061512
101	2648692 28305 1370 684417 1.297497820571 99.997490180023 988 5 5 4940 24700
102	2676997 40992 1445 683807 1.302587880613 99.902584263604 987 0.099990605509 0.100010520367 98.699990863325 9.8699982108019
103	2717989 28260 1445 683807 1.302587880613 99.902584263604 987 2 2 1974 3948
104	2746249 1562 6203 684455 2 100 99 0 0 0 0
105	2747811 2172 6203 684455 2 100 99 0.024969 0.029398559894 2.780154559894 0.078084921797841
106	2749983 1562 6203 684455 2 100 99 0 0 0 0
107	2751545 1562 6204 684456 2 100 99 1 1 99 99
108	2753107 2170 6204 684456 2 100 99 0.024968 0.02913 2.77969312609 0.078058325037318
109	2755277 1562 6204 684456 2 100 99 0 0 0 0
110	2756839 1562 6205 684457 2 100 99 2 2 198 396
111	2758401 2171 6205 684457 2 100 99 0.024969 0.02913 2.779694252584 0.078058382117482
112	2760572 1562 6205 684457 2 100 99 0 0 0 0
113	2762134 1562 6206 684458 2 100 99 3 3 297 891
114	2763696 2171 6206 684458 2 100 99 0.024969 0.02913 2.779694379184 0.078058389266664
115	2765867 1562 6206 684458 2 100 99 0 0 0 0
116	2767429 1562 6207 684459 2 100 99 4 4 396 1584
117	2768991 2170 6207 684459 2 100 99 0.024969 0.02913 2.77969450582 0.078058396417911
118	2771161 1562 6207 684459 2 100 99 0 0 0 0
119	2772723 1562 6208 684460 2 100 99 5 5 495 2475
120	2774285 2171 6208 684460 2 100 99 0.024969 0.02913 2.779694632474 0.078058403570207
121	2776456 1562 6208 684460 2 100 99 0 0 0 0
122	2778018 1562 6209 684461 2 100 99 6 6 594 3564
123	2779580 2170 6209 684461 2 100 99 0.024969 0.02913 2.77969475914 0.078058410723212
124	2781750 1562 6209 684461 2 100 99 0 0 0 0
125	2783312 1562 6210 684462 2 100 99 7 7 693 4851
126	2784874 2171 6210 684462 2 100 99 0.024969 0.02913 2.779694885822 0.078058417877153
127	2787045 1562 6210 684462 2 100 99 0 0 0 0
128	2788607 1562 6211 684463 2 100 99 8 8 792 6336
129	2790169 2170 6211 684463 2 100 99 0.024969 0.0291640125 2.7796950125 0.0780584881581
130	2792339 1562 6211 684463 2 100 99 0 0 0 0

