version 3
run BreakRanksNoGui-565-20240711-14:12:41-290330
attr configname BreakRanksNoGui
attr datetime 20240711-14:12:41
attr datetimef 20240711-141241
attr experiment BreakRanksNoGui
attr inifile omnetpp.ini
attr iterationvars "$nCars=9, $platoonSize=8, $nLanes=1, $ploegH=0.5, $controller=1, $headway=0.1, $leaderHeadway=1.2, $leaderSpeed=130, $breakRanksSafetyDistance=2, $minSpeed=120, $maxSpeed=140, $beaconInterval=0.1, $priority=4, $packetSize=200, $sController=\"CACC\", $0=2, $1=0"
attr iterationvarsd nCars=9/platoonSize=8/nLanes=1/ploegH=0.5/controller=1/headway=0.1/leaderHeadway=1.2/leaderSpeed=130/breakRanksSafetyDistance=2/minSpeed=120/maxSpeed=140/beaconInterval=0.1/priority=4/packetSize=200/sController=CACC/2/0
attr iterationvarsf nCars=9,platoonSize=8,nLanes=1,ploegH=0.5,controller=1,headway=0.1,leaderHeadway=1.2,leaderSpeed=130,breakRanksSafetyDistance=2,minSpeed=120,maxSpeed=140,beaconInterval=0.1,priority=4,packetSize=200,sController=CACC,2,0-
attr measurement "$nCars=9, $platoonSize=8, $nLanes=1, $ploegH=0.5, $controller=1, $headway=0.1, $leaderHeadway=1.2, $leaderSpeed=130, $breakRanksSafetyDistance=2, $minSpeed=120, $maxSpeed=140, $beaconInterval=0.1, $priority=4, $packetSize=200, $sController=\"CACC\", $0=2, $1=0"
attr network Highway
attr processid 290330
attr repetition 5
attr replication #5
attr resultdir results
attr runnumber 565
attr seedset 5
itervar beaconInterval 0.1
itervar breakRanksSafetyDistance 2
itervar controller 1
itervar headway 0.1
itervar leaderHeadway 1.2
itervar leaderSpeed 130
itervar maxSpeed 140
itervar minSpeed 120
itervar nCars 9
itervar nLanes 1
itervar packetSize 200
itervar platoonSize 8
itervar ploegH 0.5
itervar priority 4
itervar sController "\"CACC\""
config image-path ../../../veins/images
config repeat 10
config extends BreakRanks
config *.manager.command "\"sumo\""
config *.manager.ignoreGuiCommands true
config output-vector-file "results/BreakRanks_1_0.1_130_2_8 /result_5.vec"
config output-scalar-file "results/BreakRanks_1_0.1_130_2_8 /result_5.sca"
config extends Platooning
config *.node[*].scenario_type "\"BreakRanksScenario\""
config *.manager.command "\"sumo-gui\""
config *.node[*].scenario_type "\"SimpleScenario\""
config cmdenv-express-mode true
config cmdenv-autoflush true
config cmdenv-status-frequency 15s
config num-rngs 6
config network Highway
config debug-on-errors true
config print-undisposed true
config *.playgroundSizeX 65000m
config *.playgroundSizeY 25000m
config *.playgroundSizeZ 50m
config sim-time-limit "100 s"
config *.annotations.draw false
config *.obstacles.debug false
config *.world.useTorus false
config *.world.use2D false
config *.manager.updateInterval 0.01s
config *.manager.host "\"localhost\""
config *.manager.moduleType "\"org.car2x.plexe.PlatoonCar\""
config *.manager.moduleName "\"node\""
config *.manager.moduleDisplayString "\"\""
config *.manager.autoShutdown true
config *.manager.margin 25
config *.connectionManager.sendDirect true
config *.connectionManager.maxInterfDist 2600m
config *.connectionManager.drawMaxIntfDist false
config *.**.nic.mac1609_4.useServiceChannel false
config *.**.nic.mac1609_4.txPower 100mW
config *.**.nic.mac1609_4.bitrate 6Mbps
config *.**.nic.mac1609_4.useAcks true
config *.**.nic.mac1609_4.ackErrorRate 0.0
config *.**.nic.mac1609_4.frameErrorRate 0.0
config *.**.nic.phy80211p.minPowerLevel -94dBm
config *.**.nic.phy80211p.maxTXPower 100mW
config *.**.nic.phy80211p.useNoiseFloor true
config *.**.nic.phy80211p.noiseFloor -95dBm
config *.**.nic.phy80211p.decider "xmldoc(\"config.xml\")"
config *.**.nic.phy80211p.analogueModels "xmldoc(\"config.xml\")"
config *.**.nic.phy80211p.usePropagationDelay true
config *.node[*].mobility.x 0
config *.node[*].mobility.y 0
config *.node[*].mobility.z 1.895
config seed-set 5
config **.seed 5
config *.node[*].prot.rng-0 2
config *.node[*].appl.rng-0 3
config *.node[*].scenario.rng-0 4
config **.traffic.rng-0 5
config *.manager.configFile "\"./sumocfg/freeway.sumo.cfg\""
config *.manager.launchConfig "xmldoc(\"./sumocfg/freeway.launchd.xml\")"
config **.numberOfCars 9
config **.numberOfCarsPerPlatoon 8
config **.numberOfLanes 1
config *.node[*].helper_type "\"PositionHelper\""
config *.node[*].scenario.caccC1 0.5
config *.node[*].scenario.caccXi 1
config *.node[*].scenario.caccOmegaN "0.2 Hz"
config *.node[*].scenario.caccSpacing "2 m"
config *.node[*].scenario.engineTau "0.5 s"
config *.node[*].scenario.ploegH 0.5s
config *.node[*].scenario.ploegKp 0.2
config *.node[*].scenario.ploegKd 0.7
config *.node[*].scenario.useRealisticEngine false
config *.node[*].scenario.useControllerAcceleration true
config *.node[*].scenario.nLanes 1
config **.numericController 1
config **.headway 0.1s
config *.node[*].scenario.accHeadway 0.1s
config *.node[*].scenario.leaderHeadway 1.2s
config *.node[*].scenario.leaderSpeed 130kmph
config *.node[*].appl_type "\"SimplePlatooningApp\""
config *.node[*].appl.*.scalar-recording true
config *.node[*].appl.*.vector-recording true
config *.node[0].appl.breakRanksSafetyDistance 2m
config *.node[*].appl.minSpeed 120kmph
config *.node[*].appl.maxSpeed 140kmph
config *.node[*].protocol_type "\"SimplePlatooningBeaconing\""
config *.node[*].prot.*.scalar-recording true
config *.node[*].prot.*.vector-recording true
config *.node[*].prot.beaconingInterval 0.1s
config *.node[*].prot.priority 4
config *.node[*].prot.packetSize 200
config **.traffic_type "\"PlatoonsTrafficManager\""
config **.traffic.platoonInsertTime "1 s"
config **.traffic.platoonInsertSpeed 130kmph
config **.traffic.nCars 9
config **.traffic.platoonSize 8
config **.traffic.nLanes 1
config **.traffic.platooningVType "\"vtypeauto\""
config **.traffic.controller "\"CACC\""
config **.traffic.platoonInsertDistance 2m
config **.traffic.platoonInsertHeadway 0s
config **.traffic.platoonLeaderHeadway 1.2s
config **.scalar-recording false
config **.vector-recording false

vector 0 Highway.node[0].appl distance ETV
vector 1 Highway.node[0].appl relativeSpeed ETV
vector 2 Highway.node[0].appl nodeId ETV
vector 3 Highway.node[0].appl acceleration ETV
vector 4 Highway.node[0].appl controllerAcceleration ETV
vector 5 Highway.node[0].appl speed ETV
vector 6 Highway.node[0].appl posx ETV
vector 7 Highway.node[0].appl posy ETV
vector 8 Highway.node[1].appl distance ETV
vector 9 Highway.node[1].appl relativeSpeed ETV
vector 10 Highway.node[1].appl nodeId ETV
vector 11 Highway.node[1].appl acceleration ETV
vector 12 Highway.node[1].appl controllerAcceleration ETV
vector 13 Highway.node[1].appl speed ETV
vector 14 Highway.node[1].appl posx ETV
vector 15 Highway.node[1].appl posy ETV
vector 16 Highway.node[2].appl distance ETV
vector 17 Highway.node[2].appl relativeSpeed ETV
vector 18 Highway.node[2].appl nodeId ETV
vector 19 Highway.node[2].appl acceleration ETV
vector 20 Highway.node[2].appl controllerAcceleration ETV
vector 21 Highway.node[2].appl speed ETV
vector 22 Highway.node[2].appl posx ETV
vector 23 Highway.node[2].appl posy ETV
vector 24 Highway.node[3].appl distance ETV
vector 25 Highway.node[3].appl relativeSpeed ETV
vector 26 Highway.node[3].appl nodeId ETV
vector 27 Highway.node[3].appl acceleration ETV
vector 28 Highway.node[3].appl controllerAcceleration ETV
vector 29 Highway.node[3].appl speed ETV
vector 30 Highway.node[3].appl posx ETV
vector 31 Highway.node[3].appl posy ETV
vector 32 Highway.node[4].appl distance ETV
vector 33 Highway.node[4].appl relativeSpeed ETV
vector 34 Highway.node[4].appl nodeId ETV
vector 35 Highway.node[4].appl acceleration ETV
vector 36 Highway.node[4].appl controllerAcceleration ETV
vector 37 Highway.node[4].appl speed ETV
vector 38 Highway.node[4].appl posx ETV
vector 39 Highway.node[4].appl posy ETV
vector 40 Highway.node[5].appl distance ETV
vector 41 Highway.node[5].appl relativeSpeed ETV
vector 42 Highway.node[5].appl nodeId ETV
vector 43 Highway.node[5].appl acceleration ETV
vector 44 Highway.node[5].appl controllerAcceleration ETV
vector 45 Highway.node[5].appl speed ETV
vector 46 Highway.node[5].appl posx ETV
vector 47 Highway.node[5].appl posy ETV
vector 48 Highway.node[6].appl distance ETV
vector 49 Highway.node[6].appl relativeSpeed ETV
vector 50 Highway.node[6].appl nodeId ETV
vector 51 Highway.node[6].appl acceleration ETV
vector 52 Highway.node[6].appl controllerAcceleration ETV
vector 53 Highway.node[6].appl speed ETV
vector 54 Highway.node[6].appl posx ETV
vector 55 Highway.node[6].appl posy ETV
vector 56 Highway.node[7].appl distance ETV
vector 57 Highway.node[7].appl relativeSpeed ETV
vector 58 Highway.node[7].appl nodeId ETV
vector 59 Highway.node[7].appl acceleration ETV
vector 60 Highway.node[7].appl controllerAcceleration ETV
vector 61 Highway.node[7].appl speed ETV
vector 62 Highway.node[7].appl posx ETV
vector 63 Highway.node[7].appl posy ETV
vector 64 Highway.node[8].appl distance ETV
vector 65 Highway.node[8].appl relativeSpeed ETV
vector 66 Highway.node[8].appl nodeId ETV
vector 67 Highway.node[8].appl acceleration ETV
vector 68 Highway.node[8].appl controllerAcceleration ETV
vector 69 Highway.node[8].appl speed ETV
vector 70 Highway.node[8].appl posx ETV
vector 71 Highway.node[8].appl posy ETV
vector 72 Highway.node[2].prot frontDelay ETV
vector 73 Highway.node[2].prot frontDelayId ETV
vector 74 Highway.node[6].prot frontDelay ETV
vector 75 Highway.node[6].prot frontDelayId ETV
vector 76 Highway.node[3].prot frontDelay ETV
vector 77 Highway.node[3].prot frontDelayId ETV
vector 78 Highway.node[4].prot frontDelay ETV
vector 79 Highway.node[4].prot frontDelayId ETV
vector 80 Highway.node[5].prot frontDelay ETV
vector 81 Highway.node[5].prot frontDelayId ETV
vector 82 Highway.node[1].prot leaderDelay ETV
vector 83 Highway.node[1].prot leaderDelayId ETV
vector 84 Highway.node[1].prot frontDelay ETV
vector 85 Highway.node[1].prot frontDelayId ETV
vector 86 Highway.node[2].prot leaderDelay ETV
vector 87 Highway.node[2].prot leaderDelayId ETV
vector 88 Highway.node[3].prot leaderDelay ETV
vector 89 Highway.node[3].prot leaderDelayId ETV
vector 90 Highway.node[4].prot leaderDelay ETV
vector 91 Highway.node[4].prot leaderDelayId ETV
vector 92 Highway.node[5].prot leaderDelay ETV
vector 93 Highway.node[5].prot leaderDelayId ETV
vector 94 Highway.node[6].prot leaderDelay ETV
vector 95 Highway.node[6].prot leaderDelayId ETV
vector 96 Highway.node[7].prot leaderDelay ETV
vector 97 Highway.node[7].prot leaderDelayId ETV
vector 98 Highway.node[7].prot frontDelay ETV
vector 99 Highway.node[7].prot frontDelayId ETV
vector 100 Highway.node[0].prot nodeId ETV
vector 101 Highway.node[0].prot busyTime ETV
vector 102 Highway.node[0].prot collisions ETV
vector 103 Highway.node[1].prot nodeId ETV
vector 104 Highway.node[1].prot busyTime ETV
vector 105 Highway.node[1].prot collisions ETV
vector 106 Highway.node[2].prot nodeId ETV
vector 107 Highway.node[2].prot busyTime ETV
vector 108 Highway.node[2].prot collisions ETV
vector 109 Highway.node[3].prot nodeId ETV
vector 110 Highway.node[3].prot busyTime ETV
vector 111 Highway.node[3].prot collisions ETV
vector 112 Highway.node[4].prot nodeId ETV
vector 113 Highway.node[4].prot busyTime ETV
vector 114 Highway.node[4].prot collisions ETV
vector 115 Highway.node[5].prot nodeId ETV
vector 116 Highway.node[5].prot busyTime ETV
vector 117 Highway.node[5].prot collisions ETV
vector 118 Highway.node[6].prot nodeId ETV
vector 119 Highway.node[6].prot busyTime ETV
vector 120 Highway.node[6].prot collisions ETV
vector 121 Highway.node[7].prot nodeId ETV
vector 122 Highway.node[7].prot busyTime ETV
vector 123 Highway.node[7].prot collisions ETV
vector 124 Highway.node[8].prot nodeId ETV
vector 125 Highway.node[8].prot busyTime ETV
vector 126 Highway.node[8].prot collisions ETV
0	113	1.11	9305.17
0	670	1.21	9305.17
0	1227	1.31	9305.17
0	1784	1.41	9305.17
0	2341	1.51	9305.17
0	2898	1.61	9305.17
0	3455	1.71	9305.17
0	4012	1.81	9305.17
0	4569	1.91	9305.17
0	5135	2.01	-1
0	5692	2.11	-1
0	6249	2.21	-1
0	6806	2.31	-1
0	7363	2.41	-1
0	7920	2.51	-1
0	8477	2.61	-1
0	9034	2.71	-1
0	9591	2.81	-1
0	10148	2.91	-1
0	10714	3.01	-1
0	11271	3.11	-1
0	11828	3.21	-1
0	12385	3.31	-1
0	12942	3.41	-1
0	13499	3.51	-1
0	14056	3.61	-1
0	14613	3.71	-1
0	15170	3.81	-1
0	15727	3.91	-1
0	16293	4.01	-1
0	16850	4.11	-1
0	17407	4.21	-1
0	17964	4.31	-1
0	18521	4.41	-1
0	19078	4.51	-1
0	19635	4.61	-1
0	20192	4.71	-1
0	20749	4.81	-1
0	21306	4.91	-1
0	21872	5.01	-1
0	22429	5.11	-1
0	22986	5.21	-1
0	23543	5.31	-1
0	24100	5.41	-1
0	24657	5.51	-1
0	25214	5.61	-1
0	25771	5.71	-1
0	26328	5.81	-1
0	26885	5.91	-1
0	27451	6.01	-1
0	28008	6.11	-1
0	28565	6.21	-1
0	29122	6.31	-1
0	29679	6.41	-1
0	30236	6.51	-1
0	30793	6.61	-1
0	31350	6.71	-1
0	31907	6.81	-1
0	32464	6.91	-1
0	33030	7.01	-1
0	33587	7.11	-1
0	34144	7.21	-1
0	34701	7.31	-1
0	35258	7.41	-1
0	35815	7.51	-1
0	36372	7.61	-1
0	36929	7.71	-1
0	37486	7.81	-1
0	38043	7.91	-1
0	38609	8.01	-1
0	39166	8.11	-1
0	39723	8.21	-1
0	40280	8.31	-1
0	40837	8.41	-1
0	41394	8.51	-1
0	41951	8.61	-1
0	42508	8.71	-1
0	43065	8.81	-1
0	43622	8.91	-1
0	44188	9.01	-1
0	44745	9.11	-1
0	45302	9.21	-1
0	45859	9.31	-1
0	46416	9.41	-1
0	46973	9.51	-1
0	47530	9.61	-1
0	48087	9.71	-1
0	48644	9.81	-1
0	49201	9.91	-1
0	51532	10.01	-1
0	52089	10.11	-1
0	52646	10.21	-1
0	53203	10.31	-1
0	53760	10.41	-1
0	54317	10.51	-1
0	54874	10.61	-1
0	55431	10.71	-1
0	55988	10.81	-1
0	56545	10.91	-1
0	57111	11.01	-1
0	57668	11.11	-1
0	58225	11.21	-1
0	58782	11.31	-1
0	59339	11.41	-1
0	59896	11.51	-1
0	60453	11.61	-1
0	61010	11.71	-1
0	61567	11.81	-1
0	62124	11.91	-1
0	62690	12.01	-1
0	63247	12.11	-1
0	63804	12.21	-1
0	64361	12.31	-1
0	64918	12.41	-1
0	65475	12.51	-1
0	66032	12.61	-1
0	66589	12.71	-1
0	67146	12.81	-1
0	67703	12.91	-1
0	68269	13.01	-1
0	68826	13.11	-1
0	69383	13.21	-1
0	69940	13.31	-1
0	70497	13.41	-1
0	71054	13.51	-1
0	71611	13.61	-1
0	72168	13.71	-1
0	72725	13.81	-1
0	73282	13.91	-1
0	73848	14.01	-1
0	74405	14.11	-1
0	74962	14.21	-1
0	75519	14.31	-1
0	76076	14.41	-1
0	76633	14.51	-1
0	77190	14.61	-1
0	77747	14.71	-1
0	78304	14.81	-1
0	78861	14.91	-1
0	79427	15.01	-1
0	79984	15.11	-1
0	80541	15.21	-1
0	81098	15.31	-1
0	81655	15.41	-1
0	82212	15.51	-1
0	82769	15.61	-1
0	83326	15.71	-1
0	83883	15.81	-1
0	84440	15.91	-1
0	85006	16.01	-1
0	85563	16.11	-1
0	86120	16.21	-1
0	86677	16.31	-1
0	87234	16.41	-1
0	87791	16.51	-1
0	88348	16.61	-1
0	88905	16.71	-1
0	89462	16.81	-1
0	90019	16.91	-1
0	90585	17.01	-1
0	91142	17.11	-1
0	91699	17.21	-1
0	92256	17.31	-1
0	92813	17.41	-1
0	93370	17.51	-1
0	93927	17.61	-1
0	94484	17.71	-1
0	95041	17.81	-1
0	95598	17.91	-1
0	96164	18.01	-1
0	96721	18.11	-1
0	97278	18.21	-1
0	97835	18.31	-1
0	98392	18.41	-1
0	98949	18.51	-1
0	99506	18.61	-1
0	100063	18.71	-1
0	100620	18.81	-1
0	101177	18.91	-1
0	101743	19.01	-1
0	102300	19.11	-1
0	102857	19.21	-1
0	103414	19.31	-1
0	103971	19.41	-1
0	104528	19.51	-1
0	105085	19.61	-1
0	105642	19.71	-1
0	106199	19.81	-1
0	106756	19.91	-1
0	107322	20.01	-1
0	107879	20.11	-1
0	108436	20.21	-1
0	108993	20.31	-1
0	109550	20.41	-1
0	110107	20.51	-1
0	110664	20.61	-1
0	111221	20.71	-1
0	111778	20.81	-1
0	112335	20.91	-1
0	112901	21.01	-1
0	113458	21.11	-1
0	114015	21.21	-1
0	114572	21.31	-1
0	115129	21.41	-1
0	115686	21.51	-1
0	116243	21.61	-1
0	116800	21.71	-1
0	117357	21.81	-1
0	117914	21.91	-1
0	118480	22.01	-1
0	119037	22.11	-1
0	119594	22.21	-1
0	120151	22.31	-1
0	120708	22.41	-1
0	121265	22.51	-1
0	121822	22.61	-1
0	122379	22.71	-1
0	122936	22.81	-1
0	123493	22.91	-1
0	124059	23.01	-1
0	124616	23.11	-1
0	125173	23.21	-1
0	125730	23.31	-1
0	126287	23.41	-1
0	126844	23.51	-1
0	127401	23.61	-1
0	127958	23.71	-1
0	128515	23.81	-1
0	129072	23.91	-1
0	129638	24.01	-1
0	130195	24.11	-1
0	130752	24.21	-1
0	131309	24.31	-1
0	131866	24.41	-1
0	132423	24.51	-1
0	132980	24.61	-1
0	133537	24.71	-1
0	134094	24.81	-1
0	134651	24.91	-1
0	135217	25.01	-1
0	135774	25.11	-1
0	136331	25.21	-1
0	136888	25.31	-1
0	137445	25.41	-1
0	138002	25.51	-1
0	138559	25.61	-1
0	139116	25.71	-1
0	139673	25.81	-1
0	140230	25.91	-1
0	140796	26.01	-1
0	141353	26.11	-1
0	141910	26.21	-1
0	142467	26.31	-1
0	143024	26.41	-1
0	143581	26.51	-1
0	144138	26.61	-1
0	144695	26.71	-1
0	145252	26.81	-1
0	145809	26.91	-1
0	146375	27.01	-1
0	146932	27.11	-1
0	147489	27.21	-1
0	148046	27.31	-1
0	148603	27.41	-1
0	149160	27.51	-1
0	149717	27.61	-1
0	150274	27.71	-1
0	150831	27.81	-1
0	151388	27.91	-1
0	151954	28.01	-1
0	152511	28.11	-1
0	153068	28.21	-1
0	153625	28.31	-1
0	154182	28.41	-1
0	154739	28.51	-1
0	155296	28.61	-1
0	155853	28.71	-1
0	156410	28.81	-1
0	156967	28.91	-1
0	157533	29.01	-1
0	158090	29.11	-1
0	158647	29.21	-1
0	159204	29.31	-1
0	159761	29.41	-1
0	160318	29.51	-1
0	160875	29.61	-1
0	161432	29.71	-1
0	161989	29.81	-1
0	162546	29.91	-1
0	163112	30.01	-1
0	163669	30.11	-1
0	164226	30.21	-1
0	164783	30.31	-1
0	165340	30.41	-1
0	165897	30.51	-1
0	166454	30.61	-1
0	167011	30.71	-1
0	167568	30.81	-1
0	168125	30.91	-1
0	168691	31.01	-1
0	169248	31.11	-1
0	169805	31.21	-1
0	170362	31.31	-1
0	170919	31.41	-1
0	171476	31.51	-1
0	172033	31.61	-1
0	172590	31.71	-1
0	173147	31.81	-1
0	173704	31.91	-1
0	174270	32.01	-1
0	174827	32.11	-1
0	175384	32.21	-1
0	175941	32.31	-1
0	176498	32.41	-1
0	177055	32.51	-1
0	177612	32.61	-1
0	178169	32.71	-1
0	178726	32.81	-1
0	179283	32.91	-1
0	179849	33.01	-1
0	180406	33.11	-1
0	180963	33.21	-1
0	181520	33.31	-1
0	182077	33.41	-1
0	182634	33.51	-1
0	183191	33.61	-1
0	183748	33.71	-1
0	184305	33.81	-1
0	184862	33.91	-1
0	185428	34.01	-1
0	185985	34.11	-1
0	186542	34.21	-1
0	187099	34.31	-1
0	187656	34.41	-1
0	188213	34.51	-1
0	188770	34.61	-1
0	189327	34.71	-1
0	189884	34.81	-1
0	190441	34.91	-1
0	191007	35.01	-1
0	191564	35.11	-1
0	192121	35.21	-1
0	192678	35.31	-1
0	193235	35.41	-1
0	193792	35.51	-1
0	194349	35.61	-1
0	194906	35.71	-1
0	195463	35.81	-1
0	196020	35.91	-1
0	196586	36.01	-1
0	197143	36.11	-1
0	197700	36.21	-1
0	198257	36.31	-1
0	198814	36.41	-1
0	199371	36.51	-1
0	199928	36.61	-1
0	200485	36.71	-1
0	201042	36.81	-1
0	201599	36.91	-1
0	202165	37.01	-1
0	202722	37.11	-1
0	203279	37.21	-1
0	203836	37.31	-1
0	204393	37.41	-1
0	204950	37.51	-1
0	205507	37.61	-1
0	206064	37.71	-1
0	206621	37.81	-1
0	207178	37.91	-1
0	207744	38.01	-1
0	208301	38.11	-1
0	208858	38.21	-1
0	209415	38.31	-1
0	209972	38.41	-1
0	210529	38.51	-1
0	211086	38.61	-1
0	211643	38.71	-1
0	212200	38.81	-1
0	212757	38.91	-1
0	213323	39.01	-1
0	213880	39.11	-1
0	214437	39.21	-1
0	214994	39.31	-1
0	215551	39.41	-1
0	216108	39.51	-1
0	216665	39.61	-1
0	217222	39.71	-1
0	217779	39.81	-1
0	218336	39.91	-1
0	218902	40.01	-1
0	219459	40.11	-1
0	220016	40.21	-1
0	220573	40.31	-1
0	221130	40.41	-1
0	221687	40.51	-1
0	222244	40.61	-1
0	222801	40.71	-1
0	223358	40.81	-1
0	223915	40.91	-1
0	224481	41.01	-1
0	225038	41.11	-1
0	225595	41.21	-1
0	226152	41.31	-1
0	226709	41.41	-1
0	227266	41.51	-1
0	227823	41.61	-1
0	228380	41.71	-1
0	228937	41.81	-1
0	229494	41.91	-1
0	230060	42.01	-1
0	230617	42.11	-1
0	231174	42.21	-1
0	231731	42.31	-1
0	232288	42.41	-1
0	232845	42.51	-1
0	233402	42.61	-1
0	233959	42.71	-1
0	234516	42.81	-1
0	235073	42.91	-1
0	235639	43.01	-1
0	236196	43.11	-1
0	236753	43.21	-1
0	237310	43.31	-1
0	237867	43.41	-1
0	238424	43.51	-1
0	238981	43.61	-1
0	239538	43.71	-1
0	240095	43.81	-1
0	240652	43.91	-1
0	241218	44.01	-1
0	241775	44.11	-1
0	242332	44.21	-1
0	242889	44.31	-1
0	243446	44.41	-1
0	244003	44.51	-1
0	244560	44.61	-1
0	245117	44.71	-1
0	245674	44.81	-1
0	246231	44.91	-1
0	246797	45.01	-1
0	247354	45.11	-1
0	247911	45.21	-1
0	248468	45.31	-1
0	249025	45.41	-1
0	249582	45.51	-1
0	250139	45.61	-1
0	250696	45.71	-1
0	251253	45.81	-1
0	251810	45.91	-1
0	252376	46.01	-1
0	252933	46.11	-1
0	253490	46.21	-1
0	254047	46.31	-1
0	254604	46.41	-1
0	255161	46.51	-1
0	255718	46.61	-1
0	256275	46.71	-1
0	256832	46.81	-1
0	257389	46.91	-1
0	257955	47.01	-1
0	258512	47.11	-1
0	259069	47.21	-1
0	259626	47.31	-1
0	260183	47.41	-1
0	260740	47.51	-1
0	261297	47.61	-1
0	261854	47.71	-1
0	262411	47.81	-1
0	262968	47.91	-1
0	263534	48.01	-1
0	264091	48.11	-1
0	264648	48.21	-1
0	265205	48.31	-1
0	265762	48.41	-1
0	266319	48.51	-1
0	266876	48.61	-1
0	267433	48.71	-1
0	267990	48.81	-1
0	268547	48.91	-1
0	269113	49.01	-1
0	269670	49.11	-1
0	270227	49.21	-1
0	270784	49.31	-1
0	271341	49.41	-1
0	271898	49.51	-1
0	272455	49.61	-1
0	273012	49.71	-1
0	273569	49.81	-1
0	274126	49.91	-1
0	274692	50.01	-1
0	275249	50.11	-1
0	275806	50.21	-1
0	276363	50.31	-1
0	276920	50.41	-1
0	277477	50.51	-1
0	278034	50.61	-1
0	278591	50.71	-1
0	279148	50.81	-1
0	279705	50.91	-1
0	280271	51.01	-1
0	280828	51.11	-1
0	281385	51.21	-1
0	281942	51.31	-1
0	282499	51.41	-1
0	283056	51.51	-1
0	283613	51.61	-1
0	284170	51.71	-1
0	284727	51.81	-1
0	285284	51.91	-1
0	285850	52.01	-1
0	286407	52.11	-1
0	286964	52.21	-1
0	287521	52.31	-1
0	288078	52.41	-1
0	288635	52.51	-1
0	289192	52.61	-1
0	289749	52.71	-1
0	290306	52.81	-1
0	290863	52.91	-1
0	291429	53.01	-1
0	291986	53.11	-1
0	292543	53.21	-1
0	293100	53.31	-1
0	293657	53.41	-1
0	294214	53.51	-1
0	294771	53.61	-1
0	295328	53.71	-1
0	295885	53.81	-1
0	296442	53.91	-1
0	297008	54.01	-1
0	297565	54.11	-1
0	298122	54.21	-1
0	298679	54.31	-1
0	299236	54.41	-1
0	299793	54.51	-1
0	300350	54.61	-1
0	300907	54.71	-1
0	301464	54.81	-1
0	302021	54.91	-1
0	302587	55.01	-1
0	303144	55.11	-1
0	303701	55.21	-1
0	304258	55.31	-1
0	304815	55.41	-1
0	305372	55.51	-1
0	305929	55.61	-1
0	306486	55.71	-1
0	307043	55.81	-1
0	307600	55.91	-1
0	308166	56.01	-1
0	308723	56.11	-1
0	309280	56.21	-1
0	309837	56.31	-1
0	310394	56.41	-1
0	310951	56.51	-1
0	311508	56.61	-1
0	312065	56.71	-1
0	312622	56.81	-1
0	313179	56.91	-1
0	313745	57.01	-1
0	314302	57.11	-1
0	314859	57.21	-1
0	315416	57.31	-1
0	315973	57.41	-1
0	316530	57.51	-1
0	317087	57.61	-1
0	317644	57.71	-1
0	318201	57.81	-1
0	318758	57.91	-1
0	319324	58.01	-1
0	319881	58.11	-1
0	320438	58.21	-1
0	320995	58.31	-1
0	321552	58.41	-1
0	322109	58.51	-1
0	322666	58.61	-1
0	323223	58.71	-1
0	323780	58.81	-1
0	324337	58.91	-1
0	324903	59.01	-1
0	325460	59.11	-1
0	326017	59.21	-1
0	326574	59.31	-1
0	327131	59.41	-1
0	327688	59.51	-1
0	328245	59.61	-1
0	328802	59.71	-1
0	329359	59.81	-1
0	329916	59.91	-1
0	330482	60.01	-1
0	331039	60.11	-1
0	331596	60.21	-1
0	332153	60.31	-1
0	332710	60.41	-1
0	333267	60.51	-1
0	333824	60.61	-1
0	334381	60.71	-1
0	334938	60.81	-1
0	335495	60.91	-1
0	336061	61.01	-1
0	336618	61.11	-1
0	337175	61.21	-1
0	337732	61.31	-1
0	338289	61.41	-1
0	338846	61.51	-1
0	339403	61.61	-1
0	339960	61.71	-1
0	340517	61.81	-1
0	341074	61.91	-1
0	341640	62.01	-1
0	342197	62.11	-1
0	342754	62.21	-1
0	343311	62.31	-1
0	343868	62.41	-1
0	344425	62.51	-1
0	344982	62.61	-1
0	345539	62.71	-1
0	346096	62.81	-1
0	346653	62.91	-1
0	347219	63.01	-1
0	347776	63.11	-1
0	348333	63.21	-1
0	348890	63.31	-1
0	349447	63.41	-1
0	350004	63.51	-1
0	350561	63.61	-1
0	351118	63.71	-1
0	351675	63.81	-1
0	352232	63.91	-1
0	352798	64.01	-1
0	353355	64.11	-1
0	353912	64.21	-1
0	354469	64.31	-1
0	355026	64.41	-1
0	355583	64.51	-1
0	356140	64.61	-1
0	356697	64.71	-1
0	357254	64.81	-1
0	357811	64.91	-1
0	358377	65.01	-1
0	358934	65.11	-1
0	359491	65.21	-1
0	360048	65.31	-1
0	360605	65.41	-1
0	361162	65.51	-1
0	361719	65.61	-1
0	362276	65.71	-1
0	362833	65.81	-1
0	363390	65.91	-1
0	363956	66.01	-1
0	364513	66.11	-1
0	365070	66.21	-1
0	365627	66.31	-1
0	366184	66.41	-1
0	366741	66.51	-1
0	367298	66.61	-1
0	367855	66.71	-1
0	368412	66.81	-1
0	368969	66.91	-1
0	369535	67.01	-1
0	370092	67.11	-1
0	370649	67.21	-1
0	371206	67.31	-1
0	371763	67.41	-1
0	372320	67.51	-1
0	372877	67.61	-1
0	373434	67.71	-1
0	373991	67.81	-1
0	374548	67.91	-1
0	375114	68.01	-1
0	375671	68.11	-1
0	376228	68.21	-1
0	376785	68.31	-1
0	377342	68.41	-1
0	377899	68.51	-1
0	378456	68.61	-1
0	379013	68.71	-1
0	379570	68.81	-1
0	380127	68.91	-1
0	380693	69.01	-1
0	381250	69.11	-1
0	381807	69.21	-1
0	382364	69.31	-1
0	382921	69.41	-1
0	383478	69.51	-1
0	384035	69.61	-1
0	384592	69.71	-1
0	385149	69.81	-1
0	385706	69.91	-1
0	386272	70.01	-1
0	386829	70.11	-1
0	387386	70.21	-1
0	387943	70.31	-1
0	388500	70.41	-1
0	389057	70.51	-1
0	389614	70.61	-1
0	390171	70.71	-1
0	390728	70.81	-1
0	391285	70.91	-1
0	391851	71.01	-1
0	392408	71.11	-1
0	392965	71.21	-1
0	393522	71.31	-1
0	394079	71.41	-1
0	394636	71.51	-1
0	395193	71.61	-1
0	395750	71.71	-1
0	396307	71.81	-1
0	396864	71.91	-1
0	397430	72.01	-1
0	397987	72.11	-1
0	398544	72.21	-1
0	399101	72.31	-1
0	399658	72.41	-1
0	400215	72.51	-1
0	400772	72.61	-1
0	401329	72.71	-1
0	401886	72.81	-1
0	402443	72.91	-1
0	403009	73.01	-1
0	403566	73.11	-1
0	404123	73.21	-1
0	404680	73.31	-1
0	405237	73.41	-1
0	405794	73.51	-1
0	406351	73.61	-1
0	406908	73.71	-1
0	407465	73.81	-1
0	408022	73.91	-1
0	408588	74.01	-1
0	409145	74.11	-1
0	409702	74.21	-1
0	410259	74.31	-1
0	410816	74.41	-1
0	411373	74.51	-1
0	411930	74.61	-1
0	412487	74.71	-1
0	413044	74.81	-1
0	413601	74.91	-1
0	414167	75.01	-1
0	414724	75.11	-1
0	415281	75.21	-1
0	415838	75.31	-1
0	416395	75.41	-1
0	416952	75.51	-1
0	417509	75.61	-1
0	418066	75.71	-1
0	418623	75.81	-1
0	419180	75.91	-1
0	419746	76.01	-1
0	420303	76.11	-1
0	420860	76.21	-1
0	421417	76.31	-1
0	421974	76.41	-1
0	422531	76.51	-1
0	423088	76.61	-1
0	423645	76.71	-1
0	424202	76.81	-1
0	424759	76.91	-1
0	425325	77.01	-1
0	425882	77.11	-1
0	426439	77.21	-1
0	426996	77.31	-1
0	427553	77.41	-1
0	428110	77.51	-1
0	428667	77.61	-1
0	429224	77.71	-1
0	429781	77.81	-1
0	430338	77.91	-1
0	430904	78.01	-1
0	431461	78.11	-1
0	432018	78.21	-1
0	432575	78.31	-1
0	433132	78.41	-1
0	433689	78.51	-1
0	434246	78.61	-1
0	434803	78.71	-1
0	435360	78.81	-1
0	435917	78.91	-1
0	436483	79.01	-1
0	437040	79.11	-1
0	437597	79.21	-1
0	438154	79.31	-1
0	438711	79.41	-1
0	439268	79.51	-1
0	439825	79.61	-1
0	440382	79.71	-1
0	440939	79.81	-1
0	441496	79.91	-1
0	442062	80.01	-1
0	442619	80.11	-1
0	443176	80.21	-1
0	443733	80.31	-1
0	444290	80.41	-1
0	444847	80.51	-1
0	445404	80.61	-1
0	445961	80.71	-1
0	446518	80.81	-1
0	447075	80.91	-1
0	447641	81.01	-1
0	448198	81.11	-1
0	448755	81.21	-1
0	449312	81.31	-1
0	449869	81.41	-1
0	450426	81.51	-1
0	450983	81.61	-1
0	451540	81.71	-1
0	452097	81.81	-1
0	452654	81.91	-1
0	453220	82.01	-1
0	453777	82.11	-1
0	454334	82.21	-1
0	454891	82.31	-1
0	455448	82.41	-1
0	456005	82.51	-1
0	456562	82.61	-1
0	457119	82.71	-1
0	457676	82.81	-1
0	458233	82.91	-1
0	458799	83.01	-1
0	459356	83.11	-1
0	459913	83.21	-1
0	460470	83.31	-1
0	461027	83.41	-1
0	461584	83.51	-1
0	462141	83.61	-1
0	462698	83.71	-1
0	463255	83.81	-1
0	463812	83.91	-1
0	464378	84.01	-1
0	464935	84.11	-1
0	465492	84.21	-1
0	466049	84.31	-1
0	466606	84.41	-1
0	467163	84.51	-1
0	467720	84.61	-1
0	468277	84.71	-1
0	468834	84.81	-1
0	469391	84.91	-1
0	469957	85.01	-1
0	470514	85.11	-1
0	471071	85.21	-1
0	471628	85.31	-1
0	472185	85.41	-1
0	472742	85.51	-1
0	473299	85.61	-1
0	473856	85.71	-1
0	474413	85.81	-1
0	474970	85.91	-1
0	475536	86.01	-1
0	476093	86.11	-1
0	476650	86.21	-1
0	477207	86.31	-1
0	477764	86.41	-1
0	478321	86.51	-1
0	478878	86.61	-1
0	479435	86.71	-1
0	479992	86.81	-1
0	480549	86.91	-1
0	481115	87.01	-1
0	481672	87.11	-1
0	482229	87.21	-1
0	482786	87.31	-1
0	483343	87.41	-1
0	483900	87.51	-1
0	484457	87.61	-1
0	485014	87.71	-1
0	485571	87.81	-1
0	486128	87.91	-1
0	486694	88.01	-1
0	487251	88.11	-1
0	487808	88.21	-1
0	488365	88.31	-1
0	488922	88.41	-1
0	489479	88.51	-1
0	490036	88.61	-1
0	490593	88.71	-1
0	491150	88.81	-1
0	491707	88.91	-1
0	492273	89.01	-1
0	492830	89.11	-1
0	493387	89.21	-1
0	493944	89.31	-1
0	494501	89.41	-1
0	495058	89.51	-1
0	495615	89.61	-1
0	496172	89.71	-1
0	496729	89.81	-1
0	497286	89.91	-1
0	497852	90.01	-1
0	498409	90.11	-1
0	498966	90.21	-1
0	499523	90.31	-1
0	500080	90.41	-1
0	500637	90.51	-1
0	501194	90.61	-1
0	501751	90.71	-1
0	502308	90.81	-1
0	502865	90.91	-1
0	503431	91.01	-1
0	503988	91.11	-1
0	504545	91.21	-1
0	505102	91.31	-1
0	505659	91.41	-1
0	506216	91.51	-1
0	506773	91.61	-1
0	507330	91.71	-1
0	507887	91.81	-1
0	508444	91.91	-1
0	509010	92.01	-1
0	509567	92.11	-1
0	510124	92.21	-1
0	510681	92.31	-1
0	511238	92.41	-1
0	511795	92.51	-1
0	512352	92.61	-1
0	512909	92.71	-1
0	513466	92.81	-1
0	514023	92.91	-1
0	514589	93.01	-1
0	515146	93.11	-1
0	515703	93.21	-1
0	516260	93.31	-1
0	516817	93.41	-1
0	517374	93.51	-1
0	517931	93.61	-1
0	518488	93.71	-1
0	519045	93.81	-1
0	519602	93.91	-1
0	520168	94.01	-1
0	520725	94.11	-1
0	521282	94.21	-1
0	521839	94.31	-1
0	522396	94.41	-1
0	522953	94.51	-1
0	523510	94.61	-1
0	524067	94.71	-1
0	524624	94.81	-1
0	525181	94.91	-1
0	525747	95.01	-1
0	526304	95.11	-1
0	526861	95.21	-1
0	527418	95.31	-1
0	527975	95.41	-1
0	528532	95.51	-1
0	529089	95.61	-1
0	529646	95.71	-1
0	530203	95.81	-1
0	530760	95.91	-1
0	531326	96.01	-1
0	531883	96.11	-1
0	532440	96.21	-1
0	532997	96.31	-1
0	533554	96.41	-1
0	534111	96.51	-1
0	534668	96.61	-1
0	535225	96.71	-1
0	535782	96.81	-1
0	536339	96.91	-1
0	536905	97.01	-1
0	537462	97.11	-1
0	538019	97.21	-1
0	538576	97.31	-1
0	539133	97.41	-1
0	539690	97.51	-1
0	540247	97.61	-1
0	540804	97.71	-1
0	541361	97.81	-1
0	541918	97.91	-1
0	542484	98.01	-1
0	543041	98.11	-1
0	543598	98.21	-1
0	544155	98.31	-1
0	544712	98.41	-1
0	545269	98.51	-1
0	545826	98.61	-1
0	546383	98.71	-1
0	546940	98.81	-1
0	547497	98.91	-1
0	548063	99.01	-1
0	548620	99.11	-1
0	549177	99.21	-1
0	549734	99.31	-1
0	550291	99.41	-1
0	550848	99.51	-1
0	551405	99.61	-1
0	551962	99.71	-1
0	552519	99.81	-1
0	553076	99.91	-1
1	113	1.11	0
1	670	1.21	0
1	1227	1.31	0
1	1784	1.41	0
1	2341	1.51	0
1	2898	1.61	0
1	3455	1.71	0
1	4012	1.81	0
1	4569	1.91	0
1	5135	2.01	0
1	5692	2.11	0
1	6249	2.21	0
1	6806	2.31	0
1	7363	2.41	0
1	7920	2.51	0
1	8477	2.61	0
1	9034	2.71	0
1	9591	2.81	0
1	10148	2.91	0
1	10714	3.01	0
1	11271	3.11	0
1	11828	3.21	0
1	12385	3.31	0
1	12942	3.41	0
1	13499	3.51	0
1	14056	3.61	0
1	14613	3.71	0
1	15170	3.81	0
1	15727	3.91	0
1	16293	4.01	0
1	16850	4.11	0
1	17407	4.21	0
1	17964	4.31	0
1	18521	4.41	0
1	19078	4.51	0
1	19635	4.61	0
1	20192	4.71	0
1	20749	4.81	0
1	21306	4.91	0
1	21872	5.01	0
1	22429	5.11	0
1	22986	5.21	0
1	23543	5.31	0
1	24100	5.41	0
1	24657	5.51	0
1	25214	5.61	0
1	25771	5.71	0
1	26328	5.81	0
1	26885	5.91	0
1	27451	6.01	0
1	28008	6.11	0
1	28565	6.21	0
1	29122	6.31	0
1	29679	6.41	0
1	30236	6.51	0
1	30793	6.61	0
1	31350	6.71	0
1	31907	6.81	0
1	32464	6.91	0
1	33030	7.01	0
1	33587	7.11	0
1	34144	7.21	0
1	34701	7.31	0
1	35258	7.41	0
1	35815	7.51	0
1	36372	7.61	0
1	36929	7.71	0
1	37486	7.81	0
1	38043	7.91	0
1	38609	8.01	0
1	39166	8.11	0
1	39723	8.21	0
1	40280	8.31	0
1	40837	8.41	0
1	41394	8.51	0
1	41951	8.61	0
1	42508	8.71	0
1	43065	8.81	0
1	43622	8.91	0
1	44188	9.01	0
1	44745	9.11	0
1	45302	9.21	0
1	45859	9.31	0
1	46416	9.41	0
1	46973	9.51	0
1	47530	9.61	0
1	48087	9.71	0
1	48644	9.81	0
1	49201	9.91	0
1	51532	10.01	0
1	52089	10.11	0
1	52646	10.21	0
1	53203	10.31	0
1	53760	10.41	0
1	54317	10.51	0
1	54874	10.61	0
1	55431	10.71	0
1	55988	10.81	0
1	56545	10.91	0
1	57111	11.01	0
1	57668	11.11	0
1	58225	11.21	0
1	58782	11.31	0
1	59339	11.41	0
1	59896	11.51	0
1	60453	11.61	0
1	61010	11.71	0
1	61567	11.81	0
1	62124	11.91	0
1	62690	12.01	0
1	63247	12.11	0
1	63804	12.21	0
1	64361	12.31	0
1	64918	12.41	0
1	65475	12.51	0
1	66032	12.61	0
1	66589	12.71	0
1	67146	12.81	0
1	67703	12.91	0
1	68269	13.01	0
1	68826	13.11	0
1	69383	13.21	0
1	69940	13.31	0
1	70497	13.41	0
1	71054	13.51	0
1	71611	13.61	0
1	72168	13.71	0
1	72725	13.81	0
1	73282	13.91	0
1	73848	14.01	0
1	74405	14.11	0
1	74962	14.21	0
1	75519	14.31	0
1	76076	14.41	0
1	76633	14.51	0
1	77190	14.61	0
1	77747	14.71	0
1	78304	14.81	0
1	78861	14.91	0
1	79427	15.01	0
1	79984	15.11	0
1	80541	15.21	0
1	81098	15.31	0
1	81655	15.41	0
1	82212	15.51	0
1	82769	15.61	0
1	83326	15.71	0
1	83883	15.81	0
1	84440	15.91	0
1	85006	16.01	0
1	85563	16.11	0
1	86120	16.21	0
1	86677	16.31	0
1	87234	16.41	0
1	87791	16.51	0
1	88348	16.61	0
1	88905	16.71	0
1	89462	16.81	0
1	90019	16.91	0
1	90585	17.01	0
1	91142	17.11	0
1	91699	17.21	0
1	92256	17.31	0
1	92813	17.41	0
1	93370	17.51	0
1	93927	17.61	0
1	94484	17.71	0
1	95041	17.81	0
1	95598	17.91	0
1	96164	18.01	0
1	96721	18.11	0
1	97278	18.21	0
1	97835	18.31	0
1	98392	18.41	0
1	98949	18.51	0
1	99506	18.61	0
1	100063	18.71	0
1	100620	18.81	0
1	101177	18.91	0
1	101743	19.01	0
1	102300	19.11	0
1	102857	19.21	0
1	103414	19.31	0
1	103971	19.41	0
1	104528	19.51	0
1	105085	19.61	0
1	105642	19.71	0
1	106199	19.81	0
1	106756	19.91	0
1	107322	20.01	0
1	107879	20.11	0
1	108436	20.21	0
1	108993	20.31	0
1	109550	20.41	0
1	110107	20.51	0
1	110664	20.61	0
1	111221	20.71	0
1	111778	20.81	0
1	112335	20.91	0
1	112901	21.01	0
1	113458	21.11	0
1	114015	21.21	0
1	114572	21.31	0
1	115129	21.41	0
1	115686	21.51	0
1	116243	21.61	0
1	116800	21.71	0
1	117357	21.81	0
1	117914	21.91	0
1	118480	22.01	0
1	119037	22.11	0
1	119594	22.21	0
1	120151	22.31	0
1	120708	22.41	0
1	121265	22.51	0
1	121822	22.61	0
1	122379	22.71	0
1	122936	22.81	0
1	123493	22.91	0
1	124059	23.01	0
1	124616	23.11	0
1	125173	23.21	0
1	125730	23.31	0
1	126287	23.41	0
1	126844	23.51	0
1	127401	23.61	0
1	127958	23.71	0
1	128515	23.81	0
1	129072	23.91	0
1	129638	24.01	0
1	130195	24.11	0
1	130752	24.21	0
1	131309	24.31	0
1	131866	24.41	0
1	132423	24.51	0
1	132980	24.61	0
1	133537	24.71	0
1	134094	24.81	0
1	134651	24.91	0
1	135217	25.01	0
1	135774	25.11	0
1	136331	25.21	0
1	136888	25.31	0
1	137445	25.41	0
1	138002	25.51	0
1	138559	25.61	0
1	139116	25.71	0
1	139673	25.81	0
1	140230	25.91	0
1	140796	26.01	0
1	141353	26.11	0
1	141910	26.21	0
1	142467	26.31	0
1	143024	26.41	0
1	143581	26.51	0
1	144138	26.61	0
1	144695	26.71	0
1	145252	26.81	0
1	145809	26.91	0
1	146375	27.01	0
1	146932	27.11	0
1	147489	27.21	0
1	148046	27.31	0
1	148603	27.41	0
1	149160	27.51	0
1	149717	27.61	0
1	150274	27.71	0
1	150831	27.81	0
1	151388	27.91	0
1	151954	28.01	0
1	152511	28.11	0
1	153068	28.21	0
1	153625	28.31	0
1	154182	28.41	0
1	154739	28.51	0
1	155296	28.61	0
1	155853	28.71	0
1	156410	28.81	0
1	156967	28.91	0
1	157533	29.01	0
1	158090	29.11	0
1	158647	29.21	0
1	159204	29.31	0
1	159761	29.41	0
1	160318	29.51	0
1	160875	29.61	0
1	161432	29.71	0
1	161989	29.81	0
1	162546	29.91	0
1	163112	30.01	0
1	163669	30.11	0
1	164226	30.21	0
1	164783	30.31	0
1	165340	30.41	0
1	165897	30.51	0
1	166454	30.61	0
1	167011	30.71	0
1	167568	30.81	0
1	168125	30.91	0
1	168691	31.01	0
1	169248	31.11	0
1	169805	31.21	0
1	170362	31.31	0
1	170919	31.41	0
1	171476	31.51	0
1	172033	31.61	0
1	172590	31.71	0
1	173147	31.81	0
1	173704	31.91	0
1	174270	32.01	0
1	174827	32.11	0
1	175384	32.21	0
1	175941	32.31	0
1	176498	32.41	0
1	177055	32.51	0
1	177612	32.61	0
1	178169	32.71	0
1	178726	32.81	0
1	179283	32.91	0
1	179849	33.01	0
1	180406	33.11	0
1	180963	33.21	0
1	181520	33.31	0
1	182077	33.41	0
1	182634	33.51	0
1	183191	33.61	0
1	183748	33.71	0
1	184305	33.81	0
1	184862	33.91	0
1	185428	34.01	0
1	185985	34.11	0
1	186542	34.21	0
1	187099	34.31	0
1	187656	34.41	0
1	188213	34.51	0
1	188770	34.61	0
1	189327	34.71	0
1	189884	34.81	0
1	190441	34.91	0
1	191007	35.01	0
1	191564	35.11	0
1	192121	35.21	0
1	192678	35.31	0
1	193235	35.41	0
1	193792	35.51	0
1	194349	35.61	0
1	194906	35.71	0
1	195463	35.81	0
1	196020	35.91	0
1	196586	36.01	0
1	197143	36.11	0
1	197700	36.21	0
1	198257	36.31	0
1	198814	36.41	0
1	199371	36.51	0
1	199928	36.61	0
1	200485	36.71	0
1	201042	36.81	0
1	201599	36.91	0
1	202165	37.01	0
1	202722	37.11	0
1	203279	37.21	0
1	203836	37.31	0
1	204393	37.41	0
1	204950	37.51	0
1	205507	37.61	0
1	206064	37.71	0
1	206621	37.81	0
1	207178	37.91	0
1	207744	38.01	0
1	208301	38.11	0
1	208858	38.21	0
1	209415	38.31	0
1	209972	38.41	0
1	210529	38.51	0
1	211086	38.61	0
1	211643	38.71	0
1	212200	38.81	0
1	212757	38.91	0
1	213323	39.01	0
1	213880	39.11	0
1	214437	39.21	0
1	214994	39.31	0
1	215551	39.41	0
1	216108	39.51	0
1	216665	39.61	0
1	217222	39.71	0
1	217779	39.81	0
1	218336	39.91	0
1	218902	40.01	0
1	219459	40.11	0
1	220016	40.21	0
1	220573	40.31	0
1	221130	40.41	0
1	221687	40.51	0
1	222244	40.61	0
1	222801	40.71	0
1	223358	40.81	0
1	223915	40.91	0
1	224481	41.01	0
1	225038	41.11	0
1	225595	41.21	0
1	226152	41.31	0
1	226709	41.41	0
1	227266	41.51	0
1	227823	41.61	0
1	228380	41.71	0
1	228937	41.81	0
1	229494	41.91	0
1	230060	42.01	0
1	230617	42.11	0
1	231174	42.21	0
1	231731	42.31	0
1	232288	42.41	0
1	232845	42.51	0
1	233402	42.61	0
1	233959	42.71	0
1	234516	42.81	0
1	235073	42.91	0
1	235639	43.01	0
1	236196	43.11	0
1	236753	43.21	0
1	237310	43.31	0
1	237867	43.41	0
1	238424	43.51	0
1	238981	43.61	0
1	239538	43.71	0
1	240095	43.81	0
1	240652	43.91	0
1	241218	44.01	0
1	241775	44.11	0
1	242332	44.21	0
1	242889	44.31	0
1	243446	44.41	0
1	244003	44.51	0
1	244560	44.61	0
1	245117	44.71	0
1	245674	44.81	0
1	246231	44.91	0
1	246797	45.01	0
1	247354	45.11	0
1	247911	45.21	0
1	248468	45.31	0
1	249025	45.41	0
1	249582	45.51	0
1	250139	45.61	0
1	250696	45.71	0
1	251253	45.81	0
1	251810	45.91	0
1	252376	46.01	0
1	252933	46.11	0
1	253490	46.21	0
1	254047	46.31	0
1	254604	46.41	0
1	255161	46.51	0
1	255718	46.61	0
1	256275	46.71	0
1	256832	46.81	0
1	257389	46.91	0
1	257955	47.01	0
1	258512	47.11	0
1	259069	47.21	0
1	259626	47.31	0
1	260183	47.41	0
1	260740	47.51	0
1	261297	47.61	0
1	261854	47.71	0
1	262411	47.81	0
1	262968	47.91	0
1	263534	48.01	0
1	264091	48.11	0
1	264648	48.21	0
1	265205	48.31	0
1	265762	48.41	0
1	266319	48.51	0
1	266876	48.61	0
1	267433	48.71	0
1	267990	48.81	0
1	268547	48.91	0
1	269113	49.01	0
1	269670	49.11	0
1	270227	49.21	0
1	270784	49.31	0
1	271341	49.41	0
1	271898	49.51	0
1	272455	49.61	0
1	273012	49.71	0
1	273569	49.81	0
1	274126	49.91	0
1	274692	50.01	0
1	275249	50.11	0
1	275806	50.21	0
1	276363	50.31	0
1	276920	50.41	0
1	277477	50.51	0
1	278034	50.61	0
1	278591	50.71	0
1	279148	50.81	0
1	279705	50.91	0
1	280271	51.01	0
1	280828	51.11	0
1	281385	51.21	0
1	281942	51.31	0
1	282499	51.41	0
1	283056	51.51	0
1	283613	51.61	0
1	284170	51.71	0
1	284727	51.81	0
1	285284	51.91	0
1	285850	52.01	0
1	286407	52.11	0
1	286964	52.21	0
1	287521	52.31	0
1	288078	52.41	0
1	288635	52.51	0
1	289192	52.61	0
1	289749	52.71	0
1	290306	52.81	0
1	290863	52.91	0
1	291429	53.01	0
1	291986	53.11	0
1	292543	53.21	0
1	293100	53.31	0
1	293657	53.41	0
1	294214	53.51	0
1	294771	53.61	0
1	295328	53.71	0
1	295885	53.81	0
1	296442	53.91	0
1	297008	54.01	0
1	297565	54.11	0
1	298122	54.21	0
1	298679	54.31	0
1	299236	54.41	0
1	299793	54.51	0
1	300350	54.61	0
1	300907	54.71	0
1	301464	54.81	0
1	302021	54.91	0
1	302587	55.01	0
1	303144	55.11	0
1	303701	55.21	0
1	304258	55.31	0
1	304815	55.41	0
1	305372	55.51	0
1	305929	55.61	0
1	306486	55.71	0
1	307043	55.81	0
1	307600	55.91	0
1	308166	56.01	0
1	308723	56.11	0
1	309280	56.21	0
1	309837	56.31	0
1	310394	56.41	0
1	310951	56.51	0
1	311508	56.61	0
1	312065	56.71	0
1	312622	56.81	0
1	313179	56.91	0
1	313745	57.01	0
1	314302	57.11	0
1	314859	57.21	0
1	315416	57.31	0
1	315973	57.41	0
1	316530	57.51	0
1	317087	57.61	0
1	317644	57.71	0
1	318201	57.81	0
1	318758	57.91	0
1	319324	58.01	0
1	319881	58.11	0
1	320438	58.21	0
1	320995	58.31	0
1	321552	58.41	0
1	322109	58.51	0
1	322666	58.61	0
1	323223	58.71	0
1	323780	58.81	0
1	324337	58.91	0
1	324903	59.01	0
1	325460	59.11	0
1	326017	59.21	0
1	326574	59.31	0
1	327131	59.41	0
1	327688	59.51	0
1	328245	59.61	0
1	328802	59.71	0
1	329359	59.81	0
1	329916	59.91	0
1	330482	60.01	0
1	331039	60.11	0
1	331596	60.21	0
1	332153	60.31	0
1	332710	60.41	0
1	333267	60.51	0
1	333824	60.61	0
1	334381	60.71	0
1	334938	60.81	0
1	335495	60.91	0
1	336061	61.01	0
1	336618	61.11	0
1	337175	61.21	0
1	337732	61.31	0
1	338289	61.41	0
1	338846	61.51	0
1	339403	61.61	0
1	339960	61.71	0
1	340517	61.81	0
1	341074	61.91	0
1	341640	62.01	0
1	342197	62.11	0
1	342754	62.21	0
1	343311	62.31	0
1	343868	62.41	0
1	344425	62.51	0
1	344982	62.61	0
1	345539	62.71	0
1	346096	62.81	0
1	346653	62.91	0
1	347219	63.01	0
1	347776	63.11	0
1	348333	63.21	0
1	348890	63.31	0
1	349447	63.41	0
1	350004	63.51	0
1	350561	63.61	0
1	351118	63.71	0
1	351675	63.81	0
1	352232	63.91	0
1	352798	64.01	0
1	353355	64.11	0
1	353912	64.21	0
1	354469	64.31	0
1	355026	64.41	0
1	355583	64.51	0
1	356140	64.61	0
1	356697	64.71	0
1	357254	64.81	0
1	357811	64.91	0
1	358377	65.01	0
1	358934	65.11	0
1	359491	65.21	0
1	360048	65.31	0
1	360605	65.41	0
1	361162	65.51	0
1	361719	65.61	0
1	362276	65.71	0
1	362833	65.81	0
1	363390	65.91	0
1	363956	66.01	0
1	364513	66.11	0
1	365070	66.21	0
1	365627	66.31	0
1	366184	66.41	0
1	366741	66.51	0
1	367298	66.61	0
1	367855	66.71	0
1	368412	66.81	0
1	368969	66.91	0
1	369535	67.01	0
1	370092	67.11	0
1	370649	67.21	0
1	371206	67.31	0
1	371763	67.41	0
1	372320	67.51	0
1	372877	67.61	0
1	373434	67.71	0
1	373991	67.81	0
1	374548	67.91	0
1	375114	68.01	0
1	375671	68.11	0
1	376228	68.21	0
1	376785	68.31	0
1	377342	68.41	0
1	377899	68.51	0
1	378456	68.61	0
1	379013	68.71	0
1	379570	68.81	0
1	380127	68.91	0
1	380693	69.01	0
1	381250	69.11	0
1	381807	69.21	0
1	382364	69.31	0
1	382921	69.41	0
1	383478	69.51	0
1	384035	69.61	0
1	384592	69.71	0
1	385149	69.81	0
1	385706	69.91	0
1	386272	70.01	0
1	386829	70.11	0
1	387386	70.21	0
1	387943	70.31	0
1	388500	70.41	0
1	389057	70.51	0
1	389614	70.61	0
1	390171	70.71	0
1	390728	70.81	0
1	391285	70.91	0
1	391851	71.01	0
1	392408	71.11	0
1	392965	71.21	0
1	393522	71.31	0
1	394079	71.41	0
1	394636	71.51	0
1	395193	71.61	0
1	395750	71.71	0
1	396307	71.81	0
1	396864	71.91	0
1	397430	72.01	0
1	397987	72.11	0
1	398544	72.21	0
1	399101	72.31	0
1	399658	72.41	0
1	400215	72.51	0
1	400772	72.61	0
1	401329	72.71	0
1	401886	72.81	0
1	402443	72.91	0
1	403009	73.01	0
1	403566	73.11	0
1	404123	73.21	0
1	404680	73.31	0
1	405237	73.41	0
1	405794	73.51	0
1	406351	73.61	0
1	406908	73.71	0
1	407465	73.81	0
1	408022	73.91	0
1	408588	74.01	0
1	409145	74.11	0
1	409702	74.21	0
1	410259	74.31	0
1	410816	74.41	0
1	411373	74.51	0
1	411930	74.61	0
1	412487	74.71	0
1	413044	74.81	0
1	413601	74.91	0
1	414167	75.01	0
1	414724	75.11	0
1	415281	75.21	0
1	415838	75.31	0
1	416395	75.41	0
1	416952	75.51	0
1	417509	75.61	0
1	418066	75.71	0
1	418623	75.81	0
1	419180	75.91	0
1	419746	76.01	0
1	420303	76.11	0
1	420860	76.21	0
1	421417	76.31	0
1	421974	76.41	0
1	422531	76.51	0
1	423088	76.61	0
1	423645	76.71	0
1	424202	76.81	0
1	424759	76.91	0
1	425325	77.01	0
1	425882	77.11	0
1	426439	77.21	0
1	426996	77.31	0
1	427553	77.41	0
1	428110	77.51	0
1	428667	77.61	0
1	429224	77.71	0
1	429781	77.81	0
1	430338	77.91	0
1	430904	78.01	0
1	431461	78.11	0
1	432018	78.21	0
1	432575	78.31	0
1	433132	78.41	0
1	433689	78.51	0
1	434246	78.61	0
1	434803	78.71	0
1	435360	78.81	0
1	435917	78.91	0
1	436483	79.01	0
1	437040	79.11	0
1	437597	79.21	0
1	438154	79.31	0
1	438711	79.41	0
1	439268	79.51	0
1	439825	79.61	0
1	440382	79.71	0
1	440939	79.81	0
1	441496	79.91	0
1	442062	80.01	0
1	442619	80.11	0
1	443176	80.21	0
1	443733	80.31	0
1	444290	80.41	0
1	444847	80.51	0
1	445404	80.61	0
1	445961	80.71	0
1	446518	80.81	0
1	447075	80.91	0
1	447641	81.01	0
1	448198	81.11	0
1	448755	81.21	0
1	449312	81.31	0
1	449869	81.41	0
1	450426	81.51	0
1	450983	81.61	0
1	451540	81.71	0
1	452097	81.81	0
1	452654	81.91	0
1	453220	82.01	0
1	453777	82.11	0
1	454334	82.21	0
1	454891	82.31	0
1	455448	82.41	0
1	456005	82.51	0
1	456562	82.61	0
1	457119	82.71	0
1	457676	82.81	0
1	458233	82.91	0
1	458799	83.01	0
1	459356	83.11	0
1	459913	83.21	0
1	460470	83.31	0
1	461027	83.41	0
1	461584	83.51	0
1	462141	83.61	0
1	462698	83.71	0
1	463255	83.81	0
1	463812	83.91	0
1	464378	84.01	0
1	464935	84.11	0
1	465492	84.21	0
1	466049	84.31	0
1	466606	84.41	0
1	467163	84.51	0
1	467720	84.61	0
1	468277	84.71	0
1	468834	84.81	0
1	469391	84.91	0
1	469957	85.01	0
1	470514	85.11	0
1	471071	85.21	0
1	471628	85.31	0
1	472185	85.41	0
1	472742	85.51	0
1	473299	85.61	0
1	473856	85.71	0
1	474413	85.81	0
1	474970	85.91	0
1	475536	86.01	0
1	476093	86.11	0
1	476650	86.21	0
1	477207	86.31	0
1	477764	86.41	0
1	478321	86.51	0
1	478878	86.61	0
1	479435	86.71	0
1	479992	86.81	0
1	480549	86.91	0
1	481115	87.01	0
1	481672	87.11	0
1	482229	87.21	0
1	482786	87.31	0
1	483343	87.41	0
1	483900	87.51	0
1	484457	87.61	0
1	485014	87.71	0
1	485571	87.81	0
1	486128	87.91	0
1	486694	88.01	0
1	487251	88.11	0
1	487808	88.21	0
1	488365	88.31	0
1	488922	88.41	0
1	489479	88.51	0
1	490036	88.61	0
1	490593	88.71	0
1	491150	88.81	0
1	491707	88.91	0
1	492273	89.01	0
1	492830	89.11	0
1	493387	89.21	0
1	493944	89.31	0
1	494501	89.41	0
1	495058	89.51	0
1	495615	89.61	0
1	496172	89.71	0
1	496729	89.81	0
1	497286	89.91	0
1	497852	90.01	0
1	498409	90.11	0
1	498966	90.21	0
1	499523	90.31	0
1	500080	90.41	0
1	500637	90.51	0
1	501194	90.61	0
1	501751	90.71	0
1	502308	90.81	0
1	502865	90.91	0
1	503431	91.01	0
1	503988	91.11	0
1	504545	91.21	0
1	505102	91.31	0
1	505659	91.41	0
1	506216	91.51	0
1	506773	91.61	0
1	507330	91.71	0
1	507887	91.81	0
1	508444	91.91	0
1	509010	92.01	0
1	509567	92.11	0
1	510124	92.21	0
1	510681	92.31	0
1	511238	92.41	0
1	511795	92.51	0
1	512352	92.61	0
1	512909	92.71	0
1	513466	92.81	0
1	514023	92.91	0
1	514589	93.01	0
1	515146	93.11	0
1	515703	93.21	0
1	516260	93.31	0
1	516817	93.41	0
1	517374	93.51	0
1	517931	93.61	0
1	518488	93.71	0
1	519045	93.81	0
1	519602	93.91	0
1	520168	94.01	0
1	520725	94.11	0
1	521282	94.21	0
1	521839	94.31	0
1	522396	94.41	0
1	522953	94.51	0
1	523510	94.61	0
1	524067	94.71	0
1	524624	94.81	0
1	525181	94.91	0
1	525747	95.01	0
1	526304	95.11	0
1	526861	95.21	0
1	527418	95.31	0
1	527975	95.41	0
1	528532	95.51	0
1	529089	95.61	0
1	529646	95.71	0
1	530203	95.81	0
1	530760	95.91	0
1	531326	96.01	0
1	531883	96.11	0
1	532440	96.21	0
1	532997	96.31	0
1	533554	96.41	0
1	534111	96.51	0
1	534668	96.61	0
1	535225	96.71	0
1	535782	96.81	0
1	536339	96.91	0
1	536905	97.01	0
1	537462	97.11	0
1	538019	97.21	0
1	538576	97.31	0
1	539133	97.41	0
1	539690	97.51	0
1	540247	97.61	0
1	540804	97.71	0
1	541361	97.81	0
1	541918	97.91	0
1	542484	98.01	0
1	543041	98.11	0
1	543598	98.21	0
1	544155	98.31	0
1	544712	98.41	0
1	545269	98.51	0
1	545826	98.61	0
1	546383	98.71	0
1	546940	98.81	0
1	547497	98.91	0
1	548063	99.01	0
1	548620	99.11	0
1	549177	99.21	0
1	549734	99.31	0
1	550291	99.41	0
1	550848	99.51	0
1	551405	99.61	0
1	551962	99.71	0
1	552519	99.81	0
1	553076	99.91	0
2	113	1.11	0
2	670	1.21	0
2	1227	1.31	0
2	1784	1.41	0
2	2341	1.51	0
2	2898	1.61	0
2	3455	1.71	0
2	4012	1.81	0
2	4569	1.91	0
2	5135	2.01	0
2	5692	2.11	0
2	6249	2.21	0
2	6806	2.31	0
2	7363	2.41	0
2	7920	2.51	0
2	8477	2.61	0
2	9034	2.71	0
2	9591	2.81	0
2	10148	2.91	0
2	10714	3.01	0
2	11271	3.11	0
2	11828	3.21	0
2	12385	3.31	0
2	12942	3.41	0
2	13499	3.51	0
2	14056	3.61	0
2	14613	3.71	0
2	15170	3.81	0
2	15727	3.91	0
2	16293	4.01	0
2	16850	4.11	0
2	17407	4.21	0
2	17964	4.31	0
2	18521	4.41	0
2	19078	4.51	0
2	19635	4.61	0
2	20192	4.71	0
2	20749	4.81	0
2	21306	4.91	0
2	21872	5.01	0
2	22429	5.11	0
2	22986	5.21	0
2	23543	5.31	0
2	24100	5.41	0
2	24657	5.51	0
2	25214	5.61	0
2	25771	5.71	0
2	26328	5.81	0
2	26885	5.91	0
2	27451	6.01	0
2	28008	6.11	0
2	28565	6.21	0
2	29122	6.31	0
2	29679	6.41	0
2	30236	6.51	0
2	30793	6.61	0
2	31350	6.71	0
2	31907	6.81	0
2	32464	6.91	0
2	33030	7.01	0
2	33587	7.11	0
2	34144	7.21	0
2	34701	7.31	0
2	35258	7.41	0
2	35815	7.51	0
2	36372	7.61	0
2	36929	7.71	0
2	37486	7.81	0
2	38043	7.91	0
2	38609	8.01	0
2	39166	8.11	0
2	39723	8.21	0
2	40280	8.31	0
2	40837	8.41	0
2	41394	8.51	0
2	41951	8.61	0
2	42508	8.71	0
2	43065	8.81	0
2	43622	8.91	0
2	44188	9.01	0
2	44745	9.11	0
2	45302	9.21	0
2	45859	9.31	0
2	46416	9.41	0
2	46973	9.51	0
2	47530	9.61	0
2	48087	9.71	0
2	48644	9.81	0
2	49201	9.91	0
2	51532	10.01	0
2	52089	10.11	0
2	52646	10.21	0
2	53203	10.31	0
2	53760	10.41	0
2	54317	10.51	0
2	54874	10.61	0
2	55431	10.71	0
2	55988	10.81	0
2	56545	10.91	0
2	57111	11.01	0
2	57668	11.11	0
2	58225	11.21	0
2	58782	11.31	0
2	59339	11.41	0
2	59896	11.51	0
2	60453	11.61	0
2	61010	11.71	0
2	61567	11.81	0
2	62124	11.91	0
2	62690	12.01	0
2	63247	12.11	0
2	63804	12.21	0
2	64361	12.31	0
2	64918	12.41	0
2	65475	12.51	0
2	66032	12.61	0
2	66589	12.71	0
2	67146	12.81	0
2	67703	12.91	0
2	68269	13.01	0
2	68826	13.11	0
2	69383	13.21	0
2	69940	13.31	0
2	70497	13.41	0
2	71054	13.51	0
2	71611	13.61	0
2	72168	13.71	0
2	72725	13.81	0
2	73282	13.91	0
2	73848	14.01	0
2	74405	14.11	0
2	74962	14.21	0
2	75519	14.31	0
2	76076	14.41	0
2	76633	14.51	0
2	77190	14.61	0
2	77747	14.71	0
2	78304	14.81	0
2	78861	14.91	0
2	79427	15.01	0
2	79984	15.11	0
2	80541	15.21	0
2	81098	15.31	0
2	81655	15.41	0
2	82212	15.51	0
2	82769	15.61	0
2	83326	15.71	0
2	83883	15.81	0
2	84440	15.91	0
2	85006	16.01	0
2	85563	16.11	0
2	86120	16.21	0
2	86677	16.31	0
2	87234	16.41	0
2	87791	16.51	0
2	88348	16.61	0
2	88905	16.71	0
2	89462	16.81	0
2	90019	16.91	0
2	90585	17.01	0
2	91142	17.11	0
2	91699	17.21	0
2	92256	17.31	0
2	92813	17.41	0
2	93370	17.51	0
2	93927	17.61	0
2	94484	17.71	0
2	95041	17.81	0
2	95598	17.91	0
2	96164	18.01	0
2	96721	18.11	0
2	97278	18.21	0
2	97835	18.31	0
2	98392	18.41	0
2	98949	18.51	0
2	99506	18.61	0
2	100063	18.71	0
2	100620	18.81	0
2	101177	18.91	0
2	101743	19.01	0
2	102300	19.11	0
2	102857	19.21	0
2	103414	19.31	0
2	103971	19.41	0
2	104528	19.51	0
2	105085	19.61	0
2	105642	19.71	0
2	106199	19.81	0
2	106756	19.91	0
2	107322	20.01	0
2	107879	20.11	0
2	108436	20.21	0
2	108993	20.31	0
2	109550	20.41	0
2	110107	20.51	0
2	110664	20.61	0
2	111221	20.71	0
2	111778	20.81	0
2	112335	20.91	0
2	112901	21.01	0
2	113458	21.11	0
2	114015	21.21	0
2	114572	21.31	0
2	115129	21.41	0
2	115686	21.51	0
2	116243	21.61	0
2	116800	21.71	0
2	117357	21.81	0
2	117914	21.91	0
2	118480	22.01	0
2	119037	22.11	0
2	119594	22.21	0
2	120151	22.31	0
2	120708	22.41	0
2	121265	22.51	0
2	121822	22.61	0
2	122379	22.71	0
2	122936	22.81	0
2	123493	22.91	0
2	124059	23.01	0
2	124616	23.11	0
2	125173	23.21	0
2	125730	23.31	0
2	126287	23.41	0
2	126844	23.51	0
2	127401	23.61	0
2	127958	23.71	0
2	128515	23.81	0
2	129072	23.91	0
2	129638	24.01	0
2	130195	24.11	0
2	130752	24.21	0
2	131309	24.31	0
2	131866	24.41	0
2	132423	24.51	0
2	132980	24.61	0
2	133537	24.71	0
2	134094	24.81	0
2	134651	24.91	0
2	135217	25.01	0
2	135774	25.11	0
2	136331	25.21	0
2	136888	25.31	0
2	137445	25.41	0
2	138002	25.51	0
2	138559	25.61	0
2	139116	25.71	0
2	139673	25.81	0
2	140230	25.91	0
2	140796	26.01	0
2	141353	26.11	0
2	141910	26.21	0
2	142467	26.31	0
2	143024	26.41	0
2	143581	26.51	0
2	144138	26.61	0
2	144695	26.71	0
2	145252	26.81	0
2	145809	26.91	0
2	146375	27.01	0
2	146932	27.11	0
2	147489	27.21	0
2	148046	27.31	0
2	148603	27.41	0
2	149160	27.51	0
2	149717	27.61	0
2	150274	27.71	0
2	150831	27.81	0
2	151388	27.91	0
2	151954	28.01	0
2	152511	28.11	0
2	153068	28.21	0
2	153625	28.31	0
2	154182	28.41	0
2	154739	28.51	0
2	155296	28.61	0
2	155853	28.71	0
2	156410	28.81	0
2	156967	28.91	0
2	157533	29.01	0
2	158090	29.11	0
2	158647	29.21	0
2	159204	29.31	0
2	159761	29.41	0
2	160318	29.51	0
2	160875	29.61	0
2	161432	29.71	0
2	161989	29.81	0
2	162546	29.91	0
2	163112	30.01	0
2	163669	30.11	0
2	164226	30.21	0
2	164783	30.31	0
2	165340	30.41	0
2	165897	30.51	0
2	166454	30.61	0
2	167011	30.71	0
2	167568	30.81	0
2	168125	30.91	0
2	168691	31.01	0
2	169248	31.11	0
2	169805	31.21	0
2	170362	31.31	0
2	170919	31.41	0
2	171476	31.51	0
2	172033	31.61	0
2	172590	31.71	0
2	173147	31.81	0
2	173704	31.91	0
2	174270	32.01	0
2	174827	32.11	0
2	175384	32.21	0
2	175941	32.31	0
2	176498	32.41	0
2	177055	32.51	0
2	177612	32.61	0
2	178169	32.71	0
2	178726	32.81	0
2	179283	32.91	0
2	179849	33.01	0
2	180406	33.11	0
2	180963	33.21	0
2	181520	33.31	0
2	182077	33.41	0
2	182634	33.51	0
2	183191	33.61	0
2	183748	33.71	0
2	184305	33.81	0
2	184862	33.91	0
2	185428	34.01	0
2	185985	34.11	0
2	186542	34.21	0
2	187099	34.31	0
2	187656	34.41	0
2	188213	34.51	0
2	188770	34.61	0
2	189327	34.71	0
2	189884	34.81	0
2	190441	34.91	0
2	191007	35.01	0
2	191564	35.11	0
2	192121	35.21	0
2	192678	35.31	0
2	193235	35.41	0
2	193792	35.51	0
2	194349	35.61	0
2	194906	35.71	0
2	195463	35.81	0
2	196020	35.91	0
2	196586	36.01	0
2	197143	36.11	0
2	197700	36.21	0
2	198257	36.31	0
2	198814	36.41	0
2	199371	36.51	0
2	199928	36.61	0
2	200485	36.71	0
2	201042	36.81	0
2	201599	36.91	0
2	202165	37.01	0
2	202722	37.11	0
2	203279	37.21	0
2	203836	37.31	0
2	204393	37.41	0
2	204950	37.51	0
2	205507	37.61	0
2	206064	37.71	0
2	206621	37.81	0
2	207178	37.91	0
2	207744	38.01	0
2	208301	38.11	0
2	208858	38.21	0
2	209415	38.31	0
2	209972	38.41	0
2	210529	38.51	0
2	211086	38.61	0
2	211643	38.71	0
2	212200	38.81	0
2	212757	38.91	0
2	213323	39.01	0
2	213880	39.11	0
2	214437	39.21	0
2	214994	39.31	0
2	215551	39.41	0
2	216108	39.51	0
2	216665	39.61	0
2	217222	39.71	0
2	217779	39.81	0
2	218336	39.91	0
2	218902	40.01	0
2	219459	40.11	0
2	220016	40.21	0
2	220573	40.31	0
2	221130	40.41	0
2	221687	40.51	0
2	222244	40.61	0
2	222801	40.71	0
2	223358	40.81	0
2	223915	40.91	0
2	224481	41.01	0
2	225038	41.11	0
2	225595	41.21	0
2	226152	41.31	0
2	226709	41.41	0
2	227266	41.51	0
2	227823	41.61	0
2	228380	41.71	0
2	228937	41.81	0
2	229494	41.91	0
2	230060	42.01	0
2	230617	42.11	0
2	231174	42.21	0
2	231731	42.31	0
2	232288	42.41	0
2	232845	42.51	0
2	233402	42.61	0
2	233959	42.71	0
2	234516	42.81	0
2	235073	42.91	0
2	235639	43.01	0
2	236196	43.11	0
2	236753	43.21	0
2	237310	43.31	0
2	237867	43.41	0
2	238424	43.51	0
2	238981	43.61	0
2	239538	43.71	0
2	240095	43.81	0
2	240652	43.91	0
2	241218	44.01	0
2	241775	44.11	0
2	242332	44.21	0
2	242889	44.31	0
2	243446	44.41	0
2	244003	44.51	0
2	244560	44.61	0
2	245117	44.71	0
2	245674	44.81	0
2	246231	44.91	0
2	246797	45.01	0
2	247354	45.11	0
2	247911	45.21	0
2	248468	45.31	0
2	249025	45.41	0
2	249582	45.51	0
2	250139	45.61	0
2	250696	45.71	0
2	251253	45.81	0
2	251810	45.91	0
2	252376	46.01	0
2	252933	46.11	0
2	253490	46.21	0
2	254047	46.31	0
2	254604	46.41	0
2	255161	46.51	0
2	255718	46.61	0
2	256275	46.71	0
2	256832	46.81	0
2	257389	46.91	0
2	257955	47.01	0
2	258512	47.11	0
2	259069	47.21	0
2	259626	47.31	0
2	260183	47.41	0
2	260740	47.51	0
2	261297	47.61	0
2	261854	47.71	0
2	262411	47.81	0
2	262968	47.91	0
2	263534	48.01	0
2	264091	48.11	0
2	264648	48.21	0
2	265205	48.31	0
2	265762	48.41	0
2	266319	48.51	0
2	266876	48.61	0
2	267433	48.71	0
2	267990	48.81	0
2	268547	48.91	0
2	269113	49.01	0
2	269670	49.11	0
2	270227	49.21	0
2	270784	49.31	0
2	271341	49.41	0
2	271898	49.51	0
2	272455	49.61	0
2	273012	49.71	0
2	273569	49.81	0
2	274126	49.91	0
2	274692	50.01	0
2	275249	50.11	0
2	275806	50.21	0
2	276363	50.31	0
2	276920	50.41	0
2	277477	50.51	0
2	278034	50.61	0
2	278591	50.71	0
2	279148	50.81	0
2	279705	50.91	0
2	280271	51.01	0
2	280828	51.11	0
2	281385	51.21	0
2	281942	51.31	0
2	282499	51.41	0
2	283056	51.51	0
2	283613	51.61	0
2	284170	51.71	0
2	284727	51.81	0
2	285284	51.91	0
2	285850	52.01	0
2	286407	52.11	0
2	286964	52.21	0
2	287521	52.31	0
2	288078	52.41	0
2	288635	52.51	0
2	289192	52.61	0
2	289749	52.71	0
2	290306	52.81	0
2	290863	52.91	0
2	291429	53.01	0
2	291986	53.11	0
2	292543	53.21	0
2	293100	53.31	0
2	293657	53.41	0
2	294214	53.51	0
2	294771	53.61	0
2	295328	53.71	0
2	295885	53.81	0
2	296442	53.91	0
2	297008	54.01	0
2	297565	54.11	0
2	298122	54.21	0
2	298679	54.31	0
2	299236	54.41	0
2	299793	54.51	0
2	300350	54.61	0
2	300907	54.71	0
2	301464	54.81	0
2	302021	54.91	0
2	302587	55.01	0
2	303144	55.11	0
2	303701	55.21	0
2	304258	55.31	0
2	304815	55.41	0
2	305372	55.51	0
2	305929	55.61	0
2	306486	55.71	0
2	307043	55.81	0
2	307600	55.91	0
2	308166	56.01	0
2	308723	56.11	0
2	309280	56.21	0
2	309837	56.31	0
2	310394	56.41	0
2	310951	56.51	0
2	311508	56.61	0
2	312065	56.71	0
2	312622	56.81	0
2	313179	56.91	0
2	313745	57.01	0
2	314302	57.11	0
2	314859	57.21	0
2	315416	57.31	0
2	315973	57.41	0
2	316530	57.51	0
2	317087	57.61	0
2	317644	57.71	0
2	318201	57.81	0
2	318758	57.91	0
2	319324	58.01	0
2	319881	58.11	0
2	320438	58.21	0
2	320995	58.31	0
2	321552	58.41	0
2	322109	58.51	0
2	322666	58.61	0
2	323223	58.71	0
2	323780	58.81	0
2	324337	58.91	0
2	324903	59.01	0
2	325460	59.11	0
2	326017	59.21	0
2	326574	59.31	0
2	327131	59.41	0
2	327688	59.51	0
2	328245	59.61	0
2	328802	59.71	0
2	329359	59.81	0
2	329916	59.91	0
2	330482	60.01	0
2	331039	60.11	0
2	331596	60.21	0
2	332153	60.31	0
2	332710	60.41	0
2	333267	60.51	0
2	333824	60.61	0
2	334381	60.71	0
2	334938	60.81	0
2	335495	60.91	0
2	336061	61.01	0
2	336618	61.11	0
2	337175	61.21	0
2	337732	61.31	0
2	338289	61.41	0
2	338846	61.51	0
2	339403	61.61	0
2	339960	61.71	0
2	340517	61.81	0
2	341074	61.91	0
2	341640	62.01	0
2	342197	62.11	0
2	342754	62.21	0
2	343311	62.31	0
2	343868	62.41	0
2	344425	62.51	0
2	344982	62.61	0
2	345539	62.71	0
2	346096	62.81	0
2	346653	62.91	0
2	347219	63.01	0
2	347776	63.11	0
2	348333	63.21	0
2	348890	63.31	0
2	349447	63.41	0
2	350004	63.51	0
2	350561	63.61	0
2	351118	63.71	0
2	351675	63.81	0
2	352232	63.91	0
2	352798	64.01	0
2	353355	64.11	0
2	353912	64.21	0
2	354469	64.31	0
2	355026	64.41	0
2	355583	64.51	0
2	356140	64.61	0
2	356697	64.71	0
2	357254	64.81	0
2	357811	64.91	0
2	358377	65.01	0
2	358934	65.11	0
2	359491	65.21	0
2	360048	65.31	0
2	360605	65.41	0
2	361162	65.51	0
2	361719	65.61	0
2	362276	65.71	0
2	362833	65.81	0
2	363390	65.91	0
2	363956	66.01	0
2	364513	66.11	0
2	365070	66.21	0
2	365627	66.31	0
2	366184	66.41	0
2	366741	66.51	0
2	367298	66.61	0
2	367855	66.71	0
2	368412	66.81	0
2	368969	66.91	0
2	369535	67.01	0
2	370092	67.11	0
2	370649	67.21	0
2	371206	67.31	0
2	371763	67.41	0
2	372320	67.51	0
2	372877	67.61	0
2	373434	67.71	0
2	373991	67.81	0
2	374548	67.91	0
2	375114	68.01	0
2	375671	68.11	0
2	376228	68.21	0
2	376785	68.31	0
2	377342	68.41	0
2	377899	68.51	0
2	378456	68.61	0
2	379013	68.71	0
2	379570	68.81	0
2	380127	68.91	0
2	380693	69.01	0
2	381250	69.11	0
2	381807	69.21	0
2	382364	69.31	0
2	382921	69.41	0
2	383478	69.51	0
2	384035	69.61	0
2	384592	69.71	0
2	385149	69.81	0
2	385706	69.91	0
2	386272	70.01	0
2	386829	70.11	0
2	387386	70.21	0
2	387943	70.31	0
2	388500	70.41	0
2	389057	70.51	0
2	389614	70.61	0
2	390171	70.71	0
2	390728	70.81	0
2	391285	70.91	0
2	391851	71.01	0
2	392408	71.11	0
2	392965	71.21	0
2	393522	71.31	0
2	394079	71.41	0
2	394636	71.51	0
2	395193	71.61	0
2	395750	71.71	0
2	396307	71.81	0
2	396864	71.91	0
2	397430	72.01	0
2	397987	72.11	0
2	398544	72.21	0
2	399101	72.31	0
2	399658	72.41	0
2	400215	72.51	0
2	400772	72.61	0
2	401329	72.71	0
2	401886	72.81	0
2	402443	72.91	0
2	403009	73.01	0
2	403566	73.11	0
2	404123	73.21	0
2	404680	73.31	0
2	405237	73.41	0
2	405794	73.51	0
2	406351	73.61	0
2	406908	73.71	0
2	407465	73.81	0
2	408022	73.91	0
2	408588	74.01	0
2	409145	74.11	0
2	409702	74.21	0
2	410259	74.31	0
2	410816	74.41	0
2	411373	74.51	0
2	411930	74.61	0
2	412487	74.71	0
2	413044	74.81	0
2	413601	74.91	0
2	414167	75.01	0
2	414724	75.11	0
2	415281	75.21	0
2	415838	75.31	0
2	416395	75.41	0
2	416952	75.51	0
2	417509	75.61	0
2	418066	75.71	0
2	418623	75.81	0
2	419180	75.91	0
2	419746	76.01	0
2	420303	76.11	0
2	420860	76.21	0
2	421417	76.31	0
2	421974	76.41	0
2	422531	76.51	0
2	423088	76.61	0
2	423645	76.71	0
2	424202	76.81	0
2	424759	76.91	0
2	425325	77.01	0
2	425882	77.11	0
2	426439	77.21	0
2	426996	77.31	0
2	427553	77.41	0
2	428110	77.51	0
2	428667	77.61	0
2	429224	77.71	0
2	429781	77.81	0
2	430338	77.91	0
2	430904	78.01	0
2	431461	78.11	0
2	432018	78.21	0
2	432575	78.31	0
2	433132	78.41	0
2	433689	78.51	0
2	434246	78.61	0
2	434803	78.71	0
2	435360	78.81	0
2	435917	78.91	0
2	436483	79.01	0
2	437040	79.11	0
2	437597	79.21	0
2	438154	79.31	0
2	438711	79.41	0
2	439268	79.51	0
2	439825	79.61	0
2	440382	79.71	0
2	440939	79.81	0
2	441496	79.91	0
2	442062	80.01	0
2	442619	80.11	0
2	443176	80.21	0
2	443733	80.31	0
2	444290	80.41	0
2	444847	80.51	0
2	445404	80.61	0
2	445961	80.71	0
2	446518	80.81	0
2	447075	80.91	0
2	447641	81.01	0
2	448198	81.11	0
2	448755	81.21	0
2	449312	81.31	0
2	449869	81.41	0
2	450426	81.51	0
2	450983	81.61	0
2	451540	81.71	0
2	452097	81.81	0
2	452654	81.91	0
2	453220	82.01	0
2	453777	82.11	0
2	454334	82.21	0
2	454891	82.31	0
2	455448	82.41	0
2	456005	82.51	0
2	456562	82.61	0
2	457119	82.71	0
2	457676	82.81	0
2	458233	82.91	0
2	458799	83.01	0
2	459356	83.11	0
2	459913	83.21	0
2	460470	83.31	0
2	461027	83.41	0
2	461584	83.51	0
2	462141	83.61	0
2	462698	83.71	0
2	463255	83.81	0
2	463812	83.91	0
2	464378	84.01	0
2	464935	84.11	0
2	465492	84.21	0
2	466049	84.31	0
2	466606	84.41	0
2	467163	84.51	0
2	467720	84.61	0
2	468277	84.71	0
2	468834	84.81	0
2	469391	84.91	0
2	469957	85.01	0
2	470514	85.11	0
2	471071	85.21	0
2	471628	85.31	0
2	472185	85.41	0
2	472742	85.51	0
2	473299	85.61	0
2	473856	85.71	0
2	474413	85.81	0
2	474970	85.91	0
2	475536	86.01	0
2	476093	86.11	0
2	476650	86.21	0
2	477207	86.31	0
2	477764	86.41	0
2	478321	86.51	0
2	478878	86.61	0
2	479435	86.71	0
2	479992	86.81	0
2	480549	86.91	0
2	481115	87.01	0
2	481672	87.11	0
2	482229	87.21	0
2	482786	87.31	0
2	483343	87.41	0
2	483900	87.51	0
2	484457	87.61	0
2	485014	87.71	0
2	485571	87.81	0
2	486128	87.91	0
2	486694	88.01	0
2	487251	88.11	0
2	487808	88.21	0
2	488365	88.31	0
2	488922	88.41	0
2	489479	88.51	0
2	490036	88.61	0
2	490593	88.71	0
2	491150	88.81	0
2	491707	88.91	0
2	492273	89.01	0
2	492830	89.11	0
2	493387	89.21	0
2	493944	89.31	0
2	494501	89.41	0
2	495058	89.51	0
2	495615	89.61	0
2	496172	89.71	0
2	496729	89.81	0
2	497286	89.91	0
2	497852	90.01	0
2	498409	90.11	0
2	498966	90.21	0
2	499523	90.31	0
2	500080	90.41	0
2	500637	90.51	0
2	501194	90.61	0
2	501751	90.71	0
2	502308	90.81	0
2	502865	90.91	0
2	503431	91.01	0
2	503988	91.11	0
2	504545	91.21	0
2	505102	91.31	0
2	505659	91.41	0
2	506216	91.51	0
2	506773	91.61	0
2	507330	91.71	0
2	507887	91.81	0
2	508444	91.91	0
2	509010	92.01	0
2	509567	92.11	0
2	510124	92.21	0
2	510681	92.31	0
2	511238	92.41	0
2	511795	92.51	0
2	512352	92.61	0
2	512909	92.71	0
2	513466	92.81	0
2	514023	92.91	0
2	514589	93.01	0
2	515146	93.11	0
2	515703	93.21	0
2	516260	93.31	0
2	516817	93.41	0
2	517374	93.51	0
2	517931	93.61	0
2	518488	93.71	0
2	519045	93.81	0
2	519602	93.91	0
2	520168	94.01	0
2	520725	94.11	0
2	521282	94.21	0
2	521839	94.31	0
2	522396	94.41	0
2	522953	94.51	0
2	523510	94.61	0
2	524067	94.71	0
2	524624	94.81	0
2	525181	94.91	0
2	525747	95.01	0
2	526304	95.11	0
2	526861	95.21	0
2	527418	95.31	0
2	527975	95.41	0
2	528532	95.51	0
2	529089	95.61	0
2	529646	95.71	0
2	530203	95.81	0
2	530760	95.91	0
2	531326	96.01	0
2	531883	96.11	0
2	532440	96.21	0
2	532997	96.31	0
2	533554	96.41	0
2	534111	96.51	0
2	534668	96.61	0
2	535225	96.71	0
2	535782	96.81	0
2	536339	96.91	0
2	536905	97.01	0
2	537462	97.11	0
2	538019	97.21	0
2	538576	97.31	0
2	539133	97.41	0
2	539690	97.51	0
2	540247	97.61	0
2	540804	97.71	0
2	541361	97.81	0
2	541918	97.91	0
2	542484	98.01	0
2	543041	98.11	0
2	543598	98.21	0
2	544155	98.31	0
2	544712	98.41	0
2	545269	98.51	0
2	545826	98.61	0
2	546383	98.71	0
2	546940	98.81	0
2	547497	98.91	0
2	548063	99.01	0
2	548620	99.11	0
2	549177	99.21	0
2	549734	99.31	0
2	550291	99.41	0
2	550848	99.51	0
2	551405	99.61	0
2	551962	99.71	0
2	552519	99.81	0
2	553076	99.91	0
3	113	1.11	0.000179096
3	670	1.21	0.000340852
3	1227	1.31	0.000467435
3	1784	1.41	0.000562893
3	2341	1.51	0.000631106
3	2898	1.61	0.000675745
3	3455	1.71	0.000700245
3	4012	1.81	0.000707784
3	4569	1.91	0.000701273
3	5135	2.01	0.000683354
3	5692	2.11	0.000656398
3	6249	2.21	0.000622512
3	6806	2.31	0.000583548
3	7363	2.41	0.000541117
3	7920	2.51	0.000496604
3	8477	2.61	0.000451181
3	9034	2.71	0.000405825
3	9591	2.81	0.00036134
3	10148	2.91	0.000318365
3	10714	3.01	0.0002774
3	11271	3.11	0.00023882
3	11828	3.21	0.000202887
3	12385	3.31	0.00016977
3	12942	3.41	0.000139558
3	13499	3.51	0.000112271
3	14056	3.61	8.78717e-05
3	14613	3.71	6.628e-05
3	15170	3.81	4.73785e-05
3	15727	3.91	3.1023e-05
3	16293	4.01	1.70493e-05
3	16850	4.11	5.28023e-06
3	17407	4.21	-4.46922e-06
3	17964	4.31	-1.2387e-05
3	18521	4.41	-1.86602e-05
3	19078	4.51	-2.34717e-05
3	19635	4.61	-2.69978e-05
3	20192	4.71	-2.94062e-05
3	20749	4.81	-3.08545e-05
3	21306	4.91	-3.14892e-05
3	21872	5.01	-3.14451e-05
3	22429	5.11	-3.0845e-05
3	22986	5.21	-2.97994e-05
3	23543	5.31	-2.84072e-05
3	24100	5.41	-2.67556e-05
3	24657	5.51	-2.49208e-05
3	25214	5.61	-2.29687e-05
3	25771	5.71	-2.09553e-05
3	26328	5.81	-1.89277e-05
3	26885	5.91	-1.6925e-05
3	27451	6.01	-1.49784e-05
3	28008	6.11	-1.31129e-05
3	28565	6.21	-1.13474e-05
3	29122	6.31	-9.69553e-06
3	29679	6.41	-8.16651e-06
3	30236	6.51	-6.76571e-06
3	30793	6.61	-5.49522e-06
3	31350	6.71	-4.35441e-06
3	31907	6.81	-3.34045e-06
3	32464	6.91	-2.44874e-06
3	33030	7.01	-1.6733e-06
3	33587	7.11	-1.00716e-06
3	34144	7.21	-4.42628e-07
3	34701	7.31	2.84224e-08
3	35258	7.41	4.14339e-07
3	35815	7.51	7.23492e-07
3	36372	7.61	9.6413e-07
3	36929	7.71	1.14424e-06
3	37486	7.81	1.27148e-06
3	38043	7.91	1.35305e-06
3	38609	8.01	1.3957e-06
3	39166	8.11	1.40565e-06
3	39723	8.21	1.3886e-06
3	40280	8.31	1.34971e-06
3	40837	8.41	1.2936e-06
3	41394	8.51	1.22437e-06
3	41951	8.61	1.14561e-06
3	42508	8.71	1.06046e-06
3	43065	8.81	9.71582e-07
3	43622	8.91	8.81246e-07
3	44188	9.01	7.91334e-07
3	44745	9.11	7.03381e-07
3	45302	9.21	6.18613e-07
3	45859	9.31	5.37979e-07
3	46416	9.41	4.62183e-07
3	46973	9.51	3.91714e-07
3	47530	9.61	3.26878e-07
3	48087	9.71	2.67827e-07
3	48644	9.81	2.14581e-07
3	49201	9.91	1.67052e-07
3	51532	10.01	1.25066e-07
3	52089	10.11	8.83794e-08
3	52646	10.21	5.66978e-08
3	53203	10.31	2.96922e-08
3	53760	10.41	7.00453e-09
3	54317	10.51	-1.17325e-08
3	54874	10.61	-2.68933e-08
3	55431	10.71	-3.88482e-08
3	55988	10.81	-4.79581e-08
3	56545	10.91	-5.45704e-08
3	57111	11.01	-5.90177e-08
3	57668	11.11	-6.16069e-08
3	58225	11.21	-6.26265e-08
3	58782	11.31	-6.23395e-08
3	59339	11.41	-6.09859e-08
3	59896	11.51	-5.87811e-08
3	60453	11.61	-5.59183e-08
3	61010	11.71	-5.25674e-08
3	61567	11.81	-4.88761e-08
3	62124	11.91	-4.4971e-08
3	62690	12.01	-4.09599e-08
3	63247	12.11	-3.69354e-08
3	63804	12.21	-3.29713e-08
3	64361	12.31	-2.9128e-08
3	64918	12.41	-2.54531e-08
3	65475	12.51	-2.19821e-08
3	66032	12.61	-1.87399e-08
3	66589	12.71	-1.57428e-08
3	67146	12.81	-1.30029e-08
3	67703	12.91	-1.05217e-08
3	68269	13.01	-8.29772e-09
3	68826	13.11	-6.32454e-09
3	69383	13.21	-4.59224e-09
3	69940	13.31	-3.08802e-09
3	70497	13.41	-1.79838e-09
3	71054	13.51	-7.08411e-10
3	71611	13.61	1.98241e-10
3	72168	13.71	9.37916e-10
3	72725	13.81	1.52767e-09
3	73282	13.91	1.98384e-09
3	73848	14.01	2.32276e-09
3	74405	14.11	2.55937e-09
3	74962	14.21	2.70788e-09
3	75519	14.31	2.78249e-09
3	76076	14.41	2.79243e-09
3	76633	14.51	2.7498e-09
3	77190	14.61	2.66525e-09
3	77747	14.71	2.54872e-09
3	78304	14.81	2.40803e-09
3	78861	14.91	2.24887e-09
3	79427	15.01	2.07763e-09
3	79984	15.11	1.89999e-09
3	80541	15.21	1.72236e-09
3	81098	15.31	1.54472e-09
3	81655	15.41	1.37064e-09
3	82212	15.51	1.20295e-09
3	82769	15.61	1.04379e-09
3	83326	15.71	8.94573e-10
3	83883	15.81	7.56017e-10
3	84440	15.91	6.29541e-10
3	85006	16.01	5.13012e-10
3	85563	16.11	4.09273e-10
3	86120	16.21	3.16902e-10
3	86677	16.31	2.3519e-10
3	87234	16.41	1.63425e-10
3	87791	16.51	1.02318e-10
3	88348	16.61	4.9738e-11
3	88905	16.71	5.68434e-12
3	89462	16.81	-3.05533e-11
3	90019	16.91	-5.8975e-11
3	90585	17.01	-8.10019e-11
3	91142	17.11	-9.80549e-11
3	91699	17.21	-1.11555e-10
3	92256	17.31	-1.18661e-10
3	92813	17.41	-1.23634e-10
3	93370	17.51	-1.23634e-10
3	93927	17.61	-1.23634e-10
3	94484	17.71	-1.21503e-10
3	95041	17.81	-1.14397e-10
3	95598	17.91	-1.07292e-10
3	96164	18.01	-1.00187e-10
3	96721	18.11	-9.30811e-11
3	97278	18.21	-8.59757e-11
3	97835	18.31	-7.88702e-11
3	98392	18.41	-7.17648e-11
3	98949	18.51	-6.46594e-11
3	99506	18.61	-5.7554e-11
3	100063	18.71	-5.04485e-11
3	100620	18.81	-4.33431e-11
3	101177	18.91	-3.62377e-11
3	101743	19.01	-2.91323e-11
3	102300	19.11	-2.20268e-11
3	102857	19.21	-1.7053e-11
3	103414	19.31	-1.49214e-11
3	103971	19.41	-1.35003e-11
3	104528	19.51	-1.27898e-11
3	105085	19.61	-1.13687e-11
3	105642	19.71	-9.9476e-12
3	106199	19.81	-9.23706e-12
3	106756	19.91	-8.52651e-12
3	107322	20.01	-7.81597e-12
3	107879	20.11	-7.10543e-12
3	108436	20.21	-6.39488e-12
3	108993	20.31	-5.68434e-12
3	109550	20.41	-4.9738e-12
3	110107	20.51	-4.26326e-12
3	110664	20.61	-4.26326e-12
3	111221	20.71	-3.55271e-12
3	111778	20.81	-3.55271e-12
3	112335	20.91	-2.84217e-12
3	112901	21.01	-2.84217e-12
3	113458	21.11	-2.84217e-12
3	114015	21.21	-2.13163e-12
3	114572	21.31	-2.13163e-12
3	115129	21.41	-2.13163e-12
3	115686	21.51	-1.42109e-12
3	116243	21.61	-1.42109e-12
3	116800	21.71	-1.42109e-12
3	117357	21.81	-1.42109e-12
3	117914	21.91	-1.42109e-12
3	118480	22.01	-7.10543e-13
3	119037	22.11	-7.10543e-13
3	119594	22.21	-7.10543e-13
3	120151	22.31	-7.10543e-13
3	120708	22.41	-7.10543e-13
3	121265	22.51	-7.10543e-13
3	121822	22.61	-7.10543e-13
3	122379	22.71	-7.10543e-13
3	122936	22.81	-7.10543e-13
3	123493	22.91	-7.10543e-13
3	124059	23.01	0
3	124616	23.11	0
3	125173	23.21	0
3	125730	23.31	0
3	126287	23.41	0
3	126844	23.51	0
3	127401	23.61	0
3	127958	23.71	0
3	128515	23.81	0
3	129072	23.91	0
3	129638	24.01	0
3	130195	24.11	0
3	130752	24.21	0
3	131309	24.31	0
3	131866	24.41	0
3	132423	24.51	0
3	132980	24.61	0
3	133537	24.71	0
3	134094	24.81	0
3	134651	24.91	0
3	135217	25.01	0
3	135774	25.11	0
3	136331	25.21	0
3	136888	25.31	0
3	137445	25.41	0
3	138002	25.51	0
3	138559	25.61	0
3	139116	25.71	0
3	139673	25.81	0
3	140230	25.91	0
3	140796	26.01	0
3	141353	26.11	0
3	141910	26.21	0
3	142467	26.31	0
3	143024	26.41	0
3	143581	26.51	0
3	144138	26.61	0
3	144695	26.71	0
3	145252	26.81	0
3	145809	26.91	0
3	146375	27.01	0
3	146932	27.11	0
3	147489	27.21	0
3	148046	27.31	0
3	148603	27.41	0
3	149160	27.51	0
3	149717	27.61	0
3	150274	27.71	0
3	150831	27.81	0
3	151388	27.91	0
3	151954	28.01	0
3	152511	28.11	0
3	153068	28.21	0
3	153625	28.31	0
3	154182	28.41	0
3	154739	28.51	0
3	155296	28.61	0
3	155853	28.71	0
3	156410	28.81	0
3	156967	28.91	0
3	157533	29.01	0
3	158090	29.11	0
3	158647	29.21	0
3	159204	29.31	0
3	159761	29.41	0
3	160318	29.51	0
3	160875	29.61	0
3	161432	29.71	0
3	161989	29.81	0
3	162546	29.91	0
3	163112	30.01	0
3	163669	30.11	0
3	164226	30.21	0
3	164783	30.31	0
3	165340	30.41	0
3	165897	30.51	0
3	166454	30.61	0
3	167011	30.71	0
3	167568	30.81	0
3	168125	30.91	0
3	168691	31.01	0
3	169248	31.11	0
3	169805	31.21	0
3	170362	31.31	0
3	170919	31.41	0
3	171476	31.51	0
3	172033	31.61	0
3	172590	31.71	0
3	173147	31.81	0
3	173704	31.91	0
3	174270	32.01	0
3	174827	32.11	0
3	175384	32.21	0
3	175941	32.31	0
3	176498	32.41	0
3	177055	32.51	0
3	177612	32.61	0
3	178169	32.71	0
3	178726	32.81	0
3	179283	32.91	0
3	179849	33.01	0
3	180406	33.11	0
3	180963	33.21	0
3	181520	33.31	0
3	182077	33.41	0
3	182634	33.51	0
3	183191	33.61	0
3	183748	33.71	0
3	184305	33.81	0
3	184862	33.91	0
3	185428	34.01	0
3	185985	34.11	0
3	186542	34.21	0
3	187099	34.31	0
3	187656	34.41	0
3	188213	34.51	0
3	188770	34.61	0
3	189327	34.71	0
3	189884	34.81	0
3	190441	34.91	0
3	191007	35.01	0
3	191564	35.11	0
3	192121	35.21	0
3	192678	35.31	0
3	193235	35.41	0
3	193792	35.51	0
3	194349	35.61	0
3	194906	35.71	0
3	195463	35.81	0
3	196020	35.91	0
3	196586	36.01	0
3	197143	36.11	0
3	197700	36.21	0
3	198257	36.31	0
3	198814	36.41	0
3	199371	36.51	0
3	199928	36.61	0
3	200485	36.71	0
3	201042	36.81	0
3	201599	36.91	0
3	202165	37.01	0
3	202722	37.11	0
3	203279	37.21	0
3	203836	37.31	0
3	204393	37.41	0
3	204950	37.51	0
3	205507	37.61	0
3	206064	37.71	0
3	206621	37.81	0
3	207178	37.91	0
3	207744	38.01	0
3	208301	38.11	0
3	208858	38.21	0
3	209415	38.31	0
3	209972	38.41	0
3	210529	38.51	0
3	211086	38.61	0
3	211643	38.71	0
3	212200	38.81	0
3	212757	38.91	0
3	213323	39.01	0
3	213880	39.11	0
3	214437	39.21	0
3	214994	39.31	0
3	215551	39.41	0
3	216108	39.51	0
3	216665	39.61	0
3	217222	39.71	0
3	217779	39.81	0
3	218336	39.91	0
3	218902	40.01	0
3	219459	40.11	0
3	220016	40.21	0
3	220573	40.31	0
3	221130	40.41	0
3	221687	40.51	0
3	222244	40.61	0
3	222801	40.71	0
3	223358	40.81	0
3	223915	40.91	0
3	224481	41.01	0
3	225038	41.11	0
3	225595	41.21	0
3	226152	41.31	0
3	226709	41.41	0
3	227266	41.51	0
3	227823	41.61	0
3	228380	41.71	0
3	228937	41.81	0
3	229494	41.91	0
3	230060	42.01	0
3	230617	42.11	0
3	231174	42.21	0
3	231731	42.31	0
3	232288	42.41	0
3	232845	42.51	0
3	233402	42.61	0
3	233959	42.71	0
3	234516	42.81	0
3	235073	42.91	0
3	235639	43.01	0
3	236196	43.11	0
3	236753	43.21	0
3	237310	43.31	0
3	237867	43.41	0
3	238424	43.51	0
3	238981	43.61	0
3	239538	43.71	0
3	240095	43.81	0
3	240652	43.91	0
3	241218	44.01	0
3	241775	44.11	0
3	242332	44.21	0
3	242889	44.31	0
3	243446	44.41	0
3	244003	44.51	0
3	244560	44.61	0
3	245117	44.71	0
3	245674	44.81	0
3	246231	44.91	0
3	246797	45.01	0
3	247354	45.11	0
3	247911	45.21	0
3	248468	45.31	0
3	249025	45.41	0
3	249582	45.51	0
3	250139	45.61	0
3	250696	45.71	0
3	251253	45.81	0
3	251810	45.91	0
3	252376	46.01	0
3	252933	46.11	0
3	253490	46.21	0
3	254047	46.31	0
3	254604	46.41	0
3	255161	46.51	0
3	255718	46.61	0
3	256275	46.71	0
3	256832	46.81	0
3	257389	46.91	0
3	257955	47.01	0
3	258512	47.11	0
3	259069	47.21	0
3	259626	47.31	0
3	260183	47.41	0
3	260740	47.51	0
3	261297	47.61	0
3	261854	47.71	0
3	262411	47.81	0
3	262968	47.91	0
3	263534	48.01	0
3	264091	48.11	0
3	264648	48.21	0
3	265205	48.31	0
3	265762	48.41	0
3	266319	48.51	0
3	266876	48.61	0
3	267433	48.71	0
3	267990	48.81	0
3	268547	48.91	0
3	269113	49.01	0
3	269670	49.11	0
3	270227	49.21	0
3	270784	49.31	0
3	271341	49.41	0
3	271898	49.51	0
3	272455	49.61	0
3	273012	49.71	0
3	273569	49.81	0
3	274126	49.91	0
3	274692	50.01	0
3	275249	50.11	0
3	275806	50.21	0
3	276363	50.31	0
3	276920	50.41	0
3	277477	50.51	0
3	278034	50.61	0
3	278591	50.71	0
3	279148	50.81	0
3	279705	50.91	0
3	280271	51.01	0
3	280828	51.11	0
3	281385	51.21	0
3	281942	51.31	0
3	282499	51.41	0
3	283056	51.51	0
3	283613	51.61	0
3	284170	51.71	0
3	284727	51.81	0
3	285284	51.91	0
3	285850	52.01	0
3	286407	52.11	0
3	286964	52.21	0
3	287521	52.31	0
3	288078	52.41	0
3	288635	52.51	0
3	289192	52.61	0
3	289749	52.71	0
3	290306	52.81	0
3	290863	52.91	0
3	291429	53.01	0
3	291986	53.11	0
3	292543	53.21	0
3	293100	53.31	0
3	293657	53.41	0
3	294214	53.51	0
3	294771	53.61	0
3	295328	53.71	0
3	295885	53.81	0
3	296442	53.91	0
3	297008	54.01	0
3	297565	54.11	0
3	298122	54.21	0
3	298679	54.31	0
3	299236	54.41	0
3	299793	54.51	0
3	300350	54.61	0
3	300907	54.71	0
3	301464	54.81	0
3	302021	54.91	0
3	302587	55.01	0
3	303144	55.11	0
3	303701	55.21	0
3	304258	55.31	0
3	304815	55.41	0
3	305372	55.51	0
3	305929	55.61	0
3	306486	55.71	0
3	307043	55.81	0
3	307600	55.91	0
3	308166	56.01	0
3	308723	56.11	0
3	309280	56.21	0
3	309837	56.31	0
3	310394	56.41	0
3	310951	56.51	0
3	311508	56.61	0
3	312065	56.71	0
3	312622	56.81	0
3	313179	56.91	0
3	313745	57.01	0
3	314302	57.11	0
3	314859	57.21	0
3	315416	57.31	0
3	315973	57.41	0
3	316530	57.51	0
3	317087	57.61	0
3	317644	57.71	0
3	318201	57.81	0
3	318758	57.91	0
3	319324	58.01	0
3	319881	58.11	0
3	320438	58.21	0
3	320995	58.31	0
3	321552	58.41	0
3	322109	58.51	0
3	322666	58.61	0
3	323223	58.71	0
3	323780	58.81	0
3	324337	58.91	0
3	324903	59.01	0
3	325460	59.11	0
3	326017	59.21	0
3	326574	59.31	0
3	327131	59.41	0
3	327688	59.51	0
3	328245	59.61	0
3	328802	59.71	0
3	329359	59.81	0
3	329916	59.91	0
3	330482	60.01	0
3	331039	60.11	0
3	331596	60.21	0
3	332153	60.31	0
3	332710	60.41	0
3	333267	60.51	0
3	333824	60.61	0
3	334381	60.71	0
3	334938	60.81	0
3	335495	60.91	0
3	336061	61.01	0
3	336618	61.11	0
3	337175	61.21	0
3	337732	61.31	0
3	338289	61.41	0
3	338846	61.51	0
3	339403	61.61	0
3	339960	61.71	0
3	340517	61.81	0
3	341074	61.91	0
3	341640	62.01	0
3	342197	62.11	0
3	342754	62.21	0
3	343311	62.31	0
3	343868	62.41	0
3	344425	62.51	0
3	344982	62.61	0
3	345539	62.71	0
3	346096	62.81	0
3	346653	62.91	0
3	347219	63.01	0
3	347776	63.11	0
3	348333	63.21	0
3	348890	63.31	0
3	349447	63.41	0
3	350004	63.51	0
3	350561	63.61	0
3	351118	63.71	0
3	351675	63.81	0
3	352232	63.91	0
3	352798	64.01	0
3	353355	64.11	0
3	353912	64.21	0
3	354469	64.31	0
3	355026	64.41	0
3	355583	64.51	0
3	356140	64.61	0
3	356697	64.71	0
3	357254	64.81	0
3	357811	64.91	0
3	358377	65.01	0
3	358934	65.11	0
3	359491	65.21	0
3	360048	65.31	0
3	360605	65.41	0
3	361162	65.51	0
3	361719	65.61	0
3	362276	65.71	0
3	362833	65.81	0
3	363390	65.91	0
3	363956	66.01	0
3	364513	66.11	0
3	365070	66.21	0
3	365627	66.31	0
3	366184	66.41	0
3	366741	66.51	0
3	367298	66.61	0
3	367855	66.71	0
3	368412	66.81	0
3	368969	66.91	0
3	369535	67.01	0
3	370092	67.11	0
3	370649	67.21	0
3	371206	67.31	0
3	371763	67.41	0
3	372320	67.51	0
3	372877	67.61	0
3	373434	67.71	0
3	373991	67.81	0
3	374548	67.91	0
3	375114	68.01	0
3	375671	68.11	0
3	376228	68.21	0
3	376785	68.31	0
3	377342	68.41	0
3	377899	68.51	0
3	378456	68.61	0
3	379013	68.71	0
3	379570	68.81	0
3	380127	68.91	0
3	380693	69.01	0
3	381250	69.11	0
3	381807	69.21	0
3	382364	69.31	0
3	382921	69.41	0
3	383478	69.51	0
3	384035	69.61	0
3	384592	69.71	0
3	385149	69.81	0
3	385706	69.91	0
3	386272	70.01	0
3	386829	70.11	0
3	387386	70.21	0
3	387943	70.31	0
3	388500	70.41	0
3	389057	70.51	0
3	389614	70.61	0
3	390171	70.71	0
3	390728	70.81	0
3	391285	70.91	0
3	391851	71.01	0
3	392408	71.11	0
3	392965	71.21	0
3	393522	71.31	0
3	394079	71.41	0
3	394636	71.51	0
3	395193	71.61	0
3	395750	71.71	0
3	396307	71.81	0
3	396864	71.91	0
3	397430	72.01	0
3	397987	72.11	0
3	398544	72.21	0
3	399101	72.31	0
3	399658	72.41	0
3	400215	72.51	0
3	400772	72.61	0
3	401329	72.71	0
3	401886	72.81	0
3	402443	72.91	0
3	403009	73.01	0
3	403566	73.11	0
3	404123	73.21	0
3	404680	73.31	0
3	405237	73.41	0
3	405794	73.51	0
3	406351	73.61	0
3	406908	73.71	0
3	407465	73.81	0
3	408022	73.91	0
3	408588	74.01	0
3	409145	74.11	0
3	409702	74.21	0
3	410259	74.31	0
3	410816	74.41	0
3	411373	74.51	0
3	411930	74.61	0
3	412487	74.71	0
3	413044	74.81	0
3	413601	74.91	0
3	414167	75.01	0
3	414724	75.11	0
3	415281	75.21	0
3	415838	75.31	0
3	416395	75.41	0
3	416952	75.51	0
3	417509	75.61	0
3	418066	75.71	0
3	418623	75.81	0
3	419180	75.91	0
3	419746	76.01	0
3	420303	76.11	0
3	420860	76.21	0
3	421417	76.31	0
3	421974	76.41	0
3	422531	76.51	0
3	423088	76.61	0
3	423645	76.71	0
3	424202	76.81	0
3	424759	76.91	0
3	425325	77.01	0
3	425882	77.11	0
3	426439	77.21	0
3	426996	77.31	0
3	427553	77.41	0
3	428110	77.51	0
3	428667	77.61	0
3	429224	77.71	0
3	429781	77.81	0
3	430338	77.91	0
3	430904	78.01	0
3	431461	78.11	0
3	432018	78.21	0
3	432575	78.31	0
3	433132	78.41	0
3	433689	78.51	0
3	434246	78.61	0
3	434803	78.71	0
3	435360	78.81	0
3	435917	78.91	0
3	436483	79.01	0
3	437040	79.11	0
3	437597	79.21	0
3	438154	79.31	0
3	438711	79.41	0
3	439268	79.51	0
3	439825	79.61	0
3	440382	79.71	0
3	440939	79.81	0
3	441496	79.91	0
3	442062	80.01	0
3	442619	80.11	0
3	443176	80.21	0
3	443733	80.31	0
3	444290	80.41	0
3	444847	80.51	0
3	445404	80.61	0
3	445961	80.71	0
3	446518	80.81	0
3	447075	80.91	0
3	447641	81.01	0
3	448198	81.11	0
3	448755	81.21	0
3	449312	81.31	0
3	449869	81.41	0
3	450426	81.51	0
3	450983	81.61	0
3	451540	81.71	0
3	452097	81.81	0
3	452654	81.91	0
3	453220	82.01	0
3	453777	82.11	0
3	454334	82.21	0
3	454891	82.31	0
3	455448	82.41	0
3	456005	82.51	0
3	456562	82.61	0
3	457119	82.71	0
3	457676	82.81	0
3	458233	82.91	0
3	458799	83.01	0
3	459356	83.11	0
3	459913	83.21	0
3	460470	83.31	0
3	461027	83.41	0
3	461584	83.51	0
3	462141	83.61	0
3	462698	83.71	0
3	463255	83.81	0
3	463812	83.91	0
3	464378	84.01	0
3	464935	84.11	0
3	465492	84.21	0
3	466049	84.31	0
3	466606	84.41	0
3	467163	84.51	0
3	467720	84.61	0
3	468277	84.71	0
3	468834	84.81	0
3	469391	84.91	0
3	469957	85.01	0
3	470514	85.11	0
3	471071	85.21	0
3	471628	85.31	0
3	472185	85.41	0
3	472742	85.51	0
3	473299	85.61	0
3	473856	85.71	0
3	474413	85.81	0
3	474970	85.91	0
3	475536	86.01	0
3	476093	86.11	0
3	476650	86.21	0
3	477207	86.31	0
3	477764	86.41	0
3	478321	86.51	0
3	478878	86.61	0
3	479435	86.71	0
3	479992	86.81	0
3	480549	86.91	0
3	481115	87.01	0
3	481672	87.11	0
3	482229	87.21	0
3	482786	87.31	0
3	483343	87.41	0
3	483900	87.51	0
3	484457	87.61	0
3	485014	87.71	0
3	485571	87.81	0
3	486128	87.91	0
3	486694	88.01	0
3	487251	88.11	0
3	487808	88.21	0
3	488365	88.31	0
3	488922	88.41	0
3	489479	88.51	0
3	490036	88.61	0
3	490593	88.71	0
3	491150	88.81	0
3	491707	88.91	0
3	492273	89.01	0
3	492830	89.11	0
3	493387	89.21	0
3	493944	89.31	0
3	494501	89.41	0
3	495058	89.51	0
3	495615	89.61	0
3	496172	89.71	0
3	496729	89.81	0
3	497286	89.91	0
3	497852	90.01	0
3	498409	90.11	0
3	498966	90.21	0
3	499523	90.31	0
3	500080	90.41	0
3	500637	90.51	0
3	501194	90.61	0
3	501751	90.71	0
3	502308	90.81	0
3	502865	90.91	0
3	503431	91.01	0
3	503988	91.11	0
3	504545	91.21	0
3	505102	91.31	0
3	505659	91.41	0
3	506216	91.51	0
3	506773	91.61	0
3	507330	91.71	0
3	507887	91.81	0
3	508444	91.91	0
3	509010	92.01	0
3	509567	92.11	0
3	510124	92.21	0
3	510681	92.31	0
3	511238	92.41	0
3	511795	92.51	0
3	512352	92.61	0
3	512909	92.71	0
3	513466	92.81	0
3	514023	92.91	0
3	514589	93.01	0
3	515146	93.11	0
3	515703	93.21	0
[...]
115	408517	74	5
115	414096	75	5
115	419675	76	5
115	425254	77	5
115	430833	78	5
115	436412	79	5
115	441991	80	5
115	447570	81	5
115	453149	82	5
115	458728	83	5
115	464307	84	5
115	469886	85	5
115	475465	86	5
115	481044	87	5
115	486623	88	5
115	492202	89	5
115	497781	90	5
115	503360	91	5
115	508939	92	5
115	514518	93	5
115	520097	94	5
115	525676	95	5
115	531255	96	5
115	536834	97	5
115	542413	98	5
115	547992	99	5
115	553571	100	5
116	5064	2	0.022161
116	10643	3	0.02497
116	16222	4	0.02497
116	21801	5	0.02497
116	27380	6	0.02497
116	32959	7	0.02497
116	38538	8	0.02497
116	44117	9	0.02497
116	49698	10	0.02497
116	57040	11	0.026842280198
116	62619	12	0.02497
116	68198	13	0.02497
116	73777	14	0.02497
116	79356	15	0.02497
116	84935	16	0.02497
116	90514	17	0.02497
116	96093	18	0.02497
116	101672	19	0.02497
116	107251	20	0.02497
116	112830	21	0.02497
116	118409	22	0.02497
116	123988	23	0.02497
116	129567	24	0.02497
116	135146	25	0.02497
116	140725	26	0.02497
116	146304	27	0.02497
116	151883	28	0.02497
116	157462	29	0.02497
116	163041	30	0.02497
116	168620	31	0.02497
116	174199	32	0.02497
116	179778	33	0.02497
116	185357	34	0.02497
116	190936	35	0.02497
116	196515	36	0.02497
116	202094	37	0.02497
116	207673	38	0.02497
116	213252	39	0.02497
116	218831	40	0.02497
116	224410	41	0.02497
116	229989	42	0.02497
116	235568	43	0.02497
116	241147	44	0.02497
116	246726	45	0.02497
116	252305	46	0.02497
116	257884	47	0.02497
116	263463	48	0.02497
116	269042	49	0.02497
116	274621	50	0.02497
116	280200	51	0.02497
116	285779	52	0.02497
116	291358	53	0.02497
116	296937	54	0.02497
116	302516	55	0.02497
116	308095	56	0.02497
116	313674	57	0.02497
116	319253	58	0.02497
116	324832	59	0.02497
116	330411	60	0.02497
116	335990	61	0.02497
116	341569	62	0.02497
116	347148	63	0.02497
116	352727	64	0.02497
116	358306	65	0.02497
116	363885	66	0.02497
116	369464	67	0.02497
116	375043	68	0.02497
116	380622	69	0.02497
116	386201	70	0.02497
116	391780	71	0.02497
116	397359	72	0.02497
116	402938	73	0.02497
116	408517	74	0.02497
116	414096	75	0.02497
116	419675	76	0.02497
116	425254	77	0.02497
116	430833	78	0.02497
116	436412	79	0.02497
116	441991	80	0.02497
116	447570	81	0.02497
116	453149	82	0.02497
116	458728	83	0.02497
116	464307	84	0.02497
116	469886	85	0.02497
116	475465	86	0.02497
116	481044	87	0.02497
116	486623	88	0.02497
116	492202	89	0.02497
116	497781	90	0.02497
116	503360	91	0.02497
116	508939	92	0.02497
116	514518	93	0.02497
116	520097	94	0.02497
116	525676	95	0.02497
116	531255	96	0.02497
116	536834	97	0.02497
116	542413	98	0.02497
116	547992	99	0.02497
116	553571	100	0.02497
117	5064	2	0
117	10643	3	0
117	16222	4	0
117	21801	5	0
117	27380	6	0
117	32959	7	0
117	38538	8	0
117	44117	9	0
117	49698	10	0
117	57040	11	0
117	62619	12	0
117	68198	13	0
117	73777	14	0
117	79356	15	0
117	84935	16	0
117	90514	17	0
117	96093	18	0
117	101672	19	0
117	107251	20	0
117	112830	21	0
117	118409	22	0
117	123988	23	0
117	129567	24	0
117	135146	25	0
117	140725	26	0
117	146304	27	0
117	151883	28	0
117	157462	29	0
117	163041	30	0
117	168620	31	0
117	174199	32	0
117	179778	33	0
117	185357	34	0
117	190936	35	0
117	196515	36	0
117	202094	37	0
117	207673	38	0
117	213252	39	0
117	218831	40	0
117	224410	41	0
117	229989	42	0
117	235568	43	0
117	241147	44	0
117	246726	45	0
117	252305	46	0
117	257884	47	0
117	263463	48	0
117	269042	49	0
117	274621	50	0
117	280200	51	0
117	285779	52	0
117	291358	53	0
117	296937	54	0
117	302516	55	0
117	308095	56	0
117	313674	57	0
117	319253	58	0
117	324832	59	0
117	330411	60	0
117	335990	61	0
117	341569	62	0
117	347148	63	0
117	352727	64	0
117	358306	65	0
117	363885	66	0
117	369464	67	0
117	375043	68	0
117	380622	69	0
117	386201	70	0
117	391780	71	0
117	397359	72	0
117	402938	73	0
117	408517	74	0
117	414096	75	0
117	419675	76	0
117	425254	77	0
117	430833	78	0
117	436412	79	0
117	441991	80	0
117	447570	81	0
117	453149	82	0
117	458728	83	0
117	464307	84	0
117	469886	85	0
117	475465	86	0
117	481044	87	0
117	486623	88	0
117	492202	89	0
117	497781	90	0
117	503360	91	0
117	508939	92	0
117	514518	93	0
117	520097	94	0
117	525676	95	0
117	531255	96	0
117	536834	97	0
117	542413	98	0
117	547992	99	0
117	553571	100	0
118	5065	2	6
118	10644	3	6
118	16223	4	6
118	21802	5	6
118	27381	6	6
118	32960	7	6
118	38539	8	6
118	44118	9	6
118	49699	10	6
118	57041	11	6
118	62620	12	6
118	68199	13	6
118	73778	14	6
118	79357	15	6
118	84936	16	6
118	90515	17	6
118	96094	18	6
118	101673	19	6
118	107252	20	6
118	112831	21	6
118	118410	22	6
118	123989	23	6
118	129568	24	6
118	135147	25	6
118	140726	26	6
118	146305	27	6
118	151884	28	6
118	157463	29	6
118	163042	30	6
118	168621	31	6
118	174200	32	6
118	179779	33	6
118	185358	34	6
118	190937	35	6
118	196516	36	6
118	202095	37	6
118	207674	38	6
118	213253	39	6
118	218832	40	6
118	224411	41	6
118	229990	42	6
118	235569	43	6
118	241148	44	6
118	246727	45	6
118	252306	46	6
118	257885	47	6
118	263464	48	6
118	269043	49	6
118	274622	50	6
118	280201	51	6
118	285780	52	6
118	291359	53	6
118	296938	54	6
118	302517	55	6
118	308096	56	6
118	313675	57	6
118	319254	58	6
118	324833	59	6
118	330412	60	6
118	335991	61	6
118	341570	62	6
118	347149	63	6
118	352728	64	6
118	358307	65	6
118	363886	66	6
118	369465	67	6
118	375044	68	6
118	380623	69	6
118	386202	70	6
118	391781	71	6
118	397360	72	6
118	402939	73	6
118	408518	74	6
118	414097	75	6
118	419676	76	6
118	425255	77	6
118	430834	78	6
118	436413	79	6
118	441992	80	6
118	447571	81	6
118	453150	82	6
118	458729	83	6
118	464308	84	6
118	469887	85	6
118	475466	86	6
118	481045	87	6
118	486624	88	6
118	492203	89	6
118	497782	90	6
118	503361	91	6
118	508940	92	6
118	514519	93	6
118	520098	94	6
118	525677	95	6
118	531256	96	6
118	536835	97	6
118	542414	98	6
118	547993	99	6
118	553572	100	6
119	5065	2	0.02216
119	10644	3	0.02497
119	16223	4	0.02497
119	21802	5	0.02497
119	27381	6	0.02497
119	32960	7	0.02497
119	38539	8	0.02497
119	44118	9	0.02497
119	49699	10	0.02497
119	57041	11	0.026842280198
119	62620	12	0.02497
119	68199	13	0.02497
119	73778	14	0.02497
119	79357	15	0.02497
119	84936	16	0.02497
119	90515	17	0.02497
119	96094	18	0.02497
119	101673	19	0.02497
119	107252	20	0.02497
119	112831	21	0.02497
119	118410	22	0.02497
119	123989	23	0.02497
119	129568	24	0.02497
119	135147	25	0.02497
119	140726	26	0.02497
119	146305	27	0.02497
119	151884	28	0.02497
119	157463	29	0.02497
119	163042	30	0.02497
119	168621	31	0.02497
119	174200	32	0.02497
119	179779	33	0.02497
119	185358	34	0.02497
119	190937	35	0.02497
119	196516	36	0.02497
119	202095	37	0.02497
119	207674	38	0.02497
119	213253	39	0.02497
119	218832	40	0.02497
119	224411	41	0.02497
119	229990	42	0.02497
119	235569	43	0.02497
119	241148	44	0.02497
119	246727	45	0.02497
119	252306	46	0.02497
119	257885	47	0.02497
119	263464	48	0.02497
119	269043	49	0.02497
119	274622	50	0.02497
119	280201	51	0.02497
119	285780	52	0.02497
119	291359	53	0.02497
119	296938	54	0.02497
119	302517	55	0.02497
119	308096	56	0.02497
119	313675	57	0.02497
119	319254	58	0.02497
119	324833	59	0.02497
119	330412	60	0.02497
119	335991	61	0.02497
119	341570	62	0.02497
119	347149	63	0.02497
119	352728	64	0.02497
119	358307	65	0.02497
119	363886	66	0.02497
119	369465	67	0.02497
119	375044	68	0.02497
119	380623	69	0.02497
119	386202	70	0.02497
119	391781	71	0.02497
119	397360	72	0.02497
119	402939	73	0.02497
119	408518	74	0.02497
119	414097	75	0.02497
119	419676	76	0.02497
119	425255	77	0.02497
119	430834	78	0.02497
119	436413	79	0.02497
119	441992	80	0.02497
119	447571	81	0.02497
119	453150	82	0.02497
119	458729	83	0.02497
119	464308	84	0.02497
119	469887	85	0.02497
119	475466	86	0.02497
119	481045	87	0.02497
119	486624	88	0.02497
119	492203	89	0.02497
119	497782	90	0.02497
119	503361	91	0.02497
119	508940	92	0.02497
119	514519	93	0.02497
119	520098	94	0.02497
119	525677	95	0.02497
119	531256	96	0.02497
119	536835	97	0.02497
119	542414	98	0.02497
119	547993	99	0.02497
119	553572	100	0.02497
120	5065	2	0
120	10644	3	0
120	16223	4	0
120	21802	5	0
120	27381	6	0
120	32960	7	0
120	38539	8	0
120	44118	9	0
120	49699	10	0
120	57041	11	0
120	62620	12	0
120	68199	13	0
120	73778	14	0
120	79357	15	0
120	84936	16	0
120	90515	17	0
120	96094	18	0
120	101673	19	0
120	107252	20	0
120	112831	21	0
120	118410	22	0
120	123989	23	0
120	129568	24	0
120	135147	25	0
120	140726	26	0
120	146305	27	0
120	151884	28	0
120	157463	29	0
120	163042	30	0
120	168621	31	0
120	174200	32	0
120	179779	33	0
120	185358	34	0
120	190937	35	0
120	196516	36	0
120	202095	37	0
120	207674	38	0
120	213253	39	0
120	218832	40	0
120	224411	41	0
120	229990	42	0
120	235569	43	0
120	241148	44	0
120	246727	45	0
120	252306	46	0
120	257885	47	0
120	263464	48	0
120	269043	49	0
120	274622	50	0
120	280201	51	0
120	285780	52	0
120	291359	53	0
120	296938	54	0
120	302517	55	0
120	308096	56	0
120	313675	57	0
120	319254	58	0
120	324833	59	0
120	330412	60	0
120	335991	61	0
120	341570	62	0
120	347149	63	0
120	352728	64	0
120	358307	65	0
120	363886	66	0
120	369465	67	0
120	375044	68	0
120	380623	69	0
120	386202	70	0
120	391781	71	0
120	397360	72	0
120	402939	73	0
120	408518	74	0
120	414097	75	0
120	419676	76	0
120	425255	77	0
120	430834	78	0
120	436413	79	0
120	441992	80	0
120	447571	81	0
120	453150	82	0
120	458729	83	0
120	464308	84	0
120	469887	85	0
120	475466	86	0
120	481045	87	0
120	486624	88	0
120	492203	89	0
120	497782	90	0
120	503361	91	0
120	508940	92	0
120	514519	93	0
120	520098	94	0
120	525677	95	0
120	531256	96	0
120	536835	97	0
120	542414	98	0
120	547993	99	0
120	553572	100	0
121	5066	2	7
121	10645	3	7
121	16224	4	7
121	21803	5	7
121	27382	6	7
121	32961	7	7
121	38540	8	7
121	44119	9	7
121	49700	10	7
121	57042	11	7
121	62621	12	7
121	68200	13	7
121	73779	14	7
121	79358	15	7
121	84937	16	7
121	90516	17	7
121	96095	18	7
121	101674	19	7
121	107253	20	7
121	112832	21	7
121	118411	22	7
121	123990	23	7
121	129569	24	7
121	135148	25	7
121	140727	26	7
121	146306	27	7
121	151885	28	7
121	157464	29	7
121	163043	30	7
121	168622	31	7
121	174201	32	7
121	179780	33	7
121	185359	34	7
121	190938	35	7
121	196517	36	7
121	202096	37	7
121	207675	38	7
121	213254	39	7
121	218833	40	7
121	224412	41	7
121	229991	42	7
121	235570	43	7
121	241149	44	7
121	246728	45	7
121	252307	46	7
121	257886	47	7
121	263465	48	7
121	269044	49	7
121	274623	50	7
121	280202	51	7
121	285781	52	7
121	291360	53	7
121	296939	54	7
121	302518	55	7
121	308097	56	7
121	313676	57	7
121	319255	58	7
121	324834	59	7
121	330413	60	7
121	335992	61	7
121	341571	62	7
121	347150	63	7
121	352729	64	7
121	358308	65	7
121	363887	66	7
121	369466	67	7
121	375045	68	7
121	380624	69	7
121	386203	70	7
121	391782	71	7
121	397361	72	7
121	402940	73	7
121	408519	74	7
121	414098	75	7
121	419677	76	7
121	425256	77	7
121	430835	78	7
121	436414	79	7
121	441993	80	7
121	447572	81	7
121	453151	82	7
121	458730	83	7
121	464309	84	7
121	469888	85	7
121	475467	86	7
121	481046	87	7
121	486625	88	7
121	492204	89	7
121	497783	90	7
121	503362	91	7
121	508941	92	7
121	514520	93	7
121	520099	94	7
121	525678	95	7
121	531257	96	7
121	536836	97	7
121	542415	98	7
121	547994	99	7
121	553573	100	7
122	5066	2	0.022161
122	10645	3	0.02497
122	16224	4	0.02497
122	21803	5	0.02497
122	27382	6	0.02497
122	32961	7	0.02497
122	38540	8	0.02497
122	44119	9	0.02497
122	49700	10	0.02497
122	57042	11	0.026875360256
122	62621	12	0.02497
122	68200	13	0.02497
122	73779	14	0.02497
122	79358	15	0.02497
122	84937	16	0.02497
122	90516	17	0.02497
122	96095	18	0.02497
122	101674	19	0.02497
122	107253	20	0.02497
122	112832	21	0.02497
122	118411	22	0.02497
122	123990	23	0.02497
122	129569	24	0.02497
122	135148	25	0.02497
122	140727	26	0.02497
122	146306	27	0.02497
122	151885	28	0.02497
122	157464	29	0.02497
122	163043	30	0.02497
122	168622	31	0.02497
122	174201	32	0.02497
122	179780	33	0.02497
122	185359	34	0.02497
122	190938	35	0.02497
122	196517	36	0.02497
122	202096	37	0.02497
122	207675	38	0.02497
122	213254	39	0.02497
122	218833	40	0.02497
122	224412	41	0.02497
122	229991	42	0.02497
122	235570	43	0.02497
122	241149	44	0.02497
122	246728	45	0.02497
122	252307	46	0.02497
122	257886	47	0.02497
122	263465	48	0.02497
122	269044	49	0.02497
122	274623	50	0.02497
122	280202	51	0.02497
122	285781	52	0.02497
122	291360	53	0.02497
122	296939	54	0.02497
122	302518	55	0.02497
122	308097	56	0.02497
122	313676	57	0.02497
122	319255	58	0.02497
122	324834	59	0.02497
122	330413	60	0.02497
122	335992	61	0.02497
122	341571	62	0.02497
122	347150	63	0.02497
122	352729	64	0.02497
122	358308	65	0.02497
122	363887	66	0.02497
122	369466	67	0.02497
122	375045	68	0.02497
122	380624	69	0.02497
122	386203	70	0.02497
122	391782	71	0.02497
122	397361	72	0.02497
122	402940	73	0.02497
122	408519	74	0.02497
122	414098	75	0.02497
122	419677	76	0.02497
122	425256	77	0.02497
122	430835	78	0.02497
122	436414	79	0.02497
122	441993	80	0.02497
122	447572	81	0.02497
122	453151	82	0.02497
122	458730	83	0.02497
122	464309	84	0.02497
122	469888	85	0.02497
122	475467	86	0.02497
122	481046	87	0.02497
122	486625	88	0.02497
122	492204	89	0.02497
122	497783	90	0.02497
122	503362	91	0.02497
122	508941	92	0.02497
122	514520	93	0.02497
122	520099	94	0.02497
122	525678	95	0.02497
122	531257	96	0.02497
122	536836	97	0.02497
122	542415	98	0.02497
122	547994	99	0.02497
122	553573	100	0.02497
123	5066	2	0
123	10645	3	0
123	16224	4	0
123	21803	5	0
123	27382	6	0
123	32961	7	0
123	38540	8	0
123	44119	9	0
123	49700	10	0
123	57042	11	0
123	62621	12	0
123	68200	13	0
123	73779	14	0
123	79358	15	0
123	84937	16	0
123	90516	17	0
123	96095	18	0
123	101674	19	0
123	107253	20	0
123	112832	21	0
123	118411	22	0
123	123990	23	0
123	129569	24	0
123	135148	25	0
123	140727	26	0
123	146306	27	0
123	151885	28	0
123	157464	29	0
123	163043	30	0
123	168622	31	0
123	174201	32	0
123	179780	33	0
123	185359	34	0
123	190938	35	0
123	196517	36	0
123	202096	37	0
123	207675	38	0
123	213254	39	0
123	218833	40	0
123	224412	41	0
123	229991	42	0
123	235570	43	0
123	241149	44	0
123	246728	45	0
123	252307	46	0
123	257886	47	0
123	263465	48	0
123	269044	49	0
123	274623	50	0
123	280202	51	0
123	285781	52	0
123	291360	53	0
123	296939	54	0
123	302518	55	0
123	308097	56	0
123	313676	57	0
123	319255	58	0
123	324834	59	0
123	330413	60	0
123	335992	61	0
123	341571	62	0
123	347150	63	0
123	352729	64	0
123	358308	65	0
123	363887	66	0
123	369466	67	0
123	375045	68	0
123	380624	69	0
123	386203	70	0
123	391782	71	0
123	397361	72	0
123	402940	73	0
123	408519	74	0
123	414098	75	0
123	419677	76	0
123	425256	77	0
123	430835	78	0
123	436414	79	0
123	441993	80	0
123	447572	81	0
123	453151	82	0
123	458730	83	0
123	464309	84	0
123	469888	85	0
123	475467	86	0
123	481046	87	0
123	486625	88	0
123	492204	89	0
123	497783	90	0
123	503362	91	0
123	508941	92	0
123	514520	93	0
123	520099	94	0
123	525678	95	0
123	531257	96	0
123	536836	97	0
123	542415	98	0
123	547994	99	0
123	553573	100	0
124	5067	2	8
124	10646	3	8
124	16225	4	8
124	21804	5	8
124	27383	6	8
124	32962	7	8
124	38541	8	8
124	44120	9	8
124	49701	10	8
124	57043	11	8
124	62622	12	8
124	68201	13	8
124	73780	14	8
124	79359	15	8
124	84938	16	8
124	90517	17	8
124	96096	18	8
124	101675	19	8
124	107254	20	8
124	112833	21	8
124	118412	22	8
124	123991	23	8
124	129570	24	8
124	135149	25	8
124	140728	26	8
124	146307	27	8
124	151886	28	8
124	157465	29	8
124	163044	30	8
124	168623	31	8
124	174202	32	8
124	179781	33	8
124	185360	34	8
124	190939	35	8
124	196518	36	8
124	202097	37	8
124	207676	38	8
124	213255	39	8
124	218834	40	8
124	224413	41	8
124	229992	42	8
124	235571	43	8
124	241150	44	8
124	246729	45	8
124	252308	46	8
124	257887	47	8
124	263466	48	8
124	269045	49	8
124	274624	50	8
124	280203	51	8
124	285782	52	8
124	291361	53	8
124	296940	54	8
124	302519	55	8
124	308098	56	8
124	313677	57	8
124	319256	58	8
124	324835	59	8
124	330414	60	8
124	335993	61	8
124	341572	62	8
124	347151	63	8
124	352730	64	8
124	358309	65	8
124	363888	66	8
124	369467	67	8
124	375046	68	8
124	380625	69	8
124	386204	70	8
124	391783	71	8
124	397362	72	8
124	402941	73	8
124	408520	74	8
124	414099	75	8
124	419678	76	8
124	425257	77	8
124	430836	78	8
124	436415	79	8
124	441994	80	8
124	447573	81	8
124	453152	82	8
124	458731	83	8
124	464310	84	8
124	469889	85	8
124	475468	86	8
124	481047	87	8
124	486626	88	8
124	492205	89	8
124	497784	90	8
124	503363	91	8
124	508942	92	8
124	514521	93	8
124	520100	94	8
124	525679	95	8
124	531258	96	8
124	536837	97	8
124	542416	98	8
124	547995	99	8
124	553574	100	8
125	5067	2	0.002817
125	10646	3	0.00313
125	16225	4	0.00313
125	21804	5	0.00313
125	27383	6	0.00313
125	32962	7	0.00313
125	38541	8	0.00313
125	44120	9	0.00313
125	49701	10	0.00313
125	57043	11	0.003179
125	62622	12	0.00313
125	68201	13	0.00313
125	73780	14	0.00313
125	79359	15	0.00313
125	84938	16	0.00313
125	90517	17	0.00313
125	96096	18	0.00313
125	101675	19	0.00313
125	107254	20	0.00313
125	112833	21	0.00313
125	118412	22	0.00313
125	123991	23	0.00313
125	129570	24	0.00313
125	135149	25	0.00313
125	140728	26	0.00313
125	146307	27	0.00313
125	151886	28	0.00313
125	157465	29	0.00313
125	163044	30	0.00313
125	168623	31	0.00313
125	174202	32	0.00313
125	179781	33	0.00313
125	185360	34	0.00313
125	190939	35	0.00313
125	196518	36	0.00313
125	202097	37	0.00313
125	207676	38	0.00313
125	213255	39	0.00313
125	218834	40	0.00313
125	224413	41	0.00313
125	229992	42	0.00313
125	235571	43	0.00313
125	241150	44	0.00313
125	246729	45	0.00313
125	252308	46	0.00313
125	257887	47	0.00313
125	263466	48	0.00313
125	269045	49	0.00313
125	274624	50	0.00313
125	280203	51	0.00313
125	285782	52	0.00313
125	291361	53	0.00313
125	296940	54	0.00313
125	302519	55	0.00313
125	308098	56	0.00313
125	313677	57	0.00313
125	319256	58	0.00313
125	324835	59	0.00313
125	330414	60	0.00313
125	335993	61	0.00313
125	341572	62	0.00313
125	347151	63	0.00313
125	352730	64	0.00313
125	358309	65	0.00313
125	363888	66	0.00313
125	369467	67	0.00313
125	375046	68	0.00313
125	380625	69	0.00313
125	386204	70	0.00313
125	391783	71	0.00313
125	397362	72	0.00313
125	402941	73	0.00313
125	408520	74	0.00313
125	414099	75	0.00313
125	419678	76	0.00313
125	425257	77	0.00313
125	430836	78	0.00313
125	436415	79	0.00313
125	441994	80	0.00313
125	447573	81	0.00313
125	453152	82	0.00313
125	458731	83	0.00313
125	464310	84	0.00313
125	469889	85	0.00313
125	475468	86	0.00313
125	481047	87	0.00313
125	486626	88	0.00313
125	492205	89	0.00313
125	497784	90	0.00313
125	503363	91	0.00313
125	508942	92	0.00313
125	514521	93	0.00313
125	520100	94	0.00313
125	525679	95	0.00313
125	531258	96	0.00313
125	536837	97	0.00313
125	542416	98	0.00313
125	547995	99	0.00313
125	553574	100	0.00313
126	5067	2	0
126	10646	3	0
126	16225	4	0
126	21804	5	0
126	27383	6	0
126	32962	7	0
126	38541	8	0
126	44120	9	0
126	49701	10	0
126	57043	11	0
126	62622	12	0
126	68201	13	0
126	73780	14	0
126	79359	15	0
126	84938	16	0
126	90517	17	0
126	96096	18	0
126	101675	19	0
126	107254	20	0
126	112833	21	0
126	118412	22	0
126	123991	23	0
126	129570	24	0
126	135149	25	0
126	140728	26	0
126	146307	27	0
126	151886	28	0
126	157465	29	0
126	163044	30	0
126	168623	31	0
126	174202	32	0
126	179781	33	0
126	185360	34	0
126	190939	35	0
126	196518	36	0
126	202097	37	0
126	207676	38	0
126	213255	39	0
126	218834	40	0
126	224413	41	0
126	229992	42	0
126	235571	43	0
126	241150	44	0
126	246729	45	0
126	252308	46	0
126	257887	47	0
126	263466	48	0
126	269045	49	0
126	274624	50	0
126	280203	51	0
126	285782	52	0
126	291361	53	0
126	296940	54	0
126	302519	55	0
126	308098	56	0
126	313677	57	0
126	319256	58	0
126	324835	59	0
126	330414	60	0
126	335993	61	0
126	341572	62	0
126	347151	63	0
126	352730	64	0
126	358309	65	0
126	363888	66	0
126	369467	67	0
126	375046	68	0
126	380625	69	0
126	386204	70	0
126	391783	71	0
126	397362	72	0
126	402941	73	0
126	408520	74	0
126	414099	75	0
126	419678	76	0
126	425257	77	0
126	430836	78	0
126	436415	79	0
126	441994	80	0
126	447573	81	0
126	453152	82	0
126	458731	83	0
126	464310	84	0
126	469889	85	0
126	475468	86	0
126	481047	87	0
126	486626	88	0
126	492205	89	0
126	497784	90	0
126	503363	91	0
126	508942	92	0
126	514521	93	0
126	520100	94	0
126	525679	95	0
126	531258	96	0
126	536837	97	0
126	542416	98	0
126	547995	99	0
126	553574	100	0

