file 2595702 1720699973                                         
version 3
run BreakRanksNoGui-565-20240711-14:12:41-290330
attr configname BreakRanksNoGui
attr datetime 20240711-14:12:41
attr datetimef 20240711-141241
attr experiment BreakRanksNoGui
attr inifile omnetpp.ini
attr iterationvars "$nCars=9, $platoonSize=8, $nLanes=1, $ploegH=0.5, $controller=1, $headway=0.1, $leaderHeadway=1.2, $leaderSpeed=130, $breakRanksSafetyDistance=2, $minSpeed=120, $maxSpeed=140, $beaconInterval=0.1, $priority=4, $packetSize=200, $sController=\"CACC\", $0=2, $1=0"
attr iterationvarsd nCars=9/platoonSize=8/nLanes=1/ploegH=0.5/controller=1/headway=0.1/leaderHeadway=1.2/leaderSpeed=130/breakRanksSafetyDistance=2/minSpeed=120/maxSpeed=140/beaconInterval=0.1/priority=4/packetSize=200/sController=CACC/2/0
attr iterationvarsf nCars=9,platoonSize=8,nLanes=1,ploegH=0.5,controller=1,headway=0.1,leaderHeadway=1.2,leaderSpeed=130,breakRanksSafetyDistance=2,minSpeed=120,maxSpeed=140,beaconInterval=0.1,priority=4,packetSize=200,sController=CACC,2,0-
attr measurement "$nCars=9, $platoonSize=8, $nLanes=1, $ploegH=0.5, $controller=1, $headway=0.1, $leaderHeadway=1.2, $leaderSpeed=130, $breakRanksSafetyDistance=2, $minSpeed=120, $maxSpeed=140, $beaconInterval=0.1, $priority=4, $packetSize=200, $sController=\"CACC\", $0=2, $1=0"
attr network Highway
attr processid 290330
attr repetition 5
attr replication #5
attr resultdir results
attr runnumber 565
attr seedset 5
itervar beaconInterval 0.1
itervar breakRanksSafetyDistance 2
itervar controller 1
itervar headway 0.1
itervar leaderHeadway 1.2
itervar leaderSpeed 130
itervar maxSpeed 140
itervar minSpeed 120
itervar nCars 9
itervar nLanes 1
itervar packetSize 200
itervar platoonSize 8
itervar ploegH 0.5
itervar priority 4
itervar sController "\"CACC\""
config image-path ../../../veins/images
config repeat 10
config extends BreakRanks
config *.manager.command "\"sumo\""
config *.manager.ignoreGuiCommands true
config output-vector-file "results/BreakRanks_1_0.1_130_2_8 /result_5.vec"
config output-scalar-file "results/BreakRanks_1_0.1_130_2_8 /result_5.sca"
config extends Platooning
config *.node[*].scenario_type "\"BreakRanksScenario\""
config *.manager.command "\"sumo-gui\""
config *.node[*].scenario_type "\"SimpleScenario\""
config cmdenv-express-mode true
config cmdenv-autoflush true
config cmdenv-status-frequency 15s
config num-rngs 6
config network Highway
config debug-on-errors true
config print-undisposed true
config *.playgroundSizeX 65000m
config *.playgroundSizeY 25000m
config *.playgroundSizeZ 50m
config sim-time-limit "100 s"
config *.annotations.draw false
config *.obstacles.debug false
config *.world.useTorus false
config *.world.use2D false
config *.manager.updateInterval 0.01s
config *.manager.host "\"localhost\""
config *.manager.moduleType "\"org.car2x.plexe.PlatoonCar\""
config *.manager.moduleName "\"node\""
config *.manager.moduleDisplayString "\"\""
config *.manager.autoShutdown true
config *.manager.margin 25
config *.connectionManager.sendDirect true
config *.connectionManager.maxInterfDist 2600m
config *.connectionManager.drawMaxIntfDist false
config *.**.nic.mac1609_4.useServiceChannel false
config *.**.nic.mac1609_4.txPower 100mW
config *.**.nic.mac1609_4.bitrate 6Mbps
config *.**.nic.mac1609_4.useAcks true
config *.**.nic.mac1609_4.ackErrorRate 0.0
config *.**.nic.mac1609_4.frameErrorRate 0.0
config *.**.nic.phy80211p.minPowerLevel -94dBm
config *.**.nic.phy80211p.maxTXPower 100mW
config *.**.nic.phy80211p.useNoiseFloor true
config *.**.nic.phy80211p.noiseFloor -95dBm
config *.**.nic.phy80211p.decider "xmldoc(\"config.xml\")"
config *.**.nic.phy80211p.analogueModels "xmldoc(\"config.xml\")"
config *.**.nic.phy80211p.usePropagationDelay true
config *.node[*].mobility.x 0
config *.node[*].mobility.y 0
config *.node[*].mobility.z 1.895
config seed-set 5
config **.seed 5
config *.node[*].prot.rng-0 2
config *.node[*].appl.rng-0 3
config *.node[*].scenario.rng-0 4
config **.traffic.rng-0 5
config *.manager.configFile "\"./sumocfg/freeway.sumo.cfg\""
config *.manager.launchConfig "xmldoc(\"./sumocfg/freeway.launchd.xml\")"
config **.numberOfCars 9
config **.numberOfCarsPerPlatoon 8
config **.numberOfLanes 1
config *.node[*].helper_type "\"PositionHelper\""
config *.node[*].scenario.caccC1 0.5
config *.node[*].scenario.caccXi 1
config *.node[*].scenario.caccOmegaN "0.2 Hz"
config *.node[*].scenario.caccSpacing "2 m"
config *.node[*].scenario.engineTau "0.5 s"
config *.node[*].scenario.ploegH 0.5s
config *.node[*].scenario.ploegKp 0.2
config *.node[*].scenario.ploegKd 0.7
config *.node[*].scenario.useRealisticEngine false
config *.node[*].scenario.useControllerAcceleration true
config *.node[*].scenario.nLanes 1
config **.numericController 1
config **.headway 0.1s
config *.node[*].scenario.accHeadway 0.1s
config *.node[*].scenario.leaderHeadway 1.2s
config *.node[*].scenario.leaderSpeed 130kmph
config *.node[*].appl_type "\"SimplePlatooningApp\""
config *.node[*].appl.*.scalar-recording true
config *.node[*].appl.*.vector-recording true
config *.node[0].appl.breakRanksSafetyDistance 2m
config *.node[*].appl.minSpeed 120kmph
config *.node[*].appl.maxSpeed 140kmph
config *.node[*].protocol_type "\"SimplePlatooningBeaconing\""
config *.node[*].prot.*.scalar-recording true
config *.node[*].prot.*.vector-recording true
config *.node[*].prot.beaconingInterval 0.1s
config *.node[*].prot.priority 4
config *.node[*].prot.packetSize 200
config **.traffic_type "\"PlatoonsTrafficManager\""
config **.traffic.platoonInsertTime "1 s"
config **.traffic.platoonInsertSpeed 130kmph
config **.traffic.nCars 9
config **.traffic.platoonSize 8
config **.traffic.nLanes 1
config **.traffic.platooningVType "\"vtypeauto\""
config **.traffic.controller "\"CACC\""
config **.traffic.platoonInsertDistance 2m
config **.traffic.platoonInsertHeadway 0s
config **.traffic.platoonLeaderHeadway 1.2s
config **.scalar-recording false
config **.vector-recording false

vector 0 Highway.node[0].appl distance ETV
vector 1 Highway.node[0].appl relativeSpeed ETV
vector 2 Highway.node[0].appl nodeId ETV
vector 3 Highway.node[0].appl acceleration ETV
vector 4 Highway.node[0].appl controllerAcceleration ETV
vector 5 Highway.node[0].appl speed ETV
vector 6 Highway.node[0].appl posx ETV
vector 7 Highway.node[0].appl posy ETV
vector 8 Highway.node[1].appl distance ETV
vector 9 Highway.node[1].appl relativeSpeed ETV
vector 10 Highway.node[1].appl nodeId ETV
vector 11 Highway.node[1].appl acceleration ETV
vector 12 Highway.node[1].appl controllerAcceleration ETV
vector 13 Highway.node[1].appl speed ETV
vector 14 Highway.node[1].appl posx ETV
vector 15 Highway.node[1].appl posy ETV
vector 16 Highway.node[2].appl distance ETV
vector 17 Highway.node[2].appl relativeSpeed ETV
vector 18 Highway.node[2].appl nodeId ETV
vector 19 Highway.node[2].appl acceleration ETV
vector 20 Highway.node[2].appl controllerAcceleration ETV
vector 21 Highway.node[2].appl speed ETV
vector 22 Highway.node[2].appl posx ETV
vector 23 Highway.node[2].appl posy ETV
vector 24 Highway.node[3].appl distance ETV
vector 25 Highway.node[3].appl relativeSpeed ETV
vector 26 Highway.node[3].appl nodeId ETV
vector 27 Highway.node[3].appl acceleration ETV
vector 28 Highway.node[3].appl controllerAcceleration ETV
vector 29 Highway.node[3].appl speed ETV
vector 30 Highway.node[3].appl posx ETV
vector 31 Highway.node[3].appl posy ETV
vector 32 Highway.node[4].appl distance ETV
vector 33 Highway.node[4].appl relativeSpeed ETV
vector 34 Highway.node[4].appl nodeId ETV
vector 35 Highway.node[4].appl acceleration ETV
vector 36 Highway.node[4].appl controllerAcceleration ETV
vector 37 Highway.node[4].appl speed ETV
vector 38 Highway.node[4].appl posx ETV
vector 39 Highway.node[4].appl posy ETV
vector 40 Highway.node[5].appl distance ETV
vector 41 Highway.node[5].appl relativeSpeed ETV
vector 42 Highway.node[5].appl nodeId ETV
vector 43 Highway.node[5].appl acceleration ETV
vector 44 Highway.node[5].appl controllerAcceleration ETV
vector 45 Highway.node[5].appl speed ETV
vector 46 Highway.node[5].appl posx ETV
vector 47 Highway.node[5].appl posy ETV
vector 48 Highway.node[6].appl distance ETV
vector 49 Highway.node[6].appl relativeSpeed ETV
vector 50 Highway.node[6].appl nodeId ETV
vector 51 Highway.node[6].appl acceleration ETV
vector 52 Highway.node[6].appl controllerAcceleration ETV
vector 53 Highway.node[6].appl speed ETV
vector 54 Highway.node[6].appl posx ETV
vector 55 Highway.node[6].appl posy ETV
vector 56 Highway.node[7].appl distance ETV
vector 57 Highway.node[7].appl relativeSpeed ETV
vector 58 Highway.node[7].appl nodeId ETV
vector 59 Highway.node[7].appl acceleration ETV
vector 60 Highway.node[7].appl controllerAcceleration ETV
vector 61 Highway.node[7].appl speed ETV
vector 62 Highway.node[7].appl posx ETV
vector 63 Highway.node[7].appl posy ETV
vector 64 Highway.node[8].appl distance ETV
vector 65 Highway.node[8].appl relativeSpeed ETV
vector 66 Highway.node[8].appl nodeId ETV
vector 67 Highway.node[8].appl acceleration ETV
vector 68 Highway.node[8].appl controllerAcceleration ETV
vector 69 Highway.node[8].appl speed ETV
vector 70 Highway.node[8].appl posx ETV
vector 71 Highway.node[8].appl posy ETV
vector 72 Highway.node[2].prot frontDelay ETV
vector 73 Highway.node[2].prot frontDelayId ETV
vector 74 Highway.node[6].prot frontDelay ETV
vector 75 Highway.node[6].prot frontDelayId ETV
vector 76 Highway.node[3].prot frontDelay ETV
vector 77 Highway.node[3].prot frontDelayId ETV
vector 78 Highway.node[4].prot frontDelay ETV
vector 79 Highway.node[4].prot frontDelayId ETV
vector 80 Highway.node[5].prot frontDelay ETV
vector 81 Highway.node[5].prot frontDelayId ETV
vector 82 Highway.node[1].prot leaderDelay ETV
vector 83 Highway.node[1].prot leaderDelayId ETV
vector 84 Highway.node[1].prot frontDelay ETV
vector 85 Highway.node[1].prot frontDelayId ETV
vector 86 Highway.node[2].prot leaderDelay ETV
vector 87 Highway.node[2].prot leaderDelayId ETV
vector 88 Highway.node[3].prot leaderDelay ETV
vector 89 Highway.node[3].prot leaderDelayId ETV
vector 90 Highway.node[4].prot leaderDelay ETV
vector 91 Highway.node[4].prot leaderDelayId ETV
vector 92 Highway.node[5].prot leaderDelay ETV
vector 93 Highway.node[5].prot leaderDelayId ETV
vector 94 Highway.node[6].prot leaderDelay ETV
vector 95 Highway.node[6].prot leaderDelayId ETV
vector 96 Highway.node[7].prot leaderDelay ETV
vector 97 Highway.node[7].prot leaderDelayId ETV
vector 98 Highway.node[7].prot frontDelay ETV
vector 99 Highway.node[7].prot frontDelayId ETV
vector 100 Highway.node[0].prot nodeId ETV
vector 101 Highway.node[0].prot busyTime ETV
vector 102 Highway.node[0].prot collisions ETV
vector 103 Highway.node[1].prot nodeId ETV
vector 104 Highway.node[1].prot busyTime ETV
vector 105 Highway.node[1].prot collisions ETV
vector 106 Highway.node[2].prot nodeId ETV
vector 107 Highway.node[2].prot busyTime ETV
vector 108 Highway.node[2].prot collisions ETV
vector 109 Highway.node[3].prot nodeId ETV
vector 110 Highway.node[3].prot busyTime ETV
vector 111 Highway.node[3].prot collisions ETV
vector 112 Highway.node[4].prot nodeId ETV
vector 113 Highway.node[4].prot busyTime ETV
vector 114 Highway.node[4].prot collisions ETV
vector 115 Highway.node[5].prot nodeId ETV
vector 116 Highway.node[5].prot busyTime ETV
vector 117 Highway.node[5].prot collisions ETV
vector 118 Highway.node[6].prot nodeId ETV
vector 119 Highway.node[6].prot busyTime ETV
vector 120 Highway.node[6].prot collisions ETV
vector 121 Highway.node[7].prot nodeId ETV
vector 122 Highway.node[7].prot busyTime ETV
vector 123 Highway.node[7].prot collisions ETV
vector 124 Highway.node[8].prot nodeId ETV
vector 125 Highway.node[8].prot busyTime ETV
vector 126 Highway.node[8].prot collisions ETV
0	11702 17562 113 553076 1.11 99.91 989 -1 9305.17 82766.53 779276678.5601
1	29264 16528 113 553076 1.11 99.91 989 0 0 0 0
2	45792 16528 113 553076 1.11 99.91 989 0 0 0 0
3	62320 18816 113 553076 1.11 99.91 989 -3.14892e-05 0.000707784 0.010991577126781 6.0508064149601e-06
4	81136 26474 113 553076 1.11 99.91 989 -4.89399e-05 0.00109259 0.010614843047836 8.6815283230331e-06
5	107610 22455 113 553076 1.11 99.91 989 36.11 36.1111 35713.866699999 1289666.6073546
6	130065 22352 113 553076 1.11 99.91 989 58.4099 3626.19 1822031.9411 4407931994.9126
7	152417 21473 113 553076 1.11 99.91 989 242.45 242.45 239783.05 58135400.472499
8	173890 18705 114 553077 1.11 99.91 989 -1 58.0623 6168.36787 299932.07524536
9	192595 18375 114 553077 1.11 99.91 989 -2.36679e-05 1.99861 298.73892255775 578.74005997228
10	210970 17517 114 553077 1.11 99.91 989 1 1 989 989
11	228487 23635 114 553077 1.11 99.91 989 -1.43406 0.0686093 -31.057753643237 35.562390110039
12	252122 27236 114 553077 1.11 99.91 989 -1.5 0.105582 -30.186064695933 42.613392707164
13	279358 19964 114 553077 1.11 99.91 989 32.893 36.1111 32958.8484 1099234.7730677
14	299322 23429 114 553077 1.11 99.91 989 52.4099 3344.84 1694255.9959 3785366806.6158
15	322751 22462 114 553077 1.11 99.91 989 242.45 249.05 242452.75 59439837.0125
16	345213 23292 115 553078 1.11 99.91 989 2 119.298 61993.36699 5056892.1937489
17	368505 23109 115 553078 1.11 99.91 989 0 3.1981 1113.5338196868 1536.1540838092
18	391614 17517 115 553078 1.11 99.91 989 2 2 1978 3956
19	409131 22047 115 553078 1.11 99.91 989 -2.02228 0.353912 -11.04485182684 53.65920613303
20	431178 27048 115 553078 1.11 99.91 989 -3.08596 0.399174 -9.6499663034902 74.756670677033
21	458226 19884 115 553078 1.11 99.91 989 32.913 36.1111 34600.3304 1210780.7228844
22	478110 23425 115 553078 1.11 99.91 989 46.4099 3502.89 1755544.4152 4100425620.2727
23	501535 22462 115 553078 1.11 99.91 989 242.45 242.45 239783.05 58135400.472499
24	523997 23286 116 553079 1.11 99.91 989 2 43.9936 34785.565 1426546.7408329
25	547283 25259 116 553079 1.11 99.91 989 0 3.57768 419.93609558642 834.29881585454
26	572542 17517 116 553079 1.11 99.91 989 3 3 2967 8901
27	590059 26161 116 553079 1.11 99.91 989 -2.88427 0.676211 -11.047417508328 165.12355733333
28	616220 26168 116 553079 1.11 99.91 989 -3.60523 0.726201 -9.4809405470753 199.50673143838
29	642388 23337 116 553079 1.11 99.91 989 29.6066 36.1111 34180.3962 1182856.7960426
30	665725 23275 116 553079 1.11 99.91 989 40.4099 3454.89 1716801.137 3942233328.9897
31	689000 22462 116 553079 1.11 99.91 989 242.45 242.45 239783.05 58135400.472499
32	711462 23250 117 553080 1.11 99.91 989 2 43.9924 34281.76619 1402695.8620361
33	734712 25236 117 553080 1.11 99.91 989 0 3.51461 419.92429602533 820.12159017497
34	759948 17517 117 553080 1.11 99.91 989 4 4 3956 15824
35	777465 25919 117 553080 1.11 99.91 989 -3.14921 0.939775 -11.05516761876 277.69252497873
36	803384 25953 117 553080 1.11 99.91 989 -3.60808 0.988893 -9.4814843166702 313.88114997611
37	829337 23328 117 553080 1.11 99.91 989 26.6616 36.1111 33760.4718 1156401.6780678
38	852665 23328 117 553080 1.11 99.91 989 34.4099 3406.9 1678563.1731 3788252635.1752
39	875993 22462 117 553080 1.11 99.91 989 242.45 242.45 239783.05 58135400.472499
40	898455 23247 118 553081 1.11 99.91 989 2 75.3638 37272.81431 1647395.4929908
41	921702 24691 118 553081 1.11 99.91 989 -1.38837e-07 2.89967 694.5372184995 1211.8975293759
42	946393 17517 118 553081 1.11 99.91 989 5 5 4945 24725
43	963910 26358 118 553081 1.11 99.91 989 -3.20588 0.605538 -31.11968321421 153.69755251012
44	990268 26422 118 553081 1.11 99.91 989 -3.60808 1.11067 -30.134314228538 224.62613734342
45	1016690 22346 118 553081 1.11 99.91 989 30.585 36.1111 32743.8001 1085206.6522855
46	1039036 23371 118 553081 1.11 99.91 989 28.4099 3299.33 1653348.9478 3636845509.4349
47	1062407 22462 118 553081 1.11 99.91 989 242.45 245.75 241396.75 58923208.812499
48	1084869 18967 119 553082 1.11 99.91 989 -1 26.8661 -655.13281 2015.7916892243
49	1103836 18572 119 553082 1.11 99.91 989 -3.39734e-06 1.68154 1.6819855430338 2.8275768225504
50	1122408 17517 119 553082 1.11 99.91 989 6 6 5934 35604
51	1139925 21655 119 553082 1.11 99.91 989 -3.17024 1.0504 -21.094682390099 106.37042740799
52	1161580 27865 119 553082 1.11 99.91 989 -3.60808 1.5 -21.152662414827 188.55914859792
53	1189445 19557 119 553082 1.11 99.91 989 32.3587 36.1111 33802.0397 1155708.502612
54	1209002 23435 119 553082 1.11 99.91 989 22.4099 3399.11 1699914.9871 3855935809.8606
55	1232437 22462 119 553082 1.11 99.91 989 242.45 249.05 244947.55 60671476.212501
56	1254899 21729 120 553083 1.11 99.91 989 -1 94.1101 32034.23584 2030221.8151949
57	1276628 21425 120 553083 1.11 99.91 989 -0.00278195 1.23 495.62205179743 474.5116225377
58	1298053 17517 120 553083 1.11 99.91 989 7 7 6923 48461
59	1315570 26896 120 553083 1.11 99.91 989 -2.66599 0.148028 -31.044748692017 63.174284675747
60	1342466 26928 120 553083 1.11 99.91 989 -3.60808 0.229841 -30.033715098604 103.76286166192
61	1369394 21357 120 553083 1.11 99.91 989 32.4024 36.1111 32880.4389 1094038.901155
62	1390751 23227 120 553083 1.11 99.91 989 16.4099 3301 1655151.4562 3648547249.8706
63	1413978 22462 120 553083 1.11 99.91 989 242.45 252.35 245521.75 60961950.132501
64	1436440 18506 121 553084 1.11 99.91 989 -1 -1 -989 989
65	1454946 17517 121 553084 1.11 99.91 989 0 0 0 0
66	1472463 17517 121 553084 1.11 99.91 989 8 8 7912 63296
67	1489980 19805 121 553084 1.11 99.91 989 -3.14892e-05 0.000707784 0.010991577126781 6.0508064149601e-06
68	1509785 27463 121 553084 1.11 99.91 989 -4.89399e-05 0.00109259 0.010614843047836 8.6815283230331e-06
69	1537248 23444 121 553084 1.11 99.91 989 36.11 36.1111 35713.866699999 1289666.6073546
70	1560692 23251 121 553084 1.11 99.91 989 9367.58 12935.4 11028800.69 124038512918.88
71	1583943 22462 121 553084 1.11 99.91 989 242.45 242.45 239783.05 58135400.472499
72	1606405 39975 714 553144 1.21723162043 99.917229590136 988 0.099987600416 0.100003527734 98.799998570122 9.879999734318
73	1646380 27271 714 553144 1.21723162043 99.917229590136 988 2 2 1976 3952
74	1673651 39976 783 553195 1.244031700485 99.944029547789 988 0.099987600416 0.100003527406 98.79999844772 9.8799997098241
75	1713627 27272 783 553195 1.244031700485 99.944029547789 988 6 6 5928 35568
76	1740899 40006 849 553249 1.248211760527 99.948223054 988 0.099987600416 0.100009602601 98.799998893889 9.8799997993126
77	1780905 27278 849 553249 1.248211760527 99.948223054 988 3 3 2964 8892
78	1808183 40000 916 553316 1.253002780541 99.953001214085 988 0.099987600417 0.10000352774 98.79999903396 9.8799998270559
79	1848183 27281 916 553316 1.253002780541 99.953001214085 988 4 4 3952 15808
80	1875464 39994 983 553413 1.266282800555 99.966281573291 988 0.099987600416 0.10000352841 98.799999373152 9.8799998949239
81	1915458 27288 983 553413 1.266282800555 99.966281573291 988 5 5 4940 24700
82	1942746 40022 1122 553552 1.296353000694 99.99635359291 988 0.099987600416 0.100003530481 98.800001192632 9.8800002588114
83	1982768 27294 1122 553552 1.296353000694 99.99635359291 988 1 1 988 988
84	2010062 40022 1122 553552 1.296353000694 99.99635359291 988 0.099987600416 0.100003530481 98.800001192632 9.8800002588114
85	2050084 27294 1122 553552 1.296353000694 99.99635359291 988 1 1 988 988
86	2077378 40000 1128 553528 1.296353020708 99.996353065118 988 0.099987600416 0.100003529815 98.800000644826 9.8800001492502
87	2117378 27288 1128 553528 1.296353020708 99.996353065118 988 2 2 1976 3952
88	2144666 40009 1134 553534 1.296353040722 99.996353225207 988 0.099987600416 0.100003529814 98.800000784901 9.8800001772652
89	2184675 27284 1134 553534 1.296353040722 99.996353225207 988 3 3 2964 8892
90	2211959 39995 1140 553540 1.296353060735 99.996353385293 988 0.099987600416 0.100003529815 98.800000924974 9.8800002052798
91	2251954 27266 1140 553540 1.296353060735 99.996353385293 988 4 4 3952 15808
92	2279220 40002 1146 553564 1.296353080749 99.9963537447 988 0.099987600417 0.100003530485 98.800001264367 9.8800002731584
93	2319222 27288 1146 553564 1.296353080749 99.9963537447 988 5 5 4940 24700
94	2346510 40004 1152 553546 1.296353100763 99.996353411668 988 0.099987600416 0.100003530148 98.800000911321 9.8800002025492
95	2386514 27286 1152 553546 1.296353100763 99.996353411668 988 6 6 5928 35568
96	2413800 39965 1158 553558 1.296353120777 99.996353739204 988 0.099987600416 0.100003530482 98.800001218843 9.8800002640536
97	2453765 27252 1158 553558 1.296353120777 99.996353739204 988 7 7 6916 48412
98	2481017 39946 1195 553056 1.305928120777 99.90592520878 987 0.099987600418 0.100003523653 98.699997688419 9.8699995579297
99	2520963 27235 1195 553056 1.305928120777 99.90592520878 987 7 7 6909 48363
100	2548198 1559 5059 553566 2 100 99 0 0 0 0
101	2549757 2161 5059 553566 2 100 99 0.022161 0.027139400994 2.471390400994 0.061707244307313
102	2551918 1559 5059 553566 2 100 99 0 0 0 0
103	2553477 1559 5060 553567 2 100 99 1 1 99 99
104	2555036 2161 5060 553567 2 100 99 0.022161 0.026842280198 2.471093280198 0.061691205227228
105	2557197 1559 5060 553567 2 100 99 0 0 0 0
106	2558756 1559 5061 553568 2 100 99 2 2 198 396
107	2560315 2161 5061 553568 2 100 99 0.022161 0.026842120086 2.471093120086 0.061691196631711
108	2562476 1559 5061 553568 2 100 99 0 0 0 0
109	2564035 1559 5062 553569 2 100 99 3 3 297 891
110	2565594 2160 5062 553569 2 100 99 0.022161 0.02692844031 2.47117944031 0.061695838118529
111	2567754 1559 5062 553569 2 100 99 0 0 0 0
112	2569313 1559 5063 553570 2 100 99 4 4 396 1584
113	2570872 2161 5063 553570 2 100 99 0.022161 0.026928400282 2.471179400282 0.061695835962748
114	2573033 1559 5063 553570 2 100 99 0 0 0 0
115	2574592 1559 5064 553571 2 100 99 5 5 495 2475
116	2576151 2161 5064 553571 2 100 99 0.022161 0.026842280198 2.471093280198 0.061691205227228
117	2578312 1559 5064 553571 2 100 99 0 0 0 0
118	2579871 1559 5065 553572 2 100 99 6 6 594 3564
119	2581430 2160 5065 553572 2 100 99 0.02216 0.026842280198 2.471092280198 0.061691160906228
120	2583590 1559 5065 553572 2 100 99 0 0 0 0
121	2585149 1559 5066 553573 2 100 99 7 7 693 4851
122	2586708 2161 5066 553573 2 100 99 0.022161 0.026875360256 2.471126360256 0.06169298220989
123	2588869 1559 5066 553573 2 100 99 0 0 0 0
124	2590428 1559 5067 553574 2 100 99 8 8 792 6336
125	2591987 2155 5067 553574 2 100 99 0.002817 0.003179 0.309606 0.00096834083
126	2594142 1559 5067 553574 2 100 99 0 0 0 0

