version 3
run BreakRanksNoGui-560-20240711-14:11:49-290296
attr configname BreakRanksNoGui
attr datetime 20240711-14:11:49
attr datetimef 20240711-141149
attr experiment BreakRanksNoGui
attr inifile omnetpp.ini
attr iterationvars "$nCars=9, $platoonSize=8, $nLanes=1, $ploegH=0.5, $controller=1, $headway=0.1, $leaderHeadway=1.2, $leaderSpeed=130, $breakRanksSafetyDistance=2, $minSpeed=120, $maxSpeed=140, $beaconInterval=0.1, $priority=4, $packetSize=200, $sController=\"CACC\", $0=2, $1=0"
attr iterationvarsd nCars=9/platoonSize=8/nLanes=1/ploegH=0.5/controller=1/headway=0.1/leaderHeadway=1.2/leaderSpeed=130/breakRanksSafetyDistance=2/minSpeed=120/maxSpeed=140/beaconInterval=0.1/priority=4/packetSize=200/sController=CACC/2/0
attr iterationvarsf nCars=9,platoonSize=8,nLanes=1,ploegH=0.5,controller=1,headway=0.1,leaderHeadway=1.2,leaderSpeed=130,breakRanksSafetyDistance=2,minSpeed=120,maxSpeed=140,beaconInterval=0.1,priority=4,packetSize=200,sController=CACC,2,0-
attr measurement "$nCars=9, $platoonSize=8, $nLanes=1, $ploegH=0.5, $controller=1, $headway=0.1, $leaderHeadway=1.2, $leaderSpeed=130, $breakRanksSafetyDistance=2, $minSpeed=120, $maxSpeed=140, $beaconInterval=0.1, $priority=4, $packetSize=200, $sController=\"CACC\", $0=2, $1=0"
attr network Highway
attr processid 290296
attr repetition 0
attr replication #0
attr resultdir results
attr runnumber 560
attr seedset 0
itervar beaconInterval 0.1
itervar breakRanksSafetyDistance 2
itervar controller 1
itervar headway 0.1
itervar leaderHeadway 1.2
itervar leaderSpeed 130
itervar maxSpeed 140
itervar minSpeed 120
itervar nCars 9
itervar nLanes 1
itervar packetSize 200
itervar platoonSize 8
itervar ploegH 0.5
itervar priority 4
itervar sController "\"CACC\""
config image-path ../../../veins/images
config repeat 10
config extends BreakRanks
config *.manager.command "\"sumo\""
config *.manager.ignoreGuiCommands true
config output-vector-file "results/BreakRanks_1_0.1_130_2_8 /result_0.vec"
config output-scalar-file "results/BreakRanks_1_0.1_130_2_8 /result_0.sca"
config extends Platooning
config *.node[*].scenario_type "\"BreakRanksScenario\""
config *.manager.command "\"sumo-gui\""
config *.node[*].scenario_type "\"SimpleScenario\""
config cmdenv-express-mode true
config cmdenv-autoflush true
config cmdenv-status-frequency 15s
config num-rngs 6
config network Highway
config debug-on-errors true
config print-undisposed true
config *.playgroundSizeX 65000m
config *.playgroundSizeY 25000m
config *.playgroundSizeZ 50m
config sim-time-limit "100 s"
config *.annotations.draw false
config *.obstacles.debug false
config *.world.useTorus false
config *.world.use2D false
config *.manager.updateInterval 0.01s
config *.manager.host "\"localhost\""
config *.manager.moduleType "\"org.car2x.plexe.PlatoonCar\""
config *.manager.moduleName "\"node\""
config *.manager.moduleDisplayString "\"\""
config *.manager.autoShutdown true
config *.manager.margin 25
config *.connectionManager.sendDirect true
config *.connectionManager.maxInterfDist 2600m
config *.connectionManager.drawMaxIntfDist false
config *.**.nic.mac1609_4.useServiceChannel false
config *.**.nic.mac1609_4.txPower 100mW
config *.**.nic.mac1609_4.bitrate 6Mbps
config *.**.nic.mac1609_4.useAcks true
config *.**.nic.mac1609_4.ackErrorRate 0.0
config *.**.nic.mac1609_4.frameErrorRate 0.0
config *.**.nic.phy80211p.minPowerLevel -94dBm
config *.**.nic.phy80211p.maxTXPower 100mW
config *.**.nic.phy80211p.useNoiseFloor true
config *.**.nic.phy80211p.noiseFloor -95dBm
config *.**.nic.phy80211p.decider "xmldoc(\"config.xml\")"
config *.**.nic.phy80211p.analogueModels "xmldoc(\"config.xml\")"
config *.**.nic.phy80211p.usePropagationDelay true
config *.node[*].mobility.x 0
config *.node[*].mobility.y 0
config *.node[*].mobility.z 1.895
config seed-set 0
config **.seed 0
config *.node[*].prot.rng-0 2
config *.node[*].appl.rng-0 3
config *.node[*].scenario.rng-0 4
config **.traffic.rng-0 5
config *.manager.configFile "\"./sumocfg/freeway.sumo.cfg\""
config *.manager.launchConfig "xmldoc(\"./sumocfg/freeway.launchd.xml\")"
config **.numberOfCars 9
config **.numberOfCarsPerPlatoon 8
config **.numberOfLanes 1
config *.node[*].helper_type "\"PositionHelper\""
config *.node[*].scenario.caccC1 0.5
config *.node[*].scenario.caccXi 1
config *.node[*].scenario.caccOmegaN "0.2 Hz"
config *.node[*].scenario.caccSpacing "2 m"
config *.node[*].scenario.engineTau "0.5 s"
config *.node[*].scenario.ploegH 0.5s
config *.node[*].scenario.ploegKp 0.2
config *.node[*].scenario.ploegKd 0.7
config *.node[*].scenario.useRealisticEngine false
config *.node[*].scenario.useControllerAcceleration true
config *.node[*].scenario.nLanes 1
config **.numericController 1
config **.headway 0.1s
config *.node[*].scenario.accHeadway 0.1s
config *.node[*].scenario.leaderHeadway 1.2s
config *.node[*].scenario.leaderSpeed 130kmph
config *.node[*].appl_type "\"SimplePlatooningApp\""
config *.node[*].appl.*.scalar-recording true
config *.node[*].appl.*.vector-recording true
config *.node[0].appl.breakRanksSafetyDistance 2m
config *.node[*].appl.minSpeed 120kmph
config *.node[*].appl.maxSpeed 140kmph
config *.node[*].protocol_type "\"SimplePlatooningBeaconing\""
config *.node[*].prot.*.scalar-recording true
config *.node[*].prot.*.vector-recording true
config *.node[*].prot.beaconingInterval 0.1s
config *.node[*].prot.priority 4
config *.node[*].prot.packetSize 200
config **.traffic_type "\"PlatoonsTrafficManager\""
config **.traffic.platoonInsertTime "1 s"
config **.traffic.platoonInsertSpeed 130kmph
config **.traffic.nCars 9
config **.traffic.platoonSize 8
config **.traffic.nLanes 1
config **.traffic.platooningVType "\"vtypeauto\""
config **.traffic.controller "\"CACC\""
config **.traffic.platoonInsertDistance 2m
config **.traffic.platoonInsertHeadway 0s
config **.traffic.platoonLeaderHeadway 1.2s
config **.scalar-recording false
config **.vector-recording false

vector 0 Highway.node[0].appl distance ETV
vector 1 Highway.node[0].appl relativeSpeed ETV
vector 2 Highway.node[0].appl nodeId ETV
vector 3 Highway.node[0].appl acceleration ETV
vector 4 Highway.node[0].appl controllerAcceleration ETV
vector 5 Highway.node[0].appl speed ETV
vector 6 Highway.node[0].appl posx ETV
vector 7 Highway.node[0].appl posy ETV
vector 8 Highway.node[1].appl distance ETV
vector 9 Highway.node[1].appl relativeSpeed ETV
vector 10 Highway.node[1].appl nodeId ETV
vector 11 Highway.node[1].appl acceleration ETV
vector 12 Highway.node[1].appl controllerAcceleration ETV
vector 13 Highway.node[1].appl speed ETV
vector 14 Highway.node[1].appl posx ETV
vector 15 Highway.node[1].appl posy ETV
vector 16 Highway.node[2].appl distance ETV
vector 17 Highway.node[2].appl relativeSpeed ETV
vector 18 Highway.node[2].appl nodeId ETV
vector 19 Highway.node[2].appl acceleration ETV
vector 20 Highway.node[2].appl controllerAcceleration ETV
vector 21 Highway.node[2].appl speed ETV
vector 22 Highway.node[2].appl posx ETV
vector 23 Highway.node[2].appl posy ETV
vector 24 Highway.node[3].appl distance ETV
vector 25 Highway.node[3].appl relativeSpeed ETV
vector 26 Highway.node[3].appl nodeId ETV
vector 27 Highway.node[3].appl acceleration ETV
vector 28 Highway.node[3].appl controllerAcceleration ETV
vector 29 Highway.node[3].appl speed ETV
vector 30 Highway.node[3].appl posx ETV
vector 31 Highway.node[3].appl posy ETV
vector 32 Highway.node[4].appl distance ETV
vector 33 Highway.node[4].appl relativeSpeed ETV
vector 34 Highway.node[4].appl nodeId ETV
vector 35 Highway.node[4].appl acceleration ETV
vector 36 Highway.node[4].appl controllerAcceleration ETV
vector 37 Highway.node[4].appl speed ETV
vector 38 Highway.node[4].appl posx ETV
vector 39 Highway.node[4].appl posy ETV
vector 40 Highway.node[5].appl distance ETV
vector 41 Highway.node[5].appl relativeSpeed ETV
vector 42 Highway.node[5].appl nodeId ETV
vector 43 Highway.node[5].appl acceleration ETV
vector 44 Highway.node[5].appl controllerAcceleration ETV
vector 45 Highway.node[5].appl speed ETV
vector 46 Highway.node[5].appl posx ETV
vector 47 Highway.node[5].appl posy ETV
vector 48 Highway.node[6].appl distance ETV
vector 49 Highway.node[6].appl relativeSpeed ETV
vector 50 Highway.node[6].appl nodeId ETV
vector 51 Highway.node[6].appl acceleration ETV
vector 52 Highway.node[6].appl controllerAcceleration ETV
vector 53 Highway.node[6].appl speed ETV
vector 54 Highway.node[6].appl posx ETV
vector 55 Highway.node[6].appl posy ETV
vector 56 Highway.node[7].appl distance ETV
vector 57 Highway.node[7].appl relativeSpeed ETV
vector 58 Highway.node[7].appl nodeId ETV
vector 59 Highway.node[7].appl acceleration ETV
vector 60 Highway.node[7].appl controllerAcceleration ETV
vector 61 Highway.node[7].appl speed ETV
vector 62 Highway.node[7].appl posx ETV
vector 63 Highway.node[7].appl posy ETV
vector 64 Highway.node[8].appl distance ETV
vector 65 Highway.node[8].appl relativeSpeed ETV
vector 66 Highway.node[8].appl nodeId ETV
vector 67 Highway.node[8].appl acceleration ETV
vector 68 Highway.node[8].appl controllerAcceleration ETV
vector 69 Highway.node[8].appl speed ETV
vector 70 Highway.node[8].appl posx ETV
vector 71 Highway.node[8].appl posy ETV
vector 72 Highway.node[3].prot frontDelay ETV
vector 73 Highway.node[3].prot frontDelayId ETV
vector 74 Highway.node[2].prot frontDelay ETV
vector 75 Highway.node[2].prot frontDelayId ETV
vector 76 Highway.node[7].prot frontDelay ETV
vector 77 Highway.node[7].prot frontDelayId ETV
vector 78 Highway.node[1].prot leaderDelay ETV
vector 79 Highway.node[1].prot leaderDelayId ETV
vector 80 Highway.node[1].prot frontDelay ETV
vector 81 Highway.node[1].prot frontDelayId ETV
vector 82 Highway.node[2].prot leaderDelay ETV
vector 83 Highway.node[2].prot leaderDelayId ETV
vector 84 Highway.node[3].prot leaderDelay ETV
vector 85 Highway.node[3].prot leaderDelayId ETV
vector 86 Highway.node[4].prot leaderDelay ETV
vector 87 Highway.node[4].prot leaderDelayId ETV
vector 88 Highway.node[5].prot leaderDelay ETV
vector 89 Highway.node[5].prot leaderDelayId ETV
vector 90 Highway.node[6].prot leaderDelay ETV
vector 91 Highway.node[6].prot leaderDelayId ETV
vector 92 Highway.node[7].prot leaderDelay ETV
vector 93 Highway.node[7].prot leaderDelayId ETV
vector 94 Highway.node[5].prot frontDelay ETV
vector 95 Highway.node[5].prot frontDelayId ETV
vector 96 Highway.node[4].prot frontDelay ETV
vector 97 Highway.node[4].prot frontDelayId ETV
vector 98 Highway.node[6].prot frontDelay ETV
vector 99 Highway.node[6].prot frontDelayId ETV
vector 100 Highway.node[0].prot nodeId ETV
vector 101 Highway.node[0].prot busyTime ETV
vector 102 Highway.node[0].prot collisions ETV
vector 103 Highway.node[1].prot nodeId ETV
vector 104 Highway.node[1].prot busyTime ETV
vector 105 Highway.node[1].prot collisions ETV
vector 106 Highway.node[2].prot nodeId ETV
vector 107 Highway.node[2].prot busyTime ETV
vector 108 Highway.node[2].prot collisions ETV
vector 109 Highway.node[3].prot nodeId ETV
vector 110 Highway.node[3].prot busyTime ETV
vector 111 Highway.node[3].prot collisions ETV
vector 112 Highway.node[4].prot nodeId ETV
vector 113 Highway.node[4].prot busyTime ETV
vector 114 Highway.node[4].prot collisions ETV
vector 115 Highway.node[5].prot nodeId ETV
vector 116 Highway.node[5].prot busyTime ETV
vector 117 Highway.node[5].prot collisions ETV
vector 118 Highway.node[6].prot nodeId ETV
vector 119 Highway.node[6].prot busyTime ETV
vector 120 Highway.node[6].prot collisions ETV
vector 121 Highway.node[7].prot nodeId ETV
vector 122 Highway.node[7].prot busyTime ETV
vector 123 Highway.node[7].prot collisions ETV
vector 124 Highway.node[8].prot nodeId ETV
vector 125 Highway.node[8].prot busyTime ETV
vector 126 Highway.node[8].prot collisions ETV
0	113	1.11	9305.17
0	670	1.21	9305.17
0	1227	1.31	9305.17
0	1784	1.41	9305.17
0	2341	1.51	9305.17
0	2898	1.61	9305.17
0	3455	1.71	9305.17
0	4012	1.81	9305.17
0	4569	1.91	9305.17
0	5135	2.01	9305.17
0	5692	2.11	-1
0	6249	2.21	-1
0	6806	2.31	-1
0	7363	2.41	-1
0	7920	2.51	-1
0	8477	2.61	-1
0	9034	2.71	-1
0	9591	2.81	-1
0	10148	2.91	-1
0	10714	3.01	-1
0	11271	3.11	-1
0	11828	3.21	-1
0	12385	3.31	-1
0	12942	3.41	-1
0	13499	3.51	-1
0	14056	3.61	-1
0	14613	3.71	-1
0	15170	3.81	-1
0	15727	3.91	-1
0	16293	4.01	-1
0	16850	4.11	-1
0	17407	4.21	-1
0	17964	4.31	-1
0	18521	4.41	-1
0	19078	4.51	-1
0	19635	4.61	-1
0	20192	4.71	-1
0	20749	4.81	-1
0	21306	4.91	-1
0	21872	5.01	-1
0	22429	5.11	-1
0	22986	5.21	-1
0	23543	5.31	-1
0	24100	5.41	-1
0	24657	5.51	-1
0	25214	5.61	-1
0	25771	5.71	-1
0	26328	5.81	-1
0	26885	5.91	-1
0	27451	6.01	-1
0	28008	6.11	-1
0	28565	6.21	-1
0	29122	6.31	-1
0	29679	6.41	-1
0	30236	6.51	-1
0	30793	6.61	-1
0	31350	6.71	-1
0	31907	6.81	-1
0	32464	6.91	-1
0	33030	7.01	-1
0	33587	7.11	-1
0	34144	7.21	-1
0	34701	7.31	-1
0	35258	7.41	-1
0	35815	7.51	-1
0	36372	7.61	-1
0	36929	7.71	-1
0	37486	7.81	-1
0	38043	7.91	-1
0	38609	8.01	-1
0	39166	8.11	-1
0	39723	8.21	-1
0	40280	8.31	-1
0	40837	8.41	-1
0	41394	8.51	-1
0	41951	8.61	-1
0	42508	8.71	-1
0	43065	8.81	-1
0	43622	8.91	-1
0	44188	9.01	-1
0	44745	9.11	-1
0	45302	9.21	-1
0	45859	9.31	-1
0	46416	9.41	-1
0	46973	9.51	-1
0	47530	9.61	-1
0	48087	9.71	-1
0	48644	9.81	-1
0	49201	9.91	-1
0	51450	10.01	-1
0	52007	10.11	-1
0	52564	10.21	-1
0	53121	10.31	-1
0	53678	10.41	-1
0	54235	10.51	-1
0	54792	10.61	-1
0	55349	10.71	-1
0	55906	10.81	-1
0	56463	10.91	-1
0	57029	11.01	-1
0	57586	11.11	-1
0	58143	11.21	-1
0	58700	11.31	-1
0	59257	11.41	-1
0	59814	11.51	-1
0	60371	11.61	-1
0	60928	11.71	-1
0	61485	11.81	-1
0	62042	11.91	-1
0	62608	12.01	-1
0	63165	12.11	-1
0	63722	12.21	-1
0	64279	12.31	-1
0	64836	12.41	-1
0	65393	12.51	-1
0	65950	12.61	-1
0	66507	12.71	-1
0	67064	12.81	-1
0	67621	12.91	-1
0	68187	13.01	-1
0	68744	13.11	-1
0	69301	13.21	-1
0	69858	13.31	-1
0	70415	13.41	-1
0	70972	13.51	-1
0	71529	13.61	-1
0	72086	13.71	-1
0	72643	13.81	-1
0	73200	13.91	-1
0	73766	14.01	-1
0	74323	14.11	-1
0	74880	14.21	-1
0	75437	14.31	-1
0	75994	14.41	-1
0	76551	14.51	-1
0	77108	14.61	-1
0	77665	14.71	-1
0	78222	14.81	-1
0	78779	14.91	-1
0	79345	15.01	-1
0	79902	15.11	-1
0	80459	15.21	-1
0	81016	15.31	-1
0	81573	15.41	-1
0	82130	15.51	-1
0	82687	15.61	-1
0	83244	15.71	-1
0	83801	15.81	-1
0	84358	15.91	-1
0	84924	16.01	-1
0	85481	16.11	-1
0	86038	16.21	-1
0	86595	16.31	-1
0	87152	16.41	-1
0	87709	16.51	-1
0	88266	16.61	-1
0	88823	16.71	-1
0	89380	16.81	-1
0	89937	16.91	-1
0	90503	17.01	-1
0	91060	17.11	-1
0	91617	17.21	-1
0	92174	17.31	-1
0	92731	17.41	-1
0	93288	17.51	-1
0	93845	17.61	-1
0	94402	17.71	-1
0	94959	17.81	-1
0	95516	17.91	-1
0	96082	18.01	-1
0	96639	18.11	-1
0	97196	18.21	-1
0	97753	18.31	-1
0	98310	18.41	-1
0	98867	18.51	-1
0	99424	18.61	-1
0	99981	18.71	-1
0	100538	18.81	-1
0	101095	18.91	-1
0	101661	19.01	-1
0	102218	19.11	-1
0	102775	19.21	-1
0	103332	19.31	-1
0	103889	19.41	-1
0	104446	19.51	-1
0	105003	19.61	-1
0	105560	19.71	-1
0	106117	19.81	-1
0	106674	19.91	-1
0	107240	20.01	-1
0	107797	20.11	-1
0	108354	20.21	-1
0	108911	20.31	-1
0	109468	20.41	-1
0	110025	20.51	-1
0	110582	20.61	-1
0	111139	20.71	-1
0	111696	20.81	-1
0	112253	20.91	-1
0	112819	21.01	-1
0	113376	21.11	-1
0	113933	21.21	-1
0	114490	21.31	-1
0	115047	21.41	-1
0	115604	21.51	-1
0	116161	21.61	-1
0	116718	21.71	-1
0	117275	21.81	-1
0	117832	21.91	-1
0	118398	22.01	-1
0	118955	22.11	-1
0	119512	22.21	-1
0	120069	22.31	-1
0	120626	22.41	-1
0	121183	22.51	-1
0	121740	22.61	-1
0	122297	22.71	-1
0	122854	22.81	-1
0	123411	22.91	-1
0	123977	23.01	-1
0	124534	23.11	-1
0	125091	23.21	-1
0	125648	23.31	-1
0	126205	23.41	-1
0	126762	23.51	-1
0	127319	23.61	-1
0	127876	23.71	-1
0	128433	23.81	-1
0	128990	23.91	-1
0	129556	24.01	-1
0	130113	24.11	-1
0	130670	24.21	-1
0	131227	24.31	-1
0	131784	24.41	-1
0	132341	24.51	-1
0	132898	24.61	-1
0	133455	24.71	-1
0	134012	24.81	-1
0	134569	24.91	-1
0	135135	25.01	-1
0	135692	25.11	-1
0	136249	25.21	-1
0	136806	25.31	-1
0	137363	25.41	-1
0	137920	25.51	-1
0	138477	25.61	-1
0	139034	25.71	-1
0	139591	25.81	-1
0	140148	25.91	-1
0	140714	26.01	-1
0	141271	26.11	-1
0	141828	26.21	-1
0	142385	26.31	-1
0	142942	26.41	-1
0	143499	26.51	-1
0	144056	26.61	-1
0	144613	26.71	-1
0	145170	26.81	-1
0	145727	26.91	-1
0	146293	27.01	-1
0	146850	27.11	-1
0	147407	27.21	-1
0	147964	27.31	-1
0	148521	27.41	-1
0	149078	27.51	-1
0	149635	27.61	-1
0	150192	27.71	-1
0	150749	27.81	-1
0	151306	27.91	-1
0	151872	28.01	-1
0	152429	28.11	-1
0	152986	28.21	-1
0	153543	28.31	-1
0	154100	28.41	-1
0	154657	28.51	-1
0	155214	28.61	-1
0	155771	28.71	-1
0	156328	28.81	-1
0	156885	28.91	-1
0	157451	29.01	-1
0	158008	29.11	-1
0	158565	29.21	-1
0	159122	29.31	-1
0	159679	29.41	-1
0	160236	29.51	-1
0	160793	29.61	-1
0	161350	29.71	-1
0	161907	29.81	-1
0	162464	29.91	-1
0	163030	30.01	-1
0	163587	30.11	-1
0	164144	30.21	-1
0	164701	30.31	-1
0	165258	30.41	-1
0	165815	30.51	-1
0	166372	30.61	-1
0	166929	30.71	-1
0	167486	30.81	-1
0	168043	30.91	-1
0	168609	31.01	-1
0	169166	31.11	-1
0	169723	31.21	-1
0	170280	31.31	-1
0	170837	31.41	-1
0	171394	31.51	-1
0	171951	31.61	-1
0	172508	31.71	-1
0	173065	31.81	-1
0	173622	31.91	-1
0	174188	32.01	-1
0	174745	32.11	-1
0	175302	32.21	-1
0	175859	32.31	-1
0	176416	32.41	-1
0	176973	32.51	-1
0	177530	32.61	-1
0	178087	32.71	-1
0	178644	32.81	-1
0	179201	32.91	-1
0	179767	33.01	-1
0	180324	33.11	-1
0	180881	33.21	-1
0	181438	33.31	-1
0	181995	33.41	-1
0	182552	33.51	-1
0	183109	33.61	-1
0	183666	33.71	-1
0	184223	33.81	-1
0	184780	33.91	-1
0	185346	34.01	-1
0	185903	34.11	-1
0	186460	34.21	-1
0	187017	34.31	-1
0	187574	34.41	-1
0	188131	34.51	-1
0	188688	34.61	-1
0	189245	34.71	-1
0	189802	34.81	-1
0	190359	34.91	-1
0	190925	35.01	-1
0	191482	35.11	-1
0	192039	35.21	-1
0	192596	35.31	-1
0	193153	35.41	-1
0	193710	35.51	-1
0	194267	35.61	-1
0	194824	35.71	-1
0	195381	35.81	-1
0	195938	35.91	-1
0	196504	36.01	-1
0	197061	36.11	-1
0	197618	36.21	-1
0	198175	36.31	-1
0	198732	36.41	-1
0	199289	36.51	-1
0	199846	36.61	-1
0	200403	36.71	-1
0	200960	36.81	-1
0	201517	36.91	-1
0	202083	37.01	-1
0	202640	37.11	-1
0	203197	37.21	-1
0	203754	37.31	-1
0	204311	37.41	-1
0	204868	37.51	-1
0	205425	37.61	-1
0	205982	37.71	-1
0	206539	37.81	-1
0	207096	37.91	-1
0	207662	38.01	-1
0	208219	38.11	-1
0	208776	38.21	-1
0	209333	38.31	-1
0	209890	38.41	-1
0	210447	38.51	-1
0	211004	38.61	-1
0	211561	38.71	-1
0	212118	38.81	-1
0	212675	38.91	-1
0	213241	39.01	-1
0	213798	39.11	-1
0	214355	39.21	-1
0	214912	39.31	-1
0	215469	39.41	-1
0	216026	39.51	-1
0	216583	39.61	-1
0	217140	39.71	-1
0	217697	39.81	-1
0	218254	39.91	-1
0	218820	40.01	-1
0	219377	40.11	-1
0	219934	40.21	-1
0	220491	40.31	-1
0	221048	40.41	-1
0	221605	40.51	-1
0	222162	40.61	-1
0	222719	40.71	-1
0	223276	40.81	-1
0	223833	40.91	-1
0	224399	41.01	-1
0	224956	41.11	-1
0	225513	41.21	-1
0	226070	41.31	-1
0	226627	41.41	-1
0	227184	41.51	-1
0	227741	41.61	-1
0	228298	41.71	-1
0	228855	41.81	-1
0	229412	41.91	-1
0	229978	42.01	-1
0	230535	42.11	-1
0	231092	42.21	-1
0	231649	42.31	-1
0	232206	42.41	-1
0	232763	42.51	-1
0	233320	42.61	-1
0	233877	42.71	-1
0	234434	42.81	-1
0	234991	42.91	-1
0	235557	43.01	-1
0	236114	43.11	-1
0	236671	43.21	-1
0	237228	43.31	-1
0	237785	43.41	-1
0	238342	43.51	-1
0	238899	43.61	-1
0	239456	43.71	-1
0	240013	43.81	-1
0	240570	43.91	-1
0	241136	44.01	-1
0	241693	44.11	-1
0	242250	44.21	-1
0	242807	44.31	-1
0	243364	44.41	-1
0	243921	44.51	-1
0	244478	44.61	-1
0	245035	44.71	-1
0	245592	44.81	-1
0	246149	44.91	-1
0	246715	45.01	-1
0	247272	45.11	-1
0	247829	45.21	-1
0	248386	45.31	-1
0	248943	45.41	-1
0	249500	45.51	-1
0	250057	45.61	-1
0	250614	45.71	-1
0	251171	45.81	-1
0	251728	45.91	-1
0	252294	46.01	-1
0	252851	46.11	-1
0	253408	46.21	-1
0	253965	46.31	-1
0	254522	46.41	-1
0	255079	46.51	-1
0	255636	46.61	-1
0	256193	46.71	-1
0	256750	46.81	-1
0	257307	46.91	-1
0	257873	47.01	-1
0	258430	47.11	-1
0	258987	47.21	-1
0	259544	47.31	-1
0	260101	47.41	-1
0	260658	47.51	-1
0	261215	47.61	-1
0	261772	47.71	-1
0	262329	47.81	-1
0	262886	47.91	-1
0	263452	48.01	-1
0	264009	48.11	-1
0	264566	48.21	-1
0	265123	48.31	-1
0	265680	48.41	-1
0	266237	48.51	-1
0	266794	48.61	-1
0	267351	48.71	-1
0	267908	48.81	-1
0	268465	48.91	-1
0	269031	49.01	-1
0	269588	49.11	-1
0	270145	49.21	-1
0	270702	49.31	-1
0	271259	49.41	-1
0	271816	49.51	-1
0	272373	49.61	-1
0	272930	49.71	-1
0	273487	49.81	-1
0	274044	49.91	-1
0	274610	50.01	-1
0	275167	50.11	-1
0	275724	50.21	-1
0	276281	50.31	-1
0	276838	50.41	-1
0	277395	50.51	-1
0	277952	50.61	-1
0	278509	50.71	-1
0	279066	50.81	-1
0	279623	50.91	-1
0	280189	51.01	-1
0	280746	51.11	-1
0	281303	51.21	-1
0	281860	51.31	-1
0	282417	51.41	-1
0	282974	51.51	-1
0	283531	51.61	-1
0	284088	51.71	-1
0	284645	51.81	-1
0	285202	51.91	-1
0	285768	52.01	-1
0	286325	52.11	-1
0	286882	52.21	-1
0	287439	52.31	-1
0	287996	52.41	-1
0	288553	52.51	-1
0	289110	52.61	-1
0	289667	52.71	-1
0	290224	52.81	-1
0	290781	52.91	-1
0	291347	53.01	-1
0	291904	53.11	-1
0	292461	53.21	-1
0	293018	53.31	-1
0	293575	53.41	-1
0	294132	53.51	-1
0	294689	53.61	-1
0	295246	53.71	-1
0	295803	53.81	-1
0	296360	53.91	-1
0	296926	54.01	-1
0	297483	54.11	-1
0	298040	54.21	-1
0	298597	54.31	-1
0	299154	54.41	-1
0	299711	54.51	-1
0	300268	54.61	-1
0	300825	54.71	-1
0	301382	54.81	-1
0	301939	54.91	-1
0	302505	55.01	-1
0	303062	55.11	-1
0	303619	55.21	28.4208
0	304176	55.31	28.6097
0	304733	55.41	28.7986
0	305290	55.51	28.9875
0	305847	55.61	29.1764
0	306404	55.71	29.3653
0	306961	55.81	29.5542
0	307518	55.91	29.743
0	308084	56.01	29.9319
0	308641	56.11	30.1208
0	309198	56.21	30.3097
0	309755	56.31	30.4986
0	310312	56.41	30.6875
0	310869	56.51	30.8764
0	311426	56.61	31.0653
0	311983	56.71	31.2542
0	312540	56.81	31.4431
0	313097	56.91	31.6319
0	313663	57.01	31.8208
0	314220	57.11	32.0097
0	314777	57.21	32.1986
0	315334	57.31	32.3875
0	315891	57.41	32.5764
0	316448	57.51	32.7653
0	317005	57.61	32.9542
0	317562	57.71	33.1431
0	318119	57.81	33.332
0	318676	57.91	33.5208
0	319242	58.01	33.7097
0	319799	58.11	33.8986
0	320356	58.21	34.0875
0	320913	58.31	34.2764
0	321470	58.41	34.4653
0	322027	58.51	34.6542
0	322584	58.61	34.8431
0	323141	58.71	35.032
0	323698	58.81	35.2209
0	324255	58.91	35.4097
0	324821	59.01	35.5986
0	325378	59.11	35.7875
0	325935	59.21	35.9764
0	326492	59.31	36.1653
0	327049	59.41	36.3542
0	327606	59.51	36.5431
0	328163	59.61	36.732
0	328720	59.71	36.9209
0	329277	59.81	37.1098
0	329834	59.91	37.2986
0	330400	60.01	37.4875
0	330957	60.11	37.6764
0	331514	60.21	37.8653
0	332071	60.31	38.0542
0	332628	60.41	38.2431
0	333185	60.51	38.432
0	333742	60.61	38.6209
0	334299	60.71	38.8098
0	334856	60.81	38.9987
0	335413	60.91	39.1875
0	335979	61.01	39.3764
0	336536	61.11	39.5653
0	337093	61.21	39.7542
0	337650	61.31	39.9431
0	338207	61.41	40.132
0	338764	61.51	40.3209
0	339321	61.61	40.5098
0	339878	61.71	40.6987
0	340435	61.81	40.8876
0	340992	61.91	41.0764
0	341558	62.01	41.2653
0	342115	62.11	41.4542
0	342672	62.21	41.6431
0	343229	62.31	41.832
0	343786	62.41	42.0209
0	344343	62.51	42.2098
0	344900	62.61	42.3987
0	345457	62.71	42.5876
0	346014	62.81	42.7765
0	346571	62.91	42.9653
0	347137	63.01	43.1542
0	347694	63.11	43.3431
0	348251	63.21	43.532
0	348808	63.31	43.7209
0	349365	63.41	43.9098
0	349922	63.51	44.0987
0	350479	63.61	44.2876
0	351036	63.71	44.4765
0	351593	63.81	44.6654
0	352150	63.91	44.8542
0	352716	64.01	45.0431
0	353273	64.11	45.232
0	353830	64.21	45.4209
0	354387	64.31	45.6098
0	354944	64.41	45.7987
0	355501	64.51	45.9876
0	356058	64.61	46.1765
0	356615	64.71	46.3654
0	357172	64.81	46.5543
0	357729	64.91	46.7431
0	358295	65.01	46.932
0	358852	65.11	47.1209
0	359409	65.21	47.3098
0	359966	65.31	47.4987
0	360523	65.41	47.6876
0	361080	65.51	47.8765
0	361637	65.61	48.0654
0	362194	65.71	48.2543
0	362751	65.81	48.4432
0	363308	65.91	48.632
0	363874	66.01	48.8209
0	364431	66.11	49.0098
0	364988	66.21	49.1987
0	365545	66.31	49.3876
0	366102	66.41	49.5765
0	366659	66.51	49.7654
0	367216	66.61	49.9543
0	367773	66.71	50.1432
0	368330	66.81	50.3321
0	368887	66.91	50.5209
0	369453	67.01	50.7098
0	370010	67.11	50.8987
0	370567	67.21	51.0876
0	371124	67.31	51.2765
0	371681	67.41	51.4654
0	372238	67.51	51.6543
0	372795	67.61	51.8432
0	373352	67.71	52.0321
0	373909	67.81	52.221
0	374466	67.91	52.4098
0	375032	68.01	52.5987
0	375589	68.11	52.7876
0	376146	68.21	52.9765
0	376703	68.31	53.1654
0	377260	68.41	53.3543
0	377817	68.51	53.5432
0	378374	68.61	53.7321
0	378931	68.71	53.921
0	379488	68.81	54.1099
0	380045	68.91	54.2987
0	380611	69.01	54.4876
0	381168	69.11	54.6765
0	381725	69.21	54.8654
0	382282	69.31	55.0543
0	382839	69.41	55.2432
0	383396	69.51	55.4321
0	383953	69.61	55.621
0	384510	69.71	55.8099
0	385067	69.81	55.9988
0	385624	69.91	56.1876
0	386190	70.01	56.3765
0	386747	70.11	56.5654
0	387304	70.21	56.7543
0	387861	70.31	56.9432
0	388418	70.41	57.1321
0	388975	70.51	57.321
0	389532	70.61	57.5099
0	390089	70.71	57.6988
0	390646	70.81	57.8877
0	391203	70.91	58.0765
0	391769	71.01	58.2654
0	392326	71.11	58.4543
0	392883	71.21	58.6432
0	393440	71.31	58.8321
0	393997	71.41	59.021
0	394554	71.51	59.2099
0	395111	71.61	59.3988
0	395668	71.71	59.5877
0	396225	71.81	59.7766
0	396782	71.91	59.9654
0	397348	72.01	60.1543
0	397905	72.11	60.3432
0	398462	72.21	60.5321
0	399019	72.31	60.721
0	399576	72.41	60.9099
0	400133	72.51	61.0988
0	400690	72.61	61.2877
0	401247	72.71	61.4766
0	401804	72.81	61.6655
0	402361	72.91	61.8543
0	402927	73.01	62.0432
0	403484	73.11	62.2321
0	404041	73.21	62.421
0	404598	73.31	62.6099
0	405155	73.41	62.7988
0	405712	73.51	62.9877
0	406269	73.61	63.1766
0	406826	73.71	63.3655
0	407383	73.81	63.5544
0	407940	73.91	63.7432
0	408506	74.01	63.9321
0	409063	74.11	64.121
0	409620	74.21	64.3099
0	410177	74.31	64.4988
0	410734	74.41	64.6877
0	411291	74.51	64.8766
0	411848	74.61	65.0655
0	412405	74.71	65.2544
0	412962	74.81	65.4433
0	413519	74.91	65.6321
0	414085	75.01	65.821
0	414642	75.11	66.0099
0	415199	75.21	66.1988
0	415756	75.31	66.3877
0	416313	75.41	66.5766
0	416870	75.51	66.7655
0	417427	75.61	66.9544
0	417984	75.71	67.1433
0	418541	75.81	67.3322
0	419098	75.91	67.521
0	419664	76.01	67.7099
0	420221	76.11	67.8988
0	420778	76.21	68.0877
0	421335	76.31	68.2766
0	421892	76.41	68.4655
0	422449	76.51	68.6544
0	423006	76.61	68.8433
0	423563	76.71	69.0322
0	424120	76.81	69.2211
0	424677	76.91	69.4099
0	425243	77.01	69.5988
0	425800	77.11	69.7877
0	426357	77.21	69.9766
0	426914	77.31	70.1655
0	427471	77.41	70.3544
0	428028	77.51	70.5433
0	428585	77.61	70.7322
0	429142	77.71	70.9211
0	429699	77.81	71.11
0	430256	77.91	71.2988
0	430822	78.01	71.4877
0	431379	78.11	71.6766
0	431936	78.21	71.8655
0	432493	78.31	72.0544
0	433050	78.41	72.2433
0	433607	78.51	72.4322
0	434164	78.61	72.6211
0	434721	78.71	72.81
0	435278	78.81	72.9989
0	435835	78.91	73.1877
0	436401	79.01	73.3766
0	436958	79.11	73.5655
0	437515	79.21	73.7544
0	438072	79.31	73.9433
0	438629	79.41	74.1322
0	439186	79.51	74.3211
0	439743	79.61	74.51
0	440300	79.71	74.6989
0	440857	79.81	74.8878
0	441414	79.91	75.0766
0	441980	80.01	75.2655
0	442537	80.11	75.4544
0	443094	80.21	75.6433
0	443651	80.31	75.8322
0	444208	80.41	76.0211
0	444765	80.51	76.21
0	445322	80.61	76.3989
0	445879	80.71	76.5878
0	446436	80.81	76.7767
0	446993	80.91	76.9655
0	447559	81.01	77.1544
0	448116	81.11	77.3433
0	448673	81.21	77.5322
0	449230	81.31	77.7211
0	449787	81.41	77.91
0	450344	81.51	78.0989
0	450901	81.61	78.2878
0	451458	81.71	78.4767
0	452015	81.81	78.6656
0	452572	81.91	78.8544
0	453138	82.01	79.0433
0	453695	82.11	79.2322
0	454252	82.21	79.4211
0	454809	82.31	79.61
0	455366	82.41	79.7989
0	455923	82.51	79.9878
0	456480	82.61	80.1767
0	457037	82.71	80.3656
0	457594	82.81	80.5545
0	458151	82.91	80.7433
0	458717	83.01	80.9322
0	459274	83.11	81.1211
0	459831	83.21	81.31
0	460388	83.31	81.4989
0	460945	83.41	81.6878
0	461502	83.51	81.8767
0	462059	83.61	82.0656
0	462616	83.71	82.2545
0	463173	83.81	82.4434
0	463730	83.91	82.6322
0	464296	84.01	82.8211
0	464853	84.11	83.01
0	465410	84.21	83.1989
0	465967	84.31	83.3878
0	466524	84.41	83.5767
0	467081	84.51	83.7656
0	467638	84.61	83.9545
0	468195	84.71	84.1434
0	468752	84.81	84.3323
0	469309	84.91	84.5211
0	469875	85.01	84.71
0	470432	85.11	84.8989
0	470989	85.21	85.0878
0	471546	85.31	85.2767
0	472103	85.41	85.4656
0	472660	85.51	85.6545
0	473217	85.61	85.8434
0	473774	85.71	86.0323
0	474331	85.81	86.2212
0	474888	85.91	86.41
0	475454	86.01	86.5989
0	476011	86.11	86.7878
0	476568	86.21	86.9767
0	477125	86.31	87.1656
0	477682	86.41	87.3545
0	478239	86.51	87.5434
0	478796	86.61	87.7323
0	479353	86.71	87.9212
0	479910	86.81	88.1101
0	480467	86.91	88.2989
0	481033	87.01	88.4878
0	481590	87.11	88.6767
0	482147	87.21	88.8656
0	482704	87.31	89.0545
0	483261	87.41	89.2434
0	483818	87.51	89.4323
0	484375	87.61	89.6212
0	484932	87.71	89.8101
0	485489	87.81	89.999
0	486046	87.91	90.1878
0	486612	88.01	90.3767
0	487169	88.11	90.5656
0	487726	88.21	90.7545
0	488283	88.31	90.9434
0	488840	88.41	91.1323
0	489397	88.51	91.3212
0	489954	88.61	91.5101
0	490511	88.71	91.699
0	491068	88.81	91.8879
0	491625	88.91	92.0767
0	492191	89.01	92.2656
0	492748	89.11	92.4545
0	493305	89.21	92.6434
0	493862	89.31	92.8323
0	494419	89.41	93.0212
0	494976	89.51	93.2101
0	495533	89.61	93.399
0	496090	89.71	93.5879
0	496647	89.81	93.7768
0	497204	89.91	93.9656
0	497770	90.01	94.1545
0	498327	90.11	94.3434
0	498884	90.21	94.5323
0	499441	90.31	94.7212
0	499998	90.41	94.9101
0	500555	90.51	95.099
0	501112	90.61	95.2879
0	501669	90.71	95.4768
0	502226	90.81	95.6657
0	502783	90.91	95.8545
0	503349	91.01	96.0434
0	503906	91.11	96.2323
0	504463	91.21	96.4212
0	505020	91.31	96.6101
0	505577	91.41	96.799
0	506134	91.51	96.9879
0	506691	91.61	97.1768
0	507248	91.71	97.3657
0	507805	91.81	97.5546
0	508362	91.91	97.7434
0	508928	92.01	97.9323
0	509485	92.11	98.1212
0	510042	92.21	98.3101
0	510599	92.31	98.499
0	511156	92.41	98.6879
0	511713	92.51	98.8768
0	512270	92.61	99.0657
0	512827	92.71	99.2546
0	513384	92.81	99.4435
0	513941	92.91	99.6323
0	514507	93.01	99.8212
0	515064	93.11	100.01
0	515621	93.21	100.199
0	516178	93.31	100.388
0	516735	93.41	100.577
0	517292	93.51	100.766
0	517849	93.61	100.955
0	518406	93.71	101.143
0	518963	93.81	101.332
0	519520	93.91	101.521
0	520086	94.01	101.71
0	520643	94.11	101.899
0	521200	94.21	102.088
0	521757	94.31	102.277
0	522314	94.41	102.466
0	522871	94.51	102.655
0	523428	94.61	102.843
0	523985	94.71	103.032
0	524542	94.81	103.221
0	525099	94.91	103.41
0	525665	95.01	103.599
0	526222	95.11	103.788
0	526779	95.21	103.977
0	527336	95.31	104.166
0	527893	95.41	104.355
0	528450	95.51	104.543
0	529007	95.61	104.732
0	529564	95.71	104.921
0	530121	95.81	105.11
0	530678	95.91	105.299
0	531244	96.01	105.488
0	531801	96.11	105.677
0	532358	96.21	105.866
0	532915	96.31	106.055
0	533472	96.41	106.243
0	534029	96.51	106.432
0	534586	96.61	106.621
0	535143	96.71	106.81
0	535700	96.81	106.999
0	536257	96.91	107.188
0	536823	97.01	107.377
0	537380	97.11	107.566
0	537937	97.21	107.755
0	538494	97.31	107.944
0	539051	97.41	108.132
0	539608	97.51	108.321
0	540165	97.61	108.51
0	540722	97.71	108.699
0	541279	97.81	108.888
0	541836	97.91	109.077
0	542402	98.01	109.266
0	542959	98.11	109.455
0	543516	98.21	109.644
0	544073	98.31	109.832
0	544630	98.41	110.021
0	545187	98.51	110.21
0	545744	98.61	110.399
0	546301	98.71	110.588
0	546858	98.81	110.777
0	547415	98.91	110.966
0	547981	99.01	111.155
0	548538	99.11	111.344
0	549095	99.21	111.532
0	549652	99.31	111.721
0	550209	99.41	111.91
0	550766	99.51	112.099
0	551323	99.61	112.288
0	551880	99.71	112.477
0	552437	99.81	112.666
0	552994	99.91	112.855
1	113	1.11	0
1	670	1.21	0
1	1227	1.31	0
1	1784	1.41	0
1	2341	1.51	0
1	2898	1.61	0
1	3455	1.71	0
1	4012	1.81	0
1	4569	1.91	0
1	5135	2.01	0
1	5692	2.11	0
1	6249	2.21	0
1	6806	2.31	0
1	7363	2.41	0
1	7920	2.51	0
1	8477	2.61	0
1	9034	2.71	0
1	9591	2.81	0
1	10148	2.91	0
1	10714	3.01	0
1	11271	3.11	0
1	11828	3.21	0
1	12385	3.31	0
1	12942	3.41	0
1	13499	3.51	0
1	14056	3.61	0
1	14613	3.71	0
1	15170	3.81	0
1	15727	3.91	0
1	16293	4.01	0
1	16850	4.11	0
1	17407	4.21	0
1	17964	4.31	0
1	18521	4.41	0
1	19078	4.51	0
1	19635	4.61	0
1	20192	4.71	0
1	20749	4.81	0
1	21306	4.91	0
1	21872	5.01	0
1	22429	5.11	0
1	22986	5.21	0
1	23543	5.31	0
1	24100	5.41	0
1	24657	5.51	0
1	25214	5.61	0
1	25771	5.71	0
1	26328	5.81	0
1	26885	5.91	0
1	27451	6.01	0
1	28008	6.11	0
1	28565	6.21	0
1	29122	6.31	0
1	29679	6.41	0
1	30236	6.51	0
1	30793	6.61	0
1	31350	6.71	0
1	31907	6.81	0
1	32464	6.91	0
1	33030	7.01	0
1	33587	7.11	0
1	34144	7.21	0
1	34701	7.31	0
1	35258	7.41	0
1	35815	7.51	0
1	36372	7.61	0
1	36929	7.71	0
1	37486	7.81	0
1	38043	7.91	0
1	38609	8.01	0
1	39166	8.11	0
1	39723	8.21	0
1	40280	8.31	0
1	40837	8.41	0
1	41394	8.51	0
1	41951	8.61	0
1	42508	8.71	0
1	43065	8.81	0
1	43622	8.91	0
1	44188	9.01	0
1	44745	9.11	0
1	45302	9.21	0
1	45859	9.31	0
1	46416	9.41	0
1	46973	9.51	0
1	47530	9.61	0
1	48087	9.71	0
1	48644	9.81	0
1	49201	9.91	0
1	51450	10.01	0
1	52007	10.11	0
1	52564	10.21	0
1	53121	10.31	0
1	53678	10.41	0
1	54235	10.51	0
1	54792	10.61	0
1	55349	10.71	0
1	55906	10.81	0
1	56463	10.91	0
1	57029	11.01	0
1	57586	11.11	0
1	58143	11.21	0
1	58700	11.31	0
1	59257	11.41	0
1	59814	11.51	0
1	60371	11.61	0
1	60928	11.71	0
1	61485	11.81	0
1	62042	11.91	0
1	62608	12.01	0
1	63165	12.11	0
1	63722	12.21	0
1	64279	12.31	0
1	64836	12.41	0
1	65393	12.51	0
1	65950	12.61	0
1	66507	12.71	0
1	67064	12.81	0
1	67621	12.91	0
1	68187	13.01	0
1	68744	13.11	0
1	69301	13.21	0
1	69858	13.31	0
1	70415	13.41	0
1	70972	13.51	0
1	71529	13.61	0
1	72086	13.71	0
1	72643	13.81	0
1	73200	13.91	0
1	73766	14.01	0
1	74323	14.11	0
1	74880	14.21	0
1	75437	14.31	0
1	75994	14.41	0
1	76551	14.51	0
1	77108	14.61	0
1	77665	14.71	0
1	78222	14.81	0
1	78779	14.91	0
1	79345	15.01	0
1	79902	15.11	0
1	80459	15.21	0
1	81016	15.31	0
1	81573	15.41	0
1	82130	15.51	0
1	82687	15.61	0
1	83244	15.71	0
1	83801	15.81	0
1	84358	15.91	0
1	84924	16.01	0
1	85481	16.11	0
1	86038	16.21	0
1	86595	16.31	0
1	87152	16.41	0
1	87709	16.51	0
1	88266	16.61	0
1	88823	16.71	0
1	89380	16.81	0
1	89937	16.91	0
1	90503	17.01	0
1	91060	17.11	0
1	91617	17.21	0
1	92174	17.31	0
1	92731	17.41	0
1	93288	17.51	0
1	93845	17.61	0
1	94402	17.71	0
1	94959	17.81	0
1	95516	17.91	0
1	96082	18.01	0
1	96639	18.11	0
1	97196	18.21	0
1	97753	18.31	0
1	98310	18.41	0
1	98867	18.51	0
1	99424	18.61	0
1	99981	18.71	0
1	100538	18.81	0
1	101095	18.91	0
1	101661	19.01	0
1	102218	19.11	0
1	102775	19.21	0
1	103332	19.31	0
1	103889	19.41	0
1	104446	19.51	0
1	105003	19.61	0
1	105560	19.71	0
1	106117	19.81	0
1	106674	19.91	0
1	107240	20.01	0
1	107797	20.11	0
1	108354	20.21	0
1	108911	20.31	0
1	109468	20.41	0
1	110025	20.51	0
1	110582	20.61	0
1	111139	20.71	0
1	111696	20.81	0
1	112253	20.91	0
1	112819	21.01	0
1	113376	21.11	0
1	113933	21.21	0
1	114490	21.31	0
1	115047	21.41	0
1	115604	21.51	0
1	116161	21.61	0
1	116718	21.71	0
1	117275	21.81	0
1	117832	21.91	0
1	118398	22.01	0
1	118955	22.11	0
1	119512	22.21	0
1	120069	22.31	0
1	120626	22.41	0
1	121183	22.51	0
1	121740	22.61	0
1	122297	22.71	0
1	122854	22.81	0
1	123411	22.91	0
1	123977	23.01	0
1	124534	23.11	0
1	125091	23.21	0
1	125648	23.31	0
1	126205	23.41	0
1	126762	23.51	0
1	127319	23.61	0
1	127876	23.71	0
1	128433	23.81	0
1	128990	23.91	0
1	129556	24.01	0
1	130113	24.11	0
1	130670	24.21	0
1	131227	24.31	0
1	131784	24.41	0
1	132341	24.51	0
1	132898	24.61	0
1	133455	24.71	0
1	134012	24.81	0
1	134569	24.91	0
1	135135	25.01	0
1	135692	25.11	0
1	136249	25.21	0
1	136806	25.31	0
1	137363	25.41	0
1	137920	25.51	0
1	138477	25.61	0
1	139034	25.71	0
1	139591	25.81	0
1	140148	25.91	0
1	140714	26.01	0
1	141271	26.11	0
1	141828	26.21	0
1	142385	26.31	0
1	142942	26.41	0
1	143499	26.51	0
1	144056	26.61	0
1	144613	26.71	0
1	145170	26.81	0
1	145727	26.91	0
1	146293	27.01	0
1	146850	27.11	0
1	147407	27.21	0
1	147964	27.31	0
1	148521	27.41	0
1	149078	27.51	0
1	149635	27.61	0
1	150192	27.71	0
1	150749	27.81	0
1	151306	27.91	0
1	151872	28.01	0
1	152429	28.11	0
1	152986	28.21	0
1	153543	28.31	0
1	154100	28.41	0
1	154657	28.51	0
1	155214	28.61	0
1	155771	28.71	0
1	156328	28.81	0
1	156885	28.91	0
1	157451	29.01	0
1	158008	29.11	0
1	158565	29.21	0
1	159122	29.31	0
1	159679	29.41	0
1	160236	29.51	0
1	160793	29.61	0
1	161350	29.71	0
1	161907	29.81	0
1	162464	29.91	0
1	163030	30.01	0
1	163587	30.11	0
1	164144	30.21	0
1	164701	30.31	0
1	165258	30.41	0
1	165815	30.51	0
1	166372	30.61	0
1	166929	30.71	0
1	167486	30.81	0
1	168043	30.91	0
1	168609	31.01	0
1	169166	31.11	0
1	169723	31.21	0
1	170280	31.31	0
1	170837	31.41	0
1	171394	31.51	0
1	171951	31.61	0
1	172508	31.71	0
1	173065	31.81	0
1	173622	31.91	0
1	174188	32.01	0
1	174745	32.11	0
1	175302	32.21	0
1	175859	32.31	0
1	176416	32.41	0
1	176973	32.51	0
1	177530	32.61	0
1	178087	32.71	0
1	178644	32.81	0
1	179201	32.91	0
1	179767	33.01	0
1	180324	33.11	0
1	180881	33.21	0
1	181438	33.31	0
1	181995	33.41	0
1	182552	33.51	0
1	183109	33.61	0
1	183666	33.71	0
1	184223	33.81	0
1	184780	33.91	0
1	185346	34.01	0
1	185903	34.11	0
1	186460	34.21	0
1	187017	34.31	0
1	187574	34.41	0
1	188131	34.51	0
1	188688	34.61	0
1	189245	34.71	0
1	189802	34.81	0
1	190359	34.91	0
1	190925	35.01	0
1	191482	35.11	0
1	192039	35.21	0
1	192596	35.31	0
1	193153	35.41	0
1	193710	35.51	0
1	194267	35.61	0
1	194824	35.71	0
1	195381	35.81	0
1	195938	35.91	0
1	196504	36.01	0
1	197061	36.11	0
1	197618	36.21	0
1	198175	36.31	0
1	198732	36.41	0
1	199289	36.51	0
1	199846	36.61	0
1	200403	36.71	0
1	200960	36.81	0
1	201517	36.91	0
1	202083	37.01	0
1	202640	37.11	0
1	203197	37.21	0
1	203754	37.31	0
1	204311	37.41	0
1	204868	37.51	0
1	205425	37.61	0
1	205982	37.71	0
1	206539	37.81	0
1	207096	37.91	0
1	207662	38.01	0
1	208219	38.11	0
1	208776	38.21	0
1	209333	38.31	0
1	209890	38.41	0
1	210447	38.51	0
1	211004	38.61	0
1	211561	38.71	0
1	212118	38.81	0
1	212675	38.91	0
1	213241	39.01	0
1	213798	39.11	0
1	214355	39.21	0
1	214912	39.31	0
1	215469	39.41	0
1	216026	39.51	0
1	216583	39.61	0
1	217140	39.71	0
1	217697	39.81	0
1	218254	39.91	0
1	218820	40.01	0
1	219377	40.11	0
1	219934	40.21	0
1	220491	40.31	0
1	221048	40.41	0
1	221605	40.51	0
1	222162	40.61	0
1	222719	40.71	0
1	223276	40.81	0
1	223833	40.91	0
1	224399	41.01	0
1	224956	41.11	0
1	225513	41.21	0
1	226070	41.31	0
1	226627	41.41	0
1	227184	41.51	0
1	227741	41.61	0
1	228298	41.71	0
1	228855	41.81	0
1	229412	41.91	0
1	229978	42.01	0
1	230535	42.11	0
1	231092	42.21	0
1	231649	42.31	0
1	232206	42.41	0
1	232763	42.51	0
1	233320	42.61	0
1	233877	42.71	0
1	234434	42.81	0
1	234991	42.91	0
1	235557	43.01	0
1	236114	43.11	0
1	236671	43.21	0
1	237228	43.31	0
1	237785	43.41	0
1	238342	43.51	0
1	238899	43.61	0
1	239456	43.71	0
1	240013	43.81	0
1	240570	43.91	0
1	241136	44.01	0
1	241693	44.11	0
1	242250	44.21	0
1	242807	44.31	0
1	243364	44.41	0
1	243921	44.51	0
1	244478	44.61	0
1	245035	44.71	0
1	245592	44.81	0
1	246149	44.91	0
1	246715	45.01	0
1	247272	45.11	0
1	247829	45.21	0
1	248386	45.31	0
1	248943	45.41	0
1	249500	45.51	0
1	250057	45.61	0
1	250614	45.71	0
1	251171	45.81	0
1	251728	45.91	0
1	252294	46.01	0
1	252851	46.11	0
1	253408	46.21	0
1	253965	46.31	0
1	254522	46.41	0
1	255079	46.51	0
1	255636	46.61	0
1	256193	46.71	0
1	256750	46.81	0
1	257307	46.91	0
1	257873	47.01	0
1	258430	47.11	0
1	258987	47.21	0
1	259544	47.31	0
1	260101	47.41	0
1	260658	47.51	0
1	261215	47.61	0
1	261772	47.71	0
1	262329	47.81	0
1	262886	47.91	0
1	263452	48.01	0
1	264009	48.11	0
1	264566	48.21	0
1	265123	48.31	0
1	265680	48.41	0
1	266237	48.51	0
1	266794	48.61	0
1	267351	48.71	0
1	267908	48.81	0
1	268465	48.91	0
1	269031	49.01	0
1	269588	49.11	0
1	270145	49.21	0
1	270702	49.31	0
1	271259	49.41	0
1	271816	49.51	0
1	272373	49.61	0
1	272930	49.71	0
1	273487	49.81	0
1	274044	49.91	0
1	274610	50.01	0
1	275167	50.11	0
1	275724	50.21	0
1	276281	50.31	0
1	276838	50.41	0
1	277395	50.51	0
1	277952	50.61	0
1	278509	50.71	0
1	279066	50.81	0
1	279623	50.91	0
1	280189	51.01	0
1	280746	51.11	0
1	281303	51.21	0
1	281860	51.31	0
1	282417	51.41	0
1	282974	51.51	0
1	283531	51.61	0
1	284088	51.71	0
1	284645	51.81	0
1	285202	51.91	0
1	285768	52.01	0
1	286325	52.11	0
1	286882	52.21	0
1	287439	52.31	0
1	287996	52.41	0
1	288553	52.51	0
1	289110	52.61	0
1	289667	52.71	0
1	290224	52.81	0
1	290781	52.91	0
1	291347	53.01	0
1	291904	53.11	0
1	292461	53.21	0
1	293018	53.31	0
1	293575	53.41	0
1	294132	53.51	0
1	294689	53.61	0
1	295246	53.71	0
1	295803	53.81	0
1	296360	53.91	0
1	296926	54.01	0
1	297483	54.11	0
1	298040	54.21	0
1	298597	54.31	0
1	299154	54.41	0
1	299711	54.51	0
1	300268	54.61	0
1	300825	54.71	0
1	301382	54.81	0
1	301939	54.91	0
1	302505	55.01	0
1	303062	55.11	0
1	303619	55.21	1.8889
1	304176	55.31	1.8889
1	304733	55.41	1.8889
1	305290	55.51	1.8889
1	305847	55.61	1.8889
1	306404	55.71	1.8889
1	306961	55.81	1.8889
1	307518	55.91	1.8889
1	308084	56.01	1.8889
1	308641	56.11	1.8889
1	309198	56.21	1.8889
1	309755	56.31	1.8889
1	310312	56.41	1.8889
1	310869	56.51	1.8889
1	311426	56.61	1.8889
1	311983	56.71	1.8889
1	312540	56.81	1.8889
1	313097	56.91	1.8889
1	313663	57.01	1.8889
1	314220	57.11	1.8889
1	314777	57.21	1.8889
1	315334	57.31	1.8889
1	315891	57.41	1.8889
1	316448	57.51	1.8889
1	317005	57.61	1.8889
1	317562	57.71	1.8889
1	318119	57.81	1.8889
1	318676	57.91	1.8889
1	319242	58.01	1.8889
1	319799	58.11	1.8889
1	320356	58.21	1.8889
1	320913	58.31	1.8889
1	321470	58.41	1.8889
1	322027	58.51	1.8889
1	322584	58.61	1.8889
1	323141	58.71	1.8889
1	323698	58.81	1.8889
1	324255	58.91	1.8889
1	324821	59.01	1.8889
1	325378	59.11	1.8889
1	325935	59.21	1.8889
1	326492	59.31	1.8889
1	327049	59.41	1.8889
1	327606	59.51	1.8889
1	328163	59.61	1.8889
1	328720	59.71	1.8889
1	329277	59.81	1.8889
1	329834	59.91	1.8889
1	330400	60.01	1.8889
1	330957	60.11	1.8889
1	331514	60.21	1.8889
1	332071	60.31	1.8889
1	332628	60.41	1.8889
1	333185	60.51	1.8889
1	333742	60.61	1.8889
1	334299	60.71	1.8889
1	334856	60.81	1.8889
1	335413	60.91	1.8889
1	335979	61.01	1.8889
1	336536	61.11	1.8889
1	337093	61.21	1.8889
1	337650	61.31	1.8889
1	338207	61.41	1.8889
1	338764	61.51	1.8889
1	339321	61.61	1.8889
1	339878	61.71	1.8889
1	340435	61.81	1.8889
1	340992	61.91	1.8889
1	341558	62.01	1.8889
1	342115	62.11	1.8889
1	342672	62.21	1.8889
1	343229	62.31	1.8889
1	343786	62.41	1.8889
1	344343	62.51	1.8889
1	344900	62.61	1.8889
1	345457	62.71	1.8889
1	346014	62.81	1.8889
1	346571	62.91	1.8889
1	347137	63.01	1.8889
1	347694	63.11	1.8889
1	348251	63.21	1.8889
1	348808	63.31	1.8889
1	349365	63.41	1.8889
1	349922	63.51	1.8889
1	350479	63.61	1.8889
1	351036	63.71	1.8889
1	351593	63.81	1.8889
1	352150	63.91	1.8889
1	352716	64.01	1.8889
1	353273	64.11	1.8889
1	353830	64.21	1.8889
1	354387	64.31	1.8889
1	354944	64.41	1.8889
1	355501	64.51	1.8889
1	356058	64.61	1.8889
1	356615	64.71	1.8889
1	357172	64.81	1.8889
1	357729	64.91	1.8889
1	358295	65.01	1.8889
1	358852	65.11	1.8889
1	359409	65.21	1.8889
1	359966	65.31	1.8889
1	360523	65.41	1.8889
1	361080	65.51	1.8889
1	361637	65.61	1.8889
1	362194	65.71	1.8889
1	362751	65.81	1.8889
1	363308	65.91	1.8889
1	363874	66.01	1.8889
1	364431	66.11	1.8889
1	364988	66.21	1.8889
1	365545	66.31	1.8889
1	366102	66.41	1.8889
1	366659	66.51	1.8889
1	367216	66.61	1.8889
1	367773	66.71	1.8889
1	368330	66.81	1.8889
1	368887	66.91	1.8889
1	369453	67.01	1.8889
1	370010	67.11	1.8889
1	370567	67.21	1.8889
1	371124	67.31	1.8889
1	371681	67.41	1.8889
1	372238	67.51	1.8889
1	372795	67.61	1.8889
1	373352	67.71	1.8889
1	373909	67.81	1.8889
1	374466	67.91	1.8889
1	375032	68.01	1.8889
1	375589	68.11	1.8889
1	376146	68.21	1.8889
1	376703	68.31	1.8889
1	377260	68.41	1.8889
1	377817	68.51	1.8889
1	378374	68.61	1.8889
1	378931	68.71	1.8889
1	379488	68.81	1.8889
1	380045	68.91	1.8889
1	380611	69.01	1.8889
1	381168	69.11	1.8889
1	381725	69.21	1.8889
1	382282	69.31	1.8889
1	382839	69.41	1.8889
1	383396	69.51	1.8889
1	383953	69.61	1.8889
1	384510	69.71	1.8889
1	385067	69.81	1.8889
1	385624	69.91	1.8889
1	386190	70.01	1.8889
1	386747	70.11	1.8889
1	387304	70.21	1.8889
1	387861	70.31	1.8889
1	388418	70.41	1.8889
1	388975	70.51	1.8889
1	389532	70.61	1.8889
1	390089	70.71	1.8889
1	390646	70.81	1.8889
1	391203	70.91	1.8889
1	391769	71.01	1.8889
1	392326	71.11	1.8889
1	392883	71.21	1.8889
1	393440	71.31	1.8889
1	393997	71.41	1.8889
1	394554	71.51	1.8889
1	395111	71.61	1.8889
1	395668	71.71	1.8889
1	396225	71.81	1.8889
1	396782	71.91	1.8889
1	397348	72.01	1.8889
1	397905	72.11	1.8889
1	398462	72.21	1.8889
1	399019	72.31	1.8889
1	399576	72.41	1.8889
1	400133	72.51	1.8889
1	400690	72.61	1.8889
1	401247	72.71	1.8889
1	401804	72.81	1.8889
1	402361	72.91	1.8889
1	402927	73.01	1.8889
1	403484	73.11	1.8889
1	404041	73.21	1.8889
1	404598	73.31	1.8889
1	405155	73.41	1.8889
1	405712	73.51	1.8889
1	406269	73.61	1.8889
1	406826	73.71	1.8889
1	407383	73.81	1.8889
1	407940	73.91	1.8889
1	408506	74.01	1.8889
1	409063	74.11	1.8889
1	409620	74.21	1.8889
1	410177	74.31	1.8889
1	410734	74.41	1.8889
1	411291	74.51	1.8889
1	411848	74.61	1.8889
1	412405	74.71	1.8889
1	412962	74.81	1.8889
1	413519	74.91	1.8889
1	414085	75.01	1.8889
1	414642	75.11	1.8889
1	415199	75.21	1.8889
1	415756	75.31	1.8889
1	416313	75.41	1.8889
1	416870	75.51	1.8889
1	417427	75.61	1.8889
1	417984	75.71	1.8889
1	418541	75.81	1.8889
1	419098	75.91	1.8889
1	419664	76.01	1.8889
1	420221	76.11	1.8889
1	420778	76.21	1.8889
1	421335	76.31	1.8889
1	421892	76.41	1.8889
1	422449	76.51	1.8889
1	423006	76.61	1.8889
1	423563	76.71	1.8889
1	424120	76.81	1.8889
1	424677	76.91	1.8889
1	425243	77.01	1.8889
1	425800	77.11	1.8889
1	426357	77.21	1.8889
1	426914	77.31	1.8889
1	427471	77.41	1.8889
1	428028	77.51	1.8889
1	428585	77.61	1.8889
1	429142	77.71	1.8889
1	429699	77.81	1.8889
1	430256	77.91	1.8889
1	430822	78.01	1.8889
1	431379	78.11	1.8889
1	431936	78.21	1.8889
1	432493	78.31	1.8889
1	433050	78.41	1.8889
1	433607	78.51	1.8889
1	434164	78.61	1.8889
1	434721	78.71	1.8889
1	435278	78.81	1.8889
1	435835	78.91	1.8889
1	436401	79.01	1.8889
1	436958	79.11	1.8889
1	437515	79.21	1.8889
1	438072	79.31	1.8889
1	438629	79.41	1.8889
1	439186	79.51	1.8889
1	439743	79.61	1.8889
1	440300	79.71	1.8889
1	440857	79.81	1.8889
1	441414	79.91	1.8889
1	441980	80.01	1.8889
1	442537	80.11	1.8889
1	443094	80.21	1.8889
1	443651	80.31	1.8889
1	444208	80.41	1.8889
1	444765	80.51	1.8889
1	445322	80.61	1.8889
1	445879	80.71	1.8889
1	446436	80.81	1.8889
1	446993	80.91	1.8889
1	447559	81.01	1.8889
1	448116	81.11	1.8889
1	448673	81.21	1.8889
1	449230	81.31	1.8889
1	449787	81.41	1.8889
1	450344	81.51	1.8889
1	450901	81.61	1.8889
1	451458	81.71	1.8889
1	452015	81.81	1.8889
1	452572	81.91	1.8889
1	453138	82.01	1.8889
1	453695	82.11	1.8889
1	454252	82.21	1.8889
1	454809	82.31	1.8889
1	455366	82.41	1.8889
1	455923	82.51	1.8889
1	456480	82.61	1.8889
1	457037	82.71	1.8889
1	457594	82.81	1.8889
1	458151	82.91	1.8889
1	458717	83.01	1.8889
1	459274	83.11	1.8889
1	459831	83.21	1.8889
1	460388	83.31	1.8889
1	460945	83.41	1.8889
1	461502	83.51	1.8889
1	462059	83.61	1.8889
1	462616	83.71	1.8889
1	463173	83.81	1.8889
1	463730	83.91	1.8889
1	464296	84.01	1.8889
1	464853	84.11	1.8889
1	465410	84.21	1.8889
1	465967	84.31	1.8889
1	466524	84.41	1.8889
1	467081	84.51	1.8889
1	467638	84.61	1.8889
1	468195	84.71	1.8889
1	468752	84.81	1.8889
1	469309	84.91	1.8889
1	469875	85.01	1.8889
1	470432	85.11	1.8889
1	470989	85.21	1.8889
1	471546	85.31	1.8889
1	472103	85.41	1.8889
1	472660	85.51	1.8889
1	473217	85.61	1.8889
1	473774	85.71	1.8889
1	474331	85.81	1.8889
1	474888	85.91	1.8889
1	475454	86.01	1.8889
1	476011	86.11	1.8889
1	476568	86.21	1.8889
1	477125	86.31	1.8889
1	477682	86.41	1.8889
1	478239	86.51	1.8889
1	478796	86.61	1.8889
1	479353	86.71	1.8889
1	479910	86.81	1.8889
1	480467	86.91	1.8889
1	481033	87.01	1.8889
1	481590	87.11	1.8889
1	482147	87.21	1.8889
1	482704	87.31	1.8889
1	483261	87.41	1.8889
1	483818	87.51	1.8889
1	484375	87.61	1.8889
1	484932	87.71	1.8889
1	485489	87.81	1.8889
1	486046	87.91	1.8889
1	486612	88.01	1.8889
1	487169	88.11	1.8889
1	487726	88.21	1.8889
1	488283	88.31	1.8889
1	488840	88.41	1.8889
1	489397	88.51	1.8889
1	489954	88.61	1.8889
1	490511	88.71	1.8889
1	491068	88.81	1.8889
1	491625	88.91	1.8889
1	492191	89.01	1.8889
1	492748	89.11	1.8889
1	493305	89.21	1.8889
1	493862	89.31	1.8889
1	494419	89.41	1.8889
1	494976	89.51	1.8889
1	495533	89.61	1.8889
1	496090	89.71	1.8889
1	496647	89.81	1.8889
1	497204	89.91	1.8889
1	497770	90.01	1.8889
1	498327	90.11	1.8889
1	498884	90.21	1.8889
1	499441	90.31	1.8889
1	499998	90.41	1.8889
1	500555	90.51	1.8889
1	501112	90.61	1.8889
1	501669	90.71	1.8889
1	502226	90.81	1.8889
1	502783	90.91	1.8889
1	503349	91.01	1.8889
1	503906	91.11	1.8889
1	504463	91.21	1.8889
1	505020	91.31	1.8889
1	505577	91.41	1.8889
1	506134	91.51	1.8889
1	506691	91.61	1.8889
1	507248	91.71	1.8889
1	507805	91.81	1.8889
1	508362	91.91	1.8889
1	508928	92.01	1.8889
1	509485	92.11	1.8889
1	510042	92.21	1.8889
1	510599	92.31	1.8889
1	511156	92.41	1.8889
1	511713	92.51	1.8889
1	512270	92.61	1.8889
1	512827	92.71	1.8889
1	513384	92.81	1.8889
1	513941	92.91	1.8889
1	514507	93.01	1.8889
1	515064	93.11	1.8889
1	515621	93.21	1.8889
1	516178	93.31	1.8889
1	516735	93.41	1.8889
1	517292	93.51	1.8889
1	517849	93.61	1.8889
1	518406	93.71	1.8889
1	518963	93.81	1.8889
1	519520	93.91	1.8889
1	520086	94.01	1.8889
1	520643	94.11	1.8889
1	521200	94.21	1.8889
1	521757	94.31	1.8889
1	522314	94.41	1.8889
1	522871	94.51	1.8889
1	523428	94.61	1.8889
1	523985	94.71	1.8889
1	524542	94.81	1.8889
1	525099	94.91	1.8889
1	525665	95.01	1.8889
1	526222	95.11	1.8889
1	526779	95.21	1.8889
1	527336	95.31	1.8889
1	527893	95.41	1.8889
1	528450	95.51	1.8889
1	529007	95.61	1.8889
1	529564	95.71	1.8889
1	530121	95.81	1.8889
1	530678	95.91	1.8889
1	531244	96.01	1.8889
1	531801	96.11	1.8889
1	532358	96.21	1.8889
1	532915	96.31	1.8889
1	533472	96.41	1.8889
1	534029	96.51	1.8889
1	534586	96.61	1.8889
1	535143	96.71	1.8889
1	535700	96.81	1.8889
1	536257	96.91	1.8889
1	536823	97.01	1.8889
1	537380	97.11	1.8889
1	537937	97.21	1.8889
1	538494	97.31	1.8889
1	539051	97.41	1.8889
1	539608	97.51	1.8889
1	540165	97.61	1.8889
1	540722	97.71	1.8889
1	541279	97.81	1.8889
1	541836	97.91	1.8889
1	542402	98.01	1.8889
1	542959	98.11	1.8889
1	543516	98.21	1.8889
1	544073	98.31	1.8889
1	544630	98.41	1.8889
1	545187	98.51	1.8889
1	545744	98.61	1.8889
1	546301	98.71	1.8889
1	546858	98.81	1.8889
1	547415	98.91	1.8889
1	547981	99.01	1.8889
1	548538	99.11	1.8889
1	549095	99.21	1.8889
1	549652	99.31	1.8889
1	550209	99.41	1.8889
1	550766	99.51	1.8889
1	551323	99.61	1.8889
1	551880	99.71	1.8889
1	552437	99.81	1.8889
1	552994	99.91	1.8889
2	113	1.11	0
2	670	1.21	0
2	1227	1.31	0
2	1784	1.41	0
2	2341	1.51	0
2	2898	1.61	0
2	3455	1.71	0
2	4012	1.81	0
2	4569	1.91	0
2	5135	2.01	0
2	5692	2.11	0
2	6249	2.21	0
2	6806	2.31	0
2	7363	2.41	0
2	7920	2.51	0
2	8477	2.61	0
2	9034	2.71	0
2	9591	2.81	0
2	10148	2.91	0
2	10714	3.01	0
2	11271	3.11	0
2	11828	3.21	0
2	12385	3.31	0
2	12942	3.41	0
2	13499	3.51	0
2	14056	3.61	0
2	14613	3.71	0
2	15170	3.81	0
2	15727	3.91	0
2	16293	4.01	0
2	16850	4.11	0
2	17407	4.21	0
2	17964	4.31	0
2	18521	4.41	0
2	19078	4.51	0
2	19635	4.61	0
2	20192	4.71	0
2	20749	4.81	0
2	21306	4.91	0
2	21872	5.01	0
2	22429	5.11	0
2	22986	5.21	0
2	23543	5.31	0
2	24100	5.41	0
2	24657	5.51	0
2	25214	5.61	0
2	25771	5.71	0
2	26328	5.81	0
2	26885	5.91	0
2	27451	6.01	0
2	28008	6.11	0
2	28565	6.21	0
2	29122	6.31	0
2	29679	6.41	0
2	30236	6.51	0
2	30793	6.61	0
2	31350	6.71	0
2	31907	6.81	0
2	32464	6.91	0
2	33030	7.01	0
2	33587	7.11	0
2	34144	7.21	0
2	34701	7.31	0
2	35258	7.41	0
2	35815	7.51	0
2	36372	7.61	0
2	36929	7.71	0
2	37486	7.81	0
2	38043	7.91	0
2	38609	8.01	0
2	39166	8.11	0
2	39723	8.21	0
2	40280	8.31	0
2	40837	8.41	0
2	41394	8.51	0
2	41951	8.61	0
2	42508	8.71	0
2	43065	8.81	0
2	43622	8.91	0
2	44188	9.01	0
2	44745	9.11	0
2	45302	9.21	0
2	45859	9.31	0
2	46416	9.41	0
2	46973	9.51	0
2	47530	9.61	0
2	48087	9.71	0
2	48644	9.81	0
2	49201	9.91	0
2	51450	10.01	0
2	52007	10.11	0
2	52564	10.21	0
2	53121	10.31	0
2	53678	10.41	0
2	54235	10.51	0
2	54792	10.61	0
2	55349	10.71	0
2	55906	10.81	0
2	56463	10.91	0
2	57029	11.01	0
2	57586	11.11	0
2	58143	11.21	0
2	58700	11.31	0
2	59257	11.41	0
2	59814	11.51	0
2	60371	11.61	0
2	60928	11.71	0
2	61485	11.81	0
2	62042	11.91	0
2	62608	12.01	0
2	63165	12.11	0
2	63722	12.21	0
2	64279	12.31	0
2	64836	12.41	0
2	65393	12.51	0
2	65950	12.61	0
2	66507	12.71	0
2	67064	12.81	0
2	67621	12.91	0
2	68187	13.01	0
2	68744	13.11	0
2	69301	13.21	0
2	69858	13.31	0
2	70415	13.41	0
2	70972	13.51	0
2	71529	13.61	0
2	72086	13.71	0
2	72643	13.81	0
2	73200	13.91	0
2	73766	14.01	0
2	74323	14.11	0
2	74880	14.21	0
2	75437	14.31	0
2	75994	14.41	0
2	76551	14.51	0
2	77108	14.61	0
2	77665	14.71	0
2	78222	14.81	0
2	78779	14.91	0
2	79345	15.01	0
2	79902	15.11	0
2	80459	15.21	0
2	81016	15.31	0
2	81573	15.41	0
2	82130	15.51	0
2	82687	15.61	0
2	83244	15.71	0
2	83801	15.81	0
2	84358	15.91	0
2	84924	16.01	0
2	85481	16.11	0
2	86038	16.21	0
2	86595	16.31	0
2	87152	16.41	0
2	87709	16.51	0
2	88266	16.61	0
2	88823	16.71	0
2	89380	16.81	0
2	89937	16.91	0
2	90503	17.01	0
2	91060	17.11	0
2	91617	17.21	0
2	92174	17.31	0
2	92731	17.41	0
2	93288	17.51	0
2	93845	17.61	0
2	94402	17.71	0
2	94959	17.81	0
2	95516	17.91	0
2	96082	18.01	0
2	96639	18.11	0
2	97196	18.21	0
2	97753	18.31	0
2	98310	18.41	0
2	98867	18.51	0
2	99424	18.61	0
2	99981	18.71	0
2	100538	18.81	0
2	101095	18.91	0
2	101661	19.01	0
2	102218	19.11	0
2	102775	19.21	0
2	103332	19.31	0
2	103889	19.41	0
2	104446	19.51	0
2	105003	19.61	0
2	105560	19.71	0
2	106117	19.81	0
2	106674	19.91	0
2	107240	20.01	0
2	107797	20.11	0
2	108354	20.21	0
2	108911	20.31	0
2	109468	20.41	0
2	110025	20.51	0
2	110582	20.61	0
2	111139	20.71	0
2	111696	20.81	0
2	112253	20.91	0
2	112819	21.01	0
2	113376	21.11	0
2	113933	21.21	0
2	114490	21.31	0
2	115047	21.41	0
2	115604	21.51	0
2	116161	21.61	0
2	116718	21.71	0
2	117275	21.81	0
2	117832	21.91	0
2	118398	22.01	0
2	118955	22.11	0
2	119512	22.21	0
2	120069	22.31	0
2	120626	22.41	0
2	121183	22.51	0
2	121740	22.61	0
2	122297	22.71	0
2	122854	22.81	0
2	123411	22.91	0
2	123977	23.01	0
2	124534	23.11	0
2	125091	23.21	0
2	125648	23.31	0
2	126205	23.41	0
2	126762	23.51	0
2	127319	23.61	0
2	127876	23.71	0
2	128433	23.81	0
2	128990	23.91	0
2	129556	24.01	0
2	130113	24.11	0
2	130670	24.21	0
2	131227	24.31	0
2	131784	24.41	0
2	132341	24.51	0
2	132898	24.61	0
2	133455	24.71	0
2	134012	24.81	0
2	134569	24.91	0
2	135135	25.01	0
2	135692	25.11	0
2	136249	25.21	0
2	136806	25.31	0
2	137363	25.41	0
2	137920	25.51	0
2	138477	25.61	0
2	139034	25.71	0
2	139591	25.81	0
2	140148	25.91	0
2	140714	26.01	0
2	141271	26.11	0
2	141828	26.21	0
2	142385	26.31	0
2	142942	26.41	0
2	143499	26.51	0
2	144056	26.61	0
2	144613	26.71	0
2	145170	26.81	0
2	145727	26.91	0
2	146293	27.01	0
2	146850	27.11	0
2	147407	27.21	0
2	147964	27.31	0
2	148521	27.41	0
2	149078	27.51	0
2	149635	27.61	0
2	150192	27.71	0
2	150749	27.81	0
2	151306	27.91	0
2	151872	28.01	0
2	152429	28.11	0
2	152986	28.21	0
2	153543	28.31	0
2	154100	28.41	0
2	154657	28.51	0
2	155214	28.61	0
2	155771	28.71	0
2	156328	28.81	0
2	156885	28.91	0
2	157451	29.01	0
2	158008	29.11	0
2	158565	29.21	0
2	159122	29.31	0
2	159679	29.41	0
2	160236	29.51	0
2	160793	29.61	0
2	161350	29.71	0
2	161907	29.81	0
2	162464	29.91	0
2	163030	30.01	0
2	163587	30.11	0
2	164144	30.21	0
2	164701	30.31	0
2	165258	30.41	0
2	165815	30.51	0
2	166372	30.61	0
2	166929	30.71	0
2	167486	30.81	0
2	168043	30.91	0
2	168609	31.01	0
2	169166	31.11	0
2	169723	31.21	0
2	170280	31.31	0
2	170837	31.41	0
2	171394	31.51	0
2	171951	31.61	0
2	172508	31.71	0
2	173065	31.81	0
2	173622	31.91	0
2	174188	32.01	0
2	174745	32.11	0
2	175302	32.21	0
2	175859	32.31	0
2	176416	32.41	0
2	176973	32.51	0
2	177530	32.61	0
2	178087	32.71	0
2	178644	32.81	0
2	179201	32.91	0
2	179767	33.01	0
2	180324	33.11	0
2	180881	33.21	0
2	181438	33.31	0
2	181995	33.41	0
2	182552	33.51	0
2	183109	33.61	0
2	183666	33.71	0
2	184223	33.81	0
2	184780	33.91	0
2	185346	34.01	0
2	185903	34.11	0
2	186460	34.21	0
2	187017	34.31	0
2	187574	34.41	0
2	188131	34.51	0
2	188688	34.61	0
2	189245	34.71	0
2	189802	34.81	0
2	190359	34.91	0
2	190925	35.01	0
2	191482	35.11	0
2	192039	35.21	0
2	192596	35.31	0
2	193153	35.41	0
2	193710	35.51	0
2	194267	35.61	0
2	194824	35.71	0
2	195381	35.81	0
2	195938	35.91	0
2	196504	36.01	0
2	197061	36.11	0
2	197618	36.21	0
2	198175	36.31	0
2	198732	36.41	0
2	199289	36.51	0
2	199846	36.61	0
2	200403	36.71	0
2	200960	36.81	0
2	201517	36.91	0
2	202083	37.01	0
2	202640	37.11	0
2	203197	37.21	0
2	203754	37.31	0
2	204311	37.41	0
2	204868	37.51	0
2	205425	37.61	0
2	205982	37.71	0
2	206539	37.81	0
2	207096	37.91	0
2	207662	38.01	0
2	208219	38.11	0
2	208776	38.21	0
2	209333	38.31	0
2	209890	38.41	0
2	210447	38.51	0
2	211004	38.61	0
2	211561	38.71	0
2	212118	38.81	0
2	212675	38.91	0
2	213241	39.01	0
2	213798	39.11	0
2	214355	39.21	0
2	214912	39.31	0
2	215469	39.41	0
2	216026	39.51	0
2	216583	39.61	0
2	217140	39.71	0
2	217697	39.81	0
2	218254	39.91	0
2	218820	40.01	0
2	219377	40.11	0
2	219934	40.21	0
2	220491	40.31	0
2	221048	40.41	0
2	221605	40.51	0
2	222162	40.61	0
2	222719	40.71	0
2	223276	40.81	0
2	223833	40.91	0
2	224399	41.01	0
2	224956	41.11	0
2	225513	41.21	0
2	226070	41.31	0
2	226627	41.41	0
2	227184	41.51	0
2	227741	41.61	0
2	228298	41.71	0
2	228855	41.81	0
2	229412	41.91	0
2	229978	42.01	0
2	230535	42.11	0
2	231092	42.21	0
2	231649	42.31	0
2	232206	42.41	0
2	232763	42.51	0
2	233320	42.61	0
2	233877	42.71	0
2	234434	42.81	0
2	234991	42.91	0
2	235557	43.01	0
2	236114	43.11	0
2	236671	43.21	0
2	237228	43.31	0
2	237785	43.41	0
2	238342	43.51	0
2	238899	43.61	0
2	239456	43.71	0
2	240013	43.81	0
2	240570	43.91	0
2	241136	44.01	0
2	241693	44.11	0
2	242250	44.21	0
2	242807	44.31	0
2	243364	44.41	0
2	243921	44.51	0
2	244478	44.61	0
2	245035	44.71	0
2	245592	44.81	0
2	246149	44.91	0
2	246715	45.01	0
2	247272	45.11	0
2	247829	45.21	0
2	248386	45.31	0
2	248943	45.41	0
2	249500	45.51	0
2	250057	45.61	0
2	250614	45.71	0
2	251171	45.81	0
2	251728	45.91	0
2	252294	46.01	0
2	252851	46.11	0
2	253408	46.21	0
2	253965	46.31	0
2	254522	46.41	0
2	255079	46.51	0
2	255636	46.61	0
2	256193	46.71	0
2	256750	46.81	0
2	257307	46.91	0
2	257873	47.01	0
2	258430	47.11	0
2	258987	47.21	0
2	259544	47.31	0
2	260101	47.41	0
2	260658	47.51	0
2	261215	47.61	0
2	261772	47.71	0
2	262329	47.81	0
2	262886	47.91	0
2	263452	48.01	0
2	264009	48.11	0
2	264566	48.21	0
2	265123	48.31	0
2	265680	48.41	0
2	266237	48.51	0
2	266794	48.61	0
2	267351	48.71	0
2	267908	48.81	0
2	268465	48.91	0
2	269031	49.01	0
2	269588	49.11	0
2	270145	49.21	0
2	270702	49.31	0
2	271259	49.41	0
2	271816	49.51	0
2	272373	49.61	0
2	272930	49.71	0
2	273487	49.81	0
2	274044	49.91	0
2	274610	50.01	0
2	275167	50.11	0
2	275724	50.21	0
2	276281	50.31	0
2	276838	50.41	0
2	277395	50.51	0
2	277952	50.61	0
2	278509	50.71	0
2	279066	50.81	0
2	279623	50.91	0
2	280189	51.01	0
2	280746	51.11	0
2	281303	51.21	0
2	281860	51.31	0
2	282417	51.41	0
2	282974	51.51	0
2	283531	51.61	0
2	284088	51.71	0
2	284645	51.81	0
2	285202	51.91	0
2	285768	52.01	0
2	286325	52.11	0
2	286882	52.21	0
2	287439	52.31	0
2	287996	52.41	0
2	288553	52.51	0
2	289110	52.61	0
2	289667	52.71	0
2	290224	52.81	0
2	290781	52.91	0
2	291347	53.01	0
2	291904	53.11	0
2	292461	53.21	0
2	293018	53.31	0
2	293575	53.41	0
2	294132	53.51	0
2	294689	53.61	0
2	295246	53.71	0
2	295803	53.81	0
2	296360	53.91	0
2	296926	54.01	0
2	297483	54.11	0
2	298040	54.21	0
2	298597	54.31	0
2	299154	54.41	0
2	299711	54.51	0
2	300268	54.61	0
2	300825	54.71	0
2	301382	54.81	0
2	301939	54.91	0
2	302505	55.01	0
2	303062	55.11	0
2	303619	55.21	0
2	304176	55.31	0
2	304733	55.41	0
2	305290	55.51	0
2	305847	55.61	0
2	306404	55.71	0
2	306961	55.81	0
2	307518	55.91	0
2	308084	56.01	0
2	308641	56.11	0
2	309198	56.21	0
2	309755	56.31	0
2	310312	56.41	0
2	310869	56.51	0
2	311426	56.61	0
2	311983	56.71	0
2	312540	56.81	0
2	313097	56.91	0
2	313663	57.01	0
2	314220	57.11	0
2	314777	57.21	0
2	315334	57.31	0
2	315891	57.41	0
2	316448	57.51	0
2	317005	57.61	0
2	317562	57.71	0
2	318119	57.81	0
2	318676	57.91	0
2	319242	58.01	0
2	319799	58.11	0
2	320356	58.21	0
2	320913	58.31	0
2	321470	58.41	0
2	322027	58.51	0
2	322584	58.61	0
2	323141	58.71	0
2	323698	58.81	0
2	324255	58.91	0
2	324821	59.01	0
2	325378	59.11	0
2	325935	59.21	0
2	326492	59.31	0
2	327049	59.41	0
2	327606	59.51	0
2	328163	59.61	0
2	328720	59.71	0
2	329277	59.81	0
2	329834	59.91	0
2	330400	60.01	0
2	330957	60.11	0
2	331514	60.21	0
2	332071	60.31	0
2	332628	60.41	0
2	333185	60.51	0
2	333742	60.61	0
2	334299	60.71	0
2	334856	60.81	0
2	335413	60.91	0
2	335979	61.01	0
2	336536	61.11	0
2	337093	61.21	0
2	337650	61.31	0
2	338207	61.41	0
2	338764	61.51	0
2	339321	61.61	0
2	339878	61.71	0
2	340435	61.81	0
2	340992	61.91	0
2	341558	62.01	0
2	342115	62.11	0
2	342672	62.21	0
2	343229	62.31	0
2	343786	62.41	0
2	344343	62.51	0
2	344900	62.61	0
2	345457	62.71	0
2	346014	62.81	0
2	346571	62.91	0
2	347137	63.01	0
2	347694	63.11	0
2	348251	63.21	0
2	348808	63.31	0
2	349365	63.41	0
2	349922	63.51	0
2	350479	63.61	0
2	351036	63.71	0
2	351593	63.81	0
2	352150	63.91	0
2	352716	64.01	0
2	353273	64.11	0
2	353830	64.21	0
2	354387	64.31	0
2	354944	64.41	0
2	355501	64.51	0
2	356058	64.61	0
2	356615	64.71	0
2	357172	64.81	0
2	357729	64.91	0
2	358295	65.01	0
2	358852	65.11	0
2	359409	65.21	0
2	359966	65.31	0
2	360523	65.41	0
2	361080	65.51	0
2	361637	65.61	0
2	362194	65.71	0
2	362751	65.81	0
2	363308	65.91	0
2	363874	66.01	0
2	364431	66.11	0
2	364988	66.21	0
2	365545	66.31	0
2	366102	66.41	0
2	366659	66.51	0
2	367216	66.61	0
2	367773	66.71	0
2	368330	66.81	0
2	368887	66.91	0
2	369453	67.01	0
2	370010	67.11	0
2	370567	67.21	0
2	371124	67.31	0
2	371681	67.41	0
2	372238	67.51	0
2	372795	67.61	0
2	373352	67.71	0
2	373909	67.81	0
2	374466	67.91	0
2	375032	68.01	0
2	375589	68.11	0
2	376146	68.21	0
2	376703	68.31	0
2	377260	68.41	0
2	377817	68.51	0
2	378374	68.61	0
2	378931	68.71	0
2	379488	68.81	0
2	380045	68.91	0
2	380611	69.01	0
2	381168	69.11	0
2	381725	69.21	0
2	382282	69.31	0
2	382839	69.41	0
2	383396	69.51	0
2	383953	69.61	0
2	384510	69.71	0
2	385067	69.81	0
2	385624	69.91	0
2	386190	70.01	0
2	386747	70.11	0
2	387304	70.21	0
2	387861	70.31	0
2	388418	70.41	0
2	388975	70.51	0
2	389532	70.61	0
2	390089	70.71	0
2	390646	70.81	0
2	391203	70.91	0
2	391769	71.01	0
2	392326	71.11	0
2	392883	71.21	0
2	393440	71.31	0
2	393997	71.41	0
2	394554	71.51	0
2	395111	71.61	0
2	395668	71.71	0
2	396225	71.81	0
2	396782	71.91	0
2	397348	72.01	0
2	397905	72.11	0
2	398462	72.21	0
2	399019	72.31	0
2	399576	72.41	0
2	400133	72.51	0
2	400690	72.61	0
2	401247	72.71	0
2	401804	72.81	0
2	402361	72.91	0
2	402927	73.01	0
2	403484	73.11	0
2	404041	73.21	0
2	404598	73.31	0
2	405155	73.41	0
2	405712	73.51	0
2	406269	73.61	0
2	406826	73.71	0
2	407383	73.81	0
2	407940	73.91	0
2	408506	74.01	0
2	409063	74.11	0
2	409620	74.21	0
2	410177	74.31	0
2	410734	74.41	0
2	411291	74.51	0
2	411848	74.61	0
2	412405	74.71	0
2	412962	74.81	0
2	413519	74.91	0
2	414085	75.01	0
2	414642	75.11	0
2	415199	75.21	0
2	415756	75.31	0
2	416313	75.41	0
2	416870	75.51	0
2	417427	75.61	0
2	417984	75.71	0
2	418541	75.81	0
2	419098	75.91	0
2	419664	76.01	0
2	420221	76.11	0
2	420778	76.21	0
2	421335	76.31	0
2	421892	76.41	0
2	422449	76.51	0
2	423006	76.61	0
2	423563	76.71	0
2	424120	76.81	0
2	424677	76.91	0
2	425243	77.01	0
2	425800	77.11	0
2	426357	77.21	0
2	426914	77.31	0
2	427471	77.41	0
2	428028	77.51	0
2	428585	77.61	0
2	429142	77.71	0
2	429699	77.81	0
2	430256	77.91	0
2	430822	78.01	0
2	431379	78.11	0
2	431936	78.21	0
2	432493	78.31	0
2	433050	78.41	0
2	433607	78.51	0
2	434164	78.61	0
2	434721	78.71	0
2	435278	78.81	0
2	435835	78.91	0
2	436401	79.01	0
2	436958	79.11	0
2	437515	79.21	0
2	438072	79.31	0
2	438629	79.41	0
2	439186	79.51	0
2	439743	79.61	0
2	440300	79.71	0
2	440857	79.81	0
2	441414	79.91	0
2	441980	80.01	0
2	442537	80.11	0
2	443094	80.21	0
2	443651	80.31	0
2	444208	80.41	0
2	444765	80.51	0
2	445322	80.61	0
2	445879	80.71	0
2	446436	80.81	0
2	446993	80.91	0
2	447559	81.01	0
2	448116	81.11	0
2	448673	81.21	0
2	449230	81.31	0
2	449787	81.41	0
2	450344	81.51	0
2	450901	81.61	0
2	451458	81.71	0
2	452015	81.81	0
2	452572	81.91	0
2	453138	82.01	0
2	453695	82.11	0
2	454252	82.21	0
2	454809	82.31	0
2	455366	82.41	0
2	455923	82.51	0
2	456480	82.61	0
2	457037	82.71	0
2	457594	82.81	0
2	458151	82.91	0
2	458717	83.01	0
2	459274	83.11	0
2	459831	83.21	0
2	460388	83.31	0
2	460945	83.41	0
2	461502	83.51	0
2	462059	83.61	0
2	462616	83.71	0
2	463173	83.81	0
2	463730	83.91	0
2	464296	84.01	0
2	464853	84.11	0
2	465410	84.21	0
2	465967	84.31	0
2	466524	84.41	0
2	467081	84.51	0
2	467638	84.61	0
2	468195	84.71	0
2	468752	84.81	0
2	469309	84.91	0
2	469875	85.01	0
2	470432	85.11	0
2	470989	85.21	0
2	471546	85.31	0
2	472103	85.41	0
2	472660	85.51	0
2	473217	85.61	0
2	473774	85.71	0
2	474331	85.81	0
2	474888	85.91	0
2	475454	86.01	0
2	476011	86.11	0
2	476568	86.21	0
2	477125	86.31	0
2	477682	86.41	0
2	478239	86.51	0
2	478796	86.61	0
2	479353	86.71	0
2	479910	86.81	0
2	480467	86.91	0
2	481033	87.01	0
2	481590	87.11	0
2	482147	87.21	0
2	482704	87.31	0
2	483261	87.41	0
2	483818	87.51	0
2	484375	87.61	0
2	484932	87.71	0
2	485489	87.81	0
2	486046	87.91	0
2	486612	88.01	0
2	487169	88.11	0
2	487726	88.21	0
2	488283	88.31	0
2	488840	88.41	0
2	489397	88.51	0
2	489954	88.61	0
2	490511	88.71	0
2	491068	88.81	0
2	491625	88.91	0
2	492191	89.01	0
2	492748	89.11	0
2	493305	89.21	0
2	493862	89.31	0
2	494419	89.41	0
2	494976	89.51	0
2	495533	89.61	0
2	496090	89.71	0
2	496647	89.81	0
2	497204	89.91	0
2	497770	90.01	0
2	498327	90.11	0
2	498884	90.21	0
2	499441	90.31	0
2	499998	90.41	0
2	500555	90.51	0
2	501112	90.61	0
2	501669	90.71	0
2	502226	90.81	0
2	502783	90.91	0
2	503349	91.01	0
2	503906	91.11	0
2	504463	91.21	0
2	505020	91.31	0
2	505577	91.41	0
2	506134	91.51	0
2	506691	91.61	0
2	507248	91.71	0
2	507805	91.81	0
2	508362	91.91	0
2	508928	92.01	0
2	509485	92.11	0
2	510042	92.21	0
2	510599	92.31	0
2	511156	92.41	0
2	511713	92.51	0
2	512270	92.61	0
2	512827	92.71	0
2	513384	92.81	0
2	513941	92.91	0
2	514507	93.01	0
2	515064	93.11	0
2	515621	93.21	0
2	516178	93.31	0
2	516735	93.41	0
2	517292	93.51	0
2	517849	93.61	0
2	518406	93.71	0
2	518963	93.81	0
2	519520	93.91	0
2	520086	94.01	0
2	520643	94.11	0
2	521200	94.21	0
2	521757	94.31	0
2	522314	94.41	0
2	522871	94.51	0
2	523428	94.61	0
2	523985	94.71	0
2	524542	94.81	0
2	525099	94.91	0
2	525665	95.01	0
2	526222	95.11	0
2	526779	95.21	0
2	527336	95.31	0
2	527893	95.41	0
2	528450	95.51	0
2	529007	95.61	0
2	529564	95.71	0
2	530121	95.81	0
2	530678	95.91	0
2	531244	96.01	0
2	531801	96.11	0
2	532358	96.21	0
2	532915	96.31	0
2	533472	96.41	0
2	534029	96.51	0
2	534586	96.61	0
2	535143	96.71	0
2	535700	96.81	0
2	536257	96.91	0
2	536823	97.01	0
2	537380	97.11	0
2	537937	97.21	0
2	538494	97.31	0
2	539051	97.41	0
2	539608	97.51	0
2	540165	97.61	0
2	540722	97.71	0
2	541279	97.81	0
2	541836	97.91	0
2	542402	98.01	0
2	542959	98.11	0
2	543516	98.21	0
2	544073	98.31	0
2	544630	98.41	0
2	545187	98.51	0
2	545744	98.61	0
2	546301	98.71	0
2	546858	98.81	0
2	547415	98.91	0
2	547981	99.01	0
2	548538	99.11	0
2	549095	99.21	0
2	549652	99.31	0
2	550209	99.41	0
2	550766	99.51	0
2	551323	99.61	0
2	551880	99.71	0
2	552437	99.81	0
2	552994	99.91	0
3	113	1.11	0.000179096
3	670	1.21	0.000340852
3	1227	1.31	0.000467435
3	1784	1.41	0.000562893
3	2341	1.51	0.000631106
3	2898	1.61	0.000675745
3	3455	1.71	0.000700245
3	4012	1.81	0.000707784
3	4569	1.91	0.000701273
3	5135	2.01	0.000683354
3	5692	2.11	0.000656398
3	6249	2.21	0.000622512
3	6806	2.31	0.000583548
3	7363	2.41	0.000541117
3	7920	2.51	0.000496604
3	8477	2.61	0.000451181
3	9034	2.71	0.000405825
3	9591	2.81	0.00036134
3	10148	2.91	0.000318365
3	10714	3.01	0.0002774
3	11271	3.11	0.00023882
3	11828	3.21	0.000202887
3	12385	3.31	0.00016977
3	12942	3.41	0.000139558
3	13499	3.51	0.000112271
3	14056	3.61	8.78717e-05
3	14613	3.71	6.628e-05
3	15170	3.81	4.73785e-05
3	15727	3.91	3.1023e-05
3	16293	4.01	1.70493e-05
3	16850	4.11	5.28023e-06
3	17407	4.21	-4.46922e-06
3	17964	4.31	-1.2387e-05
3	18521	4.41	-1.86602e-05
3	19078	4.51	-2.34717e-05
3	19635	4.61	-2.69978e-05
3	20192	4.71	-2.94062e-05
3	20749	4.81	-3.08545e-05
3	21306	4.91	-3.14892e-05
3	21872	5.01	-3.14451e-05
3	22429	5.11	-3.0845e-05
3	22986	5.21	-2.97994e-05
3	23543	5.31	-2.84072e-05
3	24100	5.41	-2.67556e-05
3	24657	5.51	-2.49208e-05
3	25214	5.61	-2.29687e-05
3	25771	5.71	-2.09553e-05
3	26328	5.81	-1.89277e-05
3	26885	5.91	-1.6925e-05
3	27451	6.01	-1.49784e-05
3	28008	6.11	-1.31129e-05
3	28565	6.21	-1.13474e-05
3	29122	6.31	-9.69553e-06
3	29679	6.41	-8.16651e-06
3	30236	6.51	-6.76571e-06
3	30793	6.61	-5.49522e-06
3	31350	6.71	-4.35441e-06
3	31907	6.81	-3.34045e-06
3	32464	6.91	-2.44874e-06
3	33030	7.01	-1.6733e-06
3	33587	7.11	-1.00716e-06
3	34144	7.21	-4.42628e-07
3	34701	7.31	2.84224e-08
3	35258	7.41	4.14339e-07
3	35815	7.51	7.23492e-07
3	36372	7.61	9.6413e-07
3	36929	7.71	1.14424e-06
3	37486	7.81	1.27148e-06
3	38043	7.91	1.35305e-06
3	38609	8.01	1.3957e-06
3	39166	8.11	1.40565e-06
3	39723	8.21	1.3886e-06
3	40280	8.31	1.34971e-06
3	40837	8.41	1.2936e-06
3	41394	8.51	1.22437e-06
3	41951	8.61	1.14561e-06
3	42508	8.71	1.06046e-06
3	43065	8.81	9.71582e-07
3	43622	8.91	8.81246e-07
3	44188	9.01	7.91334e-07
3	44745	9.11	7.03381e-07
3	45302	9.21	6.18613e-07
3	45859	9.31	5.37979e-07
3	46416	9.41	4.62183e-07
3	46973	9.51	3.91714e-07
3	47530	9.61	3.26878e-07
3	48087	9.71	2.67827e-07
3	48644	9.81	2.14581e-07
3	49201	9.91	1.67052e-07
3	51450	10.01	1.25066e-07
3	52007	10.11	8.83794e-08
3	52564	10.21	5.66978e-08
3	53121	10.31	2.96922e-08
3	53678	10.41	7.00453e-09
3	54235	10.51	-1.17325e-08
3	54792	10.61	-2.68933e-08
3	55349	10.71	-3.88482e-08
3	55906	10.81	-4.79581e-08
3	56463	10.91	-5.45704e-08
3	57029	11.01	-5.90177e-08
3	57586	11.11	-6.16069e-08
3	58143	11.21	-6.26265e-08
3	58700	11.31	-6.23395e-08
3	59257	11.41	-6.09859e-08
3	59814	11.51	-5.87811e-08
3	60371	11.61	-5.59183e-08
3	60928	11.71	-5.25674e-08
3	61485	11.81	-4.88761e-08
3	62042	11.91	-4.4971e-08
3	62608	12.01	-4.09599e-08
3	63165	12.11	-3.69354e-08
3	63722	12.21	-3.29713e-08
3	64279	12.31	-2.9128e-08
3	64836	12.41	-2.54531e-08
3	65393	12.51	-2.19821e-08
3	65950	12.61	-1.87399e-08
3	66507	12.71	-1.57428e-08
3	67064	12.81	-1.30029e-08
3	67621	12.91	-1.05217e-08
3	68187	13.01	-8.29772e-09
3	68744	13.11	-6.32454e-09
3	69301	13.21	-4.59224e-09
3	69858	13.31	-3.08802e-09
3	70415	13.41	-1.79838e-09
3	70972	13.51	-7.08411e-10
3	71529	13.61	1.98241e-10
3	72086	13.71	9.37916e-10
3	72643	13.81	1.52767e-09
3	73200	13.91	1.98384e-09
3	73766	14.01	2.32276e-09
3	74323	14.11	2.55937e-09
3	74880	14.21	2.70788e-09
3	75437	14.31	2.78249e-09
3	75994	14.41	2.79243e-09
3	76551	14.51	2.7498e-09
3	77108	14.61	2.66525e-09
3	77665	14.71	2.54872e-09
3	78222	14.81	2.40803e-09
3	78779	14.91	2.24887e-09
3	79345	15.01	2.07763e-09
3	79902	15.11	1.89999e-09
3	80459	15.21	1.72236e-09
3	81016	15.31	1.54472e-09
3	81573	15.41	1.37064e-09
3	82130	15.51	1.20295e-09
3	82687	15.61	1.04379e-09
3	83244	15.71	8.94573e-10
3	83801	15.81	7.56017e-10
3	84358	15.91	6.29541e-10
3	84924	16.01	5.13012e-10
3	85481	16.11	4.09273e-10
3	86038	16.21	3.16902e-10
3	86595	16.31	2.3519e-10
3	87152	16.41	1.63425e-10
3	87709	16.51	1.02318e-10
3	88266	16.61	4.9738e-11
3	88823	16.71	5.68434e-12
3	89380	16.81	-3.05533e-11
3	89937	16.91	-5.8975e-11
3	90503	17.01	-8.10019e-11
3	91060	17.11	-9.80549e-11
3	91617	17.21	-1.11555e-10
3	92174	17.31	-1.18661e-10
3	92731	17.41	-1.23634e-10
3	93288	17.51	-1.23634e-10
3	93845	17.61	-1.23634e-10
3	94402	17.71	-1.21503e-10
3	94959	17.81	-1.14397e-10
3	95516	17.91	-1.07292e-10
3	96082	18.01	-1.00187e-10
3	96639	18.11	-9.30811e-11
3	97196	18.21	-8.59757e-11
3	97753	18.31	-7.88702e-11
3	98310	18.41	-7.17648e-11
3	98867	18.51	-6.46594e-11
3	99424	18.61	-5.7554e-11
3	99981	18.71	-5.04485e-11
3	100538	18.81	-4.33431e-11
3	101095	18.91	-3.62377e-11
3	101661	19.01	-2.91323e-11
3	102218	19.11	-2.20268e-11
3	102775	19.21	-1.7053e-11
3	103332	19.31	-1.49214e-11
3	103889	19.41	-1.35003e-11
3	104446	19.51	-1.27898e-11
3	105003	19.61	-1.13687e-11
3	105560	19.71	-9.9476e-12
3	106117	19.81	-9.23706e-12
3	106674	19.91	-8.52651e-12
3	107240	20.01	-7.81597e-12
3	107797	20.11	-7.10543e-12
3	108354	20.21	-6.39488e-12
3	108911	20.31	-5.68434e-12
3	109468	20.41	-4.9738e-12
3	110025	20.51	-4.26326e-12
3	110582	20.61	-4.26326e-12
3	111139	20.71	-3.55271e-12
3	111696	20.81	-3.55271e-12
3	112253	20.91	-2.84217e-12
3	112819	21.01	-2.84217e-12
3	113376	21.11	-2.84217e-12
3	113933	21.21	-2.13163e-12
3	114490	21.31	-2.13163e-12
3	115047	21.41	-2.13163e-12
3	115604	21.51	-1.42109e-12
3	116161	21.61	-1.42109e-12
3	116718	21.71	-1.42109e-12
3	117275	21.81	-1.42109e-12
3	117832	21.91	-1.42109e-12
3	118398	22.01	-7.10543e-13
3	118955	22.11	-7.10543e-13
3	119512	22.21	-7.10543e-13
3	120069	22.31	-7.10543e-13
3	120626	22.41	-7.10543e-13
3	121183	22.51	-7.10543e-13
3	121740	22.61	-7.10543e-13
3	122297	22.71	-7.10543e-13
3	122854	22.81	-7.10543e-13
3	123411	22.91	-7.10543e-13
3	123977	23.01	0
3	124534	23.11	0
3	125091	23.21	0
3	125648	23.31	0
3	126205	23.41	0
3	126762	23.51	0
3	127319	23.61	0
3	127876	23.71	0
3	128433	23.81	0
3	128990	23.91	0
3	129556	24.01	0
3	130113	24.11	0
3	130670	24.21	0
3	131227	24.31	0
3	131784	24.41	0
3	132341	24.51	0
3	132898	24.61	0
3	133455	24.71	0
3	134012	24.81	0
3	134569	24.91	0
3	135135	25.01	0
3	135692	25.11	0
3	136249	25.21	0
3	136806	25.31	0
3	137363	25.41	0
3	137920	25.51	0
3	138477	25.61	0
3	139034	25.71	0
3	139591	25.81	0
3	140148	25.91	0
3	140714	26.01	0
3	141271	26.11	0
3	141828	26.21	0
3	142385	26.31	0
3	142942	26.41	0
3	143499	26.51	0
3	144056	26.61	0
3	144613	26.71	0
3	145170	26.81	0
3	145727	26.91	0
3	146293	27.01	0
3	146850	27.11	0
3	147407	27.21	0
3	147964	27.31	0
3	148521	27.41	0
3	149078	27.51	0
3	149635	27.61	0
3	150192	27.71	0
3	150749	27.81	0
3	151306	27.91	0
3	151872	28.01	0
3	152429	28.11	0
3	152986	28.21	0
3	153543	28.31	0
3	154100	28.41	0
3	154657	28.51	0
3	155214	28.61	0
3	155771	28.71	0
3	156328	28.81	0
3	156885	28.91	0
3	157451	29.01	0
3	158008	29.11	0
3	158565	29.21	0
3	159122	29.31	0
3	159679	29.41	0
3	160236	29.51	0
3	160793	29.61	0
3	161350	29.71	0
3	161907	29.81	0
3	162464	29.91	0
3	163030	30.01	0
3	163587	30.11	0
3	164144	30.21	0
3	164701	30.31	0
3	165258	30.41	0
3	165815	30.51	0
3	166372	30.61	0
3	166929	30.71	0
3	167486	30.81	0
3	168043	30.91	0
3	168609	31.01	0
3	169166	31.11	0
3	169723	31.21	0
3	170280	31.31	0
3	170837	31.41	0
3	171394	31.51	0
3	171951	31.61	0
3	172508	31.71	0
3	173065	31.81	0
3	173622	31.91	0
3	174188	32.01	0
3	174745	32.11	0
3	175302	32.21	0
3	175859	32.31	0
3	176416	32.41	0
3	176973	32.51	0
3	177530	32.61	0
3	178087	32.71	0
3	178644	32.81	0
3	179201	32.91	0
3	179767	33.01	0
3	180324	33.11	0
3	180881	33.21	0
3	181438	33.31	0
3	181995	33.41	0
3	182552	33.51	0
3	183109	33.61	0
3	183666	33.71	0
3	184223	33.81	0
3	184780	33.91	0
3	185346	34.01	0
3	185903	34.11	0
3	186460	34.21	0
3	187017	34.31	0
3	187574	34.41	0
3	188131	34.51	0
3	188688	34.61	0
3	189245	34.71	0
3	189802	34.81	0
3	190359	34.91	0
3	190925	35.01	0
3	191482	35.11	0
3	192039	35.21	0
3	192596	35.31	0
3	193153	35.41	0
3	193710	35.51	0
3	194267	35.61	0
3	194824	35.71	0
3	195381	35.81	0
3	195938	35.91	0
3	196504	36.01	0
3	197061	36.11	0
3	197618	36.21	0
3	198175	36.31	0
3	198732	36.41	0
3	199289	36.51	0
3	199846	36.61	0
3	200403	36.71	0
3	200960	36.81	0
3	201517	36.91	0
3	202083	37.01	0
3	202640	37.11	0
3	203197	37.21	0
3	203754	37.31	0
3	204311	37.41	0
3	204868	37.51	0
3	205425	37.61	0
3	205982	37.71	0
3	206539	37.81	0
3	207096	37.91	0
3	207662	38.01	0
3	208219	38.11	0
3	208776	38.21	0
3	209333	38.31	0
3	209890	38.41	0
3	210447	38.51	0
3	211004	38.61	0
3	211561	38.71	0
3	212118	38.81	0
3	212675	38.91	0
3	213241	39.01	0
3	213798	39.11	0
3	214355	39.21	0
3	214912	39.31	0
3	215469	39.41	0
3	216026	39.51	0
3	216583	39.61	0
3	217140	39.71	0
3	217697	39.81	0
3	218254	39.91	0
3	218820	40.01	0
3	219377	40.11	0
3	219934	40.21	0
3	220491	40.31	0
3	221048	40.41	0
3	221605	40.51	0
3	222162	40.61	0
3	222719	40.71	0
3	223276	40.81	0
3	223833	40.91	0
3	224399	41.01	0
3	224956	41.11	0
3	225513	41.21	0
3	226070	41.31	0
3	226627	41.41	0
3	227184	41.51	0
3	227741	41.61	0
3	228298	41.71	0
3	228855	41.81	0
3	229412	41.91	0
3	229978	42.01	0
3	230535	42.11	0
3	231092	42.21	0
3	231649	42.31	0
3	232206	42.41	0
3	232763	42.51	0
3	233320	42.61	0
3	233877	42.71	0
3	234434	42.81	0
3	234991	42.91	0
3	235557	43.01	0
3	236114	43.11	0
3	236671	43.21	0
3	237228	43.31	0
3	237785	43.41	0
3	238342	43.51	0
3	238899	43.61	0
3	239456	43.71	0
3	240013	43.81	0
3	240570	43.91	0
3	241136	44.01	0
3	241693	44.11	0
3	242250	44.21	0
3	242807	44.31	0
3	243364	44.41	0
3	243921	44.51	0
3	244478	44.61	0
3	245035	44.71	0
3	245592	44.81	0
3	246149	44.91	0
3	246715	45.01	0
3	247272	45.11	0
3	247829	45.21	0
3	248386	45.31	0
3	248943	45.41	0
3	249500	45.51	0
3	250057	45.61	0
3	250614	45.71	0
3	251171	45.81	0
3	251728	45.91	0
3	252294	46.01	0
3	252851	46.11	0
3	253408	46.21	0
3	253965	46.31	0
3	254522	46.41	0
3	255079	46.51	0
3	255636	46.61	0
3	256193	46.71	0
3	256750	46.81	0
3	257307	46.91	0
3	257873	47.01	0
3	258430	47.11	0
3	258987	47.21	0
3	259544	47.31	0
3	260101	47.41	0
3	260658	47.51	0
3	261215	47.61	0
3	261772	47.71	0
3	262329	47.81	0
3	262886	47.91	0
3	263452	48.01	0
3	264009	48.11	0
3	264566	48.21	0
3	265123	48.31	0
3	265680	48.41	0
3	266237	48.51	0
3	266794	48.61	0
3	267351	48.71	0
3	267908	48.81	0
3	268465	48.91	0
3	269031	49.01	0
3	269588	49.11	0
3	270145	49.21	0
3	270702	49.31	0
3	271259	49.41	0
3	271816	49.51	0
3	272373	49.61	0
3	272930	49.71	0
3	273487	49.81	0
3	274044	49.91	0
3	274610	50.01	0
3	275167	50.11	0
3	275724	50.21	0
3	276281	50.31	0
3	276838	50.41	0
3	277395	50.51	0
3	277952	50.61	0
3	278509	50.71	0
3	279066	50.81	0
3	279623	50.91	0
3	280189	51.01	0
3	280746	51.11	0
3	281303	51.21	0
3	281860	51.31	0
3	282417	51.41	0
3	282974	51.51	0
3	283531	51.61	0
3	284088	51.71	0
3	284645	51.81	0
3	285202	51.91	0
3	285768	52.01	0
3	286325	52.11	0
3	286882	52.21	0
3	287439	52.31	0
3	287996	52.41	0
3	288553	52.51	0
3	289110	52.61	0
3	289667	52.71	0
3	290224	52.81	0
3	290781	52.91	0
3	291347	53.01	0
3	291904	53.11	0
3	292461	53.21	0
3	293018	53.31	0
3	293575	53.41	0
3	294132	53.51	0
3	294689	53.61	0
3	295246	53.71	0
3	295803	53.81	0
3	296360	53.91	0
3	296926	54.01	0
3	297483	54.11	0
3	298040	54.21	0
3	298597	54.31	0
3	299154	54.41	0
3	299711	54.51	0
3	300268	54.61	0
3	300825	54.71	0
3	301382	54.81	0
3	301939	54.91	0
3	302505	55.01	0
3	303062	55.11	0
3	303619	55.21	0
3	304176	55.31	0
3	304733	55.41	0
3	305290	55.51	0
3	305847	55.61	0
3	306404	55.71	0
3	306961	55.81	0
3	307518	55.91	0
3	308084	56.01	0
3	308641	56.11	0
3	309198	56.21	0
3	309755	56.31	0
3	310312	56.41	0
3	310869	56.51	0
3	311426	56.61	0
3	311983	56.71	0
3	312540	56.81	0
3	313097	56.91	0
3	313663	57.01	0
3	314220	57.11	0
3	314777	57.21	0
3	315334	57.31	0
3	315891	57.41	0
3	316448	57.51	0
3	317005	57.61	0
3	317562	57.71	0
3	318119	57.81	0
3	318676	57.91	0
3	319242	58.01	0
3	319799	58.11	0
3	320356	58.21	0
3	320913	58.31	0
3	321470	58.41	0
3	322027	58.51	0
3	322584	58.61	0
3	323141	58.71	0
3	323698	58.81	0
3	324255	58.91	0
3	324821	59.01	0
3	325378	59.11	0
3	325935	59.21	0
3	326492	59.31	0
3	327049	59.41	0
3	327606	59.51	0
3	328163	59.61	0
3	328720	59.71	0
3	329277	59.81	0
3	329834	59.91	0
3	330400	60.01	0
3	330957	60.11	0
3	331514	60.21	0
3	332071	60.31	0
3	332628	60.41	0
3	333185	60.51	0
3	333742	60.61	0
3	334299	60.71	0
3	334856	60.81	0
3	335413	60.91	0
3	335979	61.01	0
3	336536	61.11	0
3	337093	61.21	0
3	337650	61.31	0
3	338207	61.41	0
3	338764	61.51	0
3	339321	61.61	0
3	339878	61.71	0
3	340435	61.81	0
3	340992	61.91	0
3	341558	62.01	0
3	342115	62.11	0
3	342672	62.21	0
3	343229	62.31	0
3	343786	62.41	0
3	344343	62.51	0
3	344900	62.61	0
3	345457	62.71	0
3	346014	62.81	0
3	346571	62.91	0
3	347137	63.01	0
3	347694	63.11	0
3	348251	63.21	0
3	348808	63.31	0
3	349365	63.41	0
3	349922	63.51	0
3	350479	63.61	0
3	351036	63.71	0
3	351593	63.81	0
3	352150	63.91	0
3	352716	64.01	0
3	353273	64.11	0
3	353830	64.21	0
3	354387	64.31	0
3	354944	64.41	0
3	355501	64.51	0
3	356058	64.61	0
3	356615	64.71	0
3	357172	64.81	0
3	357729	64.91	0
3	358295	65.01	0
3	358852	65.11	0
3	359409	65.21	0
3	359966	65.31	0
3	360523	65.41	0
3	361080	65.51	0
3	361637	65.61	0
3	362194	65.71	0
3	362751	65.81	0
3	363308	65.91	0
3	363874	66.01	0
3	364431	66.11	0
3	364988	66.21	0
3	365545	66.31	0
3	366102	66.41	0
3	366659	66.51	0
3	367216	66.61	0
3	367773	66.71	0
3	368330	66.81	0
3	368887	66.91	0
3	369453	67.01	0
3	370010	67.11	0
[...]
115	408369	74	5
115	413948	75	5
115	419527	76	5
115	425106	77	5
115	430685	78	5
115	436264	79	5
115	441843	80	5
115	447422	81	5
115	453001	82	5
115	458580	83	5
115	464159	84	5
115	469738	85	5
115	475317	86	5
115	480896	87	5
115	486475	88	5
115	492054	89	5
115	497633	90	5
115	503212	91	5
115	508791	92	5
115	514370	93	5
115	519949	94	5
115	525528	95	5
115	531107	96	5
115	536686	97	5
115	542265	98	5
115	547844	99	5
115	553423	100	5
116	4998	2	0.021848
116	10577	3	0.02497
116	16156	4	0.02497
116	21735	5	0.02497
116	27314	6	0.02497
116	32893	7	0.02497
116	38472	8	0.02497
116	44051	9	0.02497
116	49632	10	0.02497
116	56892	11	0.02679424017
116	62471	12	0.02497
116	68050	13	0.02497
116	73629	14	0.02497
116	79208	15	0.02497
116	84787	16	0.02497
116	90366	17	0.02497
116	95945	18	0.02497
116	101524	19	0.02497
116	107103	20	0.02497
116	112682	21	0.02497
116	118261	22	0.02497
116	123840	23	0.02497
116	129419	24	0.02497
116	134998	25	0.02497
116	140577	26	0.02497
116	146156	27	0.02497
116	151735	28	0.02497
116	157314	29	0.02497
116	162893	30	0.02497
116	168472	31	0.02497
116	174051	32	0.02497
116	179630	33	0.02497
116	185209	34	0.02497
116	190788	35	0.02497
116	196367	36	0.02497
116	201946	37	0.02497
116	207525	38	0.02497
116	213104	39	0.02497
116	218683	40	0.02497
116	224262	41	0.02497
116	229841	42	0.02497
116	235420	43	0.02497
116	240999	44	0.02497
116	246578	45	0.02497
116	252157	46	0.02497
116	257736	47	0.02497
116	263315	48	0.02497
116	268894	49	0.02497
116	274473	50	0.02497
116	280052	51	0.02497
116	285631	52	0.02497
116	291210	53	0.02497
116	296789	54	0.02497
116	302368	55	0.02497
116	307947	56	0.02497
116	313526	57	0.02497
116	319105	58	0.02497
116	324684	59	0.02497
116	330263	60	0.02497
116	335842	61	0.02497
116	341421	62	0.02497
116	347000	63	0.02497
116	352579	64	0.02497
116	358158	65	0.02497
116	363737	66	0.02497
116	369316	67	0.02497
116	374895	68	0.02497
116	380474	69	0.02497
116	386053	70	0.02497
116	391632	71	0.02497
116	397211	72	0.02497
116	402790	73	0.02497
116	408369	74	0.02497
116	413948	75	0.02497
116	419527	76	0.02497
116	425106	77	0.02497
116	430685	78	0.02497
116	436264	79	0.02497
116	441843	80	0.02497
116	447422	81	0.02497
116	453001	82	0.02497
116	458580	83	0.02497
116	464159	84	0.02497
116	469738	85	0.02497
116	475317	86	0.02497
116	480896	87	0.02497
116	486475	88	0.02497
116	492054	89	0.02497
116	497633	90	0.02497
116	503212	91	0.02497
116	508791	92	0.02497
116	514370	93	0.02497
116	519949	94	0.02497
116	525528	95	0.02497
116	531107	96	0.02497
116	536686	97	0.02497
116	542265	98	0.02497
116	547844	99	0.02497
116	553423	100	0.02497
117	4998	2	0
117	10577	3	0
117	16156	4	0
117	21735	5	0
117	27314	6	0
117	32893	7	0
117	38472	8	0
117	44051	9	0
117	49632	10	0
117	56892	11	0
117	62471	12	0
117	68050	13	0
117	73629	14	0
117	79208	15	0
117	84787	16	0
117	90366	17	0
117	95945	18	0
117	101524	19	0
117	107103	20	0
117	112682	21	0
117	118261	22	0
117	123840	23	0
117	129419	24	0
117	134998	25	0
117	140577	26	0
117	146156	27	0
117	151735	28	0
117	157314	29	0
117	162893	30	0
117	168472	31	0
117	174051	32	0
117	179630	33	0
117	185209	34	0
117	190788	35	0
117	196367	36	0
117	201946	37	0
117	207525	38	0
117	213104	39	0
117	218683	40	0
117	224262	41	0
117	229841	42	0
117	235420	43	0
117	240999	44	0
117	246578	45	0
117	252157	46	0
117	257736	47	0
117	263315	48	0
117	268894	49	0
117	274473	50	0
117	280052	51	0
117	285631	52	0
117	291210	53	0
117	296789	54	0
117	302368	55	0
117	307947	56	0
117	313526	57	0
117	319105	58	0
117	324684	59	0
117	330263	60	0
117	335842	61	0
117	341421	62	0
117	347000	63	0
117	352579	64	0
117	358158	65	0
117	363737	66	0
117	369316	67	0
117	374895	68	0
117	380474	69	0
117	386053	70	0
117	391632	71	0
117	397211	72	0
117	402790	73	0
117	408369	74	0
117	413948	75	0
117	419527	76	0
117	425106	77	0
117	430685	78	0
117	436264	79	0
117	441843	80	0
117	447422	81	0
117	453001	82	0
117	458580	83	0
117	464159	84	0
117	469738	85	0
117	475317	86	0
117	480896	87	0
117	486475	88	0
117	492054	89	0
117	497633	90	0
117	503212	91	0
117	508791	92	0
117	514370	93	0
117	519949	94	0
117	525528	95	0
117	531107	96	0
117	536686	97	0
117	542265	98	0
117	547844	99	0
117	553423	100	0
118	4999	2	6
118	10578	3	6
118	16157	4	6
118	21736	5	6
118	27315	6	6
118	32894	7	6
118	38473	8	6
118	44052	9	6
118	49633	10	6
118	56893	11	6
118	62472	12	6
118	68051	13	6
118	73630	14	6
118	79209	15	6
118	84788	16	6
118	90367	17	6
118	95946	18	6
118	101525	19	6
118	107104	20	6
118	112683	21	6
118	118262	22	6
118	123841	23	6
118	129420	24	6
118	134999	25	6
118	140578	26	6
118	146157	27	6
118	151736	28	6
118	157315	29	6
118	162894	30	6
118	168473	31	6
118	174052	32	6
118	179631	33	6
118	185210	34	6
118	190789	35	6
118	196368	36	6
118	201947	37	6
118	207526	38	6
118	213105	39	6
118	218684	40	6
118	224263	41	6
118	229842	42	6
118	235421	43	6
118	241000	44	6
118	246579	45	6
118	252158	46	6
118	257737	47	6
118	263316	48	6
118	268895	49	6
118	274474	50	6
118	280053	51	6
118	285632	52	6
118	291211	53	6
118	296790	54	6
118	302369	55	6
118	307948	56	6
118	313527	57	6
118	319106	58	6
118	324685	59	6
118	330264	60	6
118	335843	61	6
118	341422	62	6
118	347001	63	6
118	352580	64	6
118	358159	65	6
118	363738	66	6
118	369317	67	6
118	374896	68	6
118	380475	69	6
118	386054	70	6
118	391633	71	6
118	397212	72	6
118	402791	73	6
118	408370	74	6
118	413949	75	6
118	419528	76	6
118	425107	77	6
118	430686	78	6
118	436265	79	6
118	441844	80	6
118	447423	81	6
118	453002	82	6
118	458581	83	6
118	464160	84	6
118	469739	85	6
118	475318	86	6
118	480897	87	6
118	486476	88	6
118	492055	89	6
118	497634	90	6
118	503213	91	6
118	508792	92	6
118	514371	93	6
118	519950	94	6
118	525529	95	6
118	531108	96	6
118	536687	97	6
118	542266	98	6
118	547845	99	6
118	553424	100	6
119	4999	2	0.021849
119	10578	3	0.02497
119	16157	4	0.02497
119	21736	5	0.02497
119	27315	6	0.02497
119	32894	7	0.02497
119	38473	8	0.02497
119	44052	9	0.02497
119	49633	10	0.02497
119	56893	11	0.026827320228
119	62472	12	0.02497
119	68051	13	0.02497
119	73630	14	0.02497
119	79209	15	0.02497
119	84788	16	0.02497
119	90367	17	0.02497
119	95946	18	0.02497
119	101525	19	0.02497
119	107104	20	0.02497
119	112683	21	0.02497
119	118262	22	0.02497
119	123841	23	0.02497
119	129420	24	0.02497
119	134999	25	0.02497
119	140578	26	0.02497
119	146157	27	0.02497
119	151736	28	0.02497
119	157315	29	0.02497
119	162894	30	0.02497
119	168473	31	0.02497
119	174052	32	0.02497
119	179631	33	0.02497
119	185210	34	0.02497
119	190789	35	0.02497
119	196368	36	0.02497
119	201947	37	0.02497
119	207526	38	0.02497
119	213105	39	0.02497
119	218684	40	0.02497
119	224263	41	0.02497
119	229842	42	0.02497
119	235421	43	0.02497
119	241000	44	0.02497
119	246579	45	0.02497
119	252158	46	0.02497
119	257737	47	0.02497
119	263316	48	0.02497
119	268895	49	0.02497
119	274474	50	0.02497
119	280053	51	0.02497
119	285632	52	0.02497
119	291211	53	0.02497
119	296790	54	0.02497
119	302369	55	0.02497
119	307948	56	0.02497
119	313527	57	0.02497
119	319106	58	0.02497
119	324685	59	0.02497
119	330264	60	0.02497
119	335843	61	0.02497
119	341422	62	0.02497
119	347001	63	0.02497
119	352580	64	0.02497
119	358159	65	0.02497
119	363738	66	0.02497
119	369317	67	0.02497
119	374896	68	0.02497
119	380475	69	0.02497
119	386054	70	0.02497
119	391633	71	0.02497
119	397212	72	0.02497
119	402791	73	0.02497
119	408370	74	0.02497
119	413949	75	0.02497
119	419528	76	0.02497
119	425107	77	0.02497
119	430686	78	0.02497
119	436265	79	0.02497
119	441844	80	0.02497
119	447423	81	0.02497
119	453002	82	0.02497
119	458581	83	0.02497
119	464160	84	0.02497
119	469739	85	0.02497
119	475318	86	0.02497
119	480897	87	0.02497
119	486476	88	0.02497
119	492055	89	0.02497
119	497634	90	0.02497
119	503213	91	0.02497
119	508792	92	0.02497
119	514371	93	0.02497
119	519950	94	0.02497
119	525529	95	0.02497
119	531108	96	0.02497
119	536687	97	0.02497
119	542266	98	0.02497
119	547845	99	0.02497
119	553424	100	0.02497
120	4999	2	0
120	10578	3	0
120	16157	4	0
120	21736	5	0
120	27315	6	0
120	32894	7	0
120	38473	8	0
120	44052	9	0
120	49633	10	0
120	56893	11	0
120	62472	12	0
120	68051	13	0
120	73630	14	0
120	79209	15	0
120	84788	16	0
120	90367	17	0
120	95946	18	0
120	101525	19	0
120	107104	20	0
120	112683	21	0
120	118262	22	0
120	123841	23	0
120	129420	24	0
120	134999	25	0
120	140578	26	0
120	146157	27	0
120	151736	28	0
120	157315	29	0
120	162894	30	0
120	168473	31	0
120	174052	32	0
120	179631	33	0
120	185210	34	0
120	190789	35	0
120	196368	36	0
120	201947	37	0
120	207526	38	0
120	213105	39	0
120	218684	40	0
120	224263	41	0
120	229842	42	0
120	235421	43	0
120	241000	44	0
120	246579	45	0
120	252158	46	0
120	257737	47	0
120	263316	48	0
120	268895	49	0
120	274474	50	0
120	280053	51	0
120	285632	52	0
120	291211	53	0
120	296790	54	0
120	302369	55	0
120	307948	56	0
120	313527	57	0
120	319106	58	0
120	324685	59	0
120	330264	60	0
120	335843	61	0
120	341422	62	0
120	347001	63	0
120	352580	64	0
120	358159	65	0
120	363738	66	0
120	369317	67	0
120	374896	68	0
120	380475	69	0
120	386054	70	0
120	391633	71	0
120	397212	72	0
120	402791	73	0
120	408370	74	0
120	413949	75	0
120	419528	76	0
120	425107	77	0
120	430686	78	0
120	436265	79	0
120	441844	80	0
120	447423	81	0
120	453002	82	0
120	458581	83	0
120	464160	84	0
120	469739	85	0
120	475318	86	0
120	480897	87	0
120	486476	88	0
120	492055	89	0
120	497634	90	0
120	503213	91	0
120	508792	92	0
120	514371	93	0
120	519950	94	0
120	525529	95	0
120	531108	96	0
120	536687	97	0
120	542266	98	0
120	547845	99	0
120	553424	100	0
121	5000	2	7
121	10579	3	7
121	16158	4	7
121	21737	5	7
121	27316	6	7
121	32895	7	7
121	38474	8	7
121	44053	9	7
121	49634	10	7
121	56894	11	7
121	62473	12	7
121	68052	13	7
121	73631	14	7
121	79210	15	7
121	84789	16	7
121	90368	17	7
121	95947	18	7
121	101526	19	7
121	107105	20	7
121	112684	21	7
121	118263	22	7
121	123842	23	7
121	129421	24	7
121	135000	25	7
121	140579	26	7
121	146158	27	7
121	151737	28	7
121	157316	29	7
121	162895	30	7
121	168474	31	7
121	174053	32	7
121	179632	33	7
121	185211	34	7
121	190790	35	7
121	196369	36	7
121	201948	37	7
121	207527	38	7
121	213106	39	7
121	218685	40	7
121	224264	41	7
121	229843	42	7
121	235422	43	7
121	241001	44	7
121	246580	45	7
121	252159	46	7
121	257738	47	7
121	263317	48	7
121	268896	49	7
121	274475	50	7
121	280054	51	7
121	285633	52	7
121	291212	53	7
121	296791	54	7
121	302370	55	7
121	307949	56	7
121	313528	57	7
121	319107	58	7
121	324686	59	7
121	330265	60	7
121	335844	61	7
121	341423	62	7
121	347002	63	7
121	352581	64	7
121	358160	65	7
121	363739	66	7
121	369318	67	7
121	374897	68	7
121	380476	69	7
121	386055	70	7
121	391634	71	7
121	397213	72	7
121	402792	73	7
121	408371	74	7
121	413950	75	7
121	419529	76	7
121	425108	77	7
121	430687	78	7
121	436266	79	7
121	441845	80	7
121	447424	81	7
121	453003	82	7
121	458582	83	7
121	464161	84	7
121	469740	85	7
121	475319	86	7
121	480898	87	7
121	486477	88	7
121	492056	89	7
121	497635	90	7
121	503214	91	7
121	508793	92	7
121	514372	93	7
121	519951	94	7
121	525530	95	7
121	531109	96	7
121	536688	97	7
121	542267	98	7
121	547846	99	7
121	553425	100	7
122	5000	2	0.021849
122	10579	3	0.02497
122	16158	4	0.02497
122	21737	5	0.02497
122	27316	6	0.02497
122	32895	7	0.02497
122	38474	8	0.02497
122	44053	9	0.02497
122	49634	10	0.02497
122	56894	11	0.026794280196
122	62473	12	0.02497
122	68052	13	0.02497
122	73631	14	0.02497
122	79210	15	0.02497
122	84789	16	0.02497
122	90368	17	0.02497
122	95947	18	0.02497
122	101526	19	0.02497
122	107105	20	0.02497
122	112684	21	0.02497
122	118263	22	0.02497
122	123842	23	0.02497
122	129421	24	0.02497
122	135000	25	0.02497
122	140579	26	0.02497
122	146158	27	0.02497
122	151737	28	0.02497
122	157316	29	0.02497
122	162895	30	0.02497
122	168474	31	0.02497
122	174053	32	0.02497
122	179632	33	0.02497
122	185211	34	0.02497
122	190790	35	0.02497
122	196369	36	0.02497
122	201948	37	0.02497
122	207527	38	0.02497
122	213106	39	0.02497
122	218685	40	0.02497
122	224264	41	0.02497
122	229843	42	0.02497
122	235422	43	0.02497
122	241001	44	0.02497
122	246580	45	0.02497
122	252159	46	0.02497
122	257738	47	0.02497
122	263317	48	0.02497
122	268896	49	0.02497
122	274475	50	0.02497
122	280054	51	0.02497
122	285633	52	0.02497
122	291212	53	0.02497
122	296791	54	0.02497
122	302370	55	0.02497
122	307949	56	0.02497
122	313528	57	0.02497
122	319107	58	0.02497
122	324686	59	0.02497
122	330265	60	0.02497
122	335844	61	0.02497
122	341423	62	0.02497
122	347002	63	0.02497
122	352581	64	0.02497
122	358160	65	0.02497
122	363739	66	0.02497
122	369318	67	0.02497
122	374897	68	0.02497
122	380476	69	0.02497
122	386055	70	0.02497
122	391634	71	0.02497
122	397213	72	0.02497
122	402792	73	0.02497
122	408371	74	0.02497
122	413950	75	0.02497
122	419529	76	0.02497
122	425108	77	0.02497
122	430687	78	0.02497
122	436266	79	0.02497
122	441845	80	0.02497
122	447424	81	0.02497
122	453003	82	0.02497
122	458582	83	0.02497
122	464161	84	0.02497
122	469740	85	0.02497
122	475319	86	0.02497
122	480898	87	0.02497
122	486477	88	0.02497
122	492056	89	0.02497
122	497635	90	0.02497
122	503214	91	0.02497
122	508793	92	0.02497
122	514372	93	0.02497
122	519951	94	0.02497
122	525530	95	0.02497
122	531109	96	0.02497
122	536688	97	0.02497
122	542267	98	0.02497
122	547846	99	0.02497
122	553425	100	0.02497
123	5000	2	0
123	10579	3	0
123	16158	4	0
123	21737	5	0
123	27316	6	0
123	32895	7	0
123	38474	8	0
123	44053	9	0
123	49634	10	0
123	56894	11	0
123	62473	12	0
123	68052	13	0
123	73631	14	0
123	79210	15	0
123	84789	16	0
123	90368	17	0
123	95947	18	0
123	101526	19	0
123	107105	20	0
123	112684	21	0
123	118263	22	0
123	123842	23	0
123	129421	24	0
123	135000	25	0
123	140579	26	0
123	146158	27	0
123	151737	28	0
123	157316	29	0
123	162895	30	0
123	168474	31	0
123	174053	32	0
123	179632	33	0
123	185211	34	0
123	190790	35	0
123	196369	36	0
123	201948	37	0
123	207527	38	0
123	213106	39	0
123	218685	40	0
123	224264	41	0
123	229843	42	0
123	235422	43	0
123	241001	44	0
123	246580	45	0
123	252159	46	0
123	257738	47	0
123	263317	48	0
123	268896	49	0
123	274475	50	0
123	280054	51	0
123	285633	52	0
123	291212	53	0
123	296791	54	0
123	302370	55	0
123	307949	56	0
123	313528	57	0
123	319107	58	0
123	324686	59	0
123	330265	60	0
123	335844	61	0
123	341423	62	0
123	347002	63	0
123	352581	64	0
123	358160	65	0
123	363739	66	0
123	369318	67	0
123	374897	68	0
123	380476	69	0
123	386055	70	0
123	391634	71	0
123	397213	72	0
123	402792	73	0
123	408371	74	0
123	413950	75	0
123	419529	76	0
123	425108	77	0
123	430687	78	0
123	436266	79	0
123	441845	80	0
123	447424	81	0
123	453003	82	0
123	458582	83	0
123	464161	84	0
123	469740	85	0
123	475319	86	0
123	480898	87	0
123	486477	88	0
123	492056	89	0
123	497635	90	0
123	503214	91	0
123	508793	92	0
123	514372	93	0
123	519951	94	0
123	525530	95	0
123	531109	96	0
123	536688	97	0
123	542267	98	0
123	547846	99	0
123	553425	100	0
124	5001	2	8
124	10580	3	8
124	16159	4	8
124	21738	5	8
124	27317	6	8
124	32896	7	8
124	38475	8	8
124	44054	9	8
124	49635	10	8
124	56895	11	8
124	62474	12	8
124	68053	13	8
124	73632	14	8
124	79211	15	8
124	84790	16	8
124	90369	17	8
124	95948	18	8
124	101527	19	8
124	107106	20	8
124	112685	21	8
124	118264	22	8
124	123843	23	8
124	129422	24	8
124	135001	25	8
124	140580	26	8
124	146159	27	8
124	151738	28	8
124	157317	29	8
124	162896	30	8
124	168475	31	8
124	174054	32	8
124	179633	33	8
124	185212	34	8
124	190791	35	8
124	196370	36	8
124	201949	37	8
124	207528	38	8
124	213107	39	8
124	218686	40	8
124	224265	41	8
124	229844	42	8
124	235423	43	8
124	241002	44	8
124	246581	45	8
124	252160	46	8
124	257739	47	8
124	263318	48	8
124	268897	49	8
124	274476	50	8
124	280055	51	8
124	285634	52	8
124	291213	53	8
124	296792	54	8
124	302371	55	8
124	307950	56	8
124	313529	57	8
124	319108	58	8
124	324687	59	8
124	330266	60	8
124	335845	61	8
124	341424	62	8
124	347003	63	8
124	352582	64	8
124	358161	65	8
124	363740	66	8
124	369319	67	8
124	374898	68	8
124	380477	69	8
124	386056	70	8
124	391635	71	8
124	397214	72	8
124	402793	73	8
124	408372	74	8
124	413951	75	8
124	419530	76	8
124	425109	77	8
124	430688	78	8
124	436267	79	8
124	441846	80	8
124	447425	81	8
124	453004	82	8
124	458583	83	8
124	464162	84	8
124	469741	85	8
124	475320	86	8
124	480899	87	8
124	486478	88	8
124	492057	89	8
124	497636	90	8
124	503215	91	8
124	508794	92	8
124	514373	93	8
124	519952	94	8
124	525531	95	8
124	531110	96	8
124	536689	97	8
124	542268	98	8
124	547847	99	8
124	553426	100	8
125	5001	2	0.002817
125	10580	3	0.00313
125	16159	4	0.00313
125	21738	5	0.00313
125	27317	6	0.00313
125	32896	7	0.00313
125	38475	8	0.00313
125	44054	9	0.00313
125	49635	10	0.00313
125	56895	11	0.003179
125	62474	12	0.00313
125	68053	13	0.00313
125	73632	14	0.00313
125	79211	15	0.00313
125	84790	16	0.00313
125	90369	17	0.00313
125	95948	18	0.00313
125	101527	19	0.00313
125	107106	20	0.00313
125	112685	21	0.00313
125	118264	22	0.00313
125	123843	23	0.00313
125	129422	24	0.00313
125	135001	25	0.00313
125	140580	26	0.00313
125	146159	27	0.00313
125	151738	28	0.00313
125	157317	29	0.00313
125	162896	30	0.00313
125	168475	31	0.00313
125	174054	32	0.00313
125	179633	33	0.00313
125	185212	34	0.00313
125	190791	35	0.00313
125	196370	36	0.00313
125	201949	37	0.00313
125	207528	38	0.00313
125	213107	39	0.00313
125	218686	40	0.00313
125	224265	41	0.00313
125	229844	42	0.00313
125	235423	43	0.00313
125	241002	44	0.00313
125	246581	45	0.00313
125	252160	46	0.00313
125	257739	47	0.00313
125	263318	48	0.00313
125	268897	49	0.00313
125	274476	50	0.00313
125	280055	51	0.00313
125	285634	52	0.00313
125	291213	53	0.00313
125	296792	54	0.00313
125	302371	55	0.00313
125	307950	56	0.00313
125	313529	57	0.00313
125	319108	58	0.00313
125	324687	59	0.00313
125	330266	60	0.00313
125	335845	61	0.00313
125	341424	62	0.00313
125	347003	63	0.00313
125	352582	64	0.00313
125	358161	65	0.00313
125	363740	66	0.00313
125	369319	67	0.00313
125	374898	68	0.00313
125	380477	69	0.00313
125	386056	70	0.00313
125	391635	71	0.00313
125	397214	72	0.00313
125	402793	73	0.00313
125	408372	74	0.00313
125	413951	75	0.00313
125	419530	76	0.00313
125	425109	77	0.00313
125	430688	78	0.00313
125	436267	79	0.00313
125	441846	80	0.00313
125	447425	81	0.00313
125	453004	82	0.00313
125	458583	83	0.00313
125	464162	84	0.00313
125	469741	85	0.00313
125	475320	86	0.00313
125	480899	87	0.00313
125	486478	88	0.00313
125	492057	89	0.00313
125	497636	90	0.00313
125	503215	91	0.00313
125	508794	92	0.00313
125	514373	93	0.00313
125	519952	94	0.00313
125	525531	95	0.00313
125	531110	96	0.00313
125	536689	97	0.00313
125	542268	98	0.00313
125	547847	99	0.00313
125	553426	100	0.00313
126	5001	2	0
126	10580	3	0
126	16159	4	0
126	21738	5	0
126	27317	6	0
126	32896	7	0
126	38475	8	0
126	44054	9	0
126	49635	10	0
126	56895	11	0
126	62474	12	0
126	68053	13	0
126	73632	14	0
126	79211	15	0
126	84790	16	0
126	90369	17	0
126	95948	18	0
126	101527	19	0
126	107106	20	0
126	112685	21	0
126	118264	22	0
126	123843	23	0
126	129422	24	0
126	135001	25	0
126	140580	26	0
126	146159	27	0
126	151738	28	0
126	157317	29	0
126	162896	30	0
126	168475	31	0
126	174054	32	0
126	179633	33	0
126	185212	34	0
126	190791	35	0
126	196370	36	0
126	201949	37	0
126	207528	38	0
126	213107	39	0
126	218686	40	0
126	224265	41	0
126	229844	42	0
126	235423	43	0
126	241002	44	0
126	246581	45	0
126	252160	46	0
126	257739	47	0
126	263318	48	0
126	268897	49	0
126	274476	50	0
126	280055	51	0
126	285634	52	0
126	291213	53	0
126	296792	54	0
126	302371	55	0
126	307950	56	0
126	313529	57	0
126	319108	58	0
126	324687	59	0
126	330266	60	0
126	335845	61	0
126	341424	62	0
126	347003	63	0
126	352582	64	0
126	358161	65	0
126	363740	66	0
126	369319	67	0
126	374898	68	0
126	380477	69	0
126	386056	70	0
126	391635	71	0
126	397214	72	0
126	402793	73	0
126	408372	74	0
126	413951	75	0
126	419530	76	0
126	425109	77	0
126	430688	78	0
126	436267	79	0
126	441846	80	0
126	447425	81	0
126	453004	82	0
126	458583	83	0
126	464162	84	0
126	469741	85	0
126	475320	86	0
126	480899	87	0
126	486478	88	0
126	492057	89	0
126	497636	90	0
126	503215	91	0
126	508794	92	0
126	514373	93	0
126	519952	94	0
126	525531	95	0
126	531110	96	0
126	536689	97	0
126	542268	98	0
126	547847	99	0
126	553426	100	0

