version 3
run BreakRanksNoGui-819-20240710-17:50:09-276631
attr configname BreakRanksNoGui
attr datetime 20240710-17:50:09
attr datetimef 20240710-175009
attr experiment BreakRanksNoGui
attr inifile omnetpp.ini
attr iterationvars "$nCars=6, $platoonSize=6, $nLanes=1, $ploegH=0.5, $controller=1, $headway=0.1, $leaderHeadway=1.2, $leaderSpeed=130, $breakRanksSafetyDistance=3, $minSpeed=120, $maxSpeed=140, $beaconInterval=0.1, $priority=4, $packetSize=200, $sController=\"CACC\", $0=2, $1=0"
attr iterationvarsd nCars=6/platoonSize=6/nLanes=1/ploegH=0.5/controller=1/headway=0.1/leaderHeadway=1.2/leaderSpeed=130/breakRanksSafetyDistance=3/minSpeed=120/maxSpeed=140/beaconInterval=0.1/priority=4/packetSize=200/sController=CACC/2/0
attr iterationvarsf nCars=6,platoonSize=6,nLanes=1,ploegH=0.5,controller=1,headway=0.1,leaderHeadway=1.2,leaderSpeed=130,breakRanksSafetyDistance=3,minSpeed=120,maxSpeed=140,beaconInterval=0.1,priority=4,packetSize=200,sController=CACC,2,0-
attr measurement "$nCars=6, $platoonSize=6, $nLanes=1, $ploegH=0.5, $controller=1, $headway=0.1, $leaderHeadway=1.2, $leaderSpeed=130, $breakRanksSafetyDistance=3, $minSpeed=120, $maxSpeed=140, $beaconInterval=0.1, $priority=4, $packetSize=200, $sController=\"CACC\", $0=2, $1=0"
attr network Highway
attr processid 276631
attr repetition 9
attr replication #9
attr resultdir results
attr runnumber 819
attr seedset 9
itervar beaconInterval 0.1
itervar breakRanksSafetyDistance 3
itervar controller 1
itervar headway 0.1
itervar leaderHeadway 1.2
itervar leaderSpeed 130
itervar maxSpeed 140
itervar minSpeed 120
itervar nCars 6
itervar nLanes 1
itervar packetSize 200
itervar platoonSize 6
itervar ploegH 0.5
itervar priority 4
itervar sController "\"CACC\""
config image-path ../../../veins/images
config repeat 10
config extends BreakRanks
config *.manager.command "\"sumo\""
config *.manager.ignoreGuiCommands true
config output-vector-file "results/BreakRanks_1_0.1_130_3_6 /result_9.vec"
config output-scalar-file "results/BreakRanks_1_0.1_130_3_6 /result_9.sca"
config extends Platooning
config *.node[*].scenario_type "\"BreakRanksScenario\""
config *.manager.command "\"sumo-gui\""
config *.node[*].scenario_type "\"SimpleScenario\""
config cmdenv-express-mode true
config cmdenv-autoflush true
config cmdenv-status-frequency 15s
config num-rngs 6
config network Highway
config debug-on-errors true
config print-undisposed true
config *.playgroundSizeX 65000m
config *.playgroundSizeY 25000m
config *.playgroundSizeZ 50m
config sim-time-limit "100 s"
config *.annotations.draw false
config *.obstacles.debug false
config *.world.useTorus false
config *.world.use2D false
config *.manager.updateInterval 0.01s
config *.manager.host "\"localhost\""
config *.manager.moduleType "\"org.car2x.plexe.PlatoonCar\""
config *.manager.moduleName "\"node\""
config *.manager.moduleDisplayString "\"\""
config *.manager.autoShutdown true
config *.manager.margin 25
config *.connectionManager.sendDirect true
config *.connectionManager.maxInterfDist 2600m
config *.connectionManager.drawMaxIntfDist false
config *.**.nic.mac1609_4.useServiceChannel false
config *.**.nic.mac1609_4.txPower 100mW
config *.**.nic.mac1609_4.bitrate 6Mbps
config *.**.nic.mac1609_4.useAcks true
config *.**.nic.mac1609_4.ackErrorRate 0.0
config *.**.nic.mac1609_4.frameErrorRate 0.0
config *.**.nic.phy80211p.minPowerLevel -94dBm
config *.**.nic.phy80211p.maxTXPower 100mW
config *.**.nic.phy80211p.useNoiseFloor true
config *.**.nic.phy80211p.noiseFloor -95dBm
config *.**.nic.phy80211p.decider "xmldoc(\"config.xml\")"
config *.**.nic.phy80211p.analogueModels "xmldoc(\"config.xml\")"
config *.**.nic.phy80211p.usePropagationDelay true
config *.node[*].mobility.x 0
config *.node[*].mobility.y 0
config *.node[*].mobility.z 1.895
config seed-set 9
config **.seed 9
config *.node[*].prot.rng-0 2
config *.node[*].appl.rng-0 3
config *.node[*].scenario.rng-0 4
config **.traffic.rng-0 5
config *.manager.configFile "\"./sumocfg/freeway.sumo.cfg\""
config *.manager.launchConfig "xmldoc(\"./sumocfg/freeway.launchd.xml\")"
config **.numberOfCars 6
config **.numberOfCarsPerPlatoon 6
config **.numberOfLanes 1
config *.node[*].helper_type "\"PositionHelper\""
config *.node[*].scenario.caccC1 0.5
config *.node[*].scenario.caccXi 1
config *.node[*].scenario.caccOmegaN "0.2 Hz"
config *.node[*].scenario.caccSpacing "2 m"
config *.node[*].scenario.engineTau "0.5 s"
config *.node[*].scenario.ploegH 0.5s
config *.node[*].scenario.ploegKp 0.2
config *.node[*].scenario.ploegKd 0.7
config *.node[*].scenario.useRealisticEngine false
config *.node[*].scenario.useControllerAcceleration true
config *.node[*].scenario.nLanes 1
config **.numericController 1
config **.headway 0.1s
config *.node[*].scenario.accHeadway 0.1s
config *.node[*].scenario.leaderHeadway 1.2s
config *.node[*].scenario.leaderSpeed 130kmph
config *.node[*].appl_type "\"SimplePlatooningApp\""
config *.node[*].appl.*.scalar-recording true
config *.node[*].appl.*.vector-recording true
config *.node[0].appl.breakRanksSafetyDistance 3m
config *.node[*].appl.minSpeed 120kmph
config *.node[*].appl.maxSpeed 140kmph
config *.node[*].protocol_type "\"SimplePlatooningBeaconing\""
config *.node[*].prot.*.scalar-recording true
config *.node[*].prot.*.vector-recording true
config *.node[*].prot.beaconingInterval 0.1s
config *.node[*].prot.priority 4
config *.node[*].prot.packetSize 200
config **.traffic_type "\"PlatoonsTrafficManager\""
config **.traffic.platoonInsertTime "1 s"
config **.traffic.platoonInsertSpeed 130kmph
config **.traffic.nCars 6
config **.traffic.platoonSize 6
config **.traffic.nLanes 1
config **.traffic.platooningVType "\"vtypeauto\""
config **.traffic.controller "\"CACC\""
config **.traffic.platoonInsertDistance 2m
config **.traffic.platoonInsertHeadway 0s
config **.traffic.platoonLeaderHeadway 1.2s
config **.scalar-recording false
config **.vector-recording false

vector 0 Highway.node[0].appl distance ETV
vector 1 Highway.node[0].appl relativeSpeed ETV
vector 2 Highway.node[0].appl nodeId ETV
vector 3 Highway.node[0].appl acceleration ETV
vector 4 Highway.node[0].appl controllerAcceleration ETV
vector 5 Highway.node[0].appl speed ETV
vector 6 Highway.node[0].appl posx ETV
vector 7 Highway.node[0].appl posy ETV
vector 8 Highway.node[1].appl distance ETV
vector 9 Highway.node[1].appl relativeSpeed ETV
vector 10 Highway.node[1].appl nodeId ETV
vector 11 Highway.node[1].appl acceleration ETV
vector 12 Highway.node[1].appl controllerAcceleration ETV
vector 13 Highway.node[1].appl speed ETV
vector 14 Highway.node[1].appl posx ETV
vector 15 Highway.node[1].appl posy ETV
vector 16 Highway.node[2].appl distance ETV
vector 17 Highway.node[2].appl relativeSpeed ETV
vector 18 Highway.node[2].appl nodeId ETV
vector 19 Highway.node[2].appl acceleration ETV
vector 20 Highway.node[2].appl controllerAcceleration ETV
vector 21 Highway.node[2].appl speed ETV
vector 22 Highway.node[2].appl posx ETV
vector 23 Highway.node[2].appl posy ETV
vector 24 Highway.node[3].appl distance ETV
vector 25 Highway.node[3].appl relativeSpeed ETV
vector 26 Highway.node[3].appl nodeId ETV
vector 27 Highway.node[3].appl acceleration ETV
vector 28 Highway.node[3].appl controllerAcceleration ETV
vector 29 Highway.node[3].appl speed ETV
vector 30 Highway.node[3].appl posx ETV
vector 31 Highway.node[3].appl posy ETV
vector 32 Highway.node[4].appl distance ETV
vector 33 Highway.node[4].appl relativeSpeed ETV
vector 34 Highway.node[4].appl nodeId ETV
vector 35 Highway.node[4].appl acceleration ETV
vector 36 Highway.node[4].appl controllerAcceleration ETV
vector 37 Highway.node[4].appl speed ETV
vector 38 Highway.node[4].appl posx ETV
vector 39 Highway.node[4].appl posy ETV
vector 40 Highway.node[5].appl distance ETV
vector 41 Highway.node[5].appl relativeSpeed ETV
vector 42 Highway.node[5].appl nodeId ETV
vector 43 Highway.node[5].appl acceleration ETV
vector 44 Highway.node[5].appl controllerAcceleration ETV
vector 45 Highway.node[5].appl speed ETV
vector 46 Highway.node[5].appl posx ETV
vector 47 Highway.node[5].appl posy ETV
vector 48 Highway.node[2].prot frontDelay ETV
vector 49 Highway.node[2].prot frontDelayId ETV
vector 50 Highway.node[3].prot frontDelay ETV
vector 51 Highway.node[3].prot frontDelayId ETV
vector 52 Highway.node[5].prot frontDelay ETV
vector 53 Highway.node[5].prot frontDelayId ETV
vector 54 Highway.node[4].prot frontDelay ETV
vector 55 Highway.node[4].prot frontDelayId ETV
vector 56 Highway.node[1].prot leaderDelay ETV
vector 57 Highway.node[1].prot leaderDelayId ETV
vector 58 Highway.node[1].prot frontDelay ETV
vector 59 Highway.node[1].prot frontDelayId ETV
vector 60 Highway.node[2].prot leaderDelay ETV
vector 61 Highway.node[2].prot leaderDelayId ETV
vector 62 Highway.node[3].prot leaderDelay ETV
vector 63 Highway.node[3].prot leaderDelayId ETV
vector 64 Highway.node[4].prot leaderDelay ETV
vector 65 Highway.node[4].prot leaderDelayId ETV
vector 66 Highway.node[5].prot leaderDelay ETV
vector 67 Highway.node[5].prot leaderDelayId ETV
vector 68 Highway.node[0].prot nodeId ETV
vector 69 Highway.node[0].prot busyTime ETV
vector 70 Highway.node[0].prot collisions ETV
vector 71 Highway.node[1].prot nodeId ETV
vector 72 Highway.node[1].prot busyTime ETV
vector 73 Highway.node[1].prot collisions ETV
vector 74 Highway.node[2].prot nodeId ETV
vector 75 Highway.node[2].prot busyTime ETV
vector 76 Highway.node[2].prot collisions ETV
vector 77 Highway.node[3].prot nodeId ETV
vector 78 Highway.node[3].prot busyTime ETV
vector 79 Highway.node[3].prot collisions ETV
vector 80 Highway.node[4].prot nodeId ETV
vector 81 Highway.node[4].prot busyTime ETV
vector 82 Highway.node[4].prot collisions ETV
vector 83 Highway.node[5].prot nodeId ETV
vector 84 Highway.node[5].prot busyTime ETV
vector 85 Highway.node[5].prot collisions ETV
0	113	1.11	-1
0	429	1.21	-1
0	745	1.31	-1
0	1061	1.41	-1
0	1377	1.51	-1
0	1693	1.61	-1
0	2009	1.71	-1
0	2325	1.81	-1
0	2641	1.91	-1
0	2963	2.01	-1
0	3279	2.11	-1
0	3595	2.21	-1
0	3911	2.31	-1
0	4227	2.41	-1
0	4543	2.51	-1
0	4859	2.61	-1
0	5175	2.71	-1
0	5491	2.81	-1
0	5807	2.91	-1
0	6129	3.01	-1
0	6445	3.11	-1
0	6761	3.21	-1
0	7077	3.31	-1
0	7393	3.41	-1
0	7709	3.51	-1
0	8025	3.61	-1
0	8341	3.71	-1
0	8657	3.81	-1
0	8973	3.91	-1
0	9295	4.01	-1
0	9611	4.11	-1
0	9927	4.21	-1
0	10243	4.31	-1
0	10559	4.41	-1
0	10875	4.51	-1
0	11191	4.61	-1
0	11507	4.71	-1
0	11823	4.81	-1
0	12139	4.91	-1
0	12461	5.01	-1
0	12777	5.11	-1
0	13093	5.21	-1
0	13409	5.31	-1
0	13725	5.41	-1
0	14041	5.51	-1
0	14357	5.61	-1
0	14673	5.71	-1
0	14989	5.81	-1
0	15305	5.91	-1
0	15627	6.01	-1
0	15943	6.11	-1
0	16259	6.21	-1
0	16575	6.31	-1
0	16891	6.41	-1
0	17207	6.51	-1
0	17523	6.61	-1
0	17839	6.71	-1
0	18155	6.81	-1
0	18471	6.91	-1
0	18793	7.01	-1
0	19109	7.11	-1
0	19425	7.21	-1
0	19741	7.31	-1
0	20057	7.41	-1
0	20373	7.51	-1
0	20689	7.61	-1
0	21005	7.71	-1
0	21321	7.81	-1
0	21637	7.91	-1
0	21959	8.01	-1
0	22275	8.11	-1
0	22591	8.21	-1
0	22907	8.31	-1
0	23223	8.41	-1
0	23539	8.51	-1
0	23855	8.61	-1
0	24171	8.71	-1
0	24487	8.81	-1
0	24803	8.91	-1
0	25125	9.01	-1
0	25441	9.11	-1
0	25757	9.21	-1
0	26073	9.31	-1
0	26389	9.41	-1
0	26705	9.51	-1
0	27021	9.61	-1
0	27337	9.71	-1
0	27653	9.81	-1
0	27969	9.91	-1
0	28347	10.01	-1
0	28668	10.11	-1
0	28989	10.21	-1
0	29310	10.31	-1
0	29631	10.41	-1
0	29952	10.51	-1
0	30273	10.61	-1
0	30594	10.71	-1
0	30915	10.81	-1
0	31236	10.91	-1
0	31563	11.01	-1
0	31884	11.11	-1
0	32205	11.21	-1
0	32526	11.31	-1
0	32847	11.41	-1
0	33168	11.51	-1
0	33489	11.61	-1
0	33810	11.71	-1
0	34131	11.81	-1
0	34452	11.91	-1
0	34779	12.01	-1
0	35100	12.11	-1
0	35421	12.21	-1
0	35742	12.31	-1
0	36063	12.41	-1
0	36384	12.51	-1
0	36705	12.61	-1
0	37026	12.71	-1
0	37347	12.81	-1
0	37668	12.91	-1
0	37995	13.01	-1
0	38316	13.11	-1
0	38637	13.21	-1
0	38958	13.31	-1
0	39279	13.41	-1
0	39600	13.51	-1
0	39921	13.61	-1
0	40242	13.71	-1
0	40563	13.81	-1
0	40884	13.91	-1
0	41211	14.01	-1
0	41532	14.11	-1
0	41853	14.21	-1
0	42174	14.31	-1
0	42495	14.41	-1
0	42816	14.51	-1
0	43137	14.61	-1
0	43458	14.71	-1
0	43779	14.81	-1
0	44100	14.91	-1
0	44427	15.01	-1
0	44748	15.11	-1
0	45069	15.21	-1
0	45390	15.31	-1
0	45711	15.41	-1
0	46032	15.51	-1
0	46353	15.61	-1
0	46674	15.71	-1
0	46995	15.81	-1
0	47316	15.91	-1
0	47643	16.01	-1
0	47964	16.11	-1
0	48285	16.21	-1
0	48606	16.31	-1
0	48927	16.41	-1
0	49248	16.51	-1
0	49569	16.61	-1
0	49890	16.71	-1
0	50211	16.81	-1
0	50532	16.91	-1
0	50859	17.01	-1
0	51180	17.11	-1
0	51501	17.21	-1
0	51822	17.31	-1
0	52143	17.41	-1
0	52464	17.51	-1
0	52785	17.61	-1
0	53106	17.71	-1
0	53427	17.81	-1
0	53748	17.91	-1
0	54075	18.01	-1
0	54396	18.11	-1
0	54717	18.21	-1
0	55038	18.31	-1
0	55359	18.41	-1
0	55680	18.51	-1
0	56001	18.61	-1
0	56322	18.71	-1
0	56643	18.81	-1
0	56964	18.91	-1
0	57291	19.01	-1
0	57612	19.11	-1
0	57933	19.21	-1
0	58254	19.31	-1
0	58575	19.41	-1
0	58896	19.51	-1
0	59217	19.61	-1
0	59538	19.71	-1
0	59859	19.81	-1
0	60180	19.91	-1
0	60507	20.01	-1
0	60828	20.11	-1
0	61149	20.21	-1
0	61470	20.31	-1
0	61791	20.41	-1
0	62112	20.51	-1
0	62433	20.61	-1
0	62754	20.71	-1
0	63075	20.81	-1
0	63396	20.91	-1
0	63723	21.01	-1
0	64044	21.11	-1
0	64365	21.21	-1
0	64686	21.31	-1
0	65007	21.41	-1
0	65328	21.51	-1
0	65649	21.61	-1
0	65970	21.71	-1
0	66291	21.81	-1
0	66612	21.91	-1
0	66939	22.01	-1
0	67260	22.11	-1
0	67581	22.21	-1
0	67902	22.31	-1
0	68223	22.41	-1
0	68544	22.51	-1
0	68865	22.61	-1
0	69186	22.71	-1
0	69507	22.81	-1
0	69828	22.91	-1
0	70155	23.01	-1
0	70476	23.11	-1
0	70797	23.21	-1
0	71118	23.31	-1
0	71439	23.41	-1
0	71760	23.51	-1
0	72081	23.61	-1
0	72402	23.71	-1
0	72723	23.81	-1
0	73044	23.91	-1
0	73371	24.01	-1
0	73692	24.11	-1
0	74013	24.21	-1
0	74334	24.31	-1
0	74655	24.41	-1
0	74976	24.51	-1
0	75297	24.61	-1
0	75618	24.71	-1
0	75939	24.81	-1
0	76260	24.91	-1
0	76587	25.01	-1
0	76908	25.11	-1
0	77229	25.21	-1
0	77550	25.31	-1
0	77871	25.41	-1
0	78192	25.51	-1
0	78513	25.61	-1
0	78834	25.71	-1
0	79155	25.81	-1
0	79476	25.91	-1
0	79803	26.01	-1
0	80124	26.11	-1
0	80445	26.21	-1
0	80766	26.31	-1
0	81087	26.41	-1
0	81408	26.51	-1
0	81729	26.61	-1
0	82050	26.71	-1
0	82371	26.81	-1
0	82692	26.91	-1
0	83019	27.01	-1
0	83340	27.11	-1
0	83661	27.21	-1
0	83982	27.31	-1
0	84303	27.41	-1
0	84624	27.51	-1
0	84945	27.61	-1
0	85266	27.71	-1
0	85587	27.81	-1
0	85908	27.91	-1
0	86235	28.01	-1
0	86556	28.11	-1
0	86877	28.21	-1
0	87198	28.31	-1
0	87519	28.41	-1
0	87840	28.51	-1
0	88161	28.61	-1
0	88482	28.71	-1
0	88803	28.81	-1
0	89124	28.91	-1
0	89451	29.01	-1
0	89772	29.11	-1
0	90093	29.21	-1
0	90487	29.31	-1
0	90807	29.41	-1
0	91127	29.51	-1
0	91447	29.61	-1
0	91767	29.71	-1
0	92087	29.81	-1
0	92407	29.91	-1
0	92733	30.01	-1
0	93053	30.11	-1
0	93373	30.21	-1
0	93693	30.31	-1
0	94013	30.41	-1
0	94333	30.51	-1
0	94653	30.61	-1
0	94973	30.71	-1
0	95293	30.81	-1
0	95613	30.91	-1
0	95939	31.01	-1
0	96259	31.11	-1
0	96579	31.21	-1
0	96899	31.31	-1
0	97219	31.41	-1
0	97539	31.51	-1
0	97859	31.61	-1
0	98179	31.71	-1
0	98499	31.81	-1
0	98819	31.91	-1
0	99145	32.01	-1
0	99465	32.11	-1
0	99785	32.21	-1
0	100105	32.31	-1
0	100425	32.41	-1
0	100745	32.51	-1
0	101065	32.61	-1
0	101385	32.71	-1
0	101705	32.81	-1
0	102025	32.91	-1
0	102351	33.01	-1
0	102671	33.11	-1
0	102991	33.21	-1
0	103311	33.31	-1
0	103631	33.41	-1
0	104024	33.51	-1
0	104343	33.61	-1
0	104662	33.71	-1
0	104981	33.81	-1
0	105300	33.91	-1
0	105625	34.01	-1
0	105944	34.11	-1
0	106263	34.21	-1
0	106582	34.31	-1
0	106901	34.41	-1
0	107220	34.51	-1
0	107539	34.61	-1
0	107858	34.71	-1
0	108177	34.81	-1
0	108496	34.91	-1
0	108821	35.01	-1
0	109140	35.11	-1
0	109459	35.21	-1
0	109778	35.31	-1
0	110097	35.41	-1
0	110416	35.51	-1
0	110735	35.61	-1
0	111054	35.71	-1
0	111373	35.81	-1
0	111692	35.91	-1
0	112017	36.01	-1
0	112336	36.11	-1
0	112655	36.21	-1
0	112974	36.31	-1
0	113293	36.41	-1
0	113612	36.51	-1
0	113931	36.61	-1
0	114250	36.71	-1
0	114569	36.81	-1
0	114888	36.91	-1
0	115213	37.01	-1
0	115532	37.11	-1
0	115851	37.21	-1
0	116170	37.31	-1
0	116489	37.41	-1
0	116881	37.51	-1
0	117199	37.61	-1
0	117517	37.71	-1
0	117835	37.81	-1
0	118153	37.91	-1
0	118477	38.01	-1
0	118795	38.11	-1
0	119113	38.21	-1
0	119431	38.31	-1
0	119749	38.41	-1
0	120067	38.51	-1
0	120385	38.61	-1
0	120703	38.71	-1
0	121021	38.81	-1
0	121339	38.91	-1
0	121663	39.01	-1
0	121981	39.11	-1
0	122299	39.21	-1
0	122617	39.31	-1
0	122935	39.41	-1
0	123253	39.51	-1
0	123571	39.61	-1
0	123889	39.71	-1
0	124207	39.81	-1
0	124525	39.91	-1
0	124849	40.01	-1
0	125167	40.11	-1
0	125485	40.21	-1
0	125803	40.31	-1
0	126121	40.41	-1
0	126439	40.51	-1
0	126757	40.61	-1
0	127075	40.71	-1
0	127393	40.81	-1
0	127711	40.91	-1
0	128035	41.01	-1
0	128353	41.11	-1
0	128671	41.21	-1
0	129062	41.31	-1
0	129379	41.41	-1
0	129696	41.51	-1
0	130013	41.61	-1
0	130330	41.71	-1
0	130647	41.81	-1
0	130964	41.91	-1
0	131287	42.01	-1
0	131604	42.11	-1
0	131921	42.21	-1
0	132238	42.31	-1
0	132555	42.41	-1
0	132872	42.51	-1
0	133189	42.61	-1
0	133506	42.71	-1
0	133823	42.81	-1
0	134140	42.91	-1
0	134463	43.01	-1
0	134780	43.11	-1
0	135097	43.21	-1
0	135414	43.31	-1
0	135731	43.41	-1
0	136048	43.51	-1
0	136365	43.61	-1
0	136682	43.71	-1
0	136999	43.81	-1
0	137316	43.91	-1
0	137639	44.01	-1
0	137956	44.11	-1
0	138273	44.21	-1
0	138590	44.31	-1
0	138907	44.41	-1
0	139224	44.51	-1
0	139541	44.61	-1
0	139858	44.71	-1
0	140175	44.81	-1
0	140492	44.91	-1
0	141253	45.01	-1
0	141569	45.11	-1
0	141885	45.21	-1
0	142201	45.31	-1
0	142517	45.41	-1
0	142833	45.51	-1
0	143149	45.61	-1
0	143465	45.71	-1
0	143781	45.81	-1
0	144097	45.91	-1
0	144419	46.01	-1
0	144735	46.11	-1
0	145051	46.21	-1
0	145367	46.31	-1
0	145683	46.41	-1
0	145999	46.51	-1
0	146315	46.61	-1
0	146631	46.71	-1
0	146947	46.81	-1
0	147263	46.91	-1
0	147585	47.01	-1
0	147901	47.11	-1
0	148217	47.21	-1
0	148533	47.31	-1
0	148849	47.41	-1
0	149165	47.51	-1
0	149481	47.61	-1
0	149797	47.71	-1
0	150113	47.81	-1
0	150429	47.91	-1
0	150751	48.01	-1
0	151067	48.11	-1
0	151383	48.21	-1
0	151699	48.31	-1
0	152015	48.41	-1
0	152331	48.51	-1
0	152647	48.61	-1
0	152963	48.71	-1
0	153279	48.81	-1
0	153595	48.91	-1
0	153917	49.01	-1
0	154233	49.11	-1
0	154549	49.21	-1
0	154865	49.31	-1
0	155181	49.41	-1
0	155497	49.51	-1
0	155813	49.61	-1
0	156129	49.71	-1
0	156445	49.81	-1
0	156761	49.91	-1
0	157083	50.01	-1
0	157399	50.11	-1
0	157715	50.21	-1
0	158031	50.31	-1
0	158347	50.41	-1
0	158663	50.51	-1
0	158979	50.61	-1
0	159295	50.71	-1
0	159611	50.81	-1
0	159927	50.91	-1
0	160249	51.01	-1
0	160565	51.11	-1
0	160881	51.21	-1
0	161197	51.31	-1
0	161513	51.41	-1
0	161829	51.51	-1
0	162145	51.61	-1
0	162461	51.71	-1
0	162777	51.81	-1
0	163093	51.91	-1
0	163415	52.01	-1
0	163731	52.11	-1
0	164047	52.21	-1
0	164363	52.31	-1
0	164679	52.41	-1
0	164995	52.51	-1
0	165311	52.61	-1
0	165627	52.71	-1
0	165943	52.81	-1
0	166259	52.91	-1
0	166581	53.01	-1
0	166897	53.11	-1
0	167213	53.21	-1
0	167529	53.31	-1
0	167845	53.41	-1
0	168161	53.51	-1
0	168477	53.61	-1
0	168793	53.71	-1
0	169109	53.81	-1
0	169425	53.91	-1
0	169747	54.01	-1
0	170063	54.11	-1
0	170379	54.21	-1
0	170695	54.31	-1
0	171011	54.41	-1
0	171327	54.51	-1
0	171643	54.61	-1
0	171959	54.71	-1
0	172275	54.81	-1
0	172591	54.91	-1
0	172913	55.01	-1
0	173229	55.11	-1
0	173545	55.21	-1
0	173861	55.31	-1
0	174177	55.41	-1
0	174493	55.51	-1
0	174809	55.61	-1
0	175125	55.71	-1
0	175441	55.81	-1
0	175757	55.91	-1
0	176079	56.01	-1
0	176395	56.11	-1
0	176711	56.21	-1
0	177027	56.31	-1
0	177343	56.41	-1
0	177659	56.51	-1
0	177975	56.61	-1
0	178291	56.71	-1
0	178607	56.81	-1
0	178923	56.91	-1
0	179245	57.01	-1
0	179561	57.11	-1
0	179877	57.21	-1
0	180193	57.31	-1
0	180509	57.41	-1
0	180825	57.51	-1
0	181141	57.61	-1
0	181457	57.71	-1
0	181773	57.81	-1
0	182089	57.91	-1
0	182411	58.01	-1
0	182727	58.11	-1
0	183043	58.21	-1
0	183359	58.31	-1
0	183675	58.41	-1
0	183991	58.51	-1
0	184307	58.61	-1
0	184623	58.71	-1
0	184939	58.81	-1
0	185255	58.91	-1
0	185577	59.01	-1
0	185893	59.11	-1
0	186209	59.21	-1
0	186525	59.31	-1
0	186841	59.41	-1
0	187157	59.51	-1
0	187473	59.61	-1
0	187789	59.71	-1
0	188105	59.81	-1
0	188421	59.91	-1
0	188743	60.01	-1
0	189059	60.11	-1
0	189375	60.21	-1
0	189691	60.31	-1
0	190007	60.41	-1
0	190323	60.51	-1
0	190639	60.61	-1
0	190955	60.71	-1
0	191271	60.81	-1
0	191587	60.91	-1
0	191909	61.01	-1
0	192225	61.11	-1
0	192541	61.21	-1
0	192857	61.31	-1
0	193173	61.41	-1
0	193489	61.51	-1
0	193805	61.61	-1
0	194121	61.71	-1
0	194437	61.81	-1
0	194753	61.91	-1
0	195075	62.01	-1
0	195391	62.11	-1
0	195707	62.21	-1
0	196023	62.31	-1
0	196339	62.41	-1
0	196655	62.51	-1
0	196971	62.61	-1
0	197287	62.71	-1
0	197603	62.81	-1
0	197919	62.91	-1
0	198241	63.01	-1
0	198557	63.11	-1
0	198873	63.21	-1
0	199189	63.31	-1
0	199505	63.41	-1
0	199821	63.51	-1
0	200137	63.61	-1
0	200453	63.71	-1
0	200769	63.81	-1
0	201085	63.91	-1
0	201407	64.01	-1
0	201723	64.11	-1
0	202039	64.21	-1
0	202355	64.31	-1
0	202671	64.41	-1
0	202987	64.51	-1
0	203303	64.61	-1
0	203619	64.71	-1
0	203935	64.81	-1
0	204251	64.91	-1
0	204573	65.01	-1
0	204889	65.11	-1
0	205205	65.21	-1
0	205521	65.31	-1
0	205837	65.41	-1
0	206153	65.51	-1
0	206469	65.61	-1
0	206785	65.71	-1
0	207101	65.81	-1
0	207417	65.91	-1
0	207739	66.01	-1
0	208055	66.11	-1
0	208371	66.21	-1
0	208687	66.31	-1
0	209003	66.41	-1
0	209319	66.51	-1
0	209635	66.61	-1
0	209951	66.71	-1
0	210267	66.81	-1
0	210583	66.91	-1
0	210905	67.01	-1
0	211221	67.11	-1
0	211537	67.21	-1
0	211853	67.31	-1
0	212169	67.41	-1
0	212485	67.51	-1
0	212801	67.61	-1
0	213117	67.71	-1
0	213433	67.81	-1
0	213749	67.91	-1
0	214071	68.01	-1
0	214387	68.11	-1
0	214703	68.21	-1
0	215019	68.31	-1
0	215335	68.41	-1
0	215651	68.51	-1
0	215967	68.61	-1
0	216283	68.71	-1
0	216599	68.81	-1
0	216915	68.91	-1
0	217237	69.01	-1
0	217553	69.11	-1
0	217869	69.21	-1
0	218185	69.31	-1
0	218501	69.41	-1
0	218817	69.51	-1
0	219133	69.61	-1
0	219449	69.71	-1
0	219765	69.81	-1
0	220081	69.91	-1
0	220403	70.01	-1
0	220719	70.11	-1
0	221035	70.21	-1
0	221351	70.31	-1
0	221667	70.41	-1
0	221983	70.51	-1
0	222299	70.61	-1
0	222615	70.71	-1
0	222931	70.81	-1
0	223247	70.91	-1
0	223569	71.01	-1
0	223885	71.11	-1
0	224201	71.21	-1
0	224517	71.31	-1
0	224833	71.41	-1
0	225149	71.51	-1
0	225465	71.61	-1
0	225781	71.71	-1
0	226097	71.81	-1
0	226413	71.91	-1
0	226735	72.01	-1
0	227051	72.11	-1
0	227367	72.21	-1
0	227683	72.31	-1
0	227999	72.41	-1
0	228315	72.51	-1
0	228631	72.61	-1
0	228947	72.71	-1
0	229263	72.81	-1
0	229579	72.91	-1
0	229901	73.01	-1
0	230217	73.11	-1
0	230533	73.21	-1
0	230849	73.31	-1
0	231165	73.41	-1
0	231481	73.51	-1
0	231797	73.61	-1
0	232113	73.71	-1
0	232429	73.81	-1
0	232745	73.91	-1
0	233067	74.01	-1
0	233383	74.11	-1
0	233699	74.21	-1
0	234015	74.31	-1
0	234331	74.41	-1
0	234647	74.51	-1
0	234963	74.61	-1
0	235279	74.71	-1
0	235595	74.81	-1
0	235911	74.91	-1
0	236233	75.01	-1
0	236549	75.11	-1
0	236865	75.21	-1
0	237181	75.31	-1
0	237497	75.41	-1
0	237813	75.51	-1
0	238129	75.61	-1
0	238445	75.71	-1
0	238761	75.81	-1
0	239077	75.91	-1
0	239399	76.01	-1
0	239715	76.11	-1
0	240031	76.21	-1
0	240347	76.31	-1
0	240663	76.41	-1
0	240979	76.51	-1
0	241295	76.61	-1
0	241611	76.71	-1
0	241927	76.81	-1
0	242243	76.91	-1
0	242565	77.01	-1
0	242881	77.11	-1
0	243197	77.21	-1
0	243513	77.31	-1
0	243829	77.41	-1
0	244145	77.51	-1
0	244461	77.61	-1
0	244777	77.71	-1
0	245093	77.81	-1
0	245409	77.91	-1
0	245731	78.01	-1
0	246047	78.11	-1
0	246363	78.21	-1
0	246679	78.31	-1
0	246995	78.41	-1
0	247311	78.51	-1
0	247627	78.61	-1
0	247943	78.71	-1
0	248259	78.81	-1
0	248575	78.91	-1
0	248897	79.01	-1
0	249213	79.11	-1
0	249529	79.21	-1
0	249845	79.31	-1
0	250161	79.41	-1
0	250477	79.51	-1
0	250793	79.61	-1
0	251109	79.71	-1
0	251425	79.81	-1
0	251741	79.91	-1
0	252063	80.01	-1
0	252379	80.11	-1
0	252695	80.21	-1
0	253011	80.31	-1
0	253327	80.41	-1
0	253643	80.51	-1
0	253959	80.61	-1
0	254275	80.71	-1
0	254591	80.81	-1
0	254907	80.91	-1
0	255229	81.01	-1
0	255545	81.11	-1
0	255861	81.21	-1
0	256177	81.31	-1
0	256493	81.41	-1
0	256809	81.51	-1
0	257125	81.61	-1
0	257441	81.71	-1
0	257757	81.81	-1
0	258073	81.91	-1
0	258395	82.01	-1
0	258711	82.11	-1
0	259027	82.21	-1
0	259343	82.31	-1
0	259659	82.41	-1
0	259975	82.51	-1
0	260291	82.61	-1
0	260607	82.71	-1
0	260923	82.81	-1
0	261239	82.91	-1
0	261561	83.01	-1
0	261877	83.11	-1
0	262193	83.21	-1
0	262509	83.31	-1
0	262825	83.41	-1
0	263141	83.51	-1
0	263457	83.61	-1
0	263773	83.71	-1
0	264089	83.81	-1
0	264405	83.91	-1
0	264727	84.01	-1
0	265043	84.11	-1
0	265359	84.21	-1
0	265675	84.31	-1
0	265991	84.41	-1
0	266307	84.51	-1
0	266623	84.61	-1
0	266939	84.71	-1
0	267255	84.81	-1
0	267571	84.91	-1
0	267893	85.01	-1
0	268209	85.11	-1
0	268525	85.21	-1
0	268841	85.31	-1
0	269157	85.41	-1
0	269473	85.51	-1
0	269789	85.61	-1
0	270105	85.71	-1
0	270421	85.81	-1
0	270737	85.91	-1
0	271059	86.01	-1
0	271375	86.11	-1
0	271691	86.21	-1
0	272007	86.31	-1
0	272323	86.41	-1
0	272639	86.51	-1
0	272955	86.61	-1
0	273271	86.71	-1
0	273587	86.81	-1
0	273903	86.91	-1
0	274225	87.01	-1
0	274541	87.11	-1
0	274857	87.21	-1
0	275173	87.31	-1
0	275489	87.41	-1
0	275805	87.51	-1
0	276121	87.61	-1
0	276437	87.71	-1
0	276753	87.81	-1
0	277069	87.91	-1
0	277391	88.01	-1
0	277707	88.11	-1
0	278023	88.21	-1
0	278339	88.31	-1
0	278655	88.41	-1
0	278971	88.51	-1
0	279287	88.61	-1
0	279603	88.71	-1
0	279919	88.81	-1
0	280235	88.91	-1
0	280557	89.01	-1
0	280873	89.11	-1
0	281189	89.21	-1
0	281505	89.31	-1
0	281821	89.41	-1
0	282137	89.51	-1
0	282453	89.61	-1
0	282769	89.71	-1
0	283085	89.81	28.3814
0	283401	89.91	28.5703
0	283723	90.01	28.7592
0	284039	90.11	28.9481
0	284355	90.21	29.137
0	284671	90.31	29.3259
0	284987	90.41	29.5148
0	285303	90.51	29.7037
0	285619	90.61	29.8926
0	285935	90.71	30.0814
0	286251	90.81	30.2703
0	286567	90.91	30.4592
0	286889	91.01	30.6481
0	287205	91.11	30.837
0	287521	91.21	31.0259
0	287837	91.31	31.2148
0	288153	91.41	31.4037
0	288469	91.51	31.5926
0	288785	91.61	31.7815
0	289101	91.71	31.9703
0	289417	91.81	32.1592
0	289733	91.91	32.3481
0	290055	92.01	32.537
0	290371	92.11	32.7259
0	290687	92.21	32.9148
0	291003	92.31	33.1037
0	291319	92.41	33.2926
0	291635	92.51	33.4815
0	291951	92.61	33.6704
0	292267	92.71	33.8592
0	292583	92.81	34.0481
0	292899	92.91	34.237
0	293221	93.01	34.4259
0	293537	93.11	34.6148
0	293853	93.21	34.8037
0	294169	93.31	34.9926
0	294485	93.41	35.1815
0	294801	93.51	35.3704
0	295117	93.61	35.5593
0	295433	93.71	35.7481
0	295749	93.81	35.937
0	296065	93.91	36.1259
0	296387	94.01	36.3148
0	296703	94.11	36.5037
0	297019	94.21	36.6926
0	297335	94.31	36.8815
0	297651	94.41	37.0704
0	297967	94.51	37.2593
0	298283	94.61	37.4482
0	298599	94.71	37.637
0	298915	94.81	37.8259
0	299231	94.91	38.0148
0	299553	95.01	38.2037
0	299869	95.11	38.3926
0	300185	95.21	38.5815
0	300501	95.31	38.7704
0	300817	95.41	38.9593
0	301133	95.51	39.1482
0	301449	95.61	39.3371
0	301765	95.71	39.5259
0	302081	95.81	39.7148
0	302397	95.91	39.9037
0	302719	96.01	40.0926
0	303035	96.11	40.2815
0	303351	96.21	40.4704
0	303667	96.31	40.6593
0	303983	96.41	40.8482
0	304299	96.51	41.0371
0	304615	96.61	41.226
0	304931	96.71	41.4148
0	305247	96.81	41.6037
0	305563	96.91	41.7926
0	305885	97.01	41.9815
0	306201	97.11	42.1704
0	306517	97.21	42.3593
0	306833	97.31	42.5482
0	307149	97.41	42.7371
0	307465	97.51	42.926
0	307781	97.61	43.1149
0	308097	97.71	43.3037
0	308413	97.81	43.4926
0	308729	97.91	43.6815
0	309051	98.01	43.8704
0	309367	98.11	44.0593
0	309683	98.21	44.2482
0	309999	98.31	44.4371
0	310315	98.41	44.626
0	310631	98.51	44.8149
0	310947	98.61	45.0038
0	311263	98.71	45.1926
0	311579	98.81	45.3815
0	311895	98.91	45.5704
0	312217	99.01	45.7593
0	312533	99.11	45.9482
0	312849	99.21	46.1371
0	313165	99.31	46.326
0	313481	99.41	46.5149
0	313797	99.51	46.7038
0	314113	99.61	46.8927
0	314429	99.71	47.0815
0	314745	99.81	47.2704
0	315061	99.91	47.4593
1	113	1.11	0
1	429	1.21	0
1	745	1.31	0
1	1061	1.41	0
1	1377	1.51	0
1	1693	1.61	0
1	2009	1.71	0
1	2325	1.81	0
1	2641	1.91	0
1	2963	2.01	0
1	3279	2.11	0
1	3595	2.21	0
1	3911	2.31	0
1	4227	2.41	0
1	4543	2.51	0
1	4859	2.61	0
1	5175	2.71	0
1	5491	2.81	0
1	5807	2.91	0
1	6129	3.01	0
1	6445	3.11	0
1	6761	3.21	0
1	7077	3.31	0
1	7393	3.41	0
1	7709	3.51	0
1	8025	3.61	0
1	8341	3.71	0
1	8657	3.81	0
1	8973	3.91	0
1	9295	4.01	0
1	9611	4.11	0
1	9927	4.21	0
1	10243	4.31	0
1	10559	4.41	0
1	10875	4.51	0
1	11191	4.61	0
1	11507	4.71	0
1	11823	4.81	0
1	12139	4.91	0
1	12461	5.01	0
1	12777	5.11	0
1	13093	5.21	0
1	13409	5.31	0
1	13725	5.41	0
1	14041	5.51	0
1	14357	5.61	0
1	14673	5.71	0
1	14989	5.81	0
1	15305	5.91	0
1	15627	6.01	0
1	15943	6.11	0
1	16259	6.21	0
1	16575	6.31	0
1	16891	6.41	0
1	17207	6.51	0
1	17523	6.61	0
1	17839	6.71	0
1	18155	6.81	0
1	18471	6.91	0
1	18793	7.01	0
1	19109	7.11	0
1	19425	7.21	0
1	19741	7.31	0
1	20057	7.41	0
1	20373	7.51	0
1	20689	7.61	0
1	21005	7.71	0
1	21321	7.81	0
1	21637	7.91	0
1	21959	8.01	0
1	22275	8.11	0
1	22591	8.21	0
1	22907	8.31	0
1	23223	8.41	0
1	23539	8.51	0
1	23855	8.61	0
1	24171	8.71	0
1	24487	8.81	0
1	24803	8.91	0
1	25125	9.01	0
1	25441	9.11	0
1	25757	9.21	0
1	26073	9.31	0
1	26389	9.41	0
1	26705	9.51	0
1	27021	9.61	0
1	27337	9.71	0
1	27653	9.81	0
1	27969	9.91	0
1	28347	10.01	0
1	28668	10.11	0
1	28989	10.21	0
1	29310	10.31	0
1	29631	10.41	0
1	29952	10.51	0
1	30273	10.61	0
1	30594	10.71	0
1	30915	10.81	0
1	31236	10.91	0
1	31563	11.01	0
1	31884	11.11	0
1	32205	11.21	0
1	32526	11.31	0
1	32847	11.41	0
1	33168	11.51	0
1	33489	11.61	0
1	33810	11.71	0
1	34131	11.81	0
1	34452	11.91	0
1	34779	12.01	0
1	35100	12.11	0
1	35421	12.21	0
1	35742	12.31	0
1	36063	12.41	0
1	36384	12.51	0
1	36705	12.61	0
1	37026	12.71	0
1	37347	12.81	0
1	37668	12.91	0
1	37995	13.01	0
1	38316	13.11	0
1	38637	13.21	0
1	38958	13.31	0
1	39279	13.41	0
1	39600	13.51	0
1	39921	13.61	0
1	40242	13.71	0
1	40563	13.81	0
1	40884	13.91	0
1	41211	14.01	0
1	41532	14.11	0
1	41853	14.21	0
1	42174	14.31	0
1	42495	14.41	0
1	42816	14.51	0
1	43137	14.61	0
1	43458	14.71	0
1	43779	14.81	0
1	44100	14.91	0
1	44427	15.01	0
1	44748	15.11	0
1	45069	15.21	0
1	45390	15.31	0
1	45711	15.41	0
1	46032	15.51	0
1	46353	15.61	0
1	46674	15.71	0
1	46995	15.81	0
1	47316	15.91	0
1	47643	16.01	0
1	47964	16.11	0
1	48285	16.21	0
1	48606	16.31	0
1	48927	16.41	0
1	49248	16.51	0
1	49569	16.61	0
1	49890	16.71	0
1	50211	16.81	0
1	50532	16.91	0
1	50859	17.01	0
1	51180	17.11	0
1	51501	17.21	0
1	51822	17.31	0
1	52143	17.41	0
1	52464	17.51	0
1	52785	17.61	0
1	53106	17.71	0
1	53427	17.81	0
1	53748	17.91	0
1	54075	18.01	0
1	54396	18.11	0
1	54717	18.21	0
1	55038	18.31	0
1	55359	18.41	0
1	55680	18.51	0
1	56001	18.61	0
1	56322	18.71	0
1	56643	18.81	0
1	56964	18.91	0
1	57291	19.01	0
1	57612	19.11	0
1	57933	19.21	0
1	58254	19.31	0
1	58575	19.41	0
1	58896	19.51	0
1	59217	19.61	0
1	59538	19.71	0
1	59859	19.81	0
1	60180	19.91	0
1	60507	20.01	0
1	60828	20.11	0
1	61149	20.21	0
1	61470	20.31	0
1	61791	20.41	0
1	62112	20.51	0
1	62433	20.61	0
1	62754	20.71	0
1	63075	20.81	0
1	63396	20.91	0
1	63723	21.01	0
1	64044	21.11	0
1	64365	21.21	0
1	64686	21.31	0
1	65007	21.41	0
1	65328	21.51	0
1	65649	21.61	0
1	65970	21.71	0
1	66291	21.81	0
1	66612	21.91	0
1	66939	22.01	0
1	67260	22.11	0
1	67581	22.21	0
1	67902	22.31	0
1	68223	22.41	0
1	68544	22.51	0
1	68865	22.61	0
1	69186	22.71	0
1	69507	22.81	0
1	69828	22.91	0
1	70155	23.01	0
1	70476	23.11	0
1	70797	23.21	0
1	71118	23.31	0
1	71439	23.41	0
1	71760	23.51	0
1	72081	23.61	0
1	72402	23.71	0
1	72723	23.81	0
1	73044	23.91	0
1	73371	24.01	0
1	73692	24.11	0
1	74013	24.21	0
1	74334	24.31	0
1	74655	24.41	0
1	74976	24.51	0
1	75297	24.61	0
1	75618	24.71	0
1	75939	24.81	0
1	76260	24.91	0
1	76587	25.01	0
1	76908	25.11	0
1	77229	25.21	0
1	77550	25.31	0
1	77871	25.41	0
1	78192	25.51	0
1	78513	25.61	0
1	78834	25.71	0
1	79155	25.81	0
1	79476	25.91	0
1	79803	26.01	0
1	80124	26.11	0
1	80445	26.21	0
1	80766	26.31	0
1	81087	26.41	0
1	81408	26.51	0
1	81729	26.61	0
1	82050	26.71	0
1	82371	26.81	0
1	82692	26.91	0
1	83019	27.01	0
1	83340	27.11	0
1	83661	27.21	0
1	83982	27.31	0
1	84303	27.41	0
1	84624	27.51	0
1	84945	27.61	0
1	85266	27.71	0
1	85587	27.81	0
1	85908	27.91	0
1	86235	28.01	0
1	86556	28.11	0
1	86877	28.21	0
1	87198	28.31	0
1	87519	28.41	0
1	87840	28.51	0
1	88161	28.61	0
1	88482	28.71	0
1	88803	28.81	0
1	89124	28.91	0
1	89451	29.01	0
1	89772	29.11	0
1	90093	29.21	0
1	90487	29.31	0
1	90807	29.41	0
1	91127	29.51	0
1	91447	29.61	0
1	91767	29.71	0
1	92087	29.81	0
1	92407	29.91	0
1	92733	30.01	0
1	93053	30.11	0
1	93373	30.21	0
1	93693	30.31	0
1	94013	30.41	0
1	94333	30.51	0
1	94653	30.61	0
1	94973	30.71	0
1	95293	30.81	0
1	95613	30.91	0
1	95939	31.01	0
1	96259	31.11	0
1	96579	31.21	0
1	96899	31.31	0
1	97219	31.41	0
1	97539	31.51	0
1	97859	31.61	0
1	98179	31.71	0
1	98499	31.81	0
1	98819	31.91	0
1	99145	32.01	0
1	99465	32.11	0
1	99785	32.21	0
1	100105	32.31	0
1	100425	32.41	0
1	100745	32.51	0
1	101065	32.61	0
1	101385	32.71	0
1	101705	32.81	0
1	102025	32.91	0
1	102351	33.01	0
1	102671	33.11	0
1	102991	33.21	0
1	103311	33.31	0
1	103631	33.41	0
1	104024	33.51	0
1	104343	33.61	0
1	104662	33.71	0
1	104981	33.81	0
1	105300	33.91	0
1	105625	34.01	0
1	105944	34.11	0
1	106263	34.21	0
1	106582	34.31	0
1	106901	34.41	0
1	107220	34.51	0
1	107539	34.61	0
1	107858	34.71	0
1	108177	34.81	0
1	108496	34.91	0
1	108821	35.01	0
1	109140	35.11	0
1	109459	35.21	0
1	109778	35.31	0
1	110097	35.41	0
1	110416	35.51	0
1	110735	35.61	0
1	111054	35.71	0
1	111373	35.81	0
1	111692	35.91	0
1	112017	36.01	0
1	112336	36.11	0
1	112655	36.21	0
1	112974	36.31	0
1	113293	36.41	0
1	113612	36.51	0
1	113931	36.61	0
1	114250	36.71	0
1	114569	36.81	0
1	114888	36.91	0
1	115213	37.01	0
1	115532	37.11	0
1	115851	37.21	0
1	116170	37.31	0
1	116489	37.41	0
1	116881	37.51	0
1	117199	37.61	0
1	117517	37.71	0
1	117835	37.81	0
1	118153	37.91	0
1	118477	38.01	0
1	118795	38.11	0
1	119113	38.21	0
1	119431	38.31	0
1	119749	38.41	0
1	120067	38.51	0
1	120385	38.61	0
1	120703	38.71	0
1	121021	38.81	0
1	121339	38.91	0
1	121663	39.01	0
1	121981	39.11	0
1	122299	39.21	0
1	122617	39.31	0
1	122935	39.41	0
1	123253	39.51	0
1	123571	39.61	0
1	123889	39.71	0
1	124207	39.81	0
1	124525	39.91	0
1	124849	40.01	0
1	125167	40.11	0
1	125485	40.21	0
1	125803	40.31	0
1	126121	40.41	0
1	126439	40.51	0
1	126757	40.61	0
1	127075	40.71	0
1	127393	40.81	0
1	127711	40.91	0
1	128035	41.01	0
1	128353	41.11	0
1	128671	41.21	0
1	129062	41.31	0
1	129379	41.41	0
1	129696	41.51	0
1	130013	41.61	0
1	130330	41.71	0
1	130647	41.81	0
1	130964	41.91	0
1	131287	42.01	0
1	131604	42.11	0
1	131921	42.21	0
1	132238	42.31	0
1	132555	42.41	0
1	132872	42.51	0
1	133189	42.61	0
1	133506	42.71	0
1	133823	42.81	0
1	134140	42.91	0
1	134463	43.01	0
1	134780	43.11	0
1	135097	43.21	0
1	135414	43.31	0
1	135731	43.41	0
1	136048	43.51	0
1	136365	43.61	0
1	136682	43.71	0
1	136999	43.81	0
1	137316	43.91	0
1	137639	44.01	0
1	137956	44.11	0
1	138273	44.21	0
1	138590	44.31	0
1	138907	44.41	0
1	139224	44.51	0
1	139541	44.61	0
1	139858	44.71	0
1	140175	44.81	0
1	140492	44.91	0
1	141253	45.01	0
1	141569	45.11	0
1	141885	45.21	0
1	142201	45.31	0
1	142517	45.41	0
1	142833	45.51	0
1	143149	45.61	0
1	143465	45.71	0
1	143781	45.81	0
1	144097	45.91	0
1	144419	46.01	0
1	144735	46.11	0
1	145051	46.21	0
1	145367	46.31	0
1	145683	46.41	0
1	145999	46.51	0
1	146315	46.61	0
1	146631	46.71	0
1	146947	46.81	0
1	147263	46.91	0
1	147585	47.01	0
1	147901	47.11	0
1	148217	47.21	0
1	148533	47.31	0
1	148849	47.41	0
1	149165	47.51	0
1	149481	47.61	0
1	149797	47.71	0
1	150113	47.81	0
1	150429	47.91	0
1	150751	48.01	0
1	151067	48.11	0
1	151383	48.21	0
1	151699	48.31	0
1	152015	48.41	0
1	152331	48.51	0
1	152647	48.61	0
1	152963	48.71	0
1	153279	48.81	0
1	153595	48.91	0
1	153917	49.01	0
1	154233	49.11	0
1	154549	49.21	0
1	154865	49.31	0
1	155181	49.41	0
1	155497	49.51	0
1	155813	49.61	0
1	156129	49.71	0
1	156445	49.81	0
1	156761	49.91	0
1	157083	50.01	0
1	157399	50.11	0
1	157715	50.21	0
1	158031	50.31	0
1	158347	50.41	0
1	158663	50.51	0
1	158979	50.61	0
1	159295	50.71	0
1	159611	50.81	0
1	159927	50.91	0
1	160249	51.01	0
1	160565	51.11	0
1	160881	51.21	0
1	161197	51.31	0
1	161513	51.41	0
1	161829	51.51	0
1	162145	51.61	0
1	162461	51.71	0
1	162777	51.81	0
1	163093	51.91	0
1	163415	52.01	0
1	163731	52.11	0
1	164047	52.21	0
1	164363	52.31	0
1	164679	52.41	0
1	164995	52.51	0
1	165311	52.61	0
1	165627	52.71	0
1	165943	52.81	0
1	166259	52.91	0
1	166581	53.01	0
1	166897	53.11	0
1	167213	53.21	0
1	167529	53.31	0
1	167845	53.41	0
1	168161	53.51	0
1	168477	53.61	0
1	168793	53.71	0
1	169109	53.81	0
1	169425	53.91	0
1	169747	54.01	0
1	170063	54.11	0
1	170379	54.21	0
1	170695	54.31	0
1	171011	54.41	0
1	171327	54.51	0
1	171643	54.61	0
1	171959	54.71	0
1	172275	54.81	0
1	172591	54.91	0
1	172913	55.01	0
1	173229	55.11	0
1	173545	55.21	0
1	173861	55.31	0
1	174177	55.41	0
1	174493	55.51	0
1	174809	55.61	0
1	175125	55.71	0
1	175441	55.81	0
1	175757	55.91	0
1	176079	56.01	0
1	176395	56.11	0
1	176711	56.21	0
1	177027	56.31	0
1	177343	56.41	0
1	177659	56.51	0
1	177975	56.61	0
1	178291	56.71	0
1	178607	56.81	0
1	178923	56.91	0
1	179245	57.01	0
1	179561	57.11	0
1	179877	57.21	0
1	180193	57.31	0
1	180509	57.41	0
1	180825	57.51	0
1	181141	57.61	0
1	181457	57.71	0
1	181773	57.81	0
1	182089	57.91	0
1	182411	58.01	0
1	182727	58.11	0
1	183043	58.21	0
1	183359	58.31	0
1	183675	58.41	0
1	183991	58.51	0
1	184307	58.61	0
1	184623	58.71	0
1	184939	58.81	0
1	185255	58.91	0
1	185577	59.01	0
1	185893	59.11	0
1	186209	59.21	0
1	186525	59.31	0
1	186841	59.41	0
1	187157	59.51	0
1	187473	59.61	0
1	187789	59.71	0
1	188105	59.81	0
1	188421	59.91	0
1	188743	60.01	0
1	189059	60.11	0
1	189375	60.21	0
1	189691	60.31	0
1	190007	60.41	0
1	190323	60.51	0
1	190639	60.61	0
1	190955	60.71	0
1	191271	60.81	0
1	191587	60.91	0
1	191909	61.01	0
1	192225	61.11	0
1	192541	61.21	0
1	192857	61.31	0
1	193173	61.41	0
1	193489	61.51	0
1	193805	61.61	0
1	194121	61.71	0
1	194437	61.81	0
1	194753	61.91	0
1	195075	62.01	0
1	195391	62.11	0
1	195707	62.21	0
1	196023	62.31	0
1	196339	62.41	0
1	196655	62.51	0
1	196971	62.61	0
1	197287	62.71	0
1	197603	62.81	0
1	197919	62.91	0
1	198241	63.01	0
1	198557	63.11	0
1	198873	63.21	0
1	199189	63.31	0
1	199505	63.41	0
1	199821	63.51	0
1	200137	63.61	0
1	200453	63.71	0
1	200769	63.81	0
1	201085	63.91	0
1	201407	64.01	0
1	201723	64.11	0
1	202039	64.21	0
1	202355	64.31	0
1	202671	64.41	0
1	202987	64.51	0
1	203303	64.61	0
1	203619	64.71	0
1	203935	64.81	0
1	204251	64.91	0
1	204573	65.01	0
1	204889	65.11	0
1	205205	65.21	0
1	205521	65.31	0
1	205837	65.41	0
1	206153	65.51	0
1	206469	65.61	0
1	206785	65.71	0
1	207101	65.81	0
1	207417	65.91	0
1	207739	66.01	0
1	208055	66.11	0
1	208371	66.21	0
1	208687	66.31	0
1	209003	66.41	0
1	209319	66.51	0
1	209635	66.61	0
1	209951	66.71	0
1	210267	66.81	0
1	210583	66.91	0
1	210905	67.01	0
1	211221	67.11	0
1	211537	67.21	0
1	211853	67.31	0
1	212169	67.41	0
1	212485	67.51	0
1	212801	67.61	0
1	213117	67.71	0
1	213433	67.81	0
1	213749	67.91	0
1	214071	68.01	0
1	214387	68.11	0
1	214703	68.21	0
1	215019	68.31	0
1	215335	68.41	0
1	215651	68.51	0
1	215967	68.61	0
1	216283	68.71	0
1	216599	68.81	0
1	216915	68.91	0
1	217237	69.01	0
1	217553	69.11	0
1	217869	69.21	0
1	218185	69.31	0
1	218501	69.41	0
1	218817	69.51	0
1	219133	69.61	0
1	219449	69.71	0
1	219765	69.81	0
1	220081	69.91	0
1	220403	70.01	0
1	220719	70.11	0
1	221035	70.21	0
1	221351	70.31	0
1	221667	70.41	0
1	221983	70.51	0
1	222299	70.61	0
1	222615	70.71	0
1	222931	70.81	0
1	223247	70.91	0
1	223569	71.01	0
1	223885	71.11	0
1	224201	71.21	0
1	224517	71.31	0
1	224833	71.41	0
1	225149	71.51	0
1	225465	71.61	0
1	225781	71.71	0
1	226097	71.81	0
1	226413	71.91	0
1	226735	72.01	0
1	227051	72.11	0
1	227367	72.21	0
1	227683	72.31	0
1	227999	72.41	0
1	228315	72.51	0
1	228631	72.61	0
1	228947	72.71	0
1	229263	72.81	0
1	229579	72.91	0
1	229901	73.01	0
1	230217	73.11	0
1	230533	73.21	0
1	230849	73.31	0
1	231165	73.41	0
1	231481	73.51	0
1	231797	73.61	0
1	232113	73.71	0
1	232429	73.81	0
1	232745	73.91	0
1	233067	74.01	0
1	233383	74.11	0
1	233699	74.21	0
1	234015	74.31	0
1	234331	74.41	0
1	234647	74.51	0
1	234963	74.61	0
1	235279	74.71	0
1	235595	74.81	0
1	235911	74.91	0
1	236233	75.01	0
1	236549	75.11	0
1	236865	75.21	0
1	237181	75.31	0
1	237497	75.41	0
1	237813	75.51	0
1	238129	75.61	0
1	238445	75.71	0
1	238761	75.81	0
1	239077	75.91	0
1	239399	76.01	0
1	239715	76.11	0
1	240031	76.21	0
1	240347	76.31	0
1	240663	76.41	0
1	240979	76.51	0
1	241295	76.61	0
1	241611	76.71	0
1	241927	76.81	0
1	242243	76.91	0
1	242565	77.01	0
1	242881	77.11	0
1	243197	77.21	0
1	243513	77.31	0
1	243829	77.41	0
1	244145	77.51	0
1	244461	77.61	0
1	244777	77.71	0
1	245093	77.81	0
1	245409	77.91	0
1	245731	78.01	0
1	246047	78.11	0
1	246363	78.21	0
1	246679	78.31	0
1	246995	78.41	0
1	247311	78.51	0
1	247627	78.61	0
1	247943	78.71	0
1	248259	78.81	0
1	248575	78.91	0
1	248897	79.01	0
1	249213	79.11	0
1	249529	79.21	0
1	249845	79.31	0
1	250161	79.41	0
1	250477	79.51	0
1	250793	79.61	0
1	251109	79.71	0
1	251425	79.81	0
1	251741	79.91	0
1	252063	80.01	0
1	252379	80.11	0
1	252695	80.21	0
1	253011	80.31	0
1	253327	80.41	0
1	253643	80.51	0
1	253959	80.61	0
1	254275	80.71	0
1	254591	80.81	0
1	254907	80.91	0
1	255229	81.01	0
1	255545	81.11	0
1	255861	81.21	0
1	256177	81.31	0
1	256493	81.41	0
1	256809	81.51	0
1	257125	81.61	0
1	257441	81.71	0
1	257757	81.81	0
1	258073	81.91	0
1	258395	82.01	0
1	258711	82.11	0
1	259027	82.21	0
1	259343	82.31	0
1	259659	82.41	0
1	259975	82.51	0
1	260291	82.61	0
1	260607	82.71	0
1	260923	82.81	0
1	261239	82.91	0
1	261561	83.01	0
1	261877	83.11	0
1	262193	83.21	0
1	262509	83.31	0
1	262825	83.41	0
1	263141	83.51	0
1	263457	83.61	0
1	263773	83.71	0
1	264089	83.81	0
1	264405	83.91	0
1	264727	84.01	0
1	265043	84.11	0
1	265359	84.21	0
1	265675	84.31	0
1	265991	84.41	0
1	266307	84.51	0
1	266623	84.61	0
1	266939	84.71	0
1	267255	84.81	0
1	267571	84.91	0
1	267893	85.01	0
1	268209	85.11	0
1	268525	85.21	0
1	268841	85.31	0
1	269157	85.41	0
1	269473	85.51	0
1	269789	85.61	0
1	270105	85.71	0
1	270421	85.81	0
1	270737	85.91	0
1	271059	86.01	0
1	271375	86.11	0
1	271691	86.21	0
1	272007	86.31	0
1	272323	86.41	0
1	272639	86.51	0
1	272955	86.61	0
1	273271	86.71	0
1	273587	86.81	0
1	273903	86.91	0
1	274225	87.01	0
1	274541	87.11	0
1	274857	87.21	0
1	275173	87.31	0
1	275489	87.41	0
1	275805	87.51	0
1	276121	87.61	0
1	276437	87.71	0
1	276753	87.81	0
1	277069	87.91	0
1	277391	88.01	0
1	277707	88.11	0
1	278023	88.21	0
1	278339	88.31	0
1	278655	88.41	0
1	278971	88.51	0
1	279287	88.61	0
1	279603	88.71	0
1	279919	88.81	0
1	280235	88.91	0
1	280557	89.01	0
1	280873	89.11	0
1	281189	89.21	0
1	281505	89.31	0
1	281821	89.41	0
1	282137	89.51	0
1	282453	89.61	0
1	282769	89.71	0
1	283085	89.81	1.8889
1	283401	89.91	1.8889
1	283723	90.01	1.8889
1	284039	90.11	1.8889
1	284355	90.21	1.8889
1	284671	90.31	1.8889
1	284987	90.41	1.8889
1	285303	90.51	1.8889
1	285619	90.61	1.8889
1	285935	90.71	1.8889
1	286251	90.81	1.8889
1	286567	90.91	1.8889
1	286889	91.01	1.8889
1	287205	91.11	1.8889
1	287521	91.21	1.8889
1	287837	91.31	1.8889
1	288153	91.41	1.8889
1	288469	91.51	1.8889
1	288785	91.61	1.8889
1	289101	91.71	1.8889
1	289417	91.81	1.8889
1	289733	91.91	1.8889
1	290055	92.01	1.8889
1	290371	92.11	1.8889
1	290687	92.21	1.8889
1	291003	92.31	1.8889
1	291319	92.41	1.8889
1	291635	92.51	1.8889
1	291951	92.61	1.8889
1	292267	92.71	1.8889
1	292583	92.81	1.8889
1	292899	92.91	1.8889
1	293221	93.01	1.8889
1	293537	93.11	1.8889
1	293853	93.21	1.8889
1	294169	93.31	1.8889
1	294485	93.41	1.8889
1	294801	93.51	1.8889
1	295117	93.61	1.8889
1	295433	93.71	1.8889
1	295749	93.81	1.8889
1	296065	93.91	1.8889
1	296387	94.01	1.8889
1	296703	94.11	1.8889
1	297019	94.21	1.8889
1	297335	94.31	1.8889
1	297651	94.41	1.8889
1	297967	94.51	1.8889
1	298283	94.61	1.8889
1	298599	94.71	1.8889
1	298915	94.81	1.8889
1	299231	94.91	1.8889
1	299553	95.01	1.8889
1	299869	95.11	1.8889
1	300185	95.21	1.8889
1	300501	95.31	1.8889
1	300817	95.41	1.8889
1	301133	95.51	1.8889
1	301449	95.61	1.8889
1	301765	95.71	1.8889
1	302081	95.81	1.8889
1	302397	95.91	1.8889
1	302719	96.01	1.8889
1	303035	96.11	1.8889
1	303351	96.21	1.8889
1	303667	96.31	1.8889
1	303983	96.41	1.8889
1	304299	96.51	1.8889
1	304615	96.61	1.8889
1	304931	96.71	1.8889
1	305247	96.81	1.8889
1	305563	96.91	1.8889
1	305885	97.01	1.8889
1	306201	97.11	1.8889
1	306517	97.21	1.8889
1	306833	97.31	1.8889
1	307149	97.41	1.8889
1	307465	97.51	1.8889
1	307781	97.61	1.8889
1	308097	97.71	1.8889
1	308413	97.81	1.8889
1	308729	97.91	1.8889
1	309051	98.01	1.8889
1	309367	98.11	1.8889
1	309683	98.21	1.8889
1	309999	98.31	1.8889
1	310315	98.41	1.8889
1	310631	98.51	1.8889
1	310947	98.61	1.8889
1	311263	98.71	1.8889
1	311579	98.81	1.8889
1	311895	98.91	1.8889
1	312217	99.01	1.8889
1	312533	99.11	1.8889
1	312849	99.21	1.8889
1	313165	99.31	1.8889
1	313481	99.41	1.8889
1	313797	99.51	1.8889
1	314113	99.61	1.8889
1	314429	99.71	1.8889
1	314745	99.81	1.8889
1	315061	99.91	1.8889
2	113	1.11	0
2	429	1.21	0
2	745	1.31	0
2	1061	1.41	0
2	1377	1.51	0
2	1693	1.61	0
2	2009	1.71	0
2	2325	1.81	0
2	2641	1.91	0
2	2963	2.01	0
2	3279	2.11	0
2	3595	2.21	0
2	3911	2.31	0
2	4227	2.41	0
2	4543	2.51	0
2	4859	2.61	0
2	5175	2.71	0
2	5491	2.81	0
2	5807	2.91	0
2	6129	3.01	0
2	6445	3.11	0
2	6761	3.21	0
2	7077	3.31	0
2	7393	3.41	0
2	7709	3.51	0
2	8025	3.61	0
2	8341	3.71	0
2	8657	3.81	0
2	8973	3.91	0
2	9295	4.01	0
2	9611	4.11	0
2	9927	4.21	0
2	10243	4.31	0
2	10559	4.41	0
2	10875	4.51	0
2	11191	4.61	0
2	11507	4.71	0
2	11823	4.81	0
2	12139	4.91	0
2	12461	5.01	0
2	12777	5.11	0
2	13093	5.21	0
2	13409	5.31	0
2	13725	5.41	0
2	14041	5.51	0
2	14357	5.61	0
2	14673	5.71	0
2	14989	5.81	0
2	15305	5.91	0
2	15627	6.01	0
2	15943	6.11	0
2	16259	6.21	0
2	16575	6.31	0
2	16891	6.41	0
2	17207	6.51	0
2	17523	6.61	0
2	17839	6.71	0
2	18155	6.81	0
2	18471	6.91	0
2	18793	7.01	0
2	19109	7.11	0
2	19425	7.21	0
2	19741	7.31	0
2	20057	7.41	0
2	20373	7.51	0
2	20689	7.61	0
2	21005	7.71	0
2	21321	7.81	0
2	21637	7.91	0
2	21959	8.01	0
2	22275	8.11	0
2	22591	8.21	0
2	22907	8.31	0
2	23223	8.41	0
2	23539	8.51	0
2	23855	8.61	0
2	24171	8.71	0
2	24487	8.81	0
2	24803	8.91	0
2	25125	9.01	0
2	25441	9.11	0
2	25757	9.21	0
2	26073	9.31	0
2	26389	9.41	0
2	26705	9.51	0
2	27021	9.61	0
2	27337	9.71	0
2	27653	9.81	0
2	27969	9.91	0
2	28347	10.01	0
2	28668	10.11	0
2	28989	10.21	0
2	29310	10.31	0
2	29631	10.41	0
2	29952	10.51	0
2	30273	10.61	0
2	30594	10.71	0
2	30915	10.81	0
2	31236	10.91	0
2	31563	11.01	0
2	31884	11.11	0
2	32205	11.21	0
2	32526	11.31	0
2	32847	11.41	0
2	33168	11.51	0
2	33489	11.61	0
2	33810	11.71	0
2	34131	11.81	0
2	34452	11.91	0
2	34779	12.01	0
2	35100	12.11	0
2	35421	12.21	0
2	35742	12.31	0
2	36063	12.41	0
2	36384	12.51	0
2	36705	12.61	0
2	37026	12.71	0
2	37347	12.81	0
2	37668	12.91	0
2	37995	13.01	0
2	38316	13.11	0
2	38637	13.21	0
2	38958	13.31	0
2	39279	13.41	0
2	39600	13.51	0
2	39921	13.61	0
2	40242	13.71	0
2	40563	13.81	0
2	40884	13.91	0
2	41211	14.01	0
2	41532	14.11	0
2	41853	14.21	0
2	42174	14.31	0
2	42495	14.41	0
2	42816	14.51	0
2	43137	14.61	0
2	43458	14.71	0
2	43779	14.81	0
2	44100	14.91	0
2	44427	15.01	0
2	44748	15.11	0
2	45069	15.21	0
2	45390	15.31	0
2	45711	15.41	0
2	46032	15.51	0
2	46353	15.61	0
2	46674	15.71	0
2	46995	15.81	0
2	47316	15.91	0
2	47643	16.01	0
2	47964	16.11	0
2	48285	16.21	0
2	48606	16.31	0
2	48927	16.41	0
2	49248	16.51	0
2	49569	16.61	0
2	49890	16.71	0
2	50211	16.81	0
2	50532	16.91	0
2	50859	17.01	0
2	51180	17.11	0
2	51501	17.21	0
2	51822	17.31	0
2	52143	17.41	0
2	52464	17.51	0
2	52785	17.61	0
2	53106	17.71	0
2	53427	17.81	0
2	53748	17.91	0
2	54075	18.01	0
2	54396	18.11	0
2	54717	18.21	0
2	55038	18.31	0
2	55359	18.41	0
2	55680	18.51	0
2	56001	18.61	0
2	56322	18.71	0
2	56643	18.81	0
2	56964	18.91	0
2	57291	19.01	0
2	57612	19.11	0
2	57933	19.21	0
2	58254	19.31	0
2	58575	19.41	0
2	58896	19.51	0
2	59217	19.61	0
2	59538	19.71	0
2	59859	19.81	0
2	60180	19.91	0
2	60507	20.01	0
2	60828	20.11	0
2	61149	20.21	0
2	61470	20.31	0
2	61791	20.41	0
2	62112	20.51	0
2	62433	20.61	0
2	62754	20.71	0
2	63075	20.81	0
2	63396	20.91	0
2	63723	21.01	0
2	64044	21.11	0
2	64365	21.21	0
2	64686	21.31	0
2	65007	21.41	0
2	65328	21.51	0
2	65649	21.61	0
2	65970	21.71	0
2	66291	21.81	0
2	66612	21.91	0
2	66939	22.01	0
2	67260	22.11	0
2	67581	22.21	0
2	67902	22.31	0
2	68223	22.41	0
2	68544	22.51	0
2	68865	22.61	0
2	69186	22.71	0
2	69507	22.81	0
2	69828	22.91	0
2	70155	23.01	0
2	70476	23.11	0
2	70797	23.21	0
2	71118	23.31	0
2	71439	23.41	0
2	71760	23.51	0
2	72081	23.61	0
2	72402	23.71	0
2	72723	23.81	0
2	73044	23.91	0
2	73371	24.01	0
2	73692	24.11	0
2	74013	24.21	0
2	74334	24.31	0
2	74655	24.41	0
2	74976	24.51	0
2	75297	24.61	0
2	75618	24.71	0
2	75939	24.81	0
2	76260	24.91	0
2	76587	25.01	0
2	76908	25.11	0
2	77229	25.21	0
2	77550	25.31	0
2	77871	25.41	0
2	78192	25.51	0
2	78513	25.61	0
2	78834	25.71	0
2	79155	25.81	0
2	79476	25.91	0
2	79803	26.01	0
2	80124	26.11	0
2	80445	26.21	0
2	80766	26.31	0
2	81087	26.41	0
2	81408	26.51	0
2	81729	26.61	0
2	82050	26.71	0
2	82371	26.81	0
2	82692	26.91	0
2	83019	27.01	0
2	83340	27.11	0
2	83661	27.21	0
2	83982	27.31	0
2	84303	27.41	0
2	84624	27.51	0
2	84945	27.61	0
2	85266	27.71	0
2	85587	27.81	0
2	85908	27.91	0
2	86235	28.01	0
2	86556	28.11	0
2	86877	28.21	0
2	87198	28.31	0
2	87519	28.41	0
2	87840	28.51	0
2	88161	28.61	0
2	88482	28.71	0
2	88803	28.81	0
2	89124	28.91	0
2	89451	29.01	0
2	89772	29.11	0
2	90093	29.21	0
2	90487	29.31	0
2	90807	29.41	0
2	91127	29.51	0
2	91447	29.61	0
2	91767	29.71	0
2	92087	29.81	0
2	92407	29.91	0
2	92733	30.01	0
2	93053	30.11	0
2	93373	30.21	0
2	93693	30.31	0
2	94013	30.41	0
2	94333	30.51	0
2	94653	30.61	0
2	94973	30.71	0
2	95293	30.81	0
2	95613	30.91	0
2	95939	31.01	0
2	96259	31.11	0
2	96579	31.21	0
2	96899	31.31	0
2	97219	31.41	0
2	97539	31.51	0
2	97859	31.61	0
2	98179	31.71	0
2	98499	31.81	0
2	98819	31.91	0
2	99145	32.01	0
2	99465	32.11	0
2	99785	32.21	0
2	100105	32.31	0
2	100425	32.41	0
2	100745	32.51	0
2	101065	32.61	0
2	101385	32.71	0
2	101705	32.81	0
2	102025	32.91	0
2	102351	33.01	0
2	102671	33.11	0
2	102991	33.21	0
2	103311	33.31	0
2	103631	33.41	0
2	104024	33.51	0
2	104343	33.61	0
2	104662	33.71	0
2	104981	33.81	0
2	105300	33.91	0
2	105625	34.01	0
2	105944	34.11	0
2	106263	34.21	0
2	106582	34.31	0
2	106901	34.41	0
2	107220	34.51	0
2	107539	34.61	0
2	107858	34.71	0
2	108177	34.81	0
2	108496	34.91	0
2	108821	35.01	0
2	109140	35.11	0
2	109459	35.21	0
2	109778	35.31	0
2	110097	35.41	0
2	110416	35.51	0
2	110735	35.61	0
2	111054	35.71	0
2	111373	35.81	0
2	111692	35.91	0
2	112017	36.01	0
2	112336	36.11	0
2	112655	36.21	0
2	112974	36.31	0
2	113293	36.41	0
2	113612	36.51	0
2	113931	36.61	0
2	114250	36.71	0
2	114569	36.81	0
2	114888	36.91	0
2	115213	37.01	0
2	115532	37.11	0
2	115851	37.21	0
2	116170	37.31	0
2	116489	37.41	0
2	116881	37.51	0
2	117199	37.61	0
2	117517	37.71	0
2	117835	37.81	0
2	118153	37.91	0
2	118477	38.01	0
2	118795	38.11	0
2	119113	38.21	0
2	119431	38.31	0
2	119749	38.41	0
2	120067	38.51	0
2	120385	38.61	0
2	120703	38.71	0
2	121021	38.81	0
2	121339	38.91	0
2	121663	39.01	0
2	121981	39.11	0
2	122299	39.21	0
2	122617	39.31	0
2	122935	39.41	0
2	123253	39.51	0
2	123571	39.61	0
2	123889	39.71	0
2	124207	39.81	0
2	124525	39.91	0
2	124849	40.01	0
2	125167	40.11	0
2	125485	40.21	0
2	125803	40.31	0
2	126121	40.41	0
2	126439	40.51	0
2	126757	40.61	0
2	127075	40.71	0
2	127393	40.81	0
2	127711	40.91	0
2	128035	41.01	0
2	128353	41.11	0
2	128671	41.21	0
2	129062	41.31	0
2	129379	41.41	0
2	129696	41.51	0
2	130013	41.61	0
2	130330	41.71	0
2	130647	41.81	0
2	130964	41.91	0
2	131287	42.01	0
2	131604	42.11	0
2	131921	42.21	0
2	132238	42.31	0
2	132555	42.41	0
2	132872	42.51	0
2	133189	42.61	0
2	133506	42.71	0
2	133823	42.81	0
2	134140	42.91	0
2	134463	43.01	0
2	134780	43.11	0
2	135097	43.21	0
2	135414	43.31	0
2	135731	43.41	0
2	136048	43.51	0
2	136365	43.61	0
2	136682	43.71	0
2	136999	43.81	0
2	137316	43.91	0
2	137639	44.01	0
2	137956	44.11	0
2	138273	44.21	0
2	138590	44.31	0
2	138907	44.41	0
2	139224	44.51	0
2	139541	44.61	0
2	139858	44.71	0
2	140175	44.81	0
2	140492	44.91	0
2	141253	45.01	0
2	141569	45.11	0
2	141885	45.21	0
2	142201	45.31	0
2	142517	45.41	0
2	142833	45.51	0
2	143149	45.61	0
2	143465	45.71	0
2	143781	45.81	0
2	144097	45.91	0
2	144419	46.01	0
2	144735	46.11	0
2	145051	46.21	0
2	145367	46.31	0
2	145683	46.41	0
2	145999	46.51	0
2	146315	46.61	0
2	146631	46.71	0
2	146947	46.81	0
2	147263	46.91	0
2	147585	47.01	0
2	147901	47.11	0
2	148217	47.21	0
2	148533	47.31	0
2	148849	47.41	0
2	149165	47.51	0
2	149481	47.61	0
2	149797	47.71	0
2	150113	47.81	0
2	150429	47.91	0
2	150751	48.01	0
2	151067	48.11	0
2	151383	48.21	0
2	151699	48.31	0
2	152015	48.41	0
2	152331	48.51	0
2	152647	48.61	0
2	152963	48.71	0
2	153279	48.81	0
2	153595	48.91	0
2	153917	49.01	0
2	154233	49.11	0
2	154549	49.21	0
2	154865	49.31	0
2	155181	49.41	0
2	155497	49.51	0
2	155813	49.61	0
2	156129	49.71	0
2	156445	49.81	0
2	156761	49.91	0
2	157083	50.01	0
2	157399	50.11	0
2	157715	50.21	0
2	158031	50.31	0
2	158347	50.41	0
2	158663	50.51	0
2	158979	50.61	0
2	159295	50.71	0
2	159611	50.81	0
2	159927	50.91	0
2	160249	51.01	0
2	160565	51.11	0
2	160881	51.21	0
2	161197	51.31	0
2	161513	51.41	0
2	161829	51.51	0
2	162145	51.61	0
2	162461	51.71	0
2	162777	51.81	0
2	163093	51.91	0
2	163415	52.01	0
2	163731	52.11	0
2	164047	52.21	0
2	164363	52.31	0
2	164679	52.41	0
2	164995	52.51	0
2	165311	52.61	0
2	165627	52.71	0
2	165943	52.81	0
2	166259	52.91	0
2	166581	53.01	0
2	166897	53.11	0
2	167213	53.21	0
2	167529	53.31	0
2	167845	53.41	0
2	168161	53.51	0
2	168477	53.61	0
2	168793	53.71	0
2	169109	53.81	0
2	169425	53.91	0
2	169747	54.01	0
2	170063	54.11	0
2	170379	54.21	0
2	170695	54.31	0
2	171011	54.41	0
2	171327	54.51	0
2	171643	54.61	0
2	171959	54.71	0
2	172275	54.81	0
2	172591	54.91	0
2	172913	55.01	0
2	173229	55.11	0
2	173545	55.21	0
2	173861	55.31	0
2	174177	55.41	0
2	174493	55.51	0
2	174809	55.61	0
2	175125	55.71	0
2	175441	55.81	0
2	175757	55.91	0
2	176079	56.01	0
2	176395	56.11	0
2	176711	56.21	0
2	177027	56.31	0
2	177343	56.41	0
2	177659	56.51	0
2	177975	56.61	0
2	178291	56.71	0
2	178607	56.81	0
2	178923	56.91	0
2	179245	57.01	0
2	179561	57.11	0
2	179877	57.21	0
2	180193	57.31	0
2	180509	57.41	0
2	180825	57.51	0
2	181141	57.61	0
2	181457	57.71	0
2	181773	57.81	0
2	182089	57.91	0
2	182411	58.01	0
2	182727	58.11	0
2	183043	58.21	0
2	183359	58.31	0
2	183675	58.41	0
2	183991	58.51	0
2	184307	58.61	0
2	184623	58.71	0
2	184939	58.81	0
2	185255	58.91	0
2	185577	59.01	0
2	185893	59.11	0
2	186209	59.21	0
2	186525	59.31	0
2	186841	59.41	0
2	187157	59.51	0
2	187473	59.61	0
2	187789	59.71	0
2	188105	59.81	0
2	188421	59.91	0
2	188743	60.01	0
2	189059	60.11	0
2	189375	60.21	0
2	189691	60.31	0
2	190007	60.41	0
2	190323	60.51	0
2	190639	60.61	0
2	190955	60.71	0
2	191271	60.81	0
2	191587	60.91	0
2	191909	61.01	0
2	192225	61.11	0
2	192541	61.21	0
2	192857	61.31	0
2	193173	61.41	0
2	193489	61.51	0
2	193805	61.61	0
2	194121	61.71	0
2	194437	61.81	0
2	194753	61.91	0
2	195075	62.01	0
2	195391	62.11	0
2	195707	62.21	0
2	196023	62.31	0
2	196339	62.41	0
2	196655	62.51	0
2	196971	62.61	0
2	197287	62.71	0
2	197603	62.81	0
2	197919	62.91	0
2	198241	63.01	0
2	198557	63.11	0
2	198873	63.21	0
2	199189	63.31	0
2	199505	63.41	0
2	199821	63.51	0
2	200137	63.61	0
2	200453	63.71	0
2	200769	63.81	0
2	201085	63.91	0
2	201407	64.01	0
2	201723	64.11	0
2	202039	64.21	0
2	202355	64.31	0
2	202671	64.41	0
2	202987	64.51	0
2	203303	64.61	0
2	203619	64.71	0
2	203935	64.81	0
2	204251	64.91	0
2	204573	65.01	0
2	204889	65.11	0
2	205205	65.21	0
2	205521	65.31	0
2	205837	65.41	0
2	206153	65.51	0
2	206469	65.61	0
2	206785	65.71	0
2	207101	65.81	0
2	207417	65.91	0
2	207739	66.01	0
2	208055	66.11	0
2	208371	66.21	0
2	208687	66.31	0
2	209003	66.41	0
2	209319	66.51	0
2	209635	66.61	0
2	209951	66.71	0
2	210267	66.81	0
2	210583	66.91	0
2	210905	67.01	0
2	211221	67.11	0
2	211537	67.21	0
2	211853	67.31	0
2	212169	67.41	0
2	212485	67.51	0
2	212801	67.61	0
2	213117	67.71	0
2	213433	67.81	0
2	213749	67.91	0
2	214071	68.01	0
2	214387	68.11	0
2	214703	68.21	0
2	215019	68.31	0
2	215335	68.41	0
2	215651	68.51	0
2	215967	68.61	0
2	216283	68.71	0
2	216599	68.81	0
2	216915	68.91	0
2	217237	69.01	0
2	217553	69.11	0
2	217869	69.21	0
2	218185	69.31	0
2	218501	69.41	0
2	218817	69.51	0
2	219133	69.61	0
2	219449	69.71	0
2	219765	69.81	0
2	220081	69.91	0
2	220403	70.01	0
2	220719	70.11	0
2	221035	70.21	0
2	221351	70.31	0
2	221667	70.41	0
2	221983	70.51	0
2	222299	70.61	0
2	222615	70.71	0
2	222931	70.81	0
2	223247	70.91	0
2	223569	71.01	0
2	223885	71.11	0
2	224201	71.21	0
2	224517	71.31	0
2	224833	71.41	0
2	225149	71.51	0
2	225465	71.61	0
2	225781	71.71	0
2	226097	71.81	0
2	226413	71.91	0
2	226735	72.01	0
2	227051	72.11	0
2	227367	72.21	0
2	227683	72.31	0
2	227999	72.41	0
2	228315	72.51	0
2	228631	72.61	0
2	228947	72.71	0
2	229263	72.81	0
2	229579	72.91	0
2	229901	73.01	0
2	230217	73.11	0
2	230533	73.21	0
2	230849	73.31	0
2	231165	73.41	0
2	231481	73.51	0
2	231797	73.61	0
2	232113	73.71	0
2	232429	73.81	0
2	232745	73.91	0
2	233067	74.01	0
2	233383	74.11	0
2	233699	74.21	0
2	234015	74.31	0
2	234331	74.41	0
2	234647	74.51	0
2	234963	74.61	0
2	235279	74.71	0
2	235595	74.81	0
2	235911	74.91	0
2	236233	75.01	0
2	236549	75.11	0
2	236865	75.21	0
2	237181	75.31	0
2	237497	75.41	0
2	237813	75.51	0
2	238129	75.61	0
2	238445	75.71	0
2	238761	75.81	0
2	239077	75.91	0
2	239399	76.01	0
2	239715	76.11	0
2	240031	76.21	0
2	240347	76.31	0
2	240663	76.41	0
2	240979	76.51	0
2	241295	76.61	0
2	241611	76.71	0
2	241927	76.81	0
2	242243	76.91	0
2	242565	77.01	0
2	242881	77.11	0
2	243197	77.21	0
2	243513	77.31	0
2	243829	77.41	0
2	244145	77.51	0
2	244461	77.61	0
2	244777	77.71	0
2	245093	77.81	0
2	245409	77.91	0
2	245731	78.01	0
2	246047	78.11	0
2	246363	78.21	0
2	246679	78.31	0
2	246995	78.41	0
2	247311	78.51	0
2	247627	78.61	0
2	247943	78.71	0
2	248259	78.81	0
2	248575	78.91	0
2	248897	79.01	0
2	249213	79.11	0
2	249529	79.21	0
2	249845	79.31	0
2	250161	79.41	0
2	250477	79.51	0
2	250793	79.61	0
2	251109	79.71	0
2	251425	79.81	0
2	251741	79.91	0
2	252063	80.01	0
2	252379	80.11	0
2	252695	80.21	0
2	253011	80.31	0
2	253327	80.41	0
2	253643	80.51	0
2	253959	80.61	0
2	254275	80.71	0
2	254591	80.81	0
2	254907	80.91	0
2	255229	81.01	0
2	255545	81.11	0
2	255861	81.21	0
2	256177	81.31	0
2	256493	81.41	0
2	256809	81.51	0
2	257125	81.61	0
2	257441	81.71	0
2	257757	81.81	0
2	258073	81.91	0
2	258395	82.01	0
2	258711	82.11	0
2	259027	82.21	0
2	259343	82.31	0
2	259659	82.41	0
2	259975	82.51	0
2	260291	82.61	0
2	260607	82.71	0
2	260923	82.81	0
2	261239	82.91	0
2	261561	83.01	0
2	261877	83.11	0
2	262193	83.21	0
2	262509	83.31	0
2	262825	83.41	0
2	263141	83.51	0
2	263457	83.61	0
2	263773	83.71	0
2	264089	83.81	0
2	264405	83.91	0
2	264727	84.01	0
2	265043	84.11	0
2	265359	84.21	0
2	265675	84.31	0
2	265991	84.41	0
2	266307	84.51	0
2	266623	84.61	0
2	266939	84.71	0
2	267255	84.81	0
2	267571	84.91	0
2	267893	85.01	0
2	268209	85.11	0
2	268525	85.21	0
2	268841	85.31	0
2	269157	85.41	0
2	269473	85.51	0
2	269789	85.61	0
2	270105	85.71	0
2	270421	85.81	0
2	270737	85.91	0
2	271059	86.01	0
2	271375	86.11	0
2	271691	86.21	0
2	272007	86.31	0
2	272323	86.41	0
2	272639	86.51	0
2	272955	86.61	0
2	273271	86.71	0
2	273587	86.81	0
2	273903	86.91	0
2	274225	87.01	0
2	274541	87.11	0
2	274857	87.21	0
2	275173	87.31	0
2	275489	87.41	0
2	275805	87.51	0
2	276121	87.61	0
2	276437	87.71	0
2	276753	87.81	0
2	277069	87.91	0
2	277391	88.01	0
2	277707	88.11	0
2	278023	88.21	0
2	278339	88.31	0
2	278655	88.41	0
2	278971	88.51	0
2	279287	88.61	0
2	279603	88.71	0
2	279919	88.81	0
2	280235	88.91	0
2	280557	89.01	0
2	280873	89.11	0
2	281189	89.21	0
2	281505	89.31	0
2	281821	89.41	0
2	282137	89.51	0
2	282453	89.61	0
2	282769	89.71	0
2	283085	89.81	0
2	283401	89.91	0
2	283723	90.01	0
2	284039	90.11	0
2	284355	90.21	0
2	284671	90.31	0
2	284987	90.41	0
2	285303	90.51	0
2	285619	90.61	0
2	285935	90.71	0
2	286251	90.81	0
2	286567	90.91	0
2	286889	91.01	0
2	287205	91.11	0
2	287521	91.21	0
2	287837	91.31	0
2	288153	91.41	0
2	288469	91.51	0
2	288785	91.61	0
2	289101	91.71	0
2	289417	91.81	0
2	289733	91.91	0
2	290055	92.01	0
2	290371	92.11	0
2	290687	92.21	0
2	291003	92.31	0
2	291319	92.41	0
2	291635	92.51	0
2	291951	92.61	0
2	292267	92.71	0
2	292583	92.81	0
2	292899	92.91	0
2	293221	93.01	0
2	293537	93.11	0
2	293853	93.21	0
2	294169	93.31	0
2	294485	93.41	0
2	294801	93.51	0
2	295117	93.61	0
2	295433	93.71	0
2	295749	93.81	0
2	296065	93.91	0
2	296387	94.01	0
2	296703	94.11	0
2	297019	94.21	0
2	297335	94.31	0
2	297651	94.41	0
2	297967	94.51	0
2	298283	94.61	0
2	298599	94.71	0
2	298915	94.81	0
2	299231	94.91	0
2	299553	95.01	0
2	299869	95.11	0
2	300185	95.21	0
2	300501	95.31	0
2	300817	95.41	0
2	301133	95.51	0
2	301449	95.61	0
2	301765	95.71	0
2	302081	95.81	0
2	302397	95.91	0
2	302719	96.01	0
2	303035	96.11	0
2	303351	96.21	0
2	303667	96.31	0
2	303983	96.41	0
2	304299	96.51	0
2	304615	96.61	0
2	304931	96.71	0
2	305247	96.81	0
2	305563	96.91	0
2	305885	97.01	0
2	306201	97.11	0
2	306517	97.21	0
2	306833	97.31	0
2	307149	97.41	0
2	307465	97.51	0
2	307781	97.61	0
2	308097	97.71	0
2	308413	97.81	0
2	308729	97.91	0
2	309051	98.01	0
2	309367	98.11	0
2	309683	98.21	0
2	309999	98.31	0
2	310315	98.41	0
2	310631	98.51	0
2	310947	98.61	0
2	311263	98.71	0
2	311579	98.81	0
2	311895	98.91	0
2	312217	99.01	0
2	312533	99.11	0
2	312849	99.21	0
2	313165	99.31	0
2	313481	99.41	0
2	313797	99.51	0
2	314113	99.61	0
2	314429	99.71	0
2	314745	99.81	0
2	315061	99.91	0
3	113	1.11	0.000179096
3	429	1.21	0.000340852
3	745	1.31	0.000467435
3	1061	1.41	0.000562893
3	1377	1.51	0.000631106
3	1693	1.61	0.000675745
3	2009	1.71	0.000700245
3	2325	1.81	0.000707784
3	2641	1.91	0.000701273
3	2963	2.01	0.000683354
3	3279	2.11	0.000656398
3	3595	2.21	0.000622512
3	3911	2.31	0.000583548
3	4227	2.41	0.000541117
3	4543	2.51	0.000496604
3	4859	2.61	0.000451181
3	5175	2.71	0.000405825
3	5491	2.81	0.00036134
3	5807	2.91	0.000318365
3	6129	3.01	0.0002774
3	6445	3.11	0.00023882
3	6761	3.21	0.000202887
3	7077	3.31	0.00016977
3	7393	3.41	0.000139558
3	7709	3.51	0.000112271
3	8025	3.61	8.78717e-05
3	8341	3.71	6.628e-05
3	8657	3.81	4.73785e-05
3	8973	3.91	3.1023e-05
3	9295	4.01	1.70493e-05
3	9611	4.11	5.28023e-06
3	9927	4.21	-4.46922e-06
3	10243	4.31	-1.2387e-05
3	10559	4.41	-1.86602e-05
3	10875	4.51	-2.34717e-05
3	11191	4.61	-2.69978e-05
3	11507	4.71	-2.94062e-05
3	11823	4.81	-3.08545e-05
3	12139	4.91	-3.14892e-05
3	12461	5.01	-3.14451e-05
3	12777	5.11	-3.0845e-05
3	13093	5.21	-2.97994e-05
3	13409	5.31	-2.84072e-05
3	13725	5.41	-2.67556e-05
3	14041	5.51	-2.49208e-05
3	14357	5.61	-2.29687e-05
3	14673	5.71	-2.09553e-05
3	14989	5.81	-1.89277e-05
3	15305	5.91	-1.6925e-05
3	15627	6.01	-1.49784e-05
3	15943	6.11	-1.31129e-05
3	16259	6.21	-1.13474e-05
3	16575	6.31	-9.69553e-06
3	16891	6.41	-8.16651e-06
3	17207	6.51	-6.76571e-06
3	17523	6.61	-5.49522e-06
3	17839	6.71	-4.35441e-06
3	18155	6.81	-3.34045e-06
3	18471	6.91	-2.44874e-06
3	18793	7.01	-1.6733e-06
3	19109	7.11	-1.00716e-06
3	19425	7.21	-4.42628e-07
3	19741	7.31	2.84224e-08
3	20057	7.41	4.14339e-07
3	20373	7.51	7.23492e-07
3	20689	7.61	9.6413e-07
3	21005	7.71	1.14424e-06
3	21321	7.81	1.27148e-06
3	21637	7.91	1.35305e-06
3	21959	8.01	1.3957e-06
3	22275	8.11	1.40565e-06
3	22591	8.21	1.3886e-06
3	22907	8.31	1.34971e-06
3	23223	8.41	1.2936e-06
3	23539	8.51	1.22437e-06
3	23855	8.61	1.14561e-06
3	24171	8.71	1.06046e-06
3	24487	8.81	9.71582e-07
3	24803	8.91	8.81246e-07
3	25125	9.01	7.91334e-07
3	25441	9.11	7.03381e-07
3	25757	9.21	6.18613e-07
3	26073	9.31	5.37979e-07
3	26389	9.41	4.62183e-07
3	26705	9.51	3.91714e-07
3	27021	9.61	3.26878e-07
3	27337	9.71	2.67827e-07
3	27653	9.81	2.14581e-07
3	27969	9.91	1.67052e-07
3	28347	10.01	1.25066e-07
3	28668	10.11	8.83794e-08
3	28989	10.21	5.66978e-08
3	29310	10.31	2.96922e-08
3	29631	10.41	7.00453e-09
3	29952	10.51	-1.17325e-08
3	30273	10.61	-2.68933e-08
3	30594	10.71	-3.88482e-08
3	30915	10.81	-4.79581e-08
3	31236	10.91	-5.45704e-08
3	31563	11.01	-5.90177e-08
3	31884	11.11	-6.16069e-08
3	32205	11.21	-6.26265e-08
3	32526	11.31	-6.23395e-08
3	32847	11.41	-6.09859e-08
3	33168	11.51	-5.87811e-08
3	33489	11.61	-5.59183e-08
3	33810	11.71	-5.25674e-08
3	34131	11.81	-4.88761e-08
3	34452	11.91	-4.4971e-08
3	34779	12.01	-4.09599e-08
3	35100	12.11	-3.69354e-08
3	35421	12.21	-3.29713e-08
3	35742	12.31	-2.9128e-08
3	36063	12.41	-2.54531e-08
3	36384	12.51	-2.19821e-08
3	36705	12.61	-1.87399e-08
3	37026	12.71	-1.57428e-08
3	37347	12.81	-1.30029e-08
3	37668	12.91	-1.05217e-08
3	37995	13.01	-8.29772e-09
3	38316	13.11	-6.32454e-09
3	38637	13.21	-4.59224e-09
3	38958	13.31	-3.08802e-09
3	39279	13.41	-1.79838e-09
3	39600	13.51	-7.08411e-10
3	39921	13.61	1.98241e-10
3	40242	13.71	9.37916e-10
3	40563	13.81	1.52767e-09
3	40884	13.91	1.98384e-09
3	41211	14.01	2.32276e-09
3	41532	14.11	2.55937e-09
3	41853	14.21	2.70788e-09
3	42174	14.31	2.78249e-09
3	42495	14.41	2.79243e-09
3	42816	14.51	2.7498e-09
3	43137	14.61	2.66525e-09
3	43458	14.71	2.54872e-09
3	43779	14.81	2.40803e-09
3	44100	14.91	2.24887e-09
3	44427	15.01	2.07763e-09
3	44748	15.11	1.89999e-09
3	45069	15.21	1.72236e-09
3	45390	15.31	1.54472e-09
3	45711	15.41	1.37064e-09
3	46032	15.51	1.20295e-09
3	46353	15.61	1.04379e-09
3	46674	15.71	8.94573e-10
3	46995	15.81	7.56017e-10
3	47316	15.91	6.29541e-10
3	47643	16.01	5.13012e-10
3	47964	16.11	4.09273e-10
3	48285	16.21	3.16902e-10
3	48606	16.31	2.3519e-10
3	48927	16.41	1.63425e-10
3	49248	16.51	1.02318e-10
3	49569	16.61	4.9738e-11
3	49890	16.71	5.68434e-12
3	50211	16.81	-3.05533e-11
3	50532	16.91	-5.8975e-11
3	50859	17.01	-8.10019e-11
3	51180	17.11	-9.80549e-11
3	51501	17.21	-1.11555e-10
3	51822	17.31	-1.18661e-10
3	52143	17.41	-1.23634e-10
3	52464	17.51	-1.23634e-10
3	52785	17.61	-1.23634e-10
3	53106	17.71	-1.21503e-10
3	53427	17.81	-1.14397e-10
3	53748	17.91	-1.07292e-10
3	54075	18.01	-1.00187e-10
3	54396	18.11	-9.30811e-11
3	54717	18.21	-8.59757e-11
3	55038	18.31	-7.88702e-11
3	55359	18.41	-7.17648e-11
3	55680	18.51	-6.46594e-11
3	56001	18.61	-5.7554e-11
3	56322	18.71	-5.04485e-11
3	56643	18.81	-4.33431e-11
3	56964	18.91	-3.62377e-11
3	57291	19.01	-2.91323e-11
3	57612	19.11	-2.20268e-11
3	57933	19.21	-1.7053e-11
3	58254	19.31	-1.49214e-11
3	58575	19.41	-1.35003e-11
3	58896	19.51	-1.27898e-11
3	59217	19.61	-1.13687e-11
3	59538	19.71	-9.9476e-12
3	59859	19.81	-9.23706e-12
3	60180	19.91	-8.52651e-12
3	60507	20.01	-7.81597e-12
3	60828	20.11	-7.10543e-12
3	61149	20.21	-6.39488e-12
3	61470	20.31	-5.68434e-12
3	61791	20.41	-4.9738e-12
3	62112	20.51	-4.26326e-12
3	62433	20.61	-4.26326e-12
3	62754	20.71	-3.55271e-12
3	63075	20.81	-3.55271e-12
3	63396	20.91	-2.84217e-12
3	63723	21.01	-2.84217e-12
3	64044	21.11	-2.84217e-12
3	64365	21.21	-2.13163e-12
3	64686	21.31	-2.13163e-12
3	65007	21.41	-2.13163e-12
3	65328	21.51	-1.42109e-12
3	65649	21.61	-1.42109e-12
3	65970	21.71	-1.42109e-12
3	66291	21.81	-1.42109e-12
3	66612	21.91	-1.42109e-12
3	66939	22.01	-7.10543e-13
3	67260	22.11	-7.10543e-13
3	67581	22.21	-7.10543e-13
3	67902	22.31	-7.10543e-13
3	68223	22.41	-7.10543e-13
3	68544	22.51	-7.10543e-13
3	68865	22.61	-7.10543e-13
3	69186	22.71	-7.10543e-13
3	69507	22.81	-7.10543e-13
3	69828	22.91	-7.10543e-13
3	70155	23.01	0
3	70476	23.11	0
3	70797	23.21	0
3	71118	23.31	0
3	71439	23.41	0
3	71760	23.51	0
3	72081	23.61	0
3	72402	23.71	0
3	72723	23.81	0
3	73044	23.91	0
3	73371	24.01	0
3	73692	24.11	0
3	74013	24.21	0
3	74334	24.31	0
3	74655	24.41	0
3	74976	24.51	0
3	75297	24.61	0
3	75618	24.71	0
3	75939	24.81	0
3	76260	24.91	0
3	76587	25.01	0
3	76908	25.11	0
3	77229	25.21	0
3	77550	25.31	0
3	77871	25.41	0
3	78192	25.51	0
3	78513	25.61	0
3	78834	25.71	0
3	79155	25.81	0
3	79476	25.91	0
3	79803	26.01	0
3	80124	26.11	0
3	80445	26.21	0
3	80766	26.31	0
3	81087	26.41	0
3	81408	26.51	0
3	81729	26.61	0
3	82050	26.71	0
3	82371	26.81	0
3	82692	26.91	0
3	83019	27.01	0
3	83340	27.11	0
3	83661	27.21	0
3	83982	27.31	0
3	84303	27.41	0
3	84624	27.51	0
3	84945	27.61	0
3	85266	27.71	0
3	85587	27.81	0
3	85908	27.91	0
3	86235	28.01	0
3	86556	28.11	0
3	86877	28.21	0
3	87198	28.31	0
3	87519	28.41	0
3	87840	28.51	0
3	88161	28.61	0
3	88482	28.71	0
3	88803	28.81	0
3	89124	28.91	0
3	89451	29.01	0
3	89772	29.11	0
3	90093	29.21	0
3	90487	29.31	0
3	90807	29.41	0
3	91127	29.51	0
3	91447	29.61	0
3	91767	29.71	0
3	92087	29.81	0
3	92407	29.91	0
3	92733	30.01	0
3	93053	30.11	0
3	93373	30.21	0
3	93693	30.31	0
3	94013	30.41	0
3	94333	30.51	0
3	94653	30.61	0
3	94973	30.71	0
3	95293	30.81	0
3	95613	30.91	0
3	95939	31.01	0
3	96259	31.11	0
3	96579	31.21	0
3	96899	31.31	0
3	97219	31.41	0
3	97539	31.51	0
3	97859	31.61	0
3	98179	31.71	0
3	98499	31.81	0
3	98819	31.91	0
3	99145	32.01	0
3	99465	32.11	0
3	99785	32.21	0
3	100105	32.31	0
3	100425	32.41	0
3	100745	32.51	0
3	101065	32.61	0
3	101385	32.71	0
3	101705	32.81	0
3	102025	32.91	0
3	102351	33.01	0
3	102671	33.11	0
3	102991	33.21	0
3	103311	33.31	0
3	103631	33.41	0
3	104024	33.51	0
3	104343	33.61	0
3	104662	33.71	0
3	104981	33.81	0
3	105300	33.91	0
3	105625	34.01	0
3	105944	34.11	0
3	106263	34.21	0
3	106582	34.31	0
3	106901	34.41	0
3	107220	34.51	0
3	107539	34.61	0
3	107858	34.71	0
3	108177	34.81	0
3	108496	34.91	0
3	108821	35.01	0
3	109140	35.11	0
3	109459	35.21	0
3	109778	35.31	0
3	110097	35.41	0
3	110416	35.51	0
3	110735	35.61	0
3	111054	35.71	0
3	111373	35.81	0
3	111692	35.91	0
3	112017	36.01	0
3	112336	36.11	0
3	112655	36.21	0
3	112974	36.31	0
3	113293	36.41	0
3	113612	36.51	0
3	113931	36.61	0
3	114250	36.71	0
3	114569	36.81	0
3	114888	36.91	0
3	115213	37.01	0
3	115532	37.11	0
3	115851	37.21	0
3	116170	37.31	0
3	116489	37.41	0
3	116881	37.51	0
3	117199	37.61	0
3	117517	37.71	0
3	117835	37.81	0
3	118153	37.91	0
3	118477	38.01	0
3	118795	38.11	0
3	119113	38.21	0
3	119431	38.31	0
3	119749	38.41	0
3	120067	38.51	0
3	120385	38.61	0
3	120703	38.71	0
3	121021	38.81	0
3	121339	38.91	0
3	121663	39.01	0
3	121981	39.11	0
3	122299	39.21	0
3	122617	39.31	0
3	122935	39.41	0
3	123253	39.51	0
3	123571	39.61	0
3	123889	39.71	0
3	124207	39.81	0
3	124525	39.91	0
3	124849	40.01	0
3	125167	40.11	0
3	125485	40.21	0
3	125803	40.31	0
3	126121	40.41	0
3	126439	40.51	0
3	126757	40.61	0
3	127075	40.71	0
3	127393	40.81	0
3	127711	40.91	0
3	128035	41.01	0
3	128353	41.11	0
3	128671	41.21	0
3	129062	41.31	0
3	129379	41.41	0
3	129696	41.51	0
3	130013	41.61	0
3	130330	41.71	0
3	130647	41.81	0
3	130964	41.91	0
3	131287	42.01	0
3	131604	42.11	0
3	131921	42.21	0
3	132238	42.31	0
3	132555	42.41	0
3	132872	42.51	0
3	133189	42.61	0
3	133506	42.71	0
3	133823	42.81	0
3	134140	42.91	0
3	134463	43.01	0
3	134780	43.11	0
3	135097	43.21	0
3	135414	43.31	0
3	135731	43.41	0
3	136048	43.51	0
3	136365	43.61	0
3	136682	43.71	0
3	136999	43.81	0
3	137316	43.91	0
3	137639	44.01	0
3	137956	44.11	0
3	138273	44.21	0
3	138590	44.31	0
3	138907	44.41	0
3	139224	44.51	0
3	139541	44.61	0
3	139858	44.71	0
3	140175	44.81	0
3	140492	44.91	0
3	141253	45.01	0
3	141569	45.11	0
3	141885	45.21	0
3	142201	45.31	0
3	142517	45.41	0
3	142833	45.51	0
3	143149	45.61	0
3	143465	45.71	0
3	143781	45.81	0
3	144097	45.91	0
3	144419	46.01	0
3	144735	46.11	0
3	145051	46.21	0
3	145367	46.31	0
3	145683	46.41	0
3	145999	46.51	0
3	146315	46.61	0
3	146631	46.71	0
3	146947	46.81	0
3	147263	46.91	0
3	147585	47.01	0
3	147901	47.11	0
3	148217	47.21	0
3	148533	47.31	0
3	148849	47.41	0
3	149165	47.51	0
3	149481	47.61	0
3	149797	47.71	0
3	150113	47.81	0
3	150429	47.91	0
3	150751	48.01	0
3	151067	48.11	0
3	151383	48.21	0
3	151699	48.31	0
3	152015	48.41	0
3	152331	48.51	0
3	152647	48.61	0
3	152963	48.71	0
3	153279	48.81	0
3	153595	48.91	0
3	153917	49.01	0
3	154233	49.11	0
3	154549	49.21	0
3	154865	49.31	0
3	155181	49.41	0
3	155497	49.51	0
3	155813	49.61	0
3	156129	49.71	0
3	156445	49.81	0
3	156761	49.91	0
3	157083	50.01	0
3	157399	50.11	0
3	157715	50.21	0
3	158031	50.31	0
3	158347	50.41	0
3	158663	50.51	0
3	158979	50.61	0
3	159295	50.71	0
3	159611	50.81	0
3	159927	50.91	0
3	160249	51.01	0
3	160565	51.11	0
3	160881	51.21	0
3	161197	51.31	0
3	161513	51.41	0
3	161829	51.51	0
3	162145	51.61	0
3	162461	51.71	0
3	162777	51.81	0
3	163093	51.91	0
3	163415	52.01	0
3	163731	52.11	0
3	164047	52.21	0
3	164363	52.31	0
3	164679	52.41	0
3	164995	52.51	0
3	165311	52.61	0
3	165627	52.71	0
3	165943	52.81	0
3	166259	52.91	0
3	166581	53.01	0
3	166897	53.11	0
3	167213	53.21	0
3	167529	53.31	0
3	167845	53.41	0
3	168161	53.51	0
3	168477	53.61	0
3	168793	53.71	0
3	169109	53.81	0
3	169425	53.91	0
3	169747	54.01	0
3	170063	54.11	0
3	170379	54.21	0
3	170695	54.31	0
3	171011	54.41	0
3	171327	54.51	0
3	171643	54.61	0
3	171959	54.71	0
3	172275	54.81	0
3	172591	54.91	0
3	172913	55.01	0
3	173229	55.11	0
3	173545	55.21	0
3	173861	55.31	0
3	174177	55.41	0
3	174493	55.51	0
3	174809	55.61	0
3	175125	55.71	0
3	175441	55.81	0
3	175757	55.91	0
3	176079	56.01	0
3	176395	56.11	0
3	176711	56.21	0
3	177027	56.31	0
3	177343	56.41	0
3	177659	56.51	0
3	177975	56.61	0
3	178291	56.71	0
3	178607	56.81	0
3	178923	56.91	0
3	179245	57.01	0
3	179561	57.11	0
3	179877	57.21	0
3	180193	57.31	0
3	180509	57.41	0
3	180825	57.51	0
3	181141	57.61	0
3	181457	57.71	0
3	181773	57.81	0
3	182089	57.91	0
3	182411	58.01	0
3	182727	58.11	0
3	183043	58.21	0
3	183359	58.31	0
3	183675	58.41	0
3	183991	58.51	0
3	184307	58.61	0
3	184623	58.71	0
3	184939	58.81	0
3	185255	58.91	0
3	185577	59.01	0
3	185893	59.11	0
3	186209	59.21	0
3	186525	59.31	0
3	186841	59.41	0
3	187157	59.51	0
3	187473	59.61	0
3	187789	59.71	0
3	188105	59.81	0
3	188421	59.91	0
3	188743	60.01	0
3	189059	60.11	0
3	189375	60.21	0
3	189691	60.31	0
3	190007	60.41	0
3	190323	60.51	0
3	190639	60.61	0
3	190955	60.71	0
3	191271	60.81	0
3	191587	60.91	0
3	191909	61.01	0
3	192225	61.11	0
3	192541	61.21	0
3	192857	61.31	0
3	193173	61.41	0
3	193489	61.51	0
3	193805	61.61	0
3	194121	61.71	0
3	194437	61.81	0
3	194753	61.91	0
3	195075	62.01	0
3	195391	62.11	0
3	195707	62.21	0
3	196023	62.31	0
3	196339	62.41	0
3	196655	62.51	0
3	196971	62.61	0
3	197287	62.71	0
3	197603	62.81	0
3	197919	62.91	0
3	198241	63.01	0
3	198557	63.11	0
3	198873	63.21	0
3	199189	63.31	0
3	199505	63.41	0
3	199821	63.51	0
3	200137	63.61	0
3	200453	63.71	0
3	200769	63.81	0
3	201085	63.91	0
3	201407	64.01	0
3	201723	64.11	0
3	202039	64.21	0
3	202355	64.31	0
3	202671	64.41	0
3	202987	64.51	0
3	203303	64.61	0
3	203619	64.71	0
3	203935	64.81	0
3	204251	64.91	0
3	204573	65.01	0
3	204889	65.11	0
3	205205	65.21	0
3	205521	65.31	0
3	205837	65.41	0
3	206153	65.51	0
3	206469	65.61	0
3	206785	65.71	0
3	207101	65.81	0
3	207417	65.91	0
3	207739	66.01	0
3	208055	66.11	0
3	208371	66.21	0
3	208687	66.31	0
3	209003	66.41	0
3	209319	66.51	0
3	209635	66.61	0
3	209951	66.71	0
3	210267	66.81	0
3	210583	66.91	0
3	210905	67.01	0
3	211221	67.11	0
3	211537	67.21	0
3	211853	67.31	0
3	212169	67.41	0
3	212485	67.51	0
3	212801	67.61	0
3	213117	67.71	0
3	213433	67.81	0
3	213749	67.91	0
3	214071	68.01	0
3	214387	68.11	0
3	214703	68.21	0
3	215019	68.31	0
3	215335	68.41	0
3	215651	68.51	0
3	215967	68.61	0
3	216283	68.71	0
3	216599	68.81	0
3	216915	68.91	0
3	217237	69.01	0
3	217553	69.11	0
3	217869	69.21	0
3	218185	69.31	0
3	218501	69.41	0
3	218817	69.51	0
3	219133	69.61	0
3	219449	69.71	0
3	219765	69.81	0
3	220081	69.91	0
3	220403	70.01	0
3	220719	70.11	0
3	221035	70.21	0
3	221351	70.31	0
3	221667	70.41	0
3	221983	70.51	0
3	222299	70.61	0
3	222615	70.71	0
3	222931	70.81	0
3	223247	70.91	0
3	223569	71.01	0
3	223885	71.11	0
3	224201	71.21	0
3	224517	71.31	0
3	224833	71.41	0
3	225149	71.51	0
3	225465	71.61	0
3	225781	71.71	0
3	226097	71.81	0
3	226413	71.91	0
3	226735	72.01	0
3	227051	72.11	0
3	227367	72.21	0
3	227683	72.31	0
3	227999	72.41	0
3	228315	72.51	0
3	228631	72.61	0
3	228947	72.71	0
3	229263	72.81	0
3	229579	72.91	0
3	229901	73.01	0
3	230217	73.11	0
3	230533	73.21	0
3	230849	73.31	0
3	231165	73.41	0
3	231481	73.51	0
3	231797	73.61	0
3	232113	73.71	0
3	232429	73.81	0
3	232745	73.91	0
3	233067	74.01	0
3	233383	74.11	0
3	233699	74.21	0
3	234015	74.31	0
3	234331	74.41	0
3	234647	74.51	0
3	234963	74.61	0
3	235279	74.71	0
3	235595	74.81	0
3	235911	74.91	0
3	236233	75.01	0
3	236549	75.11	0
3	236865	75.21	0
3	237181	75.31	0
3	237497	75.41	0
3	237813	75.51	0
3	238129	75.61	0
3	238445	75.71	0
3	238761	75.81	0
3	239077	75.91	0
3	239399	76.01	0
3	239715	76.11	0
3	240031	76.21	0
3	240347	76.31	0
3	240663	76.41	0
3	240979	76.51	0
3	241295	76.61	0
3	241611	76.71	0
3	241927	76.81	0
3	242243	76.91	0
3	242565	77.01	0
3	242881	77.11	0
3	243197	77.21	0
3	243513	77.31	0
3	243829	77.41	0
3	244145	77.51	0
3	244461	77.61	0
3	244777	77.71	0
3	245093	77.81	0
3	245409	77.91	0
3	245731	78.01	0
3	246047	78.11	0
3	246363	78.21	0
3	246679	78.31	0
3	246995	78.41	0
3	247311	78.51	0
3	247627	78.61	0
3	247943	78.71	0
3	248259	78.81	0
3	248575	78.91	0
3	248897	79.01	0
3	249213	79.11	0
3	249529	79.21	0
3	249845	79.31	0
3	250161	79.41	0
3	250477	79.51	0
3	250793	79.61	0
3	251109	79.71	0
3	251425	79.81	0
3	251741	79.91	0
3	252063	80.01	0
3	252379	80.11	0
3	252695	80.21	0
3	253011	80.31	0
3	253327	80.41	0
3	253643	80.51	0
3	253959	80.61	0
3	254275	80.71	0
3	254591	80.81	0
3	254907	80.91	0
3	255229	81.01	0
3	255545	81.11	0
3	255861	81.21	0
3	256177	81.31	0
3	256493	81.41	0
3	256809	81.51	0
3	257125	81.61	0
3	257441	81.71	0
3	257757	81.81	0
3	258073	81.91	0
3	258395	82.01	0
3	258711	82.11	0
3	259027	82.21	0
3	259343	82.31	0
3	259659	82.41	0
3	259975	82.51	0
3	260291	82.61	0
3	260607	82.71	0
3	260923	82.81	0
3	261239	82.91	0
3	261561	83.01	0
3	261877	83.11	0
3	262193	83.21	0
3	262509	83.31	0
3	262825	83.41	0
3	263141	83.51	0
3	263457	83.61	0
3	263773	83.71	0
3	264089	83.81	0
3	264405	83.91	0
3	264727	84.01	0
3	265043	84.11	0
3	265359	84.21	0
3	265675	84.31	0
3	265991	84.41	0
3	266307	84.51	0
3	266623	84.61	0
3	266939	84.71	0
3	267255	84.81	0
3	267571	84.91	0
3	267893	85.01	0
3	268209	85.11	0
3	268525	85.21	0
3	268841	85.31	0
3	269157	85.41	0
3	269473	85.51	0
3	269789	85.61	0
3	270105	85.71	0
3	270421	85.81	0
3	270737	85.91	0
3	271059	86.01	0
3	271375	86.11	0
3	271691	86.21	0
3	272007	86.31	0
3	272323	86.41	0
3	272639	86.51	0
3	272955	86.61	0
3	273271	86.71	0
3	273587	86.81	0
3	273903	86.91	0
3	274225	87.01	0
3	274541	87.11	0
3	274857	87.21	0
3	275173	87.31	0
3	275489	87.41	0
3	275805	87.51	0
3	276121	87.61	0
3	276437	87.71	0
3	276753	87.81	0
3	277069	87.91	0
3	277391	88.01	0
3	277707	88.11	0
3	278023	88.21	0
3	278339	88.31	0
3	278655	88.41	0
3	278971	88.51	0
3	279287	88.61	0
3	279603	88.71	0
3	279919	88.81	0
3	280235	88.91	0
3	280557	89.01	0
3	280873	89.11	0
3	281189	89.21	0
3	281505	89.31	0
3	281821	89.41	0
3	282137	89.51	0
3	282453	89.61	0
3	282769	89.71	0
3	283085	89.81	0
3	283401	89.91	0
3	283723	90.01	0
3	284039	90.11	0
3	284355	90.21	0
3	284671	90.31	0
3	284987	90.41	0
3	285303	90.51	0
3	285619	90.61	0
3	285935	90.71	0
3	286251	90.81	0
3	286567	90.91	0
3	286889	91.01	0
3	287205	91.11	0
3	287521	91.21	0
3	287837	91.31	0
3	288153	91.41	0
3	288469	91.51	0
3	288785	91.61	0
3	289101	91.71	0
3	289417	91.81	0
3	289733	91.91	0
3	290055	92.01	0
3	290371	92.11	0
3	290687	92.21	0
3	291003	92.31	0
3	291319	92.41	0
3	291635	92.51	0
3	291951	92.61	0
3	292267	92.71	0
3	292583	92.81	0
3	292899	92.91	0
3	293221	93.01	0
3	293537	93.11	0
3	293853	93.21	0
3	294169	93.31	0
3	294485	93.41	0
3	294801	93.51	0
3	295117	93.61	0
3	295433	93.71	0
3	295749	93.81	0
3	296065	93.91	0
3	296387	94.01	0
3	296703	94.11	0
3	297019	94.21	0
3	297335	94.31	0
3	297651	94.41	0
3	297967	94.51	0
3	298283	94.61	0
3	298599	94.71	0
3	298915	94.81	0
3	299231	94.91	0
3	299553	95.01	0
3	299869	95.11	0
3	300185	95.21	0
3	300501	95.31	0
3	300817	95.41	0
3	301133	95.51	0
3	301449	95.61	0
3	301765	95.71	0
3	302081	95.81	0
3	302397	95.91	0
3	302719	96.01	0
3	303035	96.11	0
3	303351	96.21	0
3	303667	96.31	0
3	303983	96.41	0
3	304299	96.51	0
3	304615	96.61	0
3	304931	96.71	0
3	305247	96.81	0
3	305563	96.91	0
3	305885	97.01	0
3	306201	97.11	0
3	306517	97.21	0
3	306833	97.31	0
3	307149	97.41	0
3	307465	97.51	0
3	307781	97.61	0
3	308097	97.71	0
3	308413	97.81	0
3	308729	97.91	0
3	309051	98.01	0
3	309367	98.11	0
3	309683	98.21	0
3	309999	98.31	0
3	310315	98.41	0
3	310631	98.51	0
3	310947	98.61	0
3	311263	98.71	0
3	311579	98.81	0
3	311895	98.91	0
3	312217	99.01	0
3	312533	99.11	0
3	312849	99.21	0
3	313165	99.31	0
3	313481	99.41	0
3	313797	99.51	0
3	314113	99.61	0
3	314429	99.71	0
3	314745	99.81	0
3	315061	99.91	0
4	113	1.11	0.00109259
4	429	1.21	0.00106709
4	745	1.31	0.00102704
4	1061	1.41	0.000975759
4	1377	1.51	0.00091619
4	1693	1.61	0.000850891
4	2009	1.71	0.000782061
4	2325	1.81	0.00071157
4	2641	1.91	0.00064098
4	2963	2.01	0.000571575
4	3279	2.11	0.000504387
4	3595	2.21	0.000440223
4	3911	2.31	0.000379691
4	4227	2.41	0.000323223
4	4543	2.51	0.000271102
4	4859	2.61	0.000223482
[...]
73	267837	85	0
73	271003	86	0
73	274169	87	0
73	277335	88	0
73	280501	89	0
73	283667	90	0
73	286833	91	0
73	289999	92	0
73	293165	93	0
73	296331	94	0
73	299497	95	0
73	302663	96	0
73	305829	97	0
73	308995	98	0
73	312161	99	0
73	315327	100	0
74	2908	2	2
74	6074	3	2
74	9240	4	2
74	12406	5	2
74	15572	6	2
74	18738	7	2
74	21904	8	2
74	25070	9	2
74	28237	10	2
74	31503	11	2
74	34719	12	2
74	37935	13	2
74	41151	14	2
74	44367	15	2
74	47583	16	2
74	50799	17	2
74	54015	18	2
74	57231	19	2
74	60447	20	2
74	63663	21	2
74	66879	22	2
74	70095	23	2
74	73311	24	2
74	76527	25	2
74	79743	26	2
74	82959	27	2
74	86175	28	2
74	89391	29	2
74	92674	30	2
74	95880	31	2
74	99086	32	2
74	102292	33	2
74	105567	34	2
74	108763	35	2
74	111959	36	2
74	115155	37	2
74	118420	38	2
74	121606	39	2
74	124792	40	2
74	127978	41	2
74	131231	42	2
74	134407	43	2
74	137583	44	2
74	140759	45	2
74	144364	46	2
74	147530	47	2
74	150696	48	2
74	153862	49	2
74	157028	50	2
74	160194	51	2
74	163360	52	2
74	166526	53	2
74	169692	54	2
74	172858	55	2
74	176024	56	2
74	179190	57	2
74	182356	58	2
74	185522	59	2
74	188688	60	2
74	191854	61	2
74	195020	62	2
74	198186	63	2
74	201352	64	2
74	204518	65	2
74	207684	66	2
74	210850	67	2
74	214016	68	2
74	217182	69	2
74	220348	70	2
74	223514	71	2
74	226680	72	2
74	229846	73	2
74	233012	74	2
74	236178	75	2
74	239344	76	2
74	242510	77	2
74	245676	78	2
74	248842	79	2
74	252008	80	2
74	255174	81	2
74	258340	82	2
74	261506	83	2
74	264672	84	2
74	267838	85	2
74	271004	86	2
74	274170	87	2
74	277336	88	2
74	280502	89	2
74	283668	90	2
74	286834	91	2
74	290000	92	2
74	293166	93	2
74	296332	94	2
74	299498	95	2
74	302664	96	2
74	305830	97	2
74	308996	98	2
74	312162	99	2
74	315328	100	2
75	2908	2	0.016545
75	6074	3	0.01873
75	9240	4	0.01873
75	12406	5	0.01873
75	15572	6	0.01873
75	18738	7	0.01873
75	21904	8	0.01873
75	25070	9	0.01873
75	28237	10	0.01873
75	31503	11	0.018778
75	34719	12	0.01873
75	37935	13	0.01873
75	41151	14	0.01873
75	44367	15	0.01873
75	47583	16	0.01873
75	50799	17	0.01873
75	54015	18	0.01873
75	57231	19	0.01873
75	60447	20	0.01873
75	63663	21	0.01873
75	66879	22	0.01873
75	70095	23	0.01873
75	73311	24	0.01873
75	76527	25	0.01873
75	79743	26	0.01873
75	82959	27	0.01873
75	86175	28	0.01873
75	89391	29	0.01873
75	92674	30	0.018842
75	95880	31	0.01873
75	99086	32	0.01873
75	102292	33	0.01873
75	105567	34	0.01887509239
75	108763	35	0.01873
75	111959	36	0.01873
75	115155	37	0.01873
75	118420	38	0.018842
75	121606	39	0.01873
75	124792	40	0.01873
75	127978	41	0.01873
75	131231	42	0.018842
75	134407	43	0.01873
75	137583	44	0.01873
75	140759	45	0.01873
75	144364	46	0.019434
75	147530	47	0.01873
75	150696	48	0.01873
75	153862	49	0.01873
75	157028	50	0.01873
75	160194	51	0.01873
75	163360	52	0.01873
75	166526	53	0.01873
75	169692	54	0.01873
75	172858	55	0.01873
75	176024	56	0.01873
75	179190	57	0.01873
75	182356	58	0.01873
75	185522	59	0.01873
75	188688	60	0.01873
75	191854	61	0.01873
75	195020	62	0.01873
75	198186	63	0.01873
75	201352	64	0.01873
75	204518	65	0.01873
75	207684	66	0.01873
75	210850	67	0.01873
75	214016	68	0.01873
75	217182	69	0.01873
75	220348	70	0.01873
75	223514	71	0.01873
75	226680	72	0.01873
75	229846	73	0.01873
75	233012	74	0.01873
75	236178	75	0.01873
75	239344	76	0.01873
75	242510	77	0.01873
75	245676	78	0.01873
75	248842	79	0.01873
75	252008	80	0.01873
75	255174	81	0.01873
75	258340	82	0.01873
75	261506	83	0.01873
75	264672	84	0.01873
75	267838	85	0.01873
75	271004	86	0.01873
75	274170	87	0.01873
75	277336	88	0.01873
75	280502	89	0.01873
75	283668	90	0.01873
75	286834	91	0.01873
75	290000	92	0.01873
75	293166	93	0.01873
75	296332	94	0.01873
75	299498	95	0.01873
75	302664	96	0.01873
75	305830	97	0.01873
75	308996	98	0.01873
75	312162	99	0.01873
75	315328	100	0.01873
76	2908	2	0
76	6074	3	0
76	9240	4	0
76	12406	5	0
76	15572	6	0
76	18738	7	0
76	21904	8	0
76	25070	9	0
76	28237	10	0
76	31503	11	0
76	34719	12	0
76	37935	13	0
76	41151	14	0
76	44367	15	0
76	47583	16	0
76	50799	17	0
76	54015	18	0
76	57231	19	0
76	60447	20	0
76	63663	21	0
76	66879	22	0
76	70095	23	0
76	73311	24	0
76	76527	25	0
76	79743	26	0
76	82959	27	0
76	86175	28	0
76	89391	29	0
76	92674	30	0
76	95880	31	0
76	99086	32	0
76	102292	33	0
76	105567	34	0
76	108763	35	0
76	111959	36	0
76	115155	37	0
76	118420	38	0
76	121606	39	0
76	124792	40	0
76	127978	41	0
76	131231	42	0
76	134407	43	0
76	137583	44	0
76	140759	45	0
76	144364	46	0
76	147530	47	0
76	150696	48	0
76	153862	49	0
76	157028	50	0
76	160194	51	0
76	163360	52	0
76	166526	53	0
76	169692	54	0
76	172858	55	0
76	176024	56	0
76	179190	57	0
76	182356	58	0
76	185522	59	0
76	188688	60	0
76	191854	61	0
76	195020	62	0
76	198186	63	0
76	201352	64	0
76	204518	65	0
76	207684	66	0
76	210850	67	0
76	214016	68	0
76	217182	69	0
76	220348	70	0
76	223514	71	0
76	226680	72	0
76	229846	73	0
76	233012	74	0
76	236178	75	0
76	239344	76	0
76	242510	77	0
76	245676	78	0
76	248842	79	0
76	252008	80	0
76	255174	81	0
76	258340	82	0
76	261506	83	0
76	264672	84	0
76	267838	85	0
76	271004	86	0
76	274170	87	0
76	277336	88	0
76	280502	89	0
76	283668	90	0
76	286834	91	0
76	290000	92	0
76	293166	93	0
76	296332	94	0
76	299498	95	0
76	302664	96	0
76	305830	97	0
76	308996	98	0
76	312162	99	0
76	315328	100	0
77	2909	2	3
77	6075	3	3
77	9241	4	3
77	12407	5	3
77	15573	6	3
77	18739	7	3
77	21905	8	3
77	25071	9	3
77	28238	10	3
77	31504	11	3
77	34720	12	3
77	37936	13	3
77	41152	14	3
77	44368	15	3
77	47584	16	3
77	50800	17	3
77	54016	18	3
77	57232	19	3
77	60448	20	3
77	63664	21	3
77	66880	22	3
77	70096	23	3
77	73312	24	3
77	76528	25	3
77	79744	26	3
77	82960	27	3
77	86176	28	3
77	89392	29	3
77	92675	30	3
77	95881	31	3
77	99087	32	3
77	102293	33	3
77	105568	34	3
77	108764	35	3
77	111960	36	3
77	115156	37	3
77	118421	38	3
77	121607	39	3
77	124793	40	3
77	127979	41	3
77	131232	42	3
77	134408	43	3
77	137584	44	3
77	140760	45	3
77	144365	46	3
77	147531	47	3
77	150697	48	3
77	153863	49	3
77	157029	50	3
77	160195	51	3
77	163361	52	3
77	166527	53	3
77	169693	54	3
77	172859	55	3
77	176025	56	3
77	179191	57	3
77	182357	58	3
77	185523	59	3
77	188689	60	3
77	191855	61	3
77	195021	62	3
77	198187	63	3
77	201353	64	3
77	204519	65	3
77	207685	66	3
77	210851	67	3
77	214017	68	3
77	217183	69	3
77	220349	70	3
77	223515	71	3
77	226681	72	3
77	229847	73	3
77	233013	74	3
77	236179	75	3
77	239345	76	3
77	242511	77	3
77	245677	78	3
77	248843	79	3
77	252009	80	3
77	255175	81	3
77	258341	82	3
77	261507	83	3
77	264673	84	3
77	267839	85	3
77	271005	86	3
77	274171	87	3
77	277337	88	3
77	280503	89	3
77	283669	90	3
77	286835	91	3
77	290001	92	3
77	293167	93	3
77	296333	94	3
77	299499	95	3
77	302665	96	3
77	305831	97	3
77	308997	98	3
77	312163	99	3
77	315329	100	3
78	2909	2	0.016545
78	6075	3	0.01873
78	9241	4	0.01873
78	12407	5	0.01873
78	15573	6	0.01873
78	18739	7	0.01873
78	21905	8	0.01873
78	25071	9	0.01873
78	28238	10	0.01873
78	31504	11	0.018778
78	34720	12	0.01873
78	37936	13	0.01873
78	41152	14	0.01873
78	44368	15	0.01873
78	47584	16	0.01873
78	50800	17	0.01873
78	54016	18	0.01873
78	57232	19	0.01873
78	60448	20	0.01873
78	63664	21	0.01873
78	66880	22	0.01873
78	70096	23	0.01873
78	73312	24	0.01873
78	76528	25	0.01873
78	79744	26	0.01873
78	82960	27	0.01873
78	86176	28	0.01873
78	89392	29	0.01873
78	92675	30	0.018842
78	95881	31	0.01873
78	99087	32	0.01873
78	102293	33	0.01873
78	105568	34	0.018842
78	108764	35	0.01873
78	111960	36	0.01873
78	115156	37	0.01873
78	118421	38	0.018875138866
78	121607	39	0.01873
78	124793	40	0.01873
78	127979	41	0.01873
78	131232	42	0.018842
78	134408	43	0.01873
78	137584	44	0.01873
78	140760	45	0.01873
78	144365	46	0.019434
78	147531	47	0.01873
78	150697	48	0.01873
78	153863	49	0.01873
78	157029	50	0.01873
78	160195	51	0.01873
78	163361	52	0.01873
78	166527	53	0.01873
78	169693	54	0.01873
78	172859	55	0.01873
78	176025	56	0.01873
78	179191	57	0.01873
78	182357	58	0.01873
78	185523	59	0.01873
78	188689	60	0.01873
78	191855	61	0.01873
78	195021	62	0.01873
78	198187	63	0.01873
78	201353	64	0.01873
78	204519	65	0.01873
78	207685	66	0.01873
78	210851	67	0.01873
78	214017	68	0.01873
78	217183	69	0.01873
78	220349	70	0.01873
78	223515	71	0.01873
78	226681	72	0.01873
78	229847	73	0.01873
78	233013	74	0.01873
78	236179	75	0.01873
78	239345	76	0.01873
78	242511	77	0.01873
78	245677	78	0.01873
78	248843	79	0.01873
78	252009	80	0.01873
78	255175	81	0.01873
78	258341	82	0.01873
78	261507	83	0.01873
78	264673	84	0.01873
78	267839	85	0.01873
78	271005	86	0.01873
78	274171	87	0.01873
78	277337	88	0.01873
78	280503	89	0.01873
78	283669	90	0.01873
78	286835	91	0.01873
78	290001	92	0.01873
78	293167	93	0.01873
78	296333	94	0.01873
78	299499	95	0.01873
78	302665	96	0.01873
78	305831	97	0.01873
78	308997	98	0.01873
78	312163	99	0.01873
78	315329	100	0.01873
79	2909	2	0
79	6075	3	0
79	9241	4	0
79	12407	5	0
79	15573	6	0
79	18739	7	0
79	21905	8	0
79	25071	9	0
79	28238	10	0
79	31504	11	0
79	34720	12	0
79	37936	13	0
79	41152	14	0
79	44368	15	0
79	47584	16	0
79	50800	17	0
79	54016	18	0
79	57232	19	0
79	60448	20	0
79	63664	21	0
79	66880	22	0
79	70096	23	0
79	73312	24	0
79	76528	25	0
79	79744	26	0
79	82960	27	0
79	86176	28	0
79	89392	29	0
79	92675	30	0
79	95881	31	0
79	99087	32	0
79	102293	33	0
79	105568	34	0
79	108764	35	0
79	111960	36	0
79	115156	37	0
79	118421	38	0
79	121607	39	0
79	124793	40	0
79	127979	41	0
79	131232	42	0
79	134408	43	0
79	137584	44	0
79	140760	45	0
79	144365	46	0
79	147531	47	0
79	150697	48	0
79	153863	49	0
79	157029	50	0
79	160195	51	0
79	163361	52	0
79	166527	53	0
79	169693	54	0
79	172859	55	0
79	176025	56	0
79	179191	57	0
79	182357	58	0
79	185523	59	0
79	188689	60	0
79	191855	61	0
79	195021	62	0
79	198187	63	0
79	201353	64	0
79	204519	65	0
79	207685	66	0
79	210851	67	0
79	214017	68	0
79	217183	69	0
79	220349	70	0
79	223515	71	0
79	226681	72	0
79	229847	73	0
79	233013	74	0
79	236179	75	0
79	239345	76	0
79	242511	77	0
79	245677	78	0
79	248843	79	0
79	252009	80	0
79	255175	81	0
79	258341	82	0
79	261507	83	0
79	264673	84	0
79	267839	85	0
79	271005	86	0
79	274171	87	0
79	277337	88	0
79	280503	89	0
79	283669	90	0
79	286835	91	0
79	290001	92	0
79	293167	93	0
79	296333	94	0
79	299499	95	0
79	302665	96	0
79	305831	97	0
79	308997	98	0
79	312163	99	0
79	315329	100	0
80	2910	2	4
80	6076	3	4
80	9242	4	4
80	12408	5	4
80	15574	6	4
80	18740	7	4
80	21906	8	4
80	25072	9	4
80	28239	10	4
80	31505	11	4
80	34721	12	4
80	37937	13	4
80	41153	14	4
80	44369	15	4
80	47585	16	4
80	50801	17	4
80	54017	18	4
80	57233	19	4
80	60449	20	4
80	63665	21	4
80	66881	22	4
80	70097	23	4
80	73313	24	4
80	76529	25	4
80	79745	26	4
80	82961	27	4
80	86177	28	4
80	89393	29	4
80	92676	30	4
80	95882	31	4
80	99088	32	4
80	102294	33	4
80	105569	34	4
80	108765	35	4
80	111961	36	4
80	115157	37	4
80	118422	38	4
80	121608	39	4
80	124794	40	4
80	127980	41	4
80	131233	42	4
80	134409	43	4
80	137585	44	4
80	140761	45	4
80	144366	46	4
80	147532	47	4
80	150698	48	4
80	153864	49	4
80	157030	50	4
80	160196	51	4
80	163362	52	4
80	166528	53	4
80	169694	54	4
80	172860	55	4
80	176026	56	4
80	179192	57	4
80	182358	58	4
80	185524	59	4
80	188690	60	4
80	191856	61	4
80	195022	62	4
80	198188	63	4
80	201354	64	4
80	204520	65	4
80	207686	66	4
80	210852	67	4
80	214018	68	4
80	217184	69	4
80	220350	70	4
80	223516	71	4
80	226682	72	4
80	229848	73	4
80	233014	74	4
80	236180	75	4
80	239346	76	4
80	242512	77	4
80	245678	78	4
80	248844	79	4
80	252010	80	4
80	255176	81	4
80	258342	82	4
80	261508	83	4
80	264674	84	4
80	267840	85	4
80	271006	86	4
80	274172	87	4
80	277338	88	4
80	280504	89	4
80	283670	90	4
80	286836	91	4
80	290002	92	4
80	293168	93	4
80	296334	94	4
80	299500	95	4
80	302666	96	4
80	305832	97	4
80	308998	98	4
80	312164	99	4
80	315330	100	4
81	2910	2	0.016545
81	6076	3	0.01873
81	9242	4	0.01873
81	12408	5	0.01873
81	15574	6	0.01873
81	18740	7	0.01873
81	21906	8	0.01873
81	25072	9	0.01873
81	28239	10	0.01873
81	31505	11	0.018778
81	34721	12	0.01873
81	37937	13	0.01873
81	41153	14	0.01873
81	44369	15	0.01873
81	47585	16	0.01873
81	50801	17	0.01873
81	54017	18	0.01873
81	57233	19	0.01873
81	60449	20	0.01873
81	63665	21	0.01873
81	66881	22	0.01873
81	70097	23	0.01873
81	73313	24	0.01873
81	76529	25	0.01873
81	79745	26	0.01873
81	82961	27	0.01873
81	86177	28	0.01873
81	89393	29	0.01873
81	92676	30	0.018842
81	95882	31	0.01873
81	99088	32	0.01873
81	102294	33	0.01873
81	105569	34	0.018842
81	108765	35	0.01873
81	111961	36	0.01873
81	115157	37	0.01873
81	118422	38	0.018842
81	121608	39	0.01873
81	124794	40	0.01873
81	127980	41	0.01873
81	131233	42	0.01887518539
81	134409	43	0.01873
81	137585	44	0.01873
81	140761	45	0.01873
81	144366	46	0.019434
81	147532	47	0.01873
81	150698	48	0.01873
81	153864	49	0.01873
81	157030	50	0.01873
81	160196	51	0.01873
81	163362	52	0.01873
81	166528	53	0.01873
81	169694	54	0.01873
81	172860	55	0.01873
81	176026	56	0.01873
81	179192	57	0.01873
81	182358	58	0.01873
81	185524	59	0.01873
81	188690	60	0.01873
81	191856	61	0.01873
81	195022	62	0.01873
81	198188	63	0.01873
81	201354	64	0.01873
81	204520	65	0.01873
81	207686	66	0.01873
81	210852	67	0.01873
81	214018	68	0.01873
81	217184	69	0.01873
81	220350	70	0.01873
81	223516	71	0.01873
81	226682	72	0.01873
81	229848	73	0.01873
81	233014	74	0.01873
81	236180	75	0.01873
81	239346	76	0.01873
81	242512	77	0.01873
81	245678	78	0.01873
81	248844	79	0.01873
81	252010	80	0.01873
81	255176	81	0.01873
81	258342	82	0.01873
81	261508	83	0.01873
81	264674	84	0.01873
81	267840	85	0.01873
81	271006	86	0.01873
81	274172	87	0.01873
81	277338	88	0.01873
81	280504	89	0.01873
81	283670	90	0.01873
81	286836	91	0.01873
81	290002	92	0.01873
81	293168	93	0.01873
81	296334	94	0.01873
81	299500	95	0.01873
81	302666	96	0.01873
81	305832	97	0.01873
81	308998	98	0.01873
81	312164	99	0.01873
81	315330	100	0.01873
82	2910	2	0
82	6076	3	0
82	9242	4	0
82	12408	5	0
82	15574	6	0
82	18740	7	0
82	21906	8	0
82	25072	9	0
82	28239	10	0
82	31505	11	0
82	34721	12	0
82	37937	13	0
82	41153	14	0
82	44369	15	0
82	47585	16	0
82	50801	17	0
82	54017	18	0
82	57233	19	0
82	60449	20	0
82	63665	21	0
82	66881	22	0
82	70097	23	0
82	73313	24	0
82	76529	25	0
82	79745	26	0
82	82961	27	0
82	86177	28	0
82	89393	29	0
82	92676	30	0
82	95882	31	0
82	99088	32	0
82	102294	33	0
82	105569	34	0
82	108765	35	0
82	111961	36	0
82	115157	37	0
82	118422	38	0
82	121608	39	0
82	124794	40	0
82	127980	41	0
82	131233	42	0
82	134409	43	0
82	137585	44	0
82	140761	45	0
82	144366	46	0
82	147532	47	0
82	150698	48	0
82	153864	49	0
82	157030	50	0
82	160196	51	0
82	163362	52	0
82	166528	53	0
82	169694	54	0
82	172860	55	0
82	176026	56	0
82	179192	57	0
82	182358	58	0
82	185524	59	0
82	188690	60	0
82	191856	61	0
82	195022	62	0
82	198188	63	0
82	201354	64	0
82	204520	65	0
82	207686	66	0
82	210852	67	0
82	214018	68	0
82	217184	69	0
82	220350	70	0
82	223516	71	0
82	226682	72	0
82	229848	73	0
82	233014	74	0
82	236180	75	0
82	239346	76	0
82	242512	77	0
82	245678	78	0
82	248844	79	0
82	252010	80	0
82	255176	81	0
82	258342	82	0
82	261508	83	0
82	264674	84	0
82	267840	85	0
82	271006	86	0
82	274172	87	0
82	277338	88	0
82	280504	89	0
82	283670	90	0
82	286836	91	0
82	290002	92	0
82	293168	93	0
82	296334	94	0
82	299500	95	0
82	302666	96	0
82	305832	97	0
82	308998	98	0
82	312164	99	0
82	315330	100	0
83	2911	2	5
83	6077	3	5
83	9243	4	5
83	12409	5	5
83	15575	6	5
83	18741	7	5
83	21907	8	5
83	25073	9	5
83	28240	10	5
83	31506	11	5
83	34722	12	5
83	37938	13	5
83	41154	14	5
83	44370	15	5
83	47586	16	5
83	50802	17	5
83	54018	18	5
83	57234	19	5
83	60450	20	5
83	63666	21	5
83	66882	22	5
83	70098	23	5
83	73314	24	5
83	76530	25	5
83	79746	26	5
83	82962	27	5
83	86178	28	5
83	89394	29	5
83	92677	30	5
83	95883	31	5
83	99089	32	5
83	102295	33	5
83	105570	34	5
83	108766	35	5
83	111962	36	5
83	115158	37	5
83	118423	38	5
83	121609	39	5
83	124795	40	5
83	127981	41	5
83	131234	42	5
83	134410	43	5
83	137586	44	5
83	140762	45	5
83	144367	46	5
83	147533	47	5
83	150699	48	5
83	153865	49	5
83	157031	50	5
83	160197	51	5
83	163363	52	5
83	166529	53	5
83	169695	54	5
83	172861	55	5
83	176027	56	5
83	179193	57	5
83	182359	58	5
83	185525	59	5
83	188691	60	5
83	191857	61	5
83	195023	62	5
83	198189	63	5
83	201355	64	5
83	204521	65	5
83	207687	66	5
83	210853	67	5
83	214019	68	5
83	217185	69	5
83	220351	70	5
83	223517	71	5
83	226683	72	5
83	229849	73	5
83	233015	74	5
83	236181	75	5
83	239347	76	5
83	242513	77	5
83	245679	78	5
83	248845	79	5
83	252011	80	5
83	255177	81	5
83	258343	82	5
83	261509	83	5
83	264675	84	5
83	267841	85	5
83	271007	86	5
83	274173	87	5
83	277339	88	5
83	280505	89	5
83	283671	90	5
83	286837	91	5
83	290003	92	5
83	293169	93	5
83	296335	94	5
83	299501	95	5
83	302667	96	5
83	305833	97	5
83	308999	98	5
83	312165	99	5
83	315331	100	5
84	2911	2	0.016545
84	6077	3	0.01873
84	9243	4	0.01873
84	12409	5	0.01873
84	15575	6	0.01873
84	18741	7	0.01873
84	21907	8	0.01873
84	25073	9	0.01873
84	28240	10	0.01873
84	31506	11	0.018778
84	34722	12	0.01873
84	37938	13	0.01873
84	41154	14	0.01873
84	44370	15	0.01873
84	47586	16	0.01873
84	50802	17	0.01873
84	54018	18	0.01873
84	57234	19	0.01873
84	60450	20	0.01873
84	63666	21	0.01873
84	66882	22	0.01873
84	70098	23	0.01873
84	73314	24	0.01873
84	76530	25	0.01873
84	79746	26	0.01873
84	82962	27	0.01873
84	86178	28	0.01873
84	89394	29	0.01873
84	92677	30	0.018842
84	95883	31	0.01873
84	99089	32	0.01873
84	102295	33	0.01873
84	105570	34	0.018842
84	108766	35	0.01873
84	111962	36	0.01873
84	115158	37	0.01873
84	118423	38	0.018842
84	121609	39	0.01873
84	124795	40	0.01873
84	127981	41	0.01873
84	131234	42	0.018842
84	134410	43	0.01873
84	137586	44	0.01873
84	140762	45	0.01873
84	144367	46	0.019467231948
84	147533	47	0.01873
84	150699	48	0.01873
84	153865	49	0.01873
84	157031	50	0.01873
84	160197	51	0.01873
84	163363	52	0.01873
84	166529	53	0.01873
84	169695	54	0.01873
84	172861	55	0.01873
84	176027	56	0.01873
84	179193	57	0.01873
84	182359	58	0.01873
84	185525	59	0.01873
84	188691	60	0.01873
84	191857	61	0.01873
84	195023	62	0.01873
84	198189	63	0.01873
84	201355	64	0.01873
84	204521	65	0.01873
84	207687	66	0.01873
84	210853	67	0.01873
84	214019	68	0.01873
84	217185	69	0.01873
84	220351	70	0.01873
84	223517	71	0.01873
84	226683	72	0.01873
84	229849	73	0.01873
84	233015	74	0.01873
84	236181	75	0.01873
84	239347	76	0.01873
84	242513	77	0.01873
84	245679	78	0.01873
84	248845	79	0.01873
84	252011	80	0.01873
84	255177	81	0.01873
84	258343	82	0.01873
84	261509	83	0.01873
84	264675	84	0.01873
84	267841	85	0.01873
84	271007	86	0.01873
84	274173	87	0.01873
84	277339	88	0.01873
84	280505	89	0.01873
84	283671	90	0.01873
84	286837	91	0.01873
84	290003	92	0.01873
84	293169	93	0.01873
84	296335	94	0.01873
84	299501	95	0.01873
84	302667	96	0.01873
84	305833	97	0.01873
84	308999	98	0.01873
84	312165	99	0.01873
84	315331	100	0.01873
85	2911	2	0
85	6077	3	0
85	9243	4	0
85	12409	5	0
85	15575	6	0
85	18741	7	0
85	21907	8	0
85	25073	9	0
85	28240	10	0
85	31506	11	0
85	34722	12	0
85	37938	13	0
85	41154	14	0
85	44370	15	0
85	47586	16	0
85	50802	17	0
85	54018	18	0
85	57234	19	0
85	60450	20	0
85	63666	21	0
85	66882	22	0
85	70098	23	0
85	73314	24	0
85	76530	25	0
85	79746	26	0
85	82962	27	0
85	86178	28	0
85	89394	29	0
85	92677	30	0
85	95883	31	0
85	99089	32	0
85	102295	33	0
85	105570	34	0
85	108766	35	0
85	111962	36	0
85	115158	37	0
85	118423	38	0
85	121609	39	0
85	124795	40	0
85	127981	41	0
85	131234	42	0
85	134410	43	0
85	137586	44	0
85	140762	45	0
85	144367	46	0
85	147533	47	0
85	150699	48	0
85	153865	49	0
85	157031	50	0
85	160197	51	0
85	163363	52	0
85	166529	53	0
85	169695	54	0
85	172861	55	0
85	176027	56	0
85	179193	57	0
85	182359	58	0
85	185525	59	0
85	188691	60	0
85	191857	61	0
85	195023	62	0
85	198189	63	0
85	201355	64	0
85	204521	65	0
85	207687	66	0
85	210853	67	0
85	214019	68	0
85	217185	69	0
85	220351	70	0
85	223517	71	0
85	226683	72	0
85	229849	73	0
85	233015	74	0
85	236181	75	0
85	239347	76	0
85	242513	77	0
85	245679	78	0
85	248845	79	0
85	252011	80	0
85	255177	81	0
85	258343	82	0
85	261509	83	0
85	264675	84	0
85	267841	85	0
85	271007	86	0
85	274173	87	0
85	277339	88	0
85	280505	89	0
85	283671	90	0
85	286837	91	0
85	290003	92	0
85	293169	93	0
85	296335	94	0
85	299501	95	0
85	302667	96	0
85	305833	97	0
85	308999	98	0
85	312165	99	0
85	315331	100	0

