file 5330247 1720719776                                         
version 3
run BreakRanksNoGui-1846-20240711-19:42:28-306345
attr configname BreakRanksNoGui
attr datetime 20240711-19:42:28
attr datetimef 20240711-194228
attr experiment BreakRanksNoGui
attr inifile omnetpp.ini
attr iterationvars "$nCars=16, $platoonSize=16, $nLanes=1, $ploegH=0.5, $controller=1, $headway=0.1, $leaderHeadway=1.2, $leaderSpeed=110, $breakRanksSafetyDistance=15, $minSpeed=100, $maxSpeed=120, $beaconInterval=0.1, $priority=4, $packetSize=200, $sController=\"CACC\", $0=2, $1=0"
attr iterationvarsd nCars=16/platoonSize=16/nLanes=1/ploegH=0.5/controller=1/headway=0.1/leaderHeadway=1.2/leaderSpeed=110/breakRanksSafetyDistance=15/minSpeed=100/maxSpeed=120/beaconInterval=0.1/priority=4/packetSize=200/sController=CACC/2/0
attr iterationvarsf nCars=16,platoonSize=16,nLanes=1,ploegH=0.5,controller=1,headway=0.1,leaderHeadway=1.2,leaderSpeed=110,breakRanksSafetyDistance=15,minSpeed=100,maxSpeed=120,beaconInterval=0.1,priority=4,packetSize=200,sController=CACC,2,0-
attr measurement "$nCars=16, $platoonSize=16, $nLanes=1, $ploegH=0.5, $controller=1, $headway=0.1, $leaderHeadway=1.2, $leaderSpeed=110, $breakRanksSafetyDistance=15, $minSpeed=100, $maxSpeed=120, $beaconInterval=0.1, $priority=4, $packetSize=200, $sController=\"CACC\", $0=2, $1=0"
attr network Highway
attr processid 306345
attr repetition 6
attr replication #6
attr resultdir results
attr runnumber 1846
attr seedset 6
itervar beaconInterval 0.1
itervar breakRanksSafetyDistance 15
itervar controller 1
itervar headway 0.1
itervar leaderHeadway 1.2
itervar leaderSpeed 110
itervar maxSpeed 120
itervar minSpeed 100
itervar nCars 16
itervar nLanes 1
itervar packetSize 200
itervar platoonSize 16
itervar ploegH 0.5
itervar priority 4
itervar sController "\"CACC\""
config image-path ../../../veins/images
config repeat 10
config extends BreakRanks
config *.manager.command "\"sumo\""
config *.manager.ignoreGuiCommands true
config output-vector-file "results/BreakRanks_1_0.1_110_15_16 /result_6.vec"
config output-scalar-file "results/BreakRanks_1_0.1_110_15_16 /result_6.sca"
config extends Platooning
config *.node[*].scenario_type "\"BreakRanksScenario\""
config *.manager.command "\"sumo-gui\""
config *.node[*].scenario_type "\"SimpleScenario\""
config cmdenv-express-mode true
config cmdenv-autoflush true
config cmdenv-status-frequency 15s
config num-rngs 6
config network Highway
config debug-on-errors true
config print-undisposed true
config *.playgroundSizeX 65000m
config *.playgroundSizeY 25000m
config *.playgroundSizeZ 50m
config sim-time-limit "100 s"
config *.annotations.draw false
config *.obstacles.debug false
config *.world.useTorus false
config *.world.use2D false
config *.manager.updateInterval 0.01s
config *.manager.host "\"localhost\""
config *.manager.moduleType "\"org.car2x.plexe.PlatoonCar\""
config *.manager.moduleName "\"node\""
config *.manager.moduleDisplayString "\"\""
config *.manager.autoShutdown true
config *.manager.margin 25
config *.connectionManager.sendDirect true
config *.connectionManager.maxInterfDist 2600m
config *.connectionManager.drawMaxIntfDist false
config *.**.nic.mac1609_4.useServiceChannel false
config *.**.nic.mac1609_4.txPower 100mW
config *.**.nic.mac1609_4.bitrate 6Mbps
config *.**.nic.mac1609_4.useAcks true
config *.**.nic.mac1609_4.ackErrorRate 0.0
config *.**.nic.mac1609_4.frameErrorRate 0.0
config *.**.nic.phy80211p.minPowerLevel -94dBm
config *.**.nic.phy80211p.maxTXPower 100mW
config *.**.nic.phy80211p.useNoiseFloor true
config *.**.nic.phy80211p.noiseFloor -95dBm
config *.**.nic.phy80211p.decider "xmldoc(\"config.xml\")"
config *.**.nic.phy80211p.analogueModels "xmldoc(\"config.xml\")"
config *.**.nic.phy80211p.usePropagationDelay true
config *.node[*].mobility.x 0
config *.node[*].mobility.y 0
config *.node[*].mobility.z 1.895
config seed-set 6
config **.seed 6
config *.node[*].prot.rng-0 2
config *.node[*].appl.rng-0 3
config *.node[*].scenario.rng-0 4
config **.traffic.rng-0 5
config *.manager.configFile "\"./sumocfg/freeway.sumo.cfg\""
config *.manager.launchConfig "xmldoc(\"./sumocfg/freeway.launchd.xml\")"
config **.numberOfCars 16
config **.numberOfCarsPerPlatoon 16
config **.numberOfLanes 1
config *.node[*].helper_type "\"PositionHelper\""
config *.node[*].scenario.caccC1 0.5
config *.node[*].scenario.caccXi 1
config *.node[*].scenario.caccOmegaN "0.2 Hz"
config *.node[*].scenario.caccSpacing "2 m"
config *.node[*].scenario.engineTau "0.5 s"
config *.node[*].scenario.ploegH 0.5s
config *.node[*].scenario.ploegKp 0.2
config *.node[*].scenario.ploegKd 0.7
config *.node[*].scenario.useRealisticEngine false
config *.node[*].scenario.useControllerAcceleration true
config *.node[*].scenario.nLanes 1
config **.numericController 1
config **.headway 0.1s
config *.node[*].scenario.accHeadway 0.1s
config *.node[*].scenario.leaderHeadway 1.2s
config *.node[*].scenario.leaderSpeed 110kmph
config *.node[*].appl_type "\"SimplePlatooningApp\""
config *.node[*].appl.*.scalar-recording true
config *.node[*].appl.*.vector-recording true
config *.node[0].appl.breakRanksSafetyDistance 15m
config *.node[*].appl.minSpeed 100kmph
config *.node[*].appl.maxSpeed 120kmph
config *.node[*].protocol_type "\"SimplePlatooningBeaconing\""
config *.node[*].prot.*.scalar-recording true
config *.node[*].prot.*.vector-recording true
config *.node[*].prot.beaconingInterval 0.1s
config *.node[*].prot.priority 4
config *.node[*].prot.packetSize 200
config **.traffic_type "\"PlatoonsTrafficManager\""
config **.traffic.platoonInsertTime "1 s"
config **.traffic.platoonInsertSpeed 110kmph
config **.traffic.nCars 16
config **.traffic.platoonSize 16
config **.traffic.nLanes 1
config **.traffic.platooningVType "\"vtypeauto\""
config **.traffic.controller "\"CACC\""
config **.traffic.platoonInsertDistance 2m
config **.traffic.platoonInsertHeadway 0s
config **.traffic.platoonLeaderHeadway 1.2s
config **.scalar-recording false
config **.vector-recording false

vector 0 Highway.node[0].appl distance ETV
vector 1 Highway.node[0].appl relativeSpeed ETV
vector 2 Highway.node[0].appl nodeId ETV
vector 3 Highway.node[0].appl acceleration ETV
vector 4 Highway.node[0].appl controllerAcceleration ETV
vector 5 Highway.node[0].appl speed ETV
vector 6 Highway.node[0].appl posx ETV
vector 7 Highway.node[0].appl posy ETV
vector 8 Highway.node[1].appl distance ETV
vector 9 Highway.node[1].appl relativeSpeed ETV
vector 10 Highway.node[1].appl nodeId ETV
vector 11 Highway.node[1].appl acceleration ETV
vector 12 Highway.node[1].appl controllerAcceleration ETV
vector 13 Highway.node[1].appl speed ETV
vector 14 Highway.node[1].appl posx ETV
vector 15 Highway.node[1].appl posy ETV
vector 16 Highway.node[2].appl distance ETV
vector 17 Highway.node[2].appl relativeSpeed ETV
vector 18 Highway.node[2].appl nodeId ETV
vector 19 Highway.node[2].appl acceleration ETV
vector 20 Highway.node[2].appl controllerAcceleration ETV
vector 21 Highway.node[2].appl speed ETV
vector 22 Highway.node[2].appl posx ETV
vector 23 Highway.node[2].appl posy ETV
vector 24 Highway.node[3].appl distance ETV
vector 25 Highway.node[3].appl relativeSpeed ETV
vector 26 Highway.node[3].appl nodeId ETV
vector 27 Highway.node[3].appl acceleration ETV
vector 28 Highway.node[3].appl controllerAcceleration ETV
vector 29 Highway.node[3].appl speed ETV
vector 30 Highway.node[3].appl posx ETV
vector 31 Highway.node[3].appl posy ETV
vector 32 Highway.node[4].appl distance ETV
vector 33 Highway.node[4].appl relativeSpeed ETV
vector 34 Highway.node[4].appl nodeId ETV
vector 35 Highway.node[4].appl acceleration ETV
vector 36 Highway.node[4].appl controllerAcceleration ETV
vector 37 Highway.node[4].appl speed ETV
vector 38 Highway.node[4].appl posx ETV
vector 39 Highway.node[4].appl posy ETV
vector 40 Highway.node[5].appl distance ETV
vector 41 Highway.node[5].appl relativeSpeed ETV
vector 42 Highway.node[5].appl nodeId ETV
vector 43 Highway.node[5].appl acceleration ETV
vector 44 Highway.node[5].appl controllerAcceleration ETV
vector 45 Highway.node[5].appl speed ETV
vector 46 Highway.node[5].appl posx ETV
vector 47 Highway.node[5].appl posy ETV
vector 48 Highway.node[6].appl distance ETV
vector 49 Highway.node[6].appl relativeSpeed ETV
vector 50 Highway.node[6].appl nodeId ETV
vector 51 Highway.node[6].appl acceleration ETV
vector 52 Highway.node[6].appl controllerAcceleration ETV
vector 53 Highway.node[6].appl speed ETV
vector 54 Highway.node[6].appl posx ETV
vector 55 Highway.node[6].appl posy ETV
vector 56 Highway.node[7].appl distance ETV
vector 57 Highway.node[7].appl relativeSpeed ETV
vector 58 Highway.node[7].appl nodeId ETV
vector 59 Highway.node[7].appl acceleration ETV
vector 60 Highway.node[7].appl controllerAcceleration ETV
vector 61 Highway.node[7].appl speed ETV
vector 62 Highway.node[7].appl posx ETV
vector 63 Highway.node[7].appl posy ETV
vector 64 Highway.node[8].appl distance ETV
vector 65 Highway.node[8].appl relativeSpeed ETV
vector 66 Highway.node[8].appl nodeId ETV
vector 67 Highway.node[8].appl acceleration ETV
vector 68 Highway.node[8].appl controllerAcceleration ETV
vector 69 Highway.node[8].appl speed ETV
vector 70 Highway.node[8].appl posx ETV
vector 71 Highway.node[8].appl posy ETV
vector 72 Highway.node[9].appl distance ETV
vector 73 Highway.node[9].appl relativeSpeed ETV
vector 74 Highway.node[9].appl nodeId ETV
vector 75 Highway.node[9].appl acceleration ETV
vector 76 Highway.node[9].appl controllerAcceleration ETV
vector 77 Highway.node[9].appl speed ETV
vector 78 Highway.node[9].appl posx ETV
vector 79 Highway.node[9].appl posy ETV
vector 80 Highway.node[10].appl distance ETV
vector 81 Highway.node[10].appl relativeSpeed ETV
vector 82 Highway.node[10].appl nodeId ETV
vector 83 Highway.node[10].appl acceleration ETV
vector 84 Highway.node[10].appl controllerAcceleration ETV
vector 85 Highway.node[10].appl speed ETV
vector 86 Highway.node[10].appl posx ETV
vector 87 Highway.node[10].appl posy ETV
vector 88 Highway.node[11].appl distance ETV
vector 89 Highway.node[11].appl relativeSpeed ETV
vector 90 Highway.node[11].appl nodeId ETV
vector 91 Highway.node[11].appl acceleration ETV
vector 92 Highway.node[11].appl controllerAcceleration ETV
vector 93 Highway.node[11].appl speed ETV
vector 94 Highway.node[11].appl posx ETV
vector 95 Highway.node[11].appl posy ETV
vector 96 Highway.node[12].appl distance ETV
vector 97 Highway.node[12].appl relativeSpeed ETV
vector 98 Highway.node[12].appl nodeId ETV
vector 99 Highway.node[12].appl acceleration ETV
vector 100 Highway.node[12].appl controllerAcceleration ETV
vector 101 Highway.node[12].appl speed ETV
vector 102 Highway.node[12].appl posx ETV
vector 103 Highway.node[12].appl posy ETV
vector 104 Highway.node[13].appl distance ETV
vector 105 Highway.node[13].appl relativeSpeed ETV
vector 106 Highway.node[13].appl nodeId ETV
vector 107 Highway.node[13].appl acceleration ETV
vector 108 Highway.node[13].appl controllerAcceleration ETV
vector 109 Highway.node[13].appl speed ETV
vector 110 Highway.node[13].appl posx ETV
vector 111 Highway.node[13].appl posy ETV
vector 112 Highway.node[14].appl distance ETV
vector 113 Highway.node[14].appl relativeSpeed ETV
vector 114 Highway.node[14].appl nodeId ETV
vector 115 Highway.node[14].appl acceleration ETV
vector 116 Highway.node[14].appl controllerAcceleration ETV
vector 117 Highway.node[14].appl speed ETV
vector 118 Highway.node[14].appl posx ETV
vector 119 Highway.node[14].appl posy ETV
vector 120 Highway.node[15].appl distance ETV
vector 121 Highway.node[15].appl relativeSpeed ETV
vector 122 Highway.node[15].appl nodeId ETV
vector 123 Highway.node[15].appl acceleration ETV
vector 124 Highway.node[15].appl controllerAcceleration ETV
vector 125 Highway.node[15].appl speed ETV
vector 126 Highway.node[15].appl posx ETV
vector 127 Highway.node[15].appl posy ETV
vector 128 Highway.node[2].prot frontDelay ETV
vector 129 Highway.node[2].prot frontDelayId ETV
vector 130 Highway.node[14].prot frontDelay ETV
vector 131 Highway.node[14].prot frontDelayId ETV
vector 132 Highway.node[13].prot frontDelay ETV
vector 133 Highway.node[13].prot frontDelayId ETV
vector 134 Highway.node[1].prot leaderDelay ETV
vector 135 Highway.node[1].prot leaderDelayId ETV
vector 136 Highway.node[1].prot frontDelay ETV
vector 137 Highway.node[1].prot frontDelayId ETV
vector 138 Highway.node[8].prot leaderDelay ETV
vector 139 Highway.node[8].prot leaderDelayId ETV
vector 140 Highway.node[9].prot leaderDelay ETV
vector 141 Highway.node[9].prot leaderDelayId ETV
vector 142 Highway.node[10].prot leaderDelay ETV
vector 143 Highway.node[10].prot leaderDelayId ETV
vector 144 Highway.node[11].prot leaderDelay ETV
vector 145 Highway.node[11].prot leaderDelayId ETV
vector 146 Highway.node[12].prot leaderDelay ETV
vector 147 Highway.node[12].prot leaderDelayId ETV
vector 148 Highway.node[13].prot leaderDelay ETV
vector 149 Highway.node[13].prot leaderDelayId ETV
vector 150 Highway.node[14].prot leaderDelay ETV
vector 151 Highway.node[14].prot leaderDelayId ETV
vector 152 Highway.node[15].prot leaderDelay ETV
vector 153 Highway.node[15].prot leaderDelayId ETV
vector 154 Highway.node[2].prot leaderDelay ETV
vector 155 Highway.node[2].prot leaderDelayId ETV
vector 156 Highway.node[3].prot leaderDelay ETV
vector 157 Highway.node[3].prot leaderDelayId ETV
vector 158 Highway.node[4].prot leaderDelay ETV
vector 159 Highway.node[4].prot leaderDelayId ETV
vector 160 Highway.node[5].prot leaderDelay ETV
vector 161 Highway.node[5].prot leaderDelayId ETV
vector 162 Highway.node[6].prot leaderDelay ETV
vector 163 Highway.node[6].prot leaderDelayId ETV
vector 164 Highway.node[7].prot leaderDelay ETV
vector 165 Highway.node[7].prot leaderDelayId ETV
vector 166 Highway.node[15].prot frontDelay ETV
vector 167 Highway.node[15].prot frontDelayId ETV
vector 168 Highway.node[12].prot frontDelay ETV
vector 169 Highway.node[12].prot frontDelayId ETV
vector 170 Highway.node[11].prot frontDelay ETV
vector 171 Highway.node[11].prot frontDelayId ETV
vector 172 Highway.node[9].prot frontDelay ETV
vector 173 Highway.node[9].prot frontDelayId ETV
vector 174 Highway.node[7].prot frontDelay ETV
vector 175 Highway.node[7].prot frontDelayId ETV
vector 176 Highway.node[3].prot frontDelay ETV
vector 177 Highway.node[3].prot frontDelayId ETV
vector 178 Highway.node[6].prot frontDelay ETV
vector 179 Highway.node[6].prot frontDelayId ETV
vector 180 Highway.node[8].prot frontDelay ETV
vector 181 Highway.node[8].prot frontDelayId ETV
vector 182 Highway.node[10].prot frontDelay ETV
vector 183 Highway.node[10].prot frontDelayId ETV
vector 184 Highway.node[4].prot frontDelay ETV
vector 185 Highway.node[4].prot frontDelayId ETV
vector 186 Highway.node[5].prot frontDelay ETV
vector 187 Highway.node[5].prot frontDelayId ETV
vector 188 Highway.node[0].prot nodeId ETV
vector 189 Highway.node[0].prot busyTime ETV
vector 190 Highway.node[0].prot collisions ETV
vector 191 Highway.node[1].prot nodeId ETV
vector 192 Highway.node[1].prot busyTime ETV
vector 193 Highway.node[1].prot collisions ETV
vector 194 Highway.node[2].prot nodeId ETV
vector 195 Highway.node[2].prot busyTime ETV
vector 196 Highway.node[2].prot collisions ETV
vector 197 Highway.node[3].prot nodeId ETV
vector 198 Highway.node[3].prot busyTime ETV
vector 199 Highway.node[3].prot collisions ETV
vector 200 Highway.node[4].prot nodeId ETV
vector 201 Highway.node[4].prot busyTime ETV
vector 202 Highway.node[4].prot collisions ETV
vector 203 Highway.node[5].prot nodeId ETV
vector 204 Highway.node[5].prot busyTime ETV
vector 205 Highway.node[5].prot collisions ETV
vector 206 Highway.node[6].prot nodeId ETV
vector 207 Highway.node[6].prot busyTime ETV
vector 208 Highway.node[6].prot collisions ETV
vector 209 Highway.node[7].prot nodeId ETV
vector 210 Highway.node[7].prot busyTime ETV
vector 211 Highway.node[7].prot collisions ETV
vector 212 Highway.node[8].prot nodeId ETV
vector 213 Highway.node[8].prot busyTime ETV
vector 214 Highway.node[8].prot collisions ETV
vector 215 Highway.node[9].prot nodeId ETV
vector 216 Highway.node[9].prot busyTime ETV
vector 217 Highway.node[9].prot collisions ETV
vector 218 Highway.node[10].prot nodeId ETV
vector 219 Highway.node[10].prot busyTime ETV
vector 220 Highway.node[10].prot collisions ETV
vector 221 Highway.node[11].prot nodeId ETV
vector 222 Highway.node[11].prot busyTime ETV
vector 223 Highway.node[11].prot collisions ETV
vector 224 Highway.node[12].prot nodeId ETV
vector 225 Highway.node[12].prot busyTime ETV
vector 226 Highway.node[12].prot collisions ETV
vector 227 Highway.node[13].prot nodeId ETV
vector 228 Highway.node[13].prot busyTime ETV
vector 229 Highway.node[13].prot collisions ETV
vector 230 Highway.node[14].prot nodeId ETV
vector 231 Highway.node[14].prot busyTime ETV
vector 232 Highway.node[14].prot collisions ETV
vector 233 Highway.node[15].prot nodeId ETV
vector 234 Highway.node[15].prot busyTime ETV
vector 235 Highway.node[15].prot collisions ETV
0	16905 18176 113 2095040 1.11 99.91 989 -1 -1 -989 989
1	35081 17187 113 2095040 1.11 99.91 989 0 0 0 0
2	52268 17187 113 2095040 1.11 99.91 989 0 0 0 0
3	69455 19775 113 2095040 1.11 99.91 989 -0.00283113 0.000125957 -0.043966303784312 9.6812896349407e-05
4	89230 27155 113 2095040 1.11 99.91 989 -0.00437036 0.00019576 -0.042459310034081 0.00013890441444735
5	116385 23117 113 2095040 1.11 99.91 989 30.5554 30.56 30219.5304 923377.16656332
6	139502 22938 113 2095040 1.11 99.91 989 101.77 3120.67 1593497.574 3320119513.5935
7	162440 22132 113 2095040 1.11 99.91 989 242.45 242.45 239783.05 58135400.472499
8	184572 22761 114 2095041 1.11 99.91 989 1.99932 15 12372.07537 174430.92157663
9	207333 25841 114 2095041 1.11 99.91 989 -0.000377192 1.03512 129.99973430473 88.999952328777
10	233174 18176 114 2095041 1.11 99.91 989 1 1 989 989
11	251350 27312 114 2095041 1.11 99.91 989 -0.393652 0.083645 -0.035540433162002 3.55985624961
12	278662 27341 114 2095041 1.11 99.91 989 -0.518248 0.0843324 0.1899894338884 4.1572366841859
13	306003 24036 114 2095041 1.11 99.91 989 29.5205 30.56 30089.5333 915521.88767068
14	330039 23957 114 2095041 1.11 99.91 989 95.7704 3101.67 1577169.5198 3261974143.8258
15	353996 23121 114 2095041 1.11 99.91 989 242.45 242.45 239783.05 58135400.472499
16	377117 23839 115 2095042 1.11 99.91 989 1.99839 14.9685 9452.20627 117238.89173619
17	400956 25867 115 2095042 1.11 99.91 989 -0.00184851 0.384149 129.68641528193 34.79158409342
18	426823 19165 115 2095042 1.11 99.91 989 10 10 9890 98900
19	445988 26255 115 2095042 1.11 99.91 989 -0.874884 0.153765 -0.11959694115106 30.691570613344
20	472243 26263 115 2095042 1.11 99.91 989 -1.00872 0.153959 0.11052850784418 32.978845559358
21	498506 24013 115 2095042 1.11 99.91 989 26.1128 30.56 28920.2729 848047.31189889
22	522519 24002 115 2095042 1.11 99.91 989 41.7704 2930.74 1444835.4106 2790693403.0361
23	546521 23121 115 2095042 1.11 99.91 989 242.45 242.45 239783.05 58135400.472499
24	569642 23981 116 2095043 1.11 99.91 989 1.97447 14.9504 9124.38105 111138.16491523
25	593623 25863 116 2095043 1.11 99.91 989 -0.0127103 0.366321 129.50623409135 33.315429896856
26	619486 19165 116 2095043 1.11 99.91 989 11 11 10879 119669
27	638651 26213 116 2095043 1.11 99.91 989 -0.878651 0.14798 -0.17117617366635 31.212744931152
28	664864 26210 116 2095043 1.11 99.91 989 -1.01922 0.148058 0.060630445828017 33.652992737033
29	691074 23999 116 2095043 1.11 99.91 989 25.9872 30.56 28790.7659 840698.08750131
30	715073 23973 116 2095043 1.11 99.91 989 35.7704 2911.79 1431755.1917 2744477835.01
31	739046 23121 116 2095043 1.11 99.91 989 242.45 242.45 239783.05 58135400.472499
32	762167 23949 117 2095044 1.11 99.91 989 1.99924 14.9246 8801.36452 105110.19135613
33	786116 25887 117 2095044 1.11 99.91 989 -0.00201298 0.351012 129.24981524941 31.961148303746
34	812003 19165 117 2095044 1.11 99.91 989 12 12 11868 142416
35	831168 26169 117 2095044 1.11 99.91 989 -0.876437 0.142425 -0.24666622586603 31.408790783319
36	857337 26170 117 2095044 1.11 99.91 989 -1.01857 0.142575 -0.0096075147819065 33.616960770839
37	883507 24011 117 2095044 1.11 99.91 989 25.8835 30.56 28661.5147 833370.59715383
38	907518 24009 117 2095044 1.11 99.91 989 29.7704 2892.87 1418997.7047 2699557123.1159
39	931527 23121 117 2095044 1.11 99.91 989 242.45 242.45 239783.05 58135400.472499
40	954648 23972 118 2095045 1.11 99.91 989 1.96702 14.8883 8480.18629 99129.788459722
41	978620 25801 118 2095045 1.11 99.91 989 -0.0157902 0.336293 128.88885030381 30.624304328802
42	1004421 19165 118 2095045 1.11 99.91 989 13 13 12857 167141
43	1023586 26133 118 2095045 1.11 99.91 989 -0.880066 0.137112 -0.35417683792915 31.668707231489
44	1049719 26129 118 2095045 1.11 99.91 989 -1.02127 0.13725 -0.11234956336603 33.761362827245
45	1075848 23998 118 2095045 1.11 99.91 989 25.7963 30.56 28532.6258 826073.57309972
46	1099846 24003 118 2095045 1.11 99.91 989 23.7704 2873.98 1406561.6877 2655946305.6407
47	1123849 23121 118 2095045 1.11 99.91 989 242.45 242.45 239783.05 58135400.472499
48	1146970 23978 119 2095046 1.11 99.91 989 1.97869 14.8394 8161.23773 93226.259884467
49	1170948 25864 119 2095046 1.11 99.91 989 -0.00864785 0.323769 128.40177628994 29.490570576692
50	1196812 19165 119 2095046 1.11 99.91 989 14 14 13846 193844
51	1215977 26120 119 2095046 1.11 99.91 989 -0.880805 0.132178 -0.50265708416193 31.767957109906
52	1242097 26105 119 2095046 1.11 99.91 989 -1.01817 0.132284 -0.25464163074419 33.78982553638
53	1268202 23983 119 2095046 1.11 99.91 989 25.7237 30.56 28404.224 818810.74526186
54	1292185 24006 119 2095046 1.11 99.91 989 17.7704 2855.14 1394444.3559 2613653428.4495
55	1316191 23121 119 2095046 1.11 99.91 989 242.45 242.45 239783.05 58135400.472499
56	1339312 23958 120 2095047 1.11 99.91 989 1.99784 14.7751 7844.31097 87403.821523042
57	1363270 25876 120 2095047 1.11 99.91 989 -0.00263478 0.312719 127.76132505899 28.494968267817
58	1389146 19165 120 2095047 1.11 99.91 989 15 15 14835 222525
59	1408311 26117 120 2095047 1.11 99.91 989 -0.877821 0.127638 -0.70234955278699 31.707504391255
60	1434428 26112 120 2095047 1.11 99.91 989 -1.01812 0.127691 -0.44631201110699 33.964007047414
61	1460540 23998 120 2095047 1.11 99.91 989 25.6635 30.56 28276.4652 811589.9885719
62	1484538 24015 120 2095047 1.11 99.91 989 11.7704 2836.36 1382644.0491 2572689395.998
63	1508553 23121 120 2095047 1.11 99.91 989 242.45 242.45 239783.05 58135400.472499
64	1531674 24006 121 2095048 1.11 99.91 989 1.99956 14.9998 12044.8004 167689.66129874
65	1555680 26708 121 2095048 1.11 99.91 989 -0.000184926 0.8213 129.99829018466 72.134940556049
66	1582388 18176 121 2095048 1.11 99.91 989 2 2 1978 3956
67	1600564 27105 121 2095048 1.11 99.91 989 -0.612421 0.129607 -0.035676835664996 9.6688848989703
68	1627669 27122 121 2095048 1.11 99.91 989 -0.775625 0.130483 0.19073497643099 10.999988065076
69	1654791 24024 121 2095048 1.11 99.91 989 28.7349 30.56 29959.5335 907804.52055262
70	1678815 23964 121 2095048 1.11 99.91 989 89.7704 3082.67 1561168.6476 3204932011.8447
71	1702779 23121 121 2095048 1.11 99.91 989 242.45 242.45 239783.05 58135400.472499
72	1725900 23979 122 2095049 1.11 99.91 989 1.99964 14.9996 11721.11976 161139.33132075
73	1749879 26579 122 2095049 1.11 99.91 989 -7.54294e-05 0.691536 129.9963604039 61.385158648626
74	1776458 18176 122 2095049 1.11 99.91 989 3 3 2967 8901
75	1794634 26961 122 2095049 1.11 99.91 989 -0.73232 0.154626 -0.035925150722 15.354980548081
76	1821595 26977 122 2095049 1.11 99.91 989 -0.90645 0.155236 0.18898472176232 17.279941901833
77	1848572 24006 122 2095049 1.11 99.91 989 28.122 30.56 29829.5364 900182.80808146
78	1872578 23964 122 2095049 1.11 99.91 989 83.7704 3063.67 1545491.6133 3149010836.375
79	1896542 23121 122 2095049 1.11 99.91 989 242.45 242.45 239783.05 58135400.472499
80	1919663 23962 123 2095050 1.11 99.91 989 1.99967 14.9993 11394.21006 154656.34122973
81	1943625 26450 123 2095050 1.11 99.91 989 -0.000498006 0.607457 129.99350726546 54.219261078456
82	1970075 18176 123 2095050 1.11 99.91 989 4 4 3956 15824
83	1988251 26830 123 2095050 1.11 99.91 989 -0.798663 0.167315 -0.036851383819997 19.942334620153
84	2015081 26846 123 2095050 1.11 99.91 989 -0.967104 0.168021 0.18978846462999 21.994241004197
85	2041927 24005 123 2095050 1.11 99.91 989 27.6342 30.56 29699.541 892629.337235
86	2065932 23987 123 2095050 1.11 99.91 989 77.7704 3044.67 1530141.4438 3094234927.789
87	2089919 23121 123 2095050 1.11 99.91 989 242.45 242.45 239783.05 58135400.472499
88	2113040 23930 124 2095051 1.11 99.91 989 1.9998 14.9984 11071.23633 148293.86435197
89	2136970 26327 124 2095051 1.11 99.91 989 -3.49051e-05 0.544305 129.98403266767 48.830157190794
90	2163297 18176 124 2095051 1.11 99.91 989 5 5 4945 24725
91	2181473 26713 124 2095051 1.11 99.91 989 -0.835107 0.172282 -0.039073165810014 23.454074459588
92	2208186 26744 124 2095051 1.11 99.91 989 -1.00017 0.172695 0.18610511086999 25.753093557049
93	2234930 24002 124 2095051 1.11 99.91 989 27.2393 30.56 29569.5576 885126.40275802
94	2258932 23982 124 2095051 1.11 99.91 989 71.7704 3025.67 1515114.1939 3040620208.2357
95	2282914 23121 124 2095051 1.11 99.91 989 242.45 242.45 239783.05 58135400.472499
96	2306035 23957 125 2095052 1.11 99.91 989 1.9998 14.9967 10747.02252 141984.17884275
97	2329992 26209 125 2095052 1.11 99.91 989 -3.25908e-05 0.497222 129.96726597298 44.770769329861
98	2356201 18176 125 2095052 1.11 99.91 989 6 6 5934 35604
99	2374377 26604 125 2095052 1.11 99.91 989 -0.856151 0.172473 -0.043230396520025 26.068742176861
100	2400981 27612 125 2095052 1.11 99.91 989 -1.01001 0.172827 0.18236428820005 28.364752106759
101	2428593 24996 125 2095052 1.11 99.91 989 26.9169 30.56 29439.5923 877661.48895751
102	2453589 24992 125 2095052 1.11 99.91 989 65.7704 3006.67 1500411.1903 2988189183.2359
103	2478581 24110 125 2095052 1.11 99.91 989 242.45 242.45 239783.05 58135400.472499
104	2502691 24968 126 2095053 1.11 99.91 989 2 14.9937 10424.25097 135737.91644979
105	2527659 27042 126 2095053 1.11 99.91 989 -4.40233e-05 0.460433 129.93749123945 41.467072574673
106	2554701 19165 126 2095053 1.11 99.91 989 7 7 6923 48461
107	2573866 27486 126 2095053 1.11 99.91 989 -0.864766 0.169615 -0.050844848329984 27.870184686388
108	2601352 27513 126 2095053 1.11 99.91 989 -1.00808 0.169945 0.17560247048999 30.128690561479
109	2628865 24980 126 2095053 1.11 99.91 989 26.6549 30.56 29309.6547 870224.59022199
110	2653845 24989 126 2095053 1.11 99.91 989 59.7704 2987.68 1486030.7927 2936959830.9752
111	2678834 24110 126 2095053 1.11 99.91 989 242.45 242.45 239783.05 58135400.472499
112	2702944 24936 127 2095054 1.11 99.91 989 2 14.9887 10100.33032 129530.5484995
113	2727880 26959 127 2095054 1.11 99.91 989 -2.23314e-05 0.429993 129.88771225116 38.832884719816
114	2754839 19165 127 2095054 1.11 99.91 989 8 8 7912 63296
115	2774004 27420 127 2095054 1.11 99.91 989 -0.870674 0.165043 -0.063974415975007 29.193627546581
116	2801424 27434 127 2095054 1.11 99.91 989 -1.00778 0.165313 0.16322731142996 31.429235501387
117	2828858 24990 127 2095054 1.11 99.91 989 26.4384 30.56 29179.7667 862811.96688957
118	2853848 24990 127 2095054 1.11 99.91 989 53.7704 2968.69 1471974.5851 2886954842.6265
119	2878838 24110 127 2095054 1.11 99.91 989 242.45 242.45 239783.05 58135400.472499
120	2902948 24946 128 2095055 1.11 99.91 989 2 14.9807 9774.74481 123358.43508099
121	2927894 26904 128 2095055 1.11 99.91 989 -0.000218022 0.40641 129.80857132377 36.748981518623
122	2954798 19165 128 2095055 1.11 99.91 989 9 9 8901 80109
123	2973963 27324 128 2095055 1.11 99.91 989 -0.871026 0.159614 -0.085567053049995 30.017897695187
124	3001287 27348 128 2095055 1.11 99.91 989 -1.0091 0.159831 0.14280491751002 32.397875098483
125	3028635 24986 128 2095055 1.11 99.91 989 26.261 30.56 29049.959 855419.12940136
126	3053621 24977 128 2095055 1.11 99.91 989 47.7704 2949.71 1458243.6958 2838193994.157
127	3078598 24110 128 2095055 1.11 99.91 989 242.45 242.45 239783.05 58135400.472499
128	3102708 41637 2281 2095102 1.224919661151 99.924918174933 988 0.099990335904 0.100009186085 98.800004154919 9.8800008690985
129	3144345 29913 2281 2095102 1.224919661151 99.924918174933 988 10 10 9880 98800
130	3174258 41651 2417 2095232 1.227201701179 99.927200301654 988 0.099990790378 0.10000918587 98.799991241612 9.879998286738
131	3215909 28910 2417 2095232 1.227201701179 99.927200301654 988 8 8 7904 63232
132	3244819 41647 2548 2095363 1.231134721193 99.931133365026 988 0.099990336117 0.100009186086 98.80000428497 9.880000894979
133	3286466 28923 2548 2095363 1.231134721193 99.931133365026 988 7 7 6916 48412
134	3315389 41649 2676 2095497 1.249406841276 99.94940574529 988 0.099990790455 0.10000918587 98.799991545151 9.8799983473149
135	3357038 28919 2676 2095497 1.249406841276 99.94940574529 988 1 1 988 988
136	3385957 41649 2676 2095497 1.249406841276 99.94940574529 988 0.099990790455 0.10000918587 98.799991545151 9.8799983473149
137	3427606 28919 2676 2095497 1.249406841276 99.94940574529 988 1 1 988 988
138	3456525 41656 2682 2095503 1.24940686129 99.949405808667 988 0.09999079046 0.10000918587 98.799991588514 9.8799983559875
139	3498181 28923 2682 2095503 1.24940686129 99.949405808667 988 2 2 1976 3952
140	3527104 41662 2688 2095509 1.249406881303 99.949405872043 988 0.099990790469 0.10000918587 98.799991631876 9.8799983646599
141	3568766 28927 2688 2095509 1.249406881303 99.949405872043 988 3 3 2964 8892
142	3597693 41646 2694 2095515 1.249406901317 99.949405935418 988 0.099990790483 0.100009185871 98.799991675238 9.8799983733323
143	3639339 28917 2694 2095515 1.249406901317 99.949405935418 988 4 4 3952 15808
144	3668256 41610 2700 2095521 1.249406921331 99.94940599879 988 0.099990790506 0.10000918587 98.799991718596 9.8799983820039
145	3709866 28901 2700 2095521 1.249406921331 99.94940599879 988 5 5 4940 24700
146	3738767 41676 2706 2095527 1.249406941345 99.949406062156 988 0.099990790537 0.10000918587 98.799991761948 9.8799983906743
147	3780443 28915 2706 2095527 1.249406941345 99.949406062156 988 6 6 5928 35568
148	3809358 41669 2712 2095533 1.249406961359 99.949406125512 988 0.09999079058 0.100009185871 98.79999180529 9.8799983993427
149	3851027 28927 2712 2095533 1.249406961359 99.949406125512 988 7 7 6916 48412
150	3879954 41666 2718 2095539 1.249406981373 99.949406188852 988 0.099990790633 0.100009185871 98.799991848616 9.8799984080079
151	3921620 28917 2718 2095539 1.249406981373 99.949406188852 988 8 8 7904 63232
152	3950537 41655 2724 2095545 1.249407001387 99.949406252165 988 0.099990790698 0.100009185872 98.799991891915 9.8799984166677
153	3992192 28907 2724 2095545 1.249407001387 99.949406252165 988 9 9 8892 80028
154	4021099 41655 2730 2095551 1.2494070214 99.949406315437 988 0.099990790773 0.100009185873 98.799991935174 9.8799984253195
155	4062754 29920 2730 2095551 1.2494070214 99.949406315437 988 10 10 9880 98800
156	4092674 41653 2736 2095557 1.249407041414 99.94940637865 988 0.099990790857 0.100009185875 98.799991978373 9.8799984339593
157	4134327 29916 2736 2095557 1.249407041414 99.94940637865 988 11 11 10868 119548
158	4164243 41664 2742 2095563 1.249407061428 99.949406441776 988 0.099990790949 0.100009185877 98.799992021485 9.8799984425817
159	4205907 29919 2742 2095563 1.249407061428 99.949406441776 988 12 12 11856 142272
160	4235826 41669 2748 2095569 1.249407081442 99.949406504783 988 0.099990791046 0.100009185881 98.799992064478 9.8799984511803
161	4277495 29928 2748 2095569 1.249407081442 99.949406504783 988 13 13 12844 166972
162	4307423 41666 2754 2095575 1.249407101456 99.949406567626 988 0.099990791147 0.100009185886 98.799992107307 9.8799984597461
163	4349089 29908 2754 2095575 1.249407101456 99.949406567626 988 14 14 13832 193648
164	4378997 41661 2760 2095581 1.24940712147 99.949406630256 988 0.099990791248 0.100009185893 98.799992149923 9.8799984682693
165	4420658 29911 2760 2095581 1.24940712147 99.949406630256 988 15 15 14820 222300
166	4450569 41643 2809 2095624 1.249791001387 99.949855252165 988 0.099901641137 0.100100063938 98.799965891915 9.8799948931666
167	4492212 28913 2809 2095624 1.249791001387 99.949855252165 988 9 9 8892 80028
168	4521125 41661 3071 2095886 1.263273341622 99.963273325091 988 0.099990338267 0.100009186238 98.800005624606 9.8800011631421
169	4562786 28925 3071 2095886 1.263273341622 99.963273325091 988 6 6 5928 35568
170	4591711 41648 3202 2096017 1.271314361636 99.971314388469 988 0.099991227325 0.100009186238 98.80000566797 9.8800011718072
171	4633359 28915 3202 2096017 1.271314361636 99.971314388469 988 5 5 4940 24700
172	4662274 41651 3332 2096147 1.274051401664 99.974051515224 988 0.099990338324 0.100009186131 98.800005754697 9.8800011891464
173	4703925 28918 3332 2096147 1.274051401664 99.974051515224 988 3 3 2964 8892
174	4732843 41673 3463 2096278 1.28089664183 99.980897273444 988 0.099991019382 0.100009186047 98.799993272751 9.8799986924941
175	4774516 29904 3463 2096278 1.28089664183 99.980897273444 988 15 15 14820 222300
176	4804420 41636 3588 2096409 1.296425721885 99.996426526219 988 0.099990793181 0.100009186055 98.799993445471 9.8799987272935
177	4846056 29886 3588 2096409 1.296425721885 99.996426526219 988 11 11 10868 119548
178	4875942 41574 3728 2094434 1.300072781927 99.900077528922 987 0.099990876506 0.100009186173 98.700010388132 9.8700021155385
179	4917516 29851 3728 2094434 1.300072781927 99.900077528922 987 14 14 13818 193452
180	4947367 41526 3855 2094570 1.300548022093 99.900501288945 985 0.099709750192 0.200025330832 98.699971907989 9.9099995616134
181	4988893 28845 3855 2094570 1.300548022093 99.900501288945 985 2 2 1970 3940
182	5017738 41599 3985 2094694 1.300984062121 99.900976415696 987 0.099775166703 0.100225293172 98.699997994712 9.8700003665056
183	5059337 28870 3985 2094694 1.300984062121 99.900976415696 987 4 4 3948 15792
184	5088207 41631 4115 2094824 1.301719222232 99.901724922052 987 0.099990335481 0.100009186078 98.699998340957 9.8699997062773
185	5129838 29883 4115 2094824 1.301719222232 99.901724922052 987 12 12 11844 142128
186	5159721 41642 4245 2094954 1.304794242246 99.904799985057 987 0.099991226952 0.10000918619 98.699998383948 9.8699997149775
187	5201363 29896 4245 2094954 1.304794242246 99.904799985057 987 13 13 12831 166803
188	5231259 1625 18455 2096534 2 100 99 0 0 0 0
189	5232884 2895 18455 2096534 2 100 99 0.04361548997 0.050080952981 4.93853152477 0.24639440145924
190	5235779 1625 18455 2096534 2 100 99 0 0 0 0
191	5237404 1625 18456 2096535 2 100 99 1 1 99 99
192	5239029 2900 18456 2096535 2 100 99 0.043614509983 0.050076067791 4.938178714237 0.24635909179012
193	5241929 1625 18456 2096535 2 100 99 0 0 0 0
194	5243554 1724 18457 2096536 2 100 99 10 10 990 9900
195	5245278 2903 18457 2096536 2 100 99 0.043615690108 0.050080462486 4.937701424178 0.24631142415289
196	5248181 1625 18457 2096536 2 100 99 0 0 0 0
197	5249806 1724 18458 2096537 2 100 99 11 11 1089 11979
198	5251530 2899 18458 2096537 2 100 99 0.043614710121 0.050079230631 4.937700614073 0.24631135557775
199	5254429 1625 18458 2096537 2 100 99 0 0 0 0
200	5256054 1724 18459 2096538 2 100 99 12 12 1188 14256
201	5257778 2893 18459 2096538 2 100 99 0.043614730135 0.050080558837 4.937700803899 0.24631137440227
202	5260671 1625 18459 2096538 2 100 99 0 0 0 0
203	5262296 1724 18460 2096539 2 100 99 13 13 1287 16731
204	5264020 2901 18460 2096539 2 100 99 0.043615750149 0.050048955891 4.937667347645 0.24630801137625
205	5266921 1625 18460 2096539 2 100 99 0 0 0 0
206	5268546 1724 18461 2096540 2 100 99 14 14 1386 19404
207	5270270 2900 18461 2096540 2 100 99 0.043615730135 0.050048955193 4.937667284799 0.24630800535254
208	5273170 1625 18461 2096540 2 100 99 0 0 0 0
209	5274795 1724 18462 2096541 2 100 99 15 15 1485 22275
210	5276519 2902 18462 2096541 2 100 99 0.043615710121 0.050048954426 4.937667222166 0.24630799935003
211	5279421 1625 18462 2096541 2 100 99 0 0 0 0
212	5281046 1625 18463 2096542 2 100 99 2 2 198 396
213	5282671 2902 18463 2096542 2 100 99 0.043615529997 0.050073514072 4.938181156964 0.24635932297321
214	5285573 1625 18463 2096542 2 100 99 0 0 0 0
215	5287198 1625 18464 2096543 2 100 99 3 3 297 891
216	5288823 2904 18464 2096543 2 100 99 0.043614550011 0.050070735132 4.938179473665 0.24635916690836
217	5291727 1625 18464 2096543 2 100 99 0 0 0 0
218	5293352 1625 18465 2096544 2 100 99 4 4 396 1584
219	5294977 2901 18465 2096544 2 100 99 0.043615570025 0.050082458882 4.938180790396 0.24635928635672
220	5297878 1625 18465 2096544 2 100 99 0 0 0 0
221	5299503 1625 18466 2096545 2 100 99 5 5 495 2475
222	5301128 2893 18466 2096545 2 100 99 0.043615590038 0.050081077686 4.937700474121 0.24631133043654
223	5304021 1625 18466 2096545 2 100 99 0 0 0 0
224	5305646 1625 18467 2096546 2 100 99 6 6 594 3564
225	5307271 2902 18467 2096546 2 100 99 0.043615610052 0.050068132059 4.937700664151 0.24631134831598
226	5310173 1625 18467 2096546 2 100 99 0 0 0 0
227	5311798 1625 18468 2096547 2 100 99 7 7 693 4851
228	5313423 2900 18468 2096547 2 100 99 0.043615630066 0.050080745745 4.937700854191 0.24631136792209
229	5316323 1625 18468 2096547 2 100 99 0 0 0 0
230	5317948 1625 18469 2096548 2 100 99 8 8 792 6336
231	5319573 2900 18469 2096548 2 100 99 0.04361565008 0.050067587061 4.937701044207 0.24631138577904
232	5322473 1625 18469 2096548 2 100 99 0 0 0 0
233	5324098 1625 18470 2096549 2 100 99 9 9 891 8019
234	5325723 2898 18470 2096549 2 100 99 0.043615670094 0.050053496984 4.937891234203 0.24633037481972
235	5328621 1625 18470 2096549 2 100 99 0 0 0 0

