file 2451371 1720452012                                         
version 3
run BreakRanksNoGui-27-20240708-17:19:57-153870
attr configname BreakRanksNoGui
attr datetime 20240708-17:19:57
attr datetimef 20240708-171957
attr experiment BreakRanksNoGui
attr inifile omnetpp.ini
attr iterationvars "$nCars=8, $platoonSize=8, $nLanes=1, $ploegH=0.5, $controller=1, $headway=0.1, $leaderHeadway=1.2, $leaderSpeed=130, $breakRanksSafetyDistance=5, $minSpeed=120, $maxSpeed=140, $beaconInterval=0.1, $priority=4, $packetSize=200, $sController=\"CACC\", $0=2, $1=0"
attr iterationvarsd nCars=8/platoonSize=8/nLanes=1/ploegH=0.5/controller=1/headway=0.1/leaderHeadway=1.2/leaderSpeed=130/breakRanksSafetyDistance=5/minSpeed=120/maxSpeed=140/beaconInterval=0.1/priority=4/packetSize=200/sController=CACC/2/0
attr iterationvarsf nCars=8,platoonSize=8,nLanes=1,ploegH=0.5,controller=1,headway=0.1,leaderHeadway=1.2,leaderSpeed=130,breakRanksSafetyDistance=5,minSpeed=120,maxSpeed=140,beaconInterval=0.1,priority=4,packetSize=200,sController=CACC,2,0-
attr measurement "$nCars=8, $platoonSize=8, $nLanes=1, $ploegH=0.5, $controller=1, $headway=0.1, $leaderHeadway=1.2, $leaderSpeed=130, $breakRanksSafetyDistance=5, $minSpeed=120, $maxSpeed=140, $beaconInterval=0.1, $priority=4, $packetSize=200, $sController=\"CACC\", $0=2, $1=0"
attr network Highway
attr processid 153870
attr repetition 7
attr replication #7
attr resultdir results
attr runnumber 27
attr seedset 7
itervar beaconInterval 0.1
itervar breakRanksSafetyDistance 5
itervar controller 1
itervar headway 0.1
itervar leaderHeadway 1.2
itervar leaderSpeed 130
itervar maxSpeed 140
itervar minSpeed 120
itervar nCars 8
itervar nLanes 1
itervar packetSize 200
itervar platoonSize 8
itervar ploegH 0.5
itervar priority 4
itervar sController "\"CACC\""
config image-path ../../../veins/images
config repeat 10
config extends BreakRanks
config *.manager.command "\"sumo\""
config *.manager.ignoreGuiCommands true
config output-vector-file results/BreakRanks_1_0.1_130_5/result_7.vec
config output-scalar-file results/BreakRanks_1_0.1_130_5/result_7.sca
config extends Platooning
config *.node[*].scenario_type "\"BreakRanksScenario\""
config *.manager.command "\"sumo-gui\""
config *.node[*].scenario_type "\"SimpleScenario\""
config cmdenv-express-mode true
config cmdenv-autoflush true
config cmdenv-status-frequency 15s
config num-rngs 6
config network Highway
config debug-on-errors true
config print-undisposed true
config *.playgroundSizeX 65000m
config *.playgroundSizeY 25000m
config *.playgroundSizeZ 50m
config sim-time-limit "100 s"
config *.annotations.draw false
config *.obstacles.debug false
config *.world.useTorus false
config *.world.use2D false
config *.manager.updateInterval 0.01s
config *.manager.host "\"localhost\""
config *.manager.moduleType "\"org.car2x.plexe.PlatoonCar\""
config *.manager.moduleName "\"node\""
config *.manager.moduleDisplayString "\"\""
config *.manager.autoShutdown true
config *.manager.margin 25
config *.connectionManager.sendDirect true
config *.connectionManager.maxInterfDist 2600m
config *.connectionManager.drawMaxIntfDist false
config *.**.nic.mac1609_4.useServiceChannel false
config *.**.nic.mac1609_4.txPower 100mW
config *.**.nic.mac1609_4.bitrate 6Mbps
config *.**.nic.mac1609_4.useAcks true
config *.**.nic.mac1609_4.ackErrorRate 0.0
config *.**.nic.mac1609_4.frameErrorRate 0.0
config *.**.nic.phy80211p.minPowerLevel -94dBm
config *.**.nic.phy80211p.maxTXPower 100mW
config *.**.nic.phy80211p.useNoiseFloor true
config *.**.nic.phy80211p.noiseFloor -95dBm
config *.**.nic.phy80211p.decider "xmldoc(\"config.xml\")"
config *.**.nic.phy80211p.analogueModels "xmldoc(\"config.xml\")"
config *.**.nic.phy80211p.usePropagationDelay true
config *.node[*].mobility.x 0
config *.node[*].mobility.y 0
config *.node[*].mobility.z 1.895
config seed-set 7
config **.seed 7
config *.node[*].prot.rng-0 2
config *.node[*].appl.rng-0 3
config *.node[*].scenario.rng-0 4
config **.traffic.rng-0 5
config *.manager.configFile "\"./sumocfg/freeway.sumo.cfg\""
config *.manager.launchConfig "xmldoc(\"./sumocfg/freeway.launchd.xml\")"
config **.numberOfCars 8
config **.numberOfCarsPerPlatoon 8
config **.numberOfLanes 1
config *.node[*].helper_type "\"PositionHelper\""
config *.node[*].scenario.caccC1 0.5
config *.node[*].scenario.caccXi 1
config *.node[*].scenario.caccOmegaN "0.2 Hz"
config *.node[*].scenario.caccSpacing "2 m"
config *.node[*].scenario.engineTau "0.5 s"
config *.node[*].scenario.ploegH 0.5s
config *.node[*].scenario.ploegKp 0.2
config *.node[*].scenario.ploegKd 0.7
config *.node[*].scenario.useRealisticEngine false
config *.node[*].scenario.useControllerAcceleration true
config *.node[*].scenario.nLanes 1
config **.numericController 1
config **.headway 0.1s
config *.node[*].scenario.accHeadway 0.1s
config *.node[*].scenario.leaderHeadway 1.2s
config *.node[*].scenario.leaderSpeed 130kmph
config *.node[*].appl_type "\"SimplePlatooningApp\""
config *.node[*].appl.*.scalar-recording true
config *.node[*].appl.*.vector-recording true
config *.node[0].appl.breakRanksSafetyDistance 5m
config *.node[*].appl.minSpeed 120kmph
config *.node[*].appl.maxSpeed 140kmph
config *.node[*].protocol_type "\"SimplePlatooningBeaconing\""
config *.node[*].prot.*.scalar-recording true
config *.node[*].prot.*.vector-recording true
config *.node[*].prot.beaconingInterval 0.1s
config *.node[*].prot.priority 4
config *.node[*].prot.packetSize 200
config **.traffic_type "\"PlatoonsTrafficManager\""
config **.traffic.platoonInsertTime "1 s"
config **.traffic.platoonInsertSpeed 130kmph
config **.traffic.nCars 8
config **.traffic.platoonSize 8
config **.traffic.nLanes 1
config **.traffic.platooningVType "\"vtypeauto\""
config **.traffic.controller "\"CACC\""
config **.traffic.platoonInsertDistance 2m
config **.traffic.platoonInsertHeadway 0s
config **.traffic.platoonLeaderHeadway 1.2s
config **.scalar-recording false
config **.vector-recording false
config output-vector-file results/BreakRanksNoGui_1_0.1_130_5/result_7.vec
config output-scalar-file results/BreakRanksNoGui_1_0.1_130_5/result_7.sca

vector 0 Highway.node[0].appl distance ETV
vector 1 Highway.node[0].appl relativeSpeed ETV
vector 2 Highway.node[0].appl nodeId ETV
vector 3 Highway.node[0].appl acceleration ETV
vector 4 Highway.node[0].appl controllerAcceleration ETV
vector 5 Highway.node[0].appl speed ETV
vector 6 Highway.node[0].appl posx ETV
vector 7 Highway.node[0].appl posy ETV
vector 8 Highway.node[1].appl distance ETV
vector 9 Highway.node[1].appl relativeSpeed ETV
vector 10 Highway.node[1].appl nodeId ETV
vector 11 Highway.node[1].appl acceleration ETV
vector 12 Highway.node[1].appl controllerAcceleration ETV
vector 13 Highway.node[1].appl speed ETV
vector 14 Highway.node[1].appl posx ETV
vector 15 Highway.node[1].appl posy ETV
vector 16 Highway.node[2].appl distance ETV
vector 17 Highway.node[2].appl relativeSpeed ETV
vector 18 Highway.node[2].appl nodeId ETV
vector 19 Highway.node[2].appl acceleration ETV
vector 20 Highway.node[2].appl controllerAcceleration ETV
vector 21 Highway.node[2].appl speed ETV
vector 22 Highway.node[2].appl posx ETV
vector 23 Highway.node[2].appl posy ETV
vector 24 Highway.node[3].appl distance ETV
vector 25 Highway.node[3].appl relativeSpeed ETV
vector 26 Highway.node[3].appl nodeId ETV
vector 27 Highway.node[3].appl acceleration ETV
vector 28 Highway.node[3].appl controllerAcceleration ETV
vector 29 Highway.node[3].appl speed ETV
vector 30 Highway.node[3].appl posx ETV
vector 31 Highway.node[3].appl posy ETV
vector 32 Highway.node[4].appl distance ETV
vector 33 Highway.node[4].appl relativeSpeed ETV
vector 34 Highway.node[4].appl nodeId ETV
vector 35 Highway.node[4].appl acceleration ETV
vector 36 Highway.node[4].appl controllerAcceleration ETV
vector 37 Highway.node[4].appl speed ETV
vector 38 Highway.node[4].appl posx ETV
vector 39 Highway.node[4].appl posy ETV
vector 40 Highway.node[5].appl distance ETV
vector 41 Highway.node[5].appl relativeSpeed ETV
vector 42 Highway.node[5].appl nodeId ETV
vector 43 Highway.node[5].appl acceleration ETV
vector 44 Highway.node[5].appl controllerAcceleration ETV
vector 45 Highway.node[5].appl speed ETV
vector 46 Highway.node[5].appl posx ETV
vector 47 Highway.node[5].appl posy ETV
vector 48 Highway.node[6].appl distance ETV
vector 49 Highway.node[6].appl relativeSpeed ETV
vector 50 Highway.node[6].appl nodeId ETV
vector 51 Highway.node[6].appl acceleration ETV
vector 52 Highway.node[6].appl controllerAcceleration ETV
vector 53 Highway.node[6].appl speed ETV
vector 54 Highway.node[6].appl posx ETV
vector 55 Highway.node[6].appl posy ETV
vector 56 Highway.node[7].appl distance ETV
vector 57 Highway.node[7].appl relativeSpeed ETV
vector 58 Highway.node[7].appl nodeId ETV
vector 59 Highway.node[7].appl acceleration ETV
vector 60 Highway.node[7].appl controllerAcceleration ETV
vector 61 Highway.node[7].appl speed ETV
vector 62 Highway.node[7].appl posx ETV
vector 63 Highway.node[7].appl posy ETV
vector 64 Highway.node[4].prot frontDelay ETV
vector 65 Highway.node[4].prot frontDelayId ETV
vector 66 Highway.node[3].prot frontDelay ETV
vector 67 Highway.node[3].prot frontDelayId ETV
vector 68 Highway.node[7].prot frontDelay ETV
vector 69 Highway.node[7].prot frontDelayId ETV
vector 70 Highway.node[2].prot frontDelay ETV
vector 71 Highway.node[2].prot frontDelayId ETV
vector 72 Highway.node[6].prot frontDelay ETV
vector 73 Highway.node[6].prot frontDelayId ETV
vector 74 Highway.node[5].prot frontDelay ETV
vector 75 Highway.node[5].prot frontDelayId ETV
vector 76 Highway.node[1].prot leaderDelay ETV
vector 77 Highway.node[1].prot leaderDelayId ETV
vector 78 Highway.node[1].prot frontDelay ETV
vector 79 Highway.node[1].prot frontDelayId ETV
vector 80 Highway.node[2].prot leaderDelay ETV
vector 81 Highway.node[2].prot leaderDelayId ETV
vector 82 Highway.node[3].prot leaderDelay ETV
vector 83 Highway.node[3].prot leaderDelayId ETV
vector 84 Highway.node[4].prot leaderDelay ETV
vector 85 Highway.node[4].prot leaderDelayId ETV
vector 86 Highway.node[5].prot leaderDelay ETV
vector 87 Highway.node[5].prot leaderDelayId ETV
vector 88 Highway.node[6].prot leaderDelay ETV
vector 89 Highway.node[6].prot leaderDelayId ETV
vector 90 Highway.node[7].prot leaderDelay ETV
vector 91 Highway.node[7].prot leaderDelayId ETV
vector 92 Highway.node[0].prot nodeId ETV
vector 93 Highway.node[0].prot busyTime ETV
vector 94 Highway.node[0].prot collisions ETV
vector 95 Highway.node[1].prot nodeId ETV
vector 96 Highway.node[1].prot busyTime ETV
vector 97 Highway.node[1].prot collisions ETV
vector 98 Highway.node[2].prot nodeId ETV
vector 99 Highway.node[2].prot busyTime ETV
vector 100 Highway.node[2].prot collisions ETV
vector 101 Highway.node[3].prot nodeId ETV
vector 102 Highway.node[3].prot busyTime ETV
vector 103 Highway.node[3].prot collisions ETV
vector 104 Highway.node[4].prot nodeId ETV
vector 105 Highway.node[4].prot busyTime ETV
vector 106 Highway.node[4].prot collisions ETV
vector 107 Highway.node[5].prot nodeId ETV
vector 108 Highway.node[5].prot busyTime ETV
vector 109 Highway.node[5].prot collisions ETV
vector 110 Highway.node[6].prot nodeId ETV
vector 111 Highway.node[6].prot busyTime ETV
vector 112 Highway.node[6].prot collisions ETV
vector 113 Highway.node[7].prot nodeId ETV
vector 114 Highway.node[7].prot busyTime ETV
vector 115 Highway.node[7].prot collisions ETV
0	11335 17510 113 544537 1.11 99.91 989 -1 -1 -989 989
1	28845 16521 113 544537 1.11 99.91 989 0 0 0 0
2	45366 16521 113 544537 1.11 99.91 989 0 0 0 0
3	61887 18809 113 544537 1.11 99.91 989 -3.14892e-05 0.000707784 0.010991577126781 6.0508064149601e-06
4	80696 26467 113 544537 1.11 99.91 989 -4.89399e-05 0.00109259 0.010614843047836 8.6815283230331e-06
5	107163 22448 113 544537 1.11 99.91 989 36.11 36.1111 35713.866699999 1289666.6073546
6	129611 22343 113 544537 1.11 99.91 989 51.5199 3619.3 1815217.7308 4382871342.8188
7	151954 21466 113 544537 1.11 99.91 989 242.45 242.45 239783.05 58135400.472499
8	173420 20520 114 544538 1.11 99.91 989 -1 4.99843 2162.79063 11560.233421858
9	193940 21838 114 544538 1.11 99.91 989 -2.36679e-05 0.238847 29.984425047748 4.7385588184921
10	215778 17510 114 544538 1.11 99.91 989 1 1 989 989
11	233288 26982 114 544538 1.11 99.91 989 -0.714571 0.0318733 -11.060376503101 6.3648058807308
12	260270 26902 114 544538 1.11 99.91 989 -1.0979 0.04951 -10.321157719574 8.7063022727967
13	287172 22027 114 544538 1.11 99.91 989 34.9505 36.1111 35284.1593 1259078.012149
14	309199 23359 114 544538 1.11 99.91 989 45.5199 3570.38 1799695.5396 4305247671.9198
15	332558 22455 114 544538 1.11 99.91 989 242.45 245.75 241000.75 58729881.6125
16	355013 23308 115 544539 1.11 99.91 989 2 44.4361 15783.15169 520401.2474517
17	378321 25083 115 544539 1.11 99.91 989 0 2.68458 334.42053100066 462.59948362753
18	403404 17510 115 544539 1.11 99.91 989 2 2 1978 3956
19	420914 25905 115 544539 1.11 99.91 989 -1.69706 0.297067 -0.825100581961 38.751383461804
20	446819 25897 115 544539 1.11 99.91 989 -2.58918 0.335067 0.47192504500479 53.589839225025
21	472716 23335 115 544539 1.11 99.91 989 33.4265 36.1111 35349.462 1263824.0838999
22	496051 23327 115 544539 1.11 99.91 989 39.5199 3570.86 1790466.667 4268933995.8572
23	519378 22455 115 544539 1.11 99.91 989 242.45 242.45 239783.05 58135400.472499
24	541833 23288 116 544540 1.11 99.91 989 2 98.5958 20168.66471 1142631.3124356
25	565121 24782 116 544540 1.11 99.91 989 -2.63739e-07 3.30642 967.4693866435 2511.9590367914
26	589903 17510 116 544540 1.11 99.91 989 3 3 2967 8901
27	607413 26391 116 544540 1.11 99.91 989 -2.62078 0.597421 -31.04316174915 129.65028451301
28	633804 26414 116 544540 1.11 99.91 989 -3.35351 0.641242 -29.533961370268 158.73856287957
29	660218 22310 116 544540 1.11 99.91 989 30.3304 36.1111 34381.9927 1197957.582314
30	682528 23365 116 544540 1.11 99.91 989 33.5199 3468.26 1766341.177 4138275646.901
31	705893 22455 116 544540 1.11 99.91 989 242.45 242.45 239783.05 58135400.472499
32	728348 23260 117 544541 1.11 99.91 989 2 40.4473 13209.8457 380055.89923916
33	751608 24974 117 544541 1.11 99.91 989 -4.35878e-07 3.25272 384.5302660494 662.7236914717
34	776582 17510 117 544541 1.11 99.91 989 4 4 3956 15824
35	794092 25708 117 544541 1.11 99.91 989 -2.91474 0.845448 -32.182950203432 224.41050288597
36	819800 25725 117 544541 1.11 99.91 989 -3.35731 0.889232 -30.616841609239 255.72443146457
37	845525 23333 117 544541 1.11 99.91 989 27.566 36.1111 33997.4632 1173648.7915173
38	868858 23328 117 544541 1.11 99.91 989 27.5199 3423.82 1749176.3332 4053341893.4747
39	892186 22455 117 544541 1.11 99.91 989 242.45 242.45 239783.05 58135400.472499
40	914641 23297 118 544542 1.11 99.91 989 1.99922 113.563 26350.56576 2183157.0892569
41	937938 23967 118 544542 1.11 99.91 989 -0.00142146 8.32357 667.85506173374 2521.0374138679
42	961905 17510 118 544542 1.11 99.91 989 5 5 4945 24725
43	979415 26142 118 544542 1.11 99.91 989 -2.98011 1.49994 -21.045037312854 373.92262293062
44	1005557 25960 118 544542 1.11 99.91 989 -3.35673 1.5 -20.07596748869 421.21172751745
45	1031517 22490 118 544542 1.11 99.91 989 25.6501 36.1111 34348.0363 1197337.2886862
46	1054007 23361 118 544542 1.11 99.91 989 21.5199 3452.82 1746233.0669 4055342290.4348
47	1077368 22455 118 544542 1.11 99.91 989 242.45 249.05 240921.55 58691651.7725
48	1099823 22132 119 544543 1.11 99.91 989 -1 61.6787 7449.39281 258518.96523612
49	1121955 23054 119 544543 1.11 99.91 989 -0.000951425 3.0109 422.34206689343 1181.2462343085
50	1145009 17510 119 544543 1.11 99.91 989 6 6 5934 35604
51	1162519 25994 119 544543 1.11 99.91 989 -1.24917 0.0556291 -21.057566890635 21.562179180569
52	1188513 26443 119 544543 1.11 99.91 989 -1.5 0.0863588 -20.188797559849 27.909159772063
53	1214956 22063 119 544543 1.11 99.91 989 33.9136 36.1111 34778.7919 1223821.6805426
54	1237019 23374 119 544543 1.11 99.91 989 15.5199 3489.89 1752831.0897 4110522811.0873
55	1260393 22455 119 544543 1.11 99.91 989 242.45 252.35 242383.45 59415130.572501
56	1282848 22246 120 544544 1.11 99.91 989 -1 49.7654 10637.82489 413582.5311944
57	1305094 24074 120 544544 1.11 99.91 989 -0.917032 0.106524 -20.605141095167 24.263611199485
58	1329168 17510 120 544544 1.11 99.91 989 7 7 6923 48461
59	1346678 26166 120 544544 1.11 99.91 989 -0.401754 1.18506 8.9749611193984 21.831121594537
60	1372844 26168 120 544544 1.11 99.91 989 -0.465229 1.5 9.9826059632088 30.598241993966
61	1399012 22971 120 544544 1.11 99.91 989 35.08 37.0821 35497.0808 1274412.9414104
62	1421983 23361 120 544544 1.11 99.91 989 9.5199 3555.57 1755772.5301 4148425079.7868
63	1445344 22455 120 544544 1.11 99.91 989 242.45 249.05 241598.05 59025425.652501
64	1467799 40017 702 544586 1.214462500346 99.914464994208 988 0.099987480335 0.100009013718 98.800002974194 9.8800006067994
65	1507816 27276 702 544586 1.214462500346 99.914464994208 988 4 4 3952 15808
66	1535092 40017 769 544665 1.22169752036 99.921700530692 988 0.099987480333 0.100008815429 98.800003490664 9.880000709609
67	1575109 27284 769 544665 1.22169752036 99.921700530692 988 3 3 2964 8892
68	1602393 40004 903 544787 1.247009640443 99.947012682512 988 0.099987480334 0.100009075768 98.800003522401 9.8800007168059
69	1642397 27266 903 544787 1.247009640443 99.947012682512 988 7 7 6916 48412
70	1669663 40011 970 544842 1.254140740512 99.954143743014 988 0.099987480334 0.100009075771 98.800003482834 9.8800007089426
71	1709674 27272 970 544842 1.254140740512 99.954143743014 988 2 2 1976 3952
72	1736946 40018 1038 544922 1.273478820567 99.973482248338 988 0.099987480334 0.100008815629 98.800003908103 9.8800007930942
73	1776964 27266 1038 544922 1.273478820567 99.973482248338 988 6 6 5928 35568
74	1804230 39987 1105 544977 1.285042840581 99.985033319457 988 0.099987480333 0.100008739415 98.799990959208 9.8799982035021
75	1844217 27257 1105 544977 1.285042840581 99.985033319457 988 5 5 4940 24700
76	1871474 40012 1166 545050 1.293967920636 99.993972038575 988 0.099987480334 0.100009075781 98.800004598271 9.8800009318187
77	1911486 27282 1166 545050 1.293967920636 99.993972038575 988 1 1 988 988
78	1938768 40012 1166 545050 1.293967920636 99.993972038575 988 0.099987480334 0.100009075781 98.800004598271 9.8800009318187
79	1978780 27282 1166 545050 1.293967920636 99.993972038575 988 1 1 988 988
80	2006062 40036 1172 545044 1.29396794065 99.9939720363 988 0.099987480334 0.100009075781 98.800004575982 9.8800009273609
81	2046098 27289 1172 545044 1.29396794065 99.9939720363 988 2 2 1976 3952
82	2073387 40011 1178 545068 1.293967960664 99.99397237943 988 0.099987480334 0.100009075782 98.800004899098 9.8800009919841
83	2113398 27276 1178 545068 1.293967960664 99.99397237943 988 3 3 2964 8892
84	2140674 40038 1184 545080 1.293967980677 99.993972527725 988 0.099987480334 0.100009075784 98.80000502738 9.8800010176405
85	2180712 27279 1184 545080 1.293967980677 99.993972527725 988 4 4 3952 15808
86	2207991 40029 1190 545074 1.293968000691 99.993972430761 988 0.099987480334 0.100009075786 98.800004910402 9.8800009942449
87	2248020 27282 1190 545074 1.293968000691 99.993972430761 988 5 5 4940 24700
88	2275302 40020 1196 545062 1.293968020705 99.993972307541 988 0.099987480334 0.10000907579 98.800004767168 9.8800009655981
89	2315322 27273 1196 545062 1.293968020705 99.993972307541 988 6 6 5928 35568
90	2342595 40030 1202 545056 1.293968040719 99.993972088138 988 0.099987480334 0.100009075795 98.800004527751 9.8800009177147
91	2382625 27277 1202 545056 1.293968040719 99.993972088138 988 7 7 6916 48412
92	2409902 1459 5026 545082 2 100 99 0 0 0 0
93	2411361 2068 5026 545082 2 100 99 0.022473 0.026130677684 2.471606677684 0.061713157382225
94	2413429 1459 5026 545082 2 100 99 0 0 0 0
95	2414888 1459 5027 545083 2 100 99 1 1 99 99
96	2416347 2068 5027 545083 2 100 99 0.022473 0.025898 2.471214059378 0.06169302328456
97	2418415 1459 5027 545083 2 100 99 0 0 0 0
98	2419874 1459 5028 545084 2 100 99 2 2 198 396
99	2421333 2067 5028 545084 2 100 99 0.022473 0.025898 2.47121411912 0.061693026285412
100	2423400 1558 5028 545084 2 100 99 0 0 0 0
101	2424958 1558 5029 545085 2 100 99 3 3 297 891
102	2426516 2167 5029 545085 2 100 99 0.022473 0.025898 2.471214178972 0.061693029291795
103	2428683 1558 5029 545085 2 100 99 0 0 0 0
104	2430241 1558 5030 545086 2 100 99 4 4 396 1584
105	2431799 2167 5030 545086 2 100 99 0.022473 0.025898 2.471214238866 0.061693032300296
106	2433966 1558 5030 545086 2 100 99 0 0 0 0
107	2435524 1558 5031 545087 2 100 99 5 5 495 2475
108	2437082 2165 5031 545087 2 100 99 0.022473 0.025898 2.4712142988 0.061693035310813
109	2439247 1558 5031 545087 2 100 99 0 0 0 0
110	2440805 1558 5032 545088 2 100 99 6 6 594 3564
111	2442363 2167 5032 545088 2 100 99 0.022473 0.025898 2.471214358738 0.061693038321538
112	2444530 1558 5032 545088 2 100 99 0 0 0 0
113	2446088 1558 5033 545089 2 100 99 7 7 693 4851
114	2447646 2166 5033 545089 2 100 99 0.022473 0.02593141869 2.47121441869 0.061693095872276
115	2449812 1558 5033 545089 2 100 99 0 0 0 0

