file 2405406 1720453514                                         
version 3
run BreakRanksNoGui-25-20240708-17:45:00-155202
attr configname BreakRanksNoGui
attr datetime 20240708-17:45:00
attr datetimef 20240708-174500
attr experiment BreakRanksNoGui
attr inifile omnetpp.ini
attr iterationvars "$nCars=8, $platoonSize=8, $nLanes=1, $ploegH=0.5, $controller=1, $headway=0.1, $leaderHeadway=1.2, $leaderSpeed=130, $breakRanksSafetyDistance=2, $minSpeed=120, $maxSpeed=140, $beaconInterval=0.1, $priority=4, $packetSize=200, $sController=\"CACC\", $0=2, $1=0"
attr iterationvarsd nCars=8/platoonSize=8/nLanes=1/ploegH=0.5/controller=1/headway=0.1/leaderHeadway=1.2/leaderSpeed=130/breakRanksSafetyDistance=2/minSpeed=120/maxSpeed=140/beaconInterval=0.1/priority=4/packetSize=200/sController=CACC/2/0
attr iterationvarsf nCars=8,platoonSize=8,nLanes=1,ploegH=0.5,controller=1,headway=0.1,leaderHeadway=1.2,leaderSpeed=130,breakRanksSafetyDistance=2,minSpeed=120,maxSpeed=140,beaconInterval=0.1,priority=4,packetSize=200,sController=CACC,2,0-
attr measurement "$nCars=8, $platoonSize=8, $nLanes=1, $ploegH=0.5, $controller=1, $headway=0.1, $leaderHeadway=1.2, $leaderSpeed=130, $breakRanksSafetyDistance=2, $minSpeed=120, $maxSpeed=140, $beaconInterval=0.1, $priority=4, $packetSize=200, $sController=\"CACC\", $0=2, $1=0"
attr network Highway
attr processid 155202
attr repetition 5
attr replication #5
attr resultdir results
attr runnumber 25
attr seedset 5
itervar beaconInterval 0.1
itervar breakRanksSafetyDistance 2
itervar controller 1
itervar headway 0.1
itervar leaderHeadway 1.2
itervar leaderSpeed 130
itervar maxSpeed 140
itervar minSpeed 120
itervar nCars 8
itervar nLanes 1
itervar packetSize 200
itervar platoonSize 8
itervar ploegH 0.5
itervar priority 4
itervar sController "\"CACC\""
config image-path ../../../veins/images
config repeat 10
config extends BreakRanks
config *.manager.command "\"sumo\""
config *.manager.ignoreGuiCommands true
config output-vector-file results/BreakRanks_1_0.1_130_2/result_5.vec
config output-scalar-file results/BreakRanks_1_0.1_130_2/result_5.sca
config extends Platooning
config *.node[*].scenario_type "\"BreakRanksScenario\""
config *.manager.command "\"sumo-gui\""
config *.node[*].scenario_type "\"SimpleScenario\""
config cmdenv-express-mode true
config cmdenv-autoflush true
config cmdenv-status-frequency 15s
config num-rngs 6
config network Highway
config debug-on-errors true
config print-undisposed true
config *.playgroundSizeX 65000m
config *.playgroundSizeY 25000m
config *.playgroundSizeZ 50m
config sim-time-limit "100 s"
config *.annotations.draw false
config *.obstacles.debug false
config *.world.useTorus false
config *.world.use2D false
config *.manager.updateInterval 0.01s
config *.manager.host "\"localhost\""
config *.manager.moduleType "\"org.car2x.plexe.PlatoonCar\""
config *.manager.moduleName "\"node\""
config *.manager.moduleDisplayString "\"\""
config *.manager.autoShutdown true
config *.manager.margin 25
config *.connectionManager.sendDirect true
config *.connectionManager.maxInterfDist 2600m
config *.connectionManager.drawMaxIntfDist false
config *.**.nic.mac1609_4.useServiceChannel false
config *.**.nic.mac1609_4.txPower 100mW
config *.**.nic.mac1609_4.bitrate 6Mbps
config *.**.nic.mac1609_4.useAcks true
config *.**.nic.mac1609_4.ackErrorRate 0.0
config *.**.nic.mac1609_4.frameErrorRate 0.0
config *.**.nic.phy80211p.minPowerLevel -94dBm
config *.**.nic.phy80211p.maxTXPower 100mW
config *.**.nic.phy80211p.useNoiseFloor true
config *.**.nic.phy80211p.noiseFloor -95dBm
config *.**.nic.phy80211p.decider "xmldoc(\"config.xml\")"
config *.**.nic.phy80211p.analogueModels "xmldoc(\"config.xml\")"
config *.**.nic.phy80211p.usePropagationDelay true
config *.node[*].mobility.x 0
config *.node[*].mobility.y 0
config *.node[*].mobility.z 1.895
config seed-set 5
config **.seed 5
config *.node[*].prot.rng-0 2
config *.node[*].appl.rng-0 3
config *.node[*].scenario.rng-0 4
config **.traffic.rng-0 5
config *.manager.configFile "\"./sumocfg/freeway.sumo.cfg\""
config *.manager.launchConfig "xmldoc(\"./sumocfg/freeway.launchd.xml\")"
config **.numberOfCars 8
config **.numberOfCarsPerPlatoon 8
config **.numberOfLanes 1
config *.node[*].helper_type "\"PositionHelper\""
config *.node[*].scenario.caccC1 0.5
config *.node[*].scenario.caccXi 1
config *.node[*].scenario.caccOmegaN "0.2 Hz"
config *.node[*].scenario.caccSpacing "2 m"
config *.node[*].scenario.engineTau "0.5 s"
config *.node[*].scenario.ploegH 0.5s
config *.node[*].scenario.ploegKp 0.2
config *.node[*].scenario.ploegKd 0.7
config *.node[*].scenario.useRealisticEngine false
config *.node[*].scenario.useControllerAcceleration true
config *.node[*].scenario.nLanes 1
config **.numericController 1
config **.headway 0.1s
config *.node[*].scenario.accHeadway 0.1s
config *.node[*].scenario.leaderHeadway 1.2s
config *.node[*].scenario.leaderSpeed 130kmph
config *.node[*].appl_type "\"SimplePlatooningApp\""
config *.node[*].appl.*.scalar-recording true
config *.node[*].appl.*.vector-recording true
config *.node[0].appl.breakRanksSafetyDistance 2m
config *.node[*].appl.minSpeed 120kmph
config *.node[*].appl.maxSpeed 140kmph
config *.node[*].protocol_type "\"SimplePlatooningBeaconing\""
config *.node[*].prot.*.scalar-recording true
config *.node[*].prot.*.vector-recording true
config *.node[*].prot.beaconingInterval 0.1s
config *.node[*].prot.priority 4
config *.node[*].prot.packetSize 200
config **.traffic_type "\"PlatoonsTrafficManager\""
config **.traffic.platoonInsertTime "1 s"
config **.traffic.platoonInsertSpeed 130kmph
config **.traffic.nCars 8
config **.traffic.platoonSize 8
config **.traffic.nLanes 1
config **.traffic.platooningVType "\"vtypeauto\""
config **.traffic.controller "\"CACC\""
config **.traffic.platoonInsertDistance 2m
config **.traffic.platoonInsertHeadway 0s
config **.traffic.platoonLeaderHeadway 1.2s
config **.scalar-recording false
config **.vector-recording false
config output-vector-file results/BreakRanksNoGui_1_0.1_130_2/result_5.vec
config output-scalar-file results/BreakRanksNoGui_1_0.1_130_2/result_5.sca

vector 0 Highway.node[0].appl distance ETV
vector 1 Highway.node[0].appl relativeSpeed ETV
vector 2 Highway.node[0].appl nodeId ETV
vector 3 Highway.node[0].appl acceleration ETV
vector 4 Highway.node[0].appl controllerAcceleration ETV
vector 5 Highway.node[0].appl speed ETV
vector 6 Highway.node[0].appl posx ETV
vector 7 Highway.node[0].appl posy ETV
vector 8 Highway.node[1].appl distance ETV
vector 9 Highway.node[1].appl relativeSpeed ETV
vector 10 Highway.node[1].appl nodeId ETV
vector 11 Highway.node[1].appl acceleration ETV
vector 12 Highway.node[1].appl controllerAcceleration ETV
vector 13 Highway.node[1].appl speed ETV
vector 14 Highway.node[1].appl posx ETV
vector 15 Highway.node[1].appl posy ETV
vector 16 Highway.node[2].appl distance ETV
vector 17 Highway.node[2].appl relativeSpeed ETV
vector 18 Highway.node[2].appl nodeId ETV
vector 19 Highway.node[2].appl acceleration ETV
vector 20 Highway.node[2].appl controllerAcceleration ETV
vector 21 Highway.node[2].appl speed ETV
vector 22 Highway.node[2].appl posx ETV
vector 23 Highway.node[2].appl posy ETV
vector 24 Highway.node[3].appl distance ETV
vector 25 Highway.node[3].appl relativeSpeed ETV
vector 26 Highway.node[3].appl nodeId ETV
vector 27 Highway.node[3].appl acceleration ETV
vector 28 Highway.node[3].appl controllerAcceleration ETV
vector 29 Highway.node[3].appl speed ETV
vector 30 Highway.node[3].appl posx ETV
vector 31 Highway.node[3].appl posy ETV
vector 32 Highway.node[4].appl distance ETV
vector 33 Highway.node[4].appl relativeSpeed ETV
vector 34 Highway.node[4].appl nodeId ETV
vector 35 Highway.node[4].appl acceleration ETV
vector 36 Highway.node[4].appl controllerAcceleration ETV
vector 37 Highway.node[4].appl speed ETV
vector 38 Highway.node[4].appl posx ETV
vector 39 Highway.node[4].appl posy ETV
vector 40 Highway.node[5].appl distance ETV
vector 41 Highway.node[5].appl relativeSpeed ETV
vector 42 Highway.node[5].appl nodeId ETV
vector 43 Highway.node[5].appl acceleration ETV
vector 44 Highway.node[5].appl controllerAcceleration ETV
vector 45 Highway.node[5].appl speed ETV
vector 46 Highway.node[5].appl posx ETV
vector 47 Highway.node[5].appl posy ETV
vector 48 Highway.node[6].appl distance ETV
vector 49 Highway.node[6].appl relativeSpeed ETV
vector 50 Highway.node[6].appl nodeId ETV
vector 51 Highway.node[6].appl acceleration ETV
vector 52 Highway.node[6].appl controllerAcceleration ETV
vector 53 Highway.node[6].appl speed ETV
vector 54 Highway.node[6].appl posx ETV
vector 55 Highway.node[6].appl posy ETV
vector 56 Highway.node[7].appl distance ETV
vector 57 Highway.node[7].appl relativeSpeed ETV
vector 58 Highway.node[7].appl nodeId ETV
vector 59 Highway.node[7].appl acceleration ETV
vector 60 Highway.node[7].appl controllerAcceleration ETV
vector 61 Highway.node[7].appl speed ETV
vector 62 Highway.node[7].appl posx ETV
vector 63 Highway.node[7].appl posy ETV
vector 64 Highway.node[2].prot frontDelay ETV
vector 65 Highway.node[2].prot frontDelayId ETV
vector 66 Highway.node[6].prot frontDelay ETV
vector 67 Highway.node[6].prot frontDelayId ETV
vector 68 Highway.node[3].prot frontDelay ETV
vector 69 Highway.node[3].prot frontDelayId ETV
vector 70 Highway.node[4].prot frontDelay ETV
vector 71 Highway.node[4].prot frontDelayId ETV
vector 72 Highway.node[5].prot frontDelay ETV
vector 73 Highway.node[5].prot frontDelayId ETV
vector 74 Highway.node[1].prot leaderDelay ETV
vector 75 Highway.node[1].prot leaderDelayId ETV
vector 76 Highway.node[1].prot frontDelay ETV
vector 77 Highway.node[1].prot frontDelayId ETV
vector 78 Highway.node[2].prot leaderDelay ETV
vector 79 Highway.node[2].prot leaderDelayId ETV
vector 80 Highway.node[3].prot leaderDelay ETV
vector 81 Highway.node[3].prot leaderDelayId ETV
vector 82 Highway.node[4].prot leaderDelay ETV
vector 83 Highway.node[4].prot leaderDelayId ETV
vector 84 Highway.node[5].prot leaderDelay ETV
vector 85 Highway.node[5].prot leaderDelayId ETV
vector 86 Highway.node[6].prot leaderDelay ETV
vector 87 Highway.node[6].prot leaderDelayId ETV
vector 88 Highway.node[7].prot leaderDelay ETV
vector 89 Highway.node[7].prot leaderDelayId ETV
vector 90 Highway.node[7].prot frontDelay ETV
vector 91 Highway.node[7].prot frontDelayId ETV
vector 92 Highway.node[0].prot nodeId ETV
vector 93 Highway.node[0].prot busyTime ETV
vector 94 Highway.node[0].prot collisions ETV
vector 95 Highway.node[1].prot nodeId ETV
vector 96 Highway.node[1].prot busyTime ETV
vector 97 Highway.node[1].prot collisions ETV
vector 98 Highway.node[2].prot nodeId ETV
vector 99 Highway.node[2].prot busyTime ETV
vector 100 Highway.node[2].prot collisions ETV
vector 101 Highway.node[3].prot nodeId ETV
vector 102 Highway.node[3].prot busyTime ETV
vector 103 Highway.node[3].prot collisions ETV
vector 104 Highway.node[4].prot nodeId ETV
vector 105 Highway.node[4].prot busyTime ETV
vector 106 Highway.node[4].prot collisions ETV
vector 107 Highway.node[5].prot nodeId ETV
vector 108 Highway.node[5].prot busyTime ETV
vector 109 Highway.node[5].prot collisions ETV
vector 110 Highway.node[6].prot nodeId ETV
vector 111 Highway.node[6].prot busyTime ETV
vector 112 Highway.node[6].prot collisions ETV
vector 113 Highway.node[7].prot nodeId ETV
vector 114 Highway.node[7].prot busyTime ETV
vector 115 Highway.node[7].prot collisions ETV
0	11335 19517 113 542290 1.11 99.91 989 -1 69.6546 20545.0956 1132438.6277342
1	30852 18846 113 542290 1.11 99.91 989 0 1.12869 372.059994 337.9380142697
2	49698 16523 113 542290 1.11 99.91 989 0 0 0 0
3	66221 21877 113 542290 1.11 99.91 989 -0.18888 0.106665 0.0084934291850678 0.55430578331545
4	88098 26411 113 542290 1.11 99.91 989 -0.325952 0.114012 -0.037997883261266 0.87717513283751
5	114509 22435 113 542290 1.11 99.91 989 35.8713 36.1185 35707.1442 1289182.3321921
6	136944 22347 113 542290 1.11 99.91 989 58.4099 3625.51 1821771.2111 4406405702.1893
7	159291 21468 113 542290 1.11 99.91 989 242.45 242.45 239783.05 58135400.472499
8	180759 17924 114 542291 1.11 99.91 989 -1 2.0003 -718.97853 1259.0858857771
9	198683 17443 114 542291 1.11 99.91 989 -2.36679e-05 0.000135767 0.002572557748 2.8318437151517e-07
10	216126 17512 114 542291 1.11 99.91 989 1 1 989 989
11	233638 25911 114 542291 1.11 99.91 989 -0.025531 0.57215 8.9245210952223 3.9659693336968
12	259549 27590 114 542291 1.11 99.91 989 -0.0396936 0.888767 8.9495952175053 5.997447261443
13	287139 19425 114 542291 1.11 99.91 989 36.11 37.0397 36504.1362 1347442.1338553
14	306564 23420 114 542291 1.11 99.91 989 52.4099 3699.17 1851228.4199 4567249177.2318
15	329984 22457 114 542291 1.11 99.91 989 242.45 245.75 241393.45 58921597.752499
16	352441 23285 115 542292 1.11 99.91 989 2 118.626 61732.62229 5006067.2054187
17	375726 23260 115 542292 1.11 99.91 989 0 3.1981 1106.8116796868 1522.4547587753
18	398986 17512 115 542292 1.11 99.91 989 2 2 1978 3956
19	416498 22042 115 542292 1.11 99.91 989 -2.02228 0.353912 -11.04485182684 53.65920613303
20	438540 27043 115 542292 1.11 99.91 989 -3.08596 0.399174 -9.6499663034902 74.756670677033
21	465583 19879 115 542292 1.11 99.91 989 32.913 36.1111 34600.3304 1210780.7228844
22	485462 23420 115 542292 1.11 99.91 989 46.4099 3502.89 1755544.4152 4100425620.2727
23	508882 22457 115 542292 1.11 99.91 989 242.45 242.45 239783.05 58135400.472499
24	531339 23281 116 542293 1.11 99.91 989 2 43.9936 34785.565 1426546.7408329
25	554620 25254 116 542293 1.11 99.91 989 0 3.57768 419.93609558642 834.29881585454
26	579874 17512 116 542293 1.11 99.91 989 3 3 2967 8901
27	597386 26156 116 542293 1.11 99.91 989 -2.88427 0.676211 -11.047417508328 165.12355733333
28	623542 26163 116 542293 1.11 99.91 989 -3.60523 0.726201 -9.4809405470753 199.50673143838
29	649705 23332 116 542293 1.11 99.91 989 29.6066 36.1111 34180.3962 1182856.7960426
30	673037 23270 116 542293 1.11 99.91 989 40.4099 3454.89 1716801.137 3942233328.9897
31	696307 22457 116 542293 1.11 99.91 989 242.45 242.45 239783.05 58135400.472499
32	718764 22664 117 542294 1.11 99.91 989 2 91.8678 43031.35979 2423609.0978094
33	741428 22234 117 542294 1.11 99.91 989 0 3.51461 1297.8989769183 2199.1552364428
34	763662 17512 117 542294 1.11 99.91 989 4 4 3956 15824
35	781174 25295 117 542294 1.11 99.91 989 -3.14921 0.939775 -31.041029291269 275.72923735373
36	806469 26936 117 542294 1.11 99.91 989 -3.60808 0.988893 -29.543283739259 312.12693744091
37	833405 20525 117 542294 1.11 99.91 989 26.6616 36.1111 32489.6996 1070195.8473152
38	853930 23414 117 542294 1.11 99.91 989 34.4099 3279.92 1637236.0031 3573612453.0397
39	877344 22457 117 542294 1.11 99.91 989 242.45 242.45 239783.05 58135400.472499
40	899801 18915 118 542295 1.11 99.91 989 -1 22.9633 -569.95819 3754.3335610535
41	918716 18525 118 542295 1.11 99.91 989 -1.38837e-07 4.01289 18.257653989505 67.082195959607
42	937241 17512 118 542295 1.11 99.91 989 5 5 4945 24725
43	954753 21661 118 542295 1.11 99.91 989 -3.08413 1.48497 8.9278668195171 133.26292731262
44	976414 27704 118 542295 1.11 99.91 989 -3.60808 1.5 12.400858034938 208.48322743685
45	1004118 19629 118 542295 1.11 99.91 989 32.7483 37.1028 36387.4723 1339197.6727648
46	1023747 22570 118 542295 1.11 99.91 989 28.4099 3663.5 1817272.5318 4437040070.5317
47	1046317 22457 118 542295 1.11 99.91 989 242.45 249.05 244271.05 60336722.2325
48	1068774 23313 119 542296 1.11 99.91 989 2 97.9396 57495.61211 4029701.5607772
49	1092087 22663 119 542296 1.11 99.91 989 -0.144858 11.33 1295.13285878 5253.7519418842
50	1114750 17512 119 542296 1.11 99.91 989 6 6 5934 35604
51	1132262 22041 119 542296 1.11 99.91 989 -3.12495 1.49996 -21.063754664973 396.30385318307
52	1154303 27317 119 542296 1.11 99.91 989 -3.60808 1.5 -20.099893703634 448.08050728615
53	1181620 19923 119 542296 1.11 99.91 989 25.223 36.1111 33340.4997 1127372.6307098
54	1201543 23416 119 542296 1.11 99.91 989 22.4099 3352.95 1661051.2141 3704682004.795
55	1224959 22457 119 542296 1.11 99.91 989 242.45 249.05 241485.85 58967948.892499
56	1247416 23104 120 542297 1.11 99.91 989 2 184.635 102089.30036 12961093.394132
57	1270520 19437 120 542297 1.11 99.91 989 -1.71315e-06 5.74391 1851.297014978 4124.7702586644
58	1289957 17512 120 542297 1.11 99.91 989 7 7 6923 48461
59	1307469 21660 120 542297 1.11 99.91 989 -3.2011 1.47068 -11.0190845742 173.83886679115
60	1329129 27685 120 542297 1.11 99.91 989 -3.60808 1.5 -8.3245580141214 256.19683038933
61	1356814 19637 120 542297 1.11 99.91 989 31.241 36.1111 34620.1275 1212278.2569905
62	1376451 23428 120 542297 1.11 99.91 989 16.4099 3474.87 1727329.6592 4002437290.8646
63	1399879 22457 120 542297 1.11 99.91 989 242.45 245.75 242696.95 59557966.4525
64	1422336 39970 702 542339 1.21723162043 99.91723183895 988 0.099987600416 0.100004615569 98.800000818936 9.8800001888144
65	1462306 27256 702 542339 1.21723162043 99.91723183895 988 2 2 1976 3952
66	1489562 39980 771 542426 1.244031700485 99.944032339974 988 0.099987600416 0.100004615903 98.800001239905 9.8800002729907
67	1529542 27258 771 542426 1.244031700485 99.944032339974 988 6 6 5928 35568
68	1556800 40004 837 542468 1.248211760527 99.948211999861 988 0.099987600416 0.100004611492 98.79998783975 9.879997593034
69	1596804 27275 837 542468 1.248211760527 99.948211999861 988 3 3 2964 8892
70	1624079 40005 904 542553 1.253002780541 99.95300358383 988 0.099987600417 0.100004616236 98.800001403705 9.8800003057265
71	1664084 27272 904 542553 1.253002780541 99.95300358383 988 4 4 3952 15808
72	1691356 39958 971 542626 1.266282800555 99.966284864154 988 0.099987600416 0.10000461757 98.800002664015 9.8800005578306
73	1731314 27247 971 542626 1.266282800555 99.966284864154 988 5 5 4940 24700
74	1758561 40018 1100 542737 1.296353000694 99.996354983453 988 0.099987600416 0.100004617569 98.800002583175 9.8800005416499
75	1798579 27294 1100 542737 1.296353000694 99.996354983453 988 1 1 988 988
76	1825873 40018 1100 542737 1.296353000694 99.996354983453 988 0.099987600416 0.100004617569 98.800002583175 9.8800005416499
77	1865891 27294 1100 542737 1.296353000694 99.996354983453 988 1 1 988 988
78	1893185 40029 1106 542743 1.296353020708 99.996355146871 988 0.099987600416 0.100004617644 98.800002726579 9.8800005703306
79	1933214 27286 1106 542743 1.296353020708 99.996355146871 988 2 2 1976 3952
80	1960500 40011 1112 542755 1.296353040722 99.99635530696 988 0.099987600416 0.100004617644 98.800002866654 9.8800005983456
81	2000511 27288 1112 542755 1.296353040722 99.99635530696 988 3 3 2964 8892
82	2027799 39979 1118 542767 1.296353060735 99.996355891196 988 0.099987600416 0.100004618311 98.800003430877 9.8800007111902
83	2067778 27250 1118 542767 1.296353060735 99.996355891196 988 4 4 3952 15808
84	2095028 39986 1124 542731 1.296353080749 99.996354864959 988 0.099987600417 0.100004617568 98.800002384626 9.88000050194
85	2135014 27267 1124 542731 1.296353080749 99.996354864959 988 5 5 4940 24700
86	2162281 40032 1130 542761 1.296353100763 99.996355647294 988 0.099987600416 0.100004617977 98.800003146947 9.8800006544043
87	2202313 27290 1130 542761 1.296353100763 99.996355647294 988 6 6 5928 35568
88	2229603 39968 1136 542749 1.296353120777 99.996355240457 988 0.099987600416 0.100004617643 98.800002720096 9.880000569034
89	2269571 27254 1136 542749 1.296353120777 99.996355240457 988 7 7 6916 48412
90	2296825 39941 1173 542264 1.305928120777 99.905926436123 987 0.099987600418 0.100004610158 98.699998915762 9.8699998081102
91	2336766 27227 1173 542264 1.305928120777 99.905926436123 987 7 7 6909 48363
92	2363993 1459 4960 542769 2 100 99 0 0 0 0
93	2365452 2060 4960 542769 2 100 99 0.022161 0.02718748105 2.47143848105 0.061709856346844
94	2367512 1459 4960 542769 2 100 99 0 0 0 0
95	2368971 1459 4961 542770 2 100 99 1 1 99 99
96	2370430 2061 4961 542770 2 100 99 0.022161 0.026890600422 2.471141600422 0.061693801612056
97	2372491 1459 4961 542770 2 100 99 0 0 0 0
98	2373950 1459 4962 542771 2 100 99 2 2 198 396
99	2375409 2061 4962 542771 2 100 99 0.022161 0.026950520366 2.471201520366 0.061697027768998
100	2377470 1558 4962 542771 2 100 99 0 0 0 0
101	2379028 1558 4963 542772 2 100 99 3 3 297 891
102	2380586 2160 4963 542772 2 100 99 0.022161 0.026950480338 2.471201480338 0.061697025611449
103	2382746 1558 4963 542772 2 100 99 0 0 0 0
104	2384304 1558 4964 542773 2 100 99 4 4 396 1584
105	2385862 2159 4964 542773 2 100 99 0.022161 0.02689044031 2.47114144031 0.061693793001066
106	2388021 1558 4964 542773 2 100 99 0 0 0 0
107	2389579 1558 4965 542774 2 100 99 5 5 495 2475
108	2391137 2159 4965 542774 2 100 99 0.022161 0.02697664045 2.47122764045 0.061698436350968
109	2393296 1558 4965 542774 2 100 99 0 0 0 0
110	2394854 1558 4966 542775 2 100 99 6 6 594 3564
111	2396412 2159 4966 542775 2 100 99 0.02216 0.027009640452 2.471259640452 0.061700173577346
112	2398571 1558 4966 542775 2 100 99 0 0 0 0
113	2400129 1558 4967 542776 2 100 99 7 7 693 4851
114	2401687 2160 4967 542776 2 100 99 0.022161 0.027042800566 2.471293800566 0.061702010283452
115	2403847 1558 4967 542776 2 100 99 0 0 0 0

