version 3
run BreakRanksNoGui-26-20240708-17:45:15-155226
attr configname BreakRanksNoGui
attr datetime 20240708-17:45:15
attr datetimef 20240708-174515
attr experiment BreakRanksNoGui
attr inifile omnetpp.ini
attr iterationvars "$nCars=8, $platoonSize=8, $nLanes=1, $ploegH=0.5, $controller=1, $headway=0.1, $leaderHeadway=1.2, $leaderSpeed=130, $breakRanksSafetyDistance=2, $minSpeed=120, $maxSpeed=140, $beaconInterval=0.1, $priority=4, $packetSize=200, $sController=\"CACC\", $0=2, $1=0"
attr iterationvarsd nCars=8/platoonSize=8/nLanes=1/ploegH=0.5/controller=1/headway=0.1/leaderHeadway=1.2/leaderSpeed=130/breakRanksSafetyDistance=2/minSpeed=120/maxSpeed=140/beaconInterval=0.1/priority=4/packetSize=200/sController=CACC/2/0
attr iterationvarsf nCars=8,platoonSize=8,nLanes=1,ploegH=0.5,controller=1,headway=0.1,leaderHeadway=1.2,leaderSpeed=130,breakRanksSafetyDistance=2,minSpeed=120,maxSpeed=140,beaconInterval=0.1,priority=4,packetSize=200,sController=CACC,2,0-
attr measurement "$nCars=8, $platoonSize=8, $nLanes=1, $ploegH=0.5, $controller=1, $headway=0.1, $leaderHeadway=1.2, $leaderSpeed=130, $breakRanksSafetyDistance=2, $minSpeed=120, $maxSpeed=140, $beaconInterval=0.1, $priority=4, $packetSize=200, $sController=\"CACC\", $0=2, $1=0"
attr network Highway
attr processid 155226
attr repetition 6
attr replication #6
attr resultdir results
attr runnumber 26
attr seedset 6
itervar beaconInterval 0.1
itervar breakRanksSafetyDistance 2
itervar controller 1
itervar headway 0.1
itervar leaderHeadway 1.2
itervar leaderSpeed 130
itervar maxSpeed 140
itervar minSpeed 120
itervar nCars 8
itervar nLanes 1
itervar packetSize 200
itervar platoonSize 8
itervar ploegH 0.5
itervar priority 4
itervar sController "\"CACC\""
config image-path ../../../veins/images
config repeat 10
config extends BreakRanks
config *.manager.command "\"sumo\""
config *.manager.ignoreGuiCommands true
config output-vector-file results/BreakRanks_1_0.1_130_2/result_6.vec
config output-scalar-file results/BreakRanks_1_0.1_130_2/result_6.sca
config extends Platooning
config *.node[*].scenario_type "\"BreakRanksScenario\""
config *.manager.command "\"sumo-gui\""
config *.node[*].scenario_type "\"SimpleScenario\""
config cmdenv-express-mode true
config cmdenv-autoflush true
config cmdenv-status-frequency 15s
config num-rngs 6
config network Highway
config debug-on-errors true
config print-undisposed true
config *.playgroundSizeX 65000m
config *.playgroundSizeY 25000m
config *.playgroundSizeZ 50m
config sim-time-limit "100 s"
config *.annotations.draw false
config *.obstacles.debug false
config *.world.useTorus false
config *.world.use2D false
config *.manager.updateInterval 0.01s
config *.manager.host "\"localhost\""
config *.manager.moduleType "\"org.car2x.plexe.PlatoonCar\""
config *.manager.moduleName "\"node\""
config *.manager.moduleDisplayString "\"\""
config *.manager.autoShutdown true
config *.manager.margin 25
config *.connectionManager.sendDirect true
config *.connectionManager.maxInterfDist 2600m
config *.connectionManager.drawMaxIntfDist false
config *.**.nic.mac1609_4.useServiceChannel false
config *.**.nic.mac1609_4.txPower 100mW
config *.**.nic.mac1609_4.bitrate 6Mbps
config *.**.nic.mac1609_4.useAcks true
config *.**.nic.mac1609_4.ackErrorRate 0.0
config *.**.nic.mac1609_4.frameErrorRate 0.0
config *.**.nic.phy80211p.minPowerLevel -94dBm
config *.**.nic.phy80211p.maxTXPower 100mW
config *.**.nic.phy80211p.useNoiseFloor true
config *.**.nic.phy80211p.noiseFloor -95dBm
config *.**.nic.phy80211p.decider "xmldoc(\"config.xml\")"
config *.**.nic.phy80211p.analogueModels "xmldoc(\"config.xml\")"
config *.**.nic.phy80211p.usePropagationDelay true
config *.node[*].mobility.x 0
config *.node[*].mobility.y 0
config *.node[*].mobility.z 1.895
config seed-set 6
config **.seed 6
config *.node[*].prot.rng-0 2
config *.node[*].appl.rng-0 3
config *.node[*].scenario.rng-0 4
config **.traffic.rng-0 5
config *.manager.configFile "\"./sumocfg/freeway.sumo.cfg\""
config *.manager.launchConfig "xmldoc(\"./sumocfg/freeway.launchd.xml\")"
config **.numberOfCars 8
config **.numberOfCarsPerPlatoon 8
config **.numberOfLanes 1
config *.node[*].helper_type "\"PositionHelper\""
config *.node[*].scenario.caccC1 0.5
config *.node[*].scenario.caccXi 1
config *.node[*].scenario.caccOmegaN "0.2 Hz"
config *.node[*].scenario.caccSpacing "2 m"
config *.node[*].scenario.engineTau "0.5 s"
config *.node[*].scenario.ploegH 0.5s
config *.node[*].scenario.ploegKp 0.2
config *.node[*].scenario.ploegKd 0.7
config *.node[*].scenario.useRealisticEngine false
config *.node[*].scenario.useControllerAcceleration true
config *.node[*].scenario.nLanes 1
config **.numericController 1
config **.headway 0.1s
config *.node[*].scenario.accHeadway 0.1s
config *.node[*].scenario.leaderHeadway 1.2s
config *.node[*].scenario.leaderSpeed 130kmph
config *.node[*].appl_type "\"SimplePlatooningApp\""
config *.node[*].appl.*.scalar-recording true
config *.node[*].appl.*.vector-recording true
config *.node[0].appl.breakRanksSafetyDistance 2m
config *.node[*].appl.minSpeed 120kmph
config *.node[*].appl.maxSpeed 140kmph
config *.node[*].protocol_type "\"SimplePlatooningBeaconing\""
config *.node[*].prot.*.scalar-recording true
config *.node[*].prot.*.vector-recording true
config *.node[*].prot.beaconingInterval 0.1s
config *.node[*].prot.priority 4
config *.node[*].prot.packetSize 200
config **.traffic_type "\"PlatoonsTrafficManager\""
config **.traffic.platoonInsertTime "1 s"
config **.traffic.platoonInsertSpeed 130kmph
config **.traffic.nCars 8
config **.traffic.platoonSize 8
config **.traffic.nLanes 1
config **.traffic.platooningVType "\"vtypeauto\""
config **.traffic.controller "\"CACC\""
config **.traffic.platoonInsertDistance 2m
config **.traffic.platoonInsertHeadway 0s
config **.traffic.platoonLeaderHeadway 1.2s
config **.scalar-recording false
config **.vector-recording false
config output-vector-file results/BreakRanksNoGui_1_0.1_130_2/result_6.vec
config output-scalar-file results/BreakRanksNoGui_1_0.1_130_2/result_6.sca

vector 0 Highway.node[0].appl distance ETV
vector 1 Highway.node[0].appl relativeSpeed ETV
vector 2 Highway.node[0].appl nodeId ETV
vector 3 Highway.node[0].appl acceleration ETV
vector 4 Highway.node[0].appl controllerAcceleration ETV
vector 5 Highway.node[0].appl speed ETV
vector 6 Highway.node[0].appl posx ETV
vector 7 Highway.node[0].appl posy ETV
vector 8 Highway.node[1].appl distance ETV
vector 9 Highway.node[1].appl relativeSpeed ETV
vector 10 Highway.node[1].appl nodeId ETV
vector 11 Highway.node[1].appl acceleration ETV
vector 12 Highway.node[1].appl controllerAcceleration ETV
vector 13 Highway.node[1].appl speed ETV
vector 14 Highway.node[1].appl posx ETV
vector 15 Highway.node[1].appl posy ETV
vector 16 Highway.node[2].appl distance ETV
vector 17 Highway.node[2].appl relativeSpeed ETV
vector 18 Highway.node[2].appl nodeId ETV
vector 19 Highway.node[2].appl acceleration ETV
vector 20 Highway.node[2].appl controllerAcceleration ETV
vector 21 Highway.node[2].appl speed ETV
vector 22 Highway.node[2].appl posx ETV
vector 23 Highway.node[2].appl posy ETV
vector 24 Highway.node[3].appl distance ETV
vector 25 Highway.node[3].appl relativeSpeed ETV
vector 26 Highway.node[3].appl nodeId ETV
vector 27 Highway.node[3].appl acceleration ETV
vector 28 Highway.node[3].appl controllerAcceleration ETV
vector 29 Highway.node[3].appl speed ETV
vector 30 Highway.node[3].appl posx ETV
vector 31 Highway.node[3].appl posy ETV
vector 32 Highway.node[4].appl distance ETV
vector 33 Highway.node[4].appl relativeSpeed ETV
vector 34 Highway.node[4].appl nodeId ETV
vector 35 Highway.node[4].appl acceleration ETV
vector 36 Highway.node[4].appl controllerAcceleration ETV
vector 37 Highway.node[4].appl speed ETV
vector 38 Highway.node[4].appl posx ETV
vector 39 Highway.node[4].appl posy ETV
vector 40 Highway.node[5].appl distance ETV
vector 41 Highway.node[5].appl relativeSpeed ETV
vector 42 Highway.node[5].appl nodeId ETV
vector 43 Highway.node[5].appl acceleration ETV
vector 44 Highway.node[5].appl controllerAcceleration ETV
vector 45 Highway.node[5].appl speed ETV
vector 46 Highway.node[5].appl posx ETV
vector 47 Highway.node[5].appl posy ETV
vector 48 Highway.node[6].appl distance ETV
vector 49 Highway.node[6].appl relativeSpeed ETV
vector 50 Highway.node[6].appl nodeId ETV
vector 51 Highway.node[6].appl acceleration ETV
vector 52 Highway.node[6].appl controllerAcceleration ETV
vector 53 Highway.node[6].appl speed ETV
vector 54 Highway.node[6].appl posx ETV
vector 55 Highway.node[6].appl posy ETV
vector 56 Highway.node[7].appl distance ETV
vector 57 Highway.node[7].appl relativeSpeed ETV
vector 58 Highway.node[7].appl nodeId ETV
vector 59 Highway.node[7].appl acceleration ETV
vector 60 Highway.node[7].appl controllerAcceleration ETV
vector 61 Highway.node[7].appl speed ETV
vector 62 Highway.node[7].appl posx ETV
vector 63 Highway.node[7].appl posy ETV
vector 64 Highway.node[1].prot leaderDelay ETV
vector 65 Highway.node[1].prot leaderDelayId ETV
vector 66 Highway.node[1].prot frontDelay ETV
vector 67 Highway.node[1].prot frontDelayId ETV
vector 68 Highway.node[2].prot leaderDelay ETV
vector 69 Highway.node[2].prot leaderDelayId ETV
vector 70 Highway.node[3].prot leaderDelay ETV
vector 71 Highway.node[3].prot leaderDelayId ETV
vector 72 Highway.node[4].prot leaderDelay ETV
vector 73 Highway.node[4].prot leaderDelayId ETV
vector 74 Highway.node[5].prot leaderDelay ETV
vector 75 Highway.node[5].prot leaderDelayId ETV
vector 76 Highway.node[6].prot leaderDelay ETV
vector 77 Highway.node[6].prot leaderDelayId ETV
vector 78 Highway.node[7].prot leaderDelay ETV
vector 79 Highway.node[7].prot leaderDelayId ETV
vector 80 Highway.node[7].prot frontDelay ETV
vector 81 Highway.node[7].prot frontDelayId ETV
vector 82 Highway.node[3].prot frontDelay ETV
vector 83 Highway.node[3].prot frontDelayId ETV
vector 84 Highway.node[6].prot frontDelay ETV
vector 85 Highway.node[6].prot frontDelayId ETV
vector 86 Highway.node[2].prot frontDelay ETV
vector 87 Highway.node[2].prot frontDelayId ETV
vector 88 Highway.node[4].prot frontDelay ETV
vector 89 Highway.node[4].prot frontDelayId ETV
vector 90 Highway.node[5].prot frontDelay ETV
vector 91 Highway.node[5].prot frontDelayId ETV
vector 92 Highway.node[0].prot nodeId ETV
vector 93 Highway.node[0].prot busyTime ETV
vector 94 Highway.node[0].prot collisions ETV
vector 95 Highway.node[1].prot nodeId ETV
vector 96 Highway.node[1].prot busyTime ETV
vector 97 Highway.node[1].prot collisions ETV
vector 98 Highway.node[2].prot nodeId ETV
vector 99 Highway.node[2].prot busyTime ETV
vector 100 Highway.node[2].prot collisions ETV
vector 101 Highway.node[3].prot nodeId ETV
vector 102 Highway.node[3].prot busyTime ETV
vector 103 Highway.node[3].prot collisions ETV
vector 104 Highway.node[4].prot nodeId ETV
vector 105 Highway.node[4].prot busyTime ETV
vector 106 Highway.node[4].prot collisions ETV
vector 107 Highway.node[5].prot nodeId ETV
vector 108 Highway.node[5].prot busyTime ETV
vector 109 Highway.node[5].prot collisions ETV
vector 110 Highway.node[6].prot nodeId ETV
vector 111 Highway.node[6].prot busyTime ETV
vector 112 Highway.node[6].prot collisions ETV
vector 113 Highway.node[7].prot nodeId ETV
vector 114 Highway.node[7].prot busyTime ETV
vector 115 Highway.node[7].prot collisions ETV
0	113	1.11	-1
0	659	1.21	-1
0	1205	1.31	-1
0	1751	1.41	-1
0	2297	1.51	-1
0	2843	1.61	-1
0	3389	1.71	-1
0	3935	1.81	-1
0	4481	1.91	-1
0	5035	2.01	-1
0	5581	2.11	-1
0	6127	2.21	-1
0	6673	2.31	-1
0	7219	2.41	-1
0	7765	2.51	-1
0	8311	2.61	-1
0	8857	2.71	-1
0	9403	2.81	-1
0	9949	2.91	-1
0	10503	3.01	-1
0	11049	3.11	-1
0	11595	3.21	-1
0	12141	3.31	-1
0	12687	3.41	-1
0	13233	3.51	-1
0	13779	3.61	-1
0	14325	3.71	-1
0	14871	3.81	-1
0	15417	3.91	-1
0	15971	4.01	-1
0	16517	4.11	-1
0	17063	4.21	-1
0	17609	4.31	-1
0	18155	4.41	-1
0	18701	4.51	-1
0	19247	4.61	-1
0	19793	4.71	-1
0	20339	4.81	-1
0	20885	4.91	-1
0	21439	5.01	-1
0	21985	5.11	-1
0	22531	5.21	-1
0	23077	5.31	-1
0	23623	5.41	-1
0	24169	5.51	-1
0	24715	5.61	-1
0	25261	5.71	-1
0	25807	5.81	-1
0	26353	5.91	-1
0	26907	6.01	-1
0	27453	6.11	-1
0	27999	6.21	-1
0	28545	6.31	-1
0	29091	6.41	-1
0	29637	6.51	-1
0	30183	6.61	-1
0	30729	6.71	-1
0	31275	6.81	-1
0	31821	6.91	-1
0	32375	7.01	-1
0	32921	7.11	-1
0	33467	7.21	-1
0	34013	7.31	-1
0	34559	7.41	-1
0	35105	7.51	-1
0	35651	7.61	-1
0	36197	7.71	-1
0	36743	7.81	-1
0	37289	7.91	-1
0	37843	8.01	-1
0	38389	8.11	-1
0	38935	8.21	-1
0	39481	8.31	-1
0	40027	8.41	-1
0	40573	8.51	-1
0	41119	8.61	-1
0	41665	8.71	-1
0	42211	8.81	-1
0	42757	8.91	-1
0	43311	9.01	-1
0	43857	9.11	-1
0	44403	9.21	-1
0	44949	9.31	-1
0	45495	9.41	-1
0	46041	9.51	-1
0	46587	9.61	-1
0	47133	9.71	-1
0	47679	9.81	-1
0	48225	9.91	-1
0	50642	10.01	-1
0	51188	10.11	-1
0	51734	10.21	-1
0	52280	10.31	-1
0	52826	10.41	-1
0	53372	10.51	-1
0	53918	10.61	-1
0	54464	10.71	-1
0	55010	10.81	-1
0	55556	10.91	-1
0	56110	11.01	-1
0	56656	11.11	-1
0	57202	11.21	-1
0	57748	11.31	-1
0	58294	11.41	-1
0	58840	11.51	-1
0	59386	11.61	-1
0	59932	11.71	-1
0	60478	11.81	-1
0	61024	11.91	-1
0	61578	12.01	-1
0	62124	12.11	-1
0	62670	12.21	-1
0	63216	12.31	-1
0	63762	12.41	-1
0	64308	12.51	-1
0	64854	12.61	-1
0	65400	12.71	-1
0	65946	12.81	-1
0	66492	12.91	-1
0	67046	13.01	-1
0	67592	13.11	-1
0	68138	13.21	-1
0	68684	13.31	-1
0	69230	13.41	-1
0	69776	13.51	-1
0	70322	13.61	-1
0	70868	13.71	-1
0	71414	13.81	-1
0	71960	13.91	-1
0	72514	14.01	-1
0	73060	14.11	-1
0	73606	14.21	-1
0	74152	14.31	-1
0	74698	14.41	-1
0	75244	14.51	-1
0	75790	14.61	-1
0	76336	14.71	-1
0	76882	14.81	-1
0	77428	14.91	-1
0	77982	15.01	-1
0	78528	15.11	-1
0	79074	15.21	-1
0	79620	15.31	-1
0	80166	15.41	-1
0	80712	15.51	-1
0	81258	15.61	-1
0	81804	15.71	-1
0	82350	15.81	-1
0	82896	15.91	-1
0	83450	16.01	-1
0	83996	16.11	-1
0	84542	16.21	-1
0	85088	16.31	-1
0	85634	16.41	-1
0	86180	16.51	-1
0	86726	16.61	-1
0	87272	16.71	-1
0	87818	16.81	-1
0	88364	16.91	-1
0	88918	17.01	-1
0	89464	17.11	-1
0	90010	17.21	-1
0	90556	17.31	-1
0	91102	17.41	-1
0	91648	17.51	-1
0	92194	17.61	-1
0	92740	17.71	-1
0	93286	17.81	-1
0	93832	17.91	-1
0	94386	18.01	-1
0	94932	18.11	-1
0	95478	18.21	-1
0	96024	18.31	-1
0	96570	18.41	-1
0	97116	18.51	-1
0	97662	18.61	-1
0	98208	18.71	-1
0	98754	18.81	-1
0	99300	18.91	-1
0	99854	19.01	-1
0	100400	19.11	-1
0	100946	19.21	-1
0	101492	19.31	-1
0	102038	19.41	-1
0	102584	19.51	-1
0	103130	19.61	-1
0	103676	19.71	-1
0	104222	19.81	-1
0	104768	19.91	-1
0	105322	20.01	-1
0	105868	20.11	-1
0	106414	20.21	-1
0	106960	20.31	-1
0	107506	20.41	-1
0	108052	20.51	-1
0	108598	20.61	-1
0	109144	20.71	-1
0	109690	20.81	-1
0	110236	20.91	-1
0	110790	21.01	-1
0	111336	21.11	-1
0	111882	21.21	-1
0	112428	21.31	-1
0	112974	21.41	-1
0	113520	21.51	-1
0	114066	21.61	-1
0	114612	21.71	-1
0	115158	21.81	-1
0	115704	21.91	-1
0	116258	22.01	-1
0	116804	22.11	-1
0	117350	22.21	-1
0	117896	22.31	-1
0	118442	22.41	-1
0	118988	22.51	-1
0	119534	22.61	-1
0	120080	22.71	-1
0	120626	22.81	-1
0	121172	22.91	-1
0	121726	23.01	-1
0	122272	23.11	-1
0	122818	23.21	-1
0	123364	23.31	-1
0	123910	23.41	-1
0	124456	23.51	-1
0	125002	23.61	-1
0	125548	23.71	-1
0	126094	23.81	-1
0	126640	23.91	-1
0	127194	24.01	-1
0	127740	24.11	-1
0	128286	24.21	-1
0	128832	24.31	-1
0	129378	24.41	-1
0	129924	24.51	-1
0	130470	24.61	-1
0	131016	24.71	-1
0	131562	24.81	-1
0	132108	24.91	-1
0	132662	25.01	-1
0	133208	25.11	-1
0	133754	25.21	-1
0	134300	25.31	-1
0	134846	25.41	-1
0	135392	25.51	-1
0	135938	25.61	-1
0	136484	25.71	-1
0	137030	25.81	-1
0	137576	25.91	-1
0	138130	26.01	-1
0	138676	26.11	-1
0	139222	26.21	-1
0	139768	26.31	-1
0	140314	26.41	-1
0	140860	26.51	-1
0	141406	26.61	-1
0	141952	26.71	-1
0	142498	26.81	-1
0	143044	26.91	-1
0	143598	27.01	-1
0	144144	27.11	-1
0	144690	27.21	-1
0	145236	27.31	-1
0	145782	27.41	-1
0	146328	27.51	-1
0	146874	27.61	-1
0	147420	27.71	-1
0	147966	27.81	-1
0	148512	27.91	-1
0	149066	28.01	-1
0	149612	28.11	-1
0	150158	28.21	-1
0	150704	28.31	-1
0	151250	28.41	-1
0	151796	28.51	-1
0	152342	28.61	-1
0	152888	28.71	-1
0	153434	28.81	-1
0	153980	28.91	-1
0	154534	29.01	-1
0	155080	29.11	-1
0	155626	29.21	-1
0	156172	29.31	-1
0	156718	29.41	-1
0	157264	29.51	-1
0	157810	29.61	-1
0	158356	29.71	-1
0	158902	29.81	-1
0	159448	29.91	-1
0	160002	30.01	-1
0	160548	30.11	-1
0	161094	30.21	-1
0	161640	30.31	-1
0	162186	30.41	-1
0	162732	30.51	-1
0	163278	30.61	-1
0	163824	30.71	-1
0	164370	30.81	-1
0	164916	30.91	-1
0	165470	31.01	-1
0	166016	31.11	-1
0	166562	31.21	-1
0	167108	31.31	-1
0	167654	31.41	-1
0	168200	31.51	28.5149
0	168746	31.61	28.7038
0	169292	31.71	28.8927
0	169838	31.81	29.0816
0	170384	31.91	29.2705
0	170938	32.01	29.4594
0	171484	32.11	29.6483
0	172030	32.21	29.8371
0	172576	32.31	30.026
0	173122	32.41	30.2149
0	173668	32.51	30.4038
0	174214	32.61	30.5927
0	174760	32.71	30.7816
0	175306	32.81	30.9705
0	175852	32.91	31.1594
0	176406	33.01	31.3483
0	176952	33.11	31.5372
0	177498	33.21	31.726
0	178044	33.31	31.9149
0	178590	33.41	32.1038
0	179136	33.51	32.2927
0	179682	33.61	32.4816
0	180228	33.71	32.6705
0	180774	33.81	32.8594
0	181320	33.91	33.0483
0	181874	34.01	33.2372
0	182420	34.11	33.4261
0	182966	34.21	33.6149
0	183512	34.31	33.8038
0	184058	34.41	33.9927
0	184604	34.51	34.1816
0	185150	34.61	34.3705
0	185696	34.71	34.5594
0	186242	34.81	34.7483
0	186788	34.91	34.9372
0	187342	35.01	35.1261
0	187888	35.11	35.315
0	188434	35.21	35.5038
0	188980	35.31	35.6927
0	189526	35.41	35.8816
0	190072	35.51	36.0705
0	190618	35.61	36.2594
0	191164	35.71	36.4483
0	191710	35.81	36.6372
0	192256	35.91	36.8261
0	192810	36.01	37.015
0	193356	36.11	37.2039
0	193902	36.21	37.3927
0	194448	36.31	37.5816
0	194994	36.41	37.7705
0	195540	36.51	37.9594
0	196086	36.61	38.1483
0	196632	36.71	38.3372
0	197178	36.81	38.5261
0	197724	36.91	38.715
0	198278	37.01	38.9039
0	198824	37.11	39.0928
0	199370	37.21	39.2816
0	199916	37.31	39.4705
0	200462	37.41	39.6594
0	201008	37.51	39.8483
0	201554	37.61	40.0372
0	202100	37.71	40.2261
0	202646	37.81	40.415
0	203192	37.91	40.6039
0	203746	38.01	40.7928
0	204292	38.11	40.9817
0	204838	38.21	41.1705
0	205384	38.31	41.3594
0	205930	38.41	41.5483
0	206476	38.51	41.7372
0	207022	38.61	41.9261
0	207568	38.71	42.115
0	208114	38.81	42.3039
0	208660	38.91	42.4928
0	209214	39.01	42.6817
0	209760	39.11	42.8706
0	210306	39.21	43.0594
0	210852	39.31	43.2483
0	211398	39.41	43.4372
0	211944	39.51	43.6261
0	212490	39.61	43.815
0	213036	39.71	44.0039
0	213582	39.81	44.1928
0	214128	39.91	44.3817
0	214682	40.01	44.5706
0	215228	40.11	44.7595
0	215774	40.21	44.9483
0	216320	40.31	45.1372
0	216866	40.41	45.3261
0	217412	40.51	45.515
0	217958	40.61	45.7039
0	218504	40.71	45.8928
0	219050	40.81	46.0817
0	219596	40.91	46.2706
0	220150	41.01	46.4595
0	220696	41.11	46.6484
0	221242	41.21	46.8372
0	221788	41.31	47.0261
0	222334	41.41	47.215
0	222880	41.51	47.4039
0	223426	41.61	47.5928
0	223972	41.71	47.7817
0	224518	41.81	47.9706
0	225064	41.91	48.1595
0	225618	42.01	48.3484
0	226164	42.11	48.5373
0	226710	42.21	48.7261
0	227256	42.31	48.915
0	227802	42.41	49.1039
0	228348	42.51	49.2928
0	228894	42.61	49.4817
0	229440	42.71	49.6706
0	229986	42.81	49.8595
0	230532	42.91	50.0484
0	231086	43.01	50.2373
0	231632	43.11	50.4262
0	232178	43.21	50.615
0	232724	43.31	50.8039
0	233270	43.41	50.9928
0	233816	43.51	51.1817
0	234362	43.61	51.3706
0	234908	43.71	51.5595
0	235454	43.81	51.7484
0	236000	43.91	51.9373
0	236554	44.01	52.1262
0	237100	44.11	52.3151
0	237646	44.21	52.5039
0	238192	44.31	52.6928
0	238738	44.41	52.8817
0	239284	44.51	53.0706
0	239830	44.61	53.2595
0	240376	44.71	53.4484
0	240922	44.81	53.6373
0	241468	44.91	53.8262
0	242022	45.01	54.0151
0	242568	45.11	54.204
0	243114	45.21	54.3928
0	243660	45.31	54.5817
0	244206	45.41	54.7706
0	244752	45.51	54.9595
0	245298	45.61	55.1484
0	245844	45.71	55.3373
0	246390	45.81	55.5262
0	246936	45.91	55.7151
0	247490	46.01	55.904
0	248036	46.11	56.0929
0	248582	46.21	56.2817
0	249128	46.31	56.4706
0	249674	46.41	56.6595
0	250220	46.51	56.8484
0	250766	46.61	57.0373
0	251312	46.71	57.2262
0	251858	46.81	57.4151
0	252404	46.91	57.604
0	252958	47.01	57.7929
0	253504	47.11	57.9818
0	254050	47.21	58.1706
0	254596	47.31	58.3595
0	255142	47.41	58.5484
0	255688	47.51	58.7373
0	256234	47.61	58.9262
0	256780	47.71	59.1151
0	257326	47.81	59.304
0	257872	47.91	59.4929
0	258426	48.01	59.6818
0	258972	48.11	59.8707
0	259518	48.21	60.0595
0	260064	48.31	60.2484
0	260610	48.41	60.4373
0	261156	48.51	60.6262
0	261702	48.61	60.8151
0	262248	48.71	61.004
0	262794	48.81	61.1929
0	263340	48.91	61.3818
0	263894	49.01	61.5707
0	264440	49.11	61.7596
0	264986	49.21	61.9484
0	265532	49.31	62.1373
0	266078	49.41	62.3262
0	266624	49.51	62.5151
0	267170	49.61	62.704
0	267716	49.71	62.8929
0	268262	49.81	63.0818
0	268808	49.91	63.2707
0	269362	50.01	63.4596
0	269908	50.11	63.6485
0	270454	50.21	63.8373
0	271000	50.31	64.0262
0	271546	50.41	64.2151
0	272092	50.51	64.404
0	272638	50.61	64.5929
0	273184	50.71	64.7818
0	273730	50.81	64.9707
0	274276	50.91	65.1596
0	274830	51.01	65.3485
0	275376	51.11	65.5374
0	275922	51.21	65.7262
0	276468	51.31	65.9151
0	277014	51.41	66.104
0	277560	51.51	66.2929
0	278106	51.61	66.4818
0	278652	51.71	66.6707
0	279198	51.81	66.8596
0	279744	51.91	67.0485
0	280298	52.01	67.2374
0	280844	52.11	67.4263
0	281390	52.21	67.6151
0	281936	52.31	67.804
0	282482	52.41	67.9929
0	283028	52.51	68.1818
0	283574	52.61	68.3707
0	284120	52.71	68.5596
0	284666	52.81	68.7485
0	285212	52.91	68.9374
0	285766	53.01	69.1263
0	286312	53.11	69.3152
0	286858	53.21	69.504
0	287404	53.31	69.6929
0	287950	53.41	69.8818
0	288496	53.51	70.0707
0	289042	53.61	70.2596
0	289588	53.71	70.4485
0	290134	53.81	70.6374
0	290680	53.91	70.8263
0	291234	54.01	71.0152
0	291780	54.11	71.2041
0	292326	54.21	71.3929
0	292872	54.31	71.5818
0	293418	54.41	71.7707
0	293964	54.51	71.9596
0	294510	54.61	72.1485
0	295056	54.71	72.3374
0	295602	54.81	72.5263
0	296148	54.91	72.7152
0	296702	55.01	72.9041
0	297248	55.11	73.093
0	297794	55.21	73.2818
0	298340	55.31	73.4707
0	298886	55.41	73.6596
0	299432	55.51	73.8485
0	299978	55.61	74.0374
0	300524	55.71	74.2263
0	301070	55.81	74.4152
0	301616	55.91	74.6041
0	302170	56.01	74.793
0	302716	56.11	74.9819
0	303262	56.21	75.1707
0	303808	56.31	75.3596
0	304354	56.41	75.5485
0	304900	56.51	75.7374
0	305446	56.61	75.9263
0	305992	56.71	76.1152
0	306538	56.81	76.3041
0	307084	56.91	76.493
0	307638	57.01	76.6819
0	308184	57.11	76.8708
0	308730	57.21	77.0596
0	309276	57.31	77.2485
0	309822	57.41	77.4374
0	310368	57.51	77.6263
0	310914	57.61	77.8152
0	311460	57.71	78.0041
0	312006	57.81	78.193
0	312552	57.91	78.3819
0	313106	58.01	78.5708
0	313652	58.11	78.7597
0	314198	58.21	78.9485
0	314744	58.31	79.1374
0	315290	58.41	79.3263
0	315836	58.51	79.5152
0	316382	58.61	79.7041
0	316928	58.71	79.893
0	317474	58.81	80.0819
0	318020	58.91	80.2708
0	318574	59.01	80.4597
0	319120	59.11	80.6486
0	319666	59.21	80.8374
0	320212	59.31	81.0263
0	320758	59.41	81.2152
0	321304	59.51	81.4041
0	321850	59.61	81.593
0	322396	59.71	81.7819
0	322942	59.81	81.9708
0	323488	59.91	82.1597
0	324042	60.01	82.3486
0	324588	60.11	82.5375
0	325134	60.21	82.7263
0	325680	60.31	82.9152
0	326226	60.41	83.1041
0	326772	60.51	83.293
0	327318	60.61	83.4819
0	327864	60.71	83.6708
0	328410	60.81	83.8597
0	328956	60.91	84.0486
0	329510	61.01	84.2375
0	330056	61.11	84.4264
0	330602	61.21	84.6152
0	331148	61.31	84.8041
0	331694	61.41	84.993
0	332240	61.51	85.1819
0	332786	61.61	85.3708
0	333332	61.71	85.5597
0	333878	61.81	85.7486
0	334424	61.91	85.9375
0	334978	62.01	86.1264
0	335524	62.11	86.3153
0	336070	62.21	86.5041
0	336616	62.31	86.693
0	337162	62.41	86.8819
0	337708	62.51	87.0708
0	338254	62.61	87.2597
0	338800	62.71	87.4486
0	339346	62.81	87.6375
0	339892	62.91	87.8264
0	340446	63.01	88.0153
0	340992	63.11	88.2042
0	341538	63.21	88.393
0	342084	63.31	88.5819
0	342630	63.41	88.7708
0	343176	63.51	88.9597
0	343722	63.61	89.1486
0	344268	63.71	89.3375
0	344814	63.81	89.5264
0	345360	63.91	89.7153
0	345914	64.01	89.9042
0	346460	64.11	90.0931
0	347006	64.21	90.2819
0	347552	64.31	90.4708
0	348098	64.41	90.6597
0	348644	64.51	90.8486
0	349190	64.61	91.0375
0	349736	64.71	91.2264
0	350282	64.81	91.4153
0	350828	64.91	91.6042
0	351382	65.01	91.7931
0	351928	65.11	91.982
0	352474	65.21	92.1708
0	353020	65.31	92.3597
0	353566	65.41	92.5486
0	354112	65.51	92.7375
0	354658	65.61	92.9264
0	355204	65.71	93.1153
0	355750	65.81	93.3042
0	356296	65.91	93.4931
0	356850	66.01	93.682
0	357396	66.11	93.8709
0	357942	66.21	94.0597
0	358488	66.31	94.2486
0	359034	66.41	94.4375
0	359580	66.51	94.6264
0	360126	66.61	94.8153
0	360672	66.71	95.0042
0	361218	66.81	95.1931
0	361764	66.91	95.382
0	362318	67.01	95.5709
0	362864	67.11	95.7598
0	363410	67.21	95.9486
0	363956	67.31	96.1375
0	364502	67.41	96.3264
0	365048	67.51	96.5153
0	365594	67.61	96.7042
0	366140	67.71	96.8931
0	366686	67.81	97.082
0	367232	67.91	97.2709
0	367786	68.01	97.4598
0	368332	68.11	97.6487
0	368878	68.21	97.8375
0	369424	68.31	98.0264
0	369970	68.41	98.2153
0	370516	68.51	98.4042
0	371062	68.61	98.5931
0	371608	68.71	98.782
0	372154	68.81	98.9709
0	372700	68.91	99.1598
0	373254	69.01	99.3487
0	373800	69.11	99.5376
0	374346	69.21	99.7264
0	374892	69.31	99.9153
0	375438	69.41	100.104
0	375984	69.51	100.293
0	376530	69.61	100.482
0	377076	69.71	100.671
0	377622	69.81	100.86
0	378168	69.91	101.049
0	378722	70.01	101.238
0	379268	70.11	101.426
0	379814	70.21	101.615
0	380360	70.31	101.804
0	380906	70.41	101.993
0	381452	70.51	102.182
0	381998	70.61	102.371
0	382544	70.71	102.56
0	383090	70.81	102.749
0	383636	70.91	102.938
0	384190	71.01	103.126
0	384736	71.11	103.315
0	385282	71.21	103.504
0	385828	71.31	103.693
0	386374	71.41	103.882
0	386920	71.51	104.071
0	387466	71.61	104.26
0	388012	71.71	104.449
0	388558	71.81	104.638
0	389104	71.91	104.826
0	389658	72.01	105.015
0	390204	72.11	105.204
0	390750	72.21	105.393
0	391296	72.31	105.582
0	391842	72.41	105.771
0	392388	72.51	105.96
0	392934	72.61	106.149
0	393480	72.71	106.338
0	394026	72.81	106.526
0	394572	72.91	106.715
0	395126	73.01	106.904
0	395672	73.11	107.093
0	396218	73.21	107.282
0	396764	73.31	107.471
0	397310	73.41	107.66
0	397856	73.51	107.849
0	398402	73.61	108.038
0	398948	73.71	108.226
0	399494	73.81	108.415
0	400040	73.91	108.604
0	400594	74.01	108.793
0	401140	74.11	108.982
0	401686	74.21	109.171
0	402232	74.31	109.36
0	402778	74.41	109.549
0	403324	74.51	109.738
0	403870	74.61	109.927
0	404416	74.71	110.115
0	404962	74.81	110.304
0	405508	74.91	110.493
0	406062	75.01	110.682
0	406608	75.11	110.871
0	407154	75.21	111.06
0	407700	75.31	111.249
0	408246	75.41	111.438
0	408792	75.51	111.627
0	409338	75.61	111.815
0	409884	75.71	112.004
0	410430	75.81	112.193
0	410976	75.91	112.382
0	411530	76.01	112.571
0	412076	76.11	112.76
0	412622	76.21	112.949
0	413168	76.31	113.138
0	413714	76.41	113.327
0	414260	76.51	113.515
0	414806	76.61	113.704
0	415352	76.71	113.893
0	415898	76.81	114.082
0	416444	76.91	114.271
0	416998	77.01	114.46
0	417544	77.11	114.649
0	418090	77.21	114.838
0	418636	77.31	115.027
0	419182	77.41	115.215
0	419728	77.51	115.404
0	420274	77.61	115.593
0	420820	77.71	115.782
0	421366	77.81	115.971
0	421912	77.91	116.16
0	422466	78.01	116.349
0	423012	78.11	116.538
0	423558	78.21	116.727
0	424104	78.31	116.915
0	424650	78.41	117.104
0	425196	78.51	117.293
0	425742	78.61	117.482
0	426288	78.71	117.671
0	426834	78.81	117.86
0	427380	78.91	118.049
0	427934	79.01	118.238
0	428480	79.11	118.427
0	429026	79.21	118.615
0	429572	79.31	118.804
0	430118	79.41	118.993
0	430664	79.51	119.182
0	431210	79.61	119.371
0	431756	79.71	119.56
0	432302	79.81	119.749
0	432848	79.91	119.938
0	433402	80.01	120.127
0	433948	80.11	120.315
0	434494	80.21	120.504
0	435040	80.31	120.693
0	435586	80.41	120.882
0	436132	80.51	121.071
0	436678	80.61	121.26
0	437224	80.71	121.449
0	437770	80.81	121.638
0	438316	80.91	121.827
0	438870	81.01	122.015
0	439416	81.11	122.204
0	439962	81.21	122.393
0	440508	81.31	122.582
0	441054	81.41	122.771
0	441600	81.51	122.96
0	442146	81.61	123.149
0	442692	81.71	123.338
0	443238	81.81	123.527
0	443784	81.91	123.715
0	444338	82.01	123.904
0	444884	82.11	124.093
0	445430	82.21	124.282
0	445976	82.31	124.471
0	446522	82.41	124.66
0	447068	82.51	124.849
0	447614	82.61	125.038
0	448160	82.71	125.227
0	448706	82.81	125.415
0	449252	82.91	125.604
0	449806	83.01	125.793
0	450352	83.11	125.982
0	450898	83.21	126.171
0	451444	83.31	126.36
0	451990	83.41	126.549
0	452536	83.51	126.738
0	453082	83.61	126.927
0	453628	83.71	127.115
0	454174	83.81	127.304
0	454720	83.91	127.493
0	455274	84.01	127.682
0	455820	84.11	127.871
0	456366	84.21	128.06
0	456912	84.31	128.249
0	457458	84.41	128.438
0	458004	84.51	128.627
0	458550	84.61	128.816
0	459096	84.71	129.004
0	459642	84.81	129.193
0	460188	84.91	129.382
0	460742	85.01	129.571
0	461288	85.11	129.76
0	461834	85.21	129.949
0	462380	85.31	130.138
0	462926	85.41	130.327
0	463472	85.51	130.516
0	464018	85.61	130.704
0	464564	85.71	130.893
0	465110	85.81	131.082
0	465656	85.91	131.271
0	466210	86.01	131.46
0	466756	86.11	131.649
0	467302	86.21	131.838
0	467848	86.31	132.027
0	468394	86.41	132.216
0	468940	86.51	132.404
0	469486	86.61	132.593
0	470032	86.71	132.782
0	470578	86.81	132.971
0	471124	86.91	133.16
0	471678	87.01	133.349
0	472224	87.11	133.538
0	472770	87.21	133.727
0	473316	87.31	133.916
0	473862	87.41	134.104
0	474408	87.51	134.293
0	474954	87.61	134.482
0	475500	87.71	134.671
0	476046	87.81	134.86
0	476592	87.91	135.049
0	477146	88.01	135.238
0	477692	88.11	135.427
0	478238	88.21	135.616
0	478784	88.31	135.804
0	479330	88.41	135.993
0	479876	88.51	136.182
0	480422	88.61	136.371
0	480968	88.71	136.56
0	481514	88.81	136.749
0	482060	88.91	136.938
0	482614	89.01	137.127
0	483160	89.11	137.316
0	483706	89.21	137.504
0	484252	89.31	137.693
0	484798	89.41	137.882
0	485344	89.51	138.071
0	485890	89.61	138.26
0	486436	89.71	138.449
0	486982	89.81	138.638
0	487528	89.91	138.827
0	488082	90.01	139.016
0	488628	90.11	139.204
0	489174	90.21	139.393
0	489720	90.31	139.582
0	490266	90.41	139.771
0	490812	90.51	139.96
0	491358	90.61	140.149
0	491904	90.71	140.338
0	492450	90.81	140.527
0	492996	90.91	140.716
0	493550	91.01	140.904
0	494096	91.11	141.093
0	494642	91.21	141.282
0	495188	91.31	141.471
0	495734	91.41	141.66
0	496280	91.51	141.849
0	496826	91.61	142.038
0	497372	91.71	142.227
0	497918	91.81	142.416
0	498464	91.91	142.604
0	499018	92.01	142.793
0	499564	92.11	142.982
0	500110	92.21	143.171
0	500656	92.31	143.36
0	501202	92.41	143.549
0	501748	92.51	143.738
0	502294	92.61	143.927
0	502840	92.71	144.116
0	503386	92.81	144.304
0	503932	92.91	144.493
0	504486	93.01	144.682
0	505032	93.11	144.871
0	505578	93.21	145.06
0	506124	93.31	145.249
0	506670	93.41	145.438
0	507216	93.51	145.627
0	507762	93.61	145.816
0	508308	93.71	146.004
0	508854	93.81	146.193
0	509400	93.91	146.382
0	509954	94.01	146.571
0	510500	94.11	146.76
0	511046	94.21	146.949
0	511592	94.31	147.138
0	512138	94.41	147.327
0	512684	94.51	147.516
0	513230	94.61	147.705
0	513776	94.71	147.893
0	514322	94.81	148.082
0	514868	94.91	148.271
0	515422	95.01	148.46
0	515968	95.11	148.649
0	516514	95.21	148.838
0	517060	95.31	149.027
0	517606	95.41	149.216
0	518152	95.51	149.405
0	518698	95.61	149.593
0	519244	95.71	149.782
0	519790	95.81	32.5313
0	520336	95.91	32.6205
0	520890	96.01	32.7103
0	521436	96.11	32.8014
0	521982	96.21	32.8939
0	522528	96.31	32.9881
0	523074	96.41	33.0841
0	523620	96.51	33.1819
0	524166	96.61	33.2817
0	524712	96.71	33.3833
0	525258	96.81	33.4866
0	525804	96.91	33.5917
0	526358	97.01	33.6982
0	526904	97.11	33.8061
0	527450	97.21	33.9152
0	527996	97.31	34.0254
0	528542	97.41	34.1364
0	529088	97.51	34.2481
0	529634	97.61	34.3604
0	530180	97.71	34.473
0	530726	97.81	34.5858
0	531272	97.91	34.6986
0	531826	98.01	34.8114
0	532372	98.11	34.9239
0	532918	98.21	35.0361
0	533464	98.31	35.1478
0	534010	98.41	35.259
0	534556	98.51	35.3695
0	535102	98.61	35.4794
0	535648	98.71	35.5884
0	536194	98.81	35.6966
0	536740	98.91	35.8039
0	537294	99.01	35.9102
0	537840	99.11	36.0156
0	538386	99.21	36.1199
0	538932	99.31	36.2233
0	539478	99.41	36.3255
0	540024	99.51	36.4268
0	540570	99.61	36.5269
0	541116	99.71	36.626
0	541662	99.81	36.7241
0	542208	99.91	36.8211
1	113	1.11	0
1	659	1.21	0
1	1205	1.31	0
1	1751	1.41	0
1	2297	1.51	0
1	2843	1.61	0
1	3389	1.71	0
1	3935	1.81	0
1	4481	1.91	0
1	5035	2.01	0
1	5581	2.11	0
1	6127	2.21	0
1	6673	2.31	0
1	7219	2.41	0
1	7765	2.51	0
1	8311	2.61	0
1	8857	2.71	0
1	9403	2.81	0
1	9949	2.91	0
1	10503	3.01	0
1	11049	3.11	0
1	11595	3.21	0
1	12141	3.31	0
1	12687	3.41	0
1	13233	3.51	0
1	13779	3.61	0
1	14325	3.71	0
1	14871	3.81	0
1	15417	3.91	0
1	15971	4.01	0
1	16517	4.11	0
1	17063	4.21	0
1	17609	4.31	0
1	18155	4.41	0
1	18701	4.51	0
1	19247	4.61	0
1	19793	4.71	0
1	20339	4.81	0
1	20885	4.91	0
1	21439	5.01	0
1	21985	5.11	0
1	22531	5.21	0
1	23077	5.31	0
1	23623	5.41	0
1	24169	5.51	0
1	24715	5.61	0
1	25261	5.71	0
1	25807	5.81	0
1	26353	5.91	0
1	26907	6.01	0
1	27453	6.11	0
1	27999	6.21	0
1	28545	6.31	0
1	29091	6.41	0
1	29637	6.51	0
1	30183	6.61	0
1	30729	6.71	0
1	31275	6.81	0
1	31821	6.91	0
1	32375	7.01	0
1	32921	7.11	0
1	33467	7.21	0
1	34013	7.31	0
1	34559	7.41	0
1	35105	7.51	0
1	35651	7.61	0
1	36197	7.71	0
1	36743	7.81	0
1	37289	7.91	0
1	37843	8.01	0
1	38389	8.11	0
1	38935	8.21	0
1	39481	8.31	0
1	40027	8.41	0
1	40573	8.51	0
1	41119	8.61	0
1	41665	8.71	0
1	42211	8.81	0
1	42757	8.91	0
1	43311	9.01	0
1	43857	9.11	0
1	44403	9.21	0
1	44949	9.31	0
1	45495	9.41	0
1	46041	9.51	0
1	46587	9.61	0
1	47133	9.71	0
1	47679	9.81	0
1	48225	9.91	0
1	50642	10.01	0
1	51188	10.11	0
1	51734	10.21	0
1	52280	10.31	0
1	52826	10.41	0
1	53372	10.51	0
1	53918	10.61	0
1	54464	10.71	0
1	55010	10.81	0
1	55556	10.91	0
1	56110	11.01	0
1	56656	11.11	0
1	57202	11.21	0
1	57748	11.31	0
1	58294	11.41	0
1	58840	11.51	0
1	59386	11.61	0
1	59932	11.71	0
1	60478	11.81	0
1	61024	11.91	0
1	61578	12.01	0
1	62124	12.11	0
1	62670	12.21	0
1	63216	12.31	0
1	63762	12.41	0
1	64308	12.51	0
1	64854	12.61	0
1	65400	12.71	0
1	65946	12.81	0
1	66492	12.91	0
1	67046	13.01	0
1	67592	13.11	0
1	68138	13.21	0
1	68684	13.31	0
1	69230	13.41	0
1	69776	13.51	0
1	70322	13.61	0
1	70868	13.71	0
1	71414	13.81	0
1	71960	13.91	0
1	72514	14.01	0
1	73060	14.11	0
1	73606	14.21	0
1	74152	14.31	0
1	74698	14.41	0
1	75244	14.51	0
1	75790	14.61	0
1	76336	14.71	0
1	76882	14.81	0
1	77428	14.91	0
1	77982	15.01	0
1	78528	15.11	0
1	79074	15.21	0
1	79620	15.31	0
1	80166	15.41	0
1	80712	15.51	0
1	81258	15.61	0
1	81804	15.71	0
1	82350	15.81	0
1	82896	15.91	0
1	83450	16.01	0
1	83996	16.11	0
1	84542	16.21	0
1	85088	16.31	0
1	85634	16.41	0
1	86180	16.51	0
1	86726	16.61	0
1	87272	16.71	0
1	87818	16.81	0
1	88364	16.91	0
1	88918	17.01	0
1	89464	17.11	0
1	90010	17.21	0
1	90556	17.31	0
1	91102	17.41	0
1	91648	17.51	0
1	92194	17.61	0
1	92740	17.71	0
1	93286	17.81	0
1	93832	17.91	0
1	94386	18.01	0
1	94932	18.11	0
1	95478	18.21	0
1	96024	18.31	0
1	96570	18.41	0
1	97116	18.51	0
1	97662	18.61	0
1	98208	18.71	0
1	98754	18.81	0
1	99300	18.91	0
1	99854	19.01	0
1	100400	19.11	0
1	100946	19.21	0
1	101492	19.31	0
1	102038	19.41	0
1	102584	19.51	0
1	103130	19.61	0
1	103676	19.71	0
1	104222	19.81	0
1	104768	19.91	0
1	105322	20.01	0
1	105868	20.11	0
1	106414	20.21	0
1	106960	20.31	0
1	107506	20.41	0
1	108052	20.51	0
1	108598	20.61	0
1	109144	20.71	0
1	109690	20.81	0
1	110236	20.91	0
1	110790	21.01	0
1	111336	21.11	0
1	111882	21.21	0
1	112428	21.31	0
1	112974	21.41	0
1	113520	21.51	0
1	114066	21.61	0
1	114612	21.71	0
1	115158	21.81	0
1	115704	21.91	0
1	116258	22.01	0
1	116804	22.11	0
1	117350	22.21	0
1	117896	22.31	0
1	118442	22.41	0
1	118988	22.51	0
1	119534	22.61	0
1	120080	22.71	0
1	120626	22.81	0
1	121172	22.91	0
1	121726	23.01	0
1	122272	23.11	0
1	122818	23.21	0
1	123364	23.31	0
1	123910	23.41	0
1	124456	23.51	0
1	125002	23.61	0
1	125548	23.71	0
1	126094	23.81	0
1	126640	23.91	0
1	127194	24.01	0
1	127740	24.11	0
1	128286	24.21	0
1	128832	24.31	0
1	129378	24.41	0
1	129924	24.51	0
1	130470	24.61	0
1	131016	24.71	0
1	131562	24.81	0
1	132108	24.91	0
1	132662	25.01	0
1	133208	25.11	0
1	133754	25.21	0
1	134300	25.31	0
1	134846	25.41	0
1	135392	25.51	0
1	135938	25.61	0
1	136484	25.71	0
1	137030	25.81	0
1	137576	25.91	0
1	138130	26.01	0
1	138676	26.11	0
1	139222	26.21	0
1	139768	26.31	0
1	140314	26.41	0
1	140860	26.51	0
1	141406	26.61	0
1	141952	26.71	0
1	142498	26.81	0
1	143044	26.91	0
1	143598	27.01	0
1	144144	27.11	0
1	144690	27.21	0
1	145236	27.31	0
1	145782	27.41	0
1	146328	27.51	0
1	146874	27.61	0
1	147420	27.71	0
1	147966	27.81	0
1	148512	27.91	0
1	149066	28.01	0
1	149612	28.11	0
1	150158	28.21	0
1	150704	28.31	0
1	151250	28.41	0
1	151796	28.51	0
1	152342	28.61	0
1	152888	28.71	0
1	153434	28.81	0
1	153980	28.91	0
1	154534	29.01	0
1	155080	29.11	0
1	155626	29.21	0
1	156172	29.31	0
1	156718	29.41	0
1	157264	29.51	0
1	157810	29.61	0
1	158356	29.71	0
1	158902	29.81	0
1	159448	29.91	0
1	160002	30.01	0
1	160548	30.11	0
1	161094	30.21	0
1	161640	30.31	0
1	162186	30.41	0
1	162732	30.51	0
1	163278	30.61	0
1	163824	30.71	0
1	164370	30.81	0
1	164916	30.91	0
1	165470	31.01	0
1	166016	31.11	0
1	166562	31.21	0
1	167108	31.31	0
1	167654	31.41	0
1	168200	31.51	1.8889
1	168746	31.61	1.8889
1	169292	31.71	1.8889
1	169838	31.81	1.8889
1	170384	31.91	1.8889
1	170938	32.01	1.8889
1	171484	32.11	1.8889
1	172030	32.21	1.8889
1	172576	32.31	1.8889
1	173122	32.41	1.8889
1	173668	32.51	1.8889
1	174214	32.61	1.8889
1	174760	32.71	1.8889
1	175306	32.81	1.8889
1	175852	32.91	1.8889
1	176406	33.01	1.8889
1	176952	33.11	1.8889
1	177498	33.21	1.8889
1	178044	33.31	1.8889
1	178590	33.41	1.8889
1	179136	33.51	1.8889
1	179682	33.61	1.8889
1	180228	33.71	1.8889
1	180774	33.81	1.8889
1	181320	33.91	1.8889
1	181874	34.01	1.8889
1	182420	34.11	1.8889
1	182966	34.21	1.8889
1	183512	34.31	1.8889
1	184058	34.41	1.8889
1	184604	34.51	1.8889
1	185150	34.61	1.8889
1	185696	34.71	1.8889
1	186242	34.81	1.8889
1	186788	34.91	1.8889
1	187342	35.01	1.8889
1	187888	35.11	1.8889
1	188434	35.21	1.8889
1	188980	35.31	1.8889
1	189526	35.41	1.8889
1	190072	35.51	1.8889
1	190618	35.61	1.8889
1	191164	35.71	1.8889
1	191710	35.81	1.8889
1	192256	35.91	1.8889
1	192810	36.01	1.8889
1	193356	36.11	1.8889
1	193902	36.21	1.8889
1	194448	36.31	1.8889
1	194994	36.41	1.8889
1	195540	36.51	1.8889
1	196086	36.61	1.8889
1	196632	36.71	1.8889
1	197178	36.81	1.8889
1	197724	36.91	1.8889
1	198278	37.01	1.8889
1	198824	37.11	1.8889
1	199370	37.21	1.8889
1	199916	37.31	1.8889
1	200462	37.41	1.8889
1	201008	37.51	1.8889
1	201554	37.61	1.8889
1	202100	37.71	1.8889
1	202646	37.81	1.8889
1	203192	37.91	1.8889
1	203746	38.01	1.8889
1	204292	38.11	1.8889
1	204838	38.21	1.8889
1	205384	38.31	1.8889
1	205930	38.41	1.8889
1	206476	38.51	1.8889
1	207022	38.61	1.8889
1	207568	38.71	1.8889
1	208114	38.81	1.8889
1	208660	38.91	1.8889
1	209214	39.01	1.8889
1	209760	39.11	1.8889
1	210306	39.21	1.8889
1	210852	39.31	1.8889
1	211398	39.41	1.8889
1	211944	39.51	1.8889
1	212490	39.61	1.8889
1	213036	39.71	1.8889
1	213582	39.81	1.8889
1	214128	39.91	1.8889
1	214682	40.01	1.8889
1	215228	40.11	1.8889
1	215774	40.21	1.8889
1	216320	40.31	1.8889
1	216866	40.41	1.8889
1	217412	40.51	1.8889
1	217958	40.61	1.8889
1	218504	40.71	1.8889
1	219050	40.81	1.8889
1	219596	40.91	1.8889
1	220150	41.01	1.8889
1	220696	41.11	1.8889
1	221242	41.21	1.8889
1	221788	41.31	1.8889
1	222334	41.41	1.8889
1	222880	41.51	1.8889
1	223426	41.61	1.8889
1	223972	41.71	1.8889
1	224518	41.81	1.8889
1	225064	41.91	1.8889
1	225618	42.01	1.8889
1	226164	42.11	1.8889
1	226710	42.21	1.8889
1	227256	42.31	1.8889
1	227802	42.41	1.8889
1	228348	42.51	1.8889
1	228894	42.61	1.8889
1	229440	42.71	1.8889
1	229986	42.81	1.8889
1	230532	42.91	1.8889
1	231086	43.01	1.8889
1	231632	43.11	1.8889
1	232178	43.21	1.8889
1	232724	43.31	1.8889
1	233270	43.41	1.8889
1	233816	43.51	1.8889
1	234362	43.61	1.8889
1	234908	43.71	1.8889
1	235454	43.81	1.8889
1	236000	43.91	1.8889
1	236554	44.01	1.8889
1	237100	44.11	1.8889
1	237646	44.21	1.8889
1	238192	44.31	1.8889
1	238738	44.41	1.8889
1	239284	44.51	1.8889
1	239830	44.61	1.8889
1	240376	44.71	1.8889
1	240922	44.81	1.8889
1	241468	44.91	1.8889
1	242022	45.01	1.8889
1	242568	45.11	1.8889
1	243114	45.21	1.8889
1	243660	45.31	1.8889
1	244206	45.41	1.8889
1	244752	45.51	1.8889
1	245298	45.61	1.8889
1	245844	45.71	1.8889
1	246390	45.81	1.8889
1	246936	45.91	1.8889
1	247490	46.01	1.8889
1	248036	46.11	1.8889
1	248582	46.21	1.8889
1	249128	46.31	1.8889
1	249674	46.41	1.8889
1	250220	46.51	1.8889
1	250766	46.61	1.8889
1	251312	46.71	1.8889
1	251858	46.81	1.8889
1	252404	46.91	1.8889
1	252958	47.01	1.8889
1	253504	47.11	1.8889
1	254050	47.21	1.8889
1	254596	47.31	1.8889
1	255142	47.41	1.8889
1	255688	47.51	1.8889
1	256234	47.61	1.8889
1	256780	47.71	1.8889
1	257326	47.81	1.8889
1	257872	47.91	1.8889
1	258426	48.01	1.8889
1	258972	48.11	1.8889
1	259518	48.21	1.8889
1	260064	48.31	1.8889
1	260610	48.41	1.8889
1	261156	48.51	1.8889
1	261702	48.61	1.8889
1	262248	48.71	1.8889
1	262794	48.81	1.8889
1	263340	48.91	1.8889
1	263894	49.01	1.8889
1	264440	49.11	1.8889
1	264986	49.21	1.8889
1	265532	49.31	1.8889
1	266078	49.41	1.8889
1	266624	49.51	1.8889
1	267170	49.61	1.8889
1	267716	49.71	1.8889
1	268262	49.81	1.8889
1	268808	49.91	1.8889
1	269362	50.01	1.8889
1	269908	50.11	1.8889
1	270454	50.21	1.8889
1	271000	50.31	1.8889
1	271546	50.41	1.8889
1	272092	50.51	1.8889
1	272638	50.61	1.8889
1	273184	50.71	1.8889
1	273730	50.81	1.8889
1	274276	50.91	1.8889
1	274830	51.01	1.8889
1	275376	51.11	1.8889
1	275922	51.21	1.8889
1	276468	51.31	1.8889
1	277014	51.41	1.8889
1	277560	51.51	1.8889
1	278106	51.61	1.8889
1	278652	51.71	1.8889
1	279198	51.81	1.8889
1	279744	51.91	1.8889
1	280298	52.01	1.8889
1	280844	52.11	1.8889
1	281390	52.21	1.8889
1	281936	52.31	1.8889
1	282482	52.41	1.8889
1	283028	52.51	1.8889
1	283574	52.61	1.8889
1	284120	52.71	1.8889
1	284666	52.81	1.8889
1	285212	52.91	1.8889
1	285766	53.01	1.8889
1	286312	53.11	1.8889
1	286858	53.21	1.8889
1	287404	53.31	1.8889
1	287950	53.41	1.8889
1	288496	53.51	1.8889
1	289042	53.61	1.8889
1	289588	53.71	1.8889
1	290134	53.81	1.8889
1	290680	53.91	1.8889
1	291234	54.01	1.8889
1	291780	54.11	1.8889
1	292326	54.21	1.8889
1	292872	54.31	1.8889
1	293418	54.41	1.8889
1	293964	54.51	1.8889
1	294510	54.61	1.8889
1	295056	54.71	1.8889
1	295602	54.81	1.8889
1	296148	54.91	1.8889
1	296702	55.01	1.8889
1	297248	55.11	1.8889
1	297794	55.21	1.8889
1	298340	55.31	1.8889
1	298886	55.41	1.8889
1	299432	55.51	1.8889
1	299978	55.61	1.8889
1	300524	55.71	1.8889
1	301070	55.81	1.8889
1	301616	55.91	1.8889
1	302170	56.01	1.8889
1	302716	56.11	1.8889
1	303262	56.21	1.8889
1	303808	56.31	1.8889
1	304354	56.41	1.8889
1	304900	56.51	1.8889
1	305446	56.61	1.8889
1	305992	56.71	1.8889
1	306538	56.81	1.8889
1	307084	56.91	1.8889
1	307638	57.01	1.8889
1	308184	57.11	1.8889
1	308730	57.21	1.8889
1	309276	57.31	1.8889
1	309822	57.41	1.8889
1	310368	57.51	1.8889
1	310914	57.61	1.8889
1	311460	57.71	1.8889
1	312006	57.81	1.8889
1	312552	57.91	1.8889
1	313106	58.01	1.8889
1	313652	58.11	1.8889
1	314198	58.21	1.8889
1	314744	58.31	1.8889
1	315290	58.41	1.8889
1	315836	58.51	1.8889
1	316382	58.61	1.8889
1	316928	58.71	1.8889
1	317474	58.81	1.8889
1	318020	58.91	1.8889
1	318574	59.01	1.8889
1	319120	59.11	1.8889
1	319666	59.21	1.8889
1	320212	59.31	1.8889
1	320758	59.41	1.8889
1	321304	59.51	1.8889
1	321850	59.61	1.8889
1	322396	59.71	1.8889
1	322942	59.81	1.8889
1	323488	59.91	1.8889
1	324042	60.01	1.8889
1	324588	60.11	1.8889
1	325134	60.21	1.8889
1	325680	60.31	1.8889
1	326226	60.41	1.8889
1	326772	60.51	1.8889
1	327318	60.61	1.8889
1	327864	60.71	1.8889
1	328410	60.81	1.8889
1	328956	60.91	1.8889
1	329510	61.01	1.8889
1	330056	61.11	1.8889
1	330602	61.21	1.8889
1	331148	61.31	1.8889
1	331694	61.41	1.8889
1	332240	61.51	1.8889
1	332786	61.61	1.8889
1	333332	61.71	1.8889
1	333878	61.81	1.8889
1	334424	61.91	1.8889
1	334978	62.01	1.8889
1	335524	62.11	1.8889
1	336070	62.21	1.8889
1	336616	62.31	1.8889
1	337162	62.41	1.8889
1	337708	62.51	1.8889
1	338254	62.61	1.8889
1	338800	62.71	1.8889
1	339346	62.81	1.8889
1	339892	62.91	1.8889
1	340446	63.01	1.8889
1	340992	63.11	1.8889
1	341538	63.21	1.8889
1	342084	63.31	1.8889
1	342630	63.41	1.8889
1	343176	63.51	1.8889
1	343722	63.61	1.8889
1	344268	63.71	1.8889
1	344814	63.81	1.8889
1	345360	63.91	1.8889
1	345914	64.01	1.8889
1	346460	64.11	1.8889
1	347006	64.21	1.8889
1	347552	64.31	1.8889
1	348098	64.41	1.8889
1	348644	64.51	1.8889
1	349190	64.61	1.8889
1	349736	64.71	1.8889
1	350282	64.81	1.8889
1	350828	64.91	1.8889
1	351382	65.01	1.8889
1	351928	65.11	1.8889
1	352474	65.21	1.8889
1	353020	65.31	1.8889
1	353566	65.41	1.8889
1	354112	65.51	1.8889
1	354658	65.61	1.8889
1	355204	65.71	1.8889
1	355750	65.81	1.8889
1	356296	65.91	1.8889
1	356850	66.01	1.8889
1	357396	66.11	1.8889
1	357942	66.21	1.8889
1	358488	66.31	1.8889
1	359034	66.41	1.8889
1	359580	66.51	1.8889
1	360126	66.61	1.8889
1	360672	66.71	1.8889
1	361218	66.81	1.8889
1	361764	66.91	1.8889
1	362318	67.01	1.8889
1	362864	67.11	1.8889
1	363410	67.21	1.8889
1	363956	67.31	1.8889
1	364502	67.41	1.8889
1	365048	67.51	1.8889
1	365594	67.61	1.8889
1	366140	67.71	1.8889
1	366686	67.81	1.8889
1	367232	67.91	1.8889
1	367786	68.01	1.8889
1	368332	68.11	1.8889
1	368878	68.21	1.8889
1	369424	68.31	1.8889
1	369970	68.41	1.8889
1	370516	68.51	1.8889
1	371062	68.61	1.8889
1	371608	68.71	1.8889
1	372154	68.81	1.8889
1	372700	68.91	1.8889
1	373254	69.01	1.8889
1	373800	69.11	1.8889
1	374346	69.21	1.8889
1	374892	69.31	1.8889
1	375438	69.41	1.8889
1	375984	69.51	1.8889
1	376530	69.61	1.8889
1	377076	69.71	1.8889
1	377622	69.81	1.8889
1	378168	69.91	1.8889
1	378722	70.01	1.8889
1	379268	70.11	1.8889
1	379814	70.21	1.8889
1	380360	70.31	1.8889
1	380906	70.41	1.8889
1	381452	70.51	1.8889
1	381998	70.61	1.8889
1	382544	70.71	1.8889
1	383090	70.81	1.8889
1	383636	70.91	1.8889
1	384190	71.01	1.8889
1	384736	71.11	1.8889
1	385282	71.21	1.8889
1	385828	71.31	1.8889
1	386374	71.41	1.8889
1	386920	71.51	1.8889
1	387466	71.61	1.8889
1	388012	71.71	1.8889
1	388558	71.81	1.8889
1	389104	71.91	1.8889
1	389658	72.01	1.8889
1	390204	72.11	1.8889
1	390750	72.21	1.8889
1	391296	72.31	1.8889
1	391842	72.41	1.8889
1	392388	72.51	1.8889
1	392934	72.61	1.8889
1	393480	72.71	1.8889
1	394026	72.81	1.8889
1	394572	72.91	1.8889
1	395126	73.01	1.8889
1	395672	73.11	1.8889
1	396218	73.21	1.8889
1	396764	73.31	1.8889
1	397310	73.41	1.8889
1	397856	73.51	1.8889
1	398402	73.61	1.8889
1	398948	73.71	1.8889
1	399494	73.81	1.8889
1	400040	73.91	1.8889
1	400594	74.01	1.8889
1	401140	74.11	1.8889
1	401686	74.21	1.8889
1	402232	74.31	1.8889
1	402778	74.41	1.8889
1	403324	74.51	1.8889
1	403870	74.61	1.8889
1	404416	74.71	1.8889
1	404962	74.81	1.8889
1	405508	74.91	1.8889
1	406062	75.01	1.8889
1	406608	75.11	1.8889
1	407154	75.21	1.8889
1	407700	75.31	1.8889
1	408246	75.41	1.8889
1	408792	75.51	1.8889
1	409338	75.61	1.8889
1	409884	75.71	1.8889
1	410430	75.81	1.8889
1	410976	75.91	1.8889
1	411530	76.01	1.8889
1	412076	76.11	1.8889
1	412622	76.21	1.8889
1	413168	76.31	1.8889
1	413714	76.41	1.8889
1	414260	76.51	1.8889
1	414806	76.61	1.8889
1	415352	76.71	1.8889
1	415898	76.81	1.8889
1	416444	76.91	1.8889
1	416998	77.01	1.8889
1	417544	77.11	1.8889
1	418090	77.21	1.8889
1	418636	77.31	1.8889
1	419182	77.41	1.8889
1	419728	77.51	1.8889
1	420274	77.61	1.8889
1	420820	77.71	1.8889
1	421366	77.81	1.8889
1	421912	77.91	1.8889
1	422466	78.01	1.8889
1	423012	78.11	1.8889
1	423558	78.21	1.8889
1	424104	78.31	1.8889
1	424650	78.41	1.8889
1	425196	78.51	1.8889
1	425742	78.61	1.8889
1	426288	78.71	1.8889
1	426834	78.81	1.8889
1	427380	78.91	1.8889
1	427934	79.01	1.8889
1	428480	79.11	1.8889
1	429026	79.21	1.8889
1	429572	79.31	1.8889
1	430118	79.41	1.8889
1	430664	79.51	1.8889
1	431210	79.61	1.8889
1	431756	79.71	1.8889
1	432302	79.81	1.8889
1	432848	79.91	1.8889
1	433402	80.01	1.8889
1	433948	80.11	1.8889
1	434494	80.21	1.8889
1	435040	80.31	1.8889
1	435586	80.41	1.8889
1	436132	80.51	1.8889
1	436678	80.61	1.8889
1	437224	80.71	1.8889
1	437770	80.81	1.8889
1	438316	80.91	1.8889
1	438870	81.01	1.8889
1	439416	81.11	1.8889
1	439962	81.21	1.8889
1	440508	81.31	1.8889
1	441054	81.41	1.8889
1	441600	81.51	1.8889
1	442146	81.61	1.8889
1	442692	81.71	1.8889
1	443238	81.81	1.8889
1	443784	81.91	1.8889
1	444338	82.01	1.8889
1	444884	82.11	1.8889
1	445430	82.21	1.8889
1	445976	82.31	1.8889
1	446522	82.41	1.8889
1	447068	82.51	1.8889
1	447614	82.61	1.8889
1	448160	82.71	1.8889
1	448706	82.81	1.8889
1	449252	82.91	1.8889
1	449806	83.01	1.8889
1	450352	83.11	1.8889
1	450898	83.21	1.8889
1	451444	83.31	1.8889
1	451990	83.41	1.8889
1	452536	83.51	1.8889
1	453082	83.61	1.8889
1	453628	83.71	1.8889
1	454174	83.81	1.8889
1	454720	83.91	1.8889
1	455274	84.01	1.8889
1	455820	84.11	1.8889
1	456366	84.21	1.8889
1	456912	84.31	1.8889
1	457458	84.41	1.8889
1	458004	84.51	1.8889
1	458550	84.61	1.8889
1	459096	84.71	1.8889
1	459642	84.81	1.8889
1	460188	84.91	1.8889
1	460742	85.01	1.8889
1	461288	85.11	1.8889
1	461834	85.21	1.8889
1	462380	85.31	1.8889
1	462926	85.41	1.8889
1	463472	85.51	1.8889
1	464018	85.61	1.8889
1	464564	85.71	1.8889
1	465110	85.81	1.8889
1	465656	85.91	1.8889
1	466210	86.01	1.8889
1	466756	86.11	1.8889
1	467302	86.21	1.8889
1	467848	86.31	1.8889
1	468394	86.41	1.8889
1	468940	86.51	1.8889
1	469486	86.61	1.8889
1	470032	86.71	1.8889
1	470578	86.81	1.8889
1	471124	86.91	1.8889
1	471678	87.01	1.8889
1	472224	87.11	1.8889
1	472770	87.21	1.8889
1	473316	87.31	1.8889
1	473862	87.41	1.8889
1	474408	87.51	1.8889
1	474954	87.61	1.8889
1	475500	87.71	1.8889
1	476046	87.81	1.8889
1	476592	87.91	1.8889
1	477146	88.01	1.8889
1	477692	88.11	1.8889
1	478238	88.21	1.8889
1	478784	88.31	1.8889
1	479330	88.41	1.8889
1	479876	88.51	1.8889
1	480422	88.61	1.8889
1	480968	88.71	1.8889
1	481514	88.81	1.8889
1	482060	88.91	1.8889
1	482614	89.01	1.8889
1	483160	89.11	1.8889
1	483706	89.21	1.8889
1	484252	89.31	1.8889
1	484798	89.41	1.8889
1	485344	89.51	1.8889
1	485890	89.61	1.8889
1	486436	89.71	1.8889
1	486982	89.81	1.8889
1	487528	89.91	1.8889
1	488082	90.01	1.8889
1	488628	90.11	1.8889
1	489174	90.21	1.8889
1	489720	90.31	1.8889
1	490266	90.41	1.8889
1	490812	90.51	1.8889
1	491358	90.61	1.8889
1	491904	90.71	1.8889
1	492450	90.81	1.8889
1	492996	90.91	1.8889
1	493550	91.01	1.8889
1	494096	91.11	1.8889
1	494642	91.21	1.8889
1	495188	91.31	1.8889
1	495734	91.41	1.8889
1	496280	91.51	1.8889
1	496826	91.61	1.8889
1	497372	91.71	1.8889
1	497918	91.81	1.8889
1	498464	91.91	1.8889
1	499018	92.01	1.8889
1	499564	92.11	1.8889
1	500110	92.21	1.8889
1	500656	92.31	1.8889
1	501202	92.41	1.8889
1	501748	92.51	1.8889
1	502294	92.61	1.8889
1	502840	92.71	1.8889
1	503386	92.81	1.8889
1	503932	92.91	1.8889
1	504486	93.01	1.8889
1	505032	93.11	1.8889
1	505578	93.21	1.8889
1	506124	93.31	1.8889
1	506670	93.41	1.8889
1	507216	93.51	1.8889
1	507762	93.61	1.8889
1	508308	93.71	1.8889
1	508854	93.81	1.8889
1	509400	93.91	1.8889
1	509954	94.01	1.8889
1	510500	94.11	1.8889
1	511046	94.21	1.8889
1	511592	94.31	1.8889
1	512138	94.41	1.8889
1	512684	94.51	1.8889
1	513230	94.61	1.8889
1	513776	94.71	1.8889
1	514322	94.81	1.8889
1	514868	94.91	1.8889
1	515422	95.01	1.8889
1	515968	95.11	1.8889
1	516514	95.21	1.8889
1	517060	95.31	1.8889
1	517606	95.41	1.8889
1	518152	95.51	1.8889
1	518698	95.61	1.8889
1	519244	95.71	1.8889
1	519790	95.81	0.889281
1	520336	95.91	0.894258
1	520890	96.01	0.903964
1	521436	96.11	0.917254
1	521982	96.21	0.933125
1	522528	96.31	0.950709
1	523074	96.41	0.969263
1	523620	96.51	0.988159
1	524166	96.61	1.00687
1	524712	96.71	1.02497
1	525258	96.81	1.04212
1	525804	96.91	1.05804
1	526358	97.01	1.07252
1	526904	97.11	1.08544
1	527450	97.21	1.09668
1	527996	97.31	1.1062
1	528542	97.41	1.11399
1	529088	97.51	1.12006
1	529634	97.61	1.12444
1	530180	97.71	1.12721
1	530726	97.81	1.12843
1	531272	97.91	1.1282
1	531826	98.01	1.12662
1	532372	98.11	1.12377
1	532918	98.21	1.11978
1	533464	98.31	1.11473
1	534010	98.41	1.10875
1	534556	98.51	1.10194
1	535102	98.61	1.09438
1	535648	98.71	1.08618
1	536194	98.81	1.07743
1	536740	98.91	1.06821
1	537294	99.01	1.0586
1	537840	99.11	1.04867
1	538386	99.21	1.03849
1	538932	99.31	1.02811
1	539478	99.41	1.0176
1	540024	99.51	1.00699
1	540570	99.61	0.996342
1	541116	99.71	0.985704
1	541662	99.81	0.975241
1	542208	99.91	0.96511
2	113	1.11	0
2	659	1.21	0
2	1205	1.31	0
2	1751	1.41	0
2	2297	1.51	0
2	2843	1.61	0
2	3389	1.71	0
2	3935	1.81	0
2	4481	1.91	0
2	5035	2.01	0
2	5581	2.11	0
2	6127	2.21	0
2	6673	2.31	0
2	7219	2.41	0
2	7765	2.51	0
2	8311	2.61	0
2	8857	2.71	0
2	9403	2.81	0
2	9949	2.91	0
2	10503	3.01	0
2	11049	3.11	0
2	11595	3.21	0
2	12141	3.31	0
2	12687	3.41	0
2	13233	3.51	0
2	13779	3.61	0
2	14325	3.71	0
2	14871	3.81	0
2	15417	3.91	0
2	15971	4.01	0
2	16517	4.11	0
2	17063	4.21	0
2	17609	4.31	0
2	18155	4.41	0
2	18701	4.51	0
2	19247	4.61	0
2	19793	4.71	0
2	20339	4.81	0
2	20885	4.91	0
2	21439	5.01	0
2	21985	5.11	0
2	22531	5.21	0
2	23077	5.31	0
2	23623	5.41	0
2	24169	5.51	0
2	24715	5.61	0
2	25261	5.71	0
2	25807	5.81	0
2	26353	5.91	0
2	26907	6.01	0
2	27453	6.11	0
2	27999	6.21	0
2	28545	6.31	0
2	29091	6.41	0
2	29637	6.51	0
2	30183	6.61	0
2	30729	6.71	0
2	31275	6.81	0
2	31821	6.91	0
2	32375	7.01	0
2	32921	7.11	0
2	33467	7.21	0
2	34013	7.31	0
2	34559	7.41	0
2	35105	7.51	0
2	35651	7.61	0
2	36197	7.71	0
2	36743	7.81	0
2	37289	7.91	0
2	37843	8.01	0
2	38389	8.11	0
2	38935	8.21	0
2	39481	8.31	0
2	40027	8.41	0
2	40573	8.51	0
2	41119	8.61	0
2	41665	8.71	0
2	42211	8.81	0
2	42757	8.91	0
2	43311	9.01	0
2	43857	9.11	0
2	44403	9.21	0
2	44949	9.31	0
2	45495	9.41	0
2	46041	9.51	0
2	46587	9.61	0
2	47133	9.71	0
2	47679	9.81	0
2	48225	9.91	0
2	50642	10.01	0
2	51188	10.11	0
2	51734	10.21	0
2	52280	10.31	0
2	52826	10.41	0
2	53372	10.51	0
2	53918	10.61	0
2	54464	10.71	0
2	55010	10.81	0
2	55556	10.91	0
2	56110	11.01	0
2	56656	11.11	0
2	57202	11.21	0
2	57748	11.31	0
2	58294	11.41	0
2	58840	11.51	0
2	59386	11.61	0
2	59932	11.71	0
2	60478	11.81	0
2	61024	11.91	0
2	61578	12.01	0
2	62124	12.11	0
2	62670	12.21	0
2	63216	12.31	0
2	63762	12.41	0
2	64308	12.51	0
2	64854	12.61	0
2	65400	12.71	0
2	65946	12.81	0
2	66492	12.91	0
2	67046	13.01	0
2	67592	13.11	0
2	68138	13.21	0
2	68684	13.31	0
2	69230	13.41	0
2	69776	13.51	0
2	70322	13.61	0
2	70868	13.71	0
2	71414	13.81	0
2	71960	13.91	0
2	72514	14.01	0
2	73060	14.11	0
2	73606	14.21	0
2	74152	14.31	0
2	74698	14.41	0
2	75244	14.51	0
2	75790	14.61	0
2	76336	14.71	0
2	76882	14.81	0
2	77428	14.91	0
2	77982	15.01	0
2	78528	15.11	0
2	79074	15.21	0
2	79620	15.31	0
2	80166	15.41	0
2	80712	15.51	0
2	81258	15.61	0
2	81804	15.71	0
2	82350	15.81	0
2	82896	15.91	0
2	83450	16.01	0
2	83996	16.11	0
2	84542	16.21	0
2	85088	16.31	0
2	85634	16.41	0
2	86180	16.51	0
2	86726	16.61	0
2	87272	16.71	0
2	87818	16.81	0
2	88364	16.91	0
2	88918	17.01	0
2	89464	17.11	0
2	90010	17.21	0
2	90556	17.31	0
2	91102	17.41	0
2	91648	17.51	0
2	92194	17.61	0
2	92740	17.71	0
2	93286	17.81	0
2	93832	17.91	0
2	94386	18.01	0
2	94932	18.11	0
2	95478	18.21	0
2	96024	18.31	0
2	96570	18.41	0
2	97116	18.51	0
2	97662	18.61	0
2	98208	18.71	0
2	98754	18.81	0
2	99300	18.91	0
2	99854	19.01	0
2	100400	19.11	0
2	100946	19.21	0
2	101492	19.31	0
2	102038	19.41	0
2	102584	19.51	0
2	103130	19.61	0
2	103676	19.71	0
2	104222	19.81	0
2	104768	19.91	0
2	105322	20.01	0
2	105868	20.11	0
2	106414	20.21	0
2	106960	20.31	0
2	107506	20.41	0
2	108052	20.51	0
2	108598	20.61	0
2	109144	20.71	0
2	109690	20.81	0
2	110236	20.91	0
2	110790	21.01	0
2	111336	21.11	0
2	111882	21.21	0
2	112428	21.31	0
2	112974	21.41	0
2	113520	21.51	0
2	114066	21.61	0
2	114612	21.71	0
2	115158	21.81	0
2	115704	21.91	0
2	116258	22.01	0
2	116804	22.11	0
2	117350	22.21	0
2	117896	22.31	0
2	118442	22.41	0
2	118988	22.51	0
2	119534	22.61	0
2	120080	22.71	0
2	120626	22.81	0
2	121172	22.91	0
2	121726	23.01	0
2	122272	23.11	0
2	122818	23.21	0
2	123364	23.31	0
2	123910	23.41	0
2	124456	23.51	0
2	125002	23.61	0
2	125548	23.71	0
2	126094	23.81	0
2	126640	23.91	0
2	127194	24.01	0
2	127740	24.11	0
2	128286	24.21	0
2	128832	24.31	0
2	129378	24.41	0
2	129924	24.51	0
2	130470	24.61	0
2	131016	24.71	0
2	131562	24.81	0
2	132108	24.91	0
2	132662	25.01	0
2	133208	25.11	0
2	133754	25.21	0
2	134300	25.31	0
2	134846	25.41	0
2	135392	25.51	0
2	135938	25.61	0
2	136484	25.71	0
2	137030	25.81	0
2	137576	25.91	0
2	138130	26.01	0
2	138676	26.11	0
2	139222	26.21	0
2	139768	26.31	0
2	140314	26.41	0
2	140860	26.51	0
2	141406	26.61	0
2	141952	26.71	0
2	142498	26.81	0
2	143044	26.91	0
2	143598	27.01	0
2	144144	27.11	0
2	144690	27.21	0
2	145236	27.31	0
2	145782	27.41	0
2	146328	27.51	0
2	146874	27.61	0
2	147420	27.71	0
2	147966	27.81	0
2	148512	27.91	0
2	149066	28.01	0
2	149612	28.11	0
2	150158	28.21	0
2	150704	28.31	0
2	151250	28.41	0
2	151796	28.51	0
2	152342	28.61	0
2	152888	28.71	0
2	153434	28.81	0
2	153980	28.91	0
2	154534	29.01	0
2	155080	29.11	0
2	155626	29.21	0
2	156172	29.31	0
2	156718	29.41	0
2	157264	29.51	0
2	157810	29.61	0
2	158356	29.71	0
2	158902	29.81	0
2	159448	29.91	0
2	160002	30.01	0
2	160548	30.11	0
2	161094	30.21	0
2	161640	30.31	0
2	162186	30.41	0
2	162732	30.51	0
2	163278	30.61	0
2	163824	30.71	0
2	164370	30.81	0
2	164916	30.91	0
2	165470	31.01	0
2	166016	31.11	0
2	166562	31.21	0
2	167108	31.31	0
2	167654	31.41	0
2	168200	31.51	0
2	168746	31.61	0
2	169292	31.71	0
2	169838	31.81	0
2	170384	31.91	0
2	170938	32.01	0
2	171484	32.11	0
2	172030	32.21	0
2	172576	32.31	0
2	173122	32.41	0
2	173668	32.51	0
2	174214	32.61	0
2	174760	32.71	0
2	175306	32.81	0
2	175852	32.91	0
2	176406	33.01	0
2	176952	33.11	0
2	177498	33.21	0
2	178044	33.31	0
2	178590	33.41	0
2	179136	33.51	0
2	179682	33.61	0
2	180228	33.71	0
2	180774	33.81	0
2	181320	33.91	0
2	181874	34.01	0
2	182420	34.11	0
2	182966	34.21	0
2	183512	34.31	0
2	184058	34.41	0
2	184604	34.51	0
2	185150	34.61	0
2	185696	34.71	0
2	186242	34.81	0
2	186788	34.91	0
2	187342	35.01	0
2	187888	35.11	0
2	188434	35.21	0
2	188980	35.31	0
2	189526	35.41	0
2	190072	35.51	0
2	190618	35.61	0
2	191164	35.71	0
2	191710	35.81	0
2	192256	35.91	0
2	192810	36.01	0
2	193356	36.11	0
2	193902	36.21	0
2	194448	36.31	0
2	194994	36.41	0
2	195540	36.51	0
2	196086	36.61	0
2	196632	36.71	0
2	197178	36.81	0
2	197724	36.91	0
2	198278	37.01	0
2	198824	37.11	0
2	199370	37.21	0
2	199916	37.31	0
2	200462	37.41	0
2	201008	37.51	0
2	201554	37.61	0
2	202100	37.71	0
2	202646	37.81	0
2	203192	37.91	0
2	203746	38.01	0
2	204292	38.11	0
2	204838	38.21	0
2	205384	38.31	0
2	205930	38.41	0
2	206476	38.51	0
2	207022	38.61	0
2	207568	38.71	0
2	208114	38.81	0
2	208660	38.91	0
2	209214	39.01	0
2	209760	39.11	0
2	210306	39.21	0
2	210852	39.31	0
2	211398	39.41	0
2	211944	39.51	0
2	212490	39.61	0
2	213036	39.71	0
2	213582	39.81	0
2	214128	39.91	0
2	214682	40.01	0
2	215228	40.11	0
2	215774	40.21	0
2	216320	40.31	0
2	216866	40.41	0
2	217412	40.51	0
2	217958	40.61	0
2	218504	40.71	0
2	219050	40.81	0
2	219596	40.91	0
2	220150	41.01	0
2	220696	41.11	0
2	221242	41.21	0
2	221788	41.31	0
2	222334	41.41	0
2	222880	41.51	0
2	223426	41.61	0
2	223972	41.71	0
2	224518	41.81	0
2	225064	41.91	0
2	225618	42.01	0
2	226164	42.11	0
2	226710	42.21	0
2	227256	42.31	0
2	227802	42.41	0
2	228348	42.51	0
2	228894	42.61	0
2	229440	42.71	0
2	229986	42.81	0
2	230532	42.91	0
2	231086	43.01	0
2	231632	43.11	0
2	232178	43.21	0
2	232724	43.31	0
2	233270	43.41	0
2	233816	43.51	0
2	234362	43.61	0
2	234908	43.71	0
2	235454	43.81	0
2	236000	43.91	0
2	236554	44.01	0
2	237100	44.11	0
2	237646	44.21	0
2	238192	44.31	0
2	238738	44.41	0
2	239284	44.51	0
2	239830	44.61	0
2	240376	44.71	0
2	240922	44.81	0
2	241468	44.91	0
2	242022	45.01	0
2	242568	45.11	0
2	243114	45.21	0
2	243660	45.31	0
2	244206	45.41	0
2	244752	45.51	0
2	245298	45.61	0
2	245844	45.71	0
2	246390	45.81	0
2	246936	45.91	0
2	247490	46.01	0
2	248036	46.11	0
2	248582	46.21	0
2	249128	46.31	0
2	249674	46.41	0
2	250220	46.51	0
2	250766	46.61	0
2	251312	46.71	0
2	251858	46.81	0
2	252404	46.91	0
2	252958	47.01	0
2	253504	47.11	0
2	254050	47.21	0
2	254596	47.31	0
2	255142	47.41	0
2	255688	47.51	0
2	256234	47.61	0
2	256780	47.71	0
2	257326	47.81	0
2	257872	47.91	0
2	258426	48.01	0
2	258972	48.11	0
2	259518	48.21	0
2	260064	48.31	0
2	260610	48.41	0
2	261156	48.51	0
2	261702	48.61	0
2	262248	48.71	0
2	262794	48.81	0
2	263340	48.91	0
2	263894	49.01	0
2	264440	49.11	0
2	264986	49.21	0
2	265532	49.31	0
2	266078	49.41	0
2	266624	49.51	0
2	267170	49.61	0
2	267716	49.71	0
2	268262	49.81	0
2	268808	49.91	0
2	269362	50.01	0
2	269908	50.11	0
2	270454	50.21	0
2	271000	50.31	0
2	271546	50.41	0
2	272092	50.51	0
2	272638	50.61	0
2	273184	50.71	0
2	273730	50.81	0
2	274276	50.91	0
2	274830	51.01	0
2	275376	51.11	0
2	275922	51.21	0
2	276468	51.31	0
2	277014	51.41	0
2	277560	51.51	0
2	278106	51.61	0
2	278652	51.71	0
2	279198	51.81	0
2	279744	51.91	0
2	280298	52.01	0
2	280844	52.11	0
2	281390	52.21	0
2	281936	52.31	0
2	282482	52.41	0
2	283028	52.51	0
2	283574	52.61	0
2	284120	52.71	0
2	284666	52.81	0
2	285212	52.91	0
2	285766	53.01	0
2	286312	53.11	0
2	286858	53.21	0
2	287404	53.31	0
2	287950	53.41	0
2	288496	53.51	0
2	289042	53.61	0
2	289588	53.71	0
2	290134	53.81	0
2	290680	53.91	0
2	291234	54.01	0
2	291780	54.11	0
2	292326	54.21	0
2	292872	54.31	0
2	293418	54.41	0
2	293964	54.51	0
2	294510	54.61	0
2	295056	54.71	0
2	295602	54.81	0
2	296148	54.91	0
2	296702	55.01	0
2	297248	55.11	0
2	297794	55.21	0
2	298340	55.31	0
2	298886	55.41	0
2	299432	55.51	0
2	299978	55.61	0
2	300524	55.71	0
2	301070	55.81	0
2	301616	55.91	0
2	302170	56.01	0
2	302716	56.11	0
2	303262	56.21	0
2	303808	56.31	0
2	304354	56.41	0
2	304900	56.51	0
2	305446	56.61	0
2	305992	56.71	0
2	306538	56.81	0
2	307084	56.91	0
2	307638	57.01	0
2	308184	57.11	0
2	308730	57.21	0
2	309276	57.31	0
2	309822	57.41	0
2	310368	57.51	0
2	310914	57.61	0
2	311460	57.71	0
2	312006	57.81	0
2	312552	57.91	0
2	313106	58.01	0
2	313652	58.11	0
2	314198	58.21	0
2	314744	58.31	0
2	315290	58.41	0
2	315836	58.51	0
2	316382	58.61	0
2	316928	58.71	0
2	317474	58.81	0
2	318020	58.91	0
2	318574	59.01	0
2	319120	59.11	0
2	319666	59.21	0
2	320212	59.31	0
2	320758	59.41	0
2	321304	59.51	0
2	321850	59.61	0
2	322396	59.71	0
2	322942	59.81	0
2	323488	59.91	0
2	324042	60.01	0
2	324588	60.11	0
2	325134	60.21	0
2	325680	60.31	0
2	326226	60.41	0
2	326772	60.51	0
2	327318	60.61	0
2	327864	60.71	0
2	328410	60.81	0
2	328956	60.91	0
2	329510	61.01	0
2	330056	61.11	0
2	330602	61.21	0
2	331148	61.31	0
2	331694	61.41	0
2	332240	61.51	0
2	332786	61.61	0
2	333332	61.71	0
2	333878	61.81	0
2	334424	61.91	0
2	334978	62.01	0
2	335524	62.11	0
2	336070	62.21	0
2	336616	62.31	0
2	337162	62.41	0
2	337708	62.51	0
2	338254	62.61	0
2	338800	62.71	0
2	339346	62.81	0
2	339892	62.91	0
2	340446	63.01	0
2	340992	63.11	0
2	341538	63.21	0
2	342084	63.31	0
2	342630	63.41	0
2	343176	63.51	0
2	343722	63.61	0
2	344268	63.71	0
2	344814	63.81	0
2	345360	63.91	0
2	345914	64.01	0
2	346460	64.11	0
2	347006	64.21	0
2	347552	64.31	0
2	348098	64.41	0
2	348644	64.51	0
2	349190	64.61	0
2	349736	64.71	0
2	350282	64.81	0
2	350828	64.91	0
2	351382	65.01	0
2	351928	65.11	0
2	352474	65.21	0
2	353020	65.31	0
2	353566	65.41	0
2	354112	65.51	0
2	354658	65.61	0
2	355204	65.71	0
2	355750	65.81	0
2	356296	65.91	0
2	356850	66.01	0
2	357396	66.11	0
2	357942	66.21	0
2	358488	66.31	0
2	359034	66.41	0
2	359580	66.51	0
2	360126	66.61	0
2	360672	66.71	0
2	361218	66.81	0
2	361764	66.91	0
2	362318	67.01	0
2	362864	67.11	0
2	363410	67.21	0
2	363956	67.31	0
2	364502	67.41	0
2	365048	67.51	0
2	365594	67.61	0
2	366140	67.71	0
2	366686	67.81	0
2	367232	67.91	0
2	367786	68.01	0
2	368332	68.11	0
2	368878	68.21	0
2	369424	68.31	0
2	369970	68.41	0
2	370516	68.51	0
2	371062	68.61	0
2	371608	68.71	0
2	372154	68.81	0
2	372700	68.91	0
2	373254	69.01	0
2	373800	69.11	0
2	374346	69.21	0
2	374892	69.31	0
2	375438	69.41	0
2	375984	69.51	0
2	376530	69.61	0
2	377076	69.71	0
2	377622	69.81	0
2	378168	69.91	0
2	378722	70.01	0
2	379268	70.11	0
2	379814	70.21	0
2	380360	70.31	0
2	380906	70.41	0
2	381452	70.51	0
2	381998	70.61	0
2	382544	70.71	0
2	383090	70.81	0
2	383636	70.91	0
2	384190	71.01	0
2	384736	71.11	0
2	385282	71.21	0
2	385828	71.31	0
2	386374	71.41	0
2	386920	71.51	0
2	387466	71.61	0
2	388012	71.71	0
2	388558	71.81	0
2	389104	71.91	0
2	389658	72.01	0
2	390204	72.11	0
2	390750	72.21	0
2	391296	72.31	0
2	391842	72.41	0
2	392388	72.51	0
2	392934	72.61	0
2	393480	72.71	0
2	394026	72.81	0
2	394572	72.91	0
2	395126	73.01	0
2	395672	73.11	0
2	396218	73.21	0
2	396764	73.31	0
2	397310	73.41	0
2	397856	73.51	0
2	398402	73.61	0
2	398948	73.71	0
2	399494	73.81	0
2	400040	73.91	0
2	400594	74.01	0
2	401140	74.11	0
2	401686	74.21	0
2	402232	74.31	0
2	402778	74.41	0
2	403324	74.51	0
2	403870	74.61	0
2	404416	74.71	0
2	404962	74.81	0
2	405508	74.91	0
2	406062	75.01	0
2	406608	75.11	0
2	407154	75.21	0
2	407700	75.31	0
2	408246	75.41	0
2	408792	75.51	0
2	409338	75.61	0
2	409884	75.71	0
2	410430	75.81	0
2	410976	75.91	0
2	411530	76.01	0
2	412076	76.11	0
2	412622	76.21	0
2	413168	76.31	0
2	413714	76.41	0
2	414260	76.51	0
2	414806	76.61	0
2	415352	76.71	0
2	415898	76.81	0
2	416444	76.91	0
2	416998	77.01	0
2	417544	77.11	0
2	418090	77.21	0
2	418636	77.31	0
2	419182	77.41	0
2	419728	77.51	0
2	420274	77.61	0
2	420820	77.71	0
2	421366	77.81	0
2	421912	77.91	0
2	422466	78.01	0
2	423012	78.11	0
2	423558	78.21	0
2	424104	78.31	0
2	424650	78.41	0
2	425196	78.51	0
2	425742	78.61	0
2	426288	78.71	0
2	426834	78.81	0
2	427380	78.91	0
2	427934	79.01	0
2	428480	79.11	0
2	429026	79.21	0
2	429572	79.31	0
2	430118	79.41	0
2	430664	79.51	0
2	431210	79.61	0
2	431756	79.71	0
2	432302	79.81	0
2	432848	79.91	0
2	433402	80.01	0
2	433948	80.11	0
2	434494	80.21	0
2	435040	80.31	0
2	435586	80.41	0
2	436132	80.51	0
2	436678	80.61	0
2	437224	80.71	0
2	437770	80.81	0
2	438316	80.91	0
2	438870	81.01	0
2	439416	81.11	0
2	439962	81.21	0
2	440508	81.31	0
2	441054	81.41	0
2	441600	81.51	0
2	442146	81.61	0
2	442692	81.71	0
2	443238	81.81	0
2	443784	81.91	0
2	444338	82.01	0
2	444884	82.11	0
2	445430	82.21	0
2	445976	82.31	0
2	446522	82.41	0
2	447068	82.51	0
2	447614	82.61	0
2	448160	82.71	0
2	448706	82.81	0
2	449252	82.91	0
2	449806	83.01	0
2	450352	83.11	0
2	450898	83.21	0
2	451444	83.31	0
2	451990	83.41	0
2	452536	83.51	0
2	453082	83.61	0
2	453628	83.71	0
2	454174	83.81	0
2	454720	83.91	0
2	455274	84.01	0
2	455820	84.11	0
2	456366	84.21	0
2	456912	84.31	0
2	457458	84.41	0
2	458004	84.51	0
2	458550	84.61	0
2	459096	84.71	0
2	459642	84.81	0
2	460188	84.91	0
2	460742	85.01	0
2	461288	85.11	0
2	461834	85.21	0
2	462380	85.31	0
2	462926	85.41	0
2	463472	85.51	0
2	464018	85.61	0
2	464564	85.71	0
2	465110	85.81	0
2	465656	85.91	0
2	466210	86.01	0
2	466756	86.11	0
2	467302	86.21	0
2	467848	86.31	0
2	468394	86.41	0
2	468940	86.51	0
2	469486	86.61	0
2	470032	86.71	0
2	470578	86.81	0
2	471124	86.91	0
2	471678	87.01	0
2	472224	87.11	0
2	472770	87.21	0
2	473316	87.31	0
2	473862	87.41	0
2	474408	87.51	0
2	474954	87.61	0
2	475500	87.71	0
2	476046	87.81	0
2	476592	87.91	0
2	477146	88.01	0
2	477692	88.11	0
2	478238	88.21	0
2	478784	88.31	0
2	479330	88.41	0
2	479876	88.51	0
2	480422	88.61	0
2	480968	88.71	0
2	481514	88.81	0
2	482060	88.91	0
2	482614	89.01	0
2	483160	89.11	0
2	483706	89.21	0
2	484252	89.31	0
2	484798	89.41	0
2	485344	89.51	0
2	485890	89.61	0
2	486436	89.71	0
2	486982	89.81	0
2	487528	89.91	0
2	488082	90.01	0
2	488628	90.11	0
2	489174	90.21	0
2	489720	90.31	0
2	490266	90.41	0
2	490812	90.51	0
2	491358	90.61	0
2	491904	90.71	0
2	492450	90.81	0
2	492996	90.91	0
2	493550	91.01	0
2	494096	91.11	0
2	494642	91.21	0
2	495188	91.31	0
2	495734	91.41	0
2	496280	91.51	0
2	496826	91.61	0
2	497372	91.71	0
2	497918	91.81	0
2	498464	91.91	0
2	499018	92.01	0
2	499564	92.11	0
2	500110	92.21	0
2	500656	92.31	0
2	501202	92.41	0
2	501748	92.51	0
2	502294	92.61	0
2	502840	92.71	0
2	503386	92.81	0
2	503932	92.91	0
2	504486	93.01	0
2	505032	93.11	0
2	505578	93.21	0
2	506124	93.31	0
2	506670	93.41	0
2	507216	93.51	0
2	507762	93.61	0
2	508308	93.71	0
2	508854	93.81	0
2	509400	93.91	0
2	509954	94.01	0
2	510500	94.11	0
2	511046	94.21	0
2	511592	94.31	0
2	512138	94.41	0
2	512684	94.51	0
2	513230	94.61	0
2	513776	94.71	0
2	514322	94.81	0
2	514868	94.91	0
2	515422	95.01	0
2	515968	95.11	0
2	516514	95.21	0
2	517060	95.31	0
2	517606	95.41	0
2	518152	95.51	0
2	518698	95.61	0
2	519244	95.71	0
2	519790	95.81	0
2	520336	95.91	0
2	520890	96.01	0
2	521436	96.11	0
2	521982	96.21	0
2	522528	96.31	0
2	523074	96.41	0
2	523620	96.51	0
2	524166	96.61	0
2	524712	96.71	0
2	525258	96.81	0
2	525804	96.91	0
2	526358	97.01	0
2	526904	97.11	0
2	527450	97.21	0
2	527996	97.31	0
2	528542	97.41	0
2	529088	97.51	0
2	529634	97.61	0
2	530180	97.71	0
2	530726	97.81	0
2	531272	97.91	0
2	531826	98.01	0
2	532372	98.11	0
2	532918	98.21	0
2	533464	98.31	0
2	534010	98.41	0
2	534556	98.51	0
2	535102	98.61	0
2	535648	98.71	0
2	536194	98.81	0
2	536740	98.91	0
2	537294	99.01	0
2	537840	99.11	0
2	538386	99.21	0
2	538932	99.31	0
2	539478	99.41	0
2	540024	99.51	0
2	540570	99.61	0
2	541116	99.71	0
2	541662	99.81	0
2	542208	99.91	0
3	113	1.11	0.000179096
3	659	1.21	0.000340852
3	1205	1.31	0.000467435
3	1751	1.41	0.000562893
3	2297	1.51	0.000631106
3	2843	1.61	0.000675745
3	3389	1.71	0.000700245
3	3935	1.81	0.000707784
3	4481	1.91	0.000701273
3	5035	2.01	0.000683354
3	5581	2.11	0.000656398
3	6127	2.21	0.000622512
3	6673	2.31	0.000583548
3	7219	2.41	0.000541117
3	7765	2.51	0.000496604
3	8311	2.61	0.000451181
3	8857	2.71	0.000405825
3	9403	2.81	0.00036134
3	9949	2.91	0.000318365
3	10503	3.01	0.0002774
3	11049	3.11	0.00023882
3	11595	3.21	0.000202887
3	12141	3.31	0.00016977
3	12687	3.41	0.000139558
3	13233	3.51	0.000112271
3	13779	3.61	8.78717e-05
3	14325	3.71	6.628e-05
3	14871	3.81	4.73785e-05
3	15417	3.91	3.1023e-05
3	15971	4.01	1.70493e-05
3	16517	4.11	5.28023e-06
3	17063	4.21	-4.46922e-06
3	17609	4.31	-1.2387e-05
3	18155	4.41	-1.86602e-05
3	18701	4.51	-2.34717e-05
3	19247	4.61	-2.69978e-05
3	19793	4.71	-2.94062e-05
3	20339	4.81	-3.08545e-05
3	20885	4.91	-3.14892e-05
3	21439	5.01	-3.14451e-05
3	21985	5.11	-3.0845e-05
3	22531	5.21	-2.97994e-05
3	23077	5.31	-2.84072e-05
3	23623	5.41	-2.67556e-05
3	24169	5.51	-2.49208e-05
3	24715	5.61	-2.29687e-05
3	25261	5.71	-2.09553e-05
3	25807	5.81	-1.89277e-05
3	26353	5.91	-1.6925e-05
3	26907	6.01	-1.49784e-05
3	27453	6.11	-1.31129e-05
3	27999	6.21	-1.13474e-05
3	28545	6.31	-9.69553e-06
3	29091	6.41	-8.16651e-06
3	29637	6.51	-6.76571e-06
3	30183	6.61	-5.49522e-06
3	30729	6.71	-4.35441e-06
3	31275	6.81	-3.34045e-06
3	31821	6.91	-2.44874e-06
3	32375	7.01	-1.6733e-06
3	32921	7.11	-1.00716e-06
3	33467	7.21	-4.42628e-07
3	34013	7.31	2.84224e-08
3	34559	7.41	4.14339e-07
3	35105	7.51	7.23492e-07
3	35651	7.61	9.6413e-07
3	36197	7.71	1.14424e-06
3	36743	7.81	1.27148e-06
3	37289	7.91	1.35305e-06
3	37843	8.01	1.3957e-06
3	38389	8.11	1.40565e-06
3	38935	8.21	1.3886e-06
3	39481	8.31	1.34971e-06
3	40027	8.41	1.2936e-06
3	40573	8.51	1.22437e-06
3	41119	8.61	1.14561e-06
3	41665	8.71	1.06046e-06
3	42211	8.81	9.71582e-07
3	42757	8.91	8.81246e-07
3	43311	9.01	7.91334e-07
3	43857	9.11	7.03381e-07
3	44403	9.21	6.18613e-07
3	44949	9.31	5.37979e-07
3	45495	9.41	4.62183e-07
3	46041	9.51	3.91714e-07
3	46587	9.61	3.26878e-07
3	47133	9.71	2.67827e-07
3	47679	9.81	2.14581e-07
3	48225	9.91	1.67052e-07
3	50642	10.01	1.25066e-07
3	51188	10.11	8.83794e-08
3	51734	10.21	5.66978e-08
3	52280	10.31	2.96922e-08
3	52826	10.41	7.00453e-09
3	53372	10.51	-1.17325e-08
3	53918	10.61	-2.68933e-08
3	54464	10.71	-3.88482e-08
3	55010	10.81	-4.79581e-08
3	55556	10.91	-5.45704e-08
3	56110	11.01	-5.90177e-08
3	56656	11.11	-6.16069e-08
3	57202	11.21	-6.26265e-08
3	57748	11.31	-6.23395e-08
3	58294	11.41	-6.09859e-08
3	58840	11.51	-5.87811e-08
3	59386	11.61	-5.59183e-08
3	59932	11.71	-5.25674e-08
3	60478	11.81	-4.88761e-08
3	61024	11.91	-4.4971e-08
3	61578	12.01	-4.09599e-08
3	62124	12.11	-3.69354e-08
3	62670	12.21	-3.29713e-08
3	63216	12.31	-2.9128e-08
3	63762	12.41	-2.54531e-08
3	64308	12.51	-2.19821e-08
3	64854	12.61	-1.87399e-08
3	65400	12.71	-1.57428e-08
3	65946	12.81	-1.30029e-08
3	66492	12.91	-1.05217e-08
3	67046	13.01	-8.29772e-09
3	67592	13.11	-6.32454e-09
3	68138	13.21	-4.59224e-09
3	68684	13.31	-3.08802e-09
3	69230	13.41	-1.79838e-09
3	69776	13.51	-7.08411e-10
3	70322	13.61	1.98241e-10
3	70868	13.71	9.37916e-10
3	71414	13.81	1.52767e-09
3	71960	13.91	1.98384e-09
3	72514	14.01	2.32276e-09
3	73060	14.11	2.55937e-09
3	73606	14.21	2.70788e-09
3	74152	14.31	2.78249e-09
3	74698	14.41	2.79243e-09
3	75244	14.51	2.7498e-09
3	75790	14.61	2.66525e-09
3	76336	14.71	2.54872e-09
3	76882	14.81	2.40803e-09
3	77428	14.91	2.24887e-09
3	77982	15.01	2.07763e-09
3	78528	15.11	1.89999e-09
3	79074	15.21	1.72236e-09
3	79620	15.31	1.54472e-09
3	80166	15.41	1.37064e-09
3	80712	15.51	1.20295e-09
3	81258	15.61	1.04379e-09
3	81804	15.71	8.94573e-10
3	82350	15.81	7.56017e-10
3	82896	15.91	6.29541e-10
3	83450	16.01	5.13012e-10
3	83996	16.11	4.09273e-10
3	84542	16.21	3.16902e-10
3	85088	16.31	2.3519e-10
3	85634	16.41	1.63425e-10
3	86180	16.51	1.02318e-10
3	86726	16.61	4.9738e-11
3	87272	16.71	5.68434e-12
3	87818	16.81	-3.05533e-11
3	88364	16.91	-5.8975e-11
3	88918	17.01	-8.10019e-11
3	89464	17.11	-9.80549e-11
3	90010	17.21	-1.11555e-10
3	90556	17.31	-1.18661e-10
3	91102	17.41	-1.23634e-10
3	91648	17.51	-1.23634e-10
3	92194	17.61	-1.23634e-10
3	92740	17.71	-1.21503e-10
3	93286	17.81	-1.14397e-10
3	93832	17.91	-1.07292e-10
3	94386	18.01	-1.00187e-10
3	94932	18.11	-9.30811e-11
3	95478	18.21	-8.59757e-11
3	96024	18.31	-7.88702e-11
3	96570	18.41	-7.17648e-11
3	97116	18.51	-6.46594e-11
3	97662	18.61	-5.7554e-11
3	98208	18.71	-5.04485e-11
3	98754	18.81	-4.33431e-11
3	99300	18.91	-3.62377e-11
3	99854	19.01	-2.91323e-11
3	100400	19.11	-2.20268e-11
3	100946	19.21	-1.7053e-11
3	101492	19.31	-1.49214e-11
3	102038	19.41	-1.35003e-11
3	102584	19.51	-1.27898e-11
3	103130	19.61	-1.13687e-11
3	103676	19.71	-9.9476e-12
3	104222	19.81	-9.23706e-12
3	104768	19.91	-8.52651e-12
3	105322	20.01	-7.81597e-12
3	105868	20.11	-7.10543e-12
3	106414	20.21	-6.39488e-12
3	106960	20.31	-5.68434e-12
3	107506	20.41	-4.9738e-12
3	108052	20.51	-4.26326e-12
3	108598	20.61	-4.26326e-12
3	109144	20.71	-3.55271e-12
3	109690	20.81	-3.55271e-12
3	110236	20.91	-2.84217e-12
3	110790	21.01	-2.84217e-12
3	111336	21.11	-2.84217e-12
3	111882	21.21	-2.13163e-12
3	112428	21.31	-2.13163e-12
3	112974	21.41	-2.13163e-12
3	113520	21.51	-1.42109e-12
3	114066	21.61	-1.42109e-12
3	114612	21.71	-1.42109e-12
3	115158	21.81	-1.42109e-12
3	115704	21.91	-1.42109e-12
3	116258	22.01	-7.10543e-13
3	116804	22.11	-7.10543e-13
3	117350	22.21	-7.10543e-13
3	117896	22.31	-7.10543e-13
3	118442	22.41	-7.10543e-13
3	118988	22.51	-7.10543e-13
3	119534	22.61	-7.10543e-13
3	120080	22.71	-7.10543e-13
3	120626	22.81	-7.10543e-13
3	121172	22.91	-7.10543e-13
3	121726	23.01	0
3	122272	23.11	0
3	122818	23.21	0
3	123364	23.31	0
3	123910	23.41	0
3	124456	23.51	0
3	125002	23.61	0
3	125548	23.71	0
3	126094	23.81	0
3	126640	23.91	0
3	127194	24.01	0
3	127740	24.11	0
3	128286	24.21	0
3	128832	24.31	0
3	129378	24.41	0
3	129924	24.51	0
3	130470	24.61	0
3	131016	24.71	0
3	131562	24.81	0
3	132108	24.91	0
3	132662	25.01	0
3	133208	25.11	0
3	133754	25.21	0
3	134300	25.31	0
3	134846	25.41	0
3	135392	25.51	0
3	135938	25.61	0
3	136484	25.71	0
3	137030	25.81	0
3	137576	25.91	0
3	138130	26.01	0
3	138676	26.11	0
3	139222	26.21	0
3	139768	26.31	0
3	140314	26.41	0
3	140860	26.51	0
3	141406	26.61	0
3	141952	26.71	0
3	142498	26.81	0
3	143044	26.91	0
3	143598	27.01	0
3	144144	27.11	0
3	144690	27.21	0
3	145236	27.31	0
3	145782	27.41	0
3	146328	27.51	0
3	146874	27.61	0
3	147420	27.71	0
3	147966	27.81	0
3	148512	27.91	0
3	149066	28.01	0
3	149612	28.11	0
3	150158	28.21	0
3	150704	28.31	0
3	151250	28.41	0
3	151796	28.51	0
3	152342	28.61	0
3	152888	28.71	0
3	153434	28.81	0
3	153980	28.91	0
3	154534	29.01	0
3	155080	29.11	0
3	155626	29.21	0
3	156172	29.31	0
3	156718	29.41	0
3	157264	29.51	0
3	157810	29.61	0
3	158356	29.71	0
3	158902	29.81	0
3	159448	29.91	0
3	160002	30.01	0
3	160548	30.11	0
3	161094	30.21	0
3	161640	30.31	0
3	162186	30.41	0
3	162732	30.51	0
3	163278	30.61	0
3	163824	30.71	0
3	164370	30.81	0
3	164916	30.91	0
3	165470	31.01	0
3	166016	31.11	0
3	166562	31.21	0
3	167108	31.31	0
3	167654	31.41	0
3	168200	31.51	0
3	168746	31.61	0
3	169292	31.71	0
3	169838	31.81	0
3	170384	31.91	0
3	170938	32.01	0
3	171484	32.11	0
3	172030	32.21	0
3	172576	32.31	0
3	173122	32.41	0
3	173668	32.51	0
3	174214	32.61	0
3	174760	32.71	0
3	175306	32.81	0
3	175852	32.91	0
3	176406	33.01	0
3	176952	33.11	0
3	177498	33.21	0
3	178044	33.31	0
3	178590	33.41	0
3	179136	33.51	0
3	179682	33.61	0
3	180228	33.71	0
3	180774	33.81	0
3	181320	33.91	0
3	181874	34.01	0
3	182420	34.11	0
3	182966	34.21	0
3	183512	34.31	0
3	184058	34.41	0
3	184604	34.51	0
3	185150	34.61	0
3	185696	34.71	0
3	186242	34.81	0
3	186788	34.91	0
3	187342	35.01	0
3	187888	35.11	0
3	188434	35.21	0
3	188980	35.31	0
3	189526	35.41	0
3	190072	35.51	0
3	190618	35.61	0
3	191164	35.71	0
3	191710	35.81	0
3	192256	35.91	0
3	192810	36.01	0
3	193356	36.11	0
3	193902	36.21	0
3	194448	36.31	0
3	194994	36.41	0
3	195540	36.51	0
3	196086	36.61	0
3	196632	36.71	0
3	197178	36.81	0
3	197724	36.91	0
3	198278	37.01	0
3	198824	37.11	0
3	199370	37.21	0
3	199916	37.31	0
3	200462	37.41	0
3	201008	37.51	0
3	201554	37.61	0
3	202100	37.71	0
3	202646	37.81	0
3	203192	37.91	0
3	203746	38.01	0
3	204292	38.11	0
3	204838	38.21	0
3	205384	38.31	0
3	205930	38.41	0
3	206476	38.51	0
3	207022	38.61	0
3	207568	38.71	0
3	208114	38.81	0
3	208660	38.91	0
3	209214	39.01	0
3	209760	39.11	0
3	210306	39.21	0
3	210852	39.31	0
3	211398	39.41	0
3	211944	39.51	0
3	212490	39.61	0
3	213036	39.71	0
3	213582	39.81	0
3	214128	39.91	0
3	214682	40.01	0
3	215228	40.11	0
3	215774	40.21	0
3	216320	40.31	0
3	216866	40.41	0
3	217412	40.51	0
3	217958	40.61	0
3	218504	40.71	0
3	219050	40.81	0
3	219596	40.91	0
3	220150	41.01	0
3	220696	41.11	0
3	221242	41.21	0
3	221788	41.31	0
3	222334	41.41	0
3	222880	41.51	0
3	223426	41.61	0
3	223972	41.71	0
3	224518	41.81	0
3	225064	41.91	0
3	225618	42.01	0
3	226164	42.11	0
3	226710	42.21	0
3	227256	42.31	0
3	227802	42.41	0
3	228348	42.51	0
3	228894	42.61	0
3	229440	42.71	0
3	229986	42.81	0
3	230532	42.91	0
3	231086	43.01	0
3	231632	43.11	0
3	232178	43.21	0
3	232724	43.31	0
3	233270	43.41	0
3	233816	43.51	0
3	234362	43.61	0
3	234908	43.71	0
3	235454	43.81	0
3	236000	43.91	0
3	236554	44.01	0
3	237100	44.11	0
3	237646	44.21	0
3	238192	44.31	0
3	238738	44.41	0
3	239284	44.51	0
3	239830	44.61	0
3	240376	44.71	0
3	240922	44.81	0
3	241468	44.91	0
3	242022	45.01	0
3	242568	45.11	0
3	243114	45.21	0
3	243660	45.31	0
3	244206	45.41	0
3	244752	45.51	0
3	245298	45.61	0
3	245844	45.71	0
3	246390	45.81	0
3	246936	45.91	0
3	247490	46.01	0
3	248036	46.11	0
3	248582	46.21	0
3	249128	46.31	0
3	249674	46.41	0
3	250220	46.51	0
3	250766	46.61	0
3	251312	46.71	0
3	251858	46.81	0
3	252404	46.91	0
3	252958	47.01	0
3	253504	47.11	0
3	254050	47.21	0
3	254596	47.31	0
3	255142	47.41	0
3	255688	47.51	0
3	256234	47.61	0
3	256780	47.71	0
3	257326	47.81	0
3	257872	47.91	0
3	258426	48.01	0
3	258972	48.11	0
3	259518	48.21	0
3	260064	48.31	0
3	260610	48.41	0
3	261156	48.51	0
3	261702	48.61	0
3	262248	48.71	0
3	262794	48.81	0
3	263340	48.91	0
3	263894	49.01	0
3	264440	49.11	0
3	264986	49.21	0
3	265532	49.31	0
3	266078	49.41	0
3	266624	49.51	0
3	267170	49.61	0
3	267716	49.71	0
3	268262	49.81	0
3	268808	49.91	0
3	269362	50.01	0
3	269908	50.11	0
3	270454	50.21	0
3	271000	50.31	0
3	271546	50.41	0
3	272092	50.51	0
3	272638	50.61	0
3	273184	50.71	0
3	273730	50.81	0
3	274276	50.91	0
3	274830	51.01	0
3	275376	51.11	0
3	275922	51.21	0
3	276468	51.31	0
3	277014	51.41	0
3	277560	51.51	0
3	278106	51.61	0
3	278652	51.71	0
3	279198	51.81	0
3	279744	51.91	0
3	280298	52.01	0
3	280844	52.11	0
3	281390	52.21	0
3	281936	52.31	0
3	282482	52.41	0
3	283028	52.51	0
3	283574	52.61	0
3	284120	52.71	0
3	284666	52.81	0
3	285212	52.91	0
3	285766	53.01	0
3	286312	53.11	0
3	286858	53.21	0
3	287404	53.31	0
3	287950	53.41	0
3	288496	53.51	0
3	289042	53.61	0
3	289588	53.71	0
3	290134	53.81	0
3	290680	53.91	0
3	291234	54.01	0
3	291780	54.11	0
3	292326	54.21	0
3	292872	54.31	0
3	293418	54.41	0
3	293964	54.51	0
3	294510	54.61	0
3	295056	54.71	0
3	295602	54.81	0
3	296148	54.91	0
3	296702	55.01	0
3	297248	55.11	0
3	297794	55.21	0
3	298340	55.31	0
3	298886	55.41	0
3	299432	55.51	0
[...]
105	438624	81	0.024966846737
105	444092	82	0.024979246423
105	449560	83	0.024965641187
105	455028	84	0.024965037684
105	460496	85	0.024977437827
105	465964	86	0.024963839367
105	471432	87	0.024976240775
105	476900	88	0.02496264179
105	482368	89	0.024975042545
105	487836	90	0.024974443154
105	493304	91	0.024960843655
105	498772	92	0.024973244063
105	504240	93	0.024972644399
105	509708	94	0.02497204466
105	515176	95	0.024971444862
105	520644	96	0.024970847227
105	526112	97	0.024970255785
105	531580	98	0.024969655908
105	537048	99	0.024969055819
105	542516	100	0.024968455594
106	4789	2	0
106	10257	3	0
106	15725	4	0
106	21193	5	0
106	26661	6	0
106	32129	7	0
106	37597	8	0
106	43065	9	0
106	48534	10	0
106	55864	11	0
106	61332	12	0
106	66800	13	0
106	72268	14	0
106	77736	15	0
106	83204	16	0
106	88672	17	0
106	94140	18	0
106	99608	19	0
106	105076	20	0
106	110544	21	0
106	116012	22	0
106	121480	23	0
106	126948	24	0
106	132416	25	0
106	137884	26	0
106	143352	27	0
106	148820	28	0
106	154288	29	0
106	159756	30	0
106	165224	31	0
106	170692	32	0
106	176160	33	0
106	181628	34	0
106	187096	35	0
106	192564	36	0
106	198032	37	0
106	203500	38	0
106	208968	39	0
106	214436	40	0
106	219904	41	0
106	225372	42	0
106	230840	43	0
106	236308	44	0
106	241776	45	0
106	247244	46	0
106	252712	47	0
106	258180	48	0
106	263648	49	0
106	269116	50	0
106	274584	51	0
106	280052	52	0
106	285520	53	0
106	290988	54	0
106	296456	55	0
106	301924	56	0
106	307392	57	0
106	312860	58	0
106	318328	59	0
106	323796	60	0
106	329264	61	0
106	334732	62	0
106	340200	63	0
106	345668	64	0
106	351136	65	0
106	356604	66	0
106	362072	67	0
106	367540	68	0
106	373008	69	0
106	378476	70	0
106	383944	71	0
106	389412	72	0
106	394880	73	0
106	400348	74	0
106	405816	75	0
106	411284	76	0
106	416752	77	0
106	422220	78	0
106	427688	79	0
106	433156	80	0
106	438624	81	0
106	444092	82	0
106	449560	83	0
106	455028	84	0
106	460496	85	0
106	465964	86	0
106	471432	87	0
106	476900	88	0
106	482368	89	0
106	487836	90	0
106	493304	91	0
106	498772	92	0
106	504240	93	0
106	509708	94	0
106	515176	95	0
106	520644	96	0
106	526112	97	0
106	531580	98	0
106	537048	99	0
106	542516	100	0
107	4790	2	5
107	10258	3	5
107	15726	4	5
107	21194	5	5
107	26662	6	5
107	32130	7	5
107	37598	8	5
107	43066	9	5
107	48535	10	5
107	55865	11	5
107	61333	12	5
107	66801	13	5
107	72269	14	5
107	77737	15	5
107	83205	16	5
107	88673	17	5
107	94141	18	5
107	99609	19	5
107	105077	20	5
107	110545	21	5
107	116013	22	5
107	121481	23	5
107	126949	24	5
107	132417	25	5
107	137885	26	5
107	143353	27	5
107	148821	28	5
107	154289	29	5
107	159757	30	5
107	165225	31	5
107	170693	32	5
107	176161	33	5
107	181629	34	5
107	187097	35	5
107	192565	36	5
107	198033	37	5
107	203501	38	5
107	208969	39	5
107	214437	40	5
107	219905	41	5
107	225373	42	5
107	230841	43	5
107	236309	44	5
107	241777	45	5
107	247245	46	5
107	252713	47	5
107	258181	48	5
107	263649	49	5
107	269117	50	5
107	274585	51	5
107	280053	52	5
107	285521	53	5
107	290989	54	5
107	296457	55	5
107	301925	56	5
107	307393	57	5
107	312861	58	5
107	318329	59	5
107	323797	60	5
107	329265	61	5
107	334733	62	5
107	340201	63	5
107	345669	64	5
107	351137	65	5
107	356605	66	5
107	362073	67	5
107	367541	68	5
107	373009	69	5
107	378477	70	5
107	383945	71	5
107	389413	72	5
107	394881	73	5
107	400349	74	5
107	405817	75	5
107	411285	76	5
107	416753	77	5
107	422221	78	5
107	427689	79	5
107	433157	80	5
107	438625	81	5
107	444093	82	5
107	449561	83	5
107	455029	84	5
107	460497	85	5
107	465965	86	5
107	471433	87	5
107	476901	88	5
107	482369	89	5
107	487837	90	5
107	493305	91	5
107	498773	92	5
107	504241	93	5
107	509709	94	5
107	515177	95	5
107	520645	96	5
107	526113	97	5
107	531581	98	5
107	537049	99	5
107	542517	100	5
108	4790	2	0.021463536907
108	10258	3	0.024964796364
108	15726	4	0.02497779636
108	21194	5	0.024964796355
108	26662	6	0.024977796343
108	32130	7	0.02496479634
108	37598	8	0.02496479634
108	43066	9	0.02497779634
108	48535	10	0.02496479634
108	55865	11	0.026913816883
108	61333	12	0.024977183689
108	66801	13	0.024963404813
108	72269	14	0.02497557254
108	77737	15	0.024974651072
108	83205	16	0.024960634551
108	88673	17	0.024972595952
108	94141	18	0.024971617885
108	99609	19	0.024970673764
108	105077	20	0.024969842325
108	110545	21	0.024969169157
108	116013	22	0.024968632703
108	121481	23	0.024968184493
108	126949	24	0.024967715935
108	132417	25	0.024980244199
108	137885	26	0.024966774661
108	143353	27	0.024966309681
108	148821	28	0.02496584977
108	154289	29	0.024978409979
108	159757	30	0.02496496385
108	165225	31	0.024977535122
108	170693	32	0.02496416556
108	176161	33	0.024976822164
108	181629	34	0.024963485048
108	187097	35	0.024976152078
108	192565	36	0.024962814931
108	198033	37	0.024975472633
108	203501	38	0.024962130051
108	208969	39	0.024974787029
108	214437	40	0.024974443331
108	219905	41	0.024961098579
108	225373	42	0.024973752144
108	230841	43	0.024973402684
108	236309	44	0.024960046928
108	241777	45	0.024972676623
108	247245	46	0.024972276475
108	252713	47	0.024971840472
108	258181	48	0.024971382102
108	263649	49	0.024970913402
108	269117	50	0.024970439231
108	274585	51	0.024969961017
108	280053	52	0.024969478705
108	285521	53	0.024968991354
108	290989	54	0.024968497495
108	296457	55	0.024967995845
108	301925	56	0.024967487657
108	307393	57	0.024979975636
108	312861	58	0.024966464214
108	318329	59	0.024965949331
108	323797	60	0.024965427302
108	329265	61	0.024977910748
108	334733	62	0.024964380065
108	340201	63	0.024976848343
108	345669	64	0.024963315984
108	351137	65	0.024975782959
108	356605	66	0.024962249274
108	362073	67	0.024974714892
108	367541	68	0.024974179735
108	373009	69	0.024960643644
108	378477	70	0.024973106301
108	383945	71	0.024972567204
108	389413	72	0.024972025475
108	394881	73	0.024971479713
108	400349	74	0.024970927823
108	405817	75	0.024970367435
108	411285	76	0.02496979723
108	416753	77	0.024969218045
108	422221	78	0.024968632141
108	427689	79	0.024968041767
108	433157	80	0.024967448526
108	438625	81	0.024966853408
108	444093	82	0.024979253093
108	449561	83	0.024965647857
108	455029	84	0.024965044354
108	460497	85	0.024977444498
108	465965	86	0.024963846037
108	471433	87	0.024976247445
108	476901	88	0.02496264846
108	482369	89	0.024975049216
108	487837	90	0.024974449824
108	493305	91	0.024960850326
108	498773	92	0.024973250733
108	504241	93	0.024972651069
108	509709	94	0.024972051331
108	515177	95	0.024971451532
108	520645	96	0.024970853812
108	526113	97	0.024970262456
108	531581	98	0.024969662579
108	537049	99	0.024969062491
108	542517	100	0.024968462265
109	4790	2	0
109	10258	3	0
109	15726	4	0
109	21194	5	0
109	26662	6	0
109	32130	7	0
109	37598	8	0
109	43066	9	0
109	48535	10	0
109	55865	11	0
109	61333	12	0
109	66801	13	0
109	72269	14	0
109	77737	15	0
109	83205	16	0
109	88673	17	0
109	94141	18	0
109	99609	19	0
109	105077	20	0
109	110545	21	0
109	116013	22	0
109	121481	23	0
109	126949	24	0
109	132417	25	0
109	137885	26	0
109	143353	27	0
109	148821	28	0
109	154289	29	0
109	159757	30	0
109	165225	31	0
109	170693	32	0
109	176161	33	0
109	181629	34	0
109	187097	35	0
109	192565	36	0
109	198033	37	0
109	203501	38	0
109	208969	39	0
109	214437	40	0
109	219905	41	0
109	225373	42	0
109	230841	43	0
109	236309	44	0
109	241777	45	0
109	247245	46	0
109	252713	47	0
109	258181	48	0
109	263649	49	0
109	269117	50	0
109	274585	51	0
109	280053	52	0
109	285521	53	0
109	290989	54	0
109	296457	55	0
109	301925	56	0
109	307393	57	0
109	312861	58	0
109	318329	59	0
109	323797	60	0
109	329265	61	0
109	334733	62	0
109	340201	63	0
109	345669	64	0
109	351137	65	0
109	356605	66	0
109	362073	67	0
109	367541	68	0
109	373009	69	0
109	378477	70	0
109	383945	71	0
109	389413	72	0
109	394881	73	0
109	400349	74	0
109	405817	75	0
109	411285	76	0
109	416753	77	0
109	422221	78	0
109	427689	79	0
109	433157	80	0
109	438625	81	0
109	444093	82	0
109	449561	83	0
109	455029	84	0
109	460497	85	0
109	465965	86	0
109	471433	87	0
109	476901	88	0
109	482369	89	0
109	487837	90	0
109	493305	91	0
109	498773	92	0
109	504241	93	0
109	509709	94	0
109	515177	95	0
109	520645	96	0
109	526113	97	0
109	531581	98	0
109	537049	99	0
109	542517	100	0
110	4791	2	6
110	10259	3	6
110	15727	4	6
110	21195	5	6
110	26663	6	6
110	32131	7	6
110	37599	8	6
110	43067	9	6
110	48536	10	6
110	55866	11	6
110	61334	12	6
110	66802	13	6
110	72270	14	6
110	77738	15	6
110	83206	16	6
110	88674	17	6
110	94142	18	6
110	99610	19	6
110	105078	20	6
110	110546	21	6
110	116014	22	6
110	121482	23	6
110	126950	24	6
110	132418	25	6
110	137886	26	6
110	143354	27	6
110	148822	28	6
110	154290	29	6
110	159758	30	6
110	165226	31	6
110	170694	32	6
110	176162	33	6
110	181630	34	6
110	187098	35	6
110	192566	36	6
110	198034	37	6
110	203502	38	6
110	208970	39	6
110	214438	40	6
110	219906	41	6
110	225374	42	6
110	230842	43	6
110	236310	44	6
110	241778	45	6
110	247246	46	6
110	252714	47	6
110	258182	48	6
110	263650	49	6
110	269118	50	6
110	274586	51	6
110	280054	52	6
110	285522	53	6
110	290990	54	6
110	296458	55	6
110	301926	56	6
110	307394	57	6
110	312862	58	6
110	318330	59	6
110	323798	60	6
110	329266	61	6
110	334734	62	6
110	340202	63	6
110	345670	64	6
110	351138	65	6
110	356606	66	6
110	362074	67	6
110	367542	68	6
110	373010	69	6
110	378478	70	6
110	383946	71	6
110	389414	72	6
110	394882	73	6
110	400350	74	6
110	405818	75	6
110	411286	76	6
110	416754	77	6
110	422222	78	6
110	427690	79	6
110	433158	80	6
110	438626	81	6
110	444094	82	6
110	449562	83	6
110	455030	84	6
110	460498	85	6
110	465966	86	6
110	471434	87	6
110	476902	88	6
110	482370	89	6
110	487838	90	6
110	493306	91	6
110	498774	92	6
110	504242	93	6
110	509710	94	6
110	515178	95	6
110	520646	96	6
110	526114	97	6
110	531582	98	6
110	537050	99	6
110	542518	100	6
111	4791	2	0.021463516893
111	10259	3	0.024964796364
111	15727	4	0.02497779636
111	21195	5	0.024964796355
111	26663	6	0.024977796343
111	32131	7	0.02496479634
111	37599	8	0.02496479634
111	43067	9	0.02497779634
111	48536	10	0.02496479634
111	55866	11	0.026841814076
111	61334	12	0.024977170166
111	66802	13	0.024963408103
111	72270	14	0.024975561689
111	77738	15	0.024974623459
111	83206	16	0.024960604284
111	88674	17	0.024972563327
111	94142	18	0.024971590913
111	99610	19	0.024970650441
111	105078	20	0.02496982399
111	110546	21	0.024969155668
111	116014	22	0.02496862229
111	121482	23	0.024968175068
111	126950	24	0.024967706112
111	132418	25	0.024980234223
111	137886	26	0.024966764641
111	143354	27	0.024966299665
111	148822	28	0.024965839761
111	154290	29	0.024978399761
111	159758	30	0.024964953807
111	165226	31	0.024977525097
111	170694	32	0.024964155555
111	176162	33	0.024976812164
111	181630	34	0.024963475048
111	187098	35	0.024976142076
111	192566	36	0.024962804929
111	198034	37	0.02497546263
111	203502	38	0.024962120048
111	208970	39	0.024974777026
111	214438	40	0.024974433328
111	219906	41	0.024961088576
111	225374	42	0.02497374214
111	230842	43	0.024973392681
111	236310	44	0.024960036924
111	241778	45	0.024972666619
111	247246	46	0.024972266471
111	252714	47	0.024971830468
111	258182	48	0.024971372097
111	263650	49	0.024970903398
111	269118	50	0.024970429226
111	274586	51	0.024969951013
111	280054	52	0.0249694687
111	285522	53	0.024968981349
111	290990	54	0.024968487491
111	296458	55	0.02496798584
111	301926	56	0.024967477759
111	307394	57	0.024979965629
111	312862	58	0.024966454207
111	318330	59	0.024965939324
111	323798	60	0.024965417295
111	329266	61	0.024977900643
111	334734	62	0.024964370059
111	340202	63	0.024976838338
111	345670	64	0.024963305978
111	351138	65	0.024975772954
111	356606	66	0.024962239268
111	362074	67	0.024974704887
111	367542	68	0.024974169729
111	373010	69	0.024960633639
111	378478	70	0.024973096295
111	383946	71	0.024972557198
111	389414	72	0.024972015469
111	394882	73	0.024971469708
111	400350	74	0.024970917817
111	405818	75	0.024970357429
111	411286	76	0.024969787224
111	416754	77	0.024969208039
111	422222	78	0.024968622135
111	427690	79	0.024968031761
111	433158	80	0.02496743852
111	438626	81	0.024966843402
111	444094	82	0.024979243087
111	449562	83	0.024965637851
111	455030	84	0.024965034348
111	460498	85	0.024977434492
111	465966	86	0.024963836031
111	471434	87	0.024976237439
111	476902	88	0.024962638454
111	482370	89	0.02497503921
111	487838	90	0.024974439817
111	493306	91	0.02496084032
111	498774	92	0.024973240727
111	504242	93	0.024972641063
111	509710	94	0.024972041324
111	515178	95	0.024971441526
111	520646	96	0.024970843806
111	526114	97	0.02497025245
111	531582	98	0.024969652572
111	537050	99	0.024969052485
111	542518	100	0.024968452259
112	4791	2	0
112	10259	3	0
112	15727	4	0
112	21195	5	0
112	26663	6	0
112	32131	7	0
112	37599	8	0
112	43067	9	0
112	48536	10	0
112	55866	11	0
112	61334	12	0
112	66802	13	0
112	72270	14	0
112	77738	15	0
112	83206	16	0
112	88674	17	0
112	94142	18	0
112	99610	19	0
112	105078	20	0
112	110546	21	0
112	116014	22	0
112	121482	23	0
112	126950	24	0
112	132418	25	0
112	137886	26	0
112	143354	27	0
112	148822	28	0
112	154290	29	0
112	159758	30	0
112	165226	31	0
112	170694	32	0
112	176162	33	0
112	181630	34	0
112	187098	35	0
112	192566	36	0
112	198034	37	0
112	203502	38	0
112	208970	39	0
112	214438	40	0
112	219906	41	0
112	225374	42	0
112	230842	43	0
112	236310	44	0
112	241778	45	0
112	247246	46	0
112	252714	47	0
112	258182	48	0
112	263650	49	0
112	269118	50	0
112	274586	51	0
112	280054	52	0
112	285522	53	0
112	290990	54	0
112	296458	55	0
112	301926	56	0
112	307394	57	0
112	312862	58	0
112	318330	59	0
112	323798	60	0
112	329266	61	0
112	334734	62	0
112	340202	63	0
112	345670	64	0
112	351138	65	0
112	356606	66	0
112	362074	67	0
112	367542	68	0
112	373010	69	0
112	378478	70	0
112	383946	71	0
112	389414	72	0
112	394882	73	0
112	400350	74	0
112	405818	75	0
112	411286	76	0
112	416754	77	0
112	422222	78	0
112	427690	79	0
112	433158	80	0
112	438626	81	0
112	444094	82	0
112	449562	83	0
112	455030	84	0
112	460498	85	0
112	465966	86	0
112	471434	87	0
112	476902	88	0
112	482370	89	0
112	487838	90	0
112	493306	91	0
112	498774	92	0
112	504242	93	0
112	509710	94	0
112	515178	95	0
112	520646	96	0
112	526114	97	0
112	531582	98	0
112	537050	99	0
112	542518	100	0
113	4792	2	7
113	10260	3	7
113	15728	4	7
113	21196	5	7
113	26664	6	7
113	32132	7	7
113	37600	8	7
113	43068	9	7
113	48537	10	7
113	55867	11	7
113	61335	12	7
113	66803	13	7
113	72271	14	7
113	77739	15	7
113	83207	16	7
113	88675	17	7
113	94143	18	7
113	99611	19	7
113	105079	20	7
113	110547	21	7
113	116015	22	7
113	121483	23	7
113	126951	24	7
113	132419	25	7
113	137887	26	7
113	143355	27	7
113	148823	28	7
113	154291	29	7
113	159759	30	7
113	165227	31	7
113	170695	32	7
113	176163	33	7
113	181631	34	7
113	187099	35	7
113	192567	36	7
113	198035	37	7
113	203503	38	7
113	208971	39	7
113	214439	40	7
113	219907	41	7
113	225375	42	7
113	230843	43	7
113	236311	44	7
113	241779	45	7
113	247247	46	7
113	252715	47	7
113	258183	48	7
113	263651	49	7
113	269119	50	7
113	274587	51	7
113	280055	52	7
113	285523	53	7
113	290991	54	7
113	296459	55	7
113	301927	56	7
113	307395	57	7
113	312863	58	7
113	318331	59	7
113	323799	60	7
113	329267	61	7
113	334735	62	7
113	340203	63	7
113	345671	64	7
113	351139	65	7
113	356607	66	7
113	362075	67	7
113	367543	68	7
113	373011	69	7
113	378479	70	7
113	383947	71	7
113	389415	72	7
113	394883	73	7
113	400351	74	7
113	405819	75	7
113	411287	76	7
113	416755	77	7
113	422223	78	7
113	427691	79	7
113	433159	80	7
113	438627	81	7
113	444095	82	7
113	449563	83	7
113	455031	84	7
113	460499	85	7
113	465967	86	7
113	471435	87	7
113	476903	88	7
113	482371	89	7
113	487839	90	7
113	493307	91	7
113	498775	92	7
113	504243	93	7
113	509711	94	7
113	515179	95	7
113	520647	96	7
113	526115	97	7
113	531583	98	7
113	537051	99	7
113	542519	100	7
114	4792	2	0.021463496879
114	10260	3	0.024964796364
114	15728	4	0.02497779636
114	21196	5	0.024964796355
114	26664	6	0.024977796343
114	32132	7	0.02496479634
114	37600	8	0.02496479634
114	43068	9	0.02497779634
114	48537	10	0.02496479634
114	55867	11	0.026842896941
114	61335	12	0.024977183261
114	66803	13	0.024963413464
114	72271	14	0.024975588467
114	77739	15	0.024974651189
114	83207	16	0.024960616384
114	88675	17	0.024972576269
114	94143	18	0.024971602024
114	99611	19	0.024970663853
114	105079	20	0.024969837341
114	110547	21	0.024969168988
114	116015	22	0.024968635593
114	121483	23	0.02496818811
114	126951	24	0.024967719418
114	132419	25	0.024980247527
114	137887	26	0.024966777941
114	143355	27	0.024966312961
114	148823	28	0.024965853052
114	154291	29	0.024978413252
114	159759	30	0.024964963861
114	165227	31	0.024977538172
114	170695	32	0.024964168597
114	176163	33	0.024976825167
114	181631	34	0.024963488005
114	187099	35	0.024976159419
114	192567	36	0.024962818117
114	198035	37	0.024975475787
114	203503	38	0.024962133166
114	208971	39	0.024974790089
114	214439	40	0.024974446316
114	219907	41	0.024961101453
114	225375	42	0.024973754856
114	230843	43	0.024973405144
114	236311	44	0.024960048994
114	241779	45	0.024972678085
114	247247	46	0.024972277087
114	252715	47	0.024971840097
114	258183	48	0.024971380828
114	263651	49	0.024970911462
114	269119	50	0.024970436852
114	274587	51	0.024969958358
114	280055	52	0.024969475864
114	285523	53	0.024968988393
114	290991	54	0.024968494451
114	296459	55	0.024967992743
114	301927	56	0.024967484511
114	307395	57	0.024979972457
114	312863	58	0.024966461011
114	318331	59	0.024965946108
114	323799	60	0.024965424063
114	329267	61	0.024977907497
114	334735	62	0.024964376804
114	340203	63	0.024976845073
114	345671	64	0.024963312707
114	351139	65	0.024975779676
114	356607	66	0.024962245986
114	362075	67	0.024974711599
114	367543	68	0.024974176439
114	373011	69	0.024960640344
114	378479	70	0.024973102998
114	383947	71	0.024972563898
114	389415	72	0.024972022167
114	394883	73	0.024971476404
114	400351	74	0.024970924511
114	405819	75	0.024970364122
114	411287	76	0.024969793915
114	416755	77	0.024969214729
114	422223	78	0.024968628823
114	427691	79	0.024968038449
114	433159	80	0.024967445206
114	438627	81	0.024966850551
114	444095	82	0.024979249406
114	449563	83	0.024965644133
114	455031	84	0.024965040849
114	460499	85	0.024977441145
114	465967	86	0.024963842719
114	471435	87	0.024976244118
114	476903	88	0.024962645126
114	482371	89	0.024975045879
114	487839	90	0.024974446488
114	493307	91	0.02496084699
114	498775	92	0.024973247398
114	504243	93	0.024972647733
114	509711	94	0.024972047996
114	515179	95	0.024971448196
114	520647	96	0.024970850476
114	526115	97	0.024970259121
114	531583	98	0.024969659243
114	537051	99	0.024969059155
114	542519	100	0.02496845893
115	4792	2	0
115	10260	3	0
115	15728	4	0
115	21196	5	0
115	26664	6	0
115	32132	7	0
115	37600	8	0
115	43068	9	0
115	48537	10	0
115	55867	11	0
115	61335	12	0
115	66803	13	0
115	72271	14	0
115	77739	15	0
115	83207	16	0
115	88675	17	0
115	94143	18	0
115	99611	19	0
115	105079	20	0
115	110547	21	0
115	116015	22	0
115	121483	23	0
115	126951	24	0
115	132419	25	0
115	137887	26	0
115	143355	27	0
115	148823	28	0
115	154291	29	0
115	159759	30	0
115	165227	31	0
115	170695	32	0
115	176163	33	0
115	181631	34	0
115	187099	35	0
115	192567	36	0
115	198035	37	0
115	203503	38	0
115	208971	39	0
115	214439	40	0
115	219907	41	0
115	225375	42	0
115	230843	43	0
115	236311	44	0
115	241779	45	0
115	247247	46	0
115	252715	47	0
115	258183	48	0
115	263651	49	0
115	269119	50	0
115	274587	51	0
115	280055	52	0
115	285523	53	0
115	290991	54	0
115	296459	55	0
115	301927	56	0
115	307395	57	0
115	312863	58	0
115	318331	59	0
115	323799	60	0
115	329267	61	0
115	334735	62	0
115	340203	63	0
115	345671	64	0
115	351139	65	0
115	356607	66	0
115	362075	67	0
115	367543	68	0
115	373011	69	0
115	378479	70	0
115	383947	71	0
115	389415	72	0
115	394883	73	0
115	400351	74	0
115	405819	75	0
115	411287	76	0
115	416755	77	0
115	422223	78	0
115	427691	79	0
115	433159	80	0
115	438627	81	0
115	444095	82	0
115	449563	83	0
115	455031	84	0
115	460499	85	0
115	465967	86	0
115	471435	87	0
115	476903	88	0
115	482371	89	0
115	487839	90	0
115	493307	91	0
115	498775	92	0
115	504243	93	0
115	509711	94	0
115	515179	95	0
115	520647	96	0
115	526115	97	0
115	531583	98	0
115	537051	99	0
115	542519	100	0

