file 2399035 1720453456                                         
version 3
run BreakRanksNoGui-21-20240708-17:44:02-155144
attr configname BreakRanksNoGui
attr datetime 20240708-17:44:02
attr datetimef 20240708-174402
attr experiment BreakRanksNoGui
attr inifile omnetpp.ini
attr iterationvars "$nCars=8, $platoonSize=8, $nLanes=1, $ploegH=0.5, $controller=1, $headway=0.1, $leaderHeadway=1.2, $leaderSpeed=130, $breakRanksSafetyDistance=2, $minSpeed=120, $maxSpeed=140, $beaconInterval=0.1, $priority=4, $packetSize=200, $sController=\"CACC\", $0=2, $1=0"
attr iterationvarsd nCars=8/platoonSize=8/nLanes=1/ploegH=0.5/controller=1/headway=0.1/leaderHeadway=1.2/leaderSpeed=130/breakRanksSafetyDistance=2/minSpeed=120/maxSpeed=140/beaconInterval=0.1/priority=4/packetSize=200/sController=CACC/2/0
attr iterationvarsf nCars=8,platoonSize=8,nLanes=1,ploegH=0.5,controller=1,headway=0.1,leaderHeadway=1.2,leaderSpeed=130,breakRanksSafetyDistance=2,minSpeed=120,maxSpeed=140,beaconInterval=0.1,priority=4,packetSize=200,sController=CACC,2,0-
attr measurement "$nCars=8, $platoonSize=8, $nLanes=1, $ploegH=0.5, $controller=1, $headway=0.1, $leaderHeadway=1.2, $leaderSpeed=130, $breakRanksSafetyDistance=2, $minSpeed=120, $maxSpeed=140, $beaconInterval=0.1, $priority=4, $packetSize=200, $sController=\"CACC\", $0=2, $1=0"
attr network Highway
attr processid 155144
attr repetition 1
attr replication #1
attr resultdir results
attr runnumber 21
attr seedset 1
itervar beaconInterval 0.1
itervar breakRanksSafetyDistance 2
itervar controller 1
itervar headway 0.1
itervar leaderHeadway 1.2
itervar leaderSpeed 130
itervar maxSpeed 140
itervar minSpeed 120
itervar nCars 8
itervar nLanes 1
itervar packetSize 200
itervar platoonSize 8
itervar ploegH 0.5
itervar priority 4
itervar sController "\"CACC\""
config image-path ../../../veins/images
config repeat 10
config extends BreakRanks
config *.manager.command "\"sumo\""
config *.manager.ignoreGuiCommands true
config output-vector-file results/BreakRanks_1_0.1_130_2/result_1.vec
config output-scalar-file results/BreakRanks_1_0.1_130_2/result_1.sca
config extends Platooning
config *.node[*].scenario_type "\"BreakRanksScenario\""
config *.manager.command "\"sumo-gui\""
config *.node[*].scenario_type "\"SimpleScenario\""
config cmdenv-express-mode true
config cmdenv-autoflush true
config cmdenv-status-frequency 15s
config num-rngs 6
config network Highway
config debug-on-errors true
config print-undisposed true
config *.playgroundSizeX 65000m
config *.playgroundSizeY 25000m
config *.playgroundSizeZ 50m
config sim-time-limit "100 s"
config *.annotations.draw false
config *.obstacles.debug false
config *.world.useTorus false
config *.world.use2D false
config *.manager.updateInterval 0.01s
config *.manager.host "\"localhost\""
config *.manager.moduleType "\"org.car2x.plexe.PlatoonCar\""
config *.manager.moduleName "\"node\""
config *.manager.moduleDisplayString "\"\""
config *.manager.autoShutdown true
config *.manager.margin 25
config *.connectionManager.sendDirect true
config *.connectionManager.maxInterfDist 2600m
config *.connectionManager.drawMaxIntfDist false
config *.**.nic.mac1609_4.useServiceChannel false
config *.**.nic.mac1609_4.txPower 100mW
config *.**.nic.mac1609_4.bitrate 6Mbps
config *.**.nic.mac1609_4.useAcks true
config *.**.nic.mac1609_4.ackErrorRate 0.0
config *.**.nic.mac1609_4.frameErrorRate 0.0
config *.**.nic.phy80211p.minPowerLevel -94dBm
config *.**.nic.phy80211p.maxTXPower 100mW
config *.**.nic.phy80211p.useNoiseFloor true
config *.**.nic.phy80211p.noiseFloor -95dBm
config *.**.nic.phy80211p.decider "xmldoc(\"config.xml\")"
config *.**.nic.phy80211p.analogueModels "xmldoc(\"config.xml\")"
config *.**.nic.phy80211p.usePropagationDelay true
config *.node[*].mobility.x 0
config *.node[*].mobility.y 0
config *.node[*].mobility.z 1.895
config seed-set 1
config **.seed 1
config *.node[*].prot.rng-0 2
config *.node[*].appl.rng-0 3
config *.node[*].scenario.rng-0 4
config **.traffic.rng-0 5
config *.manager.configFile "\"./sumocfg/freeway.sumo.cfg\""
config *.manager.launchConfig "xmldoc(\"./sumocfg/freeway.launchd.xml\")"
config **.numberOfCars 8
config **.numberOfCarsPerPlatoon 8
config **.numberOfLanes 1
config *.node[*].helper_type "\"PositionHelper\""
config *.node[*].scenario.caccC1 0.5
config *.node[*].scenario.caccXi 1
config *.node[*].scenario.caccOmegaN "0.2 Hz"
config *.node[*].scenario.caccSpacing "2 m"
config *.node[*].scenario.engineTau "0.5 s"
config *.node[*].scenario.ploegH 0.5s
config *.node[*].scenario.ploegKp 0.2
config *.node[*].scenario.ploegKd 0.7
config *.node[*].scenario.useRealisticEngine false
config *.node[*].scenario.useControllerAcceleration true
config *.node[*].scenario.nLanes 1
config **.numericController 1
config **.headway 0.1s
config *.node[*].scenario.accHeadway 0.1s
config *.node[*].scenario.leaderHeadway 1.2s
config *.node[*].scenario.leaderSpeed 130kmph
config *.node[*].appl_type "\"SimplePlatooningApp\""
config *.node[*].appl.*.scalar-recording true
config *.node[*].appl.*.vector-recording true
config *.node[0].appl.breakRanksSafetyDistance 2m
config *.node[*].appl.minSpeed 120kmph
config *.node[*].appl.maxSpeed 140kmph
config *.node[*].protocol_type "\"SimplePlatooningBeaconing\""
config *.node[*].prot.*.scalar-recording true
config *.node[*].prot.*.vector-recording true
config *.node[*].prot.beaconingInterval 0.1s
config *.node[*].prot.priority 4
config *.node[*].prot.packetSize 200
config **.traffic_type "\"PlatoonsTrafficManager\""
config **.traffic.platoonInsertTime "1 s"
config **.traffic.platoonInsertSpeed 130kmph
config **.traffic.nCars 8
config **.traffic.platoonSize 8
config **.traffic.nLanes 1
config **.traffic.platooningVType "\"vtypeauto\""
config **.traffic.controller "\"CACC\""
config **.traffic.platoonInsertDistance 2m
config **.traffic.platoonInsertHeadway 0s
config **.traffic.platoonLeaderHeadway 1.2s
config **.scalar-recording false
config **.vector-recording false
config output-vector-file results/BreakRanksNoGui_1_0.1_130_2/result_1.vec
config output-scalar-file results/BreakRanksNoGui_1_0.1_130_2/result_1.sca

vector 0 Highway.node[0].appl distance ETV
vector 1 Highway.node[0].appl relativeSpeed ETV
vector 2 Highway.node[0].appl nodeId ETV
vector 3 Highway.node[0].appl acceleration ETV
vector 4 Highway.node[0].appl controllerAcceleration ETV
vector 5 Highway.node[0].appl speed ETV
vector 6 Highway.node[0].appl posx ETV
vector 7 Highway.node[0].appl posy ETV
vector 8 Highway.node[1].appl distance ETV
vector 9 Highway.node[1].appl relativeSpeed ETV
vector 10 Highway.node[1].appl nodeId ETV
vector 11 Highway.node[1].appl acceleration ETV
vector 12 Highway.node[1].appl controllerAcceleration ETV
vector 13 Highway.node[1].appl speed ETV
vector 14 Highway.node[1].appl posx ETV
vector 15 Highway.node[1].appl posy ETV
vector 16 Highway.node[2].appl distance ETV
vector 17 Highway.node[2].appl relativeSpeed ETV
vector 18 Highway.node[2].appl nodeId ETV
vector 19 Highway.node[2].appl acceleration ETV
vector 20 Highway.node[2].appl controllerAcceleration ETV
vector 21 Highway.node[2].appl speed ETV
vector 22 Highway.node[2].appl posx ETV
vector 23 Highway.node[2].appl posy ETV
vector 24 Highway.node[3].appl distance ETV
vector 25 Highway.node[3].appl relativeSpeed ETV
vector 26 Highway.node[3].appl nodeId ETV
vector 27 Highway.node[3].appl acceleration ETV
vector 28 Highway.node[3].appl controllerAcceleration ETV
vector 29 Highway.node[3].appl speed ETV
vector 30 Highway.node[3].appl posx ETV
vector 31 Highway.node[3].appl posy ETV
vector 32 Highway.node[4].appl distance ETV
vector 33 Highway.node[4].appl relativeSpeed ETV
vector 34 Highway.node[4].appl nodeId ETV
vector 35 Highway.node[4].appl acceleration ETV
vector 36 Highway.node[4].appl controllerAcceleration ETV
vector 37 Highway.node[4].appl speed ETV
vector 38 Highway.node[4].appl posx ETV
vector 39 Highway.node[4].appl posy ETV
vector 40 Highway.node[5].appl distance ETV
vector 41 Highway.node[5].appl relativeSpeed ETV
vector 42 Highway.node[5].appl nodeId ETV
vector 43 Highway.node[5].appl acceleration ETV
vector 44 Highway.node[5].appl controllerAcceleration ETV
vector 45 Highway.node[5].appl speed ETV
vector 46 Highway.node[5].appl posx ETV
vector 47 Highway.node[5].appl posy ETV
vector 48 Highway.node[6].appl distance ETV
vector 49 Highway.node[6].appl relativeSpeed ETV
vector 50 Highway.node[6].appl nodeId ETV
vector 51 Highway.node[6].appl acceleration ETV
vector 52 Highway.node[6].appl controllerAcceleration ETV
vector 53 Highway.node[6].appl speed ETV
vector 54 Highway.node[6].appl posx ETV
vector 55 Highway.node[6].appl posy ETV
vector 56 Highway.node[7].appl distance ETV
vector 57 Highway.node[7].appl relativeSpeed ETV
vector 58 Highway.node[7].appl nodeId ETV
vector 59 Highway.node[7].appl acceleration ETV
vector 60 Highway.node[7].appl controllerAcceleration ETV
vector 61 Highway.node[7].appl speed ETV
vector 62 Highway.node[7].appl posx ETV
vector 63 Highway.node[7].appl posy ETV
vector 64 Highway.node[2].prot frontDelay ETV
vector 65 Highway.node[2].prot frontDelayId ETV
vector 66 Highway.node[4].prot frontDelay ETV
vector 67 Highway.node[4].prot frontDelayId ETV
vector 68 Highway.node[6].prot frontDelay ETV
vector 69 Highway.node[6].prot frontDelayId ETV
vector 70 Highway.node[7].prot frontDelay ETV
vector 71 Highway.node[7].prot frontDelayId ETV
vector 72 Highway.node[5].prot frontDelay ETV
vector 73 Highway.node[5].prot frontDelayId ETV
vector 74 Highway.node[1].prot leaderDelay ETV
vector 75 Highway.node[1].prot leaderDelayId ETV
vector 76 Highway.node[1].prot frontDelay ETV
vector 77 Highway.node[1].prot frontDelayId ETV
vector 78 Highway.node[2].prot leaderDelay ETV
vector 79 Highway.node[2].prot leaderDelayId ETV
vector 80 Highway.node[3].prot leaderDelay ETV
vector 81 Highway.node[3].prot leaderDelayId ETV
vector 82 Highway.node[4].prot leaderDelay ETV
vector 83 Highway.node[4].prot leaderDelayId ETV
vector 84 Highway.node[5].prot leaderDelay ETV
vector 85 Highway.node[5].prot leaderDelayId ETV
vector 86 Highway.node[6].prot leaderDelay ETV
vector 87 Highway.node[6].prot leaderDelayId ETV
vector 88 Highway.node[7].prot leaderDelay ETV
vector 89 Highway.node[7].prot leaderDelayId ETV
vector 90 Highway.node[3].prot frontDelay ETV
vector 91 Highway.node[3].prot frontDelayId ETV
vector 92 Highway.node[0].prot nodeId ETV
vector 93 Highway.node[0].prot busyTime ETV
vector 94 Highway.node[0].prot collisions ETV
vector 95 Highway.node[1].prot nodeId ETV
vector 96 Highway.node[1].prot busyTime ETV
vector 97 Highway.node[1].prot collisions ETV
vector 98 Highway.node[2].prot nodeId ETV
vector 99 Highway.node[2].prot busyTime ETV
vector 100 Highway.node[2].prot collisions ETV
vector 101 Highway.node[3].prot nodeId ETV
vector 102 Highway.node[3].prot busyTime ETV
vector 103 Highway.node[3].prot collisions ETV
vector 104 Highway.node[4].prot nodeId ETV
vector 105 Highway.node[4].prot busyTime ETV
vector 106 Highway.node[4].prot collisions ETV
vector 107 Highway.node[5].prot nodeId ETV
vector 108 Highway.node[5].prot busyTime ETV
vector 109 Highway.node[5].prot collisions ETV
vector 110 Highway.node[6].prot nodeId ETV
vector 111 Highway.node[6].prot busyTime ETV
vector 112 Highway.node[6].prot collisions ETV
vector 113 Highway.node[7].prot nodeId ETV
vector 114 Highway.node[7].prot busyTime ETV
vector 115 Highway.node[7].prot collisions ETV
0	11335 19364 113 542135 1.11 99.91 989 -1 99.5808 23571.5575 1708277.1022977
1	30699 18413 113 542135 1.11 99.91 989 0 1.8889 714.0042 1348.68253338
2	49112 16523 113 542135 1.11 99.91 989 0 0 0 0
3	65635 18811 113 542135 1.11 99.91 989 -3.14892e-05 0.000707784 0.010991577126781 6.0508064149601e-06
4	84446 26469 113 542135 1.11 99.91 989 -4.89399e-05 0.00109259 0.010614843047836 8.6815283230331e-06
5	110915 22450 113 542135 1.11 99.91 989 36.11 36.1111 35713.866699999 1289666.6073546
6	133365 22345 113 542135 1.11 99.91 989 52.8599 3620.64 1816542.9908 4387737902.1858
7	155710 21468 113 542135 1.11 99.91 989 242.45 242.45 239783.05 58135400.472499
8	177178 21182 114 542136 1.11 99.91 989 -1 109.063 39473.52837 2644422.857958
9	198360 19788 114 542136 1.11 99.91 989 -2.36679e-05 4 1694.1114125577 4599.414031738
10	218148 17512 114 542136 1.11 99.91 989 1 1 989 989
11	235660 21585 114 542136 1.11 99.91 989 -1.25479 0.0558494 -21.057253890122 20.422196498518
12	257245 27319 114 542136 1.11 99.91 989 -1.5 0.0867267 -20.222642414211 26.629171697874
13	284564 19474 114 542136 1.11 99.91 989 33.9132 36.1111 33838.7501 1158187.7218143
14	304038 23409 114 542136 1.11 99.91 989 46.8599 3427.23 1727333.1752 3952132688.6581
15	327447 22457 114 542136 1.11 99.91 989 242.45 245.75 240951.25000001 58705715.712499
16	349904 23245 115 542137 1.11 99.91 989 -1 45.3273 36358.10889 1537364.3953174
17	373149 25247 115 542137 1.11 99.91 989 0 3.1981 373.27008840781 651.59142917692
18	398396 17512 115 542137 1.11 99.91 989 2 2 1978 3956
19	415908 26168 115 542137 1.11 99.91 989 -2.02228 1.17245 7.64404388431 61.549188913098
20	442076 26139 115 542137 1.11 99.91 989 -3.08596 1.5 14.38550187443 94.057310144514
21	468215 23322 115 542137 1.11 99.91 989 32.913 36.8173 35343.351 1263560.0673987
22	491537 23319 115 542137 1.11 99.91 989 40.8599 3571.55 1775272.576 4217987628.06
23	514856 22457 115 542137 1.11 99.91 989 242.45 249.05 239842.45 58164595.572499
24	537313 19943 116 542138 1.11 99.91 989 -1 45.7364 4600.32191 154865.14934647
25	557256 19662 116 542138 1.11 99.91 989 0 5.10519 539.17015007231 1633.9455871005
26	576918 17512 116 542138 1.11 99.91 989 3 3 2967 8901
27	594430 22268 116 542138 1.11 99.91 989 -2.88427 1.33877 -11.057574938826 194.80607676123
28	616698 27433 116 542138 1.11 99.91 989 -3.60524 1.5 -8.4548708604528 242.49582547401
29	644131 20005 116 542138 1.11 99.91 989 29.6066 36.1111 34367.7566 1195600.7441675
30	664136 23415 116 542138 1.11 99.91 989 34.8599 3468.08 1724621.48 3981502533.158
31	687551 22457 116 542138 1.11 99.91 989 242.45 249.05 244742.95 60570849.972501
32	710008 22024 117 542139 1.11 99.91 989 -1 157.963 49367.03747 4975706.3018299
33	732032 22837 117 542139 1.11 99.91 989 -0.606375 6.51199 567.47505456575 1950.9175067756
34	754869 17512 117 542139 1.11 99.91 989 4 4 3956 15824
35	772381 24421 117 542139 1.11 99.91 989 -3.14921 1.49964 -1.0645139220853 352.26127286852
36	796802 26780 117 542139 1.11 99.91 989 -3.60808 1.5 0.77875277607765 406.4680834372
37	823582 21187 117 542139 1.11 99.91 989 26.8102 36.1111 34613.9942 1214890.0167742
38	844769 23389 117 542139 1.11 99.91 989 28.8599 3486.65 1712127.5488 3951971954.2816
39	868158 22457 117 542139 1.11 99.91 989 242.45 245.75 241908.25 59172923.1125
40	890615 21419 118 542140 1.11 99.91 989 -1 78.6279 17816.23348 721243.54569301
41	912034 22042 118 542140 1.11 99.91 989 -1.87693 8.31686 547.87771088372 3377.5727716918
42	934076 17512 118 542140 1.11 99.91 989 5 5 4945 24725
43	951588 25542 118 542140 1.11 99.91 989 -3.20588 1.49993 18.951409843337 464.30288321967
44	977130 25887 118 542140 1.11 99.91 989 -3.60808 1.5 22.077711858515 553.52795673163
45	1003017 22065 118 542140 1.11 99.91 989 25.3229 38.1028 34710.3757 1226193.6318732
46	1025082 23348 118 542140 1.11 99.91 989 22.8599 3490.19 1681737.1281 3837486325.1011
47	1048430 22457 118 542140 1.11 99.91 989 242.45 252.35 247742.65 62070216.852501
48	1070887 18962 119 542141 1.11 99.91 989 -1 31.3596 135.47679 24519.965901116
49	1089849 18671 119 542141 1.11 99.91 989 -1.92774e-06 2.12211 46.342099045206 81.934500819853
50	1108520 17512 119 542141 1.11 99.91 989 6 6 5934 35604
51	1126032 21844 119 542141 1.11 99.91 989 -3.13483 1.49623 18.933208930653 166.11785781722
52	1147876 27581 119 542141 1.11 99.91 989 -3.60808 1.5 22.536595499254 228.86387013952
53	1175457 19762 119 542141 1.11 99.91 989 32.1317 38.1035 37110.6206 1394007.3185694
54	1195219 23425 119 542141 1.11 99.91 989 16.8599 3724.22 1831184.734 4539835601.5278
55	1218644 22457 119 542141 1.11 99.91 989 242.45 249.05 242030.35 59236278.492499
56	1241101 20655 120 542142 1.11 99.91 989 -1 74.6649 20534.38577 1176004.652268
57	1261756 18946 120 542142 1.11 99.91 989 -1.80862e-06 2 565.28954749856 907.59404161589
58	1280702 17512 120 542142 1.11 99.91 989 7 7 6923 48461
59	1298214 24363 120 542142 1.11 99.91 989 -2.66599 0.265458 -21.042680177421 47.05852223678
60	1322577 27310 120 542142 1.11 99.91 989 -3.60808 0.412874 -20.151857452555 92.019266515724
61	1349887 19876 120 542142 1.11 99.91 989 33.5873 36.1111 33820.6079 1156940.1082675
62	1369763 23413 120 542142 1.11 99.91 989 10.8599 3389.42 1690198.6102 3823165813.6988
63	1393176 22457 120 542142 1.11 99.91 989 242.45 252.35 246158.65 61280769.072501
64	1415633 40000 702 542196 1.212421340237 99.912422133294 988 0.099987320224 0.100003526958 98.80000111328 9.8800002431777
65	1455633 27269 702 542196 1.212421340237 99.912422133294 988 2 2 1976 3952
66	1482902 40015 770 542240 1.235022380265 99.935022851067 988 0.099987320225 0.100003526695 98.800000791025 9.8800001787071
67	1522917 27272 770 542240 1.235022380265 99.935022851067 988 4 4 3952 15808
68	1550189 39994 837 542343 1.248692420293 99.948693643846 988 0.099987320225 0.100003527357 98.800001543776 9.8800003292608
69	1590183 27256 837 542343 1.248692420293 99.948693643846 988 6 6 5928 35568
70	1617439 40034 905 542411 1.263870440307 99.963872761478 988 0.099987320226 0.100003528692 98.800002641394 9.8800005487718
71	1657473 27277 905 542411 1.263870440307 99.963872761478 988 7 7 6916 48412
72	1684750 40001 1040 542510 1.297372520363 99.997375111886 988 0.099987320224 0.100003529679 98.800002911746 9.880000602886
73	1724751 27266 1040 542510 1.297372520363 99.997375111886 988 5 5 4940 24700
74	1752017 40038 1100 542606 1.297782600418 99.997786179334 988 0.099987320223 0.100009646194 98.799990899139 9.8799982007114
75	1792055 27280 1100 542606 1.297782600418 99.997786179334 988 1 1 988 988
76	1819335 40038 1100 542606 1.297782600418 99.997786179334 988 0.099987320223 0.100009646194 98.799990899139 9.8799982007114
77	1859373 27280 1100 542606 1.297782600418 99.997786179334 988 1 1 988 988
78	1886653 40001 1106 542576 1.297782620432 99.997785698554 988 0.099987320223 0.100009643368 98.799990398345 9.8799981005526
79	1926654 27267 1106 542576 1.297782620432 99.997785698554 988 2 2 1976 3952
80	1953921 40017 1112 542600 1.297782640446 99.99778604289 988 0.099987320223 0.100009643368 98.799990722667 9.8799981654169
81	1993938 27269 1112 542600 1.297782640446 99.99778604289 988 3 3 2964 8892
82	2021207 40032 1118 542594 1.297782660459 99.997785980516 988 0.099987320223 0.100009643368 98.79999064028 9.8799981489395
83	2061239 27283 1118 542594 1.297782660459 99.997785980516 988 4 4 3952 15808
84	2088522 40036 1124 542588 1.297782680473 99.997785968671 988 0.099987320223 0.100009643368 98.799990608421 9.8799981425677
85	2128558 27289 1124 542588 1.297782680473 99.997785968671 988 5 5 4940 24700
86	2155847 40023 1130 542582 1.297782700487 99.997785879642 988 0.099987320223 0.100009643368 98.799990499378 9.8799981207591
87	2195870 27280 1130 542582 1.297782700487 99.997785879642 988 6 6 5928 35568
88	2223150 40026 1136 542612 1.297782720501 99.997786305548 988 0.099987320223 0.100009643368 98.79999090527 9.8799982019375
89	2263176 27267 1136 542612 1.297782720501 99.997786305548 988 7 7 6916 48412
90	2290443 39957 1173 542115 1.307201640446 99.907201514712 987 0.099987320226 0.100003521635 98.700000194489 9.8700000593857
91	2330400 27219 1173 542115 1.307201640446 99.907201514712 987 3 3 2961 8883
92	2357619 1459 4960 542614 2 100 99 0 0 0 0
93	2359078 2061 4960 542614 2 100 99 0.022161 0.027139441022 2.471390441022 0.061707246479987
94	2361139 1459 4960 542614 2 100 99 0 0 0 0
95	2362598 1459 4961 542615 2 100 99 1 1 99 99
96	2364057 2061 4961 542615 2 100 99 0.022161 0.026842360254 2.471093360254 0.061691209525005
97	2366118 1459 4961 542615 2 100 99 0 0 0 0
98	2367577 1459 4962 542616 2 100 99 2 2 198 396
99	2369036 2060 4962 542616 2 100 99 0.02216 0.026842280198 2.471092280198 0.061691160906228
100	2371096 1558 4962 542616 2 100 99 0 0 0 0
101	2372654 1558 4963 542617 2 100 99 3 3 297 891
102	2374212 2160 4963 542617 2 100 99 0.022161 0.026842400282 2.471093400282 0.061691211673899
103	2376372 1558 4963 542617 2 100 99 0 0 0 0
104	2377930 1558 4964 542618 2 100 99 4 4 396 1584
105	2379488 2160 4964 542618 2 100 99 0.022161 0.026842280198 2.471093280198 0.061691205227228
106	2381648 1558 4964 542618 2 100 99 0 0 0 0
107	2383206 1558 4965 542619 2 100 99 5 5 495 2475
108	2384764 2160 4965 542619 2 100 99 0.022161 0.026935520368 2.471186520368 0.061696219478495
109	2386924 1558 4965 542619 2 100 99 0 0 0 0
110	2388482 1558 4966 542620 2 100 99 6 6 594 3564
111	2390040 2160 4966 542620 2 100 99 0.022161 0.026842320226 2.471093320226 0.061691207376115
112	2392200 1558 4966 542620 2 100 99 0 0 0 0
113	2393758 1558 4967 542621 2 100 99 7 7 693 4851
114	2395316 2160 4967 542621 2 100 99 0.022161 0.026935600424 2.471186600424 0.061696223791201
115	2397476 1558 4967 542621 2 100 99 0 0 0 0

