file 2409197 1720453557                                         
version 3
run BreakRanksNoGui-28-20240708-17:45:43-155258
attr configname BreakRanksNoGui
attr datetime 20240708-17:45:43
attr datetimef 20240708-174543
attr experiment BreakRanksNoGui
attr inifile omnetpp.ini
attr iterationvars "$nCars=8, $platoonSize=8, $nLanes=1, $ploegH=0.5, $controller=1, $headway=0.1, $leaderHeadway=1.2, $leaderSpeed=130, $breakRanksSafetyDistance=2, $minSpeed=120, $maxSpeed=140, $beaconInterval=0.1, $priority=4, $packetSize=200, $sController=\"CACC\", $0=2, $1=0"
attr iterationvarsd nCars=8/platoonSize=8/nLanes=1/ploegH=0.5/controller=1/headway=0.1/leaderHeadway=1.2/leaderSpeed=130/breakRanksSafetyDistance=2/minSpeed=120/maxSpeed=140/beaconInterval=0.1/priority=4/packetSize=200/sController=CACC/2/0
attr iterationvarsf nCars=8,platoonSize=8,nLanes=1,ploegH=0.5,controller=1,headway=0.1,leaderHeadway=1.2,leaderSpeed=130,breakRanksSafetyDistance=2,minSpeed=120,maxSpeed=140,beaconInterval=0.1,priority=4,packetSize=200,sController=CACC,2,0-
attr measurement "$nCars=8, $platoonSize=8, $nLanes=1, $ploegH=0.5, $controller=1, $headway=0.1, $leaderHeadway=1.2, $leaderSpeed=130, $breakRanksSafetyDistance=2, $minSpeed=120, $maxSpeed=140, $beaconInterval=0.1, $priority=4, $packetSize=200, $sController=\"CACC\", $0=2, $1=0"
attr network Highway
attr processid 155258
attr repetition 8
attr replication #8
attr resultdir results
attr runnumber 28
attr seedset 8
itervar beaconInterval 0.1
itervar breakRanksSafetyDistance 2
itervar controller 1
itervar headway 0.1
itervar leaderHeadway 1.2
itervar leaderSpeed 130
itervar maxSpeed 140
itervar minSpeed 120
itervar nCars 8
itervar nLanes 1
itervar packetSize 200
itervar platoonSize 8
itervar ploegH 0.5
itervar priority 4
itervar sController "\"CACC\""
config image-path ../../../veins/images
config repeat 10
config extends BreakRanks
config *.manager.command "\"sumo\""
config *.manager.ignoreGuiCommands true
config output-vector-file results/BreakRanks_1_0.1_130_2/result_8.vec
config output-scalar-file results/BreakRanks_1_0.1_130_2/result_8.sca
config extends Platooning
config *.node[*].scenario_type "\"BreakRanksScenario\""
config *.manager.command "\"sumo-gui\""
config *.node[*].scenario_type "\"SimpleScenario\""
config cmdenv-express-mode true
config cmdenv-autoflush true
config cmdenv-status-frequency 15s
config num-rngs 6
config network Highway
config debug-on-errors true
config print-undisposed true
config *.playgroundSizeX 65000m
config *.playgroundSizeY 25000m
config *.playgroundSizeZ 50m
config sim-time-limit "100 s"
config *.annotations.draw false
config *.obstacles.debug false
config *.world.useTorus false
config *.world.use2D false
config *.manager.updateInterval 0.01s
config *.manager.host "\"localhost\""
config *.manager.moduleType "\"org.car2x.plexe.PlatoonCar\""
config *.manager.moduleName "\"node\""
config *.manager.moduleDisplayString "\"\""
config *.manager.autoShutdown true
config *.manager.margin 25
config *.connectionManager.sendDirect true
config *.connectionManager.maxInterfDist 2600m
config *.connectionManager.drawMaxIntfDist false
config *.**.nic.mac1609_4.useServiceChannel false
config *.**.nic.mac1609_4.txPower 100mW
config *.**.nic.mac1609_4.bitrate 6Mbps
config *.**.nic.mac1609_4.useAcks true
config *.**.nic.mac1609_4.ackErrorRate 0.0
config *.**.nic.mac1609_4.frameErrorRate 0.0
config *.**.nic.phy80211p.minPowerLevel -94dBm
config *.**.nic.phy80211p.maxTXPower 100mW
config *.**.nic.phy80211p.useNoiseFloor true
config *.**.nic.phy80211p.noiseFloor -95dBm
config *.**.nic.phy80211p.decider "xmldoc(\"config.xml\")"
config *.**.nic.phy80211p.analogueModels "xmldoc(\"config.xml\")"
config *.**.nic.phy80211p.usePropagationDelay true
config *.node[*].mobility.x 0
config *.node[*].mobility.y 0
config *.node[*].mobility.z 1.895
config seed-set 8
config **.seed 8
config *.node[*].prot.rng-0 2
config *.node[*].appl.rng-0 3
config *.node[*].scenario.rng-0 4
config **.traffic.rng-0 5
config *.manager.configFile "\"./sumocfg/freeway.sumo.cfg\""
config *.manager.launchConfig "xmldoc(\"./sumocfg/freeway.launchd.xml\")"
config **.numberOfCars 8
config **.numberOfCarsPerPlatoon 8
config **.numberOfLanes 1
config *.node[*].helper_type "\"PositionHelper\""
config *.node[*].scenario.caccC1 0.5
config *.node[*].scenario.caccXi 1
config *.node[*].scenario.caccOmegaN "0.2 Hz"
config *.node[*].scenario.caccSpacing "2 m"
config *.node[*].scenario.engineTau "0.5 s"
config *.node[*].scenario.ploegH 0.5s
config *.node[*].scenario.ploegKp 0.2
config *.node[*].scenario.ploegKd 0.7
config *.node[*].scenario.useRealisticEngine false
config *.node[*].scenario.useControllerAcceleration true
config *.node[*].scenario.nLanes 1
config **.numericController 1
config **.headway 0.1s
config *.node[*].scenario.accHeadway 0.1s
config *.node[*].scenario.leaderHeadway 1.2s
config *.node[*].scenario.leaderSpeed 130kmph
config *.node[*].appl_type "\"SimplePlatooningApp\""
config *.node[*].appl.*.scalar-recording true
config *.node[*].appl.*.vector-recording true
config *.node[0].appl.breakRanksSafetyDistance 2m
config *.node[*].appl.minSpeed 120kmph
config *.node[*].appl.maxSpeed 140kmph
config *.node[*].protocol_type "\"SimplePlatooningBeaconing\""
config *.node[*].prot.*.scalar-recording true
config *.node[*].prot.*.vector-recording true
config *.node[*].prot.beaconingInterval 0.1s
config *.node[*].prot.priority 4
config *.node[*].prot.packetSize 200
config **.traffic_type "\"PlatoonsTrafficManager\""
config **.traffic.platoonInsertTime "1 s"
config **.traffic.platoonInsertSpeed 130kmph
config **.traffic.nCars 8
config **.traffic.platoonSize 8
config **.traffic.nLanes 1
config **.traffic.platooningVType "\"vtypeauto\""
config **.traffic.controller "\"CACC\""
config **.traffic.platoonInsertDistance 2m
config **.traffic.platoonInsertHeadway 0s
config **.traffic.platoonLeaderHeadway 1.2s
config **.scalar-recording false
config **.vector-recording false
config output-vector-file results/BreakRanksNoGui_1_0.1_130_2/result_8.vec
config output-scalar-file results/BreakRanksNoGui_1_0.1_130_2/result_8.sca

vector 0 Highway.node[0].appl distance ETV
vector 1 Highway.node[0].appl relativeSpeed ETV
vector 2 Highway.node[0].appl nodeId ETV
vector 3 Highway.node[0].appl acceleration ETV
vector 4 Highway.node[0].appl controllerAcceleration ETV
vector 5 Highway.node[0].appl speed ETV
vector 6 Highway.node[0].appl posx ETV
vector 7 Highway.node[0].appl posy ETV
vector 8 Highway.node[1].appl distance ETV
vector 9 Highway.node[1].appl relativeSpeed ETV
vector 10 Highway.node[1].appl nodeId ETV
vector 11 Highway.node[1].appl acceleration ETV
vector 12 Highway.node[1].appl controllerAcceleration ETV
vector 13 Highway.node[1].appl speed ETV
vector 14 Highway.node[1].appl posx ETV
vector 15 Highway.node[1].appl posy ETV
vector 16 Highway.node[2].appl distance ETV
vector 17 Highway.node[2].appl relativeSpeed ETV
vector 18 Highway.node[2].appl nodeId ETV
vector 19 Highway.node[2].appl acceleration ETV
vector 20 Highway.node[2].appl controllerAcceleration ETV
vector 21 Highway.node[2].appl speed ETV
vector 22 Highway.node[2].appl posx ETV
vector 23 Highway.node[2].appl posy ETV
vector 24 Highway.node[3].appl distance ETV
vector 25 Highway.node[3].appl relativeSpeed ETV
vector 26 Highway.node[3].appl nodeId ETV
vector 27 Highway.node[3].appl acceleration ETV
vector 28 Highway.node[3].appl controllerAcceleration ETV
vector 29 Highway.node[3].appl speed ETV
vector 30 Highway.node[3].appl posx ETV
vector 31 Highway.node[3].appl posy ETV
vector 32 Highway.node[4].appl distance ETV
vector 33 Highway.node[4].appl relativeSpeed ETV
vector 34 Highway.node[4].appl nodeId ETV
vector 35 Highway.node[4].appl acceleration ETV
vector 36 Highway.node[4].appl controllerAcceleration ETV
vector 37 Highway.node[4].appl speed ETV
vector 38 Highway.node[4].appl posx ETV
vector 39 Highway.node[4].appl posy ETV
vector 40 Highway.node[5].appl distance ETV
vector 41 Highway.node[5].appl relativeSpeed ETV
vector 42 Highway.node[5].appl nodeId ETV
vector 43 Highway.node[5].appl acceleration ETV
vector 44 Highway.node[5].appl controllerAcceleration ETV
vector 45 Highway.node[5].appl speed ETV
vector 46 Highway.node[5].appl posx ETV
vector 47 Highway.node[5].appl posy ETV
vector 48 Highway.node[6].appl distance ETV
vector 49 Highway.node[6].appl relativeSpeed ETV
vector 50 Highway.node[6].appl nodeId ETV
vector 51 Highway.node[6].appl acceleration ETV
vector 52 Highway.node[6].appl controllerAcceleration ETV
vector 53 Highway.node[6].appl speed ETV
vector 54 Highway.node[6].appl posx ETV
vector 55 Highway.node[6].appl posy ETV
vector 56 Highway.node[7].appl distance ETV
vector 57 Highway.node[7].appl relativeSpeed ETV
vector 58 Highway.node[7].appl nodeId ETV
vector 59 Highway.node[7].appl acceleration ETV
vector 60 Highway.node[7].appl controllerAcceleration ETV
vector 61 Highway.node[7].appl speed ETV
vector 62 Highway.node[7].appl posx ETV
vector 63 Highway.node[7].appl posy ETV
vector 64 Highway.node[4].prot frontDelay ETV
vector 65 Highway.node[4].prot frontDelayId ETV
vector 66 Highway.node[2].prot frontDelay ETV
vector 67 Highway.node[2].prot frontDelayId ETV
vector 68 Highway.node[3].prot frontDelay ETV
vector 69 Highway.node[3].prot frontDelayId ETV
vector 70 Highway.node[5].prot frontDelay ETV
vector 71 Highway.node[5].prot frontDelayId ETV
vector 72 Highway.node[7].prot frontDelay ETV
vector 73 Highway.node[7].prot frontDelayId ETV
vector 74 Highway.node[1].prot leaderDelay ETV
vector 75 Highway.node[1].prot leaderDelayId ETV
vector 76 Highway.node[1].prot frontDelay ETV
vector 77 Highway.node[1].prot frontDelayId ETV
vector 78 Highway.node[2].prot leaderDelay ETV
vector 79 Highway.node[2].prot leaderDelayId ETV
vector 80 Highway.node[3].prot leaderDelay ETV
vector 81 Highway.node[3].prot leaderDelayId ETV
vector 82 Highway.node[4].prot leaderDelay ETV
vector 83 Highway.node[4].prot leaderDelayId ETV
vector 84 Highway.node[5].prot leaderDelay ETV
vector 85 Highway.node[5].prot leaderDelayId ETV
vector 86 Highway.node[6].prot leaderDelay ETV
vector 87 Highway.node[6].prot leaderDelayId ETV
vector 88 Highway.node[7].prot leaderDelay ETV
vector 89 Highway.node[7].prot leaderDelayId ETV
vector 90 Highway.node[6].prot frontDelay ETV
vector 91 Highway.node[6].prot frontDelayId ETV
vector 92 Highway.node[0].prot nodeId ETV
vector 93 Highway.node[0].prot busyTime ETV
vector 94 Highway.node[0].prot collisions ETV
vector 95 Highway.node[1].prot nodeId ETV
vector 96 Highway.node[1].prot busyTime ETV
vector 97 Highway.node[1].prot collisions ETV
vector 98 Highway.node[2].prot nodeId ETV
vector 99 Highway.node[2].prot busyTime ETV
vector 100 Highway.node[2].prot collisions ETV
vector 101 Highway.node[3].prot nodeId ETV
vector 102 Highway.node[3].prot busyTime ETV
vector 103 Highway.node[3].prot collisions ETV
vector 104 Highway.node[4].prot nodeId ETV
vector 105 Highway.node[4].prot busyTime ETV
vector 106 Highway.node[4].prot collisions ETV
vector 107 Highway.node[5].prot nodeId ETV
vector 108 Highway.node[5].prot busyTime ETV
vector 109 Highway.node[5].prot collisions ETV
vector 110 Highway.node[6].prot nodeId ETV
vector 111 Highway.node[6].prot busyTime ETV
vector 112 Highway.node[6].prot collisions ETV
vector 113 Highway.node[7].prot nodeId ETV
vector 114 Highway.node[7].prot busyTime ETV
vector 115 Highway.node[7].prot collisions ETV
0	11335 17513 113 542371 1.11 99.91 989 -1 -1 -989 989
1	28848 16524 113 542371 1.11 99.91 989 0 0 0 0
2	45372 16524 113 542371 1.11 99.91 989 0 0 0 0
3	61896 18812 113 542371 1.11 99.91 989 -3.14892e-05 0.000707784 0.010991577126781 6.0508064149601e-06
4	80708 26470 113 542371 1.11 99.91 989 -4.89399e-05 0.00109259 0.010614843047836 8.6815283230331e-06
5	107178 22451 113 542371 1.11 99.91 989 36.11 36.1111 35713.866699999 1289666.6073546
6	129629 22346 113 542371 1.11 99.91 989 66.1799 3633.96 1829716.4767 4436306092.0241
7	151975 21469 113 542371 1.11 99.91 989 242.45 242.45 239783.05 58135400.472499
8	173444 18564 114 542372 1.11 99.91 989 -1 74.1699 6280.77529 392673.79408029
9	192008 18169 114 542372 1.11 99.91 989 -1.58604e-05 3.11196 340.84607289607 977.44388479067
10	210177 17513 114 542372 1.11 99.91 989 1 1 989 989
11	227690 23148 114 542372 1.11 99.91 989 -1.25478 0.0801428 -21.058706301576 20.621252049169
12	250838 27263 114 542372 1.11 99.91 989 -1.5 0.112568 -20.212666806939 26.967910187636
13	278101 19956 114 542372 1.11 99.91 989 33.8694 36.1111 33835.906 1157994.6138462
14	298057 23398 114 542372 1.11 99.91 989 60.1799 3440.27 1740465.6205 3998062137.3614
15	321455 22458 114 542372 1.11 99.91 989 242.45 245.75 242749.75 59583743.4125
16	343913 23276 115 542373 1.11 99.91 989 2 169.744 75171.99564 8082783.4640454
17	367189 22332 115 542373 1.11 99.91 989 0 3.19811 1759.4973768717 3645.5425082759
18	389521 17513 115 542373 1.11 99.91 989 2 2 1978 3956
19	407034 21614 115 542373 1.11 99.91 989 -2.02229 0.353913 -21.044872992468 51.990475529446
20	428648 27236 115 542373 1.11 99.91 989 -3.08597 0.399175 -19.649076649235 73.147810017157
21	455884 19576 115 542373 1.11 99.91 989 32.913 36.1111 33797.7021 1155409.9309127
22	475460 23423 115 542373 1.11 99.91 989 54.1799 3430.44 1730996.2177 3963493669.9998
23	498883 22458 115 542373 1.11 99.91 989 242.45 242.45 239783.05 58135400.472499
24	521341 23270 116 542374 1.11 99.91 989 2 42.7936 33836.81112 1348359.2071432
25	544611 25282 116 542374 1.11 99.91 989 0 3.57768 407.93635183154 791.2448870177
26	569893 17513 116 542374 1.11 99.91 989 3 3 2967 8901
27	587406 26148 116 542374 1.11 99.91 989 -2.88428 0.676212 -21.047390695488 160.11548515417
28	613554 26156 116 542374 1.11 99.91 989 -3.60524 0.726202 -19.480949305465 194.5748314574
29	639710 23337 116 542374 1.11 99.91 989 29.6066 36.1111 33389.7662 1128649.0284789
30	663047 23338 116 542374 1.11 99.91 989 48.1799 3383.65 1693206.6742 3811647401.5538
31	686385 22458 116 542374 1.11 99.91 989 242.45 242.45 239783.05 58135400.472499
32	708843 21307 117 542375 1.11 99.91 989 -1 103.832 19533.81897 1035767.3159271
33	730150 21930 117 542375 1.11 99.91 989 -0.8889 3.70898 290.24788277283 867.61886399015
34	752080 17513 117 542375 1.11 99.91 989 4 4 3956 15824
35	769593 25223 117 542375 1.11 99.91 989 -3.14922 1.43283 8.9744716363617 331.46458223075
36	794816 26569 117 542375 1.11 99.91 989 -3.60808 1.5 10.522188059771 381.64058694942
37	821385 21705 117 542375 1.11 99.91 989 26.6616 37.0844 34907.1062 1237789.105115
38	843090 23381 117 542375 1.11 99.91 989 42.1799 3529.23 1724157.6581 4010469998.9281
39	866471 22458 117 542375 1.11 99.91 989 242.45 252.35 245478.85 60943315.0325
40	888929 21340 118 542376 1.11 99.91 989 -1 71.7786 28670.83068 1938130.9827135
41	910269 23027 118 542376 1.11 99.91 989 -0.130574 10.1091 390.20561446736 2379.5786777159
42	933296 17513 118 542376 1.11 99.91 989 5 5 4945 24725
43	950809 26701 118 542376 1.11 99.91 989 -3.20588 1.49997 -21.020935063556 426.71538829314
44	977510 27035 118 542376 1.11 99.91 989 -3.60808 1.5 -19.380069736624 483.26088351224
45	1004545 20307 118 542376 1.11 99.91 989 24.923 36.1111 33320.9668 1126275.035893
46	1024852 23414 118 542376 1.11 99.91 989 36.1799 3364.77 1673036.5476 3744301886.783
47	1048266 22458 118 542376 1.11 99.91 989 242.45 252.35 245620.75 61014333.012501
48	1070724 22361 119 542377 1.11 99.91 989 -1 49.8092 30474.13942 1296878.0423802
49	1093085 23989 119 542377 1.11 99.91 989 -0.550754 2.12211 112.69485300646 169.82447609737
50	1117074 17513 119 542377 1.11 99.91 989 6 6 5934 35604
51	1134587 26194 119 542377 1.11 99.91 989 -3.13483 0.920354 -1.0489744031521 114.55758173687
52	1160781 26224 119 542377 1.11 99.91 989 -3.60808 1.36846 2.2383716607154 177.43562439659
53	1187005 23011 119 542377 1.11 99.91 989 32.1317 36.1111 34314.7415 1191691.1434402
54	1210016 23350 119 542377 1.11 99.91 989 30.1799 3458.05 1709956.6369 3913982800.2232
55	1233366 22458 119 542377 1.11 99.91 989 242.45 249.05 244168.74999999 60286125.972502
56	1255824 19549 120 542378 1.11 99.91 989 -1 134.877 14102.02023 1786307.3934446
57	1275373 19046 120 542378 1.11 99.91 989 -7.723e-06 2 188.66538401183 273.62703705241
58	1294419 17513 120 542378 1.11 99.91 989 7 7 6923 48461
59	1311932 20973 120 542378 1.11 99.91 989 -2.66599 0.60522 -11.041041304589 42.987966564243
60	1332905 27332 120 542378 1.11 99.91 989 -3.60808 0.941304 -10.318733145909 99.480276030948
61	1360237 19498 120 542378 1.11 99.91 989 34.0591 36.1111 34704.5459 1217918.4798954
62	1379735 23422 120 542378 1.11 99.91 989 24.1799 3491.08 1742363.7276 4058217669.0513
63	1403157 22458 120 542378 1.11 99.91 989 242.45 249.05 244663.75 60534014.052501
64	1425615 40034 768 542504 1.218681580402 99.918680472232 988 0.099987480335 0.100003056299 98.799999372163 9.8799998936199
65	1465649 27287 768 542504 1.218681580402 99.918680472232 988 4 4 3952 15808
66	1492936 40034 835 542541 1.22410962043 99.924108210238 988 0.099987480334 0.100003055299 98.799999070141 9.8799998332316
67	1532970 27283 835 542541 1.22410962043 99.924108210238 988 2 2 1976 3952
68	1560253 40017 902 542620 1.233905640444 99.933904366325 988 0.099987480333 0.100005806285 98.799999206214 9.8799998606056
69	1600270 27286 902 542620 1.233905640444 99.933904366325 988 3 3 2964 8892
70	1627556 40039 968 542710 1.236616680472 99.93661608907 988 0.099987480333 0.100005806285 98.799999888931 9.8799999971464
71	1667595 27289 968 542710 1.236616680472 99.93661608907 988 5 5 4940 24700
72	1694884 40004 1036 542754 1.2505597205 99.950558890829 988 0.099987480333 0.100003056305 98.799999650662 9.8799999493455
73	1734888 27279 1036 542754 1.2505597205 99.950558890829 988 7 7 6916 48412
74	1762167 40019 1097 542827 1.260290840583 99.960291012359 988 0.099987480333 0.100005809114 98.800000652109 9.8800001497859
75	1802186 27278 1097 542827 1.260290840583 99.960291012359 988 1 1 988 988
76	1829464 40019 1097 542827 1.260290840583 99.960291012359 988 0.099987480333 0.100005809114 98.800000652109 9.8800001497859
77	1869483 27278 1097 542827 1.260290840583 99.960291012359 988 1 1 988 988
78	1896761 40005 1103 542833 1.260290860597 99.960291045022 988 0.099987480333 0.100005806286 98.800000664758 9.8800001523157
79	1936766 27263 1103 542833 1.260290860597 99.960291045022 988 2 2 1976 3952
80	1964029 40001 1109 542839 1.260290880611 99.960291201109 988 0.099987480333 0.100005806286 98.800000800831 9.8800001795303
81	2004030 27253 1109 542839 1.260290880611 99.960291201109 988 3 3 2964 8892
82	2031283 40014 1115 542809 1.260290900624 99.960290714993 988 0.099987480333 0.100005806286 98.800000294702 9.8800000783044
83	2071297 27267 1115 542809 1.260290900624 99.960290714993 988 4 4 3952 15808
84	2098564 40022 1121 542845 1.260290920638 99.960291264154 988 0.099987480333 0.100005806287 98.800000823849 9.8800001841339
85	2138586 27273 1121 542845 1.260290920638 99.960291264154 988 5 5 4940 24700
86	2165859 40043 1127 542821 1.260290940652 99.960290953025 988 0.099987480333 0.100005806287 98.800000492706 9.8800001179053
87	2205902 27288 1127 542821 1.260290940652 99.960290953025 988 6 6 5928 35568
88	2233190 40021 1133 542815 1.260290960666 99.960290842602 988 0.099987480333 0.100005806287 98.800000362269 9.8800000918179
89	2273211 27259 1133 542815 1.260290960666 99.960290842602 988 7 7 6916 48412
90	2300470 40023 1170 542894 1.271698940652 99.971699575956 988 0.099987480335 0.100005806287 98.800001115637 9.880000242442
91	2340493 27264 1170 542894 1.271698940652 99.971699575956 988 6 6 5928 35568
92	2367757 1460 5026 542916 2 100 99 0 0 0 0
93	2369217 2062 5026 542916 2 100 99 0.022473 0.027235601124 2.471798601124 0.061726400997586
94	2371279 1460 5026 542916 2 100 99 0 0 0 0
95	2372739 1460 5027 542917 2 100 99 1 1 99 99
96	2374199 2062 5027 542917 2 100 99 0.022473 0.026938480334 2.471501480334 0.061710304751705
97	2376261 1460 5027 542917 2 100 99 0 0 0 0
98	2377721 1460 5028 542918 2 100 99 2 2 198 396
99	2379181 2062 5028 542918 2 100 99 0.022473 0.027011360254 2.471574360254 0.061714236611771
100	2381243 1559 5028 542918 2 100 99 0 0 0 0
101	2382802 1559 5029 542919 2 100 99 3 3 297 891
102	2384361 2160 5029 542919 2 100 99 0.022473 0.02704460042 2.47160760042 0.061716033440877
103	2386521 1559 5029 542919 2 100 99 0 0 0 0
104	2388080 1559 5030 542920 2 100 99 4 4 396 1584
105	2389639 2161 5030 542920 2 100 99 0.022473 0.027011520365 2.471574520365 0.061714245261429
106	2391800 1559 5030 542920 2 100 99 0 0 0 0
107	2393359 1559 5031 542921 2 100 99 5 5 495 2475
108	2394918 2161 5031 542921 2 100 99 0.022473 0.027011480336 2.471574480336 0.061714243098942
109	2397079 1559 5031 542921 2 100 99 0 0 0 0
110	2398638 1559 5032 542922 2 100 99 6 6 594 3564
111	2400197 2161 5032 542922 2 100 99 0.022473 0.027106440308 2.471669440308 0.061719382135171
112	2402358 1559 5032 542922 2 100 99 0 0 0 0
113	2403917 1559 5033 542923 2 100 99 7 7 693 4851
114	2405476 2161 5033 542923 2 100 99 0.022473 0.027139520367 2.471702520367 0.061721176594751
115	2407637 1559 5033 542923 2 100 99 0 0 0 0

