version 3
run BreakRanksNoGui-23-20240708-17:44:32-155173
attr configname BreakRanksNoGui
attr datetime 20240708-17:44:32
attr datetimef 20240708-174432
attr experiment BreakRanksNoGui
attr inifile omnetpp.ini
attr iterationvars "$nCars=8, $platoonSize=8, $nLanes=1, $ploegH=0.5, $controller=1, $headway=0.1, $leaderHeadway=1.2, $leaderSpeed=130, $breakRanksSafetyDistance=2, $minSpeed=120, $maxSpeed=140, $beaconInterval=0.1, $priority=4, $packetSize=200, $sController=\"CACC\", $0=2, $1=0"
attr iterationvarsd nCars=8/platoonSize=8/nLanes=1/ploegH=0.5/controller=1/headway=0.1/leaderHeadway=1.2/leaderSpeed=130/breakRanksSafetyDistance=2/minSpeed=120/maxSpeed=140/beaconInterval=0.1/priority=4/packetSize=200/sController=CACC/2/0
attr iterationvarsf nCars=8,platoonSize=8,nLanes=1,ploegH=0.5,controller=1,headway=0.1,leaderHeadway=1.2,leaderSpeed=130,breakRanksSafetyDistance=2,minSpeed=120,maxSpeed=140,beaconInterval=0.1,priority=4,packetSize=200,sController=CACC,2,0-
attr measurement "$nCars=8, $platoonSize=8, $nLanes=1, $ploegH=0.5, $controller=1, $headway=0.1, $leaderHeadway=1.2, $leaderSpeed=130, $breakRanksSafetyDistance=2, $minSpeed=120, $maxSpeed=140, $beaconInterval=0.1, $priority=4, $packetSize=200, $sController=\"CACC\", $0=2, $1=0"
attr network Highway
attr processid 155173
attr repetition 3
attr replication #3
attr resultdir results
attr runnumber 23
attr seedset 3
itervar beaconInterval 0.1
itervar breakRanksSafetyDistance 2
itervar controller 1
itervar headway 0.1
itervar leaderHeadway 1.2
itervar leaderSpeed 130
itervar maxSpeed 140
itervar minSpeed 120
itervar nCars 8
itervar nLanes 1
itervar packetSize 200
itervar platoonSize 8
itervar ploegH 0.5
itervar priority 4
itervar sController "\"CACC\""
config image-path ../../../veins/images
config repeat 10
config extends BreakRanks
config *.manager.command "\"sumo\""
config *.manager.ignoreGuiCommands true
config output-vector-file results/BreakRanks_1_0.1_130_2/result_3.vec
config output-scalar-file results/BreakRanks_1_0.1_130_2/result_3.sca
config extends Platooning
config *.node[*].scenario_type "\"BreakRanksScenario\""
config *.manager.command "\"sumo-gui\""
config *.node[*].scenario_type "\"SimpleScenario\""
config cmdenv-express-mode true
config cmdenv-autoflush true
config cmdenv-status-frequency 15s
config num-rngs 6
config network Highway
config debug-on-errors true
config print-undisposed true
config *.playgroundSizeX 65000m
config *.playgroundSizeY 25000m
config *.playgroundSizeZ 50m
config sim-time-limit "100 s"
config *.annotations.draw false
config *.obstacles.debug false
config *.world.useTorus false
config *.world.use2D false
config *.manager.updateInterval 0.01s
config *.manager.host "\"localhost\""
config *.manager.moduleType "\"org.car2x.plexe.PlatoonCar\""
config *.manager.moduleName "\"node\""
config *.manager.moduleDisplayString "\"\""
config *.manager.autoShutdown true
config *.manager.margin 25
config *.connectionManager.sendDirect true
config *.connectionManager.maxInterfDist 2600m
config *.connectionManager.drawMaxIntfDist false
config *.**.nic.mac1609_4.useServiceChannel false
config *.**.nic.mac1609_4.txPower 100mW
config *.**.nic.mac1609_4.bitrate 6Mbps
config *.**.nic.mac1609_4.useAcks true
config *.**.nic.mac1609_4.ackErrorRate 0.0
config *.**.nic.mac1609_4.frameErrorRate 0.0
config *.**.nic.phy80211p.minPowerLevel -94dBm
config *.**.nic.phy80211p.maxTXPower 100mW
config *.**.nic.phy80211p.useNoiseFloor true
config *.**.nic.phy80211p.noiseFloor -95dBm
config *.**.nic.phy80211p.decider "xmldoc(\"config.xml\")"
config *.**.nic.phy80211p.analogueModels "xmldoc(\"config.xml\")"
config *.**.nic.phy80211p.usePropagationDelay true
config *.node[*].mobility.x 0
config *.node[*].mobility.y 0
config *.node[*].mobility.z 1.895
config seed-set 3
config **.seed 3
config *.node[*].prot.rng-0 2
config *.node[*].appl.rng-0 3
config *.node[*].scenario.rng-0 4
config **.traffic.rng-0 5
config *.manager.configFile "\"./sumocfg/freeway.sumo.cfg\""
config *.manager.launchConfig "xmldoc(\"./sumocfg/freeway.launchd.xml\")"
config **.numberOfCars 8
config **.numberOfCarsPerPlatoon 8
config **.numberOfLanes 1
config *.node[*].helper_type "\"PositionHelper\""
config *.node[*].scenario.caccC1 0.5
config *.node[*].scenario.caccXi 1
config *.node[*].scenario.caccOmegaN "0.2 Hz"
config *.node[*].scenario.caccSpacing "2 m"
config *.node[*].scenario.engineTau "0.5 s"
config *.node[*].scenario.ploegH 0.5s
config *.node[*].scenario.ploegKp 0.2
config *.node[*].scenario.ploegKd 0.7
config *.node[*].scenario.useRealisticEngine false
config *.node[*].scenario.useControllerAcceleration true
config *.node[*].scenario.nLanes 1
config **.numericController 1
config **.headway 0.1s
config *.node[*].scenario.accHeadway 0.1s
config *.node[*].scenario.leaderHeadway 1.2s
config *.node[*].scenario.leaderSpeed 130kmph
config *.node[*].appl_type "\"SimplePlatooningApp\""
config *.node[*].appl.*.scalar-recording true
config *.node[*].appl.*.vector-recording true
config *.node[0].appl.breakRanksSafetyDistance 2m
config *.node[*].appl.minSpeed 120kmph
config *.node[*].appl.maxSpeed 140kmph
config *.node[*].protocol_type "\"SimplePlatooningBeaconing\""
config *.node[*].prot.*.scalar-recording true
config *.node[*].prot.*.vector-recording true
config *.node[*].prot.beaconingInterval 0.1s
config *.node[*].prot.priority 4
config *.node[*].prot.packetSize 200
config **.traffic_type "\"PlatoonsTrafficManager\""
config **.traffic.platoonInsertTime "1 s"
config **.traffic.platoonInsertSpeed 130kmph
config **.traffic.nCars 8
config **.traffic.platoonSize 8
config **.traffic.nLanes 1
config **.traffic.platooningVType "\"vtypeauto\""
config **.traffic.controller "\"CACC\""
config **.traffic.platoonInsertDistance 2m
config **.traffic.platoonInsertHeadway 0s
config **.traffic.platoonLeaderHeadway 1.2s
config **.scalar-recording false
config **.vector-recording false
config output-vector-file results/BreakRanksNoGui_1_0.1_130_2/result_3.vec
config output-scalar-file results/BreakRanksNoGui_1_0.1_130_2/result_3.sca

vector 0 Highway.node[0].appl distance ETV
vector 1 Highway.node[0].appl relativeSpeed ETV
vector 2 Highway.node[0].appl nodeId ETV
vector 3 Highway.node[0].appl acceleration ETV
vector 4 Highway.node[0].appl controllerAcceleration ETV
vector 5 Highway.node[0].appl speed ETV
vector 6 Highway.node[0].appl posx ETV
vector 7 Highway.node[0].appl posy ETV
vector 8 Highway.node[1].appl distance ETV
vector 9 Highway.node[1].appl relativeSpeed ETV
vector 10 Highway.node[1].appl nodeId ETV
vector 11 Highway.node[1].appl acceleration ETV
vector 12 Highway.node[1].appl controllerAcceleration ETV
vector 13 Highway.node[1].appl speed ETV
vector 14 Highway.node[1].appl posx ETV
vector 15 Highway.node[1].appl posy ETV
vector 16 Highway.node[2].appl distance ETV
vector 17 Highway.node[2].appl relativeSpeed ETV
vector 18 Highway.node[2].appl nodeId ETV
vector 19 Highway.node[2].appl acceleration ETV
vector 20 Highway.node[2].appl controllerAcceleration ETV
vector 21 Highway.node[2].appl speed ETV
vector 22 Highway.node[2].appl posx ETV
vector 23 Highway.node[2].appl posy ETV
vector 24 Highway.node[3].appl distance ETV
vector 25 Highway.node[3].appl relativeSpeed ETV
vector 26 Highway.node[3].appl nodeId ETV
vector 27 Highway.node[3].appl acceleration ETV
vector 28 Highway.node[3].appl controllerAcceleration ETV
vector 29 Highway.node[3].appl speed ETV
vector 30 Highway.node[3].appl posx ETV
vector 31 Highway.node[3].appl posy ETV
vector 32 Highway.node[4].appl distance ETV
vector 33 Highway.node[4].appl relativeSpeed ETV
vector 34 Highway.node[4].appl nodeId ETV
vector 35 Highway.node[4].appl acceleration ETV
vector 36 Highway.node[4].appl controllerAcceleration ETV
vector 37 Highway.node[4].appl speed ETV
vector 38 Highway.node[4].appl posx ETV
vector 39 Highway.node[4].appl posy ETV
vector 40 Highway.node[5].appl distance ETV
vector 41 Highway.node[5].appl relativeSpeed ETV
vector 42 Highway.node[5].appl nodeId ETV
vector 43 Highway.node[5].appl acceleration ETV
vector 44 Highway.node[5].appl controllerAcceleration ETV
vector 45 Highway.node[5].appl speed ETV
vector 46 Highway.node[5].appl posx ETV
vector 47 Highway.node[5].appl posy ETV
vector 48 Highway.node[6].appl distance ETV
vector 49 Highway.node[6].appl relativeSpeed ETV
vector 50 Highway.node[6].appl nodeId ETV
vector 51 Highway.node[6].appl acceleration ETV
vector 52 Highway.node[6].appl controllerAcceleration ETV
vector 53 Highway.node[6].appl speed ETV
vector 54 Highway.node[6].appl posx ETV
vector 55 Highway.node[6].appl posy ETV
vector 56 Highway.node[7].appl distance ETV
vector 57 Highway.node[7].appl relativeSpeed ETV
vector 58 Highway.node[7].appl nodeId ETV
vector 59 Highway.node[7].appl acceleration ETV
vector 60 Highway.node[7].appl controllerAcceleration ETV
vector 61 Highway.node[7].appl speed ETV
vector 62 Highway.node[7].appl posx ETV
vector 63 Highway.node[7].appl posy ETV
vector 64 Highway.node[1].prot leaderDelay ETV
vector 65 Highway.node[1].prot leaderDelayId ETV
vector 66 Highway.node[1].prot frontDelay ETV
vector 67 Highway.node[1].prot frontDelayId ETV
vector 68 Highway.node[2].prot leaderDelay ETV
vector 69 Highway.node[2].prot leaderDelayId ETV
vector 70 Highway.node[3].prot leaderDelay ETV
vector 71 Highway.node[3].prot leaderDelayId ETV
vector 72 Highway.node[4].prot leaderDelay ETV
vector 73 Highway.node[4].prot leaderDelayId ETV
vector 74 Highway.node[5].prot leaderDelay ETV
vector 75 Highway.node[5].prot leaderDelayId ETV
vector 76 Highway.node[6].prot leaderDelay ETV
vector 77 Highway.node[6].prot leaderDelayId ETV
vector 78 Highway.node[7].prot leaderDelay ETV
vector 79 Highway.node[7].prot leaderDelayId ETV
vector 80 Highway.node[7].prot frontDelay ETV
vector 81 Highway.node[7].prot frontDelayId ETV
vector 82 Highway.node[2].prot frontDelay ETV
vector 83 Highway.node[2].prot frontDelayId ETV
vector 84 Highway.node[5].prot frontDelay ETV
vector 85 Highway.node[5].prot frontDelayId ETV
vector 86 Highway.node[3].prot frontDelay ETV
vector 87 Highway.node[3].prot frontDelayId ETV
vector 88 Highway.node[6].prot frontDelay ETV
vector 89 Highway.node[6].prot frontDelayId ETV
vector 90 Highway.node[4].prot frontDelay ETV
vector 91 Highway.node[4].prot frontDelayId ETV
vector 92 Highway.node[0].prot nodeId ETV
vector 93 Highway.node[0].prot busyTime ETV
vector 94 Highway.node[0].prot collisions ETV
vector 95 Highway.node[1].prot nodeId ETV
vector 96 Highway.node[1].prot busyTime ETV
vector 97 Highway.node[1].prot collisions ETV
vector 98 Highway.node[2].prot nodeId ETV
vector 99 Highway.node[2].prot busyTime ETV
vector 100 Highway.node[2].prot collisions ETV
vector 101 Highway.node[3].prot nodeId ETV
vector 102 Highway.node[3].prot busyTime ETV
vector 103 Highway.node[3].prot collisions ETV
vector 104 Highway.node[4].prot nodeId ETV
vector 105 Highway.node[4].prot busyTime ETV
vector 106 Highway.node[4].prot collisions ETV
vector 107 Highway.node[5].prot nodeId ETV
vector 108 Highway.node[5].prot busyTime ETV
vector 109 Highway.node[5].prot collisions ETV
vector 110 Highway.node[6].prot nodeId ETV
vector 111 Highway.node[6].prot busyTime ETV
vector 112 Highway.node[6].prot collisions ETV
vector 113 Highway.node[7].prot nodeId ETV
vector 114 Highway.node[7].prot busyTime ETV
vector 115 Highway.node[7].prot collisions ETV
0	113	1.11	-1
0	659	1.21	-1
0	1205	1.31	-1
0	1751	1.41	-1
0	2297	1.51	-1
0	2843	1.61	-1
0	3389	1.71	-1
0	3935	1.81	-1
0	4481	1.91	-1
0	5035	2.01	-1
0	5581	2.11	-1
0	6127	2.21	-1
0	6673	2.31	-1
0	7219	2.41	-1
0	7765	2.51	-1
0	8311	2.61	-1
0	8857	2.71	-1
0	9403	2.81	-1
0	9949	2.91	-1
0	10503	3.01	-1
0	11049	3.11	-1
0	11595	3.21	-1
0	12141	3.31	-1
0	12687	3.41	-1
0	13233	3.51	-1
0	13779	3.61	-1
0	14325	3.71	-1
0	14871	3.81	-1
0	15417	3.91	-1
0	15971	4.01	-1
0	16517	4.11	-1
0	17063	4.21	-1
0	17609	4.31	-1
0	18155	4.41	-1
0	18701	4.51	-1
0	19247	4.61	-1
0	19793	4.71	-1
0	20339	4.81	-1
0	20885	4.91	-1
0	21439	5.01	-1
0	21985	5.11	-1
0	22531	5.21	-1
0	23077	5.31	-1
0	23623	5.41	-1
0	24169	5.51	-1
0	24715	5.61	-1
0	25261	5.71	-1
0	25807	5.81	-1
0	26353	5.91	-1
0	26907	6.01	-1
0	27453	6.11	-1
0	27999	6.21	-1
0	28545	6.31	-1
0	29091	6.41	-1
0	29637	6.51	-1
0	30183	6.61	-1
0	30729	6.71	-1
0	31275	6.81	-1
0	31821	6.91	-1
0	32375	7.01	-1
0	32921	7.11	-1
0	33467	7.21	-1
0	34013	7.31	-1
0	34559	7.41	-1
0	35105	7.51	-1
0	35651	7.61	-1
0	36197	7.71	-1
0	36743	7.81	-1
0	37289	7.91	-1
0	37843	8.01	-1
0	38389	8.11	-1
0	38935	8.21	-1
0	39481	8.31	-1
0	40027	8.41	-1
0	40573	8.51	-1
0	41119	8.61	-1
0	41665	8.71	-1
0	42211	8.81	-1
0	42757	8.91	-1
0	43311	9.01	-1
0	43857	9.11	-1
0	44403	9.21	-1
0	44949	9.31	-1
0	45495	9.41	-1
0	46041	9.51	-1
0	46587	9.61	-1
0	47133	9.71	-1
0	47679	9.81	-1
0	48225	9.91	-1
0	50495	10.01	-1
0	51041	10.11	-1
0	51587	10.21	-1
0	52133	10.31	-1
0	52679	10.41	-1
0	53225	10.51	-1
0	53771	10.61	-1
0	54317	10.71	-1
0	54863	10.81	-1
0	55409	10.91	-1
0	55963	11.01	-1
0	56509	11.11	-1
0	57055	11.21	-1
0	57601	11.31	-1
0	58147	11.41	-1
0	58693	11.51	-1
0	59239	11.61	-1
0	59785	11.71	-1
0	60331	11.81	-1
0	60877	11.91	-1
0	61431	12.01	-1
0	61977	12.11	-1
0	62523	12.21	-1
0	63069	12.31	-1
0	63615	12.41	-1
0	64161	12.51	-1
0	64707	12.61	-1
0	65253	12.71	-1
0	65799	12.81	-1
0	66345	12.91	-1
0	66899	13.01	-1
0	67445	13.11	-1
0	67991	13.21	-1
0	68537	13.31	-1
0	69083	13.41	-1
0	69629	13.51	-1
0	70175	13.61	-1
0	70721	13.71	-1
0	71267	13.81	-1
0	71813	13.91	-1
0	72367	14.01	-1
0	72913	14.11	-1
0	73459	14.21	-1
0	74005	14.31	-1
0	74551	14.41	-1
0	75097	14.51	-1
0	75643	14.61	-1
0	76189	14.71	-1
0	76735	14.81	-1
0	77281	14.91	-1
0	77835	15.01	-1
0	78381	15.11	-1
0	78927	15.21	-1
0	79473	15.31	-1
0	80019	15.41	-1
0	80565	15.51	-1
0	81111	15.61	-1
0	81657	15.71	-1
0	82203	15.81	-1
0	82749	15.91	-1
0	83303	16.01	-1
0	83849	16.11	-1
0	84395	16.21	-1
0	84941	16.31	-1
0	85487	16.41	-1
0	86033	16.51	-1
0	86579	16.61	-1
0	87125	16.71	-1
0	87671	16.81	-1
0	88217	16.91	-1
0	88771	17.01	-1
0	89317	17.11	-1
0	89863	17.21	-1
0	90409	17.31	-1
0	90955	17.41	-1
0	91501	17.51	-1
0	92047	17.61	-1
0	92593	17.71	-1
0	93139	17.81	-1
0	93685	17.91	-1
0	94239	18.01	-1
0	94785	18.11	-1
0	95331	18.21	-1
0	95877	18.31	-1
0	96423	18.41	-1
0	96969	18.51	-1
0	97515	18.61	-1
0	98061	18.71	-1
0	98607	18.81	-1
0	99153	18.91	-1
0	99707	19.01	-1
0	100253	19.11	-1
0	100799	19.21	-1
0	101345	19.31	-1
0	101891	19.41	-1
0	102437	19.51	-1
0	102983	19.61	-1
0	103529	19.71	-1
0	104075	19.81	-1
0	104621	19.91	-1
0	105175	20.01	-1
0	105721	20.11	-1
0	106267	20.21	-1
0	106813	20.31	-1
0	107359	20.41	-1
0	107905	20.51	-1
0	108451	20.61	-1
0	108997	20.71	-1
0	109543	20.81	-1
0	110089	20.91	-1
0	110643	21.01	-1
0	111189	21.11	-1
0	111735	21.21	-1
0	112281	21.31	-1
0	112827	21.41	-1
0	113373	21.51	-1
0	113919	21.61	-1
0	114465	21.71	-1
0	115011	21.81	-1
0	115557	21.91	-1
0	116111	22.01	-1
0	116657	22.11	-1
0	117203	22.21	-1
0	117749	22.31	-1
0	118295	22.41	-1
0	118841	22.51	-1
0	119387	22.61	-1
0	119933	22.71	-1
0	120479	22.81	-1
0	121025	22.91	-1
0	121579	23.01	-1
0	122125	23.11	-1
0	122671	23.21	-1
0	123217	23.31	-1
0	123763	23.41	-1
0	124309	23.51	-1
0	124855	23.61	-1
0	125401	23.71	-1
0	125947	23.81	-1
0	126493	23.91	-1
0	127047	24.01	-1
0	127593	24.11	-1
0	128139	24.21	-1
0	128685	24.31	-1
0	129231	24.41	-1
0	129777	24.51	-1
0	130323	24.61	-1
0	130869	24.71	-1
0	131415	24.81	-1
0	131961	24.91	-1
0	132515	25.01	-1
0	133061	25.11	-1
0	133607	25.21	-1
0	134153	25.31	-1
0	134699	25.41	-1
0	135245	25.51	-1
0	135791	25.61	-1
0	136337	25.71	-1
0	136883	25.81	-1
0	137429	25.91	-1
0	137983	26.01	-1
0	138529	26.11	-1
0	139075	26.21	-1
0	139621	26.31	-1
0	140167	26.41	-1
0	140713	26.51	-1
0	141259	26.61	-1
0	141805	26.71	-1
0	142351	26.81	-1
0	142897	26.91	-1
0	143451	27.01	-1
0	143997	27.11	-1
0	144543	27.21	-1
0	145089	27.31	-1
0	145635	27.41	-1
0	146181	27.51	-1
0	146727	27.61	-1
0	147273	27.71	-1
0	147819	27.81	-1
0	148365	27.91	-1
0	148919	28.01	-1
0	149465	28.11	-1
0	150011	28.21	-1
0	150557	28.31	-1
0	151103	28.41	-1
0	151649	28.51	-1
0	152195	28.61	-1
0	152741	28.71	-1
0	153287	28.81	-1
0	153833	28.91	-1
0	154387	29.01	-1
0	154933	29.11	-1
0	155479	29.21	-1
0	156025	29.31	-1
0	156571	29.41	-1
0	157117	29.51	-1
0	157663	29.61	-1
0	158209	29.71	-1
0	158755	29.81	-1
0	159301	29.91	-1
0	159855	30.01	-1
0	160401	30.11	-1
0	160947	30.21	-1
0	161493	30.31	-1
0	162039	30.41	-1
0	162585	30.51	-1
0	163131	30.61	-1
0	163677	30.71	-1
0	164223	30.81	-1
0	164769	30.91	-1
0	165323	31.01	-1
0	165869	31.11	-1
0	166415	31.21	-1
0	166961	31.31	-1
0	167507	31.41	-1
0	168053	31.51	-1
0	168599	31.61	-1
0	169145	31.71	-1
0	169691	31.81	-1
0	170237	31.91	-1
0	170791	32.01	-1
0	171337	32.11	-1
0	171883	32.21	-1
0	172429	32.31	-1
0	172975	32.41	-1
0	173521	32.51	-1
0	174067	32.61	-1
0	174613	32.71	-1
0	175159	32.81	-1
0	175705	32.91	-1
0	176259	33.01	-1
0	176805	33.11	-1
0	177351	33.21	-1
0	177897	33.31	-1
0	178443	33.41	-1
0	178989	33.51	-1
0	179535	33.61	-1
0	180081	33.71	-1
0	180627	33.81	-1
0	181173	33.91	-1
0	181727	34.01	-1
0	182273	34.11	-1
0	182819	34.21	-1
0	183365	34.31	-1
0	183911	34.41	-1
0	184457	34.51	-1
0	185003	34.61	-1
0	185549	34.71	-1
0	186095	34.81	-1
0	186641	34.91	-1
0	187195	35.01	-1
0	187741	35.11	-1
0	188287	35.21	-1
0	188833	35.31	-1
0	189379	35.41	-1
0	189925	35.51	-1
0	190471	35.61	-1
0	191017	35.71	-1
0	191563	35.81	-1
0	192109	35.91	-1
0	192663	36.01	-1
0	193209	36.11	-1
0	193755	36.21	-1
0	194301	36.31	-1
0	194847	36.41	-1
0	195393	36.51	-1
0	195939	36.61	-1
0	196485	36.71	-1
0	197031	36.81	-1
0	197577	36.91	-1
0	198131	37.01	-1
0	198677	37.11	-1
0	199223	37.21	-1
0	199769	37.31	-1
0	200315	37.41	-1
0	200861	37.51	-1
0	201407	37.61	-1
0	201953	37.71	-1
0	202499	37.81	-1
0	203045	37.91	-1
0	203599	38.01	-1
0	204145	38.11	-1
0	204691	38.21	-1
0	205237	38.31	-1
0	205783	38.41	-1
0	206329	38.51	-1
0	206875	38.61	-1
0	207421	38.71	-1
0	207967	38.81	-1
0	208513	38.91	-1
0	209067	39.01	-1
0	209613	39.11	-1
0	210159	39.21	-1
0	210705	39.31	-1
0	211251	39.41	-1
0	211797	39.51	-1
0	212343	39.61	-1
0	212889	39.71	-1
0	213435	39.81	-1
0	213981	39.91	-1
0	214535	40.01	-1
0	215081	40.11	-1
0	215627	40.21	-1
0	216173	40.31	-1
0	216719	40.41	-1
0	217265	40.51	-1
0	217811	40.61	-1
0	218357	40.71	-1
0	218903	40.81	-1
0	219449	40.91	-1
0	220003	41.01	-1
0	220549	41.11	-1
0	221095	41.21	-1
0	221641	41.31	-1
0	222187	41.41	-1
0	222733	41.51	-1
0	223279	41.61	-1
0	223825	41.71	-1
0	224371	41.81	-1
0	224917	41.91	-1
0	225471	42.01	-1
0	226017	42.11	-1
0	226563	42.21	-1
0	227109	42.31	-1
0	227655	42.41	-1
0	228201	42.51	-1
0	228747	42.61	-1
0	229293	42.71	-1
0	229839	42.81	-1
0	230385	42.91	-1
0	230939	43.01	-1
0	231485	43.11	-1
0	232031	43.21	-1
0	232577	43.31	-1
0	233123	43.41	-1
0	233669	43.51	-1
0	234215	43.61	-1
0	234761	43.71	-1
0	235307	43.81	-1
0	235853	43.91	-1
0	236407	44.01	-1
0	236953	44.11	-1
0	237499	44.21	-1
0	238045	44.31	-1
0	238591	44.41	-1
0	239137	44.51	-1
0	239683	44.61	-1
0	240229	44.71	-1
0	240775	44.81	-1
0	241321	44.91	-1
0	241875	45.01	-1
0	242421	45.11	-1
0	242967	45.21	-1
0	243513	45.31	-1
0	244059	45.41	-1
0	244605	45.51	-1
0	245151	45.61	-1
0	245697	45.71	-1
0	246243	45.81	-1
0	246789	45.91	-1
0	247343	46.01	-1
0	247889	46.11	-1
0	248435	46.21	-1
0	248981	46.31	-1
0	249527	46.41	-1
0	250073	46.51	-1
0	250619	46.61	-1
0	251165	46.71	-1
0	251711	46.81	-1
0	252257	46.91	-1
0	252811	47.01	-1
0	253357	47.11	-1
0	253903	47.21	-1
0	254449	47.31	-1
0	254995	47.41	-1
0	255541	47.51	-1
0	256087	47.61	-1
0	256633	47.71	-1
0	257179	47.81	-1
0	257725	47.91	-1
0	258279	48.01	-1
0	258825	48.11	-1
0	259371	48.21	-1
0	259917	48.31	-1
0	260463	48.41	-1
0	261009	48.51	-1
0	261555	48.61	-1
0	262101	48.71	-1
0	262647	48.81	-1
0	263193	48.91	-1
0	263747	49.01	-1
0	264293	49.11	-1
0	264839	49.21	-1
0	265385	49.31	-1
0	265931	49.41	-1
0	266477	49.51	-1
0	267023	49.61	-1
0	267569	49.71	-1
0	268115	49.81	-1
0	268661	49.91	-1
0	269215	50.01	-1
0	269761	50.11	-1
0	270307	50.21	-1
0	270853	50.31	-1
0	271399	50.41	-1
0	271945	50.51	-1
0	272491	50.61	-1
0	273037	50.71	-1
0	273583	50.81	-1
0	274129	50.91	-1
0	274683	51.01	-1
0	275229	51.11	-1
0	275775	51.21	-1
0	276321	51.31	-1
0	276867	51.41	-1
0	277413	51.51	-1
0	277959	51.61	-1
0	278505	51.71	-1
0	279051	51.81	-1
0	279597	51.91	-1
0	280151	52.01	-1
0	280697	52.11	-1
0	281243	52.21	-1
0	281789	52.31	-1
0	282335	52.41	-1
0	282881	52.51	-1
0	283427	52.61	-1
0	283973	52.71	-1
0	284519	52.81	-1
0	285065	52.91	-1
0	285619	53.01	-1
0	286165	53.11	-1
0	286711	53.21	-1
0	287257	53.31	-1
0	287803	53.41	-1
0	288349	53.51	-1
0	288895	53.61	-1
0	289441	53.71	-1
0	289987	53.81	-1
0	290533	53.91	-1
0	291087	54.01	-1
0	291633	54.11	-1
0	292179	54.21	-1
0	292725	54.31	-1
0	293271	54.41	-1
0	293817	54.51	-1
0	294363	54.61	-1
0	294909	54.71	-1
0	295455	54.81	-1
0	296001	54.91	-1
0	296555	55.01	-1
0	297101	55.11	-1
0	297647	55.21	-1
0	298193	55.31	-1
0	298739	55.41	-1
0	299285	55.51	-1
0	299831	55.61	-1
0	300377	55.71	-1
0	300923	55.81	-1
0	301469	55.91	-1
0	302023	56.01	-1
0	302569	56.11	-1
0	303115	56.21	-1
0	303661	56.31	-1
0	304207	56.41	-1
0	304753	56.51	-1
0	305299	56.61	-1
0	305845	56.71	-1
0	306391	56.81	-1
0	306937	56.91	-1
0	307491	57.01	-1
0	308037	57.11	-1
0	308583	57.21	-1
0	309129	57.31	-1
0	309675	57.41	-1
0	310221	57.51	-1
0	310767	57.61	-1
0	311313	57.71	-1
0	311859	57.81	-1
0	312405	57.91	-1
0	312959	58.01	-1
0	313505	58.11	-1
0	314051	58.21	-1
0	314597	58.31	-1
0	315143	58.41	-1
0	315689	58.51	-1
0	316235	58.61	-1
0	316781	58.71	-1
0	317327	58.81	-1
0	317873	58.91	-1
0	318427	59.01	-1
0	318973	59.11	-1
0	319519	59.21	-1
0	320065	59.31	-1
0	320611	59.41	-1
0	321157	59.51	-1
0	321703	59.61	-1
0	322249	59.71	-1
0	322795	59.81	-1
0	323341	59.91	-1
0	323895	60.01	-1
0	324441	60.11	-1
0	324987	60.21	-1
0	325533	60.31	-1
0	326079	60.41	-1
0	326625	60.51	-1
0	327171	60.61	-1
0	327717	60.71	-1
0	328263	60.81	-1
0	328809	60.91	-1
0	329363	61.01	-1
0	329909	61.11	-1
0	330455	61.21	-1
0	331001	61.31	-1
0	331547	61.41	-1
0	332093	61.51	-1
0	332639	61.61	-1
0	333185	61.71	-1
0	333731	61.81	-1
0	334277	61.91	-1
0	334831	62.01	-1
0	335377	62.11	-1
0	335923	62.21	-1
0	336469	62.31	-1
0	337015	62.41	-1
0	337561	62.51	-1
0	338107	62.61	-1
0	338653	62.71	-1
0	339199	62.81	-1
0	339745	62.91	-1
0	340299	63.01	-1
0	340845	63.11	-1
0	341391	63.21	-1
0	341937	63.31	-1
0	342483	63.41	-1
0	343029	63.51	-1
0	343575	63.61	-1
0	344121	63.71	-1
0	344667	63.81	-1
0	345213	63.91	-1
0	345767	64.01	-1
0	346313	64.11	-1
0	346859	64.21	-1
0	347405	64.31	-1
0	347951	64.41	-1
0	348497	64.51	-1
0	349043	64.61	-1
0	349589	64.71	-1
0	350135	64.81	-1
0	350681	64.91	-1
0	351235	65.01	-1
0	351781	65.11	-1
0	352327	65.21	-1
0	352873	65.31	-1
0	353419	65.41	-1
0	353965	65.51	-1
0	354511	65.61	-1
0	355057	65.71	-1
0	355603	65.81	-1
0	356149	65.91	-1
0	356703	66.01	-1
0	357249	66.11	-1
0	357795	66.21	-1
0	358341	66.31	-1
0	358887	66.41	-1
0	359433	66.51	-1
0	359979	66.61	-1
0	360525	66.71	-1
0	361071	66.81	-1
0	361617	66.91	-1
0	362171	67.01	-1
0	362717	67.11	-1
0	363263	67.21	-1
0	363809	67.31	-1
0	364355	67.41	-1
0	364901	67.51	-1
0	365447	67.61	-1
0	365993	67.71	-1
0	366539	67.81	-1
0	367085	67.91	-1
0	367639	68.01	-1
0	368185	68.11	-1
0	368731	68.21	-1
0	369277	68.31	-1
0	369823	68.41	-1
0	370369	68.51	-1
0	370915	68.61	-1
0	371461	68.71	-1
0	372007	68.81	-1
0	372553	68.91	-1
0	373107	69.01	-1
0	373653	69.11	-1
0	374199	69.21	-1
0	374745	69.31	-1
0	375291	69.41	-1
0	375837	69.51	-1
0	376383	69.61	-1
0	376929	69.71	-1
0	377475	69.81	-1
0	378021	69.91	-1
0	378575	70.01	-1
0	379121	70.11	-1
0	379667	70.21	-1
0	380213	70.31	-1
0	380759	70.41	-1
0	381305	70.51	-1
0	381851	70.61	-1
0	382397	70.71	-1
0	382943	70.81	-1
0	383489	70.91	-1
0	384043	71.01	-1
0	384589	71.11	-1
0	385135	71.21	-1
0	385681	71.31	-1
0	386227	71.41	-1
0	386773	71.51	-1
0	387319	71.61	-1
0	387865	71.71	-1
0	388411	71.81	-1
0	388957	71.91	-1
0	389511	72.01	-1
0	390057	72.11	-1
0	390603	72.21	-1
0	391149	72.31	-1
0	391695	72.41	-1
0	392241	72.51	-1
0	392787	72.61	-1
0	393333	72.71	-1
0	393879	72.81	-1
0	394425	72.91	-1
0	394979	73.01	-1
0	395525	73.11	-1
0	396071	73.21	-1
0	396617	73.31	-1
0	397163	73.41	-1
0	397709	73.51	-1
0	398255	73.61	-1
0	398801	73.71	-1
0	399347	73.81	-1
0	399893	73.91	-1
0	400447	74.01	-1
0	400993	74.11	-1
0	401539	74.21	-1
0	402085	74.31	-1
0	402631	74.41	-1
0	403177	74.51	-1
0	403723	74.61	-1
0	404269	74.71	-1
0	404815	74.81	-1
0	405361	74.91	-1
0	405915	75.01	-1
0	406461	75.11	-1
0	407007	75.21	-1
0	407553	75.31	-1
0	408099	75.41	-1
0	408645	75.51	-1
0	409191	75.61	-1
0	409737	75.71	-1
0	410283	75.81	-1
0	410829	75.91	-1
0	411383	76.01	-1
0	411929	76.11	-1
0	412475	76.21	-1
0	413021	76.31	-1
0	413567	76.41	-1
0	414113	76.51	-1
0	414659	76.61	-1
0	415205	76.71	-1
0	415751	76.81	-1
0	416297	76.91	-1
0	416851	77.01	-1
0	417397	77.11	-1
0	417943	77.21	-1
0	418489	77.31	-1
0	419035	77.41	-1
0	419581	77.51	-1
0	420127	77.61	-1
0	420673	77.71	-1
0	421219	77.81	-1
0	421765	77.91	-1
0	422319	78.01	-1
0	422865	78.11	-1
0	423411	78.21	-1
0	423957	78.31	-1
0	424503	78.41	-1
0	425049	78.51	-1
0	425595	78.61	-1
0	426141	78.71	-1
0	426687	78.81	-1
0	427233	78.91	-1
0	427787	79.01	-1
0	428333	79.11	-1
0	428879	79.21	-1
0	429425	79.31	-1
0	429971	79.41	-1
0	430517	79.51	-1
0	431063	79.61	-1
0	431609	79.71	-1
0	432155	79.81	-1
0	432701	79.91	-1
0	433255	80.01	-1
0	433801	80.11	-1
0	434347	80.21	-1
0	434893	80.31	-1
0	435439	80.41	-1
0	435985	80.51	-1
0	436531	80.61	-1
0	437077	80.71	-1
0	437623	80.81	-1
0	438169	80.91	-1
0	438723	81.01	-1
0	439269	81.11	-1
0	439815	81.21	-1
0	440361	81.31	-1
0	440907	81.41	-1
0	441453	81.51	-1
0	441999	81.61	-1
0	442545	81.71	-1
0	443091	81.81	-1
0	443637	81.91	-1
0	444191	82.01	-1
0	444737	82.11	-1
0	445283	82.21	-1
0	445829	82.31	-1
0	446375	82.41	-1
0	446921	82.51	-1
0	447467	82.61	-1
0	448013	82.71	-1
0	448559	82.81	-1
0	449105	82.91	-1
0	449659	83.01	-1
0	450205	83.11	-1
0	450751	83.21	-1
0	451297	83.31	-1
0	451843	83.41	-1
0	452389	83.51	-1
0	452935	83.61	-1
0	453481	83.71	-1
0	454027	83.81	-1
0	454573	83.91	-1
0	455127	84.01	-1
0	455673	84.11	-1
0	456219	84.21	-1
0	456765	84.31	-1
0	457311	84.41	-1
0	457857	84.51	-1
0	458403	84.61	-1
0	458949	84.71	-1
0	459495	84.81	-1
0	460041	84.91	-1
0	460595	85.01	-1
0	461141	85.11	-1
0	461687	85.21	-1
0	462233	85.31	-1
0	462779	85.41	-1
0	463325	85.51	-1
0	463871	85.61	-1
0	464417	85.71	-1
0	464963	85.81	-1
0	465509	85.91	-1
0	466063	86.01	-1
0	466609	86.11	-1
0	467155	86.21	-1
0	467701	86.31	-1
0	468247	86.41	-1
0	468793	86.51	-1
0	469339	86.61	-1
0	469885	86.71	-1
0	470431	86.81	-1
0	470977	86.91	-1
0	471531	87.01	-1
0	472077	87.11	-1
0	472623	87.21	-1
0	473169	87.31	-1
0	473715	87.41	-1
0	474261	87.51	-1
0	474807	87.61	-1
0	475353	87.71	-1
0	475899	87.81	-1
0	476445	87.91	-1
0	476999	88.01	-1
0	477545	88.11	-1
0	478091	88.21	-1
0	478637	88.31	-1
0	479183	88.41	-1
0	479729	88.51	-1
0	480275	88.61	-1
0	480821	88.71	-1
0	481367	88.81	-1
0	481913	88.91	-1
0	482467	89.01	-1
0	483013	89.11	-1
0	483559	89.21	-1
0	484105	89.31	-1
0	484651	89.41	-1
0	485197	89.51	-1
0	485743	89.61	-1
0	486289	89.71	-1
0	486835	89.81	-1
0	487381	89.91	-1
0	487935	90.01	-1
0	488481	90.11	-1
0	489027	90.21	-1
0	489573	90.31	-1
0	490119	90.41	-1
0	490665	90.51	-1
0	491211	90.61	-1
0	491757	90.71	-1
0	492303	90.81	-1
0	492849	90.91	-1
0	493403	91.01	-1
0	493949	91.11	-1
0	494495	91.21	-1
0	495041	91.31	-1
0	495587	91.41	-1
0	496133	91.51	-1
0	496679	91.61	-1
0	497225	91.71	-1
0	497771	91.81	-1
0	498317	91.91	-1
0	498871	92.01	-1
0	499417	92.11	-1
0	499963	92.21	-1
0	500509	92.31	-1
0	501055	92.41	-1
0	501601	92.51	-1
0	502147	92.61	-1
0	502693	92.71	-1
0	503239	92.81	-1
0	503785	92.91	-1
0	504339	93.01	-1
0	504885	93.11	-1
0	505431	93.21	-1
0	505977	93.31	-1
0	506523	93.41	-1
0	507069	93.51	-1
0	507615	93.61	-1
0	508161	93.71	-1
0	508707	93.81	-1
0	509253	93.91	-1
0	509807	94.01	-1
0	510353	94.11	-1
0	510899	94.21	-1
0	511445	94.31	-1
0	511991	94.41	-1
0	512537	94.51	-1
0	513083	94.61	-1
0	513629	94.71	-1
0	514175	94.81	-1
0	514721	94.91	-1
0	515275	95.01	-1
0	515821	95.11	-1
0	516367	95.21	-1
0	516913	95.31	-1
0	517459	95.41	-1
0	518005	95.51	-1
0	518551	95.61	-1
0	519097	95.71	-1
0	519643	95.81	-1
0	520189	95.91	-1
0	520743	96.01	-1
0	521289	96.11	-1
0	521835	96.21	-1
0	522381	96.31	-1
0	522927	96.41	-1
0	523473	96.51	-1
0	524019	96.61	-1
0	524565	96.71	-1
0	525111	96.81	-1
0	525657	96.91	-1
0	526211	97.01	-1
0	526757	97.11	-1
0	527303	97.21	-1
0	527849	97.31	-1
0	528395	97.41	-1
0	528941	97.51	-1
0	529487	97.61	-1
0	530033	97.71	-1
0	530579	97.81	-1
0	531125	97.91	-1
0	531679	98.01	-1
0	532225	98.11	-1
0	532771	98.21	-1
0	533317	98.31	-1
0	533863	98.41	-1
0	534409	98.51	-1
0	534955	98.61	-1
0	535501	98.71	-1
0	536047	98.81	-1
0	536593	98.91	-1
0	537147	99.01	-1
0	537693	99.11	-1
0	538239	99.21	-1
0	538785	99.31	-1
0	539331	99.41	-1
0	539877	99.51	-1
0	540423	99.61	-1
0	540969	99.71	-1
0	541515	99.81	-1
0	542061	99.91	-1
1	113	1.11	0
1	659	1.21	0
1	1205	1.31	0
1	1751	1.41	0
1	2297	1.51	0
1	2843	1.61	0
1	3389	1.71	0
1	3935	1.81	0
1	4481	1.91	0
1	5035	2.01	0
1	5581	2.11	0
1	6127	2.21	0
1	6673	2.31	0
1	7219	2.41	0
1	7765	2.51	0
1	8311	2.61	0
1	8857	2.71	0
1	9403	2.81	0
1	9949	2.91	0
1	10503	3.01	0
1	11049	3.11	0
1	11595	3.21	0
1	12141	3.31	0
1	12687	3.41	0
1	13233	3.51	0
1	13779	3.61	0
1	14325	3.71	0
1	14871	3.81	0
1	15417	3.91	0
1	15971	4.01	0
1	16517	4.11	0
1	17063	4.21	0
1	17609	4.31	0
1	18155	4.41	0
1	18701	4.51	0
1	19247	4.61	0
1	19793	4.71	0
1	20339	4.81	0
1	20885	4.91	0
1	21439	5.01	0
1	21985	5.11	0
1	22531	5.21	0
1	23077	5.31	0
1	23623	5.41	0
1	24169	5.51	0
1	24715	5.61	0
1	25261	5.71	0
1	25807	5.81	0
1	26353	5.91	0
1	26907	6.01	0
1	27453	6.11	0
1	27999	6.21	0
1	28545	6.31	0
1	29091	6.41	0
1	29637	6.51	0
1	30183	6.61	0
1	30729	6.71	0
1	31275	6.81	0
1	31821	6.91	0
1	32375	7.01	0
1	32921	7.11	0
1	33467	7.21	0
1	34013	7.31	0
1	34559	7.41	0
1	35105	7.51	0
1	35651	7.61	0
1	36197	7.71	0
1	36743	7.81	0
1	37289	7.91	0
1	37843	8.01	0
1	38389	8.11	0
1	38935	8.21	0
1	39481	8.31	0
1	40027	8.41	0
1	40573	8.51	0
1	41119	8.61	0
1	41665	8.71	0
1	42211	8.81	0
1	42757	8.91	0
1	43311	9.01	0
1	43857	9.11	0
1	44403	9.21	0
1	44949	9.31	0
1	45495	9.41	0
1	46041	9.51	0
1	46587	9.61	0
1	47133	9.71	0
1	47679	9.81	0
1	48225	9.91	0
1	50495	10.01	0
1	51041	10.11	0
1	51587	10.21	0
1	52133	10.31	0
1	52679	10.41	0
1	53225	10.51	0
1	53771	10.61	0
1	54317	10.71	0
1	54863	10.81	0
1	55409	10.91	0
1	55963	11.01	0
1	56509	11.11	0
1	57055	11.21	0
1	57601	11.31	0
1	58147	11.41	0
1	58693	11.51	0
1	59239	11.61	0
1	59785	11.71	0
1	60331	11.81	0
1	60877	11.91	0
1	61431	12.01	0
1	61977	12.11	0
1	62523	12.21	0
1	63069	12.31	0
1	63615	12.41	0
1	64161	12.51	0
1	64707	12.61	0
1	65253	12.71	0
1	65799	12.81	0
1	66345	12.91	0
1	66899	13.01	0
1	67445	13.11	0
1	67991	13.21	0
1	68537	13.31	0
1	69083	13.41	0
1	69629	13.51	0
1	70175	13.61	0
1	70721	13.71	0
1	71267	13.81	0
1	71813	13.91	0
1	72367	14.01	0
1	72913	14.11	0
1	73459	14.21	0
1	74005	14.31	0
1	74551	14.41	0
1	75097	14.51	0
1	75643	14.61	0
1	76189	14.71	0
1	76735	14.81	0
1	77281	14.91	0
1	77835	15.01	0
1	78381	15.11	0
1	78927	15.21	0
1	79473	15.31	0
1	80019	15.41	0
1	80565	15.51	0
1	81111	15.61	0
1	81657	15.71	0
1	82203	15.81	0
1	82749	15.91	0
1	83303	16.01	0
1	83849	16.11	0
1	84395	16.21	0
1	84941	16.31	0
1	85487	16.41	0
1	86033	16.51	0
1	86579	16.61	0
1	87125	16.71	0
1	87671	16.81	0
1	88217	16.91	0
1	88771	17.01	0
1	89317	17.11	0
1	89863	17.21	0
1	90409	17.31	0
1	90955	17.41	0
1	91501	17.51	0
1	92047	17.61	0
1	92593	17.71	0
1	93139	17.81	0
1	93685	17.91	0
1	94239	18.01	0
1	94785	18.11	0
1	95331	18.21	0
1	95877	18.31	0
1	96423	18.41	0
1	96969	18.51	0
1	97515	18.61	0
1	98061	18.71	0
1	98607	18.81	0
1	99153	18.91	0
1	99707	19.01	0
1	100253	19.11	0
1	100799	19.21	0
1	101345	19.31	0
1	101891	19.41	0
1	102437	19.51	0
1	102983	19.61	0
1	103529	19.71	0
1	104075	19.81	0
1	104621	19.91	0
1	105175	20.01	0
1	105721	20.11	0
1	106267	20.21	0
1	106813	20.31	0
1	107359	20.41	0
1	107905	20.51	0
1	108451	20.61	0
1	108997	20.71	0
1	109543	20.81	0
1	110089	20.91	0
1	110643	21.01	0
1	111189	21.11	0
1	111735	21.21	0
1	112281	21.31	0
1	112827	21.41	0
1	113373	21.51	0
1	113919	21.61	0
1	114465	21.71	0
1	115011	21.81	0
1	115557	21.91	0
1	116111	22.01	0
1	116657	22.11	0
1	117203	22.21	0
1	117749	22.31	0
1	118295	22.41	0
1	118841	22.51	0
1	119387	22.61	0
1	119933	22.71	0
1	120479	22.81	0
1	121025	22.91	0
1	121579	23.01	0
1	122125	23.11	0
1	122671	23.21	0
1	123217	23.31	0
1	123763	23.41	0
1	124309	23.51	0
1	124855	23.61	0
1	125401	23.71	0
1	125947	23.81	0
1	126493	23.91	0
1	127047	24.01	0
1	127593	24.11	0
1	128139	24.21	0
1	128685	24.31	0
1	129231	24.41	0
1	129777	24.51	0
1	130323	24.61	0
1	130869	24.71	0
1	131415	24.81	0
1	131961	24.91	0
1	132515	25.01	0
1	133061	25.11	0
1	133607	25.21	0
1	134153	25.31	0
1	134699	25.41	0
1	135245	25.51	0
1	135791	25.61	0
1	136337	25.71	0
1	136883	25.81	0
1	137429	25.91	0
1	137983	26.01	0
1	138529	26.11	0
1	139075	26.21	0
1	139621	26.31	0
1	140167	26.41	0
1	140713	26.51	0
1	141259	26.61	0
1	141805	26.71	0
1	142351	26.81	0
1	142897	26.91	0
1	143451	27.01	0
1	143997	27.11	0
1	144543	27.21	0
1	145089	27.31	0
1	145635	27.41	0
1	146181	27.51	0
1	146727	27.61	0
1	147273	27.71	0
1	147819	27.81	0
1	148365	27.91	0
1	148919	28.01	0
1	149465	28.11	0
1	150011	28.21	0
1	150557	28.31	0
1	151103	28.41	0
1	151649	28.51	0
1	152195	28.61	0
1	152741	28.71	0
1	153287	28.81	0
1	153833	28.91	0
1	154387	29.01	0
1	154933	29.11	0
1	155479	29.21	0
1	156025	29.31	0
1	156571	29.41	0
1	157117	29.51	0
1	157663	29.61	0
1	158209	29.71	0
1	158755	29.81	0
1	159301	29.91	0
1	159855	30.01	0
1	160401	30.11	0
1	160947	30.21	0
1	161493	30.31	0
1	162039	30.41	0
1	162585	30.51	0
1	163131	30.61	0
1	163677	30.71	0
1	164223	30.81	0
1	164769	30.91	0
1	165323	31.01	0
1	165869	31.11	0
1	166415	31.21	0
1	166961	31.31	0
1	167507	31.41	0
1	168053	31.51	0
1	168599	31.61	0
1	169145	31.71	0
1	169691	31.81	0
1	170237	31.91	0
1	170791	32.01	0
1	171337	32.11	0
1	171883	32.21	0
1	172429	32.31	0
1	172975	32.41	0
1	173521	32.51	0
1	174067	32.61	0
1	174613	32.71	0
1	175159	32.81	0
1	175705	32.91	0
1	176259	33.01	0
1	176805	33.11	0
1	177351	33.21	0
1	177897	33.31	0
1	178443	33.41	0
1	178989	33.51	0
1	179535	33.61	0
1	180081	33.71	0
1	180627	33.81	0
1	181173	33.91	0
1	181727	34.01	0
1	182273	34.11	0
1	182819	34.21	0
1	183365	34.31	0
1	183911	34.41	0
1	184457	34.51	0
1	185003	34.61	0
1	185549	34.71	0
1	186095	34.81	0
1	186641	34.91	0
1	187195	35.01	0
1	187741	35.11	0
1	188287	35.21	0
1	188833	35.31	0
1	189379	35.41	0
1	189925	35.51	0
1	190471	35.61	0
1	191017	35.71	0
1	191563	35.81	0
1	192109	35.91	0
1	192663	36.01	0
1	193209	36.11	0
1	193755	36.21	0
1	194301	36.31	0
1	194847	36.41	0
1	195393	36.51	0
1	195939	36.61	0
1	196485	36.71	0
1	197031	36.81	0
1	197577	36.91	0
1	198131	37.01	0
1	198677	37.11	0
1	199223	37.21	0
1	199769	37.31	0
1	200315	37.41	0
1	200861	37.51	0
1	201407	37.61	0
1	201953	37.71	0
1	202499	37.81	0
1	203045	37.91	0
1	203599	38.01	0
1	204145	38.11	0
1	204691	38.21	0
1	205237	38.31	0
1	205783	38.41	0
1	206329	38.51	0
1	206875	38.61	0
1	207421	38.71	0
1	207967	38.81	0
1	208513	38.91	0
1	209067	39.01	0
1	209613	39.11	0
1	210159	39.21	0
1	210705	39.31	0
1	211251	39.41	0
1	211797	39.51	0
1	212343	39.61	0
1	212889	39.71	0
1	213435	39.81	0
1	213981	39.91	0
1	214535	40.01	0
1	215081	40.11	0
1	215627	40.21	0
1	216173	40.31	0
1	216719	40.41	0
1	217265	40.51	0
1	217811	40.61	0
1	218357	40.71	0
1	218903	40.81	0
1	219449	40.91	0
1	220003	41.01	0
1	220549	41.11	0
1	221095	41.21	0
1	221641	41.31	0
1	222187	41.41	0
1	222733	41.51	0
1	223279	41.61	0
1	223825	41.71	0
1	224371	41.81	0
1	224917	41.91	0
1	225471	42.01	0
1	226017	42.11	0
1	226563	42.21	0
1	227109	42.31	0
1	227655	42.41	0
1	228201	42.51	0
1	228747	42.61	0
1	229293	42.71	0
1	229839	42.81	0
1	230385	42.91	0
1	230939	43.01	0
1	231485	43.11	0
1	232031	43.21	0
1	232577	43.31	0
1	233123	43.41	0
1	233669	43.51	0
1	234215	43.61	0
1	234761	43.71	0
1	235307	43.81	0
1	235853	43.91	0
1	236407	44.01	0
1	236953	44.11	0
1	237499	44.21	0
1	238045	44.31	0
1	238591	44.41	0
1	239137	44.51	0
1	239683	44.61	0
1	240229	44.71	0
1	240775	44.81	0
1	241321	44.91	0
1	241875	45.01	0
1	242421	45.11	0
1	242967	45.21	0
1	243513	45.31	0
1	244059	45.41	0
1	244605	45.51	0
1	245151	45.61	0
1	245697	45.71	0
1	246243	45.81	0
1	246789	45.91	0
1	247343	46.01	0
1	247889	46.11	0
1	248435	46.21	0
1	248981	46.31	0
1	249527	46.41	0
1	250073	46.51	0
1	250619	46.61	0
1	251165	46.71	0
1	251711	46.81	0
1	252257	46.91	0
1	252811	47.01	0
1	253357	47.11	0
1	253903	47.21	0
1	254449	47.31	0
1	254995	47.41	0
1	255541	47.51	0
1	256087	47.61	0
1	256633	47.71	0
1	257179	47.81	0
1	257725	47.91	0
1	258279	48.01	0
1	258825	48.11	0
1	259371	48.21	0
1	259917	48.31	0
1	260463	48.41	0
1	261009	48.51	0
1	261555	48.61	0
1	262101	48.71	0
1	262647	48.81	0
1	263193	48.91	0
1	263747	49.01	0
1	264293	49.11	0
1	264839	49.21	0
1	265385	49.31	0
1	265931	49.41	0
1	266477	49.51	0
1	267023	49.61	0
1	267569	49.71	0
1	268115	49.81	0
1	268661	49.91	0
1	269215	50.01	0
1	269761	50.11	0
1	270307	50.21	0
1	270853	50.31	0
1	271399	50.41	0
1	271945	50.51	0
1	272491	50.61	0
1	273037	50.71	0
1	273583	50.81	0
1	274129	50.91	0
1	274683	51.01	0
1	275229	51.11	0
1	275775	51.21	0
1	276321	51.31	0
1	276867	51.41	0
1	277413	51.51	0
1	277959	51.61	0
1	278505	51.71	0
1	279051	51.81	0
1	279597	51.91	0
1	280151	52.01	0
1	280697	52.11	0
1	281243	52.21	0
1	281789	52.31	0
1	282335	52.41	0
1	282881	52.51	0
1	283427	52.61	0
1	283973	52.71	0
1	284519	52.81	0
1	285065	52.91	0
1	285619	53.01	0
1	286165	53.11	0
1	286711	53.21	0
1	287257	53.31	0
1	287803	53.41	0
1	288349	53.51	0
1	288895	53.61	0
1	289441	53.71	0
1	289987	53.81	0
1	290533	53.91	0
1	291087	54.01	0
1	291633	54.11	0
1	292179	54.21	0
1	292725	54.31	0
1	293271	54.41	0
1	293817	54.51	0
1	294363	54.61	0
1	294909	54.71	0
1	295455	54.81	0
1	296001	54.91	0
1	296555	55.01	0
1	297101	55.11	0
1	297647	55.21	0
1	298193	55.31	0
1	298739	55.41	0
1	299285	55.51	0
1	299831	55.61	0
1	300377	55.71	0
1	300923	55.81	0
1	301469	55.91	0
1	302023	56.01	0
1	302569	56.11	0
1	303115	56.21	0
1	303661	56.31	0
1	304207	56.41	0
1	304753	56.51	0
1	305299	56.61	0
1	305845	56.71	0
1	306391	56.81	0
1	306937	56.91	0
1	307491	57.01	0
1	308037	57.11	0
1	308583	57.21	0
1	309129	57.31	0
1	309675	57.41	0
1	310221	57.51	0
1	310767	57.61	0
1	311313	57.71	0
1	311859	57.81	0
1	312405	57.91	0
1	312959	58.01	0
1	313505	58.11	0
1	314051	58.21	0
1	314597	58.31	0
1	315143	58.41	0
1	315689	58.51	0
1	316235	58.61	0
1	316781	58.71	0
1	317327	58.81	0
1	317873	58.91	0
1	318427	59.01	0
1	318973	59.11	0
1	319519	59.21	0
1	320065	59.31	0
1	320611	59.41	0
1	321157	59.51	0
1	321703	59.61	0
1	322249	59.71	0
1	322795	59.81	0
1	323341	59.91	0
1	323895	60.01	0
1	324441	60.11	0
1	324987	60.21	0
1	325533	60.31	0
1	326079	60.41	0
1	326625	60.51	0
1	327171	60.61	0
1	327717	60.71	0
1	328263	60.81	0
1	328809	60.91	0
1	329363	61.01	0
1	329909	61.11	0
1	330455	61.21	0
1	331001	61.31	0
1	331547	61.41	0
1	332093	61.51	0
1	332639	61.61	0
1	333185	61.71	0
1	333731	61.81	0
1	334277	61.91	0
1	334831	62.01	0
1	335377	62.11	0
1	335923	62.21	0
1	336469	62.31	0
1	337015	62.41	0
1	337561	62.51	0
1	338107	62.61	0
1	338653	62.71	0
1	339199	62.81	0
1	339745	62.91	0
1	340299	63.01	0
1	340845	63.11	0
1	341391	63.21	0
1	341937	63.31	0
1	342483	63.41	0
1	343029	63.51	0
1	343575	63.61	0
1	344121	63.71	0
1	344667	63.81	0
1	345213	63.91	0
1	345767	64.01	0
1	346313	64.11	0
1	346859	64.21	0
1	347405	64.31	0
1	347951	64.41	0
1	348497	64.51	0
1	349043	64.61	0
1	349589	64.71	0
1	350135	64.81	0
1	350681	64.91	0
1	351235	65.01	0
1	351781	65.11	0
1	352327	65.21	0
1	352873	65.31	0
1	353419	65.41	0
1	353965	65.51	0
1	354511	65.61	0
1	355057	65.71	0
1	355603	65.81	0
1	356149	65.91	0
1	356703	66.01	0
1	357249	66.11	0
1	357795	66.21	0
1	358341	66.31	0
1	358887	66.41	0
1	359433	66.51	0
1	359979	66.61	0
1	360525	66.71	0
1	361071	66.81	0
1	361617	66.91	0
1	362171	67.01	0
1	362717	67.11	0
1	363263	67.21	0
1	363809	67.31	0
1	364355	67.41	0
1	364901	67.51	0
1	365447	67.61	0
1	365993	67.71	0
1	366539	67.81	0
1	367085	67.91	0
1	367639	68.01	0
1	368185	68.11	0
1	368731	68.21	0
1	369277	68.31	0
1	369823	68.41	0
1	370369	68.51	0
1	370915	68.61	0
1	371461	68.71	0
1	372007	68.81	0
1	372553	68.91	0
1	373107	69.01	0
1	373653	69.11	0
1	374199	69.21	0
1	374745	69.31	0
1	375291	69.41	0
1	375837	69.51	0
1	376383	69.61	0
1	376929	69.71	0
1	377475	69.81	0
1	378021	69.91	0
1	378575	70.01	0
1	379121	70.11	0
1	379667	70.21	0
1	380213	70.31	0
1	380759	70.41	0
1	381305	70.51	0
1	381851	70.61	0
1	382397	70.71	0
1	382943	70.81	0
1	383489	70.91	0
1	384043	71.01	0
1	384589	71.11	0
1	385135	71.21	0
1	385681	71.31	0
1	386227	71.41	0
1	386773	71.51	0
1	387319	71.61	0
1	387865	71.71	0
1	388411	71.81	0
1	388957	71.91	0
1	389511	72.01	0
1	390057	72.11	0
1	390603	72.21	0
1	391149	72.31	0
1	391695	72.41	0
1	392241	72.51	0
1	392787	72.61	0
1	393333	72.71	0
1	393879	72.81	0
1	394425	72.91	0
1	394979	73.01	0
1	395525	73.11	0
1	396071	73.21	0
1	396617	73.31	0
1	397163	73.41	0
1	397709	73.51	0
1	398255	73.61	0
1	398801	73.71	0
1	399347	73.81	0
1	399893	73.91	0
1	400447	74.01	0
1	400993	74.11	0
1	401539	74.21	0
1	402085	74.31	0
1	402631	74.41	0
1	403177	74.51	0
1	403723	74.61	0
1	404269	74.71	0
1	404815	74.81	0
1	405361	74.91	0
1	405915	75.01	0
1	406461	75.11	0
1	407007	75.21	0
1	407553	75.31	0
1	408099	75.41	0
1	408645	75.51	0
1	409191	75.61	0
1	409737	75.71	0
1	410283	75.81	0
1	410829	75.91	0
1	411383	76.01	0
1	411929	76.11	0
1	412475	76.21	0
1	413021	76.31	0
1	413567	76.41	0
1	414113	76.51	0
1	414659	76.61	0
1	415205	76.71	0
1	415751	76.81	0
1	416297	76.91	0
1	416851	77.01	0
1	417397	77.11	0
1	417943	77.21	0
1	418489	77.31	0
1	419035	77.41	0
1	419581	77.51	0
1	420127	77.61	0
1	420673	77.71	0
1	421219	77.81	0
1	421765	77.91	0
1	422319	78.01	0
1	422865	78.11	0
1	423411	78.21	0
1	423957	78.31	0
1	424503	78.41	0
1	425049	78.51	0
1	425595	78.61	0
1	426141	78.71	0
1	426687	78.81	0
1	427233	78.91	0
1	427787	79.01	0
1	428333	79.11	0
1	428879	79.21	0
1	429425	79.31	0
1	429971	79.41	0
1	430517	79.51	0
1	431063	79.61	0
1	431609	79.71	0
1	432155	79.81	0
1	432701	79.91	0
1	433255	80.01	0
1	433801	80.11	0
1	434347	80.21	0
1	434893	80.31	0
1	435439	80.41	0
1	435985	80.51	0
1	436531	80.61	0
1	437077	80.71	0
1	437623	80.81	0
1	438169	80.91	0
1	438723	81.01	0
1	439269	81.11	0
1	439815	81.21	0
1	440361	81.31	0
1	440907	81.41	0
1	441453	81.51	0
1	441999	81.61	0
1	442545	81.71	0
1	443091	81.81	0
1	443637	81.91	0
1	444191	82.01	0
1	444737	82.11	0
1	445283	82.21	0
1	445829	82.31	0
1	446375	82.41	0
1	446921	82.51	0
1	447467	82.61	0
1	448013	82.71	0
1	448559	82.81	0
1	449105	82.91	0
1	449659	83.01	0
1	450205	83.11	0
1	450751	83.21	0
1	451297	83.31	0
1	451843	83.41	0
1	452389	83.51	0
1	452935	83.61	0
1	453481	83.71	0
1	454027	83.81	0
1	454573	83.91	0
1	455127	84.01	0
1	455673	84.11	0
1	456219	84.21	0
1	456765	84.31	0
1	457311	84.41	0
1	457857	84.51	0
1	458403	84.61	0
1	458949	84.71	0
1	459495	84.81	0
1	460041	84.91	0
1	460595	85.01	0
1	461141	85.11	0
1	461687	85.21	0
1	462233	85.31	0
1	462779	85.41	0
1	463325	85.51	0
1	463871	85.61	0
1	464417	85.71	0
1	464963	85.81	0
1	465509	85.91	0
1	466063	86.01	0
1	466609	86.11	0
1	467155	86.21	0
1	467701	86.31	0
1	468247	86.41	0
1	468793	86.51	0
1	469339	86.61	0
1	469885	86.71	0
1	470431	86.81	0
1	470977	86.91	0
1	471531	87.01	0
1	472077	87.11	0
1	472623	87.21	0
1	473169	87.31	0
1	473715	87.41	0
1	474261	87.51	0
1	474807	87.61	0
1	475353	87.71	0
1	475899	87.81	0
1	476445	87.91	0
1	476999	88.01	0
1	477545	88.11	0
1	478091	88.21	0
1	478637	88.31	0
1	479183	88.41	0
1	479729	88.51	0
1	480275	88.61	0
1	480821	88.71	0
1	481367	88.81	0
1	481913	88.91	0
1	482467	89.01	0
1	483013	89.11	0
1	483559	89.21	0
1	484105	89.31	0
1	484651	89.41	0
1	485197	89.51	0
1	485743	89.61	0
1	486289	89.71	0
1	486835	89.81	0
1	487381	89.91	0
1	487935	90.01	0
1	488481	90.11	0
1	489027	90.21	0
1	489573	90.31	0
1	490119	90.41	0
1	490665	90.51	0
1	491211	90.61	0
1	491757	90.71	0
1	492303	90.81	0
1	492849	90.91	0
1	493403	91.01	0
1	493949	91.11	0
1	494495	91.21	0
1	495041	91.31	0
1	495587	91.41	0
1	496133	91.51	0
1	496679	91.61	0
1	497225	91.71	0
1	497771	91.81	0
1	498317	91.91	0
1	498871	92.01	0
1	499417	92.11	0
1	499963	92.21	0
1	500509	92.31	0
1	501055	92.41	0
1	501601	92.51	0
1	502147	92.61	0
1	502693	92.71	0
1	503239	92.81	0
1	503785	92.91	0
1	504339	93.01	0
1	504885	93.11	0
1	505431	93.21	0
1	505977	93.31	0
1	506523	93.41	0
1	507069	93.51	0
1	507615	93.61	0
1	508161	93.71	0
1	508707	93.81	0
1	509253	93.91	0
1	509807	94.01	0
1	510353	94.11	0
1	510899	94.21	0
1	511445	94.31	0
1	511991	94.41	0
1	512537	94.51	0
1	513083	94.61	0
1	513629	94.71	0
1	514175	94.81	0
1	514721	94.91	0
1	515275	95.01	0
1	515821	95.11	0
1	516367	95.21	0
1	516913	95.31	0
1	517459	95.41	0
1	518005	95.51	0
1	518551	95.61	0
1	519097	95.71	0
1	519643	95.81	0
1	520189	95.91	0
1	520743	96.01	0
1	521289	96.11	0
1	521835	96.21	0
1	522381	96.31	0
1	522927	96.41	0
1	523473	96.51	0
1	524019	96.61	0
1	524565	96.71	0
1	525111	96.81	0
1	525657	96.91	0
1	526211	97.01	0
1	526757	97.11	0
1	527303	97.21	0
1	527849	97.31	0
1	528395	97.41	0
1	528941	97.51	0
1	529487	97.61	0
1	530033	97.71	0
1	530579	97.81	0
1	531125	97.91	0
1	531679	98.01	0
1	532225	98.11	0
1	532771	98.21	0
1	533317	98.31	0
1	533863	98.41	0
1	534409	98.51	0
1	534955	98.61	0
1	535501	98.71	0
1	536047	98.81	0
1	536593	98.91	0
1	537147	99.01	0
1	537693	99.11	0
1	538239	99.21	0
1	538785	99.31	0
1	539331	99.41	0
1	539877	99.51	0
1	540423	99.61	0
1	540969	99.71	0
1	541515	99.81	0
1	542061	99.91	0
2	113	1.11	0
2	659	1.21	0
2	1205	1.31	0
2	1751	1.41	0
2	2297	1.51	0
2	2843	1.61	0
2	3389	1.71	0
2	3935	1.81	0
2	4481	1.91	0
2	5035	2.01	0
2	5581	2.11	0
2	6127	2.21	0
2	6673	2.31	0
2	7219	2.41	0
2	7765	2.51	0
2	8311	2.61	0
2	8857	2.71	0
2	9403	2.81	0
2	9949	2.91	0
2	10503	3.01	0
2	11049	3.11	0
2	11595	3.21	0
2	12141	3.31	0
2	12687	3.41	0
2	13233	3.51	0
2	13779	3.61	0
2	14325	3.71	0
2	14871	3.81	0
2	15417	3.91	0
2	15971	4.01	0
2	16517	4.11	0
2	17063	4.21	0
2	17609	4.31	0
2	18155	4.41	0
2	18701	4.51	0
2	19247	4.61	0
2	19793	4.71	0
2	20339	4.81	0
2	20885	4.91	0
2	21439	5.01	0
2	21985	5.11	0
2	22531	5.21	0
2	23077	5.31	0
2	23623	5.41	0
2	24169	5.51	0
2	24715	5.61	0
2	25261	5.71	0
2	25807	5.81	0
2	26353	5.91	0
2	26907	6.01	0
2	27453	6.11	0
2	27999	6.21	0
2	28545	6.31	0
2	29091	6.41	0
2	29637	6.51	0
2	30183	6.61	0
2	30729	6.71	0
2	31275	6.81	0
2	31821	6.91	0
2	32375	7.01	0
2	32921	7.11	0
2	33467	7.21	0
2	34013	7.31	0
2	34559	7.41	0
2	35105	7.51	0
2	35651	7.61	0
2	36197	7.71	0
2	36743	7.81	0
2	37289	7.91	0
2	37843	8.01	0
2	38389	8.11	0
2	38935	8.21	0
2	39481	8.31	0
2	40027	8.41	0
2	40573	8.51	0
2	41119	8.61	0
2	41665	8.71	0
2	42211	8.81	0
2	42757	8.91	0
2	43311	9.01	0
2	43857	9.11	0
2	44403	9.21	0
2	44949	9.31	0
2	45495	9.41	0
2	46041	9.51	0
2	46587	9.61	0
2	47133	9.71	0
2	47679	9.81	0
2	48225	9.91	0
2	50495	10.01	0
2	51041	10.11	0
2	51587	10.21	0
2	52133	10.31	0
2	52679	10.41	0
2	53225	10.51	0
2	53771	10.61	0
2	54317	10.71	0
2	54863	10.81	0
2	55409	10.91	0
2	55963	11.01	0
2	56509	11.11	0
2	57055	11.21	0
2	57601	11.31	0
2	58147	11.41	0
2	58693	11.51	0
2	59239	11.61	0
2	59785	11.71	0
2	60331	11.81	0
2	60877	11.91	0
2	61431	12.01	0
2	61977	12.11	0
2	62523	12.21	0
2	63069	12.31	0
2	63615	12.41	0
2	64161	12.51	0
2	64707	12.61	0
2	65253	12.71	0
2	65799	12.81	0
2	66345	12.91	0
2	66899	13.01	0
2	67445	13.11	0
2	67991	13.21	0
2	68537	13.31	0
2	69083	13.41	0
2	69629	13.51	0
2	70175	13.61	0
2	70721	13.71	0
2	71267	13.81	0
2	71813	13.91	0
2	72367	14.01	0
2	72913	14.11	0
2	73459	14.21	0
2	74005	14.31	0
2	74551	14.41	0
2	75097	14.51	0
2	75643	14.61	0
2	76189	14.71	0
2	76735	14.81	0
2	77281	14.91	0
2	77835	15.01	0
2	78381	15.11	0
2	78927	15.21	0
2	79473	15.31	0
2	80019	15.41	0
2	80565	15.51	0
2	81111	15.61	0
2	81657	15.71	0
2	82203	15.81	0
2	82749	15.91	0
2	83303	16.01	0
2	83849	16.11	0
2	84395	16.21	0
2	84941	16.31	0
2	85487	16.41	0
2	86033	16.51	0
2	86579	16.61	0
2	87125	16.71	0
2	87671	16.81	0
2	88217	16.91	0
2	88771	17.01	0
2	89317	17.11	0
2	89863	17.21	0
2	90409	17.31	0
2	90955	17.41	0
2	91501	17.51	0
2	92047	17.61	0
2	92593	17.71	0
2	93139	17.81	0
2	93685	17.91	0
2	94239	18.01	0
2	94785	18.11	0
2	95331	18.21	0
2	95877	18.31	0
2	96423	18.41	0
2	96969	18.51	0
2	97515	18.61	0
2	98061	18.71	0
2	98607	18.81	0
2	99153	18.91	0
2	99707	19.01	0
2	100253	19.11	0
2	100799	19.21	0
2	101345	19.31	0
2	101891	19.41	0
2	102437	19.51	0
2	102983	19.61	0
2	103529	19.71	0
2	104075	19.81	0
2	104621	19.91	0
2	105175	20.01	0
2	105721	20.11	0
2	106267	20.21	0
2	106813	20.31	0
2	107359	20.41	0
2	107905	20.51	0
2	108451	20.61	0
2	108997	20.71	0
2	109543	20.81	0
2	110089	20.91	0
2	110643	21.01	0
2	111189	21.11	0
2	111735	21.21	0
2	112281	21.31	0
2	112827	21.41	0
2	113373	21.51	0
2	113919	21.61	0
2	114465	21.71	0
2	115011	21.81	0
2	115557	21.91	0
2	116111	22.01	0
2	116657	22.11	0
2	117203	22.21	0
2	117749	22.31	0
2	118295	22.41	0
2	118841	22.51	0
2	119387	22.61	0
2	119933	22.71	0
2	120479	22.81	0
2	121025	22.91	0
2	121579	23.01	0
2	122125	23.11	0
2	122671	23.21	0
2	123217	23.31	0
2	123763	23.41	0
2	124309	23.51	0
2	124855	23.61	0
2	125401	23.71	0
2	125947	23.81	0
2	126493	23.91	0
2	127047	24.01	0
2	127593	24.11	0
2	128139	24.21	0
2	128685	24.31	0
2	129231	24.41	0
2	129777	24.51	0
2	130323	24.61	0
2	130869	24.71	0
2	131415	24.81	0
2	131961	24.91	0
2	132515	25.01	0
2	133061	25.11	0
2	133607	25.21	0
2	134153	25.31	0
2	134699	25.41	0
2	135245	25.51	0
2	135791	25.61	0
2	136337	25.71	0
2	136883	25.81	0
2	137429	25.91	0
2	137983	26.01	0
2	138529	26.11	0
2	139075	26.21	0
2	139621	26.31	0
2	140167	26.41	0
2	140713	26.51	0
2	141259	26.61	0
2	141805	26.71	0
2	142351	26.81	0
2	142897	26.91	0
2	143451	27.01	0
2	143997	27.11	0
2	144543	27.21	0
2	145089	27.31	0
2	145635	27.41	0
2	146181	27.51	0
2	146727	27.61	0
2	147273	27.71	0
2	147819	27.81	0
2	148365	27.91	0
2	148919	28.01	0
2	149465	28.11	0
2	150011	28.21	0
2	150557	28.31	0
2	151103	28.41	0
2	151649	28.51	0
2	152195	28.61	0
2	152741	28.71	0
2	153287	28.81	0
2	153833	28.91	0
2	154387	29.01	0
2	154933	29.11	0
2	155479	29.21	0
2	156025	29.31	0
2	156571	29.41	0
2	157117	29.51	0
2	157663	29.61	0
2	158209	29.71	0
2	158755	29.81	0
2	159301	29.91	0
2	159855	30.01	0
2	160401	30.11	0
2	160947	30.21	0
2	161493	30.31	0
2	162039	30.41	0
2	162585	30.51	0
2	163131	30.61	0
2	163677	30.71	0
2	164223	30.81	0
2	164769	30.91	0
2	165323	31.01	0
2	165869	31.11	0
2	166415	31.21	0
2	166961	31.31	0
2	167507	31.41	0
2	168053	31.51	0
2	168599	31.61	0
2	169145	31.71	0
2	169691	31.81	0
2	170237	31.91	0
2	170791	32.01	0
2	171337	32.11	0
2	171883	32.21	0
2	172429	32.31	0
2	172975	32.41	0
2	173521	32.51	0
2	174067	32.61	0
2	174613	32.71	0
2	175159	32.81	0
2	175705	32.91	0
2	176259	33.01	0
2	176805	33.11	0
2	177351	33.21	0
2	177897	33.31	0
2	178443	33.41	0
2	178989	33.51	0
2	179535	33.61	0
2	180081	33.71	0
2	180627	33.81	0
2	181173	33.91	0
2	181727	34.01	0
2	182273	34.11	0
2	182819	34.21	0
2	183365	34.31	0
2	183911	34.41	0
2	184457	34.51	0
2	185003	34.61	0
2	185549	34.71	0
2	186095	34.81	0
2	186641	34.91	0
2	187195	35.01	0
2	187741	35.11	0
2	188287	35.21	0
2	188833	35.31	0
2	189379	35.41	0
2	189925	35.51	0
2	190471	35.61	0
2	191017	35.71	0
2	191563	35.81	0
2	192109	35.91	0
2	192663	36.01	0
2	193209	36.11	0
2	193755	36.21	0
2	194301	36.31	0
2	194847	36.41	0
2	195393	36.51	0
2	195939	36.61	0
2	196485	36.71	0
2	197031	36.81	0
2	197577	36.91	0
2	198131	37.01	0
2	198677	37.11	0
2	199223	37.21	0
2	199769	37.31	0
2	200315	37.41	0
2	200861	37.51	0
2	201407	37.61	0
2	201953	37.71	0
2	202499	37.81	0
2	203045	37.91	0
2	203599	38.01	0
2	204145	38.11	0
2	204691	38.21	0
2	205237	38.31	0
2	205783	38.41	0
2	206329	38.51	0
2	206875	38.61	0
2	207421	38.71	0
2	207967	38.81	0
2	208513	38.91	0
2	209067	39.01	0
2	209613	39.11	0
2	210159	39.21	0
2	210705	39.31	0
2	211251	39.41	0
2	211797	39.51	0
2	212343	39.61	0
2	212889	39.71	0
2	213435	39.81	0
2	213981	39.91	0
2	214535	40.01	0
2	215081	40.11	0
2	215627	40.21	0
2	216173	40.31	0
2	216719	40.41	0
2	217265	40.51	0
2	217811	40.61	0
2	218357	40.71	0
2	218903	40.81	0
2	219449	40.91	0
2	220003	41.01	0
2	220549	41.11	0
2	221095	41.21	0
2	221641	41.31	0
2	222187	41.41	0
2	222733	41.51	0
2	223279	41.61	0
2	223825	41.71	0
2	224371	41.81	0
2	224917	41.91	0
2	225471	42.01	0
2	226017	42.11	0
2	226563	42.21	0
2	227109	42.31	0
2	227655	42.41	0
2	228201	42.51	0
2	228747	42.61	0
2	229293	42.71	0
2	229839	42.81	0
2	230385	42.91	0
2	230939	43.01	0
2	231485	43.11	0
2	232031	43.21	0
2	232577	43.31	0
2	233123	43.41	0
2	233669	43.51	0
2	234215	43.61	0
2	234761	43.71	0
2	235307	43.81	0
2	235853	43.91	0
2	236407	44.01	0
2	236953	44.11	0
2	237499	44.21	0
2	238045	44.31	0
2	238591	44.41	0
2	239137	44.51	0
2	239683	44.61	0
2	240229	44.71	0
2	240775	44.81	0
2	241321	44.91	0
2	241875	45.01	0
2	242421	45.11	0
2	242967	45.21	0
2	243513	45.31	0
2	244059	45.41	0
2	244605	45.51	0
2	245151	45.61	0
2	245697	45.71	0
2	246243	45.81	0
2	246789	45.91	0
2	247343	46.01	0
2	247889	46.11	0
2	248435	46.21	0
2	248981	46.31	0
2	249527	46.41	0
2	250073	46.51	0
2	250619	46.61	0
2	251165	46.71	0
2	251711	46.81	0
2	252257	46.91	0
2	252811	47.01	0
2	253357	47.11	0
2	253903	47.21	0
2	254449	47.31	0
2	254995	47.41	0
2	255541	47.51	0
2	256087	47.61	0
2	256633	47.71	0
2	257179	47.81	0
2	257725	47.91	0
2	258279	48.01	0
2	258825	48.11	0
2	259371	48.21	0
2	259917	48.31	0
2	260463	48.41	0
2	261009	48.51	0
2	261555	48.61	0
2	262101	48.71	0
2	262647	48.81	0
2	263193	48.91	0
2	263747	49.01	0
2	264293	49.11	0
2	264839	49.21	0
2	265385	49.31	0
2	265931	49.41	0
2	266477	49.51	0
2	267023	49.61	0
2	267569	49.71	0
2	268115	49.81	0
2	268661	49.91	0
2	269215	50.01	0
2	269761	50.11	0
2	270307	50.21	0
2	270853	50.31	0
2	271399	50.41	0
2	271945	50.51	0
2	272491	50.61	0
2	273037	50.71	0
2	273583	50.81	0
2	274129	50.91	0
2	274683	51.01	0
2	275229	51.11	0
2	275775	51.21	0
2	276321	51.31	0
2	276867	51.41	0
2	277413	51.51	0
2	277959	51.61	0
2	278505	51.71	0
2	279051	51.81	0
2	279597	51.91	0
2	280151	52.01	0
2	280697	52.11	0
2	281243	52.21	0
2	281789	52.31	0
2	282335	52.41	0
2	282881	52.51	0
2	283427	52.61	0
2	283973	52.71	0
2	284519	52.81	0
2	285065	52.91	0
2	285619	53.01	0
2	286165	53.11	0
2	286711	53.21	0
2	287257	53.31	0
2	287803	53.41	0
2	288349	53.51	0
2	288895	53.61	0
2	289441	53.71	0
2	289987	53.81	0
2	290533	53.91	0
2	291087	54.01	0
2	291633	54.11	0
2	292179	54.21	0
2	292725	54.31	0
2	293271	54.41	0
2	293817	54.51	0
2	294363	54.61	0
2	294909	54.71	0
2	295455	54.81	0
2	296001	54.91	0
2	296555	55.01	0
2	297101	55.11	0
2	297647	55.21	0
2	298193	55.31	0
2	298739	55.41	0
2	299285	55.51	0
2	299831	55.61	0
2	300377	55.71	0
2	300923	55.81	0
2	301469	55.91	0
2	302023	56.01	0
2	302569	56.11	0
2	303115	56.21	0
2	303661	56.31	0
2	304207	56.41	0
2	304753	56.51	0
2	305299	56.61	0
2	305845	56.71	0
2	306391	56.81	0
2	306937	56.91	0
2	307491	57.01	0
2	308037	57.11	0
2	308583	57.21	0
2	309129	57.31	0
2	309675	57.41	0
2	310221	57.51	0
2	310767	57.61	0
2	311313	57.71	0
2	311859	57.81	0
2	312405	57.91	0
2	312959	58.01	0
2	313505	58.11	0
2	314051	58.21	0
2	314597	58.31	0
2	315143	58.41	0
2	315689	58.51	0
2	316235	58.61	0
2	316781	58.71	0
2	317327	58.81	0
2	317873	58.91	0
2	318427	59.01	0
2	318973	59.11	0
2	319519	59.21	0
2	320065	59.31	0
2	320611	59.41	0
2	321157	59.51	0
2	321703	59.61	0
2	322249	59.71	0
2	322795	59.81	0
2	323341	59.91	0
2	323895	60.01	0
2	324441	60.11	0
2	324987	60.21	0
2	325533	60.31	0
2	326079	60.41	0
2	326625	60.51	0
2	327171	60.61	0
2	327717	60.71	0
2	328263	60.81	0
2	328809	60.91	0
2	329363	61.01	0
2	329909	61.11	0
2	330455	61.21	0
2	331001	61.31	0
2	331547	61.41	0
2	332093	61.51	0
2	332639	61.61	0
2	333185	61.71	0
2	333731	61.81	0
2	334277	61.91	0
2	334831	62.01	0
2	335377	62.11	0
2	335923	62.21	0
2	336469	62.31	0
2	337015	62.41	0
2	337561	62.51	0
2	338107	62.61	0
2	338653	62.71	0
2	339199	62.81	0
2	339745	62.91	0
2	340299	63.01	0
2	340845	63.11	0
2	341391	63.21	0
2	341937	63.31	0
2	342483	63.41	0
2	343029	63.51	0
2	343575	63.61	0
2	344121	63.71	0
2	344667	63.81	0
2	345213	63.91	0
2	345767	64.01	0
2	346313	64.11	0
2	346859	64.21	0
2	347405	64.31	0
2	347951	64.41	0
2	348497	64.51	0
2	349043	64.61	0
2	349589	64.71	0
2	350135	64.81	0
2	350681	64.91	0
2	351235	65.01	0
2	351781	65.11	0
2	352327	65.21	0
2	352873	65.31	0
2	353419	65.41	0
2	353965	65.51	0
2	354511	65.61	0
2	355057	65.71	0
2	355603	65.81	0
2	356149	65.91	0
2	356703	66.01	0
2	357249	66.11	0
2	357795	66.21	0
2	358341	66.31	0
2	358887	66.41	0
2	359433	66.51	0
2	359979	66.61	0
2	360525	66.71	0
2	361071	66.81	0
2	361617	66.91	0
2	362171	67.01	0
2	362717	67.11	0
2	363263	67.21	0
2	363809	67.31	0
2	364355	67.41	0
2	364901	67.51	0
2	365447	67.61	0
2	365993	67.71	0
2	366539	67.81	0
2	367085	67.91	0
2	367639	68.01	0
2	368185	68.11	0
2	368731	68.21	0
2	369277	68.31	0
2	369823	68.41	0
2	370369	68.51	0
2	370915	68.61	0
2	371461	68.71	0
2	372007	68.81	0
2	372553	68.91	0
2	373107	69.01	0
2	373653	69.11	0
2	374199	69.21	0
2	374745	69.31	0
2	375291	69.41	0
2	375837	69.51	0
2	376383	69.61	0
2	376929	69.71	0
2	377475	69.81	0
2	378021	69.91	0
2	378575	70.01	0
2	379121	70.11	0
2	379667	70.21	0
2	380213	70.31	0
2	380759	70.41	0
2	381305	70.51	0
2	381851	70.61	0
2	382397	70.71	0
2	382943	70.81	0
2	383489	70.91	0
2	384043	71.01	0
2	384589	71.11	0
2	385135	71.21	0
2	385681	71.31	0
2	386227	71.41	0
2	386773	71.51	0
2	387319	71.61	0
2	387865	71.71	0
2	388411	71.81	0
2	388957	71.91	0
2	389511	72.01	0
2	390057	72.11	0
2	390603	72.21	0
2	391149	72.31	0
2	391695	72.41	0
2	392241	72.51	0
2	392787	72.61	0
2	393333	72.71	0
2	393879	72.81	0
2	394425	72.91	0
2	394979	73.01	0
2	395525	73.11	0
2	396071	73.21	0
2	396617	73.31	0
2	397163	73.41	0
2	397709	73.51	0
2	398255	73.61	0
2	398801	73.71	0
2	399347	73.81	0
2	399893	73.91	0
2	400447	74.01	0
2	400993	74.11	0
2	401539	74.21	0
2	402085	74.31	0
2	402631	74.41	0
2	403177	74.51	0
2	403723	74.61	0
2	404269	74.71	0
2	404815	74.81	0
2	405361	74.91	0
2	405915	75.01	0
2	406461	75.11	0
2	407007	75.21	0
2	407553	75.31	0
2	408099	75.41	0
2	408645	75.51	0
2	409191	75.61	0
2	409737	75.71	0
2	410283	75.81	0
2	410829	75.91	0
2	411383	76.01	0
2	411929	76.11	0
2	412475	76.21	0
2	413021	76.31	0
2	413567	76.41	0
2	414113	76.51	0
2	414659	76.61	0
2	415205	76.71	0
2	415751	76.81	0
2	416297	76.91	0
2	416851	77.01	0
2	417397	77.11	0
2	417943	77.21	0
2	418489	77.31	0
2	419035	77.41	0
2	419581	77.51	0
2	420127	77.61	0
2	420673	77.71	0
2	421219	77.81	0
2	421765	77.91	0
2	422319	78.01	0
2	422865	78.11	0
2	423411	78.21	0
2	423957	78.31	0
2	424503	78.41	0
2	425049	78.51	0
2	425595	78.61	0
2	426141	78.71	0
2	426687	78.81	0
2	427233	78.91	0
2	427787	79.01	0
2	428333	79.11	0
2	428879	79.21	0
2	429425	79.31	0
2	429971	79.41	0
2	430517	79.51	0
2	431063	79.61	0
2	431609	79.71	0
2	432155	79.81	0
2	432701	79.91	0
2	433255	80.01	0
2	433801	80.11	0
2	434347	80.21	0
2	434893	80.31	0
2	435439	80.41	0
2	435985	80.51	0
2	436531	80.61	0
2	437077	80.71	0
2	437623	80.81	0
2	438169	80.91	0
2	438723	81.01	0
2	439269	81.11	0
2	439815	81.21	0
2	440361	81.31	0
2	440907	81.41	0
2	441453	81.51	0
2	441999	81.61	0
2	442545	81.71	0
2	443091	81.81	0
2	443637	81.91	0
2	444191	82.01	0
2	444737	82.11	0
2	445283	82.21	0
2	445829	82.31	0
2	446375	82.41	0
2	446921	82.51	0
2	447467	82.61	0
2	448013	82.71	0
2	448559	82.81	0
2	449105	82.91	0
2	449659	83.01	0
2	450205	83.11	0
2	450751	83.21	0
2	451297	83.31	0
2	451843	83.41	0
2	452389	83.51	0
2	452935	83.61	0
2	453481	83.71	0
2	454027	83.81	0
2	454573	83.91	0
2	455127	84.01	0
2	455673	84.11	0
2	456219	84.21	0
2	456765	84.31	0
2	457311	84.41	0
2	457857	84.51	0
2	458403	84.61	0
2	458949	84.71	0
2	459495	84.81	0
2	460041	84.91	0
2	460595	85.01	0
2	461141	85.11	0
2	461687	85.21	0
2	462233	85.31	0
2	462779	85.41	0
2	463325	85.51	0
2	463871	85.61	0
2	464417	85.71	0
2	464963	85.81	0
2	465509	85.91	0
2	466063	86.01	0
2	466609	86.11	0
2	467155	86.21	0
2	467701	86.31	0
2	468247	86.41	0
2	468793	86.51	0
2	469339	86.61	0
2	469885	86.71	0
2	470431	86.81	0
2	470977	86.91	0
2	471531	87.01	0
2	472077	87.11	0
2	472623	87.21	0
2	473169	87.31	0
2	473715	87.41	0
2	474261	87.51	0
2	474807	87.61	0
2	475353	87.71	0
2	475899	87.81	0
2	476445	87.91	0
2	476999	88.01	0
2	477545	88.11	0
2	478091	88.21	0
2	478637	88.31	0
2	479183	88.41	0
2	479729	88.51	0
2	480275	88.61	0
2	480821	88.71	0
2	481367	88.81	0
2	481913	88.91	0
2	482467	89.01	0
2	483013	89.11	0
2	483559	89.21	0
2	484105	89.31	0
2	484651	89.41	0
2	485197	89.51	0
2	485743	89.61	0
2	486289	89.71	0
2	486835	89.81	0
2	487381	89.91	0
2	487935	90.01	0
2	488481	90.11	0
2	489027	90.21	0
2	489573	90.31	0
2	490119	90.41	0
2	490665	90.51	0
2	491211	90.61	0
2	491757	90.71	0
2	492303	90.81	0
2	492849	90.91	0
2	493403	91.01	0
2	493949	91.11	0
2	494495	91.21	0
2	495041	91.31	0
2	495587	91.41	0
2	496133	91.51	0
2	496679	91.61	0
2	497225	91.71	0
2	497771	91.81	0
2	498317	91.91	0
2	498871	92.01	0
2	499417	92.11	0
2	499963	92.21	0
2	500509	92.31	0
2	501055	92.41	0
2	501601	92.51	0
2	502147	92.61	0
2	502693	92.71	0
2	503239	92.81	0
2	503785	92.91	0
2	504339	93.01	0
2	504885	93.11	0
2	505431	93.21	0
2	505977	93.31	0
2	506523	93.41	0
2	507069	93.51	0
2	507615	93.61	0
2	508161	93.71	0
2	508707	93.81	0
2	509253	93.91	0
2	509807	94.01	0
2	510353	94.11	0
2	510899	94.21	0
2	511445	94.31	0
2	511991	94.41	0
2	512537	94.51	0
2	513083	94.61	0
2	513629	94.71	0
2	514175	94.81	0
2	514721	94.91	0
2	515275	95.01	0
2	515821	95.11	0
2	516367	95.21	0
2	516913	95.31	0
2	517459	95.41	0
2	518005	95.51	0
2	518551	95.61	0
2	519097	95.71	0
2	519643	95.81	0
2	520189	95.91	0
2	520743	96.01	0
2	521289	96.11	0
2	521835	96.21	0
2	522381	96.31	0
2	522927	96.41	0
2	523473	96.51	0
2	524019	96.61	0
2	524565	96.71	0
2	525111	96.81	0
2	525657	96.91	0
2	526211	97.01	0
2	526757	97.11	0
2	527303	97.21	0
2	527849	97.31	0
2	528395	97.41	0
2	528941	97.51	0
2	529487	97.61	0
2	530033	97.71	0
2	530579	97.81	0
2	531125	97.91	0
2	531679	98.01	0
2	532225	98.11	0
2	532771	98.21	0
2	533317	98.31	0
2	533863	98.41	0
2	534409	98.51	0
2	534955	98.61	0
2	535501	98.71	0
2	536047	98.81	0
2	536593	98.91	0
2	537147	99.01	0
2	537693	99.11	0
2	538239	99.21	0
2	538785	99.31	0
2	539331	99.41	0
2	539877	99.51	0
2	540423	99.61	0
2	540969	99.71	0
2	541515	99.81	0
2	542061	99.91	0
3	113	1.11	0.000179096
3	659	1.21	0.000340852
3	1205	1.31	0.000467435
3	1751	1.41	0.000562893
3	2297	1.51	0.000631106
3	2843	1.61	0.000675745
3	3389	1.71	0.000700245
3	3935	1.81	0.000707784
3	4481	1.91	0.000701273
3	5035	2.01	0.000683354
3	5581	2.11	0.000656398
3	6127	2.21	0.000622512
3	6673	2.31	0.000583548
3	7219	2.41	0.000541117
3	7765	2.51	0.000496604
3	8311	2.61	0.000451181
3	8857	2.71	0.000405825
3	9403	2.81	0.00036134
3	9949	2.91	0.000318365
3	10503	3.01	0.0002774
3	11049	3.11	0.00023882
3	11595	3.21	0.000202887
3	12141	3.31	0.00016977
3	12687	3.41	0.000139558
3	13233	3.51	0.000112271
3	13779	3.61	8.78717e-05
3	14325	3.71	6.628e-05
3	14871	3.81	4.73785e-05
3	15417	3.91	3.1023e-05
3	15971	4.01	1.70493e-05
3	16517	4.11	5.28023e-06
3	17063	4.21	-4.46922e-06
3	17609	4.31	-1.2387e-05
3	18155	4.41	-1.86602e-05
3	18701	4.51	-2.34717e-05
3	19247	4.61	-2.69978e-05
3	19793	4.71	-2.94062e-05
3	20339	4.81	-3.08545e-05
3	20885	4.91	-3.14892e-05
3	21439	5.01	-3.14451e-05
3	21985	5.11	-3.0845e-05
3	22531	5.21	-2.97994e-05
3	23077	5.31	-2.84072e-05
3	23623	5.41	-2.67556e-05
3	24169	5.51	-2.49208e-05
3	24715	5.61	-2.29687e-05
3	25261	5.71	-2.09553e-05
3	25807	5.81	-1.89277e-05
3	26353	5.91	-1.6925e-05
3	26907	6.01	-1.49784e-05
3	27453	6.11	-1.31129e-05
3	27999	6.21	-1.13474e-05
3	28545	6.31	-9.69553e-06
3	29091	6.41	-8.16651e-06
3	29637	6.51	-6.76571e-06
3	30183	6.61	-5.49522e-06
3	30729	6.71	-4.35441e-06
3	31275	6.81	-3.34045e-06
3	31821	6.91	-2.44874e-06
3	32375	7.01	-1.6733e-06
3	32921	7.11	-1.00716e-06
3	33467	7.21	-4.42628e-07
3	34013	7.31	2.84224e-08
3	34559	7.41	4.14339e-07
3	35105	7.51	7.23492e-07
3	35651	7.61	9.6413e-07
3	36197	7.71	1.14424e-06
3	36743	7.81	1.27148e-06
3	37289	7.91	1.35305e-06
3	37843	8.01	1.3957e-06
3	38389	8.11	1.40565e-06
3	38935	8.21	1.3886e-06
3	39481	8.31	1.34971e-06
3	40027	8.41	1.2936e-06
3	40573	8.51	1.22437e-06
3	41119	8.61	1.14561e-06
3	41665	8.71	1.06046e-06
3	42211	8.81	9.71582e-07
3	42757	8.91	8.81246e-07
3	43311	9.01	7.91334e-07
3	43857	9.11	7.03381e-07
3	44403	9.21	6.18613e-07
3	44949	9.31	5.37979e-07
3	45495	9.41	4.62183e-07
3	46041	9.51	3.91714e-07
3	46587	9.61	3.26878e-07
3	47133	9.71	2.67827e-07
3	47679	9.81	2.14581e-07
3	48225	9.91	1.67052e-07
3	50495	10.01	1.25066e-07
3	51041	10.11	8.83794e-08
3	51587	10.21	5.66978e-08
3	52133	10.31	2.96922e-08
3	52679	10.41	7.00453e-09
3	53225	10.51	-1.17325e-08
3	53771	10.61	-2.68933e-08
3	54317	10.71	-3.88482e-08
3	54863	10.81	-4.79581e-08
3	55409	10.91	-5.45704e-08
3	55963	11.01	-5.90177e-08
3	56509	11.11	-6.16069e-08
3	57055	11.21	-6.26265e-08
3	57601	11.31	-6.23395e-08
3	58147	11.41	-6.09859e-08
3	58693	11.51	-5.87811e-08
3	59239	11.61	-5.59183e-08
3	59785	11.71	-5.25674e-08
3	60331	11.81	-4.88761e-08
3	60877	11.91	-4.4971e-08
3	61431	12.01	-4.09599e-08
3	61977	12.11	-3.69354e-08
3	62523	12.21	-3.29713e-08
3	63069	12.31	-2.9128e-08
3	63615	12.41	-2.54531e-08
3	64161	12.51	-2.19821e-08
3	64707	12.61	-1.87399e-08
3	65253	12.71	-1.57428e-08
3	65799	12.81	-1.30029e-08
3	66345	12.91	-1.05217e-08
3	66899	13.01	-8.29772e-09
3	67445	13.11	-6.32454e-09
3	67991	13.21	-4.59224e-09
3	68537	13.31	-3.08802e-09
3	69083	13.41	-1.79838e-09
3	69629	13.51	-7.08411e-10
3	70175	13.61	1.98241e-10
3	70721	13.71	9.37916e-10
3	71267	13.81	1.52767e-09
3	71813	13.91	1.98384e-09
3	72367	14.01	2.32276e-09
3	72913	14.11	2.55937e-09
3	73459	14.21	2.70788e-09
3	74005	14.31	2.78249e-09
3	74551	14.41	2.79243e-09
3	75097	14.51	2.7498e-09
3	75643	14.61	2.66525e-09
3	76189	14.71	2.54872e-09
3	76735	14.81	2.40803e-09
3	77281	14.91	2.24887e-09
3	77835	15.01	2.07763e-09
3	78381	15.11	1.89999e-09
3	78927	15.21	1.72236e-09
3	79473	15.31	1.54472e-09
3	80019	15.41	1.37064e-09
3	80565	15.51	1.20295e-09
3	81111	15.61	1.04379e-09
3	81657	15.71	8.94573e-10
3	82203	15.81	7.56017e-10
3	82749	15.91	6.29541e-10
3	83303	16.01	5.13012e-10
3	83849	16.11	4.09273e-10
3	84395	16.21	3.16902e-10
3	84941	16.31	2.3519e-10
3	85487	16.41	1.63425e-10
3	86033	16.51	1.02318e-10
3	86579	16.61	4.9738e-11
3	87125	16.71	5.68434e-12
3	87671	16.81	-3.05533e-11
3	88217	16.91	-5.8975e-11
3	88771	17.01	-8.10019e-11
3	89317	17.11	-9.80549e-11
3	89863	17.21	-1.11555e-10
3	90409	17.31	-1.18661e-10
3	90955	17.41	-1.23634e-10
3	91501	17.51	-1.23634e-10
3	92047	17.61	-1.23634e-10
3	92593	17.71	-1.21503e-10
3	93139	17.81	-1.14397e-10
3	93685	17.91	-1.07292e-10
3	94239	18.01	-1.00187e-10
3	94785	18.11	-9.30811e-11
3	95331	18.21	-8.59757e-11
3	95877	18.31	-7.88702e-11
3	96423	18.41	-7.17648e-11
3	96969	18.51	-6.46594e-11
3	97515	18.61	-5.7554e-11
3	98061	18.71	-5.04485e-11
3	98607	18.81	-4.33431e-11
3	99153	18.91	-3.62377e-11
3	99707	19.01	-2.91323e-11
3	100253	19.11	-2.20268e-11
3	100799	19.21	-1.7053e-11
3	101345	19.31	-1.49214e-11
3	101891	19.41	-1.35003e-11
3	102437	19.51	-1.27898e-11
3	102983	19.61	-1.13687e-11
3	103529	19.71	-9.9476e-12
3	104075	19.81	-9.23706e-12
3	104621	19.91	-8.52651e-12
3	105175	20.01	-7.81597e-12
3	105721	20.11	-7.10543e-12
3	106267	20.21	-6.39488e-12
3	106813	20.31	-5.68434e-12
3	107359	20.41	-4.9738e-12
3	107905	20.51	-4.26326e-12
3	108451	20.61	-4.26326e-12
3	108997	20.71	-3.55271e-12
3	109543	20.81	-3.55271e-12
3	110089	20.91	-2.84217e-12
3	110643	21.01	-2.84217e-12
3	111189	21.11	-2.84217e-12
3	111735	21.21	-2.13163e-12
3	112281	21.31	-2.13163e-12
3	112827	21.41	-2.13163e-12
3	113373	21.51	-1.42109e-12
3	113919	21.61	-1.42109e-12
3	114465	21.71	-1.42109e-12
3	115011	21.81	-1.42109e-12
3	115557	21.91	-1.42109e-12
3	116111	22.01	-7.10543e-13
3	116657	22.11	-7.10543e-13
3	117203	22.21	-7.10543e-13
3	117749	22.31	-7.10543e-13
3	118295	22.41	-7.10543e-13
3	118841	22.51	-7.10543e-13
3	119387	22.61	-7.10543e-13
3	119933	22.71	-7.10543e-13
3	120479	22.81	-7.10543e-13
3	121025	22.91	-7.10543e-13
3	121579	23.01	0
3	122125	23.11	0
3	122671	23.21	0
3	123217	23.31	0
3	123763	23.41	0
3	124309	23.51	0
3	124855	23.61	0
3	125401	23.71	0
3	125947	23.81	0
3	126493	23.91	0
3	127047	24.01	0
3	127593	24.11	0
3	128139	24.21	0
3	128685	24.31	0
3	129231	24.41	0
3	129777	24.51	0
3	130323	24.61	0
3	130869	24.71	0
3	131415	24.81	0
3	131961	24.91	0
3	132515	25.01	0
3	133061	25.11	0
3	133607	25.21	0
3	134153	25.31	0
3	134699	25.41	0
3	135245	25.51	0
3	135791	25.61	0
3	136337	25.71	0
3	136883	25.81	0
3	137429	25.91	0
3	137983	26.01	0
3	138529	26.11	0
3	139075	26.21	0
3	139621	26.31	0
3	140167	26.41	0
3	140713	26.51	0
3	141259	26.61	0
3	141805	26.71	0
3	142351	26.81	0
3	142897	26.91	0
3	143451	27.01	0
3	143997	27.11	0
3	144543	27.21	0
3	145089	27.31	0
3	145635	27.41	0
3	146181	27.51	0
3	146727	27.61	0
3	147273	27.71	0
3	147819	27.81	0
3	148365	27.91	0
3	148919	28.01	0
3	149465	28.11	0
3	150011	28.21	0
3	150557	28.31	0
3	151103	28.41	0
3	151649	28.51	0
3	152195	28.61	0
3	152741	28.71	0
3	153287	28.81	0
3	153833	28.91	0
3	154387	29.01	0
3	154933	29.11	0
3	155479	29.21	0
3	156025	29.31	0
3	156571	29.41	0
3	157117	29.51	0
3	157663	29.61	0
3	158209	29.71	0
3	158755	29.81	0
3	159301	29.91	0
3	159855	30.01	0
3	160401	30.11	0
3	160947	30.21	0
3	161493	30.31	0
3	162039	30.41	0
3	162585	30.51	0
3	163131	30.61	0
3	163677	30.71	0
3	164223	30.81	0
3	164769	30.91	0
3	165323	31.01	0
3	165869	31.11	0
3	166415	31.21	0
3	166961	31.31	0
3	167507	31.41	0
3	168053	31.51	0
3	168599	31.61	0
3	169145	31.71	0
3	169691	31.81	0
3	170237	31.91	0
3	170791	32.01	0
3	171337	32.11	0
3	171883	32.21	0
3	172429	32.31	0
3	172975	32.41	0
3	173521	32.51	0
3	174067	32.61	0
3	174613	32.71	0
3	175159	32.81	0
3	175705	32.91	0
3	176259	33.01	0
3	176805	33.11	0
3	177351	33.21	0
3	177897	33.31	0
3	178443	33.41	0
3	178989	33.51	0
3	179535	33.61	0
3	180081	33.71	0
3	180627	33.81	0
3	181173	33.91	0
3	181727	34.01	0
3	182273	34.11	0
3	182819	34.21	0
3	183365	34.31	0
3	183911	34.41	0
3	184457	34.51	0
3	185003	34.61	0
3	185549	34.71	0
3	186095	34.81	0
3	186641	34.91	0
3	187195	35.01	0
3	187741	35.11	0
3	188287	35.21	0
3	188833	35.31	0
3	189379	35.41	0
3	189925	35.51	0
3	190471	35.61	0
3	191017	35.71	0
3	191563	35.81	0
3	192109	35.91	0
3	192663	36.01	0
3	193209	36.11	0
3	193755	36.21	0
3	194301	36.31	0
3	194847	36.41	0
3	195393	36.51	0
3	195939	36.61	0
3	196485	36.71	0
3	197031	36.81	0
3	197577	36.91	0
3	198131	37.01	0
3	198677	37.11	0
3	199223	37.21	0
3	199769	37.31	0
3	200315	37.41	0
3	200861	37.51	0
3	201407	37.61	0
3	201953	37.71	0
3	202499	37.81	0
3	203045	37.91	0
3	203599	38.01	0
3	204145	38.11	0
3	204691	38.21	0
3	205237	38.31	0
3	205783	38.41	0
3	206329	38.51	0
3	206875	38.61	0
3	207421	38.71	0
3	207967	38.81	0
3	208513	38.91	0
3	209067	39.01	0
3	209613	39.11	0
3	210159	39.21	0
3	210705	39.31	0
3	211251	39.41	0
3	211797	39.51	0
3	212343	39.61	0
3	212889	39.71	0
3	213435	39.81	0
3	213981	39.91	0
3	214535	40.01	0
3	215081	40.11	0
3	215627	40.21	0
3	216173	40.31	0
3	216719	40.41	0
3	217265	40.51	0
3	217811	40.61	0
3	218357	40.71	0
3	218903	40.81	0
3	219449	40.91	0
3	220003	41.01	0
3	220549	41.11	0
3	221095	41.21	0
3	221641	41.31	0
3	222187	41.41	0
3	222733	41.51	0
3	223279	41.61	0
3	223825	41.71	0
3	224371	41.81	0
3	224917	41.91	0
3	225471	42.01	0
3	226017	42.11	0
3	226563	42.21	0
3	227109	42.31	0
3	227655	42.41	0
3	228201	42.51	0
3	228747	42.61	0
3	229293	42.71	0
3	229839	42.81	0
3	230385	42.91	0
3	230939	43.01	0
3	231485	43.11	0
3	232031	43.21	0
3	232577	43.31	0
3	233123	43.41	0
3	233669	43.51	0
3	234215	43.61	0
3	234761	43.71	0
3	235307	43.81	0
3	235853	43.91	0
3	236407	44.01	0
3	236953	44.11	0
3	237499	44.21	0
3	238045	44.31	0
3	238591	44.41	0
3	239137	44.51	0
3	239683	44.61	0
3	240229	44.71	0
3	240775	44.81	0
3	241321	44.91	0
3	241875	45.01	0
3	242421	45.11	0
3	242967	45.21	0
3	243513	45.31	0
3	244059	45.41	0
3	244605	45.51	0
3	245151	45.61	0
3	245697	45.71	0
3	246243	45.81	0
3	246789	45.91	0
3	247343	46.01	0
3	247889	46.11	0
3	248435	46.21	0
3	248981	46.31	0
3	249527	46.41	0
3	250073	46.51	0
3	250619	46.61	0
3	251165	46.71	0
3	251711	46.81	0
3	252257	46.91	0
3	252811	47.01	0
3	253357	47.11	0
3	253903	47.21	0
3	254449	47.31	0
3	254995	47.41	0
3	255541	47.51	0
3	256087	47.61	0
3	256633	47.71	0
3	257179	47.81	0
3	257725	47.91	0
3	258279	48.01	0
3	258825	48.11	0
3	259371	48.21	0
3	259917	48.31	0
3	260463	48.41	0
3	261009	48.51	0
3	261555	48.61	0
3	262101	48.71	0
3	262647	48.81	0
3	263193	48.91	0
3	263747	49.01	0
3	264293	49.11	0
3	264839	49.21	0
3	265385	49.31	0
3	265931	49.41	0
3	266477	49.51	0
3	267023	49.61	0
3	267569	49.71	0
3	268115	49.81	0
3	268661	49.91	0
3	269215	50.01	0
3	269761	50.11	0
3	270307	50.21	0
3	270853	50.31	0
3	271399	50.41	0
3	271945	50.51	0
3	272491	50.61	0
3	273037	50.71	0
3	273583	50.81	0
3	274129	50.91	0
3	274683	51.01	0
3	275229	51.11	0
3	275775	51.21	0
3	276321	51.31	0
3	276867	51.41	0
3	277413	51.51	0
3	277959	51.61	0
3	278505	51.71	0
3	279051	51.81	0
3	279597	51.91	0
3	280151	52.01	0
3	280697	52.11	0
3	281243	52.21	0
3	281789	52.31	0
3	282335	52.41	0
3	282881	52.51	0
3	283427	52.61	0
3	283973	52.71	0
3	284519	52.81	0
3	285065	52.91	0
3	285619	53.01	0
3	286165	53.11	0
3	286711	53.21	0
3	287257	53.31	0
3	287803	53.41	0
3	288349	53.51	0
3	288895	53.61	0
3	289441	53.71	0
3	289987	53.81	0
3	290533	53.91	0
3	291087	54.01	0
3	291633	54.11	0
3	292179	54.21	0
3	292725	54.31	0
3	293271	54.41	0
3	293817	54.51	0
3	294363	54.61	0
3	294909	54.71	0
3	295455	54.81	0
3	296001	54.91	0
3	296555	55.01	0
3	297101	55.11	0
3	297647	55.21	0
3	298193	55.31	0
3	298739	55.41	0
3	299285	55.51	0
3	299831	55.61	0
3	300377	55.71	0
3	300923	55.81	0
3	301469	55.91	0
3	302023	56.01	0
3	302569	56.11	0
3	303115	56.21	0
3	303661	56.31	0
3	304207	56.41	0
3	304753	56.51	0
3	305299	56.61	0
3	305845	56.71	0
3	306391	56.81	0
3	306937	56.91	0
3	307491	57.01	0
3	308037	57.11	0
3	308583	57.21	0
3	309129	57.31	0
3	309675	57.41	0
3	310221	57.51	0
3	310767	57.61	0
3	311313	57.71	0
3	311859	57.81	0
3	312405	57.91	0
3	312959	58.01	0
3	313505	58.11	0
3	314051	58.21	0
3	314597	58.31	0
3	315143	58.41	0
3	315689	58.51	0
3	316235	58.61	0
3	316781	58.71	0
3	317327	58.81	0
3	317873	58.91	0
3	318427	59.01	0
3	318973	59.11	0
3	319519	59.21	0
3	320065	59.31	0
3	320611	59.41	0
3	321157	59.51	0
3	321703	59.61	0
3	322249	59.71	0
3	322795	59.81	0
3	323341	59.91	0
3	323895	60.01	0
3	324441	60.11	0
3	324987	60.21	0
3	325533	60.31	0
3	326079	60.41	0
3	326625	60.51	0
3	327171	60.61	0
3	327717	60.71	0
3	328263	60.81	0
3	328809	60.91	0
3	329363	61.01	0
3	329909	61.11	0
3	330455	61.21	0
3	331001	61.31	0
3	331547	61.41	0
3	332093	61.51	0
3	332639	61.61	0
3	333185	61.71	0
3	333731	61.81	0
3	334277	61.91	0
3	334831	62.01	0
3	335377	62.11	0
3	335923	62.21	0
3	336469	62.31	0
3	337015	62.41	0
3	337561	62.51	0
3	338107	62.61	0
3	338653	62.71	0
3	339199	62.81	0
3	339745	62.91	0
3	340299	63.01	0
3	340845	63.11	0
3	341391	63.21	0
3	341937	63.31	0
3	342483	63.41	0
3	343029	63.51	0
3	343575	63.61	0
3	344121	63.71	0
3	344667	63.81	0
3	345213	63.91	0
3	345767	64.01	0
3	346313	64.11	0
3	346859	64.21	0
3	347405	64.31	0
3	347951	64.41	0
3	348497	64.51	0
3	349043	64.61	0
3	349589	64.71	0
3	350135	64.81	0
3	350681	64.91	0
3	351235	65.01	0
3	351781	65.11	0
3	352327	65.21	0
3	352873	65.31	0
3	353419	65.41	0
3	353965	65.51	0
3	354511	65.61	0
3	355057	65.71	0
3	355603	65.81	0
3	356149	65.91	0
3	356703	66.01	0
3	357249	66.11	0
3	357795	66.21	0
3	358341	66.31	0
3	358887	66.41	0
3	359433	66.51	0
3	359979	66.61	0
3	360525	66.71	0
3	361071	66.81	0
3	361617	66.91	0
3	362171	67.01	0
3	362717	67.11	0
3	363263	67.21	0
3	363809	67.31	0
3	364355	67.41	0
3	364901	67.51	0
3	365447	67.61	0
3	365993	67.71	0
3	366539	67.81	0
3	367085	67.91	0
3	367639	68.01	0
3	368185	68.11	0
3	368731	68.21	0
3	369277	68.31	0
3	369823	68.41	0
3	370369	68.51	0
3	370915	68.61	0
3	371461	68.71	0
3	372007	68.81	0
3	372553	68.91	0
3	373107	69.01	0
3	373653	69.11	0
3	374199	69.21	0
3	374745	69.31	0
3	375291	69.41	0
3	375837	69.51	0
3	376383	69.61	0
3	376929	69.71	0
3	377475	69.81	0
3	378021	69.91	0
3	378575	70.01	0
3	379121	70.11	0
3	379667	70.21	0
3	380213	70.31	0
3	380759	70.41	0
3	381305	70.51	0
3	381851	70.61	0
3	382397	70.71	0
3	382943	70.81	0
3	383489	70.91	0
3	384043	71.01	0
3	384589	71.11	0
3	385135	71.21	0
3	385681	71.31	0
3	386227	71.41	0
3	386773	71.51	0
3	387319	71.61	0
3	387865	71.71	0
3	388411	71.81	0
3	388957	71.91	0
3	389511	72.01	0
3	390057	72.11	0
3	390603	72.21	0
3	391149	72.31	0
3	391695	72.41	0
3	392241	72.51	0
3	392787	72.61	0
3	393333	72.71	0
3	393879	72.81	0
3	394425	72.91	0
3	394979	73.01	0
3	395525	73.11	0
3	396071	73.21	0
3	396617	73.31	0
3	397163	73.41	0
3	397709	73.51	0
3	398255	73.61	0
3	398801	73.71	0
3	399347	73.81	0
3	399893	73.91	0
3	400447	74.01	0
3	400993	74.11	0
3	401539	74.21	0
3	402085	74.31	0
3	402631	74.41	0
3	403177	74.51	0
3	403723	74.61	0
3	404269	74.71	0
3	404815	74.81	0
3	405361	74.91	0
3	405915	75.01	0
3	406461	75.11	0
3	407007	75.21	0
3	407553	75.31	0
3	408099	75.41	0
3	408645	75.51	0
3	409191	75.61	0
3	409737	75.71	0
3	410283	75.81	0
3	410829	75.91	0
3	411383	76.01	0
3	411929	76.11	0
3	412475	76.21	0
3	413021	76.31	0
3	413567	76.41	0
3	414113	76.51	0
3	414659	76.61	0
3	415205	76.71	0
3	415751	76.81	0
3	416297	76.91	0
3	416851	77.01	0
3	417397	77.11	0
3	417943	77.21	0
3	418489	77.31	0
3	419035	77.41	0
3	419581	77.51	0
3	420127	77.61	0
3	420673	77.71	0
3	421219	77.81	0
3	421765	77.91	0
3	422319	78.01	0
3	422865	78.11	0
3	423411	78.21	0
3	423957	78.31	0
3	424503	78.41	0
3	425049	78.51	0
3	425595	78.61	0
3	426141	78.71	0
3	426687	78.81	0
3	427233	78.91	0
3	427787	79.01	0
3	428333	79.11	0
3	428879	79.21	0
3	429425	79.31	0
3	429971	79.41	0
3	430517	79.51	0
3	431063	79.61	0
3	431609	79.71	0
3	432155	79.81	0
3	432701	79.91	0
3	433255	80.01	0
3	433801	80.11	0
3	434347	80.21	0
3	434893	80.31	0
3	435439	80.41	0
3	435985	80.51	0
3	436531	80.61	0
3	437077	80.71	0
3	437623	80.81	0
3	438169	80.91	0
3	438723	81.01	0
3	439269	81.11	0
3	439815	81.21	0
3	440361	81.31	0
3	440907	81.41	0
3	441453	81.51	0
3	441999	81.61	0
3	442545	81.71	0
3	443091	81.81	0
3	443637	81.91	0
3	444191	82.01	0
3	444737	82.11	0
3	445283	82.21	0
3	445829	82.31	0
3	446375	82.41	0
3	446921	82.51	0
3	447467	82.61	0
3	448013	82.71	0
3	448559	82.81	0
3	449105	82.91	0
3	449659	83.01	0
3	450205	83.11	0
3	450751	83.21	0
3	451297	83.31	0
3	451843	83.41	0
3	452389	83.51	0
3	452935	83.61	0
3	453481	83.71	0
3	454027	83.81	0
3	454573	83.91	0
3	455127	84.01	0
3	455673	84.11	0
3	456219	84.21	0
3	456765	84.31	0
3	457311	84.41	0
3	457857	84.51	0
3	458403	84.61	0
3	458949	84.71	0
3	459495	84.81	0
3	460041	84.91	0
3	460595	85.01	0
3	461141	85.11	0
3	461687	85.21	0
3	462233	85.31	0
3	462779	85.41	0
3	463325	85.51	0
3	463871	85.61	0
3	464417	85.71	0
3	464963	85.81	0
3	465509	85.91	0
3	466063	86.01	0
3	466609	86.11	0
3	467155	86.21	0
3	467701	86.31	0
3	468247	86.41	0
3	468793	86.51	0
3	469339	86.61	0
3	469885	86.71	0
3	470431	86.81	0
3	470977	86.91	0
3	471531	87.01	0
3	472077	87.11	0
3	472623	87.21	0
3	473169	87.31	0
3	473715	87.41	0
3	474261	87.51	0
3	474807	87.61	0
3	475353	87.71	0
3	475899	87.81	0
3	476445	87.91	0
3	476999	88.01	0
3	477545	88.11	0
3	478091	88.21	0
3	478637	88.31	0
3	479183	88.41	0
3	479729	88.51	0
3	480275	88.61	0
3	480821	88.71	0
3	481367	88.81	0
3	481913	88.91	0
3	482467	89.01	0
3	483013	89.11	0
3	483559	89.21	0
3	484105	89.31	0
3	484651	89.41	0
3	485197	89.51	0
3	485743	89.61	0
3	486289	89.71	0
3	486835	89.81	0
3	487381	89.91	0
3	487935	90.01	0
3	488481	90.11	0
3	489027	90.21	0
3	489573	90.31	0
3	490119	90.41	0
3	490665	90.51	0
3	491211	90.61	0
3	491757	90.71	0
3	492303	90.81	0
3	492849	90.91	0
3	493403	91.01	0
3	493949	91.11	0
3	494495	91.21	0
3	495041	91.31	0
3	495587	91.41	0
3	496133	91.51	0
3	496679	91.61	0
3	497225	91.71	0
3	497771	91.81	0
3	498317	91.91	0
3	498871	92.01	0
3	499417	92.11	0
3	499963	92.21	0
3	500509	92.31	0
3	501055	92.41	0
3	501601	92.51	0
3	502147	92.61	0
3	502693	92.71	0
3	503239	92.81	0
3	503785	92.91	0
3	504339	93.01	0
3	504885	93.11	0
3	505431	93.21	0
3	505977	93.31	0
3	506523	93.41	0
3	507069	93.51	0
3	507615	93.61	0
3	508161	93.71	0
3	508707	93.81	0
3	509253	93.91	0
3	509807	94.01	0
3	510353	94.11	0
3	510899	94.21	0
3	511445	94.31	0
3	511991	94.41	0
3	512537	94.51	0
3	513083	94.61	0
3	513629	94.71	0
3	514175	94.81	0
3	514721	94.91	0
3	515275	95.01	0
3	515821	95.11	0
3	516367	95.21	0
3	516913	95.31	0
3	517459	95.41	0
3	518005	95.51	0
3	518551	95.61	0
3	519097	95.71	0
[...]
105	433072	80	0.024975006053
105	438540	81	0.024961872823
105	444008	82	0.024974736094
105	449476	83	0.024974597367
105	454944	84	0.024961457273
105	460412	85	0.024974316026
105	465880	86	0.024974173494
105	471348	87	0.024961029223
105	476816	88	0.024973882006
105	482284	89	0.024973728823
105	487752	90	0.024973563212
105	493220	91	0.024960367642
105	498688	92	0.02497313607
105	504156	93	0.024972882083
105	509624	94	0.024972618327
105	515092	95	0.024959350277
105	520560	96	0.024972080085
105	526028	97	0.024971808694
105	531496	98	0.024971536558
105	536964	99	0.024971263949
105	542432	100	0.024970990991
106	4852	2	0
106	10320	3	0
106	15788	4	0
106	21256	5	0
106	26724	6	0
106	32192	7	0
106	37660	8	0
106	43128	9	0
106	48597	10	0
106	55780	11	0
106	61248	12	0
106	66716	13	0
106	72184	14	0
106	77652	15	0
106	83120	16	0
106	88588	17	0
106	94056	18	0
106	99524	19	0
106	104992	20	0
106	110460	21	0
106	115928	22	0
106	121396	23	0
106	126864	24	0
106	132332	25	0
106	137800	26	0
106	143268	27	0
106	148736	28	0
106	154204	29	0
106	159672	30	0
106	165140	31	0
106	170608	32	0
106	176076	33	0
106	181544	34	0
106	187012	35	0
106	192480	36	0
106	197948	37	0
106	203416	38	0
106	208884	39	0
106	214352	40	0
106	219820	41	0
106	225288	42	0
106	230756	43	0
106	236224	44	0
106	241692	45	0
106	247160	46	0
106	252628	47	0
106	258096	48	0
106	263564	49	0
106	269032	50	0
106	274500	51	0
106	279968	52	0
106	285436	53	0
106	290904	54	0
106	296372	55	0
106	301840	56	0
106	307308	57	0
106	312776	58	0
106	318244	59	0
106	323712	60	0
106	329180	61	0
106	334648	62	0
106	340116	63	0
106	345584	64	0
106	351052	65	0
106	356520	66	0
106	361988	67	0
106	367456	68	0
106	372924	69	0
106	378392	70	0
106	383860	71	0
106	389328	72	0
106	394796	73	0
106	400264	74	0
106	405732	75	0
106	411200	76	0
106	416668	77	0
106	422136	78	0
106	427604	79	0
106	433072	80	0
106	438540	81	0
106	444008	82	0
106	449476	83	0
106	454944	84	0
106	460412	85	0
106	465880	86	0
106	471348	87	0
106	476816	88	0
106	482284	89	0
106	487752	90	0
106	493220	91	0
106	498688	92	0
106	504156	93	0
106	509624	94	0
106	515092	95	0
106	520560	96	0
106	526028	97	0
106	531496	98	0
106	536964	99	0
106	542432	100	0
107	4853	2	5
107	10321	3	5
107	15789	4	5
107	21257	5	5
107	26725	6	5
107	32193	7	5
107	37661	8	5
107	43129	9	5
107	48598	10	5
107	55781	11	5
107	61249	12	5
107	66717	13	5
107	72185	14	5
107	77653	15	5
107	83121	16	5
107	88589	17	5
107	94057	18	5
107	99525	19	5
107	104993	20	5
107	110461	21	5
107	115929	22	5
107	121397	23	5
107	126865	24	5
107	132333	25	5
107	137801	26	5
107	143269	27	5
107	148737	28	5
107	154205	29	5
107	159673	30	5
107	165141	31	5
107	170609	32	5
107	176077	33	5
107	181545	34	5
107	187013	35	5
107	192481	36	5
107	197949	37	5
107	203417	38	5
107	208885	39	5
107	214353	40	5
107	219821	41	5
107	225289	42	5
107	230757	43	5
107	236225	44	5
107	241693	45	5
107	247161	46	5
107	252629	47	5
107	258097	48	5
107	263565	49	5
107	269033	50	5
107	274501	51	5
107	279969	52	5
107	285437	53	5
107	290905	54	5
107	296373	55	5
107	301841	56	5
107	307309	57	5
107	312777	58	5
107	318245	59	5
107	323713	60	5
107	329181	61	5
107	334649	62	5
107	340117	63	5
107	345585	64	5
107	351053	65	5
107	356521	66	5
107	361989	67	5
107	367457	68	5
107	372925	69	5
107	378393	70	5
107	383861	71	5
107	389329	72	5
107	394797	73	5
107	400265	74	5
107	405733	75	5
107	411201	76	5
107	416669	77	5
107	422137	78	5
107	427605	79	5
107	433073	80	5
107	438541	81	5
107	444009	82	5
107	449477	83	5
107	454945	84	5
107	460413	85	5
107	465881	86	5
107	471349	87	5
107	476817	88	5
107	482285	89	5
107	487753	90	5
107	493221	91	5
107	498689	92	5
107	504157	93	5
107	509625	94	5
107	515093	95	5
107	520561	96	5
107	526029	97	5
107	531497	98	5
107	536965	99	5
107	542433	100	5
108	4853	2	0.021650416812
108	10321	3	0.024977796369
108	15789	4	0.024964796353
108	21257	5	0.02497779635
108	26725	6	0.02496479634
108	32193	7	0.02496479634
108	37661	8	0.02497779634
108	43129	9	0.02496479634
108	48598	10	0.02497779634
108	55781	11	0.026837779991
108	61249	12	0.024964420684
108	66717	13	0.024976737844
108	72185	14	0.024962687874
108	77653	15	0.02497440426
108	83121	16	0.024973125695
108	88589	17	0.024971955859
108	94057	18	0.024970931925
108	99525	19	0.024970060962
108	104993	20	0.024969333848
108	110461	21	0.024968721507
108	115929	22	0.024968173185
108	121397	23	0.02496765542
108	126865	24	0.024967157678
108	132333	25	0.024966678628
108	137801	26	0.024979218041
108	143269	27	0.024965774819
108	148737	28	0.02496534737
108	154205	29	0.024977934073
108	159673	30	0.024964533458
108	165141	31	0.02497714418
108	170609	32	0.024963764977
108	176077	33	0.024976394613
108	181545	34	0.024963031783
108	187013	35	0.02497567499
108	192481	36	0.024962322325
108	197949	37	0.024974971066
108	203417	38	0.024974617498
108	208885	39	0.024961257761
108	214353	40	0.024973890529
108	219821	41	0.024973517974
108	225289	42	0.024973143308
108	230757	43	0.024959768857
108	236225	44	0.024972395846
108	241693	45	0.024972024841
108	247161	46	0.024971656042
108	252629	47	0.024971289465
108	258097	48	0.024970925037
108	263565	49	0.024970564928
108	269033	50	0.024970204963
108	274501	51	0.024969843358
108	279969	52	0.024969486194
108	285437	53	0.024969130505
108	290905	54	0.024968776156
108	296373	55	0.024968425565
108	301841	56	0.024968074025
108	307309	57	0.024967719991
108	312777	58	0.024967369886
108	318245	59	0.024980020604
108	323713	60	0.024966672061
108	329181	61	0.024966326013
108	334649	62	0.024978979629
108	340117	63	0.024965630192
108	345585	64	0.024965283938
108	351053	65	0.024977938109
108	356521	66	0.024964592658
108	361989	67	0.024964249176
108	367457	68	0.024976906753
108	372925	69	0.024963562071
108	378393	70	0.024976216385
108	383861	71	0.024975874015
108	389329	72	0.024962605098
108	394797	73	0.024975452523
108	400265	74	0.024962393005
108	405733	75	0.0249753751
108	411201	76	0.024962355867
108	416669	77	0.024975313702
108	422137	78	0.024975234897
108	427605	79	0.024962124026
108	433073	80	0.024974997126
108	438541	81	0.02496186344
108	444009	82	0.024974726487
108	449477	83	0.024974587637
108	454945	84	0.024961447469
108	460413	85	0.024974306172
108	465881	86	0.024974163609
108	471349	87	0.024961019313
108	476817	88	0.024973872078
108	482285	89	0.024973718884
108	487753	90	0.024973553262
108	493221	91	0.024960357683
108	498689	92	0.024973126106
108	504157	93	0.024972872113
108	509625	94	0.024972608353
108	515093	95	0.0249593403
108	520561	96	0.024972070104
108	526029	97	0.024971798711
108	531497	98	0.024971526572
108	536965	99	0.024971253961
108	542433	100	0.024970981003
109	4853	2	0
109	10321	3	0
109	15789	4	0
109	21257	5	0
109	26725	6	0
109	32193	7	0
109	37661	8	0
109	43129	9	0
109	48598	10	0
109	55781	11	0
109	61249	12	0
109	66717	13	0
109	72185	14	0
109	77653	15	0
109	83121	16	0
109	88589	17	0
109	94057	18	0
109	99525	19	0
109	104993	20	0
109	110461	21	0
109	115929	22	0
109	121397	23	0
109	126865	24	0
109	132333	25	0
109	137801	26	0
109	143269	27	0
109	148737	28	0
109	154205	29	0
109	159673	30	0
109	165141	31	0
109	170609	32	0
109	176077	33	0
109	181545	34	0
109	187013	35	0
109	192481	36	0
109	197949	37	0
109	203417	38	0
109	208885	39	0
109	214353	40	0
109	219821	41	0
109	225289	42	0
109	230757	43	0
109	236225	44	0
109	241693	45	0
109	247161	46	0
109	252629	47	0
109	258097	48	0
109	263565	49	0
109	269033	50	0
109	274501	51	0
109	279969	52	0
109	285437	53	0
109	290905	54	0
109	296373	55	0
109	301841	56	0
109	307309	57	0
109	312777	58	0
109	318245	59	0
109	323713	60	0
109	329181	61	0
109	334649	62	0
109	340117	63	0
109	345585	64	0
109	351053	65	0
109	356521	66	0
109	361989	67	0
109	367457	68	0
109	372925	69	0
109	378393	70	0
109	383861	71	0
109	389329	72	0
109	394797	73	0
109	400265	74	0
109	405733	75	0
109	411201	76	0
109	416669	77	0
109	422137	78	0
109	427605	79	0
109	433073	80	0
109	438541	81	0
109	444009	82	0
109	449477	83	0
109	454945	84	0
109	460413	85	0
109	465881	86	0
109	471349	87	0
109	476817	88	0
109	482285	89	0
109	487753	90	0
109	493221	91	0
109	498689	92	0
109	504157	93	0
109	509625	94	0
109	515093	95	0
109	520561	96	0
109	526029	97	0
109	531497	98	0
109	536965	99	0
109	542433	100	0
110	4854	2	6
110	10322	3	6
110	15790	4	6
110	21258	5	6
110	26726	6	6
110	32194	7	6
110	37662	8	6
110	43130	9	6
110	48599	10	6
110	55782	11	6
110	61250	12	6
110	66718	13	6
110	72186	14	6
110	77654	15	6
110	83122	16	6
110	88590	17	6
110	94058	18	6
110	99526	19	6
110	104994	20	6
110	110462	21	6
110	115930	22	6
110	121398	23	6
110	126866	24	6
110	132334	25	6
110	137802	26	6
110	143270	27	6
110	148738	28	6
110	154206	29	6
110	159674	30	6
110	165142	31	6
110	170610	32	6
110	176078	33	6
110	181546	34	6
110	187014	35	6
110	192482	36	6
110	197950	37	6
110	203418	38	6
110	208886	39	6
110	214354	40	6
110	219822	41	6
110	225290	42	6
110	230758	43	6
110	236226	44	6
110	241694	45	6
110	247162	46	6
110	252630	47	6
110	258098	48	6
110	263566	49	6
110	269034	50	6
110	274502	51	6
110	279970	52	6
110	285438	53	6
110	290906	54	6
110	296374	55	6
110	301842	56	6
110	307310	57	6
110	312778	58	6
110	318246	59	6
110	323714	60	6
110	329182	61	6
110	334650	62	6
110	340118	63	6
110	345586	64	6
110	351054	65	6
110	356522	66	6
110	361990	67	6
110	367458	68	6
110	372926	69	6
110	378394	70	6
110	383862	71	6
110	389330	72	6
110	394798	73	6
110	400266	74	6
110	405734	75	6
110	411202	76	6
110	416670	77	6
110	422138	78	6
110	427606	79	6
110	433074	80	6
110	438542	81	6
110	444010	82	6
110	449478	83	6
110	454946	84	6
110	460414	85	6
110	465882	86	6
110	471350	87	6
110	476818	88	6
110	482286	89	6
110	487754	90	6
110	493222	91	6
110	498690	92	6
110	504158	93	6
110	509626	94	6
110	515094	95	6
110	520562	96	6
110	526030	97	6
110	531498	98	6
110	536966	99	6
110	542434	100	6
111	4854	2	0.021651396799
111	10322	3	0.024977796368
111	15790	4	0.024964796353
111	21258	5	0.02497779635
111	26726	6	0.02496479634
111	32194	7	0.02496479634
111	37662	8	0.02497779634
111	43130	9	0.02496479634
111	48599	10	0.02497779634
111	55782	11	0.02683781927
111	61250	12	0.024964423654
111	66718	13	0.024976752047
111	72186	14	0.024962714029
111	77654	15	0.024974433259
111	83122	16	0.024973151462
111	88590	17	0.024971976908
111	94058	18	0.024970947978
111	99526	19	0.024970071997
111	104994	20	0.024969340061
111	110462	21	0.024968724608
111	115930	22	0.024968175221
111	121398	23	0.024967657249
111	126866	24	0.024967159427
111	132334	25	0.024966680238
111	137802	26	0.024979219469
111	143270	27	0.024965776057
111	148738	28	0.024965348421
111	154206	29	0.024977934934
111	159674	30	0.024964534114
111	165142	31	0.024977144597
111	170610	32	0.024963765091
111	176078	33	0.024976394317
111	181546	34	0.024963030898
111	187014	35	0.024975673283
111	192482	36	0.024962319599
111	197950	37	0.024974967327
111	203418	38	0.024974612944
111	208886	39	0.02496125264
111	214354	40	0.024973885032
111	219822	41	0.024973512226
111	225290	42	0.024973137386
111	230758	43	0.024959762811
111	236226	44	0.024972389704
111	241694	45	0.024972018625
111	247162	46	0.02497164977
111	252630	47	0.024971283144
111	258098	48	0.024970918678
111	263566	49	0.024970558535
111	269034	50	0.024970198542
111	274502	51	0.024969836913
111	279970	52	0.024969479728
111	285438	53	0.024969124023
111	290906	54	0.024968769657
111	296374	55	0.024968419053
111	301842	56	0.024968067502
111	307310	57	0.024967713457
111	312778	58	0.024967363344
111	318246	59	0.024980014055
111	323714	60	0.024966665506
111	329182	61	0.024966319453
111	334650	62	0.024978973066
111	340118	63	0.024965623625
111	345586	64	0.024965277371
111	351054	65	0.024977931541
111	356522	66	0.024964586092
111	361990	67	0.024964242611
111	367458	68	0.024976900193
111	372926	69	0.024963555516
111	378394	70	0.024976210323
111	383862	71	0.024975865799
111	389330	72	0.024962594989
111	394798	73	0.02497544232
111	400266	74	0.024962383455
111	405734	75	0.024975366272
111	411202	76	0.024962348254
111	416670	77	0.02497530875
111	422138	78	0.024975233657
111	427606	79	0.024962125227
111	433074	80	0.024974999381
111	438542	81	0.024961866152
111	444010	82	0.024974729422
111	449478	83	0.024974590696
111	454946	84	0.024961450602
111	460414	85	0.024974309354
111	465882	86	0.024974166824
111	471350	87	0.024961022551
111	476818	88	0.024973875334
111	482286	89	0.024973722153
111	487754	90	0.02497355654
111	493222	91	0.02496036097
111	498690	92	0.0249731294
111	504158	93	0.024972875411
111	509626	94	0.024972611656
111	515094	95	0.024959343606
111	520562	96	0.024972073413
111	526030	97	0.024971802024
111	531498	98	0.024971529886
111	536966	99	0.024971257277
111	542434	100	0.024970984321
112	4854	2	0
112	10322	3	0
112	15790	4	0
112	21258	5	0
112	26726	6	0
112	32194	7	0
112	37662	8	0
112	43130	9	0
112	48599	10	0
112	55782	11	0
112	61250	12	0
112	66718	13	0
112	72186	14	0
112	77654	15	0
112	83122	16	0
112	88590	17	0
112	94058	18	0
112	99526	19	0
112	104994	20	0
112	110462	21	0
112	115930	22	0
112	121398	23	0
112	126866	24	0
112	132334	25	0
112	137802	26	0
112	143270	27	0
112	148738	28	0
112	154206	29	0
112	159674	30	0
112	165142	31	0
112	170610	32	0
112	176078	33	0
112	181546	34	0
112	187014	35	0
112	192482	36	0
112	197950	37	0
112	203418	38	0
112	208886	39	0
112	214354	40	0
112	219822	41	0
112	225290	42	0
112	230758	43	0
112	236226	44	0
112	241694	45	0
112	247162	46	0
112	252630	47	0
112	258098	48	0
112	263566	49	0
112	269034	50	0
112	274502	51	0
112	279970	52	0
112	285438	53	0
112	290906	54	0
112	296374	55	0
112	301842	56	0
112	307310	57	0
112	312778	58	0
112	318246	59	0
112	323714	60	0
112	329182	61	0
112	334650	62	0
112	340118	63	0
112	345586	64	0
112	351054	65	0
112	356522	66	0
112	361990	67	0
112	367458	68	0
112	372926	69	0
112	378394	70	0
112	383862	71	0
112	389330	72	0
112	394798	73	0
112	400266	74	0
112	405734	75	0
112	411202	76	0
112	416670	77	0
112	422138	78	0
112	427606	79	0
112	433074	80	0
112	438542	81	0
112	444010	82	0
112	449478	83	0
112	454946	84	0
112	460414	85	0
112	465882	86	0
112	471350	87	0
112	476818	88	0
112	482286	89	0
112	487754	90	0
112	493222	91	0
112	498690	92	0
112	504158	93	0
112	509626	94	0
112	515094	95	0
112	520562	96	0
112	526030	97	0
112	531498	98	0
112	536966	99	0
112	542434	100	0
113	4855	2	7
113	10323	3	7
113	15791	4	7
113	21259	5	7
113	26727	6	7
113	32195	7	7
113	37663	8	7
113	43131	9	7
113	48600	10	7
113	55783	11	7
113	61251	12	7
113	66719	13	7
113	72187	14	7
113	77655	15	7
113	83123	16	7
113	88591	17	7
113	94059	18	7
113	99527	19	7
113	104995	20	7
113	110463	21	7
113	115931	22	7
113	121399	23	7
113	126867	24	7
113	132335	25	7
113	137803	26	7
113	143271	27	7
113	148739	28	7
113	154207	29	7
113	159675	30	7
113	165143	31	7
113	170611	32	7
113	176079	33	7
113	181547	34	7
113	187015	35	7
113	192483	36	7
113	197951	37	7
113	203419	38	7
113	208887	39	7
113	214355	40	7
113	219823	41	7
113	225291	42	7
113	230759	43	7
113	236227	44	7
113	241695	45	7
113	247163	46	7
113	252631	47	7
113	258099	48	7
113	263567	49	7
113	269035	50	7
113	274503	51	7
113	279971	52	7
113	285439	53	7
113	290907	54	7
113	296375	55	7
113	301843	56	7
113	307311	57	7
113	312779	58	7
113	318247	59	7
113	323715	60	7
113	329183	61	7
113	334651	62	7
113	340119	63	7
113	345587	64	7
113	351055	65	7
113	356523	66	7
113	361991	67	7
113	367459	68	7
113	372927	69	7
113	378395	70	7
113	383863	71	7
113	389331	72	7
113	394799	73	7
113	400267	74	7
113	405735	75	7
113	411203	76	7
113	416671	77	7
113	422139	78	7
113	427607	79	7
113	433075	80	7
113	438543	81	7
113	444011	82	7
113	449479	83	7
113	454947	84	7
113	460415	85	7
113	465883	86	7
113	471351	87	7
113	476819	88	7
113	482287	89	7
113	487755	90	7
113	493223	91	7
113	498691	92	7
113	504159	93	7
113	509627	94	7
113	515095	95	7
113	520563	96	7
113	526031	97	7
113	531499	98	7
113	536967	99	7
113	542435	100	7
114	4855	2	0.021651376785
114	10323	3	0.024977796368
114	15791	4	0.024964796353
114	21259	5	0.02497779635
114	26727	6	0.02496479634
114	32195	7	0.02496479634
114	37663	8	0.02497779634
114	43131	9	0.02496479634
114	48600	10	0.02497779634
114	55783	11	0.026837857801
114	61251	12	0.024964424378
114	66719	13	0.024976749532
114	72187	14	0.024962708898
114	77655	15	0.024974427065
114	83123	16	0.024973144923
114	88591	17	0.024971970312
114	94059	18	0.024970941406
114	99527	19	0.024970065447
114	104995	20	0.024969333518
114	110463	21	0.02496871807
114	115931	22	0.02496816869
114	121399	23	0.02496765073
114	126867	24	0.024967152921
114	132335	25	0.024966673752
114	137803	26	0.024979213008
114	143271	27	0.02496576963
114	148739	28	0.024965342041
114	154207	29	0.024977928617
114	159675	30	0.024964527891
114	165143	31	0.024977138511
114	170611	32	0.024963759216
114	176079	33	0.024976388768
114	181547	34	0.024963025864
114	187015	35	0.024975669002
114	192483	36	0.024962316274
114	197951	37	0.02497496496
114	203419	38	0.024974611341
114	208887	39	0.024961251558
114	214355	40	0.024973884284
114	219823	41	0.024973511691
114	225291	42	0.024973136992
114	230759	43	0.02495976251
114	236227	44	0.024972389471
114	241695	45	0.024972018441
114	247163	46	0.02497164962
114	252631	47	0.024971283022
114	258099	48	0.024970918575
114	263567	49	0.024970559293
114	269035	50	0.024970197627
114	274503	51	0.024969836852
114	279971	52	0.024969479675
114	285439	53	0.024969123977
114	290907	54	0.024968769617
114	296375	55	0.02496841979
114	301843	56	0.0249680667
114	307311	57	0.024967713431
114	312779	58	0.02496736332
114	318247	59	0.024980014035
114	323715	60	0.024966665487
114	329183	61	0.024966320148
114	334651	62	0.024978972341
114	340119	63	0.024965623612
114	345587	64	0.02496527736
114	351055	65	0.024977931531
114	356523	66	0.024964586082
114	361991	67	0.024964243262
114	367459	68	0.024976900178
114	372927	69	0.024963555502
114	378395	70	0.024976209797
114	383863	71	0.02497586627
114	389331	72	0.024962595828
114	394799	73	0.024975442849
114	400267	74	0.024962383576
114	405735	75	0.024975366249
114	411203	76	0.024962348229
114	416671	77	0.024975308745
114	422139	78	0.02497523366
114	427607	79	0.024962125231
114	433075	80	0.024974999384
114	438543	81	0.024961866153
114	444011	82	0.024974729424
114	449479	83	0.024974590697
114	454947	84	0.024961450605
114	460415	85	0.024974309356
114	465883	86	0.024974166825
114	471351	87	0.024961022553
114	476819	88	0.024973875336
114	482287	89	0.024973722154
114	487755	90	0.024973556715
114	493223	91	0.02496036097
114	498691	92	0.0249731294
114	504159	93	0.024972875411
114	509627	94	0.024972611655
114	515095	95	0.024959343607
114	520563	96	0.024972073413
114	526031	97	0.024971802023
114	531499	98	0.024971529887
114	536967	99	0.024971257277
114	542435	100	0.024970984321
115	4855	2	0
115	10323	3	0
115	15791	4	0
115	21259	5	0
115	26727	6	0
115	32195	7	0
115	37663	8	0
115	43131	9	0
115	48600	10	0
115	55783	11	0
115	61251	12	0
115	66719	13	0
115	72187	14	0
115	77655	15	0
115	83123	16	0
115	88591	17	0
115	94059	18	0
115	99527	19	0
115	104995	20	0
115	110463	21	0
115	115931	22	0
115	121399	23	0
115	126867	24	0
115	132335	25	0
115	137803	26	0
115	143271	27	0
115	148739	28	0
115	154207	29	0
115	159675	30	0
115	165143	31	0
115	170611	32	0
115	176079	33	0
115	181547	34	0
115	187015	35	0
115	192483	36	0
115	197951	37	0
115	203419	38	0
115	208887	39	0
115	214355	40	0
115	219823	41	0
115	225291	42	0
115	230759	43	0
115	236227	44	0
115	241695	45	0
115	247163	46	0
115	252631	47	0
115	258099	48	0
115	263567	49	0
115	269035	50	0
115	274503	51	0
115	279971	52	0
115	285439	53	0
115	290907	54	0
115	296375	55	0
115	301843	56	0
115	307311	57	0
115	312779	58	0
115	318247	59	0
115	323715	60	0
115	329183	61	0
115	334651	62	0
115	340119	63	0
115	345587	64	0
115	351055	65	0
115	356523	66	0
115	361991	67	0
115	367459	68	0
115	372927	69	0
115	378395	70	0
115	383863	71	0
115	389331	72	0
115	394799	73	0
115	400267	74	0
115	405735	75	0
115	411203	76	0
115	416671	77	0
115	422139	78	0
115	427607	79	0
115	433075	80	0
115	438543	81	0
115	444011	82	0
115	449479	83	0
115	454947	84	0
115	460415	85	0
115	465883	86	0
115	471351	87	0
115	476819	88	0
115	482287	89	0
115	487755	90	0
115	493223	91	0
115	498691	92	0
115	504159	93	0
115	509627	94	0
115	515095	95	0
115	520563	96	0
115	526031	97	0
115	531499	98	0
115	536967	99	0
115	542435	100	0

