file 2404324 1720453543                                         
version 3
run BreakRanksNoGui-27-20240708-17:45:29-155243
attr configname BreakRanksNoGui
attr datetime 20240708-17:45:29
attr datetimef 20240708-174529
attr experiment BreakRanksNoGui
attr inifile omnetpp.ini
attr iterationvars "$nCars=8, $platoonSize=8, $nLanes=1, $ploegH=0.5, $controller=1, $headway=0.1, $leaderHeadway=1.2, $leaderSpeed=130, $breakRanksSafetyDistance=2, $minSpeed=120, $maxSpeed=140, $beaconInterval=0.1, $priority=4, $packetSize=200, $sController=\"CACC\", $0=2, $1=0"
attr iterationvarsd nCars=8/platoonSize=8/nLanes=1/ploegH=0.5/controller=1/headway=0.1/leaderHeadway=1.2/leaderSpeed=130/breakRanksSafetyDistance=2/minSpeed=120/maxSpeed=140/beaconInterval=0.1/priority=4/packetSize=200/sController=CACC/2/0
attr iterationvarsf nCars=8,platoonSize=8,nLanes=1,ploegH=0.5,controller=1,headway=0.1,leaderHeadway=1.2,leaderSpeed=130,breakRanksSafetyDistance=2,minSpeed=120,maxSpeed=140,beaconInterval=0.1,priority=4,packetSize=200,sController=CACC,2,0-
attr measurement "$nCars=8, $platoonSize=8, $nLanes=1, $ploegH=0.5, $controller=1, $headway=0.1, $leaderHeadway=1.2, $leaderSpeed=130, $breakRanksSafetyDistance=2, $minSpeed=120, $maxSpeed=140, $beaconInterval=0.1, $priority=4, $packetSize=200, $sController=\"CACC\", $0=2, $1=0"
attr network Highway
attr processid 155243
attr repetition 7
attr replication #7
attr resultdir results
attr runnumber 27
attr seedset 7
itervar beaconInterval 0.1
itervar breakRanksSafetyDistance 2
itervar controller 1
itervar headway 0.1
itervar leaderHeadway 1.2
itervar leaderSpeed 130
itervar maxSpeed 140
itervar minSpeed 120
itervar nCars 8
itervar nLanes 1
itervar packetSize 200
itervar platoonSize 8
itervar ploegH 0.5
itervar priority 4
itervar sController "\"CACC\""
config image-path ../../../veins/images
config repeat 10
config extends BreakRanks
config *.manager.command "\"sumo\""
config *.manager.ignoreGuiCommands true
config output-vector-file results/BreakRanks_1_0.1_130_2/result_7.vec
config output-scalar-file results/BreakRanks_1_0.1_130_2/result_7.sca
config extends Platooning
config *.node[*].scenario_type "\"BreakRanksScenario\""
config *.manager.command "\"sumo-gui\""
config *.node[*].scenario_type "\"SimpleScenario\""
config cmdenv-express-mode true
config cmdenv-autoflush true
config cmdenv-status-frequency 15s
config num-rngs 6
config network Highway
config debug-on-errors true
config print-undisposed true
config *.playgroundSizeX 65000m
config *.playgroundSizeY 25000m
config *.playgroundSizeZ 50m
config sim-time-limit "100 s"
config *.annotations.draw false
config *.obstacles.debug false
config *.world.useTorus false
config *.world.use2D false
config *.manager.updateInterval 0.01s
config *.manager.host "\"localhost\""
config *.manager.moduleType "\"org.car2x.plexe.PlatoonCar\""
config *.manager.moduleName "\"node\""
config *.manager.moduleDisplayString "\"\""
config *.manager.autoShutdown true
config *.manager.margin 25
config *.connectionManager.sendDirect true
config *.connectionManager.maxInterfDist 2600m
config *.connectionManager.drawMaxIntfDist false
config *.**.nic.mac1609_4.useServiceChannel false
config *.**.nic.mac1609_4.txPower 100mW
config *.**.nic.mac1609_4.bitrate 6Mbps
config *.**.nic.mac1609_4.useAcks true
config *.**.nic.mac1609_4.ackErrorRate 0.0
config *.**.nic.mac1609_4.frameErrorRate 0.0
config *.**.nic.phy80211p.minPowerLevel -94dBm
config *.**.nic.phy80211p.maxTXPower 100mW
config *.**.nic.phy80211p.useNoiseFloor true
config *.**.nic.phy80211p.noiseFloor -95dBm
config *.**.nic.phy80211p.decider "xmldoc(\"config.xml\")"
config *.**.nic.phy80211p.analogueModels "xmldoc(\"config.xml\")"
config *.**.nic.phy80211p.usePropagationDelay true
config *.node[*].mobility.x 0
config *.node[*].mobility.y 0
config *.node[*].mobility.z 1.895
config seed-set 7
config **.seed 7
config *.node[*].prot.rng-0 2
config *.node[*].appl.rng-0 3
config *.node[*].scenario.rng-0 4
config **.traffic.rng-0 5
config *.manager.configFile "\"./sumocfg/freeway.sumo.cfg\""
config *.manager.launchConfig "xmldoc(\"./sumocfg/freeway.launchd.xml\")"
config **.numberOfCars 8
config **.numberOfCarsPerPlatoon 8
config **.numberOfLanes 1
config *.node[*].helper_type "\"PositionHelper\""
config *.node[*].scenario.caccC1 0.5
config *.node[*].scenario.caccXi 1
config *.node[*].scenario.caccOmegaN "0.2 Hz"
config *.node[*].scenario.caccSpacing "2 m"
config *.node[*].scenario.engineTau "0.5 s"
config *.node[*].scenario.ploegH 0.5s
config *.node[*].scenario.ploegKp 0.2
config *.node[*].scenario.ploegKd 0.7
config *.node[*].scenario.useRealisticEngine false
config *.node[*].scenario.useControllerAcceleration true
config *.node[*].scenario.nLanes 1
config **.numericController 1
config **.headway 0.1s
config *.node[*].scenario.accHeadway 0.1s
config *.node[*].scenario.leaderHeadway 1.2s
config *.node[*].scenario.leaderSpeed 130kmph
config *.node[*].appl_type "\"SimplePlatooningApp\""
config *.node[*].appl.*.scalar-recording true
config *.node[*].appl.*.vector-recording true
config *.node[0].appl.breakRanksSafetyDistance 2m
config *.node[*].appl.minSpeed 120kmph
config *.node[*].appl.maxSpeed 140kmph
config *.node[*].protocol_type "\"SimplePlatooningBeaconing\""
config *.node[*].prot.*.scalar-recording true
config *.node[*].prot.*.vector-recording true
config *.node[*].prot.beaconingInterval 0.1s
config *.node[*].prot.priority 4
config *.node[*].prot.packetSize 200
config **.traffic_type "\"PlatoonsTrafficManager\""
config **.traffic.platoonInsertTime "1 s"
config **.traffic.platoonInsertSpeed 130kmph
config **.traffic.nCars 8
config **.traffic.platoonSize 8
config **.traffic.nLanes 1
config **.traffic.platooningVType "\"vtypeauto\""
config **.traffic.controller "\"CACC\""
config **.traffic.platoonInsertDistance 2m
config **.traffic.platoonInsertHeadway 0s
config **.traffic.platoonLeaderHeadway 1.2s
config **.scalar-recording false
config **.vector-recording false
config output-vector-file results/BreakRanksNoGui_1_0.1_130_2/result_7.vec
config output-scalar-file results/BreakRanksNoGui_1_0.1_130_2/result_7.sca

vector 0 Highway.node[0].appl distance ETV
vector 1 Highway.node[0].appl relativeSpeed ETV
vector 2 Highway.node[0].appl nodeId ETV
vector 3 Highway.node[0].appl acceleration ETV
vector 4 Highway.node[0].appl controllerAcceleration ETV
vector 5 Highway.node[0].appl speed ETV
vector 6 Highway.node[0].appl posx ETV
vector 7 Highway.node[0].appl posy ETV
vector 8 Highway.node[1].appl distance ETV
vector 9 Highway.node[1].appl relativeSpeed ETV
vector 10 Highway.node[1].appl nodeId ETV
vector 11 Highway.node[1].appl acceleration ETV
vector 12 Highway.node[1].appl controllerAcceleration ETV
vector 13 Highway.node[1].appl speed ETV
vector 14 Highway.node[1].appl posx ETV
vector 15 Highway.node[1].appl posy ETV
vector 16 Highway.node[2].appl distance ETV
vector 17 Highway.node[2].appl relativeSpeed ETV
vector 18 Highway.node[2].appl nodeId ETV
vector 19 Highway.node[2].appl acceleration ETV
vector 20 Highway.node[2].appl controllerAcceleration ETV
vector 21 Highway.node[2].appl speed ETV
vector 22 Highway.node[2].appl posx ETV
vector 23 Highway.node[2].appl posy ETV
vector 24 Highway.node[3].appl distance ETV
vector 25 Highway.node[3].appl relativeSpeed ETV
vector 26 Highway.node[3].appl nodeId ETV
vector 27 Highway.node[3].appl acceleration ETV
vector 28 Highway.node[3].appl controllerAcceleration ETV
vector 29 Highway.node[3].appl speed ETV
vector 30 Highway.node[3].appl posx ETV
vector 31 Highway.node[3].appl posy ETV
vector 32 Highway.node[4].appl distance ETV
vector 33 Highway.node[4].appl relativeSpeed ETV
vector 34 Highway.node[4].appl nodeId ETV
vector 35 Highway.node[4].appl acceleration ETV
vector 36 Highway.node[4].appl controllerAcceleration ETV
vector 37 Highway.node[4].appl speed ETV
vector 38 Highway.node[4].appl posx ETV
vector 39 Highway.node[4].appl posy ETV
vector 40 Highway.node[5].appl distance ETV
vector 41 Highway.node[5].appl relativeSpeed ETV
vector 42 Highway.node[5].appl nodeId ETV
vector 43 Highway.node[5].appl acceleration ETV
vector 44 Highway.node[5].appl controllerAcceleration ETV
vector 45 Highway.node[5].appl speed ETV
vector 46 Highway.node[5].appl posx ETV
vector 47 Highway.node[5].appl posy ETV
vector 48 Highway.node[6].appl distance ETV
vector 49 Highway.node[6].appl relativeSpeed ETV
vector 50 Highway.node[6].appl nodeId ETV
vector 51 Highway.node[6].appl acceleration ETV
vector 52 Highway.node[6].appl controllerAcceleration ETV
vector 53 Highway.node[6].appl speed ETV
vector 54 Highway.node[6].appl posx ETV
vector 55 Highway.node[6].appl posy ETV
vector 56 Highway.node[7].appl distance ETV
vector 57 Highway.node[7].appl relativeSpeed ETV
vector 58 Highway.node[7].appl nodeId ETV
vector 59 Highway.node[7].appl acceleration ETV
vector 60 Highway.node[7].appl controllerAcceleration ETV
vector 61 Highway.node[7].appl speed ETV
vector 62 Highway.node[7].appl posx ETV
vector 63 Highway.node[7].appl posy ETV
vector 64 Highway.node[4].prot frontDelay ETV
vector 65 Highway.node[4].prot frontDelayId ETV
vector 66 Highway.node[3].prot frontDelay ETV
vector 67 Highway.node[3].prot frontDelayId ETV
vector 68 Highway.node[7].prot frontDelay ETV
vector 69 Highway.node[7].prot frontDelayId ETV
vector 70 Highway.node[2].prot frontDelay ETV
vector 71 Highway.node[2].prot frontDelayId ETV
vector 72 Highway.node[6].prot frontDelay ETV
vector 73 Highway.node[6].prot frontDelayId ETV
vector 74 Highway.node[5].prot frontDelay ETV
vector 75 Highway.node[5].prot frontDelayId ETV
vector 76 Highway.node[1].prot leaderDelay ETV
vector 77 Highway.node[1].prot leaderDelayId ETV
vector 78 Highway.node[1].prot frontDelay ETV
vector 79 Highway.node[1].prot frontDelayId ETV
vector 80 Highway.node[2].prot leaderDelay ETV
vector 81 Highway.node[2].prot leaderDelayId ETV
vector 82 Highway.node[3].prot leaderDelay ETV
vector 83 Highway.node[3].prot leaderDelayId ETV
vector 84 Highway.node[4].prot leaderDelay ETV
vector 85 Highway.node[4].prot leaderDelayId ETV
vector 86 Highway.node[5].prot leaderDelay ETV
vector 87 Highway.node[5].prot leaderDelayId ETV
vector 88 Highway.node[6].prot leaderDelay ETV
vector 89 Highway.node[6].prot leaderDelayId ETV
vector 90 Highway.node[7].prot leaderDelay ETV
vector 91 Highway.node[7].prot leaderDelayId ETV
vector 92 Highway.node[0].prot nodeId ETV
vector 93 Highway.node[0].prot busyTime ETV
vector 94 Highway.node[0].prot collisions ETV
vector 95 Highway.node[1].prot nodeId ETV
vector 96 Highway.node[1].prot busyTime ETV
vector 97 Highway.node[1].prot collisions ETV
vector 98 Highway.node[2].prot nodeId ETV
vector 99 Highway.node[2].prot busyTime ETV
vector 100 Highway.node[2].prot collisions ETV
vector 101 Highway.node[3].prot nodeId ETV
vector 102 Highway.node[3].prot busyTime ETV
vector 103 Highway.node[3].prot collisions ETV
vector 104 Highway.node[4].prot nodeId ETV
vector 105 Highway.node[4].prot busyTime ETV
vector 106 Highway.node[4].prot collisions ETV
vector 107 Highway.node[5].prot nodeId ETV
vector 108 Highway.node[5].prot busyTime ETV
vector 109 Highway.node[5].prot collisions ETV
vector 110 Highway.node[6].prot nodeId ETV
vector 111 Highway.node[6].prot busyTime ETV
vector 112 Highway.node[6].prot collisions ETV
vector 113 Highway.node[7].prot nodeId ETV
vector 114 Highway.node[7].prot busyTime ETV
vector 115 Highway.node[7].prot collisions ETV
0	11335 17512 113 542089 1.11 99.91 989 -1 -1 -989 989
1	28847 16523 113 542089 1.11 99.91 989 0 0 0 0
2	45370 16523 113 542089 1.11 99.91 989 0 0 0 0
3	61893 18811 113 542089 1.11 99.91 989 -3.14892e-05 0.000707784 0.010991577126781 6.0508064149601e-06
4	80704 26469 113 542089 1.11 99.91 989 -4.89399e-05 0.00109259 0.010614843047836 8.6815283230331e-06
5	107173 22450 113 542089 1.11 99.91 989 36.11 36.1111 35713.866699999 1289666.6073546
6	129623 22345 113 542089 1.11 99.91 989 51.5199 3619.3 1815217.7308 4382871342.8188
7	151968 21468 113 542089 1.11 99.91 989 242.45 242.45 239783.05 58135400.472499
8	173436 20551 114 542090 1.11 99.91 989 -1 75.2226 23628.35067 1145048.8164246
9	193987 19149 114 542090 1.11 99.91 989 -2.36679e-05 2 884.39577255775 1560.9001842322
10	213136 17512 114 542090 1.11 99.91 989 1 1 989 989
11	230648 24306 114 542090 1.11 99.91 989 -0.714729 0.063479 -11.058702325363 6.3046119821004
12	254954 27363 114 542090 1.11 99.91 989 -1.09776 0.0896376 -10.283519624477 8.6796507864041
13	282317 19880 114 542090 1.11 99.91 989 34.8999 36.1111 34723.2469 1219221.8542333
14	302197 23426 114 542090 1.11 99.91 989 45.5199 3514.29 1765267.7676 4140016768.2032
15	325623 22457 114 542090 1.11 99.91 989 242.45 245.75 242129.35 59280864.1325
16	348080 23314 115 542091 1.11 99.91 989 2 45.3278 36775.05539 1555846.6313016
17	371394 25325 115 542091 1.11 99.91 989 0 3.1981 373.27523100966 651.5917866024
18	396719 17512 115 542091 1.11 99.91 989 2 2 1978 3956
19	414231 26192 115 542091 1.11 99.91 989 -2.02228 0.353913 0.060674211638991 54.302240736167
20	440423 26193 115 542091 1.11 99.91 989 -3.08597 0.399174 1.4559912256048 75.382644459992
21	466616 23324 115 542091 1.11 99.91 989 32.913 36.1111 35340.5895 1263359.2996357
22	489940 23343 115 542091 1.11 99.91 989 39.5199 3569.97 1773946.616 4213226682.9926
23	513283 22457 115 542091 1.11 99.91 989 242.45 242.45 239783.05 58135400.472499
24	535740 21862 116 542092 1.11 99.91 989 -1 51.6052 23713.91986 1037869.9350617
25	557602 22911 116 542092 1.11 99.91 989 -0.714296 3.57768 284.9682160545 853.60028491466
26	580513 17512 116 542092 1.11 99.91 989 3 3 2967 8901
27	598025 26282 116 542092 1.11 99.91 989 -2.88427 1.21907 18.957154224483 201.5390264715
28	624307 26283 116 542092 1.11 99.91 989 -3.60523 1.5 20.218613984417 248.22746520088
29	650590 22465 116 542092 1.11 99.91 989 29.6066 38.0844 35413.7802 1271862.7675043
30	673055 23334 116 542092 1.11 99.91 989 33.5199 3571.19 1741889.716 4094138564.7365
31	696389 22457 116 542092 1.11 99.91 989 242.45 252.35 245709.85 61062666.7925
32	718846 23267 117 542093 1.11 99.91 989 2 236.871 127223.36933 22763901.970587
33	742113 23298 117 542093 1.11 99.91 989 -4.35878e-07 3.51461 2332.569178559 6420.6503712037
34	765411 17512 117 542093 1.11 99.91 989 4 4 3956 15824
35	782923 21839 117 542093 1.11 99.91 989 -3.14921 0.939775 -31.04304221199 276.11747725339
36	804762 26963 117 542093 1.11 99.91 989 -3.60808 0.988893 -29.566143715109 312.50836691392
37	831725 20072 117 542093 1.11 99.91 989 26.6616 36.1111 32493.538 1070448.4480028
38	851797 23403 117 542093 1.11 99.91 989 27.5199 3273.42 1630627.5652 3552046100.9625
39	875200 22457 117 542093 1.11 99.91 989 242.45 242.45 239783.05 58135400.472499
40	897657 22113 118 542094 1.11 99.91 989 -1 46.2682 25864.63749 1071185.8584277
41	919770 23045 118 542094 1.11 99.91 989 -7.43735e-07 3.46658 384.0142145482 556.77884715893
42	942815 17512 118 542094 1.11 99.91 989 5 5 4945 24725
43	960327 26120 118 542094 1.11 99.91 989 -3.2027 1.06953 8.8512689701293 139.89356618748
44	986447 26124 118 542094 1.11 99.91 989 -3.60808 1.5 10.109418366947 218.74891947834
45	1012571 22544 118 542094 1.11 99.91 989 31.5755 37.0101 35833.7745 1299681.0745295
46	1035115 23358 118 542094 1.11 99.91 989 21.5199 3601.24 1769124.8249 4229405791.775
47	1058473 22457 118 542094 1.11 99.91 989 242.45 249.05 244241.35 60322113.792501
48	1080930 18940 119 542095 1.11 99.91 989 -1 2.00002 -685.99908 1292.0036800096
49	1099870 18536 119 542095 1.11 99.91 989 -1.80254e-06 0.000101703 0.00029939698961 1.467879736562e-08
50	1118406 17512 119 542095 1.11 99.91 989 6 6 5934 35604
51	1135918 21666 119 542095 1.11 99.91 989 -3.08478 1.48018 8.9908983388695 124.76367428558
52	1157584 27703 119 542095 1.11 99.91 989 -3.60808 1.5 10.65921984372 206.86636139974
53	1185287 19623 119 542095 1.11 99.91 989 32.927 37.1026 36396.4625 1339820.0517714
54	1204910 23411 119 542095 1.11 99.91 989 15.5199 3651.51 1805303.8987 4393551733.8036
55	1228321 22457 119 542095 1.11 99.91 989 242.45 249.05 243891.55 60148945.6325
56	1250778 18802 120 542096 1.11 99.91 989 -1 32.389 -568.04532 5430.3121192798
57	1269580 18486 120 542096 1.11 99.91 989 -4.60759e-06 1.01701 4.0050285377677 4.0101134164652
58	1288066 17512 120 542096 1.11 99.91 989 7 7 6923 48461
59	1305578 21741 120 542096 1.11 99.91 989 -2.48147 0.990163 -1.3725628282557 41.838910099346
60	1327319 27873 120 542096 1.11 99.91 989 -3.60808 1.5 0.34458958527884 104.54420478472
61	1355192 19527 120 542096 1.11 99.91 989 34.4604 36.1111 35589.374 1280721.0773268
62	1374719 23427 120 542096 1.11 99.91 989 9.5199 3564.85 1767016.8991 4201169953.9919
63	1398146 22457 120 542096 1.11 99.91 989 242.45 252.35 247640.35 62016789.192502
64	1420603 40019 702 542162 1.214462500346 99.914464646447 988 0.099987480335 0.100003501867 98.800002626433 9.8800005454604
65	1460622 27276 702 542162 1.214462500346 99.914464646447 988 4 4 3952 15808
66	1487898 40012 769 542199 1.22169752036 99.921698719036 988 0.099987480333 0.100003500346 98.800001679008 9.8800003560114
67	1527910 27268 769 542199 1.22169752036 99.921698719036 988 3 3 2964 8892
68	1555178 40027 903 542351 1.247009640443 99.947011284378 988 0.099987480334 0.100003500996 98.800002124267 9.8800004450473
69	1595205 27279 903 542351 1.247009640443 99.947011284378 988 7 7 6916 48412
70	1622484 40032 970 542400 1.254140740512 99.954142639213 988 0.099987480334 0.10000350169 98.800002379033 9.8800004959957
71	1662516 27292 970 542400 1.254140740512 99.954142639213 988 2 2 1976 3952
72	1689808 40024 1038 542486 1.273478820567 99.973480911569 988 0.099987480334 0.100003501987 98.800002571334 9.8800005344716
73	1729832 27287 1038 542486 1.273478820567 99.973480911569 988 6 6 5928 35568
74	1757119 40028 1105 542553 1.285042840581 99.985033933002 988 0.099987480333 0.100006603206 98.799991572753 9.8799983350059
75	1797147 27276 1105 542553 1.285042840581 99.985033933002 988 5 5 4940 24700
76	1824423 40034 1166 542626 1.293967920636 99.993972343529 988 0.099987480334 0.100003504718 98.800004903225 9.8800010008368
77	1864457 27288 1166 542626 1.293967920636 99.993972343529 988 1 1 988 988
78	1891745 40034 1166 542626 1.293967920636 99.993972343529 988 0.099987480334 0.100003504718 98.800004903225 9.8800010008368
79	1931779 27288 1166 542626 1.293967920636 99.993972343529 988 1 1 988 988
80	1959067 40058 1172 542614 1.29396794065 99.993972157472 988 0.099987480334 0.100003504348 98.800004697154 9.8800009596227
81	1999125 27302 1172 542614 1.29396794065 99.993972157472 988 2 2 1976 3952
82	2026427 40053 1178 542608 1.293967960664 99.993972156195 988 0.099987480334 0.100003503731 98.800004675863 9.8800009553644
83	2066480 27306 1178 542608 1.293967960664 99.993972156195 988 3 3 2964 8892
84	2093786 40017 1184 542632 1.293967980677 99.993973147589 988 0.099987480334 0.100003505386 98.800005647244 9.8800011496407
85	2133803 27280 1184 542632 1.293967980677 99.993973147589 988 4 4 3952 15808
86	2161083 40000 1190 542596 1.293968000691 99.99397205389 988 0.099987480334 0.10000350406 98.800004533531 9.8800009268981
87	2201083 27273 1190 542596 1.293968000691 99.99397205389 988 5 5 4940 24700
88	2228356 40008 1196 542602 1.293968020705 99.993972101217 988 0.099987480334 0.100003504643 98.800004560844 9.8800009323607
89	2268364 27267 1196 542602 1.293968020705 99.993972101217 988 6 6 5928 35568
90	2295631 40016 1202 542620 1.293968040719 99.993972174909 988 0.099987480334 0.100003504397 98.800004614522 9.8800009430963
91	2335647 27262 1202 542620 1.293968040719 99.993972174909 988 7 7 6916 48412
92	2362909 1459 5026 542634 2 100 99 0 0 0 0
93	2364368 2061 5026 542634 2 100 99 0.022473 0.027091360966 2.471654360966 0.06171856486799
94	2366429 1459 5026 542634 2 100 99 0 0 0 0
95	2367888 1459 5027 542635 2 100 99 1 1 99 99
96	2369347 2060 5027 542635 2 100 99 0.022473 0.02679424017 2.47135724017 0.061702554335288
97	2371407 1459 5027 542635 2 100 99 0 0 0 0
98	2372866 1459 5028 542636 2 100 99 2 2 198 396
99	2374325 2061 5028 542636 2 100 99 0.022473 0.026794280198 2.471357280198 0.061702556480329
100	2376386 1558 5028 542636 2 100 99 0 0 0 0
101	2377944 1558 5029 542637 2 100 99 3 3 297 891
102	2379502 2160 5029 542637 2 100 99 0.022473 0.026794200142 2.471357200142 0.061702552190249
103	2381662 1558 5029 542637 2 100 99 0 0 0 0
104	2383220 1558 5030 542638 2 100 99 4 4 396 1584
105	2384778 2160 5030 542638 2 100 99 0.022473 0.026860360258 2.471423360258 0.061706101982189
106	2386938 1558 5030 542638 2 100 99 0 0 0 0
107	2388496 1558 5031 542639 2 100 99 5 5 495 2475
108	2390054 2159 5031 542639 2 100 99 0.022473 0.02679424017 2.47135724017 0.061702554335288
109	2392213 1558 5031 542639 2 100 99 0 0 0 0
110	2393771 1558 5032 542640 2 100 99 6 6 594 3564
111	2395329 2160 5032 542640 2 100 99 0.022473 0.026827360256 2.471390360256 0.061704330287305
112	2397489 1558 5032 542640 2 100 99 0 0 0 0
113	2399047 1558 5033 542641 2 100 99 7 7 693 4851
114	2400605 2160 5033 542641 2 100 99 0.022473 0.026794280198 2.471357280198 0.061702556480329
115	2402765 1558 5033 542641 2 100 99 0 0 0 0

