version 3
run BreakRanksNoGui-20-20240708-17:43:46-155130
attr configname BreakRanksNoGui
attr datetime 20240708-17:43:46
attr datetimef 20240708-174346
attr experiment BreakRanksNoGui
attr inifile omnetpp.ini
attr iterationvars "$nCars=8, $platoonSize=8, $nLanes=1, $ploegH=0.5, $controller=1, $headway=0.1, $leaderHeadway=1.2, $leaderSpeed=130, $breakRanksSafetyDistance=2, $minSpeed=120, $maxSpeed=140, $beaconInterval=0.1, $priority=4, $packetSize=200, $sController=\"CACC\", $0=2, $1=0"
attr iterationvarsd nCars=8/platoonSize=8/nLanes=1/ploegH=0.5/controller=1/headway=0.1/leaderHeadway=1.2/leaderSpeed=130/breakRanksSafetyDistance=2/minSpeed=120/maxSpeed=140/beaconInterval=0.1/priority=4/packetSize=200/sController=CACC/2/0
attr iterationvarsf nCars=8,platoonSize=8,nLanes=1,ploegH=0.5,controller=1,headway=0.1,leaderHeadway=1.2,leaderSpeed=130,breakRanksSafetyDistance=2,minSpeed=120,maxSpeed=140,beaconInterval=0.1,priority=4,packetSize=200,sController=CACC,2,0-
attr measurement "$nCars=8, $platoonSize=8, $nLanes=1, $ploegH=0.5, $controller=1, $headway=0.1, $leaderHeadway=1.2, $leaderSpeed=130, $breakRanksSafetyDistance=2, $minSpeed=120, $maxSpeed=140, $beaconInterval=0.1, $priority=4, $packetSize=200, $sController=\"CACC\", $0=2, $1=0"
attr network Highway
attr processid 155130
attr repetition 0
attr replication #0
attr resultdir results
attr runnumber 20
attr seedset 0
itervar beaconInterval 0.1
itervar breakRanksSafetyDistance 2
itervar controller 1
itervar headway 0.1
itervar leaderHeadway 1.2
itervar leaderSpeed 130
itervar maxSpeed 140
itervar minSpeed 120
itervar nCars 8
itervar nLanes 1
itervar packetSize 200
itervar platoonSize 8
itervar ploegH 0.5
itervar priority 4
itervar sController "\"CACC\""
config image-path ../../../veins/images
config repeat 10
config extends BreakRanks
config *.manager.command "\"sumo\""
config *.manager.ignoreGuiCommands true
config output-vector-file results/BreakRanks_1_0.1_130_2/result_0.vec
config output-scalar-file results/BreakRanks_1_0.1_130_2/result_0.sca
config extends Platooning
config *.node[*].scenario_type "\"BreakRanksScenario\""
config *.manager.command "\"sumo-gui\""
config *.node[*].scenario_type "\"SimpleScenario\""
config cmdenv-express-mode true
config cmdenv-autoflush true
config cmdenv-status-frequency 15s
config num-rngs 6
config network Highway
config debug-on-errors true
config print-undisposed true
config *.playgroundSizeX 65000m
config *.playgroundSizeY 25000m
config *.playgroundSizeZ 50m
config sim-time-limit "100 s"
config *.annotations.draw false
config *.obstacles.debug false
config *.world.useTorus false
config *.world.use2D false
config *.manager.updateInterval 0.01s
config *.manager.host "\"localhost\""
config *.manager.moduleType "\"org.car2x.plexe.PlatoonCar\""
config *.manager.moduleName "\"node\""
config *.manager.moduleDisplayString "\"\""
config *.manager.autoShutdown true
config *.manager.margin 25
config *.connectionManager.sendDirect true
config *.connectionManager.maxInterfDist 2600m
config *.connectionManager.drawMaxIntfDist false
config *.**.nic.mac1609_4.useServiceChannel false
config *.**.nic.mac1609_4.txPower 100mW
config *.**.nic.mac1609_4.bitrate 6Mbps
config *.**.nic.mac1609_4.useAcks true
config *.**.nic.mac1609_4.ackErrorRate 0.0
config *.**.nic.mac1609_4.frameErrorRate 0.0
config *.**.nic.phy80211p.minPowerLevel -94dBm
config *.**.nic.phy80211p.maxTXPower 100mW
config *.**.nic.phy80211p.useNoiseFloor true
config *.**.nic.phy80211p.noiseFloor -95dBm
config *.**.nic.phy80211p.decider "xmldoc(\"config.xml\")"
config *.**.nic.phy80211p.analogueModels "xmldoc(\"config.xml\")"
config *.**.nic.phy80211p.usePropagationDelay true
config *.node[*].mobility.x 0
config *.node[*].mobility.y 0
config *.node[*].mobility.z 1.895
config seed-set 0
config **.seed 0
config *.node[*].prot.rng-0 2
config *.node[*].appl.rng-0 3
config *.node[*].scenario.rng-0 4
config **.traffic.rng-0 5
config *.manager.configFile "\"./sumocfg/freeway.sumo.cfg\""
config *.manager.launchConfig "xmldoc(\"./sumocfg/freeway.launchd.xml\")"
config **.numberOfCars 8
config **.numberOfCarsPerPlatoon 8
config **.numberOfLanes 1
config *.node[*].helper_type "\"PositionHelper\""
config *.node[*].scenario.caccC1 0.5
config *.node[*].scenario.caccXi 1
config *.node[*].scenario.caccOmegaN "0.2 Hz"
config *.node[*].scenario.caccSpacing "2 m"
config *.node[*].scenario.engineTau "0.5 s"
config *.node[*].scenario.ploegH 0.5s
config *.node[*].scenario.ploegKp 0.2
config *.node[*].scenario.ploegKd 0.7
config *.node[*].scenario.useRealisticEngine false
config *.node[*].scenario.useControllerAcceleration true
config *.node[*].scenario.nLanes 1
config **.numericController 1
config **.headway 0.1s
config *.node[*].scenario.accHeadway 0.1s
config *.node[*].scenario.leaderHeadway 1.2s
config *.node[*].scenario.leaderSpeed 130kmph
config *.node[*].appl_type "\"SimplePlatooningApp\""
config *.node[*].appl.*.scalar-recording true
config *.node[*].appl.*.vector-recording true
config *.node[0].appl.breakRanksSafetyDistance 2m
config *.node[*].appl.minSpeed 120kmph
config *.node[*].appl.maxSpeed 140kmph
config *.node[*].protocol_type "\"SimplePlatooningBeaconing\""
config *.node[*].prot.*.scalar-recording true
config *.node[*].prot.*.vector-recording true
config *.node[*].prot.beaconingInterval 0.1s
config *.node[*].prot.priority 4
config *.node[*].prot.packetSize 200
config **.traffic_type "\"PlatoonsTrafficManager\""
config **.traffic.platoonInsertTime "1 s"
config **.traffic.platoonInsertSpeed 130kmph
config **.traffic.nCars 8
config **.traffic.platoonSize 8
config **.traffic.nLanes 1
config **.traffic.platooningVType "\"vtypeauto\""
config **.traffic.controller "\"CACC\""
config **.traffic.platoonInsertDistance 2m
config **.traffic.platoonInsertHeadway 0s
config **.traffic.platoonLeaderHeadway 1.2s
config **.scalar-recording false
config **.vector-recording false
config output-vector-file results/BreakRanksNoGui_1_0.1_130_2/result_0.vec
config output-scalar-file results/BreakRanksNoGui_1_0.1_130_2/result_0.sca

vector 0 Highway.node[0].appl distance ETV
vector 1 Highway.node[0].appl relativeSpeed ETV
vector 2 Highway.node[0].appl nodeId ETV
vector 3 Highway.node[0].appl acceleration ETV
vector 4 Highway.node[0].appl controllerAcceleration ETV
vector 5 Highway.node[0].appl speed ETV
vector 6 Highway.node[0].appl posx ETV
vector 7 Highway.node[0].appl posy ETV
vector 8 Highway.node[1].appl distance ETV
vector 9 Highway.node[1].appl relativeSpeed ETV
vector 10 Highway.node[1].appl nodeId ETV
vector 11 Highway.node[1].appl acceleration ETV
vector 12 Highway.node[1].appl controllerAcceleration ETV
vector 13 Highway.node[1].appl speed ETV
vector 14 Highway.node[1].appl posx ETV
vector 15 Highway.node[1].appl posy ETV
vector 16 Highway.node[2].appl distance ETV
vector 17 Highway.node[2].appl relativeSpeed ETV
vector 18 Highway.node[2].appl nodeId ETV
vector 19 Highway.node[2].appl acceleration ETV
vector 20 Highway.node[2].appl controllerAcceleration ETV
vector 21 Highway.node[2].appl speed ETV
vector 22 Highway.node[2].appl posx ETV
vector 23 Highway.node[2].appl posy ETV
vector 24 Highway.node[3].appl distance ETV
vector 25 Highway.node[3].appl relativeSpeed ETV
vector 26 Highway.node[3].appl nodeId ETV
vector 27 Highway.node[3].appl acceleration ETV
vector 28 Highway.node[3].appl controllerAcceleration ETV
vector 29 Highway.node[3].appl speed ETV
vector 30 Highway.node[3].appl posx ETV
vector 31 Highway.node[3].appl posy ETV
vector 32 Highway.node[4].appl distance ETV
vector 33 Highway.node[4].appl relativeSpeed ETV
vector 34 Highway.node[4].appl nodeId ETV
vector 35 Highway.node[4].appl acceleration ETV
vector 36 Highway.node[4].appl controllerAcceleration ETV
vector 37 Highway.node[4].appl speed ETV
vector 38 Highway.node[4].appl posx ETV
vector 39 Highway.node[4].appl posy ETV
vector 40 Highway.node[5].appl distance ETV
vector 41 Highway.node[5].appl relativeSpeed ETV
vector 42 Highway.node[5].appl nodeId ETV
vector 43 Highway.node[5].appl acceleration ETV
vector 44 Highway.node[5].appl controllerAcceleration ETV
vector 45 Highway.node[5].appl speed ETV
vector 46 Highway.node[5].appl posx ETV
vector 47 Highway.node[5].appl posy ETV
vector 48 Highway.node[6].appl distance ETV
vector 49 Highway.node[6].appl relativeSpeed ETV
vector 50 Highway.node[6].appl nodeId ETV
vector 51 Highway.node[6].appl acceleration ETV
vector 52 Highway.node[6].appl controllerAcceleration ETV
vector 53 Highway.node[6].appl speed ETV
vector 54 Highway.node[6].appl posx ETV
vector 55 Highway.node[6].appl posy ETV
vector 56 Highway.node[7].appl distance ETV
vector 57 Highway.node[7].appl relativeSpeed ETV
vector 58 Highway.node[7].appl nodeId ETV
vector 59 Highway.node[7].appl acceleration ETV
vector 60 Highway.node[7].appl controllerAcceleration ETV
vector 61 Highway.node[7].appl speed ETV
vector 62 Highway.node[7].appl posx ETV
vector 63 Highway.node[7].appl posy ETV
vector 64 Highway.node[3].prot frontDelay ETV
vector 65 Highway.node[3].prot frontDelayId ETV
vector 66 Highway.node[2].prot frontDelay ETV
vector 67 Highway.node[2].prot frontDelayId ETV
vector 68 Highway.node[7].prot frontDelay ETV
vector 69 Highway.node[7].prot frontDelayId ETV
vector 70 Highway.node[1].prot leaderDelay ETV
vector 71 Highway.node[1].prot leaderDelayId ETV
vector 72 Highway.node[1].prot frontDelay ETV
vector 73 Highway.node[1].prot frontDelayId ETV
vector 74 Highway.node[2].prot leaderDelay ETV
vector 75 Highway.node[2].prot leaderDelayId ETV
vector 76 Highway.node[3].prot leaderDelay ETV
vector 77 Highway.node[3].prot leaderDelayId ETV
vector 78 Highway.node[4].prot leaderDelay ETV
vector 79 Highway.node[4].prot leaderDelayId ETV
vector 80 Highway.node[5].prot leaderDelay ETV
vector 81 Highway.node[5].prot leaderDelayId ETV
vector 82 Highway.node[6].prot leaderDelay ETV
vector 83 Highway.node[6].prot leaderDelayId ETV
vector 84 Highway.node[7].prot leaderDelay ETV
vector 85 Highway.node[7].prot leaderDelayId ETV
vector 86 Highway.node[5].prot frontDelay ETV
vector 87 Highway.node[5].prot frontDelayId ETV
vector 88 Highway.node[4].prot frontDelay ETV
vector 89 Highway.node[4].prot frontDelayId ETV
vector 90 Highway.node[6].prot frontDelay ETV
vector 91 Highway.node[6].prot frontDelayId ETV
vector 92 Highway.node[0].prot nodeId ETV
vector 93 Highway.node[0].prot busyTime ETV
vector 94 Highway.node[0].prot collisions ETV
vector 95 Highway.node[1].prot nodeId ETV
vector 96 Highway.node[1].prot busyTime ETV
vector 97 Highway.node[1].prot collisions ETV
vector 98 Highway.node[2].prot nodeId ETV
vector 99 Highway.node[2].prot busyTime ETV
vector 100 Highway.node[2].prot collisions ETV
vector 101 Highway.node[3].prot nodeId ETV
vector 102 Highway.node[3].prot busyTime ETV
vector 103 Highway.node[3].prot collisions ETV
vector 104 Highway.node[4].prot nodeId ETV
vector 105 Highway.node[4].prot busyTime ETV
vector 106 Highway.node[4].prot collisions ETV
vector 107 Highway.node[5].prot nodeId ETV
vector 108 Highway.node[5].prot busyTime ETV
vector 109 Highway.node[5].prot collisions ETV
vector 110 Highway.node[6].prot nodeId ETV
vector 111 Highway.node[6].prot busyTime ETV
vector 112 Highway.node[6].prot collisions ETV
vector 113 Highway.node[7].prot nodeId ETV
vector 114 Highway.node[7].prot busyTime ETV
vector 115 Highway.node[7].prot collisions ETV
0	113	1.11	-1
0	659	1.21	-1
0	1205	1.31	-1
0	1751	1.41	-1
0	2297	1.51	-1
0	2843	1.61	-1
0	3389	1.71	-1
0	3935	1.81	-1
0	4481	1.91	-1
0	5035	2.01	-1
0	5581	2.11	-1
0	6127	2.21	-1
0	6673	2.31	-1
0	7219	2.41	-1
0	7765	2.51	-1
0	8311	2.61	-1
0	8857	2.71	-1
0	9403	2.81	-1
0	9949	2.91	-1
0	10503	3.01	-1
0	11049	3.11	-1
0	11595	3.21	-1
0	12141	3.31	-1
0	12687	3.41	-1
0	13233	3.51	-1
0	13779	3.61	-1
0	14325	3.71	-1
0	14871	3.81	-1
0	15417	3.91	-1
0	15971	4.01	-1
0	16517	4.11	-1
0	17063	4.21	-1
0	17609	4.31	-1
0	18155	4.41	-1
0	18701	4.51	-1
0	19247	4.61	-1
0	19793	4.71	-1
0	20339	4.81	-1
0	20885	4.91	-1
0	21439	5.01	-1
0	21985	5.11	-1
0	22531	5.21	-1
0	23077	5.31	-1
0	23623	5.41	-1
0	24169	5.51	-1
0	24715	5.61	-1
0	25261	5.71	-1
0	25807	5.81	-1
0	26353	5.91	-1
0	26907	6.01	-1
0	27453	6.11	-1
0	27999	6.21	-1
0	28545	6.31	-1
0	29091	6.41	-1
0	29637	6.51	-1
0	30183	6.61	-1
0	30729	6.71	-1
0	31275	6.81	-1
0	31821	6.91	-1
0	32375	7.01	-1
0	32921	7.11	-1
0	33467	7.21	-1
0	34013	7.31	-1
0	34559	7.41	-1
0	35105	7.51	-1
0	35651	7.61	-1
0	36197	7.71	-1
0	36743	7.81	-1
0	37289	7.91	-1
0	37843	8.01	-1
0	38389	8.11	-1
0	38935	8.21	-1
0	39481	8.31	-1
0	40027	8.41	-1
0	40573	8.51	-1
0	41119	8.61	-1
0	41665	8.71	-1
0	42211	8.81	-1
0	42757	8.91	-1
0	43311	9.01	-1
0	43857	9.11	-1
0	44403	9.21	-1
0	44949	9.31	-1
0	45495	9.41	-1
0	46041	9.51	-1
0	46587	9.61	-1
0	47133	9.71	-1
0	47679	9.81	-1
0	48225	9.91	-1
0	50651	10.01	-1
0	51197	10.11	-1
0	51743	10.21	-1
0	52289	10.31	-1
0	52835	10.41	-1
0	53381	10.51	-1
0	53927	10.61	-1
0	54473	10.71	-1
0	55019	10.81	-1
0	55565	10.91	-1
0	56119	11.01	-1
0	56665	11.11	-1
0	57211	11.21	-1
0	57757	11.31	-1
0	58303	11.41	-1
0	58849	11.51	-1
0	59395	11.61	-1
0	59941	11.71	-1
0	60487	11.81	-1
0	61033	11.91	-1
0	61587	12.01	-1
0	62133	12.11	-1
0	62679	12.21	-1
0	63225	12.31	-1
0	63771	12.41	-1
0	64317	12.51	-1
0	64863	12.61	-1
0	65409	12.71	-1
0	65955	12.81	-1
0	66501	12.91	-1
0	67055	13.01	-1
0	67601	13.11	-1
0	68147	13.21	-1
0	68693	13.31	-1
0	69239	13.41	-1
0	69785	13.51	-1
0	70331	13.61	-1
0	70877	13.71	-1
0	71423	13.81	-1
0	71969	13.91	-1
0	72523	14.01	-1
0	73069	14.11	-1
0	73615	14.21	-1
0	74161	14.31	-1
0	74707	14.41	-1
0	75253	14.51	-1
0	75799	14.61	-1
0	76345	14.71	-1
0	76891	14.81	-1
0	77437	14.91	-1
0	77991	15.01	-1
0	78537	15.11	-1
0	79083	15.21	-1
0	79629	15.31	-1
0	80175	15.41	-1
0	80721	15.51	-1
0	81267	15.61	-1
0	81813	15.71	-1
0	82359	15.81	-1
0	82905	15.91	-1
0	83459	16.01	-1
0	84005	16.11	-1
0	84551	16.21	-1
0	85097	16.31	-1
0	85643	16.41	-1
0	86189	16.51	-1
0	86735	16.61	-1
0	87281	16.71	-1
0	87827	16.81	-1
0	88373	16.91	-1
0	88927	17.01	-1
0	89473	17.11	-1
0	90019	17.21	-1
0	90565	17.31	-1
0	91111	17.41	-1
0	91657	17.51	-1
0	92203	17.61	-1
0	92749	17.71	-1
0	93295	17.81	-1
0	93841	17.91	-1
0	94395	18.01	-1
0	94941	18.11	-1
0	95487	18.21	-1
0	96033	18.31	-1
0	96579	18.41	-1
0	97125	18.51	-1
0	97671	18.61	-1
0	98217	18.71	-1
0	98763	18.81	-1
0	99309	18.91	-1
0	99863	19.01	-1
0	100409	19.11	-1
0	100955	19.21	-1
0	101501	19.31	-1
0	102047	19.41	-1
0	102593	19.51	-1
0	103139	19.61	-1
0	103685	19.71	-1
0	104231	19.81	-1
0	104777	19.91	-1
0	105331	20.01	-1
0	105877	20.11	-1
0	106423	20.21	-1
0	106969	20.31	-1
0	107515	20.41	-1
0	108061	20.51	-1
0	108607	20.61	-1
0	109153	20.71	-1
0	109699	20.81	-1
0	110245	20.91	-1
0	110799	21.01	-1
0	111345	21.11	-1
0	111891	21.21	-1
0	112437	21.31	-1
0	112983	21.41	-1
0	113529	21.51	-1
0	114075	21.61	-1
0	114621	21.71	-1
0	115167	21.81	-1
0	115713	21.91	-1
0	116267	22.01	-1
0	116813	22.11	-1
0	117359	22.21	-1
0	117905	22.31	-1
0	118451	22.41	-1
0	118997	22.51	-1
0	119543	22.61	-1
0	120089	22.71	-1
0	120635	22.81	-1
0	121181	22.91	-1
0	121735	23.01	-1
0	122281	23.11	-1
0	122827	23.21	-1
0	123373	23.31	-1
0	123919	23.41	-1
0	124465	23.51	-1
0	125011	23.61	-1
0	125557	23.71	-1
0	126103	23.81	-1
0	126649	23.91	-1
0	127203	24.01	-1
0	127749	24.11	-1
0	128295	24.21	-1
0	128841	24.31	-1
0	129387	24.41	-1
0	129933	24.51	-1
0	130479	24.61	-1
0	131025	24.71	-1
0	131571	24.81	-1
0	132117	24.91	-1
0	132671	25.01	-1
0	133217	25.11	-1
0	133763	25.21	-1
0	134309	25.31	-1
0	134855	25.41	-1
0	135401	25.51	-1
0	135947	25.61	-1
0	136493	25.71	-1
0	137039	25.81	-1
0	137585	25.91	-1
0	138139	26.01	-1
0	138685	26.11	-1
0	139231	26.21	-1
0	139777	26.31	-1
0	140323	26.41	-1
0	140869	26.51	-1
0	141415	26.61	-1
0	141961	26.71	-1
0	142507	26.81	-1
0	143053	26.91	-1
0	143607	27.01	-1
0	144153	27.11	-1
0	144699	27.21	-1
0	145245	27.31	-1
0	145791	27.41	-1
0	146337	27.51	-1
0	146883	27.61	-1
0	147429	27.71	-1
0	147975	27.81	-1
0	148521	27.91	-1
0	149075	28.01	-1
0	149621	28.11	-1
0	150167	28.21	-1
0	150713	28.31	-1
0	151259	28.41	-1
0	151805	28.51	-1
0	152351	28.61	-1
0	152897	28.71	-1
0	153443	28.81	-1
0	153989	28.91	-1
0	154543	29.01	-1
0	155089	29.11	-1
0	155635	29.21	-1
0	156181	29.31	-1
0	156727	29.41	-1
0	157273	29.51	-1
0	157819	29.61	-1
0	158365	29.71	-1
0	158911	29.81	-1
0	159457	29.91	-1
0	160011	30.01	-1
0	160557	30.11	-1
0	161103	30.21	-1
0	161649	30.31	-1
0	162195	30.41	-1
0	162741	30.51	-1
0	163287	30.61	-1
0	163833	30.71	-1
0	164379	30.81	-1
0	164925	30.91	-1
0	165479	31.01	-1
0	166025	31.11	-1
0	166571	31.21	-1
0	167117	31.31	-1
0	167663	31.41	-1
0	168209	31.51	28.5149
0	168755	31.61	28.7038
0	169301	31.71	28.8927
0	169847	31.81	29.0816
0	170393	31.91	29.2705
0	170947	32.01	29.4594
0	171493	32.11	29.6482
0	172039	32.21	29.8371
0	172585	32.31	30.026
0	173131	32.41	30.2149
0	173677	32.51	30.4038
0	174223	32.61	30.5927
0	174769	32.71	30.7816
0	175315	32.81	30.9705
0	175861	32.91	31.1594
0	176415	33.01	31.3483
0	176961	33.11	31.5371
0	177507	33.21	31.726
0	178053	33.31	31.9149
0	178599	33.41	32.1038
0	179145	33.51	32.2927
0	179691	33.61	32.4816
0	180237	33.71	32.6705
0	180783	33.81	32.8594
0	181329	33.91	33.0483
0	181883	34.01	33.2372
0	182429	34.11	33.426
0	182975	34.21	33.6149
0	183521	34.31	33.8038
0	184067	34.41	33.9927
0	184613	34.51	34.1816
0	185159	34.61	34.3705
0	185705	34.71	34.5594
0	186251	34.81	34.7483
0	186797	34.91	34.9372
0	187351	35.01	35.1261
0	187897	35.11	35.3149
0	188443	35.21	35.5038
0	188989	35.31	35.6927
0	189535	35.41	35.8816
0	190081	35.51	36.0705
0	190627	35.61	36.2594
0	191173	35.71	36.4483
0	191719	35.81	36.6372
0	192265	35.91	36.8261
0	192819	36.01	37.015
0	193365	36.11	37.2038
0	193911	36.21	37.3927
0	194457	36.31	37.5816
0	195003	36.41	37.7705
0	195549	36.51	37.9594
0	196095	36.61	38.1483
0	196641	36.71	38.3372
0	197187	36.81	38.5261
0	197733	36.91	38.715
0	198287	37.01	38.9039
0	198833	37.11	39.0927
0	199379	37.21	39.2816
0	199925	37.31	39.4705
0	200471	37.41	39.6594
0	201017	37.51	39.8483
0	201563	37.61	40.0372
0	202109	37.71	40.2261
0	202655	37.81	40.415
0	203201	37.91	40.6039
0	203755	38.01	40.7928
0	204301	38.11	40.9816
0	204847	38.21	41.1705
0	205393	38.31	41.3594
0	205939	38.41	41.5483
0	206485	38.51	41.7372
0	207031	38.61	41.9261
0	207577	38.71	42.115
0	208123	38.81	42.3039
0	208669	38.91	42.4928
0	209223	39.01	42.6817
0	209769	39.11	42.8705
0	210315	39.21	43.0594
0	210861	39.31	43.2483
0	211407	39.41	43.4372
0	211953	39.51	43.6261
0	212499	39.61	43.815
0	213045	39.71	44.0039
0	213591	39.81	44.1928
0	214137	39.91	44.3817
0	214691	40.01	44.5706
0	215237	40.11	44.7594
0	215783	40.21	44.9483
0	216329	40.31	45.1372
0	216875	40.41	45.3261
0	217421	40.51	45.515
0	217967	40.61	45.7039
0	218513	40.71	45.8928
0	219059	40.81	46.0817
0	219605	40.91	46.2706
0	220159	41.01	46.4595
0	220705	41.11	46.6483
0	221251	41.21	46.8372
0	221797	41.31	47.0261
0	222343	41.41	47.215
0	222889	41.51	47.4039
0	223435	41.61	47.5928
0	223981	41.71	47.7817
0	224527	41.81	47.9706
0	225073	41.91	48.1595
0	225627	42.01	48.3484
0	226173	42.11	48.5372
0	226719	42.21	48.7261
0	227265	42.31	48.915
0	227811	42.41	49.1039
0	228357	42.51	49.2928
0	228903	42.61	49.4817
0	229449	42.71	49.6706
0	229995	42.81	49.8595
0	230541	42.91	50.0484
0	231095	43.01	50.2373
0	231641	43.11	50.4261
0	232187	43.21	50.615
0	232733	43.31	50.8039
0	233279	43.41	50.9928
0	233825	43.51	51.1817
0	234371	43.61	51.3706
0	234917	43.71	51.5595
0	235463	43.81	51.7484
0	236009	43.91	51.9373
0	236563	44.01	52.1262
0	237109	44.11	52.315
0	237655	44.21	52.5039
0	238201	44.31	52.6928
0	238747	44.41	52.8817
0	239293	44.51	53.0706
0	239839	44.61	53.2595
0	240385	44.71	53.4484
0	240931	44.81	53.6373
0	241477	44.91	53.8262
0	242031	45.01	54.0151
0	242577	45.11	54.2039
0	243123	45.21	54.3928
0	243669	45.31	54.5817
0	244215	45.41	54.7706
0	244761	45.51	54.9595
0	245307	45.61	55.1484
0	245853	45.71	55.3373
0	246399	45.81	55.5262
0	246945	45.91	55.7151
0	247499	46.01	55.904
0	248045	46.11	56.0928
0	248591	46.21	56.2817
0	249137	46.31	56.4706
0	249683	46.41	56.6595
0	250229	46.51	56.8484
0	250775	46.61	57.0373
0	251321	46.71	57.2262
0	251867	46.81	57.4151
0	252413	46.91	57.604
0	252967	47.01	57.7929
0	253513	47.11	57.9817
0	254059	47.21	58.1706
0	254605	47.31	58.3595
0	255151	47.41	58.5484
0	255697	47.51	58.7373
0	256243	47.61	58.9262
0	256789	47.71	59.1151
0	257335	47.81	59.304
0	257881	47.91	59.4929
0	258435	48.01	59.6818
0	258981	48.11	59.8706
0	259527	48.21	60.0595
0	260073	48.31	60.2484
0	260619	48.41	60.4373
0	261165	48.51	60.6262
0	261711	48.61	60.8151
0	262257	48.71	61.004
0	262803	48.81	61.1929
0	263349	48.91	61.3818
0	263903	49.01	61.5707
0	264449	49.11	61.7595
0	264995	49.21	61.9484
0	265541	49.31	62.1373
0	266087	49.41	62.3262
0	266633	49.51	62.5151
0	267179	49.61	62.704
0	267725	49.71	62.8929
0	268271	49.81	63.0818
0	268817	49.91	63.2707
0	269371	50.01	63.4596
0	269917	50.11	63.6484
0	270463	50.21	63.8373
0	271009	50.31	64.0262
0	271555	50.41	64.2151
0	272101	50.51	64.404
0	272647	50.61	64.5929
0	273193	50.71	64.7818
0	273739	50.81	64.9707
0	274285	50.91	65.1596
0	274839	51.01	65.3485
0	275385	51.11	65.5373
0	275931	51.21	65.7262
0	276477	51.31	65.9151
0	277023	51.41	66.104
0	277569	51.51	66.2929
0	278115	51.61	66.4818
0	278661	51.71	66.6707
0	279207	51.81	66.8596
0	279753	51.91	67.0485
0	280307	52.01	67.2374
0	280853	52.11	67.4262
0	281399	52.21	67.6151
0	281945	52.31	67.804
0	282491	52.41	67.9929
0	283037	52.51	68.1818
0	283583	52.61	68.3707
0	284129	52.71	68.5596
0	284675	52.81	68.7485
0	285221	52.91	68.9374
0	285775	53.01	69.1263
0	286321	53.11	69.3151
0	286867	53.21	69.504
0	287413	53.31	69.6929
0	287959	53.41	69.8818
0	288505	53.51	70.0707
0	289051	53.61	70.2596
0	289597	53.71	70.4485
0	290143	53.81	70.6374
0	290689	53.91	70.8263
0	291243	54.01	71.0152
0	291789	54.11	71.204
0	292335	54.21	71.3929
0	292881	54.31	71.5818
0	293427	54.41	71.7707
0	293973	54.51	71.9596
0	294519	54.61	72.1485
0	295065	54.71	72.3374
0	295611	54.81	72.5263
0	296157	54.91	72.7152
0	296711	55.01	72.9041
0	297257	55.11	73.0929
0	297803	55.21	73.2818
0	298349	55.31	73.4707
0	298895	55.41	73.6596
0	299441	55.51	73.8485
0	299987	55.61	74.0374
0	300533	55.71	74.2263
0	301079	55.81	74.4152
0	301625	55.91	74.6041
0	302179	56.01	74.793
0	302725	56.11	74.9818
0	303271	56.21	75.1707
0	303817	56.31	75.3596
0	304363	56.41	75.5485
0	304909	56.51	75.7374
0	305455	56.61	75.9263
0	306001	56.71	76.1152
0	306547	56.81	76.3041
0	307093	56.91	76.493
0	307647	57.01	28.438
0	308193	57.11	28.6266
0	308739	57.21	28.8145
0	309285	57.31	29.0013
0	309831	57.41	29.1867
0	310377	57.51	29.3706
0	310923	57.61	29.5528
0	311469	57.71	29.7332
0	312015	57.81	29.9118
0	312561	57.91	30.0886
0	313115	58.01	30.2636
0	313661	58.11	30.4369
0	314207	58.21	30.6085
0	314753	58.31	30.7787
0	315299	58.41	30.9473
0	315845	58.51	31.1147
0	316391	58.61	31.2808
0	316937	58.71	31.4459
0	317483	58.81	31.61
0	318029	58.91	31.7732
0	318583	59.01	31.9357
0	319129	59.11	32.0976
0	319675	59.21	32.259
0	320221	59.31	32.42
0	320767	59.41	32.5806
0	321313	59.51	32.741
0	321859	59.61	32.9013
0	322405	59.71	33.0614
0	322951	59.81	33.2216
0	323497	59.91	33.3818
0	324051	60.01	33.542
0	324597	60.11	33.7024
0	325143	60.21	33.863
0	325689	60.31	34.0237
0	326235	60.41	34.1847
0	326781	60.51	34.3459
0	327327	60.61	34.5075
0	327873	60.71	34.6693
0	328419	60.81	34.8313
0	328965	60.91	34.9937
0	329519	61.01	35.1565
0	330065	61.11	35.3195
0	330611	61.21	35.4828
0	331157	61.31	35.6465
0	331703	61.41	35.8105
0	332249	61.51	35.9748
0	332795	61.61	36.1394
0	333341	61.71	36.3043
0	333887	61.81	36.4695
0	334433	61.91	36.635
0	334987	62.01	36.8008
0	335533	62.11	36.9669
0	336079	62.21	37.1332
0	336625	62.31	37.2998
0	337171	62.41	37.4667
0	337717	62.51	37.6338
0	338263	62.61	37.8012
0	338809	62.71	37.9688
0	339355	62.81	38.1367
0	339901	62.91	38.3047
0	340455	63.01	38.4731
0	341001	63.11	38.6416
0	341547	63.21	38.8103
0	342093	63.31	38.9793
0	342639	63.41	39.1484
0	343185	63.51	39.3178
0	343731	63.61	39.4874
0	344277	63.71	39.6571
0	344823	63.81	39.8271
0	345369	63.91	39.9972
0	345923	64.01	40.1676
0	346469	64.11	40.3381
0	347015	64.21	40.5088
0	347561	64.31	40.6796
0	348107	64.41	40.8507
0	348653	64.51	41.0219
0	349199	64.61	41.1933
0	349745	64.71	41.3649
0	350291	64.81	41.5366
0	350837	64.91	41.7085
0	351391	65.01	41.8806
0	351937	65.11	42.0528
0	352483	65.21	42.2252
0	353029	65.31	42.3978
0	353575	65.41	42.5705
0	354121	65.51	42.7434
0	354667	65.61	42.9164
0	355213	65.71	43.0896
0	355759	65.81	43.2629
0	356305	65.91	43.4364
0	356859	66.01	43.6101
0	357405	66.11	43.7839
0	357951	66.21	43.9578
0	358497	66.31	44.1319
0	359043	66.41	44.3061
0	359589	66.51	44.4805
0	360135	66.61	44.655
0	360681	66.71	44.8297
0	361227	66.81	45.0045
0	361773	66.91	45.1794
0	362327	67.01	45.3545
0	362873	67.11	45.5297
0	363419	67.21	45.7051
0	363965	67.31	45.8806
0	364511	67.41	46.0562
0	365057	67.51	46.2319
0	365603	67.61	46.4078
0	366149	67.71	46.5838
0	366695	67.81	46.7599
0	367241	67.91	46.9362
0	367795	68.01	47.1126
0	368341	68.11	47.2891
0	368887	68.21	47.4657
0	369433	68.31	47.6425
0	369979	68.41	47.8193
0	370525	68.51	47.9963
0	371071	68.61	48.1734
0	371617	68.71	48.3506
0	372163	68.81	48.528
0	372709	68.91	48.7054
0	373263	69.01	48.883
0	373809	69.11	49.0607
0	374355	69.21	49.2385
0	374901	69.31	49.4164
0	375447	69.41	49.5944
0	375993	69.51	49.7725
0	376539	69.61	49.9507
0	377085	69.71	50.129
0	377631	69.81	50.3075
0	378177	69.91	50.486
0	378731	70.01	50.6646
0	379277	70.11	50.8434
0	379823	70.21	51.0222
0	380369	70.31	51.2012
0	380915	70.41	51.3802
0	381461	70.51	51.5593
0	382007	70.61	51.7386
0	382553	70.71	51.9179
0	383099	70.81	52.0973
0	383645	70.91	52.2768
0	384199	71.01	52.4564
0	384745	71.11	52.6361
0	385291	71.21	52.8159
0	385837	71.31	52.9958
0	386383	71.41	53.1758
0	386929	71.51	53.3558
0	387475	71.61	53.536
0	388021	71.71	53.7162
0	388567	71.81	53.8965
0	389113	71.91	54.0769
0	389667	72.01	54.2574
0	390213	72.11	54.438
0	390759	72.21	54.6186
0	391305	72.31	54.7994
0	391851	72.41	54.9802
0	392397	72.51	55.1611
0	392943	72.61	55.342
0	393489	72.71	55.5231
0	394035	72.81	55.7042
0	394581	72.91	55.8854
0	395135	73.01	56.0667
0	395681	73.11	56.248
0	396227	73.21	56.4295
0	396773	73.31	56.611
0	397319	73.41	56.7925
0	397865	73.51	56.9742
0	398411	73.61	57.1559
0	398957	73.71	57.3377
0	399503	73.81	57.5196
0	400049	73.91	57.7015
0	400603	74.01	57.8835
0	401149	74.11	58.0656
0	401695	74.21	58.2477
0	402241	74.31	58.4299
0	402787	74.41	58.6122
0	403333	74.51	58.7945
0	403879	74.61	58.9769
0	404425	74.71	59.1594
0	404971	74.81	59.3419
0	405517	74.91	59.5245
0	406071	75.01	59.7071
0	406617	75.11	59.8898
0	407163	75.21	60.0726
0	407709	75.31	60.2554
0	408255	75.41	60.4383
0	408801	75.51	60.6213
0	409347	75.61	60.8043
0	409893	75.71	60.9874
0	410439	75.81	61.1705
0	410985	75.91	61.3537
0	411539	76.01	61.5369
0	412085	76.11	61.7202
0	412631	76.21	61.9036
0	413177	76.31	62.087
0	413723	76.41	62.2704
0	414269	76.51	62.4539
0	414815	76.61	62.6375
0	415361	76.71	62.8211
0	415907	76.81	63.0048
0	416453	76.91	63.1885
0	417007	77.01	63.3723
0	417553	77.11	63.5561
0	418099	77.21	63.74
0	418645	77.31	63.9239
0	419191	77.41	64.1079
0	419737	77.51	64.2919
0	420283	77.61	64.476
0	420829	77.71	64.6601
0	421375	77.81	64.8443
0	421921	77.91	65.0285
0	422475	78.01	65.2128
0	423021	78.11	65.3971
0	423567	78.21	65.5814
0	424113	78.31	65.7658
0	424659	78.41	65.9502
0	425205	78.51	66.1347
0	425751	78.61	66.3192
0	426297	78.71	66.5038
0	426843	78.81	66.6884
0	427389	78.91	66.8731
0	427943	79.01	67.0578
0	428489	79.11	67.2425
0	429035	79.21	67.4273
0	429581	79.31	67.6121
0	430127	79.41	67.797
0	430673	79.51	67.9819
0	431219	79.61	68.1668
0	431765	79.71	68.3518
0	432311	79.81	68.5368
0	432857	79.91	68.7219
0	433411	80.01	68.907
0	433957	80.11	69.0921
0	434503	80.21	69.2773
0	435049	80.31	69.4625
0	435595	80.41	69.6477
0	436141	80.51	69.833
0	436687	80.61	70.0183
0	437233	80.71	70.2036
0	437779	80.81	70.389
0	438325	80.91	70.5744
0	438879	81.01	70.7599
0	439425	81.11	70.9454
0	439971	81.21	71.1309
0	440517	81.31	71.3164
0	441063	81.41	71.502
0	441609	81.51	71.6877
0	442155	81.61	71.8733
0	442701	81.71	72.059
0	443247	81.81	72.2447
0	443793	81.91	72.4304
0	444347	82.01	72.6162
0	444893	82.11	72.802
0	445439	82.21	72.9879
0	445985	82.31	73.1737
0	446531	82.41	73.3596
0	447077	82.51	73.5456
0	447623	82.61	73.7315
0	448169	82.71	73.9175
0	448715	82.81	74.1035
0	449261	82.91	74.2896
0	449815	83.01	74.4756
0	450361	83.11	74.6617
0	450907	83.21	74.8479
0	451453	83.31	75.034
0	451999	83.41	75.2202
0	452545	83.51	75.4064
0	453091	83.61	75.5926
0	453637	83.71	75.7789
0	454183	83.81	75.9652
0	454729	83.91	76.1515
0	455283	84.01	76.3378
0	455829	84.11	76.5242
0	456375	84.21	76.7106
0	456921	84.31	76.897
0	457467	84.41	77.0834
0	458013	84.51	77.2699
0	458559	84.61	77.4564
0	459105	84.71	77.6429
0	459651	84.81	77.8294
0	460197	84.91	78.016
0	460751	85.01	78.2026
0	461297	85.11	78.3892
0	461843	85.21	78.5758
0	462389	85.31	78.7624
0	462935	85.41	78.9491
0	463481	85.51	79.1358
0	464027	85.61	79.3225
0	464573	85.71	79.5092
0	465119	85.81	79.696
0	465665	85.91	79.8828
0	466219	86.01	80.0696
0	466765	86.11	80.2564
0	467311	86.21	80.4432
0	467857	86.31	80.6301
0	468403	86.41	80.817
0	468949	86.51	81.0039
0	469495	86.61	81.1908
0	470041	86.71	81.3777
0	470587	86.81	81.5647
0	471133	86.91	81.7517
0	471687	87.01	81.9387
0	472233	87.11	82.1257
0	472779	87.21	82.3127
0	473325	87.31	82.4997
0	473871	87.41	82.6868
0	474417	87.51	82.8739
0	474963	87.61	83.061
0	475509	87.71	83.2481
0	476055	87.81	83.4353
0	476601	87.91	83.6224
0	477155	88.01	83.8096
0	477701	88.11	83.9968
0	478247	88.21	84.184
0	478793	88.31	84.3712
0	479339	88.41	84.5585
0	479885	88.51	84.7457
0	480431	88.61	84.933
0	480977	88.71	85.1203
0	481523	88.81	85.3076
0	482069	88.91	85.4949
0	482623	89.01	85.6823
0	483169	89.11	85.8696
0	483715	89.21	86.057
0	484261	89.31	86.2444
0	484807	89.41	86.4318
0	485353	89.51	86.6192
0	485899	89.61	86.8066
0	486445	89.71	86.994
0	486991	89.81	87.1815
0	487537	89.91	87.369
0	488091	90.01	87.5564
0	488637	90.11	87.7439
0	489183	90.21	87.9315
0	489729	90.31	88.119
0	490275	90.41	88.3065
0	490821	90.51	88.4941
0	491367	90.61	88.6816
0	491913	90.71	88.8692
0	492459	90.81	89.0568
0	493005	90.91	89.2444
0	493559	91.01	89.432
0	494105	91.11	89.6197
0	494651	91.21	89.8073
0	495197	91.31	89.9949
0	495743	91.41	90.1826
0	496289	91.51	90.3703
0	496835	91.61	90.558
0	497381	91.71	90.7457
0	497927	91.81	90.9334
0	498473	91.91	91.1211
0	499027	92.01	91.3089
0	499573	92.11	91.4966
0	500119	92.21	91.6844
0	500665	92.31	91.8721
0	501211	92.41	92.0599
0	501757	92.51	92.2477
0	502303	92.61	92.4355
0	502849	92.71	92.6233
0	503395	92.81	92.8112
0	503941	92.91	92.999
0	504495	93.01	93.1868
0	505041	93.11	93.3747
0	505587	93.21	93.5626
0	506133	93.31	93.7504
0	506679	93.41	93.9383
0	507225	93.51	94.1262
0	507771	93.61	94.3141
0	508317	93.71	94.502
0	508863	93.81	94.69
0	509409	93.91	94.8779
0	509963	94.01	95.0659
0	510509	94.11	95.2538
0	511055	94.21	95.4418
0	511601	94.31	95.6297
0	512147	94.41	95.8177
0	512693	94.51	96.0057
0	513239	94.61	96.1937
0	513785	94.71	96.3817
0	514331	94.81	96.5697
0	514877	94.91	96.7578
0	515431	95.01	96.9458
0	515977	95.11	97.1338
0	516523	95.21	97.3219
0	517069	95.31	97.5099
0	517615	95.41	97.698
0	518161	95.51	97.8861
0	518707	95.61	98.0742
0	519253	95.71	98.2623
0	519799	95.81	98.4504
0	520345	95.91	98.6385
0	520899	96.01	98.8266
0	521445	96.11	99.0147
0	521991	96.21	99.2028
0	522537	96.31	99.391
0	523083	96.41	99.5791
0	523629	96.51	99.7673
0	524175	96.61	99.9554
0	524721	96.71	100.144
0	525267	96.81	100.332
0	525813	96.91	100.52
0	526367	97.01	100.708
0	526913	97.11	100.896
0	527459	97.21	101.085
0	528005	97.31	101.273
0	528551	97.41	101.461
0	529097	97.51	101.649
0	529643	97.61	101.837
0	530189	97.71	102.026
0	530735	97.81	102.214
0	531281	97.91	102.402
0	531835	98.01	102.59
0	532381	98.11	102.779
0	532927	98.21	102.967
0	533473	98.31	103.155
0	534019	98.41	103.343
0	534565	98.51	103.532
0	535111	98.61	103.72
0	535657	98.71	103.908
0	536203	98.81	104.097
0	536749	98.91	104.285
0	537303	99.01	104.473
0	537849	99.11	104.662
0	538395	99.21	104.85
0	538941	99.31	105.038
0	539487	99.41	105.227
0	540033	99.51	105.415
0	540579	99.61	105.603
0	541125	99.71	105.792
0	541671	99.81	105.98
0	542217	99.91	106.168
1	113	1.11	0
1	659	1.21	0
1	1205	1.31	0
1	1751	1.41	0
1	2297	1.51	0
1	2843	1.61	0
1	3389	1.71	0
1	3935	1.81	0
1	4481	1.91	0
1	5035	2.01	0
1	5581	2.11	0
1	6127	2.21	0
1	6673	2.31	0
1	7219	2.41	0
1	7765	2.51	0
1	8311	2.61	0
1	8857	2.71	0
1	9403	2.81	0
1	9949	2.91	0
1	10503	3.01	0
1	11049	3.11	0
1	11595	3.21	0
1	12141	3.31	0
1	12687	3.41	0
1	13233	3.51	0
1	13779	3.61	0
1	14325	3.71	0
1	14871	3.81	0
1	15417	3.91	0
1	15971	4.01	0
1	16517	4.11	0
1	17063	4.21	0
1	17609	4.31	0
1	18155	4.41	0
1	18701	4.51	0
1	19247	4.61	0
1	19793	4.71	0
1	20339	4.81	0
1	20885	4.91	0
1	21439	5.01	0
1	21985	5.11	0
1	22531	5.21	0
1	23077	5.31	0
1	23623	5.41	0
1	24169	5.51	0
1	24715	5.61	0
1	25261	5.71	0
1	25807	5.81	0
1	26353	5.91	0
1	26907	6.01	0
1	27453	6.11	0
1	27999	6.21	0
1	28545	6.31	0
1	29091	6.41	0
1	29637	6.51	0
1	30183	6.61	0
1	30729	6.71	0
1	31275	6.81	0
1	31821	6.91	0
1	32375	7.01	0
1	32921	7.11	0
1	33467	7.21	0
1	34013	7.31	0
1	34559	7.41	0
1	35105	7.51	0
1	35651	7.61	0
1	36197	7.71	0
1	36743	7.81	0
1	37289	7.91	0
1	37843	8.01	0
1	38389	8.11	0
1	38935	8.21	0
1	39481	8.31	0
1	40027	8.41	0
1	40573	8.51	0
1	41119	8.61	0
1	41665	8.71	0
1	42211	8.81	0
1	42757	8.91	0
1	43311	9.01	0
1	43857	9.11	0
1	44403	9.21	0
1	44949	9.31	0
1	45495	9.41	0
1	46041	9.51	0
1	46587	9.61	0
1	47133	9.71	0
1	47679	9.81	0
1	48225	9.91	0
1	50651	10.01	0
1	51197	10.11	0
1	51743	10.21	0
1	52289	10.31	0
1	52835	10.41	0
1	53381	10.51	0
1	53927	10.61	0
1	54473	10.71	0
1	55019	10.81	0
1	55565	10.91	0
1	56119	11.01	0
1	56665	11.11	0
1	57211	11.21	0
1	57757	11.31	0
1	58303	11.41	0
1	58849	11.51	0
1	59395	11.61	0
1	59941	11.71	0
1	60487	11.81	0
1	61033	11.91	0
1	61587	12.01	0
1	62133	12.11	0
1	62679	12.21	0
1	63225	12.31	0
1	63771	12.41	0
1	64317	12.51	0
1	64863	12.61	0
1	65409	12.71	0
1	65955	12.81	0
1	66501	12.91	0
1	67055	13.01	0
1	67601	13.11	0
1	68147	13.21	0
1	68693	13.31	0
1	69239	13.41	0
1	69785	13.51	0
1	70331	13.61	0
1	70877	13.71	0
1	71423	13.81	0
1	71969	13.91	0
1	72523	14.01	0
1	73069	14.11	0
1	73615	14.21	0
1	74161	14.31	0
1	74707	14.41	0
1	75253	14.51	0
1	75799	14.61	0
1	76345	14.71	0
1	76891	14.81	0
1	77437	14.91	0
1	77991	15.01	0
1	78537	15.11	0
1	79083	15.21	0
1	79629	15.31	0
1	80175	15.41	0
1	80721	15.51	0
1	81267	15.61	0
1	81813	15.71	0
1	82359	15.81	0
1	82905	15.91	0
1	83459	16.01	0
1	84005	16.11	0
1	84551	16.21	0
1	85097	16.31	0
1	85643	16.41	0
1	86189	16.51	0
1	86735	16.61	0
1	87281	16.71	0
1	87827	16.81	0
1	88373	16.91	0
1	88927	17.01	0
1	89473	17.11	0
1	90019	17.21	0
1	90565	17.31	0
1	91111	17.41	0
1	91657	17.51	0
1	92203	17.61	0
1	92749	17.71	0
1	93295	17.81	0
1	93841	17.91	0
1	94395	18.01	0
1	94941	18.11	0
1	95487	18.21	0
1	96033	18.31	0
1	96579	18.41	0
1	97125	18.51	0
1	97671	18.61	0
1	98217	18.71	0
1	98763	18.81	0
1	99309	18.91	0
1	99863	19.01	0
1	100409	19.11	0
1	100955	19.21	0
1	101501	19.31	0
1	102047	19.41	0
1	102593	19.51	0
1	103139	19.61	0
1	103685	19.71	0
1	104231	19.81	0
1	104777	19.91	0
1	105331	20.01	0
1	105877	20.11	0
1	106423	20.21	0
1	106969	20.31	0
1	107515	20.41	0
1	108061	20.51	0
1	108607	20.61	0
1	109153	20.71	0
1	109699	20.81	0
1	110245	20.91	0
1	110799	21.01	0
1	111345	21.11	0
1	111891	21.21	0
1	112437	21.31	0
1	112983	21.41	0
1	113529	21.51	0
1	114075	21.61	0
1	114621	21.71	0
1	115167	21.81	0
1	115713	21.91	0
1	116267	22.01	0
1	116813	22.11	0
1	117359	22.21	0
1	117905	22.31	0
1	118451	22.41	0
1	118997	22.51	0
1	119543	22.61	0
1	120089	22.71	0
1	120635	22.81	0
1	121181	22.91	0
1	121735	23.01	0
1	122281	23.11	0
1	122827	23.21	0
1	123373	23.31	0
1	123919	23.41	0
1	124465	23.51	0
1	125011	23.61	0
1	125557	23.71	0
1	126103	23.81	0
1	126649	23.91	0
1	127203	24.01	0
1	127749	24.11	0
1	128295	24.21	0
1	128841	24.31	0
1	129387	24.41	0
1	129933	24.51	0
1	130479	24.61	0
1	131025	24.71	0
1	131571	24.81	0
1	132117	24.91	0
1	132671	25.01	0
1	133217	25.11	0
1	133763	25.21	0
1	134309	25.31	0
1	134855	25.41	0
1	135401	25.51	0
1	135947	25.61	0
1	136493	25.71	0
1	137039	25.81	0
1	137585	25.91	0
1	138139	26.01	0
1	138685	26.11	0
1	139231	26.21	0
1	139777	26.31	0
1	140323	26.41	0
1	140869	26.51	0
1	141415	26.61	0
1	141961	26.71	0
1	142507	26.81	0
1	143053	26.91	0
1	143607	27.01	0
1	144153	27.11	0
1	144699	27.21	0
1	145245	27.31	0
1	145791	27.41	0
1	146337	27.51	0
1	146883	27.61	0
1	147429	27.71	0
1	147975	27.81	0
1	148521	27.91	0
1	149075	28.01	0
1	149621	28.11	0
1	150167	28.21	0
1	150713	28.31	0
1	151259	28.41	0
1	151805	28.51	0
1	152351	28.61	0
1	152897	28.71	0
1	153443	28.81	0
1	153989	28.91	0
1	154543	29.01	0
1	155089	29.11	0
1	155635	29.21	0
1	156181	29.31	0
1	156727	29.41	0
1	157273	29.51	0
1	157819	29.61	0
1	158365	29.71	0
1	158911	29.81	0
1	159457	29.91	0
1	160011	30.01	0
1	160557	30.11	0
1	161103	30.21	0
1	161649	30.31	0
1	162195	30.41	0
1	162741	30.51	0
1	163287	30.61	0
1	163833	30.71	0
1	164379	30.81	0
1	164925	30.91	0
1	165479	31.01	0
1	166025	31.11	0
1	166571	31.21	0
1	167117	31.31	0
1	167663	31.41	0
1	168209	31.51	1.8889
1	168755	31.61	1.8889
1	169301	31.71	1.8889
1	169847	31.81	1.8889
1	170393	31.91	1.8889
1	170947	32.01	1.8889
1	171493	32.11	1.8889
1	172039	32.21	1.8889
1	172585	32.31	1.8889
1	173131	32.41	1.8889
1	173677	32.51	1.8889
1	174223	32.61	1.8889
1	174769	32.71	1.8889
1	175315	32.81	1.8889
1	175861	32.91	1.8889
1	176415	33.01	1.8889
1	176961	33.11	1.8889
1	177507	33.21	1.8889
1	178053	33.31	1.8889
1	178599	33.41	1.8889
1	179145	33.51	1.8889
1	179691	33.61	1.8889
1	180237	33.71	1.8889
1	180783	33.81	1.8889
1	181329	33.91	1.8889
1	181883	34.01	1.8889
1	182429	34.11	1.8889
1	182975	34.21	1.8889
1	183521	34.31	1.8889
1	184067	34.41	1.8889
1	184613	34.51	1.8889
1	185159	34.61	1.8889
1	185705	34.71	1.8889
1	186251	34.81	1.8889
1	186797	34.91	1.8889
1	187351	35.01	1.8889
1	187897	35.11	1.8889
1	188443	35.21	1.8889
1	188989	35.31	1.8889
1	189535	35.41	1.8889
1	190081	35.51	1.8889
1	190627	35.61	1.8889
1	191173	35.71	1.8889
1	191719	35.81	1.8889
1	192265	35.91	1.8889
1	192819	36.01	1.8889
1	193365	36.11	1.8889
1	193911	36.21	1.8889
1	194457	36.31	1.8889
1	195003	36.41	1.8889
1	195549	36.51	1.8889
1	196095	36.61	1.8889
1	196641	36.71	1.8889
1	197187	36.81	1.8889
1	197733	36.91	1.8889
1	198287	37.01	1.8889
1	198833	37.11	1.8889
1	199379	37.21	1.8889
1	199925	37.31	1.8889
1	200471	37.41	1.8889
1	201017	37.51	1.8889
1	201563	37.61	1.8889
1	202109	37.71	1.8889
1	202655	37.81	1.8889
1	203201	37.91	1.8889
1	203755	38.01	1.8889
1	204301	38.11	1.8889
1	204847	38.21	1.8889
1	205393	38.31	1.8889
1	205939	38.41	1.8889
1	206485	38.51	1.8889
1	207031	38.61	1.8889
1	207577	38.71	1.8889
1	208123	38.81	1.8889
1	208669	38.91	1.8889
1	209223	39.01	1.8889
1	209769	39.11	1.8889
1	210315	39.21	1.8889
1	210861	39.31	1.8889
1	211407	39.41	1.8889
1	211953	39.51	1.8889
1	212499	39.61	1.8889
1	213045	39.71	1.8889
1	213591	39.81	1.8889
1	214137	39.91	1.8889
1	214691	40.01	1.8889
1	215237	40.11	1.8889
1	215783	40.21	1.8889
1	216329	40.31	1.8889
1	216875	40.41	1.8889
1	217421	40.51	1.8889
1	217967	40.61	1.8889
1	218513	40.71	1.8889
1	219059	40.81	1.8889
1	219605	40.91	1.8889
1	220159	41.01	1.8889
1	220705	41.11	1.8889
1	221251	41.21	1.8889
1	221797	41.31	1.8889
1	222343	41.41	1.8889
1	222889	41.51	1.8889
1	223435	41.61	1.8889
1	223981	41.71	1.8889
1	224527	41.81	1.8889
1	225073	41.91	1.8889
1	225627	42.01	1.8889
1	226173	42.11	1.8889
1	226719	42.21	1.8889
1	227265	42.31	1.8889
1	227811	42.41	1.8889
1	228357	42.51	1.8889
1	228903	42.61	1.8889
1	229449	42.71	1.8889
1	229995	42.81	1.8889
1	230541	42.91	1.8889
1	231095	43.01	1.8889
1	231641	43.11	1.8889
1	232187	43.21	1.8889
1	232733	43.31	1.8889
1	233279	43.41	1.8889
1	233825	43.51	1.8889
1	234371	43.61	1.8889
1	234917	43.71	1.8889
1	235463	43.81	1.8889
1	236009	43.91	1.8889
1	236563	44.01	1.8889
1	237109	44.11	1.8889
1	237655	44.21	1.8889
1	238201	44.31	1.8889
1	238747	44.41	1.8889
1	239293	44.51	1.8889
1	239839	44.61	1.8889
1	240385	44.71	1.8889
1	240931	44.81	1.8889
1	241477	44.91	1.8889
1	242031	45.01	1.8889
1	242577	45.11	1.8889
1	243123	45.21	1.8889
1	243669	45.31	1.8889
1	244215	45.41	1.8889
1	244761	45.51	1.8889
1	245307	45.61	1.8889
1	245853	45.71	1.8889
1	246399	45.81	1.8889
1	246945	45.91	1.8889
1	247499	46.01	1.8889
1	248045	46.11	1.8889
1	248591	46.21	1.8889
1	249137	46.31	1.8889
1	249683	46.41	1.8889
1	250229	46.51	1.8889
1	250775	46.61	1.8889
1	251321	46.71	1.8889
1	251867	46.81	1.8889
1	252413	46.91	1.8889
1	252967	47.01	1.8889
1	253513	47.11	1.8889
1	254059	47.21	1.8889
1	254605	47.31	1.8889
1	255151	47.41	1.8889
1	255697	47.51	1.8889
1	256243	47.61	1.8889
1	256789	47.71	1.8889
1	257335	47.81	1.8889
1	257881	47.91	1.8889
1	258435	48.01	1.8889
1	258981	48.11	1.8889
1	259527	48.21	1.8889
1	260073	48.31	1.8889
1	260619	48.41	1.8889
1	261165	48.51	1.8889
1	261711	48.61	1.8889
1	262257	48.71	1.8889
1	262803	48.81	1.8889
1	263349	48.91	1.8889
1	263903	49.01	1.8889
1	264449	49.11	1.8889
1	264995	49.21	1.8889
1	265541	49.31	1.8889
1	266087	49.41	1.8889
1	266633	49.51	1.8889
1	267179	49.61	1.8889
1	267725	49.71	1.8889
1	268271	49.81	1.8889
1	268817	49.91	1.8889
1	269371	50.01	1.8889
1	269917	50.11	1.8889
1	270463	50.21	1.8889
1	271009	50.31	1.8889
1	271555	50.41	1.8889
1	272101	50.51	1.8889
1	272647	50.61	1.8889
1	273193	50.71	1.8889
1	273739	50.81	1.8889
1	274285	50.91	1.8889
1	274839	51.01	1.8889
1	275385	51.11	1.8889
1	275931	51.21	1.8889
1	276477	51.31	1.8889
1	277023	51.41	1.8889
1	277569	51.51	1.8889
1	278115	51.61	1.8889
1	278661	51.71	1.8889
1	279207	51.81	1.8889
1	279753	51.91	1.8889
1	280307	52.01	1.8889
1	280853	52.11	1.8889
1	281399	52.21	1.8889
1	281945	52.31	1.8889
1	282491	52.41	1.8889
1	283037	52.51	1.8889
1	283583	52.61	1.8889
1	284129	52.71	1.8889
1	284675	52.81	1.8889
1	285221	52.91	1.8889
1	285775	53.01	1.8889
1	286321	53.11	1.8889
1	286867	53.21	1.8889
1	287413	53.31	1.8889
1	287959	53.41	1.8889
1	288505	53.51	1.8889
1	289051	53.61	1.8889
1	289597	53.71	1.8889
1	290143	53.81	1.8889
1	290689	53.91	1.8889
1	291243	54.01	1.8889
1	291789	54.11	1.8889
1	292335	54.21	1.8889
1	292881	54.31	1.8889
1	293427	54.41	1.8889
1	293973	54.51	1.8889
1	294519	54.61	1.8889
1	295065	54.71	1.8889
1	295611	54.81	1.8889
1	296157	54.91	1.8889
1	296711	55.01	1.8889
1	297257	55.11	1.8889
1	297803	55.21	1.8889
1	298349	55.31	1.8889
1	298895	55.41	1.8889
1	299441	55.51	1.8889
1	299987	55.61	1.8889
1	300533	55.71	1.8889
1	301079	55.81	1.8889
1	301625	55.91	1.8889
1	302179	56.01	1.8889
1	302725	56.11	1.8889
1	303271	56.21	1.8889
1	303817	56.31	1.8889
1	304363	56.41	1.8889
1	304909	56.51	1.8889
1	305455	56.61	1.8889
1	306001	56.71	1.8889
1	306547	56.81	1.8889
1	307093	56.91	1.8889
1	307647	57.01	1.8881
1	308193	57.11	1.88291
1	308739	57.21	1.87373
1	309285	57.31	1.86144
1	309831	57.41	1.84681
1	310377	57.51	1.83051
1	310923	57.61	1.81311
1	311469	57.71	1.79512
1	312015	57.81	1.77695
1	312561	57.91	1.75896
1	313115	58.01	1.74144
1	313661	58.11	1.72461
1	314207	58.21	1.70866
1	314753	58.31	1.69372
1	315299	58.41	1.67988
1	315845	58.51	1.66722
1	316391	58.61	1.65576
1	316937	58.71	1.64552
1	317483	58.81	1.63647
1	318029	58.91	1.62861
1	318583	59.01	1.62187
1	319129	59.11	1.61622
1	319675	59.21	1.6116
1	320221	59.31	1.60793
1	320767	59.41	1.60515
1	321313	59.51	1.60319
1	321859	59.61	1.60197
1	322405	59.71	1.60143
1	322951	59.81	1.6015
1	323497	59.91	1.6021
1	324051	60.01	1.60318
1	324597	60.11	1.60468
1	325143	60.21	1.60653
1	325689	60.31	1.60869
1	326235	60.41	1.6111
1	326781	60.51	1.61372
1	327327	60.61	1.61652
1	327873	60.71	1.61944
1	328419	60.81	1.62247
1	328965	60.91	1.62558
1	329519	61.01	1.62873
1	330065	61.11	1.6319
1	330611	61.21	1.63508
1	331157	61.31	1.63825
1	331703	61.41	1.6414
1	332249	61.51	1.64451
1	332795	61.61	1.64758
1	333341	61.71	1.6506
1	333887	61.81	1.65356
1	334433	61.91	1.65646
1	334987	62.01	1.6593
1	335533	62.11	1.66207
1	336079	62.21	1.66477
1	336625	62.31	1.66741
1	337171	62.41	1.66999
1	337717	62.51	1.6725
1	338263	62.61	1.67495
1	338809	62.71	1.67735
1	339355	62.81	1.67968
1	339901	62.91	1.68196
1	340455	63.01	1.68419
1	341001	63.11	1.68637
1	341547	63.21	1.68851
1	342093	63.31	1.6906
1	342639	63.41	1.69265
1	343185	63.51	1.69466
1	343731	63.61	1.69664
1	344277	63.71	1.69858
1	344823	63.81	1.70049
1	345369	63.91	1.70237
1	345923	64.01	1.70422
1	346469	64.11	1.70605
1	347015	64.21	1.70785
1	347561	64.31	1.70963
1	348107	64.41	1.71139
1	348653	64.51	1.71313
1	349199	64.61	1.71484
1	349745	64.71	1.71654
1	350291	64.81	1.71822
1	350837	64.91	1.71989
1	351391	65.01	1.72153
1	351937	65.11	1.72316
1	352483	65.21	1.72478
1	353029	65.31	1.72638
1	353575	65.41	1.72796
1	354121	65.51	1.72954
1	354667	65.61	1.73109
1	355213	65.71	1.73263
1	355759	65.81	1.73416
1	356305	65.91	1.73568
1	356859	66.01	1.73718
1	357405	66.11	1.73867
1	357951	66.21	1.74014
1	358497	66.31	1.7416
1	359043	66.41	1.74305
1	359589	66.51	1.74448
1	360135	66.61	1.74591
1	360681	66.71	1.74731
1	361227	66.81	1.74871
1	361773	66.91	1.75009
1	362327	67.01	1.75146
1	362873	67.11	1.75282
1	363419	67.21	1.75416
1	363965	67.31	1.75549
1	364511	67.41	1.75681
1	365057	67.51	1.75811
1	365603	67.61	1.7594
1	366149	67.71	1.76068
1	366695	67.81	1.76195
1	367241	67.91	1.76321
1	367795	68.01	1.76445
1	368341	68.11	1.76568
1	368887	68.21	1.7669
1	369433	68.31	1.76811
1	369979	68.41	1.7693
1	370525	68.51	1.77048
1	371071	68.61	1.77165
1	371617	68.71	1.77281
1	372163	68.81	1.77396
1	372709	68.91	1.7751
1	373263	69.01	1.77622
1	373809	69.11	1.77734
1	374355	69.21	1.77844
1	374901	69.31	1.77953
1	375447	69.41	1.78062
1	375993	69.51	1.78169
1	376539	69.61	1.78275
1	377085	69.71	1.7838
1	377631	69.81	1.78484
1	378177	69.91	1.78586
1	378731	70.01	1.78688
1	379277	70.11	1.78789
1	379823	70.21	1.78889
1	380369	70.31	1.78988
1	380915	70.41	1.79086
1	381461	70.51	1.79183
1	382007	70.61	1.79279
1	382553	70.71	1.79374
1	383099	70.81	1.79468
1	383645	70.91	1.79561
1	384199	71.01	1.79653
1	384745	71.11	1.79744
1	385291	71.21	1.79835
1	385837	71.31	1.79924
1	386383	71.41	1.80013
1	386929	71.51	1.801
1	387475	71.61	1.80187
1	388021	71.71	1.80273
1	388567	71.81	1.80359
1	389113	71.91	1.80443
1	389667	72.01	1.80526
1	390213	72.11	1.80609
1	390759	72.21	1.80691
1	391305	72.31	1.80772
1	391851	72.41	1.80852
1	392397	72.51	1.80932
1	392943	72.61	1.8101
1	393489	72.71	1.81088
1	394035	72.81	1.81165
1	394581	72.91	1.81242
1	395135	73.01	1.81317
1	395681	73.11	1.81392
1	396227	73.21	1.81466
1	396773	73.31	1.81539
1	397319	73.41	1.81612
1	397865	73.51	1.81684
1	398411	73.61	1.81755
1	398957	73.71	1.81826
1	399503	73.81	1.81896
1	400049	73.91	1.81965
1	400603	74.01	1.82033
1	401149	74.11	1.82101
1	401695	74.21	1.82168
1	402241	74.31	1.82234
1	402787	74.41	1.823
1	403333	74.51	1.82365
1	403879	74.61	1.8243
1	404425	74.71	1.82494
1	404971	74.81	1.82557
1	405517	74.91	1.82619
1	406071	75.01	1.82681
1	406617	75.11	1.82743
1	407163	75.21	1.82804
1	407709	75.31	1.82864
1	408255	75.41	1.82923
1	408801	75.51	1.82982
1	409347	75.61	1.83041
1	409893	75.71	1.83098
1	410439	75.81	1.83156
1	410985	75.91	1.83212
1	411539	76.01	1.83268
1	412085	76.11	1.83324
1	412631	76.21	1.83379
1	413177	76.31	1.83434
1	413723	76.41	1.83487
1	414269	76.51	1.83541
1	414815	76.61	1.83594
1	415361	76.71	1.83646
1	415907	76.81	1.83698
1	416453	76.91	1.83749
1	417007	77.01	1.838
1	417553	77.11	1.8385
1	418099	77.21	1.839
1	418645	77.31	1.83949
1	419191	77.41	1.83998
1	419737	77.51	1.84047
1	420283	77.61	1.84095
1	420829	77.71	1.84142
1	421375	77.81	1.84189
1	421921	77.91	1.84235
1	422475	78.01	1.84281
1	423021	78.11	1.84327
1	423567	78.21	1.84372
1	424113	78.31	1.84417
1	424659	78.41	1.84461
1	425205	78.51	1.84505
1	425751	78.61	1.84548
1	426297	78.71	1.84591
1	426843	78.81	1.84633
1	427389	78.91	1.84675
1	427943	79.01	1.84717
1	428489	79.11	1.84758
1	429035	79.21	1.84799
1	429581	79.31	1.8484
1	430127	79.41	1.8488
1	430673	79.51	1.84919
1	431219	79.61	1.84958
1	431765	79.71	1.84997
1	432311	79.81	1.85036
1	432857	79.91	1.85074
1	433411	80.01	1.85112
1	433957	80.11	1.85149
1	434503	80.21	1.85186
1	435049	80.31	1.85223
1	435595	80.41	1.85259
1	436141	80.51	1.85295
1	436687	80.61	1.8533
1	437233	80.71	1.85365
1	437779	80.81	1.854
1	438325	80.91	1.85435
1	438879	81.01	1.85469
1	439425	81.11	1.85503
1	439971	81.21	1.85536
1	440517	81.31	1.85569
1	441063	81.41	1.85602
1	441609	81.51	1.85635
1	442155	81.61	1.85667
1	442701	81.71	1.85699
1	443247	81.81	1.8573
1	443793	81.91	1.85761
1	444347	82.01	1.85792
1	444893	82.11	1.85823
1	445439	82.21	1.85853
1	445985	82.31	1.85883
1	446531	82.41	1.85913
1	447077	82.51	1.85942
1	447623	82.61	1.85972
1	448169	82.71	1.86
1	448715	82.81	1.86029
1	449261	82.91	1.86057
1	449815	83.01	1.86085
1	450361	83.11	1.86113
1	450907	83.21	1.8614
1	451453	83.31	1.86168
1	451999	83.41	1.86194
1	452545	83.51	1.86221
1	453091	83.61	1.86248
1	453637	83.71	1.86274
1	454183	83.81	1.86299
1	454729	83.91	1.86325
1	455283	84.01	1.8635
1	455829	84.11	1.86376
1	456375	84.21	1.864
1	456921	84.31	1.86425
1	457467	84.41	1.86449
1	458013	84.51	1.86473
1	458559	84.61	1.86497
1	459105	84.71	1.86521
1	459651	84.81	1.86544
1	460197	84.91	1.86568
1	460751	85.01	1.86591
1	461297	85.11	1.86613
1	461843	85.21	1.86636
1	462389	85.31	1.86658
1	462935	85.41	1.8668
1	463481	85.51	1.86702
1	464027	85.61	1.86724
1	464573	85.71	1.86745
1	465119	85.81	1.86766
1	465665	85.91	1.86787
1	466219	86.01	1.86808
1	466765	86.11	1.86829
1	467311	86.21	1.86849
1	467857	86.31	1.86869
1	468403	86.41	1.86889
1	468949	86.51	1.86909
1	469495	86.61	1.86928
1	470041	86.71	1.86948
1	470587	86.81	1.86967
1	471133	86.91	1.86986
1	471687	87.01	1.87005
1	472233	87.11	1.87023
1	472779	87.21	1.87042
1	473325	87.31	1.8706
1	473871	87.41	1.87078
1	474417	87.51	1.87096
1	474963	87.61	1.87114
1	475509	87.71	1.87131
1	476055	87.81	1.87149
1	476601	87.91	1.87166
1	477155	88.01	1.87183
1	477701	88.11	1.872
1	478247	88.21	1.87217
1	478793	88.31	1.87233
1	479339	88.41	1.8725
1	479885	88.51	1.87266
1	480431	88.61	1.87282
1	480977	88.71	1.87298
1	481523	88.81	1.87313
1	482069	88.91	1.87329
1	482623	89.01	1.87344
1	483169	89.11	1.8736
1	483715	89.21	1.87375
1	484261	89.31	1.8739
1	484807	89.41	1.87405
1	485353	89.51	1.87419
1	485899	89.61	1.87434
1	486445	89.71	1.87448
1	486991	89.81	1.87463
1	487537	89.91	1.87477
1	488091	90.01	1.87491
1	488637	90.11	1.87504
1	489183	90.21	1.87518
1	489729	90.31	1.87532
1	490275	90.41	1.87545
1	490821	90.51	1.87558
1	491367	90.61	1.87572
1	491913	90.71	1.87585
1	492459	90.81	1.87598
1	493005	90.91	1.8761
1	493559	91.01	1.87623
1	494105	91.11	1.87635
1	494651	91.21	1.87648
1	495197	91.31	1.8766
1	495743	91.41	1.87672
1	496289	91.51	1.87684
1	496835	91.61	1.87696
1	497381	91.71	1.87708
1	497927	91.81	1.8772
1	498473	91.91	1.87731
1	499027	92.01	1.87743
1	499573	92.11	1.87754
1	500119	92.21	1.87765
1	500665	92.31	1.87776
1	501211	92.41	1.87787
1	501757	92.51	1.87798
1	502303	92.61	1.87809
1	502849	92.71	1.8782
1	503395	92.81	1.8783
1	503941	92.91	1.87841
1	504495	93.01	1.87851
1	505041	93.11	1.87861
1	505587	93.21	1.87872
1	506133	93.31	1.87882
1	506679	93.41	1.87892
1	507225	93.51	1.87902
1	507771	93.61	1.87911
1	508317	93.71	1.87921
1	508863	93.81	1.87931
1	509409	93.91	1.8794
1	509963	94.01	1.87949
1	510509	94.11	1.87959
1	511055	94.21	1.87968
1	511601	94.31	1.87977
1	512147	94.41	1.87986
1	512693	94.51	1.87995
1	513239	94.61	1.88004
1	513785	94.71	1.88013
1	514331	94.81	1.88021
1	514877	94.91	1.8803
1	515431	95.01	1.88038
1	515977	95.11	1.88047
1	516523	95.21	1.88055
1	517069	95.31	1.88063
1	517615	95.41	1.88072
1	518161	95.51	1.8808
1	518707	95.61	1.88088
1	519253	95.71	1.88096
1	519799	95.81	1.88103
1	520345	95.91	1.88111
1	520899	96.01	1.88119
1	521445	96.11	1.88127
1	521991	96.21	1.88134
1	522537	96.31	1.88142
1	523083	96.41	1.88149
1	523629	96.51	1.88156
1	524175	96.61	1.88163
1	524721	96.71	1.88171
1	525267	96.81	1.88178
1	525813	96.91	1.88185
1	526367	97.01	1.88192
1	526913	97.11	1.88199
1	527459	97.21	1.88206
1	528005	97.31	1.88212
1	528551	97.41	1.88219
1	529097	97.51	1.88226
1	529643	97.61	1.88232
1	530189	97.71	1.88239
1	530735	97.81	1.88245
1	531281	97.91	1.88252
1	531835	98.01	1.88258
1	532381	98.11	1.88264
1	532927	98.21	1.8827
1	533473	98.31	1.88276
1	534019	98.41	1.88282
1	534565	98.51	1.88288
1	535111	98.61	1.88294
1	535657	98.71	1.883
1	536203	98.81	1.88306
1	536749	98.91	1.88312
1	537303	99.01	1.88318
1	537849	99.11	1.88323
1	538395	99.21	1.88329
1	538941	99.31	1.88334
1	539487	99.41	1.8834
1	540033	99.51	1.88345
1	540579	99.61	1.88351
1	541125	99.71	1.88356
1	541671	99.81	1.88361
1	542217	99.91	1.88367
2	113	1.11	0
2	659	1.21	0
2	1205	1.31	0
2	1751	1.41	0
2	2297	1.51	0
2	2843	1.61	0
2	3389	1.71	0
2	3935	1.81	0
2	4481	1.91	0
2	5035	2.01	0
2	5581	2.11	0
2	6127	2.21	0
2	6673	2.31	0
2	7219	2.41	0
2	7765	2.51	0
2	8311	2.61	0
2	8857	2.71	0
2	9403	2.81	0
2	9949	2.91	0
2	10503	3.01	0
2	11049	3.11	0
2	11595	3.21	0
2	12141	3.31	0
2	12687	3.41	0
2	13233	3.51	0
2	13779	3.61	0
2	14325	3.71	0
2	14871	3.81	0
2	15417	3.91	0
2	15971	4.01	0
2	16517	4.11	0
2	17063	4.21	0
2	17609	4.31	0
2	18155	4.41	0
2	18701	4.51	0
2	19247	4.61	0
2	19793	4.71	0
2	20339	4.81	0
2	20885	4.91	0
2	21439	5.01	0
2	21985	5.11	0
2	22531	5.21	0
2	23077	5.31	0
2	23623	5.41	0
2	24169	5.51	0
2	24715	5.61	0
2	25261	5.71	0
2	25807	5.81	0
2	26353	5.91	0
2	26907	6.01	0
2	27453	6.11	0
2	27999	6.21	0
2	28545	6.31	0
2	29091	6.41	0
2	29637	6.51	0
2	30183	6.61	0
2	30729	6.71	0
2	31275	6.81	0
2	31821	6.91	0
2	32375	7.01	0
2	32921	7.11	0
2	33467	7.21	0
2	34013	7.31	0
2	34559	7.41	0
2	35105	7.51	0
2	35651	7.61	0
2	36197	7.71	0
2	36743	7.81	0
2	37289	7.91	0
2	37843	8.01	0
2	38389	8.11	0
2	38935	8.21	0
2	39481	8.31	0
2	40027	8.41	0
2	40573	8.51	0
2	41119	8.61	0
2	41665	8.71	0
2	42211	8.81	0
2	42757	8.91	0
2	43311	9.01	0
2	43857	9.11	0
2	44403	9.21	0
2	44949	9.31	0
2	45495	9.41	0
2	46041	9.51	0
2	46587	9.61	0
2	47133	9.71	0
2	47679	9.81	0
2	48225	9.91	0
2	50651	10.01	0
2	51197	10.11	0
2	51743	10.21	0
2	52289	10.31	0
2	52835	10.41	0
2	53381	10.51	0
2	53927	10.61	0
2	54473	10.71	0
2	55019	10.81	0
2	55565	10.91	0
2	56119	11.01	0
2	56665	11.11	0
2	57211	11.21	0
2	57757	11.31	0
2	58303	11.41	0
2	58849	11.51	0
2	59395	11.61	0
2	59941	11.71	0
2	60487	11.81	0
2	61033	11.91	0
2	61587	12.01	0
2	62133	12.11	0
2	62679	12.21	0
2	63225	12.31	0
2	63771	12.41	0
2	64317	12.51	0
2	64863	12.61	0
2	65409	12.71	0
2	65955	12.81	0
2	66501	12.91	0
2	67055	13.01	0
2	67601	13.11	0
2	68147	13.21	0
2	68693	13.31	0
2	69239	13.41	0
2	69785	13.51	0
2	70331	13.61	0
2	70877	13.71	0
2	71423	13.81	0
2	71969	13.91	0
2	72523	14.01	0
2	73069	14.11	0
2	73615	14.21	0
2	74161	14.31	0
2	74707	14.41	0
2	75253	14.51	0
2	75799	14.61	0
2	76345	14.71	0
2	76891	14.81	0
2	77437	14.91	0
2	77991	15.01	0
2	78537	15.11	0
2	79083	15.21	0
2	79629	15.31	0
2	80175	15.41	0
2	80721	15.51	0
2	81267	15.61	0
2	81813	15.71	0
2	82359	15.81	0
2	82905	15.91	0
2	83459	16.01	0
2	84005	16.11	0
2	84551	16.21	0
2	85097	16.31	0
2	85643	16.41	0
2	86189	16.51	0
2	86735	16.61	0
2	87281	16.71	0
2	87827	16.81	0
2	88373	16.91	0
2	88927	17.01	0
2	89473	17.11	0
2	90019	17.21	0
2	90565	17.31	0
2	91111	17.41	0
2	91657	17.51	0
2	92203	17.61	0
2	92749	17.71	0
2	93295	17.81	0
2	93841	17.91	0
2	94395	18.01	0
2	94941	18.11	0
2	95487	18.21	0
2	96033	18.31	0
2	96579	18.41	0
2	97125	18.51	0
2	97671	18.61	0
2	98217	18.71	0
2	98763	18.81	0
2	99309	18.91	0
2	99863	19.01	0
2	100409	19.11	0
2	100955	19.21	0
2	101501	19.31	0
2	102047	19.41	0
2	102593	19.51	0
2	103139	19.61	0
2	103685	19.71	0
2	104231	19.81	0
2	104777	19.91	0
2	105331	20.01	0
2	105877	20.11	0
2	106423	20.21	0
2	106969	20.31	0
2	107515	20.41	0
2	108061	20.51	0
2	108607	20.61	0
2	109153	20.71	0
2	109699	20.81	0
2	110245	20.91	0
2	110799	21.01	0
2	111345	21.11	0
2	111891	21.21	0
2	112437	21.31	0
2	112983	21.41	0
2	113529	21.51	0
2	114075	21.61	0
2	114621	21.71	0
2	115167	21.81	0
2	115713	21.91	0
2	116267	22.01	0
2	116813	22.11	0
2	117359	22.21	0
2	117905	22.31	0
2	118451	22.41	0
2	118997	22.51	0
2	119543	22.61	0
2	120089	22.71	0
2	120635	22.81	0
2	121181	22.91	0
2	121735	23.01	0
2	122281	23.11	0
2	122827	23.21	0
2	123373	23.31	0
2	123919	23.41	0
2	124465	23.51	0
2	125011	23.61	0
2	125557	23.71	0
2	126103	23.81	0
2	126649	23.91	0
2	127203	24.01	0
2	127749	24.11	0
2	128295	24.21	0
2	128841	24.31	0
2	129387	24.41	0
2	129933	24.51	0
2	130479	24.61	0
2	131025	24.71	0
2	131571	24.81	0
2	132117	24.91	0
2	132671	25.01	0
2	133217	25.11	0
2	133763	25.21	0
2	134309	25.31	0
2	134855	25.41	0
2	135401	25.51	0
2	135947	25.61	0
2	136493	25.71	0
2	137039	25.81	0
2	137585	25.91	0
2	138139	26.01	0
2	138685	26.11	0
2	139231	26.21	0
2	139777	26.31	0
2	140323	26.41	0
2	140869	26.51	0
2	141415	26.61	0
2	141961	26.71	0
2	142507	26.81	0
2	143053	26.91	0
2	143607	27.01	0
2	144153	27.11	0
2	144699	27.21	0
2	145245	27.31	0
2	145791	27.41	0
2	146337	27.51	0
2	146883	27.61	0
2	147429	27.71	0
2	147975	27.81	0
2	148521	27.91	0
2	149075	28.01	0
2	149621	28.11	0
2	150167	28.21	0
2	150713	28.31	0
2	151259	28.41	0
2	151805	28.51	0
2	152351	28.61	0
2	152897	28.71	0
2	153443	28.81	0
2	153989	28.91	0
2	154543	29.01	0
2	155089	29.11	0
2	155635	29.21	0
2	156181	29.31	0
2	156727	29.41	0
2	157273	29.51	0
2	157819	29.61	0
2	158365	29.71	0
2	158911	29.81	0
2	159457	29.91	0
2	160011	30.01	0
2	160557	30.11	0
2	161103	30.21	0
2	161649	30.31	0
2	162195	30.41	0
2	162741	30.51	0
2	163287	30.61	0
2	163833	30.71	0
2	164379	30.81	0
2	164925	30.91	0
2	165479	31.01	0
2	166025	31.11	0
2	166571	31.21	0
2	167117	31.31	0
2	167663	31.41	0
2	168209	31.51	0
2	168755	31.61	0
2	169301	31.71	0
2	169847	31.81	0
2	170393	31.91	0
2	170947	32.01	0
2	171493	32.11	0
2	172039	32.21	0
2	172585	32.31	0
2	173131	32.41	0
2	173677	32.51	0
2	174223	32.61	0
2	174769	32.71	0
2	175315	32.81	0
2	175861	32.91	0
2	176415	33.01	0
2	176961	33.11	0
2	177507	33.21	0
2	178053	33.31	0
2	178599	33.41	0
2	179145	33.51	0
2	179691	33.61	0
2	180237	33.71	0
2	180783	33.81	0
2	181329	33.91	0
2	181883	34.01	0
2	182429	34.11	0
2	182975	34.21	0
2	183521	34.31	0
2	184067	34.41	0
2	184613	34.51	0
2	185159	34.61	0
2	185705	34.71	0
2	186251	34.81	0
2	186797	34.91	0
2	187351	35.01	0
2	187897	35.11	0
2	188443	35.21	0
2	188989	35.31	0
2	189535	35.41	0
2	190081	35.51	0
2	190627	35.61	0
2	191173	35.71	0
2	191719	35.81	0
2	192265	35.91	0
2	192819	36.01	0
2	193365	36.11	0
2	193911	36.21	0
2	194457	36.31	0
2	195003	36.41	0
2	195549	36.51	0
2	196095	36.61	0
2	196641	36.71	0
2	197187	36.81	0
2	197733	36.91	0
2	198287	37.01	0
2	198833	37.11	0
2	199379	37.21	0
2	199925	37.31	0
2	200471	37.41	0
2	201017	37.51	0
2	201563	37.61	0
2	202109	37.71	0
2	202655	37.81	0
2	203201	37.91	0
2	203755	38.01	0
2	204301	38.11	0
2	204847	38.21	0
2	205393	38.31	0
2	205939	38.41	0
2	206485	38.51	0
2	207031	38.61	0
2	207577	38.71	0
2	208123	38.81	0
2	208669	38.91	0
2	209223	39.01	0
2	209769	39.11	0
2	210315	39.21	0
2	210861	39.31	0
2	211407	39.41	0
2	211953	39.51	0
2	212499	39.61	0
2	213045	39.71	0
2	213591	39.81	0
2	214137	39.91	0
2	214691	40.01	0
2	215237	40.11	0
2	215783	40.21	0
2	216329	40.31	0
2	216875	40.41	0
2	217421	40.51	0
2	217967	40.61	0
2	218513	40.71	0
2	219059	40.81	0
2	219605	40.91	0
2	220159	41.01	0
2	220705	41.11	0
2	221251	41.21	0
2	221797	41.31	0
2	222343	41.41	0
2	222889	41.51	0
2	223435	41.61	0
2	223981	41.71	0
2	224527	41.81	0
2	225073	41.91	0
2	225627	42.01	0
2	226173	42.11	0
2	226719	42.21	0
2	227265	42.31	0
2	227811	42.41	0
2	228357	42.51	0
2	228903	42.61	0
2	229449	42.71	0
2	229995	42.81	0
2	230541	42.91	0
2	231095	43.01	0
2	231641	43.11	0
2	232187	43.21	0
2	232733	43.31	0
2	233279	43.41	0
2	233825	43.51	0
2	234371	43.61	0
2	234917	43.71	0
2	235463	43.81	0
2	236009	43.91	0
2	236563	44.01	0
2	237109	44.11	0
2	237655	44.21	0
2	238201	44.31	0
2	238747	44.41	0
2	239293	44.51	0
2	239839	44.61	0
2	240385	44.71	0
2	240931	44.81	0
2	241477	44.91	0
2	242031	45.01	0
2	242577	45.11	0
2	243123	45.21	0
2	243669	45.31	0
2	244215	45.41	0
2	244761	45.51	0
2	245307	45.61	0
2	245853	45.71	0
2	246399	45.81	0
2	246945	45.91	0
2	247499	46.01	0
2	248045	46.11	0
2	248591	46.21	0
2	249137	46.31	0
2	249683	46.41	0
2	250229	46.51	0
2	250775	46.61	0
2	251321	46.71	0
2	251867	46.81	0
2	252413	46.91	0
2	252967	47.01	0
2	253513	47.11	0
2	254059	47.21	0
2	254605	47.31	0
2	255151	47.41	0
2	255697	47.51	0
2	256243	47.61	0
2	256789	47.71	0
2	257335	47.81	0
2	257881	47.91	0
2	258435	48.01	0
2	258981	48.11	0
2	259527	48.21	0
2	260073	48.31	0
2	260619	48.41	0
2	261165	48.51	0
2	261711	48.61	0
2	262257	48.71	0
2	262803	48.81	0
2	263349	48.91	0
2	263903	49.01	0
2	264449	49.11	0
2	264995	49.21	0
2	265541	49.31	0
2	266087	49.41	0
2	266633	49.51	0
2	267179	49.61	0
2	267725	49.71	0
2	268271	49.81	0
2	268817	49.91	0
2	269371	50.01	0
2	269917	50.11	0
2	270463	50.21	0
2	271009	50.31	0
2	271555	50.41	0
2	272101	50.51	0
2	272647	50.61	0
2	273193	50.71	0
2	273739	50.81	0
2	274285	50.91	0
2	274839	51.01	0
2	275385	51.11	0
2	275931	51.21	0
2	276477	51.31	0
2	277023	51.41	0
2	277569	51.51	0
2	278115	51.61	0
2	278661	51.71	0
2	279207	51.81	0
2	279753	51.91	0
2	280307	52.01	0
2	280853	52.11	0
2	281399	52.21	0
2	281945	52.31	0
2	282491	52.41	0
2	283037	52.51	0
2	283583	52.61	0
2	284129	52.71	0
2	284675	52.81	0
2	285221	52.91	0
2	285775	53.01	0
2	286321	53.11	0
2	286867	53.21	0
2	287413	53.31	0
2	287959	53.41	0
2	288505	53.51	0
2	289051	53.61	0
2	289597	53.71	0
2	290143	53.81	0
2	290689	53.91	0
2	291243	54.01	0
2	291789	54.11	0
2	292335	54.21	0
2	292881	54.31	0
2	293427	54.41	0
2	293973	54.51	0
2	294519	54.61	0
2	295065	54.71	0
2	295611	54.81	0
2	296157	54.91	0
2	296711	55.01	0
2	297257	55.11	0
2	297803	55.21	0
2	298349	55.31	0
2	298895	55.41	0
2	299441	55.51	0
2	299987	55.61	0
2	300533	55.71	0
2	301079	55.81	0
2	301625	55.91	0
2	302179	56.01	0
2	302725	56.11	0
2	303271	56.21	0
2	303817	56.31	0
2	304363	56.41	0
2	304909	56.51	0
2	305455	56.61	0
2	306001	56.71	0
2	306547	56.81	0
2	307093	56.91	0
2	307647	57.01	0
2	308193	57.11	0
2	308739	57.21	0
2	309285	57.31	0
2	309831	57.41	0
2	310377	57.51	0
2	310923	57.61	0
2	311469	57.71	0
2	312015	57.81	0
2	312561	57.91	0
2	313115	58.01	0
2	313661	58.11	0
2	314207	58.21	0
2	314753	58.31	0
2	315299	58.41	0
2	315845	58.51	0
2	316391	58.61	0
2	316937	58.71	0
2	317483	58.81	0
2	318029	58.91	0
2	318583	59.01	0
2	319129	59.11	0
2	319675	59.21	0
2	320221	59.31	0
2	320767	59.41	0
2	321313	59.51	0
2	321859	59.61	0
2	322405	59.71	0
2	322951	59.81	0
2	323497	59.91	0
2	324051	60.01	0
2	324597	60.11	0
2	325143	60.21	0
2	325689	60.31	0
2	326235	60.41	0
2	326781	60.51	0
2	327327	60.61	0
2	327873	60.71	0
2	328419	60.81	0
2	328965	60.91	0
2	329519	61.01	0
2	330065	61.11	0
2	330611	61.21	0
2	331157	61.31	0
2	331703	61.41	0
2	332249	61.51	0
2	332795	61.61	0
2	333341	61.71	0
2	333887	61.81	0
2	334433	61.91	0
2	334987	62.01	0
2	335533	62.11	0
2	336079	62.21	0
2	336625	62.31	0
2	337171	62.41	0
2	337717	62.51	0
2	338263	62.61	0
2	338809	62.71	0
2	339355	62.81	0
2	339901	62.91	0
2	340455	63.01	0
2	341001	63.11	0
2	341547	63.21	0
2	342093	63.31	0
2	342639	63.41	0
2	343185	63.51	0
2	343731	63.61	0
2	344277	63.71	0
2	344823	63.81	0
2	345369	63.91	0
2	345923	64.01	0
2	346469	64.11	0
2	347015	64.21	0
2	347561	64.31	0
2	348107	64.41	0
2	348653	64.51	0
2	349199	64.61	0
2	349745	64.71	0
2	350291	64.81	0
2	350837	64.91	0
2	351391	65.01	0
2	351937	65.11	0
2	352483	65.21	0
2	353029	65.31	0
2	353575	65.41	0
2	354121	65.51	0
2	354667	65.61	0
2	355213	65.71	0
2	355759	65.81	0
2	356305	65.91	0
2	356859	66.01	0
2	357405	66.11	0
2	357951	66.21	0
2	358497	66.31	0
2	359043	66.41	0
2	359589	66.51	0
2	360135	66.61	0
2	360681	66.71	0
2	361227	66.81	0
2	361773	66.91	0
2	362327	67.01	0
2	362873	67.11	0
2	363419	67.21	0
2	363965	67.31	0
2	364511	67.41	0
2	365057	67.51	0
2	365603	67.61	0
2	366149	67.71	0
2	366695	67.81	0
2	367241	67.91	0
2	367795	68.01	0
2	368341	68.11	0
2	368887	68.21	0
2	369433	68.31	0
2	369979	68.41	0
2	370525	68.51	0
2	371071	68.61	0
2	371617	68.71	0
2	372163	68.81	0
2	372709	68.91	0
2	373263	69.01	0
2	373809	69.11	0
2	374355	69.21	0
2	374901	69.31	0
2	375447	69.41	0
2	375993	69.51	0
2	376539	69.61	0
2	377085	69.71	0
2	377631	69.81	0
2	378177	69.91	0
2	378731	70.01	0
2	379277	70.11	0
2	379823	70.21	0
2	380369	70.31	0
2	380915	70.41	0
2	381461	70.51	0
2	382007	70.61	0
2	382553	70.71	0
2	383099	70.81	0
2	383645	70.91	0
2	384199	71.01	0
2	384745	71.11	0
2	385291	71.21	0
2	385837	71.31	0
2	386383	71.41	0
2	386929	71.51	0
2	387475	71.61	0
2	388021	71.71	0
2	388567	71.81	0
2	389113	71.91	0
2	389667	72.01	0
2	390213	72.11	0
2	390759	72.21	0
2	391305	72.31	0
2	391851	72.41	0
2	392397	72.51	0
2	392943	72.61	0
2	393489	72.71	0
2	394035	72.81	0
2	394581	72.91	0
2	395135	73.01	0
2	395681	73.11	0
2	396227	73.21	0
2	396773	73.31	0
2	397319	73.41	0
2	397865	73.51	0
2	398411	73.61	0
2	398957	73.71	0
2	399503	73.81	0
2	400049	73.91	0
2	400603	74.01	0
2	401149	74.11	0
2	401695	74.21	0
2	402241	74.31	0
2	402787	74.41	0
2	403333	74.51	0
2	403879	74.61	0
2	404425	74.71	0
2	404971	74.81	0
2	405517	74.91	0
2	406071	75.01	0
2	406617	75.11	0
2	407163	75.21	0
2	407709	75.31	0
2	408255	75.41	0
2	408801	75.51	0
2	409347	75.61	0
2	409893	75.71	0
2	410439	75.81	0
2	410985	75.91	0
2	411539	76.01	0
2	412085	76.11	0
2	412631	76.21	0
2	413177	76.31	0
2	413723	76.41	0
2	414269	76.51	0
2	414815	76.61	0
2	415361	76.71	0
2	415907	76.81	0
2	416453	76.91	0
2	417007	77.01	0
2	417553	77.11	0
2	418099	77.21	0
2	418645	77.31	0
2	419191	77.41	0
2	419737	77.51	0
2	420283	77.61	0
2	420829	77.71	0
2	421375	77.81	0
2	421921	77.91	0
2	422475	78.01	0
2	423021	78.11	0
2	423567	78.21	0
2	424113	78.31	0
2	424659	78.41	0
2	425205	78.51	0
2	425751	78.61	0
2	426297	78.71	0
2	426843	78.81	0
2	427389	78.91	0
2	427943	79.01	0
2	428489	79.11	0
2	429035	79.21	0
2	429581	79.31	0
2	430127	79.41	0
2	430673	79.51	0
2	431219	79.61	0
2	431765	79.71	0
2	432311	79.81	0
2	432857	79.91	0
2	433411	80.01	0
2	433957	80.11	0
2	434503	80.21	0
2	435049	80.31	0
2	435595	80.41	0
2	436141	80.51	0
2	436687	80.61	0
2	437233	80.71	0
2	437779	80.81	0
2	438325	80.91	0
2	438879	81.01	0
2	439425	81.11	0
2	439971	81.21	0
2	440517	81.31	0
2	441063	81.41	0
2	441609	81.51	0
2	442155	81.61	0
2	442701	81.71	0
2	443247	81.81	0
2	443793	81.91	0
2	444347	82.01	0
2	444893	82.11	0
2	445439	82.21	0
2	445985	82.31	0
2	446531	82.41	0
2	447077	82.51	0
2	447623	82.61	0
2	448169	82.71	0
2	448715	82.81	0
2	449261	82.91	0
2	449815	83.01	0
2	450361	83.11	0
2	450907	83.21	0
2	451453	83.31	0
2	451999	83.41	0
2	452545	83.51	0
2	453091	83.61	0
2	453637	83.71	0
2	454183	83.81	0
2	454729	83.91	0
2	455283	84.01	0
2	455829	84.11	0
2	456375	84.21	0
2	456921	84.31	0
2	457467	84.41	0
2	458013	84.51	0
2	458559	84.61	0
2	459105	84.71	0
2	459651	84.81	0
2	460197	84.91	0
2	460751	85.01	0
2	461297	85.11	0
2	461843	85.21	0
2	462389	85.31	0
2	462935	85.41	0
2	463481	85.51	0
2	464027	85.61	0
2	464573	85.71	0
2	465119	85.81	0
2	465665	85.91	0
2	466219	86.01	0
2	466765	86.11	0
2	467311	86.21	0
2	467857	86.31	0
2	468403	86.41	0
2	468949	86.51	0
2	469495	86.61	0
2	470041	86.71	0
2	470587	86.81	0
2	471133	86.91	0
2	471687	87.01	0
2	472233	87.11	0
2	472779	87.21	0
2	473325	87.31	0
2	473871	87.41	0
2	474417	87.51	0
2	474963	87.61	0
2	475509	87.71	0
2	476055	87.81	0
2	476601	87.91	0
2	477155	88.01	0
2	477701	88.11	0
2	478247	88.21	0
2	478793	88.31	0
2	479339	88.41	0
2	479885	88.51	0
2	480431	88.61	0
2	480977	88.71	0
2	481523	88.81	0
2	482069	88.91	0
2	482623	89.01	0
2	483169	89.11	0
2	483715	89.21	0
2	484261	89.31	0
2	484807	89.41	0
2	485353	89.51	0
2	485899	89.61	0
2	486445	89.71	0
2	486991	89.81	0
2	487537	89.91	0
2	488091	90.01	0
2	488637	90.11	0
2	489183	90.21	0
2	489729	90.31	0
2	490275	90.41	0
2	490821	90.51	0
2	491367	90.61	0
2	491913	90.71	0
2	492459	90.81	0
2	493005	90.91	0
2	493559	91.01	0
2	494105	91.11	0
2	494651	91.21	0
2	495197	91.31	0
2	495743	91.41	0
2	496289	91.51	0
2	496835	91.61	0
2	497381	91.71	0
2	497927	91.81	0
2	498473	91.91	0
2	499027	92.01	0
2	499573	92.11	0
2	500119	92.21	0
2	500665	92.31	0
2	501211	92.41	0
2	501757	92.51	0
2	502303	92.61	0
2	502849	92.71	0
2	503395	92.81	0
2	503941	92.91	0
2	504495	93.01	0
2	505041	93.11	0
2	505587	93.21	0
2	506133	93.31	0
2	506679	93.41	0
2	507225	93.51	0
2	507771	93.61	0
2	508317	93.71	0
2	508863	93.81	0
2	509409	93.91	0
2	509963	94.01	0
2	510509	94.11	0
2	511055	94.21	0
2	511601	94.31	0
2	512147	94.41	0
2	512693	94.51	0
2	513239	94.61	0
2	513785	94.71	0
2	514331	94.81	0
2	514877	94.91	0
2	515431	95.01	0
2	515977	95.11	0
2	516523	95.21	0
2	517069	95.31	0
2	517615	95.41	0
2	518161	95.51	0
2	518707	95.61	0
2	519253	95.71	0
2	519799	95.81	0
2	520345	95.91	0
2	520899	96.01	0
2	521445	96.11	0
2	521991	96.21	0
2	522537	96.31	0
2	523083	96.41	0
2	523629	96.51	0
2	524175	96.61	0
2	524721	96.71	0
2	525267	96.81	0
2	525813	96.91	0
2	526367	97.01	0
2	526913	97.11	0
2	527459	97.21	0
2	528005	97.31	0
2	528551	97.41	0
2	529097	97.51	0
2	529643	97.61	0
2	530189	97.71	0
2	530735	97.81	0
2	531281	97.91	0
2	531835	98.01	0
2	532381	98.11	0
2	532927	98.21	0
2	533473	98.31	0
2	534019	98.41	0
2	534565	98.51	0
2	535111	98.61	0
2	535657	98.71	0
2	536203	98.81	0
2	536749	98.91	0
2	537303	99.01	0
2	537849	99.11	0
2	538395	99.21	0
2	538941	99.31	0
2	539487	99.41	0
2	540033	99.51	0
2	540579	99.61	0
2	541125	99.71	0
2	541671	99.81	0
2	542217	99.91	0
3	113	1.11	0.000179096
3	659	1.21	0.000340852
3	1205	1.31	0.000467435
3	1751	1.41	0.000562893
3	2297	1.51	0.000631106
3	2843	1.61	0.000675745
3	3389	1.71	0.000700245
3	3935	1.81	0.000707784
3	4481	1.91	0.000701273
3	5035	2.01	0.000683354
3	5581	2.11	0.000656398
3	6127	2.21	0.000622512
3	6673	2.31	0.000583548
3	7219	2.41	0.000541117
3	7765	2.51	0.000496604
3	8311	2.61	0.000451181
3	8857	2.71	0.000405825
3	9403	2.81	0.00036134
3	9949	2.91	0.000318365
3	10503	3.01	0.0002774
3	11049	3.11	0.00023882
3	11595	3.21	0.000202887
3	12141	3.31	0.00016977
3	12687	3.41	0.000139558
3	13233	3.51	0.000112271
3	13779	3.61	8.78717e-05
3	14325	3.71	6.628e-05
3	14871	3.81	4.73785e-05
3	15417	3.91	3.1023e-05
3	15971	4.01	1.70493e-05
3	16517	4.11	5.28023e-06
3	17063	4.21	-4.46922e-06
3	17609	4.31	-1.2387e-05
3	18155	4.41	-1.86602e-05
3	18701	4.51	-2.34717e-05
3	19247	4.61	-2.69978e-05
3	19793	4.71	-2.94062e-05
3	20339	4.81	-3.08545e-05
3	20885	4.91	-3.14892e-05
3	21439	5.01	-3.14451e-05
3	21985	5.11	-3.0845e-05
3	22531	5.21	-2.97994e-05
3	23077	5.31	-2.84072e-05
3	23623	5.41	-2.67556e-05
3	24169	5.51	-2.49208e-05
3	24715	5.61	-2.29687e-05
3	25261	5.71	-2.09553e-05
3	25807	5.81	-1.89277e-05
3	26353	5.91	-1.6925e-05
3	26907	6.01	-1.49784e-05
3	27453	6.11	-1.31129e-05
3	27999	6.21	-1.13474e-05
3	28545	6.31	-9.69553e-06
3	29091	6.41	-8.16651e-06
3	29637	6.51	-6.76571e-06
3	30183	6.61	-5.49522e-06
3	30729	6.71	-4.35441e-06
3	31275	6.81	-3.34045e-06
3	31821	6.91	-2.44874e-06
3	32375	7.01	-1.6733e-06
3	32921	7.11	-1.00716e-06
3	33467	7.21	-4.42628e-07
3	34013	7.31	2.84224e-08
3	34559	7.41	4.14339e-07
3	35105	7.51	7.23492e-07
3	35651	7.61	9.6413e-07
3	36197	7.71	1.14424e-06
3	36743	7.81	1.27148e-06
3	37289	7.91	1.35305e-06
3	37843	8.01	1.3957e-06
3	38389	8.11	1.40565e-06
3	38935	8.21	1.3886e-06
3	39481	8.31	1.34971e-06
3	40027	8.41	1.2936e-06
3	40573	8.51	1.22437e-06
3	41119	8.61	1.14561e-06
3	41665	8.71	1.06046e-06
3	42211	8.81	9.71582e-07
3	42757	8.91	8.81246e-07
3	43311	9.01	7.91334e-07
3	43857	9.11	7.03381e-07
3	44403	9.21	6.18613e-07
3	44949	9.31	5.37979e-07
3	45495	9.41	4.62183e-07
3	46041	9.51	3.91714e-07
3	46587	9.61	3.26878e-07
3	47133	9.71	2.67827e-07
3	47679	9.81	2.14581e-07
3	48225	9.91	1.67052e-07
3	50651	10.01	1.25066e-07
3	51197	10.11	8.83794e-08
3	51743	10.21	5.66978e-08
3	52289	10.31	2.96922e-08
3	52835	10.41	7.00453e-09
3	53381	10.51	-1.17325e-08
3	53927	10.61	-2.68933e-08
3	54473	10.71	-3.88482e-08
3	55019	10.81	-4.79581e-08
3	55565	10.91	-5.45704e-08
3	56119	11.01	-5.90177e-08
3	56665	11.11	-6.16069e-08
3	57211	11.21	-6.26265e-08
3	57757	11.31	-6.23395e-08
3	58303	11.41	-6.09859e-08
3	58849	11.51	-5.87811e-08
3	59395	11.61	-5.59183e-08
3	59941	11.71	-5.25674e-08
3	60487	11.81	-4.88761e-08
3	61033	11.91	-4.4971e-08
3	61587	12.01	-4.09599e-08
3	62133	12.11	-3.69354e-08
3	62679	12.21	-3.29713e-08
3	63225	12.31	-2.9128e-08
3	63771	12.41	-2.54531e-08
3	64317	12.51	-2.19821e-08
3	64863	12.61	-1.87399e-08
3	65409	12.71	-1.57428e-08
3	65955	12.81	-1.30029e-08
3	66501	12.91	-1.05217e-08
3	67055	13.01	-8.29772e-09
3	67601	13.11	-6.32454e-09
3	68147	13.21	-4.59224e-09
3	68693	13.31	-3.08802e-09
3	69239	13.41	-1.79838e-09
3	69785	13.51	-7.08411e-10
3	70331	13.61	1.98241e-10
3	70877	13.71	9.37916e-10
3	71423	13.81	1.52767e-09
3	71969	13.91	1.98384e-09
3	72523	14.01	2.32276e-09
3	73069	14.11	2.55937e-09
3	73615	14.21	2.70788e-09
3	74161	14.31	2.78249e-09
3	74707	14.41	2.79243e-09
3	75253	14.51	2.7498e-09
3	75799	14.61	2.66525e-09
3	76345	14.71	2.54872e-09
3	76891	14.81	2.40803e-09
3	77437	14.91	2.24887e-09
3	77991	15.01	2.07763e-09
3	78537	15.11	1.89999e-09
3	79083	15.21	1.72236e-09
3	79629	15.31	1.54472e-09
3	80175	15.41	1.37064e-09
3	80721	15.51	1.20295e-09
3	81267	15.61	1.04379e-09
3	81813	15.71	8.94573e-10
3	82359	15.81	7.56017e-10
3	82905	15.91	6.29541e-10
3	83459	16.01	5.13012e-10
3	84005	16.11	4.09273e-10
3	84551	16.21	3.16902e-10
3	85097	16.31	2.3519e-10
3	85643	16.41	1.63425e-10
3	86189	16.51	1.02318e-10
3	86735	16.61	4.9738e-11
3	87281	16.71	5.68434e-12
3	87827	16.81	-3.05533e-11
3	88373	16.91	-5.8975e-11
3	88927	17.01	-8.10019e-11
3	89473	17.11	-9.80549e-11
3	90019	17.21	-1.11555e-10
3	90565	17.31	-1.18661e-10
3	91111	17.41	-1.23634e-10
3	91657	17.51	-1.23634e-10
3	92203	17.61	-1.23634e-10
3	92749	17.71	-1.21503e-10
3	93295	17.81	-1.14397e-10
3	93841	17.91	-1.07292e-10
3	94395	18.01	-1.00187e-10
3	94941	18.11	-9.30811e-11
3	95487	18.21	-8.59757e-11
3	96033	18.31	-7.88702e-11
3	96579	18.41	-7.17648e-11
3	97125	18.51	-6.46594e-11
3	97671	18.61	-5.7554e-11
3	98217	18.71	-5.04485e-11
3	98763	18.81	-4.33431e-11
3	99309	18.91	-3.62377e-11
3	99863	19.01	-2.91323e-11
3	100409	19.11	-2.20268e-11
3	100955	19.21	-1.7053e-11
3	101501	19.31	-1.49214e-11
3	102047	19.41	-1.35003e-11
3	102593	19.51	-1.27898e-11
3	103139	19.61	-1.13687e-11
3	103685	19.71	-9.9476e-12
3	104231	19.81	-9.23706e-12
3	104777	19.91	-8.52651e-12
3	105331	20.01	-7.81597e-12
3	105877	20.11	-7.10543e-12
3	106423	20.21	-6.39488e-12
3	106969	20.31	-5.68434e-12
3	107515	20.41	-4.9738e-12
3	108061	20.51	-4.26326e-12
3	108607	20.61	-4.26326e-12
3	109153	20.71	-3.55271e-12
3	109699	20.81	-3.55271e-12
3	110245	20.91	-2.84217e-12
3	110799	21.01	-2.84217e-12
3	111345	21.11	-2.84217e-12
3	111891	21.21	-2.13163e-12
3	112437	21.31	-2.13163e-12
3	112983	21.41	-2.13163e-12
3	113529	21.51	-1.42109e-12
3	114075	21.61	-1.42109e-12
3	114621	21.71	-1.42109e-12
3	115167	21.81	-1.42109e-12
3	115713	21.91	-1.42109e-12
3	116267	22.01	-7.10543e-13
3	116813	22.11	-7.10543e-13
3	117359	22.21	-7.10543e-13
3	117905	22.31	-7.10543e-13
3	118451	22.41	-7.10543e-13
3	118997	22.51	-7.10543e-13
3	119543	22.61	-7.10543e-13
3	120089	22.71	-7.10543e-13
3	120635	22.81	-7.10543e-13
3	121181	22.91	-7.10543e-13
3	121735	23.01	0
3	122281	23.11	0
3	122827	23.21	0
3	123373	23.31	0
3	123919	23.41	0
3	124465	23.51	0
3	125011	23.61	0
3	125557	23.71	0
3	126103	23.81	0
3	126649	23.91	0
3	127203	24.01	0
3	127749	24.11	0
3	128295	24.21	0
3	128841	24.31	0
3	129387	24.41	0
3	129933	24.51	0
3	130479	24.61	0
3	131025	24.71	0
3	131571	24.81	0
3	132117	24.91	0
3	132671	25.01	0
3	133217	25.11	0
3	133763	25.21	0
3	134309	25.31	0
3	134855	25.41	0
3	135401	25.51	0
3	135947	25.61	0
3	136493	25.71	0
3	137039	25.81	0
3	137585	25.91	0
3	138139	26.01	0
3	138685	26.11	0
3	139231	26.21	0
3	139777	26.31	0
3	140323	26.41	0
3	140869	26.51	0
3	141415	26.61	0
3	141961	26.71	0
3	142507	26.81	0
3	143053	26.91	0
3	143607	27.01	0
3	144153	27.11	0
3	144699	27.21	0
3	145245	27.31	0
3	145791	27.41	0
3	146337	27.51	0
3	146883	27.61	0
3	147429	27.71	0
3	147975	27.81	0
3	148521	27.91	0
3	149075	28.01	0
3	149621	28.11	0
3	150167	28.21	0
3	150713	28.31	0
3	151259	28.41	0
3	151805	28.51	0
3	152351	28.61	0
3	152897	28.71	0
3	153443	28.81	0
3	153989	28.91	0
3	154543	29.01	0
3	155089	29.11	0
3	155635	29.21	0
3	156181	29.31	0
3	156727	29.41	0
3	157273	29.51	0
3	157819	29.61	0
3	158365	29.71	0
3	158911	29.81	0
3	159457	29.91	0
3	160011	30.01	0
3	160557	30.11	0
3	161103	30.21	0
3	161649	30.31	0
3	162195	30.41	0
3	162741	30.51	0
3	163287	30.61	0
3	163833	30.71	0
3	164379	30.81	0
3	164925	30.91	0
3	165479	31.01	0
3	166025	31.11	0
3	166571	31.21	0
3	167117	31.31	0
3	167663	31.41	0
3	168209	31.51	0
3	168755	31.61	0
3	169301	31.71	0
3	169847	31.81	0
3	170393	31.91	0
3	170947	32.01	0
3	171493	32.11	0
3	172039	32.21	0
3	172585	32.31	0
3	173131	32.41	0
3	173677	32.51	0
3	174223	32.61	0
3	174769	32.71	0
3	175315	32.81	0
3	175861	32.91	0
3	176415	33.01	0
3	176961	33.11	0
3	177507	33.21	0
3	178053	33.31	0
3	178599	33.41	0
3	179145	33.51	0
3	179691	33.61	0
3	180237	33.71	0
3	180783	33.81	0
3	181329	33.91	0
3	181883	34.01	0
3	182429	34.11	0
3	182975	34.21	0
3	183521	34.31	0
3	184067	34.41	0
3	184613	34.51	0
3	185159	34.61	0
3	185705	34.71	0
3	186251	34.81	0
3	186797	34.91	0
3	187351	35.01	0
3	187897	35.11	0
3	188443	35.21	0
3	188989	35.31	0
3	189535	35.41	0
3	190081	35.51	0
3	190627	35.61	0
3	191173	35.71	0
3	191719	35.81	0
3	192265	35.91	0
3	192819	36.01	0
3	193365	36.11	0
3	193911	36.21	0
3	194457	36.31	0
3	195003	36.41	0
3	195549	36.51	0
3	196095	36.61	0
3	196641	36.71	0
3	197187	36.81	0
3	197733	36.91	0
3	198287	37.01	0
3	198833	37.11	0
3	199379	37.21	0
3	199925	37.31	0
3	200471	37.41	0
3	201017	37.51	0
3	201563	37.61	0
3	202109	37.71	0
3	202655	37.81	0
3	203201	37.91	0
3	203755	38.01	0
3	204301	38.11	0
3	204847	38.21	0
3	205393	38.31	0
3	205939	38.41	0
3	206485	38.51	0
3	207031	38.61	0
3	207577	38.71	0
3	208123	38.81	0
3	208669	38.91	0
3	209223	39.01	0
3	209769	39.11	0
3	210315	39.21	0
3	210861	39.31	0
3	211407	39.41	0
3	211953	39.51	0
3	212499	39.61	0
3	213045	39.71	0
3	213591	39.81	0
3	214137	39.91	0
3	214691	40.01	0
3	215237	40.11	0
3	215783	40.21	0
3	216329	40.31	0
3	216875	40.41	0
3	217421	40.51	0
3	217967	40.61	0
3	218513	40.71	0
3	219059	40.81	0
3	219605	40.91	0
3	220159	41.01	0
3	220705	41.11	0
3	221251	41.21	0
3	221797	41.31	0
3	222343	41.41	0
3	222889	41.51	0
3	223435	41.61	0
3	223981	41.71	0
3	224527	41.81	0
3	225073	41.91	0
3	225627	42.01	0
3	226173	42.11	0
3	226719	42.21	0
3	227265	42.31	0
3	227811	42.41	0
3	228357	42.51	0
3	228903	42.61	0
3	229449	42.71	0
3	229995	42.81	0
3	230541	42.91	0
3	231095	43.01	0
3	231641	43.11	0
3	232187	43.21	0
3	232733	43.31	0
3	233279	43.41	0
3	233825	43.51	0
3	234371	43.61	0
3	234917	43.71	0
3	235463	43.81	0
3	236009	43.91	0
3	236563	44.01	0
3	237109	44.11	0
3	237655	44.21	0
3	238201	44.31	0
3	238747	44.41	0
3	239293	44.51	0
3	239839	44.61	0
3	240385	44.71	0
3	240931	44.81	0
3	241477	44.91	0
3	242031	45.01	0
3	242577	45.11	0
3	243123	45.21	0
3	243669	45.31	0
3	244215	45.41	0
3	244761	45.51	0
3	245307	45.61	0
3	245853	45.71	0
3	246399	45.81	0
3	246945	45.91	0
3	247499	46.01	0
3	248045	46.11	0
3	248591	46.21	0
3	249137	46.31	0
3	249683	46.41	0
3	250229	46.51	0
3	250775	46.61	0
3	251321	46.71	0
3	251867	46.81	0
3	252413	46.91	0
3	252967	47.01	0
3	253513	47.11	0
3	254059	47.21	0
3	254605	47.31	0
3	255151	47.41	0
3	255697	47.51	0
3	256243	47.61	0
3	256789	47.71	0
3	257335	47.81	0
3	257881	47.91	0
3	258435	48.01	0
3	258981	48.11	0
3	259527	48.21	0
3	260073	48.31	0
3	260619	48.41	0
3	261165	48.51	0
3	261711	48.61	0
3	262257	48.71	0
3	262803	48.81	0
3	263349	48.91	0
3	263903	49.01	0
3	264449	49.11	0
3	264995	49.21	0
3	265541	49.31	0
3	266087	49.41	0
3	266633	49.51	0
3	267179	49.61	0
3	267725	49.71	0
3	268271	49.81	0
3	268817	49.91	0
3	269371	50.01	0
3	269917	50.11	0
3	270463	50.21	0
3	271009	50.31	0
3	271555	50.41	0
3	272101	50.51	0
3	272647	50.61	0
3	273193	50.71	0
3	273739	50.81	0
3	274285	50.91	0
3	274839	51.01	0
3	275385	51.11	0
3	275931	51.21	0
3	276477	51.31	0
3	277023	51.41	0
3	277569	51.51	0
3	278115	51.61	0
3	278661	51.71	0
3	279207	51.81	0
3	279753	51.91	0
3	280307	52.01	0
3	280853	52.11	0
3	281399	52.21	0
3	281945	52.31	0
3	282491	52.41	0
3	283037	52.51	0
3	283583	52.61	0
3	284129	52.71	0
3	284675	52.81	0
3	285221	52.91	0
3	285775	53.01	0
3	286321	53.11	0
3	286867	53.21	0
3	287413	53.31	0
3	287959	53.41	0
3	288505	53.51	0
3	289051	53.61	0
3	289597	53.71	0
[...]
104	394998	73	4
104	400466	74	4
104	405934	75	4
104	411402	76	4
104	416870	77	4
104	422338	78	4
104	427806	79	4
104	433274	80	4
104	438742	81	4
104	444210	82	4
104	449678	83	4
104	455146	84	4
104	460614	85	4
104	466082	86	4
104	471550	87	4
104	477018	88	4
104	482486	89	4
104	487954	90	4
104	493422	91	4
104	498890	92	4
104	504358	93	4
104	509826	94	4
104	515294	95	4
104	520762	96	4
104	526230	97	4
104	531698	98	4
104	537166	99	4
104	542634	100	4
105	4898	2	0.021849
105	10366	3	0.02497
105	15834	4	0.02497
105	21302	5	0.02497
105	26770	6	0.02497
105	32238	7	0.02497
105	37706	8	0.02497
105	43174	9	0.02497
105	48643	10	0.02497
105	55982	11	0.026983520367
105	61450	12	0.02497
105	66918	13	0.02497
105	72386	14	0.02497
105	77854	15	0.02497
105	83322	16	0.02497
105	88790	17	0.02497
105	94258	18	0.02497
105	99726	19	0.02497
105	105194	20	0.02497
105	110662	21	0.02497
105	116130	22	0.02497
105	121598	23	0.02497
105	127066	24	0.02497
105	132534	25	0.02497
105	138002	26	0.02497
105	143470	27	0.02497
105	148938	28	0.02497
105	154406	29	0.02497
105	159874	30	0.02497
105	165342	31	0.02497
105	170810	32	0.02497
105	176278	33	0.02497
105	181746	34	0.02497
105	187214	35	0.02497
105	192682	36	0.02497
105	198150	37	0.02497
105	203618	38	0.02497
105	209086	39	0.02497
105	214554	40	0.02497
105	220022	41	0.02497
105	225490	42	0.02497
105	230958	43	0.02497
105	236426	44	0.02497
105	241894	45	0.02497
105	247362	46	0.02497
105	252830	47	0.02497
105	258298	48	0.02497
105	263766	49	0.02497
105	269234	50	0.02497
105	274702	51	0.02497
105	280170	52	0.02497
105	285638	53	0.02497
105	291106	54	0.02497
105	296574	55	0.02497
105	302042	56	0.02497
105	307510	57	0.02497
105	312978	58	0.02497
105	318446	59	0.02497
105	323914	60	0.02497
105	329382	61	0.02497
105	334850	62	0.02497
105	340318	63	0.02497
105	345786	64	0.02497
105	351254	65	0.02497
105	356722	66	0.02497
105	362190	67	0.02497
105	367658	68	0.02497
105	373126	69	0.02497
105	378594	70	0.02497
105	384062	71	0.02497
105	389530	72	0.02497
105	394998	73	0.02497
105	400466	74	0.02497
105	405934	75	0.02497
105	411402	76	0.02497
105	416870	77	0.02497
105	422338	78	0.02497
105	427806	79	0.02497
105	433274	80	0.02497
105	438742	81	0.02497
105	444210	82	0.02497
105	449678	83	0.02497
105	455146	84	0.02497
105	460614	85	0.02497
105	466082	86	0.02497
105	471550	87	0.02497
105	477018	88	0.02497
105	482486	89	0.02497
105	487954	90	0.02497
105	493422	91	0.02497
105	498890	92	0.02497
105	504358	93	0.02497
105	509826	94	0.02497
105	515294	95	0.02497
105	520762	96	0.02497
105	526230	97	0.02497
105	531698	98	0.02497
105	537166	99	0.02497
105	542634	100	0.02497
106	4898	2	0
106	10366	3	0
106	15834	4	0
106	21302	5	0
106	26770	6	0
106	32238	7	0
106	37706	8	0
106	43174	9	0
106	48643	10	0
106	55982	11	0
106	61450	12	0
106	66918	13	0
106	72386	14	0
106	77854	15	0
106	83322	16	0
106	88790	17	0
106	94258	18	0
106	99726	19	0
106	105194	20	0
106	110662	21	0
106	116130	22	0
106	121598	23	0
106	127066	24	0
106	132534	25	0
106	138002	26	0
106	143470	27	0
106	148938	28	0
106	154406	29	0
106	159874	30	0
106	165342	31	0
106	170810	32	0
106	176278	33	0
106	181746	34	0
106	187214	35	0
106	192682	36	0
106	198150	37	0
106	203618	38	0
106	209086	39	0
106	214554	40	0
106	220022	41	0
106	225490	42	0
106	230958	43	0
106	236426	44	0
106	241894	45	0
106	247362	46	0
106	252830	47	0
106	258298	48	0
106	263766	49	0
106	269234	50	0
106	274702	51	0
106	280170	52	0
106	285638	53	0
106	291106	54	0
106	296574	55	0
106	302042	56	0
106	307510	57	0
106	312978	58	0
106	318446	59	0
106	323914	60	0
106	329382	61	0
106	334850	62	0
106	340318	63	0
106	345786	64	0
106	351254	65	0
106	356722	66	0
106	362190	67	0
106	367658	68	0
106	373126	69	0
106	378594	70	0
106	384062	71	0
106	389530	72	0
106	394998	73	0
106	400466	74	0
106	405934	75	0
106	411402	76	0
106	416870	77	0
106	422338	78	0
106	427806	79	0
106	433274	80	0
106	438742	81	0
106	444210	82	0
106	449678	83	0
106	455146	84	0
106	460614	85	0
106	466082	86	0
106	471550	87	0
106	477018	88	0
106	482486	89	0
106	487954	90	0
106	493422	91	0
106	498890	92	0
106	504358	93	0
106	509826	94	0
106	515294	95	0
106	520762	96	0
106	526230	97	0
106	531698	98	0
106	537166	99	0
106	542634	100	0
107	4899	2	5
107	10367	3	5
107	15835	4	5
107	21303	5	5
107	26771	6	5
107	32239	7	5
107	37707	8	5
107	43175	9	5
107	48644	10	5
107	55983	11	5
107	61451	12	5
107	66919	13	5
107	72387	14	5
107	77855	15	5
107	83323	16	5
107	88791	17	5
107	94259	18	5
107	99727	19	5
107	105195	20	5
107	110663	21	5
107	116131	22	5
107	121599	23	5
107	127067	24	5
107	132535	25	5
107	138003	26	5
107	143471	27	5
107	148939	28	5
107	154407	29	5
107	159875	30	5
107	165343	31	5
107	170811	32	5
107	176279	33	5
107	181747	34	5
107	187215	35	5
107	192683	36	5
107	198151	37	5
107	203619	38	5
107	209087	39	5
107	214555	40	5
107	220023	41	5
107	225491	42	5
107	230959	43	5
107	236427	44	5
107	241895	45	5
107	247363	46	5
107	252831	47	5
107	258299	48	5
107	263767	49	5
107	269235	50	5
107	274703	51	5
107	280171	52	5
107	285639	53	5
107	291107	54	5
107	296575	55	5
107	302043	56	5
107	307511	57	5
107	312979	58	5
107	318447	59	5
107	323915	60	5
107	329383	61	5
107	334851	62	5
107	340319	63	5
107	345787	64	5
107	351255	65	5
107	356723	66	5
107	362191	67	5
107	367659	68	5
107	373127	69	5
107	378595	70	5
107	384063	71	5
107	389531	72	5
107	394999	73	5
107	400467	74	5
107	405935	75	5
107	411403	76	5
107	416871	77	5
107	422339	78	5
107	427807	79	5
107	433275	80	5
107	438743	81	5
107	444211	82	5
107	449679	83	5
107	455147	84	5
107	460615	85	5
107	466083	86	5
107	471551	87	5
107	477019	88	5
107	482487	89	5
107	487955	90	5
107	493423	91	5
107	498891	92	5
107	504359	93	5
107	509827	94	5
107	515295	95	5
107	520763	96	5
107	526231	97	5
107	531699	98	5
107	537167	99	5
107	542635	100	5
108	4899	2	0.021848
108	10367	3	0.02497
108	15835	4	0.02497
108	21303	5	0.02497
108	26771	6	0.02497
108	32239	7	0.02497
108	37707	8	0.02497
108	43175	9	0.02497
108	48644	10	0.02497
108	55983	11	0.027009520366
108	61451	12	0.02497
108	66919	13	0.02497
108	72387	14	0.02497
108	77855	15	0.02497
108	83323	16	0.02497
108	88791	17	0.02497
108	94259	18	0.02497
108	99727	19	0.02497
108	105195	20	0.02497
108	110663	21	0.02497
108	116131	22	0.02497
108	121599	23	0.02497
108	127067	24	0.02497
108	132535	25	0.02497
108	138003	26	0.02497
108	143471	27	0.02497
108	148939	28	0.02497
108	154407	29	0.02497
108	159875	30	0.02497
108	165343	31	0.02497
108	170811	32	0.02497
108	176279	33	0.02497
108	181747	34	0.02497
108	187215	35	0.02497
108	192683	36	0.02497
108	198151	37	0.02497
108	203619	38	0.02497
108	209087	39	0.02497
108	214555	40	0.02497
108	220023	41	0.02497
108	225491	42	0.02497
108	230959	43	0.02497
108	236427	44	0.02497
108	241895	45	0.02497
108	247363	46	0.02497
108	252831	47	0.02497
108	258299	48	0.02497
108	263767	49	0.02497
108	269235	50	0.02497
108	274703	51	0.02497
108	280171	52	0.02497
108	285639	53	0.02497
108	291107	54	0.02497
108	296575	55	0.02497
108	302043	56	0.02497
108	307511	57	0.02497
108	312979	58	0.02497
108	318447	59	0.02497
108	323915	60	0.02497
108	329383	61	0.02497
108	334851	62	0.02497
108	340319	63	0.02497
108	345787	64	0.02497
108	351255	65	0.02497
108	356723	66	0.02497
108	362191	67	0.02497
108	367659	68	0.02497
108	373127	69	0.02497
108	378595	70	0.02497
108	384063	71	0.02497
108	389531	72	0.02497
108	394999	73	0.02497
108	400467	74	0.02497
108	405935	75	0.02497
108	411403	76	0.02497
108	416871	77	0.02497
108	422339	78	0.02497
108	427807	79	0.02497
108	433275	80	0.02497
108	438743	81	0.02497
108	444211	82	0.02497
108	449679	83	0.02497
108	455147	84	0.02497
108	460615	85	0.02497
108	466083	86	0.02497
108	471551	87	0.02497
108	477019	88	0.02497
108	482487	89	0.02497
108	487955	90	0.02497
108	493423	91	0.02497
108	498891	92	0.02497
108	504359	93	0.02497
108	509827	94	0.02497
108	515295	95	0.02497
108	520763	96	0.02497
108	526231	97	0.02497
108	531699	98	0.02497
108	537167	99	0.02497
108	542635	100	0.02497
109	4899	2	0
109	10367	3	0
109	15835	4	0
109	21303	5	0
109	26771	6	0
109	32239	7	0
109	37707	8	0
109	43175	9	0
109	48644	10	0
109	55983	11	0
109	61451	12	0
109	66919	13	0
109	72387	14	0
109	77855	15	0
109	83323	16	0
109	88791	17	0
109	94259	18	0
109	99727	19	0
109	105195	20	0
109	110663	21	0
109	116131	22	0
109	121599	23	0
109	127067	24	0
109	132535	25	0
109	138003	26	0
109	143471	27	0
109	148939	28	0
109	154407	29	0
109	159875	30	0
109	165343	31	0
109	170811	32	0
109	176279	33	0
109	181747	34	0
109	187215	35	0
109	192683	36	0
109	198151	37	0
109	203619	38	0
109	209087	39	0
109	214555	40	0
109	220023	41	0
109	225491	42	0
109	230959	43	0
109	236427	44	0
109	241895	45	0
109	247363	46	0
109	252831	47	0
109	258299	48	0
109	263767	49	0
109	269235	50	0
109	274703	51	0
109	280171	52	0
109	285639	53	0
109	291107	54	0
109	296575	55	0
109	302043	56	0
109	307511	57	0
109	312979	58	0
109	318447	59	0
109	323915	60	0
109	329383	61	0
109	334851	62	0
109	340319	63	0
109	345787	64	0
109	351255	65	0
109	356723	66	0
109	362191	67	0
109	367659	68	0
109	373127	69	0
109	378595	70	0
109	384063	71	0
109	389531	72	0
109	394999	73	0
109	400467	74	0
109	405935	75	0
109	411403	76	0
109	416871	77	0
109	422339	78	0
109	427807	79	0
109	433275	80	0
109	438743	81	0
109	444211	82	0
109	449679	83	0
109	455147	84	0
109	460615	85	0
109	466083	86	0
109	471551	87	0
109	477019	88	0
109	482487	89	0
109	487955	90	0
109	493423	91	0
109	498891	92	0
109	504359	93	0
109	509827	94	0
109	515295	95	0
109	520763	96	0
109	526231	97	0
109	531699	98	0
109	537167	99	0
109	542635	100	0
110	4900	2	6
110	10368	3	6
110	15836	4	6
110	21304	5	6
110	26772	6	6
110	32240	7	6
110	37708	8	6
110	43176	9	6
110	48645	10	6
110	55984	11	6
110	61452	12	6
110	66920	13	6
110	72388	14	6
110	77856	15	6
110	83324	16	6
110	88792	17	6
110	94260	18	6
110	99728	19	6
110	105196	20	6
110	110664	21	6
110	116132	22	6
110	121600	23	6
110	127068	24	6
110	132536	25	6
110	138004	26	6
110	143472	27	6
110	148940	28	6
110	154408	29	6
110	159876	30	6
110	165344	31	6
110	170812	32	6
110	176280	33	6
110	181748	34	6
110	187216	35	6
110	192684	36	6
110	198152	37	6
110	203620	38	6
110	209088	39	6
110	214556	40	6
110	220024	41	6
110	225492	42	6
110	230960	43	6
110	236428	44	6
110	241896	45	6
110	247364	46	6
110	252832	47	6
110	258300	48	6
110	263768	49	6
110	269236	50	6
110	274704	51	6
110	280172	52	6
110	285640	53	6
110	291108	54	6
110	296576	55	6
110	302044	56	6
110	307512	57	6
110	312980	58	6
110	318448	59	6
110	323916	60	6
110	329384	61	6
110	334852	62	6
110	340320	63	6
110	345788	64	6
110	351256	65	6
110	356724	66	6
110	362192	67	6
110	367660	68	6
110	373128	69	6
110	378596	70	6
110	384064	71	6
110	389532	72	6
110	395000	73	6
110	400468	74	6
110	405936	75	6
110	411404	76	6
110	416872	77	6
110	422340	78	6
110	427808	79	6
110	433276	80	6
110	438744	81	6
110	444212	82	6
110	449680	83	6
110	455148	84	6
110	460616	85	6
110	466084	86	6
110	471552	87	6
110	477020	88	6
110	482488	89	6
110	487956	90	6
110	493424	91	6
110	498892	92	6
110	504360	93	6
110	509828	94	6
110	515296	95	6
110	520764	96	6
110	526232	97	6
110	531700	98	6
110	537168	99	6
110	542636	100	6
111	4900	2	0.021849
111	10368	3	0.02497
111	15836	4	0.02497
111	21304	5	0.02497
111	26772	6	0.02497
111	32240	7	0.02497
111	37708	8	0.02497
111	43176	9	0.02497
111	48645	10	0.02497
111	55984	11	0.026950480337
111	61452	12	0.02497
111	66920	13	0.02497
111	72388	14	0.02497
111	77856	15	0.02497
111	83324	16	0.02497
111	88792	17	0.02497
111	94260	18	0.02497
111	99728	19	0.02497
111	105196	20	0.02497
111	110664	21	0.02497
111	116132	22	0.02497
111	121600	23	0.02497
111	127068	24	0.02497
111	132536	25	0.02497
111	138004	26	0.02497
111	143472	27	0.02497
111	148940	28	0.02497
111	154408	29	0.02497
111	159876	30	0.02497
111	165344	31	0.02497
111	170812	32	0.02497
111	176280	33	0.02497
111	181748	34	0.02497
111	187216	35	0.02497
111	192684	36	0.02497
111	198152	37	0.02497
111	203620	38	0.02497
111	209088	39	0.02497
111	214556	40	0.02497
111	220024	41	0.02497
111	225492	42	0.02497
111	230960	43	0.02497
111	236428	44	0.02497
111	241896	45	0.02497
111	247364	46	0.02497
111	252832	47	0.02497
111	258300	48	0.02497
111	263768	49	0.02497
111	269236	50	0.02497
111	274704	51	0.02497
111	280172	52	0.02497
111	285640	53	0.02497
111	291108	54	0.02497
111	296576	55	0.02497
111	302044	56	0.02497
111	307512	57	0.02497
111	312980	58	0.02497
111	318448	59	0.02497
111	323916	60	0.02497
111	329384	61	0.02497
111	334852	62	0.02497
111	340320	63	0.02497
111	345788	64	0.02497
111	351256	65	0.02497
111	356724	66	0.02497
111	362192	67	0.02497
111	367660	68	0.02497
111	373128	69	0.02497
111	378596	70	0.02497
111	384064	71	0.02497
111	389532	72	0.02497
111	395000	73	0.02497
111	400468	74	0.02497
111	405936	75	0.02497
111	411404	76	0.02497
111	416872	77	0.02497
111	422340	78	0.02497
111	427808	79	0.02497
111	433276	80	0.02497
111	438744	81	0.02497
111	444212	82	0.02497
111	449680	83	0.02497
111	455148	84	0.02497
111	460616	85	0.02497
111	466084	86	0.02497
111	471552	87	0.02497
111	477020	88	0.02497
111	482488	89	0.02497
111	487956	90	0.02497
111	493424	91	0.02497
111	498892	92	0.02497
111	504360	93	0.02497
111	509828	94	0.02497
111	515296	95	0.02497
111	520764	96	0.02497
111	526232	97	0.02497
111	531700	98	0.02497
111	537168	99	0.02497
111	542636	100	0.02497
112	4900	2	0
112	10368	3	0
112	15836	4	0
112	21304	5	0
112	26772	6	0
112	32240	7	0
112	37708	8	0
112	43176	9	0
112	48645	10	0
112	55984	11	0
112	61452	12	0
112	66920	13	0
112	72388	14	0
112	77856	15	0
112	83324	16	0
112	88792	17	0
112	94260	18	0
112	99728	19	0
112	105196	20	0
112	110664	21	0
112	116132	22	0
112	121600	23	0
112	127068	24	0
112	132536	25	0
112	138004	26	0
112	143472	27	0
112	148940	28	0
112	154408	29	0
112	159876	30	0
112	165344	31	0
112	170812	32	0
112	176280	33	0
112	181748	34	0
112	187216	35	0
112	192684	36	0
112	198152	37	0
112	203620	38	0
112	209088	39	0
112	214556	40	0
112	220024	41	0
112	225492	42	0
112	230960	43	0
112	236428	44	0
112	241896	45	0
112	247364	46	0
112	252832	47	0
112	258300	48	0
112	263768	49	0
112	269236	50	0
112	274704	51	0
112	280172	52	0
112	285640	53	0
112	291108	54	0
112	296576	55	0
112	302044	56	0
112	307512	57	0
112	312980	58	0
112	318448	59	0
112	323916	60	0
112	329384	61	0
112	334852	62	0
112	340320	63	0
112	345788	64	0
112	351256	65	0
112	356724	66	0
112	362192	67	0
112	367660	68	0
112	373128	69	0
112	378596	70	0
112	384064	71	0
112	389532	72	0
112	395000	73	0
112	400468	74	0
112	405936	75	0
112	411404	76	0
112	416872	77	0
112	422340	78	0
112	427808	79	0
112	433276	80	0
112	438744	81	0
112	444212	82	0
112	449680	83	0
112	455148	84	0
112	460616	85	0
112	466084	86	0
112	471552	87	0
112	477020	88	0
112	482488	89	0
112	487956	90	0
112	493424	91	0
112	498892	92	0
112	504360	93	0
112	509828	94	0
112	515296	95	0
112	520764	96	0
112	526232	97	0
112	531700	98	0
112	537168	99	0
112	542636	100	0
113	4901	2	7
113	10369	3	7
113	15837	4	7
113	21305	5	7
113	26773	6	7
113	32241	7	7
113	37709	8	7
113	43177	9	7
113	48646	10	7
113	55985	11	7
113	61453	12	7
113	66921	13	7
113	72389	14	7
113	77857	15	7
113	83325	16	7
113	88793	17	7
113	94261	18	7
113	99729	19	7
113	105197	20	7
113	110665	21	7
113	116133	22	7
113	121601	23	7
113	127069	24	7
113	132537	25	7
113	138005	26	7
113	143473	27	7
113	148941	28	7
113	154409	29	7
113	159877	30	7
113	165345	31	7
113	170813	32	7
113	176281	33	7
113	181749	34	7
113	187217	35	7
113	192685	36	7
113	198153	37	7
113	203621	38	7
113	209089	39	7
113	214557	40	7
113	220025	41	7
113	225493	42	7
113	230961	43	7
113	236429	44	7
113	241897	45	7
113	247365	46	7
113	252833	47	7
113	258301	48	7
113	263769	49	7
113	269237	50	7
113	274705	51	7
113	280173	52	7
113	285641	53	7
113	291109	54	7
113	296577	55	7
113	302045	56	7
113	307513	57	7
113	312981	58	7
113	318449	59	7
113	323917	60	7
113	329385	61	7
113	334853	62	7
113	340321	63	7
113	345789	64	7
113	351257	65	7
113	356725	66	7
113	362193	67	7
113	367661	68	7
113	373129	69	7
113	378597	70	7
113	384065	71	7
113	389533	72	7
113	395001	73	7
113	400469	74	7
113	405937	75	7
113	411405	76	7
113	416873	77	7
113	422341	78	7
113	427809	79	7
113	433277	80	7
113	438745	81	7
113	444213	82	7
113	449681	83	7
113	455149	84	7
113	460617	85	7
113	466085	86	7
113	471553	87	7
113	477021	88	7
113	482489	89	7
113	487957	90	7
113	493425	91	7
113	498893	92	7
113	504361	93	7
113	509829	94	7
113	515297	95	7
113	520765	96	7
113	526233	97	7
113	531701	98	7
113	537169	99	7
113	542637	100	7
114	4901	2	0.021849
114	10369	3	0.02497
114	15837	4	0.02497
114	21305	5	0.02497
114	26773	6	0.02497
114	32241	7	0.02497
114	37709	8	0.02497
114	43177	9	0.02497
114	48646	10	0.02497
114	55985	11	0.026976480336
114	61453	12	0.02497
114	66921	13	0.02497
114	72389	14	0.02497
114	77857	15	0.02497
114	83325	16	0.02497
114	88793	17	0.02497
114	94261	18	0.02497
114	99729	19	0.02497
114	105197	20	0.02497
114	110665	21	0.02497
114	116133	22	0.02497
114	121601	23	0.02497
114	127069	24	0.02497
114	132537	25	0.02497
114	138005	26	0.02497
114	143473	27	0.02497
114	148941	28	0.02497
114	154409	29	0.02497
114	159877	30	0.02497
114	165345	31	0.02497
114	170813	32	0.02497
114	176281	33	0.02497
114	181749	34	0.02497
114	187217	35	0.02497
114	192685	36	0.02497
114	198153	37	0.02497
114	203621	38	0.02497
114	209089	39	0.02497
114	214557	40	0.02497
114	220025	41	0.02497
114	225493	42	0.02497
114	230961	43	0.02497
114	236429	44	0.02497
114	241897	45	0.02497
114	247365	46	0.02497
114	252833	47	0.02497
114	258301	48	0.02497
114	263769	49	0.02497
114	269237	50	0.02497
114	274705	51	0.02497
114	280173	52	0.02497
114	285641	53	0.02497
114	291109	54	0.02497
114	296577	55	0.02497
114	302045	56	0.02497
114	307513	57	0.02497
114	312981	58	0.02497
114	318449	59	0.02497
114	323917	60	0.02497
114	329385	61	0.02497
114	334853	62	0.02497
114	340321	63	0.02497
114	345789	64	0.02497
114	351257	65	0.02497
114	356725	66	0.02497
114	362193	67	0.02497
114	367661	68	0.02497
114	373129	69	0.02497
114	378597	70	0.02497
114	384065	71	0.02497
114	389533	72	0.02497
114	395001	73	0.02497
114	400469	74	0.02497
114	405937	75	0.02497
114	411405	76	0.02497
114	416873	77	0.02497
114	422341	78	0.02497
114	427809	79	0.02497
114	433277	80	0.02497
114	438745	81	0.02497
114	444213	82	0.02497
114	449681	83	0.02497
114	455149	84	0.02497
114	460617	85	0.02497
114	466085	86	0.02497
114	471553	87	0.02497
114	477021	88	0.02497
114	482489	89	0.02497
114	487957	90	0.02497
114	493425	91	0.02497
114	498893	92	0.02497
114	504361	93	0.02497
114	509829	94	0.02497
114	515297	95	0.02497
114	520765	96	0.02497
114	526233	97	0.02497
114	531701	98	0.02497
114	537169	99	0.02497
114	542637	100	0.02497
115	4901	2	0
115	10369	3	0
115	15837	4	0
115	21305	5	0
115	26773	6	0
115	32241	7	0
115	37709	8	0
115	43177	9	0
115	48646	10	0
115	55985	11	0
115	61453	12	0
115	66921	13	0
115	72389	14	0
115	77857	15	0
115	83325	16	0
115	88793	17	0
115	94261	18	0
115	99729	19	0
115	105197	20	0
115	110665	21	0
115	116133	22	0
115	121601	23	0
115	127069	24	0
115	132537	25	0
115	138005	26	0
115	143473	27	0
115	148941	28	0
115	154409	29	0
115	159877	30	0
115	165345	31	0
115	170813	32	0
115	176281	33	0
115	181749	34	0
115	187217	35	0
115	192685	36	0
115	198153	37	0
115	203621	38	0
115	209089	39	0
115	214557	40	0
115	220025	41	0
115	225493	42	0
115	230961	43	0
115	236429	44	0
115	241897	45	0
115	247365	46	0
115	252833	47	0
115	258301	48	0
115	263769	49	0
115	269237	50	0
115	274705	51	0
115	280173	52	0
115	285641	53	0
115	291109	54	0
115	296577	55	0
115	302045	56	0
115	307513	57	0
115	312981	58	0
115	318449	59	0
115	323917	60	0
115	329385	61	0
115	334853	62	0
115	340321	63	0
115	345789	64	0
115	351257	65	0
115	356725	66	0
115	362193	67	0
115	367661	68	0
115	373129	69	0
115	378597	70	0
115	384065	71	0
115	389533	72	0
115	395001	73	0
115	400469	74	0
115	405937	75	0
115	411405	76	0
115	416873	77	0
115	422341	78	0
115	427809	79	0
115	433277	80	0
115	438745	81	0
115	444213	82	0
115	449681	83	0
115	455149	84	0
115	460617	85	0
115	466085	86	0
115	471553	87	0
115	477021	88	0
115	482489	89	0
115	487957	90	0
115	493425	91	0
115	498893	92	0
115	504361	93	0
115	509829	94	0
115	515297	95	0
115	520765	96	0
115	526233	97	0
115	531701	98	0
115	537169	99	0
115	542637	100	0

