file 5325812 1720698831                                         
version 3
run BreakRanksNoGui-835-20240711-13:53:22-289143
attr configname BreakRanksNoGui
attr datetime 20240711-13:53:22
attr datetimef 20240711-135322
attr experiment BreakRanksNoGui
attr inifile omnetpp.ini
attr iterationvars "$nCars=16, $platoonSize=16, $nLanes=1, $ploegH=0.5, $controller=1, $headway=0.1, $leaderHeadway=1.2, $leaderSpeed=130, $breakRanksSafetyDistance=10, $minSpeed=120, $maxSpeed=140, $beaconInterval=0.1, $priority=4, $packetSize=200, $sController=\"CACC\", $0=2, $1=0"
attr iterationvarsd nCars=16/platoonSize=16/nLanes=1/ploegH=0.5/controller=1/headway=0.1/leaderHeadway=1.2/leaderSpeed=130/breakRanksSafetyDistance=10/minSpeed=120/maxSpeed=140/beaconInterval=0.1/priority=4/packetSize=200/sController=CACC/2/0
attr iterationvarsf nCars=16,platoonSize=16,nLanes=1,ploegH=0.5,controller=1,headway=0.1,leaderHeadway=1.2,leaderSpeed=130,breakRanksSafetyDistance=10,minSpeed=120,maxSpeed=140,beaconInterval=0.1,priority=4,packetSize=200,sController=CACC,2,0-
attr measurement "$nCars=16, $platoonSize=16, $nLanes=1, $ploegH=0.5, $controller=1, $headway=0.1, $leaderHeadway=1.2, $leaderSpeed=130, $breakRanksSafetyDistance=10, $minSpeed=120, $maxSpeed=140, $beaconInterval=0.1, $priority=4, $packetSize=200, $sController=\"CACC\", $0=2, $1=0"
attr network Highway
attr processid 289143
attr repetition 5
attr replication #5
attr resultdir results
attr runnumber 835
attr seedset 5
itervar beaconInterval 0.1
itervar breakRanksSafetyDistance 10
itervar controller 1
itervar headway 0.1
itervar leaderHeadway 1.2
itervar leaderSpeed 130
itervar maxSpeed 140
itervar minSpeed 120
itervar nCars 16
itervar nLanes 1
itervar packetSize 200
itervar platoonSize 16
itervar ploegH 0.5
itervar priority 4
itervar sController "\"CACC\""
config image-path ../../../veins/images
config repeat 10
config extends BreakRanks
config *.manager.command "\"sumo\""
config *.manager.ignoreGuiCommands true
config output-vector-file "results/BreakRanks_1_0.1_130_10_16 /result_5.vec"
config output-scalar-file "results/BreakRanks_1_0.1_130_10_16 /result_5.sca"
config extends Platooning
config *.node[*].scenario_type "\"BreakRanksScenario\""
config *.manager.command "\"sumo-gui\""
config *.node[*].scenario_type "\"SimpleScenario\""
config cmdenv-express-mode true
config cmdenv-autoflush true
config cmdenv-status-frequency 15s
config num-rngs 6
config network Highway
config debug-on-errors true
config print-undisposed true
config *.playgroundSizeX 65000m
config *.playgroundSizeY 25000m
config *.playgroundSizeZ 50m
config sim-time-limit "100 s"
config *.annotations.draw false
config *.obstacles.debug false
config *.world.useTorus false
config *.world.use2D false
config *.manager.updateInterval 0.01s
config *.manager.host "\"localhost\""
config *.manager.moduleType "\"org.car2x.plexe.PlatoonCar\""
config *.manager.moduleName "\"node\""
config *.manager.moduleDisplayString "\"\""
config *.manager.autoShutdown true
config *.manager.margin 25
config *.connectionManager.sendDirect true
config *.connectionManager.maxInterfDist 2600m
config *.connectionManager.drawMaxIntfDist false
config *.**.nic.mac1609_4.useServiceChannel false
config *.**.nic.mac1609_4.txPower 100mW
config *.**.nic.mac1609_4.bitrate 6Mbps
config *.**.nic.mac1609_4.useAcks true
config *.**.nic.mac1609_4.ackErrorRate 0.0
config *.**.nic.mac1609_4.frameErrorRate 0.0
config *.**.nic.phy80211p.minPowerLevel -94dBm
config *.**.nic.phy80211p.maxTXPower 100mW
config *.**.nic.phy80211p.useNoiseFloor true
config *.**.nic.phy80211p.noiseFloor -95dBm
config *.**.nic.phy80211p.decider "xmldoc(\"config.xml\")"
config *.**.nic.phy80211p.analogueModels "xmldoc(\"config.xml\")"
config *.**.nic.phy80211p.usePropagationDelay true
config *.node[*].mobility.x 0
config *.node[*].mobility.y 0
config *.node[*].mobility.z 1.895
config seed-set 5
config **.seed 5
config *.node[*].prot.rng-0 2
config *.node[*].appl.rng-0 3
config *.node[*].scenario.rng-0 4
config **.traffic.rng-0 5
config *.manager.configFile "\"./sumocfg/freeway.sumo.cfg\""
config *.manager.launchConfig "xmldoc(\"./sumocfg/freeway.launchd.xml\")"
config **.numberOfCars 16
config **.numberOfCarsPerPlatoon 16
config **.numberOfLanes 1
config *.node[*].helper_type "\"PositionHelper\""
config *.node[*].scenario.caccC1 0.5
config *.node[*].scenario.caccXi 1
config *.node[*].scenario.caccOmegaN "0.2 Hz"
config *.node[*].scenario.caccSpacing "2 m"
config *.node[*].scenario.engineTau "0.5 s"
config *.node[*].scenario.ploegH 0.5s
config *.node[*].scenario.ploegKp 0.2
config *.node[*].scenario.ploegKd 0.7
config *.node[*].scenario.useRealisticEngine false
config *.node[*].scenario.useControllerAcceleration true
config *.node[*].scenario.nLanes 1
config **.numericController 1
config **.headway 0.1s
config *.node[*].scenario.accHeadway 0.1s
config *.node[*].scenario.leaderHeadway 1.2s
config *.node[*].scenario.leaderSpeed 130kmph
config *.node[*].appl_type "\"SimplePlatooningApp\""
config *.node[*].appl.*.scalar-recording true
config *.node[*].appl.*.vector-recording true
config *.node[0].appl.breakRanksSafetyDistance 10m
config *.node[*].appl.minSpeed 120kmph
config *.node[*].appl.maxSpeed 140kmph
config *.node[*].protocol_type "\"SimplePlatooningBeaconing\""
config *.node[*].prot.*.scalar-recording true
config *.node[*].prot.*.vector-recording true
config *.node[*].prot.beaconingInterval 0.1s
config *.node[*].prot.priority 4
config *.node[*].prot.packetSize 200
config **.traffic_type "\"PlatoonsTrafficManager\""
config **.traffic.platoonInsertTime "1 s"
config **.traffic.platoonInsertSpeed 130kmph
config **.traffic.nCars 16
config **.traffic.platoonSize 16
config **.traffic.nLanes 1
config **.traffic.platooningVType "\"vtypeauto\""
config **.traffic.controller "\"CACC\""
config **.traffic.platoonInsertDistance 2m
config **.traffic.platoonInsertHeadway 0s
config **.traffic.platoonLeaderHeadway 1.2s
config **.scalar-recording false
config **.vector-recording false

vector 0 Highway.node[0].appl distance ETV
vector 1 Highway.node[0].appl relativeSpeed ETV
vector 2 Highway.node[0].appl nodeId ETV
vector 3 Highway.node[0].appl acceleration ETV
vector 4 Highway.node[0].appl controllerAcceleration ETV
vector 5 Highway.node[0].appl speed ETV
vector 6 Highway.node[0].appl posx ETV
vector 7 Highway.node[0].appl posy ETV
vector 8 Highway.node[1].appl distance ETV
vector 9 Highway.node[1].appl relativeSpeed ETV
vector 10 Highway.node[1].appl nodeId ETV
vector 11 Highway.node[1].appl acceleration ETV
vector 12 Highway.node[1].appl controllerAcceleration ETV
vector 13 Highway.node[1].appl speed ETV
vector 14 Highway.node[1].appl posx ETV
vector 15 Highway.node[1].appl posy ETV
vector 16 Highway.node[2].appl distance ETV
vector 17 Highway.node[2].appl relativeSpeed ETV
vector 18 Highway.node[2].appl nodeId ETV
vector 19 Highway.node[2].appl acceleration ETV
vector 20 Highway.node[2].appl controllerAcceleration ETV
vector 21 Highway.node[2].appl speed ETV
vector 22 Highway.node[2].appl posx ETV
vector 23 Highway.node[2].appl posy ETV
vector 24 Highway.node[3].appl distance ETV
vector 25 Highway.node[3].appl relativeSpeed ETV
vector 26 Highway.node[3].appl nodeId ETV
vector 27 Highway.node[3].appl acceleration ETV
vector 28 Highway.node[3].appl controllerAcceleration ETV
vector 29 Highway.node[3].appl speed ETV
vector 30 Highway.node[3].appl posx ETV
vector 31 Highway.node[3].appl posy ETV
vector 32 Highway.node[4].appl distance ETV
vector 33 Highway.node[4].appl relativeSpeed ETV
vector 34 Highway.node[4].appl nodeId ETV
vector 35 Highway.node[4].appl acceleration ETV
vector 36 Highway.node[4].appl controllerAcceleration ETV
vector 37 Highway.node[4].appl speed ETV
vector 38 Highway.node[4].appl posx ETV
vector 39 Highway.node[4].appl posy ETV
vector 40 Highway.node[5].appl distance ETV
vector 41 Highway.node[5].appl relativeSpeed ETV
vector 42 Highway.node[5].appl nodeId ETV
vector 43 Highway.node[5].appl acceleration ETV
vector 44 Highway.node[5].appl controllerAcceleration ETV
vector 45 Highway.node[5].appl speed ETV
vector 46 Highway.node[5].appl posx ETV
vector 47 Highway.node[5].appl posy ETV
vector 48 Highway.node[6].appl distance ETV
vector 49 Highway.node[6].appl relativeSpeed ETV
vector 50 Highway.node[6].appl nodeId ETV
vector 51 Highway.node[6].appl acceleration ETV
vector 52 Highway.node[6].appl controllerAcceleration ETV
vector 53 Highway.node[6].appl speed ETV
vector 54 Highway.node[6].appl posx ETV
vector 55 Highway.node[6].appl posy ETV
vector 56 Highway.node[7].appl distance ETV
vector 57 Highway.node[7].appl relativeSpeed ETV
vector 58 Highway.node[7].appl nodeId ETV
vector 59 Highway.node[7].appl acceleration ETV
vector 60 Highway.node[7].appl controllerAcceleration ETV
vector 61 Highway.node[7].appl speed ETV
vector 62 Highway.node[7].appl posx ETV
vector 63 Highway.node[7].appl posy ETV
vector 64 Highway.node[8].appl distance ETV
vector 65 Highway.node[8].appl relativeSpeed ETV
vector 66 Highway.node[8].appl nodeId ETV
vector 67 Highway.node[8].appl acceleration ETV
vector 68 Highway.node[8].appl controllerAcceleration ETV
vector 69 Highway.node[8].appl speed ETV
vector 70 Highway.node[8].appl posx ETV
vector 71 Highway.node[8].appl posy ETV
vector 72 Highway.node[9].appl distance ETV
vector 73 Highway.node[9].appl relativeSpeed ETV
vector 74 Highway.node[9].appl nodeId ETV
vector 75 Highway.node[9].appl acceleration ETV
vector 76 Highway.node[9].appl controllerAcceleration ETV
vector 77 Highway.node[9].appl speed ETV
vector 78 Highway.node[9].appl posx ETV
vector 79 Highway.node[9].appl posy ETV
vector 80 Highway.node[10].appl distance ETV
vector 81 Highway.node[10].appl relativeSpeed ETV
vector 82 Highway.node[10].appl nodeId ETV
vector 83 Highway.node[10].appl acceleration ETV
vector 84 Highway.node[10].appl controllerAcceleration ETV
vector 85 Highway.node[10].appl speed ETV
vector 86 Highway.node[10].appl posx ETV
vector 87 Highway.node[10].appl posy ETV
vector 88 Highway.node[11].appl distance ETV
vector 89 Highway.node[11].appl relativeSpeed ETV
vector 90 Highway.node[11].appl nodeId ETV
vector 91 Highway.node[11].appl acceleration ETV
vector 92 Highway.node[11].appl controllerAcceleration ETV
vector 93 Highway.node[11].appl speed ETV
vector 94 Highway.node[11].appl posx ETV
vector 95 Highway.node[11].appl posy ETV
vector 96 Highway.node[12].appl distance ETV
vector 97 Highway.node[12].appl relativeSpeed ETV
vector 98 Highway.node[12].appl nodeId ETV
vector 99 Highway.node[12].appl acceleration ETV
vector 100 Highway.node[12].appl controllerAcceleration ETV
vector 101 Highway.node[12].appl speed ETV
vector 102 Highway.node[12].appl posx ETV
vector 103 Highway.node[12].appl posy ETV
vector 104 Highway.node[13].appl distance ETV
vector 105 Highway.node[13].appl relativeSpeed ETV
vector 106 Highway.node[13].appl nodeId ETV
vector 107 Highway.node[13].appl acceleration ETV
vector 108 Highway.node[13].appl controllerAcceleration ETV
vector 109 Highway.node[13].appl speed ETV
vector 110 Highway.node[13].appl posx ETV
vector 111 Highway.node[13].appl posy ETV
vector 112 Highway.node[14].appl distance ETV
vector 113 Highway.node[14].appl relativeSpeed ETV
vector 114 Highway.node[14].appl nodeId ETV
vector 115 Highway.node[14].appl acceleration ETV
vector 116 Highway.node[14].appl controllerAcceleration ETV
vector 117 Highway.node[14].appl speed ETV
vector 118 Highway.node[14].appl posx ETV
vector 119 Highway.node[14].appl posy ETV
vector 120 Highway.node[15].appl distance ETV
vector 121 Highway.node[15].appl relativeSpeed ETV
vector 122 Highway.node[15].appl nodeId ETV
vector 123 Highway.node[15].appl acceleration ETV
vector 124 Highway.node[15].appl controllerAcceleration ETV
vector 125 Highway.node[15].appl speed ETV
vector 126 Highway.node[15].appl posx ETV
vector 127 Highway.node[15].appl posy ETV
vector 128 Highway.node[8].prot frontDelay ETV
vector 129 Highway.node[8].prot frontDelayId ETV
vector 130 Highway.node[13].prot frontDelay ETV
vector 131 Highway.node[13].prot frontDelayId ETV
vector 132 Highway.node[2].prot frontDelay ETV
vector 133 Highway.node[2].prot frontDelayId ETV
vector 134 Highway.node[6].prot frontDelay ETV
vector 135 Highway.node[6].prot frontDelayId ETV
vector 136 Highway.node[12].prot frontDelay ETV
vector 137 Highway.node[12].prot frontDelayId ETV
vector 138 Highway.node[3].prot frontDelay ETV
vector 139 Highway.node[3].prot frontDelayId ETV
vector 140 Highway.node[4].prot frontDelay ETV
vector 141 Highway.node[4].prot frontDelayId ETV
vector 142 Highway.node[14].prot frontDelay ETV
vector 143 Highway.node[14].prot frontDelayId ETV
vector 144 Highway.node[5].prot frontDelay ETV
vector 145 Highway.node[5].prot frontDelayId ETV
vector 146 Highway.node[10].prot frontDelay ETV
vector 147 Highway.node[10].prot frontDelayId ETV
vector 148 Highway.node[9].prot frontDelay ETV
vector 149 Highway.node[9].prot frontDelayId ETV
vector 150 Highway.node[11].prot frontDelay ETV
vector 151 Highway.node[11].prot frontDelayId ETV
vector 152 Highway.node[1].prot leaderDelay ETV
vector 153 Highway.node[1].prot leaderDelayId ETV
vector 154 Highway.node[1].prot frontDelay ETV
vector 155 Highway.node[1].prot frontDelayId ETV
vector 156 Highway.node[8].prot leaderDelay ETV
vector 157 Highway.node[8].prot leaderDelayId ETV
vector 158 Highway.node[9].prot leaderDelay ETV
vector 159 Highway.node[9].prot leaderDelayId ETV
vector 160 Highway.node[10].prot leaderDelay ETV
vector 161 Highway.node[10].prot leaderDelayId ETV
vector 162 Highway.node[11].prot leaderDelay ETV
vector 163 Highway.node[11].prot leaderDelayId ETV
vector 164 Highway.node[12].prot leaderDelay ETV
vector 165 Highway.node[12].prot leaderDelayId ETV
vector 166 Highway.node[13].prot leaderDelay ETV
vector 167 Highway.node[13].prot leaderDelayId ETV
vector 168 Highway.node[14].prot leaderDelay ETV
vector 169 Highway.node[14].prot leaderDelayId ETV
vector 170 Highway.node[15].prot leaderDelay ETV
vector 171 Highway.node[15].prot leaderDelayId ETV
vector 172 Highway.node[2].prot leaderDelay ETV
vector 173 Highway.node[2].prot leaderDelayId ETV
vector 174 Highway.node[3].prot leaderDelay ETV
vector 175 Highway.node[3].prot leaderDelayId ETV
vector 176 Highway.node[4].prot leaderDelay ETV
vector 177 Highway.node[4].prot leaderDelayId ETV
vector 178 Highway.node[5].prot leaderDelay ETV
vector 179 Highway.node[5].prot leaderDelayId ETV
vector 180 Highway.node[6].prot leaderDelay ETV
vector 181 Highway.node[6].prot leaderDelayId ETV
vector 182 Highway.node[7].prot leaderDelay ETV
vector 183 Highway.node[7].prot leaderDelayId ETV
vector 184 Highway.node[15].prot frontDelay ETV
vector 185 Highway.node[15].prot frontDelayId ETV
vector 186 Highway.node[7].prot frontDelay ETV
vector 187 Highway.node[7].prot frontDelayId ETV
vector 188 Highway.node[0].prot nodeId ETV
vector 189 Highway.node[0].prot busyTime ETV
vector 190 Highway.node[0].prot collisions ETV
vector 191 Highway.node[1].prot nodeId ETV
vector 192 Highway.node[1].prot busyTime ETV
vector 193 Highway.node[1].prot collisions ETV
vector 194 Highway.node[2].prot nodeId ETV
vector 195 Highway.node[2].prot busyTime ETV
vector 196 Highway.node[2].prot collisions ETV
vector 197 Highway.node[3].prot nodeId ETV
vector 198 Highway.node[3].prot busyTime ETV
vector 199 Highway.node[3].prot collisions ETV
vector 200 Highway.node[4].prot nodeId ETV
vector 201 Highway.node[4].prot busyTime ETV
vector 202 Highway.node[4].prot collisions ETV
vector 203 Highway.node[5].prot nodeId ETV
vector 204 Highway.node[5].prot busyTime ETV
vector 205 Highway.node[5].prot collisions ETV
vector 206 Highway.node[6].prot nodeId ETV
vector 207 Highway.node[6].prot busyTime ETV
vector 208 Highway.node[6].prot collisions ETV
vector 209 Highway.node[7].prot nodeId ETV
vector 210 Highway.node[7].prot busyTime ETV
vector 211 Highway.node[7].prot collisions ETV
vector 212 Highway.node[8].prot nodeId ETV
vector 213 Highway.node[8].prot busyTime ETV
vector 214 Highway.node[8].prot collisions ETV
vector 215 Highway.node[9].prot nodeId ETV
vector 216 Highway.node[9].prot busyTime ETV
vector 217 Highway.node[9].prot collisions ETV
vector 218 Highway.node[10].prot nodeId ETV
vector 219 Highway.node[10].prot busyTime ETV
vector 220 Highway.node[10].prot collisions ETV
vector 221 Highway.node[11].prot nodeId ETV
vector 222 Highway.node[11].prot busyTime ETV
vector 223 Highway.node[11].prot collisions ETV
vector 224 Highway.node[12].prot nodeId ETV
vector 225 Highway.node[12].prot busyTime ETV
vector 226 Highway.node[12].prot collisions ETV
vector 227 Highway.node[13].prot nodeId ETV
vector 228 Highway.node[13].prot busyTime ETV
vector 229 Highway.node[13].prot collisions ETV
vector 230 Highway.node[14].prot nodeId ETV
vector 231 Highway.node[14].prot busyTime ETV
vector 232 Highway.node[14].prot collisions ETV
vector 233 Highway.node[15].prot nodeId ETV
vector 234 Highway.node[15].prot busyTime ETV
vector 235 Highway.node[15].prot collisions ETV
0	16903 18176 113 2094712 1.11 99.91 989 -1 -1 -989 989
1	35079 17187 113 2094712 1.11 99.91 989 0 0 0 0
2	52266 17187 113 2094712 1.11 99.91 989 0 0 0 0
3	69453 19475 113 2094712 1.11 99.91 989 -3.14892e-05 0.000707784 0.010991577126781 6.0508064149601e-06
4	88928 27133 113 2094712 1.11 99.91 989 -4.89399e-05 0.00109259 0.010614843047836 8.6815283230331e-06
5	116061 23114 113 2094712 1.11 99.91 989 36.11 36.1111 35713.866699999 1289666.6073546
6	139175 23011 113 2094712 1.11 99.91 989 106.41 3674.19 1869503.95 4585125735.6776
7	162186 22132 113 2094712 1.11 99.91 989 242.45 242.45 239783.05 58135400.472499
8	184318 23018 114 2094713 1.11 99.91 989 2 9.99999 8374.44191 78355.636462526
9	207336 25943 114 2094713 1.11 99.91 989 -2.36679e-05 0.636957 79.999840244169 33.699903639694
10	233279 18176 114 2094713 1.11 99.91 989 1 1 989 989
11	251455 27386 114 2094713 1.11 99.91 989 -0.242251 0.0514707 0.0162069795942 1.3480962016766
12	278841 27402 114 2094713 1.11 99.91 989 -0.318924 0.0518937 0.154994414939 1.5743127427018
13	306243 23969 114 2094713 1.11 99.91 989 35.4741 36.1111 35633.8684 1283922.6541945
14	330212 24011 114 2094713 1.11 99.91 989 100.41 3660.19 1857173.573 4534439528.7161
15	354223 23121 114 2094713 1.11 99.91 989 242.45 242.45 239783.05 58135400.472499
16	377344 23513 115 2094714 1.11 99.91 989 1.99999 9.9807 6577.15338 53932.260553719
17	400857 26062 115 2094714 1.11 99.91 989 -4.92179e-06 0.236972 79.808016983649 13.202883432861
18	426919 19165 115 2094714 1.11 99.91 989 10 10 9890 98900
19	446084 26554 115 2094714 1.11 99.91 989 -0.537477 0.0947046 -0.035289977209599 11.609255632106
20	472638 26569 115 2094714 1.11 99.91 989 -0.627728 0.0948137 0.106326470719 12.492917922261
21	499207 23991 115 2094714 1.11 99.91 989 33.3767 36.1111 34914.3216 1233462.9624644
22	523198 24009 115 2094714 1.11 99.91 989 46.4099 3534.23 1755195.9932 4112497814.5541
23	547207 23121 115 2094714 1.11 99.91 989 242.45 242.45 239783.05 58135400.472499
24	570328 23478 116 2094715 1.11 99.91 989 2 9.96963 6377.81766 51322.617838834
25	593806 25973 116 2094715 1.11 99.91 989 -2.78245e-06 0.22582 79.697850183507 12.601634460108
26	619779 19165 116 2094715 1.11 99.91 989 11 11 10879 119669
27	638944 26488 116 2094715 1.11 99.91 989 -0.537069 0.0911226 -0.066962210500302 11.739234038735
28	665432 26510 116 2094715 1.11 99.91 989 -0.629301 0.0912072 0.076279861061995 12.656106358292
29	691942 23998 116 2094715 1.11 99.91 989 33.3017 36.1111 34834.6244 1227919.8537566
30	715940 23997 116 2094715 1.11 99.91 989 40.4099 3520.26 1744862.3099 4069817310.1733
31	739937 23121 116 2094715 1.11 99.91 989 242.45 242.45 239783.05 58135400.472499
32	763058 23867 117 2094716 1.11 99.91 989 1.99998 9.95368 6179.02518 48732.360454783
33	786925 26002 117 2094716 1.11 99.91 989 -0.000153394 0.215965 79.539131150123 12.067981856907
34	812927 19165 117 2094716 1.11 99.91 989 12 12 11868 142416
35	832092 26436 117 2094716 1.11 99.91 989 -0.537543 0.0876583 -0.11349363315767 11.833352886288
36	858528 26454 117 2094716 1.11 99.91 989 -0.632943 0.0877308 0.032005671492884 12.772501081138
37	884982 23995 117 2094716 1.11 99.91 989 33.2389 36.1111 34755.0851 1222391.3360264
38	908977 23993 117 2094716 1.11 99.91 989 34.4099 3506.31 1734727.122 4028049948.2619
39	932970 23121 117 2094716 1.11 99.91 989 242.45 242.45 239783.05 58135400.472499
40	956091 23818 118 2094717 1.11 99.91 989 1.99929 9.93158 5980.96697 46164.735408506
41	979909 26010 118 2094717 1.11 99.91 989 -0.000572631 0.20728 79.319134590913 11.595554974702
42	1005919 19165 118 2094717 1.11 99.91 989 13 13 12857 167141
43	1025084 26414 118 2094717 1.11 99.91 989 -0.538135 0.0843898 -0.17934673539683 11.895158286862
44	1051498 26436 118 2094717 1.11 99.91 989 -0.635743 0.0844551 -0.030739492927679 12.847093133008
45	1077934 23986 118 2094717 1.11 99.91 989 33.1863 36.1111 34675.765 1216881.2142849
46	1101920 24006 118 2094717 1.11 99.91 989 28.4099 3492.38 1724790.2707 3987215477.6188
47	1125926 23121 118 2094717 1.11 99.91 989 242.45 242.45 239783.05 58135400.472499
48	1149047 23948 119 2094718 1.11 99.91 989 1.98954 9.90151 5785.09206 43626.742158429
49	1172995 25944 119 2094718 1.11 99.91 989 -0.00599293 0.199285 79.019695697084 11.144175008423
50	1198939 19165 119 2094718 1.11 99.91 989 14 14 13846 193844
51	1218104 26411 119 2094718 1.11 99.91 989 -0.540504 0.0813368 -0.270530172975 11.962994501521
52	1244515 26415 119 2094718 1.11 99.91 989 -0.634718 0.0813904 -0.11813446549102 12.85531818804
53	1270930 23986 119 2094718 1.11 99.91 989 33.1424 36.1111 34596.7462 1211395.1817041
54	1294916 23984 119 2094718 1.11 99.91 989 22.4099 3478.47 1715049.3091 3947326400.0769
55	1318900 23121 119 2094718 1.11 99.91 989 242.45 242.45 239783.05 58135400.472499
56	1342021 23654 120 2094719 1.11 99.91 989 1.97917 9.86195 5587.24363 41109.602433343
57	1365675 25943 120 2094719 1.11 99.91 989 -0.0082169 0.192454 78.625675771654 10.785036553838
58	1391618 19165 120 2094719 1.11 99.91 989 15 15 14835 222525
59	1410783 26372 120 2094719 1.11 99.91 989 -0.541765 0.0785399 -0.393271599199 12.008468714805
60	1437155 26383 120 2094719 1.11 99.91 989 -0.632732 0.0786079 -0.23671013140931 12.833152908032
61	1463538 23990 120 2094719 1.11 99.91 989 33.1046 36.1111 34518.1206 1205939.6889683
62	1487528 24001 120 2094719 1.11 99.91 989 16.4099 3464.61 1705505.874 3908398635.4943
63	1511529 23121 120 2094719 1.11 99.91 989 242.45 242.45 239783.05 58135400.472499
64	1534650 23951 121 2094720 1.11 99.91 989 2 9.99988 8176.21353 75525.939986675
65	1558601 26763 121 2094720 1.11 99.91 989 0 0.503323 79.998805762986 27.222576076852
66	1585364 18176 121 2094720 1.11 99.91 989 2 2 1978 3956
67	1603540 27234 121 2094720 1.11 99.91 989 -0.376057 0.079568 0.016072605539999 3.6511072733519
68	1630774 27231 121 2094720 1.11 99.91 989 -0.478665 0.0800843 0.1548857975023 4.1996355827869
69	1658005 23948 121 2094720 1.11 99.91 989 34.9921 36.1111 35553.8721 1278231.0217738
70	1681953 23999 121 2094720 1.11 99.91 989 94.4099 3646.19 1845041.3338 4484451651.777
71	1705952 23121 121 2094720 1.11 99.91 989 242.45 242.45 239783.05 58135400.472499
72	1729073 23968 122 2094721 1.11 99.91 989 1.99969 9.9997 7973.44121 72707.130508667
73	1753041 26594 122 2094721 1.11 99.91 989 -0.00187269 0.426894 79.996998324966 23.329924562046
74	1779635 18176 122 2094721 1.11 99.91 989 3 3 2967 8901
75	1797811 27129 122 2094721 1.11 99.91 989 -0.451448 0.0951459 0.015895606297214 5.8249976701751
76	1824940 27132 122 2094721 1.11 99.91 989 -0.559818 0.0955134 0.154693132981 6.5864196611461
77	1852072 23970 122 2094721 1.11 99.91 989 34.6134 36.1111 35473.8734 1272575.6234305
78	1876042 24006 122 2094721 1.11 99.91 989 88.4099 3632.19 1833111.8136 4435191355.5426
79	1900048 23121 122 2094721 1.11 99.91 989 242.45 242.45 239783.05 58135400.472499
80	1923169 23973 123 2094722 1.11 99.91 989 1.99953 9.99956 7773.45316 69952.433690743
81	1947142 26529 123 2094722 1.11 99.91 989 -0.00176316 0.373968 79.995587158261 20.577939562987
82	1973671 18176 123 2094722 1.11 99.91 989 4 4 3956 15824
83	1991847 27010 123 2094722 1.11 99.91 989 -0.493752 0.103094 0.015591950014011 7.5956883003657
84	2018857 27022 123 2094722 1.11 99.91 989 -0.598539 0.103388 0.15443130941851 8.4293444854028
85	2045879 23966 123 2094722 1.11 99.91 989 34.3108 36.1111 35393.8757 1266946.2969009
86	2069845 24009 123 2094722 1.11 99.91 989 82.4099 3618.19 1821382.3535 4386677828.4469
87	2093854 23121 123 2094722 1.11 99.91 989 242.45 242.45 239783.05 58135400.472499
88	2116975 23791 124 2094723 1.11 99.91 989 2 9.99905 7573.09818 67224.119662959
89	2140766 26386 124 2094723 1.11 99.91 989 -4.49878e-05 0.336647 79.990561367869 18.535613891332
90	2167152 18176 124 2094723 1.11 99.91 989 5 5 4945 24725
91	2185328 26889 124 2094723 1.11 99.91 989 -0.51354 0.106131 0.01418279610562 8.8839929119961
92	2212217 26904 124 2094723 1.11 99.91 989 -0.618287 0.106351 0.15303906968929 9.7883149933401
93	2239121 24007 124 2094723 1.11 99.91 989 34.0698 36.1111 35313.8866 1261335.8898148
94	2263128 23997 124 2094723 1.11 99.91 989 76.4099 3604.19 1809853.2793 4338933719.3876
95	2287125 23121 124 2094723 1.11 99.91 989 242.45 242.45 239783.05 58135400.472499
96	2310246 23871 125 2094724 1.11 99.91 989 2 9.99802 7375.17425 64537.422238735
97	2334117 26298 125 2094724 1.11 99.91 989 -3.22625e-06 0.306337 79.980313103412 16.931340256311
98	2360415 18176 125 2094724 1.11 99.91 989 6 6 5934 35604
99	2378591 26795 125 2094724 1.11 99.91 989 -0.5251 0.106151 0.011661534652307 9.8414200398742
100	2405386 27794 125 2094724 1.11 99.91 989 -0.62477 0.106388 0.1507521592375 10.723948106683
101	2433180 24992 125 2094724 1.11 99.91 989 33.8733 36.1111 35233.9077 1255740.0460846
102	2458172 24990 125 2094724 1.11 99.91 989 70.4099 3590.19 1798522.2702 4291978724.2207
103	2483162 24110 125 2094724 1.11 99.91 989 242.45 242.45 239783.05 58135400.472499
104	2507272 24465 126 2094725 1.11 99.91 989 2 9.99617 7176.11551 61863.795813771
105	2531737 27215 126 2094725 1.11 99.91 989 -1.71773e-06 0.283078 79.961908937208 15.700525774689
106	2558952 19165 126 2094725 1.11 99.91 989 7 7 6923 48461
107	2578117 27730 126 2094725 1.11 99.91 989 -0.532335 0.104377 0.0069535192236192 10.552436128279
108	2605847 27744 126 2094725 1.11 99.91 989 -0.625529 0.104614 0.14630788779901 11.414838047725
109	2633591 24981 126 2094725 1.11 99.91 989 33.7114 36.1111 35153.9444 1250155.8753382
110	2658572 25005 126 2094725 1.11 99.91 989 64.4099 3576.19 1787389.9522 4245833180.5902
111	2683577 24110 126 2094725 1.11 99.91 989 242.45 242.45 239783.05 58135400.472499
112	2707687 24713 127 2094726 1.11 99.91 989 1.99996 9.99309 6975.20032 59198.113302121
113	2732400 27110 127 2094726 1.11 99.91 989 -0.000390181 0.265482 79.931323909906 14.754391852106
114	2759510 19165 127 2094726 1.11 99.91 989 8 8 7912 63296
115	2778675 27671 127 2094726 1.11 99.91 989 -0.535078 0.101592 -0.0011648147283729 11.035876826927
116	2806346 27667 127 2094726 1.11 99.91 989 -0.62767 0.101737 0.13865871827568 11.950475839192
117	2834013 24987 127 2094726 1.11 99.91 989 33.5785 36.1111 35074.0133 1244581.7648083
118	2859000 24987 127 2094726 1.11 99.91 989 58.4099 3562.2 1776459.0303 4200526382.3915
119	2883987 24110 127 2094726 1.11 99.91 989 242.45 242.45 239783.05 58135400.472499
120	2908097 24461 128 2094727 1.11 99.91 989 1.98974 9.9882 6773.62857 56544.187099145
121	2932558 27133 128 2094727 1.11 99.91 989 -0.00656675 0.250092 79.882662739436 13.9636638605
122	2959691 19165 128 2094727 1.11 99.91 989 9 9 8901 80109
123	2978856 27599 128 2094727 1.11 99.91 989 -0.538709 0.0982917 -0.014424158168091 11.420544394285
124	3006455 27632 128 2094727 1.11 99.91 989 -0.627604 0.0984593 0.12566563134397 12.265907595848
125	3034087 24994 128 2094727 1.11 99.91 989 33.467 36.1111 34994.1295 1239017.8338721
126	3059081 24993 128 2094727 1.11 99.91 989 52.4099 3548.21 1765729.2617 4156075807.5582
127	3084074 24110 128 2094727 1.11 99.91 989 242.45 242.45 239783.05 58135400.472499
128	3108184 41624 2286 2094779 1.217224021398 99.917225329322 988 0.099991672703 0.100008662342 98.799994309308 9.8799989007915
129	3149808 28900 2286 2094779 1.217224021398 99.917225329322 988 2 2 1976 3952
130	3178708 41691 2417 2094904 1.221326121467 99.921327562791 988 0.099990927644 0.100008662342 98.799994442708 9.8799989275931
131	3220399 28941 2417 2094904 1.221326121467 99.921327562791 988 7 7 6916 48412
132	3249340 41682 2542 2095035 1.239559181509 99.939560702762 988 0.099990516142 0.100008662344 98.799994522637 9.8799989437029
133	3291022 29915 2542 2095035 1.239559181509 99.939560702762 988 10 10 9880 98800
134	3320937 41679 2679 2095166 1.244025261564 99.944026888748 988 0.099991221714 0.100008662351 98.799994628568 9.8799989647519
135	3362616 29907 2679 2095166 1.244025261564 99.944026888748 988 14 14 13832 193648
136	3392523 41662 2809 2095296 1.246320421675 99.946322262032 988 0.099991084143 0.100009001389 98.799994841741 9.8799990075714
137	3434185 28924 2809 2095296 1.246320421675 99.946322262032 988 6 6 5928 35568
138	3463109 41636 2933 2095426 1.248212521744 99.948214495287 988 0.099991084203 0.100009001389 98.799994974927 9.8799990342097
139	3504745 29895 2933 2095426 1.248212521744 99.948214495287 988 11 11 10868 119548
140	3534640 41656 3070 2095557 1.253003541758 99.953005541832 988 0.099990516846 0.100008662581 98.800008001458 9.8800016399965
141	3576296 29899 3070 2095557 1.253003541758 99.953005541832 988 12 12 11856 142272
142	3606195 41661 3200 2095687 1.256455621813 99.956457728532 988 0.099991084265 0.100008662287 98.799995108103 9.8799990607703
143	3647856 28912 3200 2095687 1.256455621813 99.956457728532 988 8 8 7904 63232
144	3676768 41646 3331 2095818 1.266277721882 99.966279961442 988 0.099990517209 0.100008662588 98.800008240944 9.880001687782
145	3718414 29884 3331 2095818 1.266277721882 99.966279961442 988 13 13 12844 166972
146	3748298 41690 3463 2095956 1.283756902007 99.983759381555 988 0.099991084426 0.100009001389 98.799995480932 9.879999135306
147	3789988 28923 3463 2095956 1.283756902007 99.983759381555 988 4 4 3952 15808
148	3818911 41658 3593 2096080 1.284244922021 99.984247428253 988 0.099991084426 0.100009001389 98.799995507616 9.8799991406426
149	3860569 28909 3593 2096080 1.284244922021 99.984247428253 988 3 3 2964 8892
150	3889478 41678 3854 2096341 1.292124402353 99.992127546201 988 0.099990518308 0.100008662618 98.800009145232 9.8800018687507
151	3931156 28916 3854 2096341 1.292124402353 99.992127546201 988 5 5 4940 24700
152	3960072 41683 3978 2096471 1.296343482408 99.996346732997 988 0.099991084805 0.100009001389 98.799996251973 9.8799992895105
153	4001755 28926 3978 2096471 1.296343482408 99.996346732997 988 1 1 988 988
154	4030681 41683 3978 2096471 1.296343482408 99.996346732997 988 0.099991084805 0.100009001389 98.799996251973 9.8799992895105
155	4072364 28926 3978 2096471 1.296343482408 99.996346732997 988 1 1 988 988
156	4101290 41648 3984 2096477 1.296343502422 99.996346779696 988 0.099991084805 0.100009001389 98.799996278658 9.8799992948475
157	4142938 28900 3984 2096477 1.296343502422 99.996346779696 988 2 2 1976 3952
158	4171838 41696 3990 2096483 1.296343522436 99.996346826393 988 0.099991084806 0.100009001389 98.799996305341 9.8799993001841
159	4213534 28934 3990 2096483 1.296343522436 99.996346826393 988 3 3 2964 8892
160	4242468 41695 3996 2096489 1.296343542449 99.996346873091 988 0.099991084808 0.100009001389 98.799996332026 9.8799993055211
161	4284163 28926 3996 2096489 1.296343542449 99.996346873091 988 4 4 3952 15808
162	4313089 41707 4002 2096495 1.296343562463 99.996346919787 988 0.09999108481 0.100009001389 98.799996358708 9.8799993108575
163	4354796 28939 4002 2096495 1.296343562463 99.996346919787 988 5 5 4940 24700
164	4383735 41659 4008 2096501 1.296343582477 99.996346966479 988 0.099991084814 0.100009001389 98.799996385386 9.8799993161931
165	4425394 28906 4008 2096501 1.296343582477 99.996346966479 988 6 6 5928 35568
166	4454300 41635 4014 2096507 1.296343602491 99.996347013166 988 0.099991084819 0.100009001389 98.799996412059 9.8799993215277
167	4495935 28919 4014 2096507 1.296343602491 99.996347013166 988 7 7 6916 48412
168	4524854 41657 4020 2096513 1.296343622505 99.996347059842 988 0.099991084828 0.10000900139 98.799996438721 9.8799993268601
169	4566511 28919 4020 2096513 1.296343622505 99.996347059842 988 8 8 7904 63232
170	4595430 41647 4026 2096519 1.296343642519 99.996347106502 988 0.099991084839 0.10000900139 98.799996465367 9.8799993321893
171	4637077 28912 4026 2096519 1.296343642519 99.996347106502 988 9 9 8892 80028
172	4665989 41675 4032 2096525 1.296343662532 99.996347153137 988 0.099991084854 0.100009001389 98.799996491989 9.8799993375137
173	4707664 29916 4032 2096525 1.296343662532 99.996347153137 988 10 10 9880 98800
174	4737580 41654 4038 2096531 1.296343682546 99.996347199736 988 0.099991084873 0.100009001389 98.799996518574 9.8799993428307
175	4779234 29909 4038 2096531 1.296343682546 99.996347199736 988 11 11 10868 119548
176	4809143 41620 4044 2096537 1.29634370256 99.996347246281 988 0.099991084896 0.100009001389 98.799996545105 9.8799993481369
177	4850763 29882 4044 2096537 1.29634370256 99.996347246281 988 12 12 11856 142272
178	4880645 41672 4050 2096543 1.296343722574 99.996347292754 988 0.099991084925 0.100009001389 98.799996571564 9.8799993534287
179	4922317 29921 4050 2096543 1.296343722574 99.996347292754 988 13 13 12844 166972
180	4952238 41645 4056 2096549 1.296343742588 99.996347339127 988 0.099991084957 0.10000900139 98.799996597923 9.8799993587005
181	4993883 29904 4056 2096549 1.296343742588 99.996347339127 988 14 14 13832 193648
182	5023787 41647 4062 2096555 1.296343762602 99.99634738537 988 0.099991084995 0.10000900139 98.799996624152 9.8799993639463
183	5065434 29893 4062 2096555 1.296343762602 99.99634738537 988 15 15 14820 222300
184	5095327 41622 4115 2094496 1.303240642519 99.903235443883 987 0.099991083628 0.100009001389 98.700000802748 9.8700001997229
185	5136949 28893 4115 2094496 1.303240642519 99.903235443883 987 9 9 8883 79947
186	5165842 41637 4245 2094626 1.305925762602 99.905933722739 987 0.099989863665 0.10000866256 98.700000961521 9.8700002319919
187	5207479 29895 4245 2094626 1.305925762602 99.905933722739 987 15 15 14805 222075
188	5237374 1625 18806 2096557 2 100 99 0 0 0 0
189	5238999 2235 18806 2096557 2 100 99 0.044313 0.050074 4.939518 0.246484625774
190	5241234 1625 18806 2096557 2 100 99 0 0 0 0
191	5242859 1625 18807 2096558 2 100 99 1 1 99 99
192	5244484 2241 18807 2096558 2 100 99 0.044313 0.050075092734 4.939102092734 0.24644298699732
193	5246725 1625 18807 2096558 2 100 99 0 0 0 0
194	5248350 1724 18808 2096559 2 100 99 10 10 990 9900
195	5250074 2241 18808 2096559 2 100 99 0.044313 0.050075932256 4.939102932256 0.24644307107631
196	5252315 1625 18808 2096559 2 100 99 0 0 0 0
197	5253940 1724 18809 2096560 2 100 99 11 11 1089 11979
198	5255664 2241 18809 2096560 2 100 99 0.044313 0.050076025602 4.939103025602 0.24644308042509
199	5257905 1625 18809 2096560 2 100 99 0 0 0 0
200	5259530 1724 18810 2096561 2 100 99 12 12 1188 14256
201	5261254 2241 18810 2096561 2 100 99 0.044313 0.050076118942 4.939103118942 0.24644308977329
202	5263495 1625 18810 2096561 2 100 99 0 0 0 0
203	5265120 1724 18811 2096562 2 100 99 13 13 1287 16731
204	5266844 2241 18811 2096562 2 100 99 0.044313 0.050076212278 4.939103212278 0.24644309912111
205	5269085 1625 18811 2096562 2 100 99 0 0 0 0
206	5270710 1724 18812 2096563 2 100 99 14 14 1386 19404
207	5272434 2241 18812 2096563 2 100 99 0.044312 0.050076305622 4.939102305622 0.24644301984475
208	5274675 1625 18812 2096563 2 100 99 0 0 0 0
209	5276300 1724 18813 2096564 2 100 99 15 15 1485 22275
210	5278024 2235 18813 2096564 2 100 99 0.044313 0.050042 4.939069 0.246439673849
211	5280259 1625 18813 2096564 2 100 99 0 0 0 0
212	5281884 1625 18814 2096565 2 100 99 2 2 198 396
213	5283509 2241 18814 2096565 2 100 99 0.044313 0.050075185864 4.939102185864 0.24644299632431
214	5285750 1625 18814 2096565 2 100 99 0 0 0 0
215	5287375 1625 18815 2096566 2 100 99 3 3 297 891
216	5289000 2240 18815 2096566 2 100 99 0.044313 0.05007527909 4.93910227909 0.24644300566094
217	5291240 1625 18815 2096566 2 100 99 0 0 0 0
218	5292865 1625 18816 2096567 2 100 99 4 4 396 1584
219	5294490 2241 18816 2096567 2 100 99 0.044313 0.050075372364 4.939102372364 0.24644301500239
220	5296731 1625 18816 2096567 2 100 99 0 0 0 0
221	5298356 1625 18817 2096568 2 100 99 5 5 495 2475
222	5299981 2241 18817 2096568 2 100 99 0.044313 0.050075465668 4.939102465668 0.24644302434687
223	5302222 1625 18817 2096568 2 100 99 0 0 0 0
224	5303847 1625 18818 2096569 2 100 99 6 6 594 3564
225	5305472 2241 18818 2096569 2 100 99 0.044313 0.050075558966 4.939102558966 0.24644303369076
226	5307713 1625 18818 2096569 2 100 99 0 0 0 0
227	5309338 1625 18819 2096570 2 100 99 7 7 693 4851
228	5310963 2241 18819 2096570 2 100 99 0.044313 0.050075652278 4.939102652278 0.24644304303607
229	5313204 1625 18819 2096570 2 100 99 0 0 0 0
230	5314829 1625 18820 2096571 2 100 99 8 8 792 6336
231	5316454 2241 18820 2096571 2 100 99 0.044312 0.050075745602 4.939101745602 0.2464429637576
232	5318695 1625 18820 2096571 2 100 99 0 0 0 0
233	5320320 1625 18821 2096572 2 100 99 9 9 891 8019
234	5321945 2241 18821 2096572 2 100 99 0.044313 0.050075838928 4.939102838928 0.24644306172934
235	5324186 1625 18821 2096572 2 100 99 0 0 0 0

