version 3
run BreakRanksNoGui-21-20240708-23:50:56-173685
attr configname BreakRanksNoGui
attr datetime 20240708-23:50:56
attr datetimef 20240708-235056
attr experiment BreakRanksNoGui
attr inifile omnetpp.ini
attr iterationvars "$nCars=8, $platoonSize=8, $nLanes=1, $ploegH=0.5, $controller=1, $headway=0.1, $leaderHeadway=1.2, $leaderSpeed=110, $breakRanksSafetyDistance=5, $minSpeed=100, $maxSpeed=120, $beaconInterval=0.1, $priority=4, $packetSize=200, $sController=\"CACC\", $0=2, $1=0"
attr iterationvarsd nCars=8/platoonSize=8/nLanes=1/ploegH=0.5/controller=1/headway=0.1/leaderHeadway=1.2/leaderSpeed=110/breakRanksSafetyDistance=5/minSpeed=100/maxSpeed=120/beaconInterval=0.1/priority=4/packetSize=200/sController=CACC/2/0
attr iterationvarsf nCars=8,platoonSize=8,nLanes=1,ploegH=0.5,controller=1,headway=0.1,leaderHeadway=1.2,leaderSpeed=110,breakRanksSafetyDistance=5,minSpeed=100,maxSpeed=120,beaconInterval=0.1,priority=4,packetSize=200,sController=CACC,2,0-
attr measurement "$nCars=8, $platoonSize=8, $nLanes=1, $ploegH=0.5, $controller=1, $headway=0.1, $leaderHeadway=1.2, $leaderSpeed=110, $breakRanksSafetyDistance=5, $minSpeed=100, $maxSpeed=120, $beaconInterval=0.1, $priority=4, $packetSize=200, $sController=\"CACC\", $0=2, $1=0"
attr network Highway
attr processid 173685
attr repetition 1
attr replication #1
attr resultdir results
attr runnumber 21
attr seedset 1
itervar beaconInterval 0.1
itervar breakRanksSafetyDistance 5
itervar controller 1
itervar headway 0.1
itervar leaderHeadway 1.2
itervar leaderSpeed 110
itervar maxSpeed 120
itervar minSpeed 100
itervar nCars 8
itervar nLanes 1
itervar packetSize 200
itervar platoonSize 8
itervar ploegH 0.5
itervar priority 4
itervar sController "\"CACC\""
config image-path ../../../veins/images
config repeat 10
config extends BreakRanks
config *.manager.command "\"sumo\""
config *.manager.ignoreGuiCommands true
config output-vector-file results/BreakRanks_1_0.1_110_5/result_1.vec
config output-scalar-file results/BreakRanks_1_0.1_110_5/result_1.sca
config extends Platooning
config *.node[*].scenario_type "\"BreakRanksScenario\""
config *.manager.command "\"sumo-gui\""
config *.node[*].scenario_type "\"SimpleScenario\""
config cmdenv-express-mode true
config cmdenv-autoflush true
config cmdenv-status-frequency 15s
config num-rngs 6
config network Highway
config debug-on-errors true
config print-undisposed true
config *.playgroundSizeX 65000m
config *.playgroundSizeY 25000m
config *.playgroundSizeZ 50m
config sim-time-limit "100 s"
config *.annotations.draw false
config *.obstacles.debug false
config *.world.useTorus false
config *.world.use2D false
config *.manager.updateInterval 0.01s
config *.manager.host "\"localhost\""
config *.manager.moduleType "\"org.car2x.plexe.PlatoonCar\""
config *.manager.moduleName "\"node\""
config *.manager.moduleDisplayString "\"\""
config *.manager.autoShutdown true
config *.manager.margin 25
config *.connectionManager.sendDirect true
config *.connectionManager.maxInterfDist 2600m
config *.connectionManager.drawMaxIntfDist false
config *.**.nic.mac1609_4.useServiceChannel false
config *.**.nic.mac1609_4.txPower 100mW
config *.**.nic.mac1609_4.bitrate 6Mbps
config *.**.nic.mac1609_4.useAcks true
config *.**.nic.mac1609_4.ackErrorRate 0.0
config *.**.nic.mac1609_4.frameErrorRate 0.0
config *.**.nic.phy80211p.minPowerLevel -94dBm
config *.**.nic.phy80211p.maxTXPower 100mW
config *.**.nic.phy80211p.useNoiseFloor true
config *.**.nic.phy80211p.noiseFloor -95dBm
config *.**.nic.phy80211p.decider "xmldoc(\"config.xml\")"
config *.**.nic.phy80211p.analogueModels "xmldoc(\"config.xml\")"
config *.**.nic.phy80211p.usePropagationDelay true
config *.node[*].mobility.x 0
config *.node[*].mobility.y 0
config *.node[*].mobility.z 1.895
config seed-set 1
config **.seed 1
config *.node[*].prot.rng-0 2
config *.node[*].appl.rng-0 3
config *.node[*].scenario.rng-0 4
config **.traffic.rng-0 5
config *.manager.configFile "\"./sumocfg/freeway.sumo.cfg\""
config *.manager.launchConfig "xmldoc(\"./sumocfg/freeway.launchd.xml\")"
config **.numberOfCars 8
config **.numberOfCarsPerPlatoon 8
config **.numberOfLanes 1
config *.node[*].helper_type "\"PositionHelper\""
config *.node[*].scenario.caccC1 0.5
config *.node[*].scenario.caccXi 1
config *.node[*].scenario.caccOmegaN "0.2 Hz"
config *.node[*].scenario.caccSpacing "2 m"
config *.node[*].scenario.engineTau "0.5 s"
config *.node[*].scenario.ploegH 0.5s
config *.node[*].scenario.ploegKp 0.2
config *.node[*].scenario.ploegKd 0.7
config *.node[*].scenario.useRealisticEngine false
config *.node[*].scenario.useControllerAcceleration true
config *.node[*].scenario.nLanes 1
config **.numericController 1
config **.headway 0.1s
config *.node[*].scenario.accHeadway 0.1s
config *.node[*].scenario.leaderHeadway 1.2s
config *.node[*].scenario.leaderSpeed 110kmph
config *.node[*].appl_type "\"SimplePlatooningApp\""
config *.node[*].appl.*.scalar-recording true
config *.node[*].appl.*.vector-recording true
config *.node[0].appl.breakRanksSafetyDistance 5m
config *.node[*].appl.minSpeed 100kmph
config *.node[*].appl.maxSpeed 120kmph
config *.node[*].protocol_type "\"SimplePlatooningBeaconing\""
config *.node[*].prot.*.scalar-recording true
config *.node[*].prot.*.vector-recording true
config *.node[*].prot.beaconingInterval 0.1s
config *.node[*].prot.priority 4
config *.node[*].prot.packetSize 200
config **.traffic_type "\"PlatoonsTrafficManager\""
config **.traffic.platoonInsertTime "1 s"
config **.traffic.platoonInsertSpeed 110kmph
config **.traffic.nCars 8
config **.traffic.platoonSize 8
config **.traffic.nLanes 1
config **.traffic.platooningVType "\"vtypeauto\""
config **.traffic.controller "\"CACC\""
config **.traffic.platoonInsertDistance 2m
config **.traffic.platoonInsertHeadway 0s
config **.traffic.platoonLeaderHeadway 1.2s
config **.scalar-recording false
config **.vector-recording false
config output-vector-file results/BreakRanksNoGui_1_0.1_110_5/result_1.vec
config output-scalar-file results/BreakRanksNoGui_1_0.1_110_5/result_1.sca

vector 0 Highway.node[0].appl distance ETV
vector 1 Highway.node[0].appl relativeSpeed ETV
vector 2 Highway.node[0].appl nodeId ETV
vector 3 Highway.node[0].appl acceleration ETV
vector 4 Highway.node[0].appl controllerAcceleration ETV
vector 5 Highway.node[0].appl speed ETV
vector 6 Highway.node[0].appl posx ETV
vector 7 Highway.node[0].appl posy ETV
vector 8 Highway.node[1].appl distance ETV
vector 9 Highway.node[1].appl relativeSpeed ETV
vector 10 Highway.node[1].appl nodeId ETV
vector 11 Highway.node[1].appl acceleration ETV
vector 12 Highway.node[1].appl controllerAcceleration ETV
vector 13 Highway.node[1].appl speed ETV
vector 14 Highway.node[1].appl posx ETV
vector 15 Highway.node[1].appl posy ETV
vector 16 Highway.node[2].appl distance ETV
vector 17 Highway.node[2].appl relativeSpeed ETV
vector 18 Highway.node[2].appl nodeId ETV
vector 19 Highway.node[2].appl acceleration ETV
vector 20 Highway.node[2].appl controllerAcceleration ETV
vector 21 Highway.node[2].appl speed ETV
vector 22 Highway.node[2].appl posx ETV
vector 23 Highway.node[2].appl posy ETV
vector 24 Highway.node[3].appl distance ETV
vector 25 Highway.node[3].appl relativeSpeed ETV
vector 26 Highway.node[3].appl nodeId ETV
vector 27 Highway.node[3].appl acceleration ETV
vector 28 Highway.node[3].appl controllerAcceleration ETV
vector 29 Highway.node[3].appl speed ETV
vector 30 Highway.node[3].appl posx ETV
vector 31 Highway.node[3].appl posy ETV
vector 32 Highway.node[4].appl distance ETV
vector 33 Highway.node[4].appl relativeSpeed ETV
vector 34 Highway.node[4].appl nodeId ETV
vector 35 Highway.node[4].appl acceleration ETV
vector 36 Highway.node[4].appl controllerAcceleration ETV
vector 37 Highway.node[4].appl speed ETV
vector 38 Highway.node[4].appl posx ETV
vector 39 Highway.node[4].appl posy ETV
vector 40 Highway.node[5].appl distance ETV
vector 41 Highway.node[5].appl relativeSpeed ETV
vector 42 Highway.node[5].appl nodeId ETV
vector 43 Highway.node[5].appl acceleration ETV
vector 44 Highway.node[5].appl controllerAcceleration ETV
vector 45 Highway.node[5].appl speed ETV
vector 46 Highway.node[5].appl posx ETV
vector 47 Highway.node[5].appl posy ETV
vector 48 Highway.node[6].appl distance ETV
vector 49 Highway.node[6].appl relativeSpeed ETV
vector 50 Highway.node[6].appl nodeId ETV
vector 51 Highway.node[6].appl acceleration ETV
vector 52 Highway.node[6].appl controllerAcceleration ETV
vector 53 Highway.node[6].appl speed ETV
vector 54 Highway.node[6].appl posx ETV
vector 55 Highway.node[6].appl posy ETV
vector 56 Highway.node[7].appl distance ETV
vector 57 Highway.node[7].appl relativeSpeed ETV
vector 58 Highway.node[7].appl nodeId ETV
vector 59 Highway.node[7].appl acceleration ETV
vector 60 Highway.node[7].appl controllerAcceleration ETV
vector 61 Highway.node[7].appl speed ETV
vector 62 Highway.node[7].appl posx ETV
vector 63 Highway.node[7].appl posy ETV
vector 64 Highway.node[2].prot frontDelay ETV
vector 65 Highway.node[2].prot frontDelayId ETV
vector 66 Highway.node[4].prot frontDelay ETV
vector 67 Highway.node[4].prot frontDelayId ETV
vector 68 Highway.node[6].prot frontDelay ETV
vector 69 Highway.node[6].prot frontDelayId ETV
vector 70 Highway.node[7].prot frontDelay ETV
vector 71 Highway.node[7].prot frontDelayId ETV
vector 72 Highway.node[5].prot frontDelay ETV
vector 73 Highway.node[5].prot frontDelayId ETV
vector 74 Highway.node[1].prot leaderDelay ETV
vector 75 Highway.node[1].prot leaderDelayId ETV
vector 76 Highway.node[1].prot frontDelay ETV
vector 77 Highway.node[1].prot frontDelayId ETV
vector 78 Highway.node[2].prot leaderDelay ETV
vector 79 Highway.node[2].prot leaderDelayId ETV
vector 80 Highway.node[3].prot leaderDelay ETV
vector 81 Highway.node[3].prot leaderDelayId ETV
vector 82 Highway.node[4].prot leaderDelay ETV
vector 83 Highway.node[4].prot leaderDelayId ETV
vector 84 Highway.node[5].prot leaderDelay ETV
vector 85 Highway.node[5].prot leaderDelayId ETV
vector 86 Highway.node[6].prot leaderDelay ETV
vector 87 Highway.node[6].prot leaderDelayId ETV
vector 88 Highway.node[7].prot leaderDelay ETV
vector 89 Highway.node[7].prot leaderDelayId ETV
vector 90 Highway.node[3].prot frontDelay ETV
vector 91 Highway.node[3].prot frontDelayId ETV
vector 92 Highway.node[0].prot nodeId ETV
vector 93 Highway.node[0].prot busyTime ETV
vector 94 Highway.node[0].prot collisions ETV
vector 95 Highway.node[1].prot nodeId ETV
vector 96 Highway.node[1].prot busyTime ETV
vector 97 Highway.node[1].prot collisions ETV
vector 98 Highway.node[2].prot nodeId ETV
vector 99 Highway.node[2].prot busyTime ETV
vector 100 Highway.node[2].prot collisions ETV
vector 101 Highway.node[3].prot nodeId ETV
vector 102 Highway.node[3].prot busyTime ETV
vector 103 Highway.node[3].prot collisions ETV
vector 104 Highway.node[4].prot nodeId ETV
vector 105 Highway.node[4].prot busyTime ETV
vector 106 Highway.node[4].prot collisions ETV
vector 107 Highway.node[5].prot nodeId ETV
vector 108 Highway.node[5].prot busyTime ETV
vector 109 Highway.node[5].prot collisions ETV
vector 110 Highway.node[6].prot nodeId ETV
vector 111 Highway.node[6].prot busyTime ETV
vector 112 Highway.node[6].prot collisions ETV
vector 113 Highway.node[7].prot nodeId ETV
vector 114 Highway.node[7].prot busyTime ETV
vector 115 Highway.node[7].prot collisions ETV
0	113	1.11	-1
0	659	1.21	-1
0	1205	1.31	-1
0	1751	1.41	-1
0	2297	1.51	-1
0	2843	1.61	-1
0	3389	1.71	-1
0	3935	1.81	-1
0	4481	1.91	-1
0	5035	2.01	-1
0	5581	2.11	-1
0	6127	2.21	-1
0	6673	2.31	-1
0	7219	2.41	-1
0	7765	2.51	-1
0	8311	2.61	-1
0	8857	2.71	-1
0	9403	2.81	-1
0	9949	2.91	-1
0	10503	3.01	-1
0	11049	3.11	-1
0	11595	3.21	-1
0	12141	3.31	-1
0	12687	3.41	-1
0	13233	3.51	-1
0	13779	3.61	-1
0	14325	3.71	-1
0	14871	3.81	-1
0	15417	3.91	-1
0	15971	4.01	-1
0	16517	4.11	-1
0	17063	4.21	-1
0	17609	4.31	-1
0	18155	4.41	-1
0	18701	4.51	-1
0	19247	4.61	-1
0	19793	4.71	-1
0	20339	4.81	-1
0	20885	4.91	-1
0	21439	5.01	-1
0	21985	5.11	-1
0	22531	5.21	-1
0	23077	5.31	-1
0	23623	5.41	-1
0	24169	5.51	-1
0	24715	5.61	-1
0	25261	5.71	-1
0	25807	5.81	-1
0	26353	5.91	-1
0	26907	6.01	-1
0	27453	6.11	-1
0	27999	6.21	-1
0	28545	6.31	-1
0	29091	6.41	-1
0	29637	6.51	-1
0	30183	6.61	-1
0	30729	6.71	-1
0	31275	6.81	-1
0	31821	6.91	-1
0	32375	7.01	-1
0	32921	7.11	-1
0	33467	7.21	-1
0	34013	7.31	-1
0	34559	7.41	-1
0	35105	7.51	-1
0	35651	7.61	-1
0	36197	7.71	-1
0	36743	7.81	-1
0	37289	7.91	-1
0	37843	8.01	-1
0	38389	8.11	-1
0	38935	8.21	-1
0	39481	8.31	-1
0	40027	8.41	-1
0	40573	8.51	-1
0	41119	8.61	-1
0	41665	8.71	-1
0	42211	8.81	-1
0	42757	8.91	-1
0	43311	9.01	-1
0	43857	9.11	-1
0	44403	9.21	-1
0	44949	9.31	-1
0	45495	9.41	-1
0	46041	9.51	-1
0	46587	9.61	-1
0	47133	9.71	-1
0	47679	9.81	-1
0	48225	9.91	-1
0	48853	10.01	-1
0	49406	10.11	-1
0	49959	10.21	-1
0	50512	10.31	-1
0	51065	10.41	-1
0	51618	10.51	-1
0	52171	10.61	-1
0	52724	10.71	-1
0	53277	10.81	-1
0	53830	10.91	-1
0	54391	11.01	-1
0	54944	11.11	-1
0	55497	11.21	-1
0	56050	11.31	-1
0	56603	11.41	-1
0	57156	11.51	-1
0	57709	11.61	-1
0	58262	11.71	-1
0	58815	11.81	-1
0	59368	11.91	-1
0	59929	12.01	-1
0	60482	12.11	-1
0	61035	12.21	-1
0	61588	12.31	-1
0	62141	12.41	-1
0	62694	12.51	-1
0	63247	12.61	-1
0	63800	12.71	-1
0	64353	12.81	-1
0	64906	12.91	-1
0	65467	13.01	-1
0	66020	13.11	-1
0	66573	13.21	-1
0	67126	13.31	-1
0	67679	13.41	-1
0	68232	13.51	-1
0	68785	13.61	-1
0	69338	13.71	-1
0	69891	13.81	-1
0	70444	13.91	-1
0	71005	14.01	-1
0	71558	14.11	-1
0	72111	14.21	-1
0	72664	14.31	-1
0	73217	14.41	-1
0	73770	14.51	-1
0	74323	14.61	-1
0	74876	14.71	-1
0	75429	14.81	-1
0	75982	14.91	-1
0	76543	15.01	-1
0	77096	15.11	-1
0	77649	15.21	-1
0	78202	15.31	-1
0	78755	15.41	-1
0	79308	15.51	-1
0	79861	15.61	-1
0	80414	15.71	-1
0	80967	15.81	-1
0	81520	15.91	-1
0	82081	16.01	-1
0	82634	16.11	-1
0	83187	16.21	-1
0	83740	16.31	-1
0	84293	16.41	-1
0	84846	16.51	-1
0	85399	16.61	-1
0	85952	16.71	-1
0	86505	16.81	-1
0	87058	16.91	-1
0	87619	17.01	-1
0	88172	17.11	-1
0	88725	17.21	-1
0	89278	17.31	-1
0	89831	17.41	-1
0	90384	17.51	-1
0	90937	17.61	-1
0	91490	17.71	-1
0	92043	17.81	-1
0	92596	17.91	-1
0	93157	18.01	-1
0	93710	18.11	-1
0	94263	18.21	-1
0	94816	18.31	-1
0	95369	18.41	-1
0	95922	18.51	-1
0	96475	18.61	-1
0	97028	18.71	-1
0	97581	18.81	-1
0	98134	18.91	-1
0	98695	19.01	-1
0	99248	19.11	-1
0	99801	19.21	-1
0	100354	19.31	-1
0	100907	19.41	-1
0	101460	19.51	-1
0	102013	19.61	-1
0	102566	19.71	-1
0	103119	19.81	-1
0	103672	19.91	-1
0	104233	20.01	-1
0	104786	20.11	-1
0	105339	20.21	-1
0	105892	20.31	-1
0	106445	20.41	-1
0	106998	20.51	-1
0	107551	20.61	-1
0	108104	20.71	-1
0	108657	20.81	-1
0	109210	20.91	-1
0	109771	21.01	-1
0	110324	21.11	-1
0	110877	21.21	-1
0	111430	21.31	-1
0	111983	21.41	-1
0	112536	21.51	-1
0	113089	21.61	-1
0	113642	21.71	-1
0	114195	21.81	-1
0	114748	21.91	-1
0	115309	22.01	-1
0	115862	22.11	-1
0	116415	22.21	-1
0	116968	22.31	-1
0	117521	22.41	-1
0	118074	22.51	-1
0	118627	22.61	-1
0	119180	22.71	-1
0	119733	22.81	-1
0	120286	22.91	-1
0	120847	23.01	-1
0	121400	23.11	-1
0	121953	23.21	-1
0	122506	23.31	-1
0	123059	23.41	-1
0	123612	23.51	-1
0	124165	23.61	-1
0	124718	23.71	-1
0	125271	23.81	-1
0	125824	23.91	-1
0	126385	24.01	-1
0	126938	24.11	-1
0	127491	24.21	-1
0	128044	24.31	-1
0	128597	24.41	-1
0	129150	24.51	-1
0	129703	24.61	-1
0	130256	24.71	-1
0	130809	24.81	-1
0	131362	24.91	-1
0	131923	25.01	-1
0	132476	25.11	-1
0	133029	25.21	-1
0	133582	25.31	-1
0	134135	25.41	-1
0	134688	25.51	-1
0	135241	25.61	-1
0	135794	25.71	-1
0	136347	25.81	-1
0	136900	25.91	-1
0	137461	26.01	-1
0	138014	26.11	-1
0	138567	26.21	-1
0	139120	26.31	-1
0	139673	26.41	-1
0	140226	26.51	-1
0	140779	26.61	-1
0	141332	26.71	-1
0	141885	26.81	-1
0	142438	26.91	-1
0	142999	27.01	-1
0	143552	27.11	-1
0	144105	27.21	-1
0	144658	27.31	-1
0	145211	27.41	-1
0	145764	27.51	-1
0	146317	27.61	-1
0	146870	27.71	-1
0	147423	27.81	-1
0	147976	27.91	-1
0	148537	28.01	-1
0	149090	28.11	-1
0	149643	28.21	-1
0	150196	28.31	-1
0	150749	28.41	-1
0	151302	28.51	-1
0	151855	28.61	-1
0	152408	28.71	-1
0	152961	28.81	-1
0	153514	28.91	-1
0	154075	29.01	-1
0	154628	29.11	-1
0	155181	29.21	-1
0	155734	29.31	-1
0	156287	29.41	-1
0	156840	29.51	-1
0	157393	29.61	-1
0	157946	29.71	-1
0	158499	29.81	-1
0	159052	29.91	-1
0	159613	30.01	-1
0	160166	30.11	-1
0	160719	30.21	-1
0	161272	30.31	-1
0	161825	30.41	-1
0	162378	30.51	-1
0	162931	30.61	-1
0	163484	30.71	-1
0	164037	30.81	-1
0	164590	30.91	-1
0	165151	31.01	-1
0	165704	31.11	-1
0	166257	31.21	-1
0	166810	31.31	-1
0	167363	31.41	-1
0	167916	31.51	-1
0	168469	31.61	-1
0	169022	31.71	-1
0	169575	31.81	-1
0	170128	31.91	-1
0	170689	32.01	-1
0	171242	32.11	-1
0	171795	32.21	-1
0	172348	32.31	-1
0	172901	32.41	-1
0	173454	32.51	-1
0	174007	32.61	-1
0	174560	32.71	-1
0	175113	32.81	-1
0	175666	32.91	-1
0	176227	33.01	-1
0	176780	33.11	-1
0	177333	33.21	-1
0	177886	33.31	-1
0	178439	33.41	-1
0	178992	33.51	-1
0	179545	33.61	-1
0	180098	33.71	-1
0	180651	33.81	-1
0	181204	33.91	-1
0	181765	34.01	-1
0	182318	34.11	-1
0	182871	34.21	-1
0	183424	34.31	-1
0	183977	34.41	-1
0	184530	34.51	-1
0	185083	34.61	-1
0	185636	34.71	-1
0	186189	34.81	-1
0	186742	34.91	-1
0	187303	35.01	-1
0	187856	35.11	-1
0	188409	35.21	-1
0	188962	35.31	-1
0	189515	35.41	-1
0	190068	35.51	-1
0	190621	35.61	-1
0	191174	35.71	-1
0	191727	35.81	-1
1	113	1.11	0
1	659	1.21	0
1	1205	1.31	0
1	1751	1.41	0
1	2297	1.51	0
1	2843	1.61	0
1	3389	1.71	0
1	3935	1.81	0
1	4481	1.91	0
1	5035	2.01	0
1	5581	2.11	0
1	6127	2.21	0
1	6673	2.31	0
1	7219	2.41	0
1	7765	2.51	0
1	8311	2.61	0
1	8857	2.71	0
1	9403	2.81	0
1	9949	2.91	0
1	10503	3.01	0
1	11049	3.11	0
1	11595	3.21	0
1	12141	3.31	0
1	12687	3.41	0
1	13233	3.51	0
1	13779	3.61	0
1	14325	3.71	0
1	14871	3.81	0
1	15417	3.91	0
1	15971	4.01	0
1	16517	4.11	0
1	17063	4.21	0
1	17609	4.31	0
1	18155	4.41	0
1	18701	4.51	0
1	19247	4.61	0
1	19793	4.71	0
1	20339	4.81	0
1	20885	4.91	0
1	21439	5.01	0
1	21985	5.11	0
1	22531	5.21	0
1	23077	5.31	0
1	23623	5.41	0
1	24169	5.51	0
1	24715	5.61	0
1	25261	5.71	0
1	25807	5.81	0
1	26353	5.91	0
1	26907	6.01	0
1	27453	6.11	0
1	27999	6.21	0
1	28545	6.31	0
1	29091	6.41	0
1	29637	6.51	0
1	30183	6.61	0
1	30729	6.71	0
1	31275	6.81	0
1	31821	6.91	0
1	32375	7.01	0
1	32921	7.11	0
1	33467	7.21	0
1	34013	7.31	0
1	34559	7.41	0
1	35105	7.51	0
1	35651	7.61	0
1	36197	7.71	0
1	36743	7.81	0
1	37289	7.91	0
1	37843	8.01	0
1	38389	8.11	0
1	38935	8.21	0
1	39481	8.31	0
1	40027	8.41	0
1	40573	8.51	0
1	41119	8.61	0
1	41665	8.71	0
1	42211	8.81	0
1	42757	8.91	0
1	43311	9.01	0
1	43857	9.11	0
1	44403	9.21	0
1	44949	9.31	0
1	45495	9.41	0
1	46041	9.51	0
1	46587	9.61	0
1	47133	9.71	0
1	47679	9.81	0
1	48225	9.91	0
1	48853	10.01	0
1	49406	10.11	0
1	49959	10.21	0
1	50512	10.31	0
1	51065	10.41	0
1	51618	10.51	0
1	52171	10.61	0
1	52724	10.71	0
1	53277	10.81	0
1	53830	10.91	0
1	54391	11.01	0
1	54944	11.11	0
1	55497	11.21	0
1	56050	11.31	0
1	56603	11.41	0
1	57156	11.51	0
1	57709	11.61	0
1	58262	11.71	0
1	58815	11.81	0
1	59368	11.91	0
1	59929	12.01	0
1	60482	12.11	0
1	61035	12.21	0
1	61588	12.31	0
1	62141	12.41	0
1	62694	12.51	0
1	63247	12.61	0
1	63800	12.71	0
1	64353	12.81	0
1	64906	12.91	0
1	65467	13.01	0
1	66020	13.11	0
1	66573	13.21	0
1	67126	13.31	0
1	67679	13.41	0
1	68232	13.51	0
1	68785	13.61	0
1	69338	13.71	0
1	69891	13.81	0
1	70444	13.91	0
1	71005	14.01	0
1	71558	14.11	0
1	72111	14.21	0
1	72664	14.31	0
1	73217	14.41	0
1	73770	14.51	0
1	74323	14.61	0
1	74876	14.71	0
1	75429	14.81	0
1	75982	14.91	0
1	76543	15.01	0
1	77096	15.11	0
1	77649	15.21	0
1	78202	15.31	0
1	78755	15.41	0
1	79308	15.51	0
1	79861	15.61	0
1	80414	15.71	0
1	80967	15.81	0
1	81520	15.91	0
1	82081	16.01	0
1	82634	16.11	0
1	83187	16.21	0
1	83740	16.31	0
1	84293	16.41	0
1	84846	16.51	0
1	85399	16.61	0
1	85952	16.71	0
1	86505	16.81	0
1	87058	16.91	0
1	87619	17.01	0
1	88172	17.11	0
1	88725	17.21	0
1	89278	17.31	0
1	89831	17.41	0
1	90384	17.51	0
1	90937	17.61	0
1	91490	17.71	0
1	92043	17.81	0
1	92596	17.91	0
1	93157	18.01	0
1	93710	18.11	0
1	94263	18.21	0
1	94816	18.31	0
1	95369	18.41	0
1	95922	18.51	0
1	96475	18.61	0
1	97028	18.71	0
1	97581	18.81	0
1	98134	18.91	0
1	98695	19.01	0
1	99248	19.11	0
1	99801	19.21	0
1	100354	19.31	0
1	100907	19.41	0
1	101460	19.51	0
1	102013	19.61	0
1	102566	19.71	0
1	103119	19.81	0
1	103672	19.91	0
1	104233	20.01	0
1	104786	20.11	0
1	105339	20.21	0
1	105892	20.31	0
1	106445	20.41	0
1	106998	20.51	0
1	107551	20.61	0
1	108104	20.71	0
1	108657	20.81	0
1	109210	20.91	0
1	109771	21.01	0
1	110324	21.11	0
1	110877	21.21	0
1	111430	21.31	0
1	111983	21.41	0
1	112536	21.51	0
1	113089	21.61	0
1	113642	21.71	0
1	114195	21.81	0
1	114748	21.91	0
1	115309	22.01	0
1	115862	22.11	0
1	116415	22.21	0
1	116968	22.31	0
1	117521	22.41	0
1	118074	22.51	0
1	118627	22.61	0
1	119180	22.71	0
1	119733	22.81	0
1	120286	22.91	0
1	120847	23.01	0
1	121400	23.11	0
1	121953	23.21	0
1	122506	23.31	0
1	123059	23.41	0
1	123612	23.51	0
1	124165	23.61	0
1	124718	23.71	0
1	125271	23.81	0
1	125824	23.91	0
1	126385	24.01	0
1	126938	24.11	0
1	127491	24.21	0
1	128044	24.31	0
1	128597	24.41	0
1	129150	24.51	0
1	129703	24.61	0
1	130256	24.71	0
1	130809	24.81	0
1	131362	24.91	0
1	131923	25.01	0
1	132476	25.11	0
1	133029	25.21	0
1	133582	25.31	0
1	134135	25.41	0
1	134688	25.51	0
1	135241	25.61	0
1	135794	25.71	0
1	136347	25.81	0
1	136900	25.91	0
1	137461	26.01	0
1	138014	26.11	0
1	138567	26.21	0
1	139120	26.31	0
1	139673	26.41	0
1	140226	26.51	0
1	140779	26.61	0
1	141332	26.71	0
1	141885	26.81	0
1	142438	26.91	0
1	142999	27.01	0
1	143552	27.11	0
1	144105	27.21	0
1	144658	27.31	0
1	145211	27.41	0
1	145764	27.51	0
1	146317	27.61	0
1	146870	27.71	0
1	147423	27.81	0
1	147976	27.91	0
1	148537	28.01	0
1	149090	28.11	0
1	149643	28.21	0
1	150196	28.31	0
1	150749	28.41	0
1	151302	28.51	0
1	151855	28.61	0
1	152408	28.71	0
1	152961	28.81	0
1	153514	28.91	0
1	154075	29.01	0
1	154628	29.11	0
1	155181	29.21	0
1	155734	29.31	0
1	156287	29.41	0
1	156840	29.51	0
1	157393	29.61	0
1	157946	29.71	0
1	158499	29.81	0
1	159052	29.91	0
1	159613	30.01	0
1	160166	30.11	0
1	160719	30.21	0
1	161272	30.31	0
1	161825	30.41	0
1	162378	30.51	0
1	162931	30.61	0
1	163484	30.71	0
1	164037	30.81	0
1	164590	30.91	0
1	165151	31.01	0
1	165704	31.11	0
1	166257	31.21	0
1	166810	31.31	0
1	167363	31.41	0
1	167916	31.51	0
1	168469	31.61	0
1	169022	31.71	0
1	169575	31.81	0
1	170128	31.91	0
1	170689	32.01	0
1	171242	32.11	0
1	171795	32.21	0
1	172348	32.31	0
1	172901	32.41	0
1	173454	32.51	0
1	174007	32.61	0
1	174560	32.71	0
1	175113	32.81	0
1	175666	32.91	0
1	176227	33.01	0
1	176780	33.11	0
1	177333	33.21	0
1	177886	33.31	0
1	178439	33.41	0
1	178992	33.51	0
1	179545	33.61	0
1	180098	33.71	0
1	180651	33.81	0
1	181204	33.91	0
1	181765	34.01	0
1	182318	34.11	0
1	182871	34.21	0
1	183424	34.31	0
1	183977	34.41	0
1	184530	34.51	0
1	185083	34.61	0
1	185636	34.71	0
1	186189	34.81	0
1	186742	34.91	0
1	187303	35.01	0
1	187856	35.11	0
1	188409	35.21	0
1	188962	35.31	0
1	189515	35.41	0
1	190068	35.51	0
1	190621	35.61	0
1	191174	35.71	0
1	191727	35.81	0
2	113	1.11	0
2	659	1.21	0
2	1205	1.31	0
2	1751	1.41	0
2	2297	1.51	0
2	2843	1.61	0
2	3389	1.71	0
2	3935	1.81	0
2	4481	1.91	0
2	5035	2.01	0
2	5581	2.11	0
2	6127	2.21	0
2	6673	2.31	0
2	7219	2.41	0
2	7765	2.51	0
2	8311	2.61	0
2	8857	2.71	0
2	9403	2.81	0
2	9949	2.91	0
2	10503	3.01	0
2	11049	3.11	0
2	11595	3.21	0
2	12141	3.31	0
2	12687	3.41	0
2	13233	3.51	0
2	13779	3.61	0
2	14325	3.71	0
2	14871	3.81	0
2	15417	3.91	0
2	15971	4.01	0
2	16517	4.11	0
2	17063	4.21	0
2	17609	4.31	0
2	18155	4.41	0
2	18701	4.51	0
2	19247	4.61	0
2	19793	4.71	0
2	20339	4.81	0
2	20885	4.91	0
2	21439	5.01	0
2	21985	5.11	0
2	22531	5.21	0
2	23077	5.31	0
2	23623	5.41	0
2	24169	5.51	0
2	24715	5.61	0
2	25261	5.71	0
2	25807	5.81	0
2	26353	5.91	0
2	26907	6.01	0
2	27453	6.11	0
2	27999	6.21	0
2	28545	6.31	0
2	29091	6.41	0
2	29637	6.51	0
2	30183	6.61	0
2	30729	6.71	0
2	31275	6.81	0
2	31821	6.91	0
2	32375	7.01	0
2	32921	7.11	0
2	33467	7.21	0
2	34013	7.31	0
2	34559	7.41	0
2	35105	7.51	0
2	35651	7.61	0
2	36197	7.71	0
2	36743	7.81	0
2	37289	7.91	0
2	37843	8.01	0
2	38389	8.11	0
2	38935	8.21	0
2	39481	8.31	0
2	40027	8.41	0
2	40573	8.51	0
2	41119	8.61	0
2	41665	8.71	0
2	42211	8.81	0
2	42757	8.91	0
2	43311	9.01	0
2	43857	9.11	0
2	44403	9.21	0
2	44949	9.31	0
2	45495	9.41	0
2	46041	9.51	0
2	46587	9.61	0
2	47133	9.71	0
2	47679	9.81	0
2	48225	9.91	0
2	48853	10.01	0
2	49406	10.11	0
2	49959	10.21	0
2	50512	10.31	0
2	51065	10.41	0
2	51618	10.51	0
2	52171	10.61	0
2	52724	10.71	0
2	53277	10.81	0
2	53830	10.91	0
2	54391	11.01	0
2	54944	11.11	0
2	55497	11.21	0
2	56050	11.31	0
2	56603	11.41	0
2	57156	11.51	0
2	57709	11.61	0
2	58262	11.71	0
2	58815	11.81	0
2	59368	11.91	0
2	59929	12.01	0
2	60482	12.11	0
2	61035	12.21	0
2	61588	12.31	0
2	62141	12.41	0
2	62694	12.51	0
2	63247	12.61	0
2	63800	12.71	0
2	64353	12.81	0
2	64906	12.91	0
2	65467	13.01	0
2	66020	13.11	0
2	66573	13.21	0
2	67126	13.31	0
2	67679	13.41	0
2	68232	13.51	0
2	68785	13.61	0
2	69338	13.71	0
2	69891	13.81	0
2	70444	13.91	0
2	71005	14.01	0
2	71558	14.11	0
2	72111	14.21	0
2	72664	14.31	0
2	73217	14.41	0
2	73770	14.51	0
2	74323	14.61	0
2	74876	14.71	0
2	75429	14.81	0
2	75982	14.91	0
2	76543	15.01	0
2	77096	15.11	0
2	77649	15.21	0
2	78202	15.31	0
2	78755	15.41	0
2	79308	15.51	0
2	79861	15.61	0
2	80414	15.71	0
2	80967	15.81	0
2	81520	15.91	0
2	82081	16.01	0
2	82634	16.11	0
2	83187	16.21	0
2	83740	16.31	0
2	84293	16.41	0
2	84846	16.51	0
2	85399	16.61	0
2	85952	16.71	0
2	86505	16.81	0
2	87058	16.91	0
2	87619	17.01	0
2	88172	17.11	0
2	88725	17.21	0
2	89278	17.31	0
2	89831	17.41	0
2	90384	17.51	0
2	90937	17.61	0
2	91490	17.71	0
2	92043	17.81	0
2	92596	17.91	0
2	93157	18.01	0
2	93710	18.11	0
2	94263	18.21	0
2	94816	18.31	0
2	95369	18.41	0
2	95922	18.51	0
2	96475	18.61	0
2	97028	18.71	0
2	97581	18.81	0
2	98134	18.91	0
2	98695	19.01	0
2	99248	19.11	0
2	99801	19.21	0
2	100354	19.31	0
2	100907	19.41	0
2	101460	19.51	0
2	102013	19.61	0
2	102566	19.71	0
2	103119	19.81	0
2	103672	19.91	0
2	104233	20.01	0
2	104786	20.11	0
2	105339	20.21	0
2	105892	20.31	0
2	106445	20.41	0
2	106998	20.51	0
2	107551	20.61	0
2	108104	20.71	0
2	108657	20.81	0
2	109210	20.91	0
2	109771	21.01	0
2	110324	21.11	0
2	110877	21.21	0
2	111430	21.31	0
2	111983	21.41	0
2	112536	21.51	0
2	113089	21.61	0
2	113642	21.71	0
2	114195	21.81	0
2	114748	21.91	0
2	115309	22.01	0
2	115862	22.11	0
2	116415	22.21	0
2	116968	22.31	0
2	117521	22.41	0
2	118074	22.51	0
2	118627	22.61	0
2	119180	22.71	0
2	119733	22.81	0
2	120286	22.91	0
2	120847	23.01	0
2	121400	23.11	0
2	121953	23.21	0
2	122506	23.31	0
2	123059	23.41	0
2	123612	23.51	0
2	124165	23.61	0
2	124718	23.71	0
2	125271	23.81	0
2	125824	23.91	0
2	126385	24.01	0
2	126938	24.11	0
2	127491	24.21	0
2	128044	24.31	0
2	128597	24.41	0
2	129150	24.51	0
2	129703	24.61	0
2	130256	24.71	0
2	130809	24.81	0
2	131362	24.91	0
2	131923	25.01	0
2	132476	25.11	0
2	133029	25.21	0
2	133582	25.31	0
2	134135	25.41	0
2	134688	25.51	0
2	135241	25.61	0
2	135794	25.71	0
2	136347	25.81	0
2	136900	25.91	0
2	137461	26.01	0
2	138014	26.11	0
2	138567	26.21	0
2	139120	26.31	0
2	139673	26.41	0
2	140226	26.51	0
2	140779	26.61	0
2	141332	26.71	0
2	141885	26.81	0
2	142438	26.91	0
2	142999	27.01	0
2	143552	27.11	0
2	144105	27.21	0
2	144658	27.31	0
2	145211	27.41	0
2	145764	27.51	0
2	146317	27.61	0
2	146870	27.71	0
2	147423	27.81	0
2	147976	27.91	0
2	148537	28.01	0
2	149090	28.11	0
2	149643	28.21	0
2	150196	28.31	0
2	150749	28.41	0
2	151302	28.51	0
2	151855	28.61	0
2	152408	28.71	0
2	152961	28.81	0
2	153514	28.91	0
2	154075	29.01	0
2	154628	29.11	0
2	155181	29.21	0
2	155734	29.31	0
2	156287	29.41	0
2	156840	29.51	0
2	157393	29.61	0
2	157946	29.71	0
2	158499	29.81	0
2	159052	29.91	0
2	159613	30.01	0
2	160166	30.11	0
2	160719	30.21	0
2	161272	30.31	0
2	161825	30.41	0
2	162378	30.51	0
2	162931	30.61	0
2	163484	30.71	0
2	164037	30.81	0
2	164590	30.91	0
2	165151	31.01	0
2	165704	31.11	0
2	166257	31.21	0
2	166810	31.31	0
2	167363	31.41	0
2	167916	31.51	0
2	168469	31.61	0
2	169022	31.71	0
2	169575	31.81	0
2	170128	31.91	0
2	170689	32.01	0
2	171242	32.11	0
2	171795	32.21	0
2	172348	32.31	0
2	172901	32.41	0
2	173454	32.51	0
2	174007	32.61	0
2	174560	32.71	0
2	175113	32.81	0
2	175666	32.91	0
2	176227	33.01	0
2	176780	33.11	0
2	177333	33.21	0
2	177886	33.31	0
2	178439	33.41	0
2	178992	33.51	0
2	179545	33.61	0
2	180098	33.71	0
2	180651	33.81	0
2	181204	33.91	0
2	181765	34.01	0
2	182318	34.11	0
2	182871	34.21	0
2	183424	34.31	0
2	183977	34.41	0
2	184530	34.51	0
2	185083	34.61	0
2	185636	34.71	0
2	186189	34.81	0
2	186742	34.91	0
2	187303	35.01	0
2	187856	35.11	0
2	188409	35.21	0
2	188962	35.31	0
2	189515	35.41	0
2	190068	35.51	0
2	190621	35.61	0
2	191174	35.71	0
2	191727	35.81	0
3	113	1.11	-0.000716383
3	659	1.21	-0.00136341
3	1205	1.31	-0.00186974
3	1751	1.41	-0.00225157
3	2297	1.51	-0.00252443
3	2843	1.61	-0.00270298
3	3389	1.71	-0.00280098
3	3935	1.81	-0.00283113
3	4481	1.91	-0.00280509
3	5035	2.01	-0.00273342
3	5581	2.11	-0.00262559
3	6127	2.21	-0.00249005
3	6673	2.31	-0.00233419
3	7219	2.41	-0.00216447
3	7765	2.51	-0.00198642
3	8311	2.61	-0.00180472
3	8857	2.71	-0.0016233
3	9403	2.81	-0.00144536
3	9949	2.91	-0.00127346
3	10503	3.01	-0.0011096
3	11049	3.11	-0.000955278
3	11595	3.21	-0.000811546
3	12141	3.31	-0.00067908
3	12687	3.41	-0.000558232
3	13233	3.51	-0.000449082
3	13779	3.61	-0.000351487
3	14325	3.71	-0.00026512
3	14871	3.81	-0.000189514
3	15417	3.91	-0.000124092
3	15971	4.01	-6.81972e-05
3	16517	4.11	-2.11209e-05
3	17063	4.21	1.78769e-05
3	17609	4.31	4.9548e-05
3	18155	4.41	7.46407e-05
3	18701	4.51	9.38867e-05
3	19247	4.61	0.000107991
3	19793	4.71	0.000117625
3	20339	4.81	0.000123418
3	20885	4.91	0.000125957
3	21439	5.01	0.000125781
3	21985	5.11	0.00012338
3	22531	5.21	0.000119198
3	23077	5.31	0.000113629
3	23623	5.41	0.000107022
3	24169	5.51	9.96832e-05
3	24715	5.61	9.18747e-05
3	25261	5.71	8.38211e-05
3	25807	5.81	7.57109e-05
3	26353	5.91	6.76999e-05
3	26907	6.01	5.99137e-05
3	27453	6.11	5.24518e-05
3	27999	6.21	4.53896e-05
3	28545	6.31	3.87821e-05
3	29091	6.41	3.2666e-05
3	29637	6.51	2.70628e-05
3	30183	6.61	2.19809e-05
3	30729	6.71	1.74176e-05
3	31275	6.81	1.33618e-05
3	31821	6.91	9.79494e-06
3	32375	7.01	6.6932e-06
3	32921	7.11	4.02864e-06
3	33467	7.21	1.77051e-06
3	34013	7.31	-1.13691e-07
3	34559	7.41	-1.65736e-06
3	35105	7.51	-2.89397e-06
3	35651	7.61	-3.85652e-06
3	36197	7.71	-4.57698e-06
3	36743	7.81	-5.08591e-06
3	37289	7.91	-5.41219e-06
3	37843	8.01	-5.58279e-06
3	38389	8.11	-5.6226e-06
3	38935	8.21	-5.55442e-06
3	39481	8.31	-5.39886e-06
3	40027	8.41	-5.17441e-06
3	40573	8.51	-4.89748e-06
3	41119	8.61	-4.58246e-06
3	41665	8.71	-4.24184e-06
3	42211	8.81	-3.88634e-06
3	42757	8.91	-3.52499e-06
3	43311	9.01	-3.16534e-06
3	43857	9.11	-2.81353e-06
3	44403	9.21	-2.47446e-06
3	44949	9.31	-2.15192e-06
3	45495	9.41	-1.84873e-06
3	46041	9.51	-1.56685e-06
3	46587	9.61	-1.30751e-06
3	47133	9.71	-1.0713e-06
3	47679	9.81	-8.58321e-07
3	48225	9.91	-6.68206e-07
3	48853	10.01	-5.0026e-07
3	49406	10.11	-3.53514e-07
3	49959	10.21	-2.2679e-07
3	50512	10.31	-1.18765e-07
3	51065	10.41	-2.80163e-08
3	51618	10.51	4.6931e-08
3	52171	10.61	1.07573e-07
3	52724	10.71	1.55391e-07
3	53277	10.81	1.91831e-07
3	53830	10.91	2.18284e-07
3	54391	11.01	2.3607e-07
3	54944	11.11	2.46427e-07
3	55497	11.21	2.50502e-07
3	56050	11.31	2.49353e-07
3	56603	11.41	2.43938e-07
3	57156	11.51	2.3512e-07
3	57709	11.61	2.23669e-07
3	58262	11.71	2.10264e-07
3	58815	11.81	1.95496e-07
3	59368	11.91	1.79874e-07
3	59929	12.01	1.63833e-07
3	60482	12.11	1.47736e-07
3	61035	12.21	1.3188e-07
3	61588	12.31	1.16508e-07
3	62141	12.41	1.01807e-07
3	62694	12.51	8.79222e-08
3	63247	12.61	7.49541e-08
3	63800	12.71	6.29711e-08
3	64353	12.81	5.20114e-08
3	64906	12.91	4.20883e-08
3	65467	13.01	3.3193e-08
3	66020	13.11	2.53003e-08
3	66573	13.21	1.83718e-08
3	67126	13.31	1.23581e-08
3	67679	13.41	7.20348e-09
3	68232	13.51	2.84537e-09
3	68785	13.61	-7.80886e-10
3	69338	13.71	-3.74136e-09
3	69891	13.81	-6.10285e-09
3	70444	13.91	-7.93072e-09
3	71005	14.01	-9.28821e-09
3	71558	14.11	-1.0235e-08
3	72111	14.21	-1.08283e-08
3	72664	14.31	-1.11211e-08
3	73217	14.41	-1.11612e-08
3	73770	14.51	-1.09946e-08
3	74323	14.61	-1.06599e-08
3	74876	14.71	-1.01945e-08
3	75429	14.81	-9.62999e-09
3	75982	14.91	-8.99405e-09
3	76543	15.01	-8.31086e-09
3	77096	15.11	-7.60103e-09
3	77649	15.21	-6.88338e-09
3	78202	15.31	-6.17071e-09
3	78755	15.41	-5.47544e-09
3	79308	15.51	-4.80682e-09
3	79861	15.61	-4.17266e-09
3	80414	15.71	-3.57687e-09
3	80967	15.81	-3.02443e-09
3	81520	15.91	-2.51674e-09
3	82081	16.01	-2.05489e-09
3	82634	16.11	-1.63958e-09
3	83187	16.21	-1.26903e-09
3	83740	16.31	-9.42535e-10
3	84293	16.41	-6.57963e-10
3	84846	16.51	-4.1247e-10
3	85399	16.61	-2.04636e-10
3	85952	16.71	-2.91323e-11
3	86505	16.81	1.14753e-10
3	87058	16.91	2.30926e-10
3	87619	17.01	3.22231e-10
3	88172	17.11	3.91154e-10
3	88725	17.21	4.40892e-10
3	89278	17.31	4.73577e-10
3	89831	17.41	4.92051e-10
3	90384	17.51	4.98446e-10
3	90937	17.61	4.94893e-10
3	91490	17.71	4.82814e-10
3	92043	17.81	4.6434e-10
3	92596	17.91	4.40892e-10
3	93157	18.01	4.13536e-10
3	93710	18.11	3.83693e-10
3	94263	18.21	3.51719e-10
3	94816	18.31	3.19744e-10
3	95369	18.41	2.8777e-10
3	95922	18.51	2.55795e-10
3	96475	18.61	2.25953e-10
3	97028	18.71	1.97531e-10
3	97581	18.81	1.6982e-10
3	98134	18.91	1.44951e-10
3	98695	19.01	1.21503e-10
3	99248	19.11	1.00187e-10
3	99801	19.21	8.10019e-11
3	100354	19.31	6.32383e-11
3	100907	19.41	4.86722e-11
3	101460	19.51	3.44613e-11
3	102013	19.61	2.34479e-11
3	102566	19.71	1.27898e-11
3	103119	19.81	4.9738e-12
3	103672	19.91	-2.13163e-12
3	104233	20.01	-8.17124e-12
3	104786	20.11	-1.1724e-11
3	105339	20.21	-1.52767e-11
3	105892	20.31	-1.88294e-11
3	106445	20.41	-2.02505e-11
3	106998	20.51	-2.02505e-11
3	107551	20.61	-2.02505e-11
3	108104	20.71	-2.02505e-11
3	108657	20.81	-2.02505e-11
3	109210	20.91	-2.02505e-11
3	109771	21.01	-2.02505e-11
3	110324	21.11	-2.02505e-11
3	110877	21.21	-2.02505e-11
3	111430	21.31	-1.88294e-11
3	111983	21.41	-1.7053e-11
3	112536	21.51	-1.52767e-11
3	113089	21.61	-1.38556e-11
3	113642	21.71	-1.24345e-11
3	114195	21.81	-1.13687e-11
3	114748	21.91	-1.03029e-11
3	115309	22.01	-9.23706e-12
3	115862	22.11	-8.52651e-12
3	116415	22.21	-7.4607e-12
3	116968	22.31	-6.75016e-12
3	117521	22.41	-6.03961e-12
3	118074	22.51	-5.68434e-12
3	118627	22.61	-4.9738e-12
3	119180	22.71	-4.61853e-12
3	119733	22.81	-4.26326e-12
3	120286	22.91	-3.90799e-12
3	120847	23.01	-3.55271e-12
3	121400	23.11	-3.19744e-12
3	121953	23.21	-2.84217e-12
3	122506	23.31	-2.4869e-12
3	123059	23.41	-2.13163e-12
3	123612	23.51	-2.13163e-12
3	124165	23.61	-1.77636e-12
3	124718	23.71	-1.77636e-12
3	125271	23.81	-1.42109e-12
3	125824	23.91	-1.42109e-12
3	126385	24.01	-1.06581e-12
3	126938	24.11	-1.06581e-12
3	127491	24.21	-1.06581e-12
3	128044	24.31	-1.06581e-12
3	128597	24.41	-7.10543e-13
3	129150	24.51	-7.10543e-13
3	129703	24.61	-7.10543e-13
3	130256	24.71	-7.10543e-13
3	130809	24.81	-7.10543e-13
3	131362	24.91	-3.55271e-13
3	131923	25.01	-3.55271e-13
3	132476	25.11	-3.55271e-13
3	133029	25.21	-3.55271e-13
3	133582	25.31	-3.55271e-13
3	134135	25.41	-3.55271e-13
3	134688	25.51	-3.55271e-13
3	135241	25.61	-3.55271e-13
3	135794	25.71	-3.55271e-13
3	136347	25.81	-3.55271e-13
3	136900	25.91	0
3	137461	26.01	0
3	138014	26.11	0
3	138567	26.21	0
3	139120	26.31	0
3	139673	26.41	0
3	140226	26.51	0
3	140779	26.61	0
3	141332	26.71	0
3	141885	26.81	0
3	142438	26.91	0
3	142999	27.01	0
3	143552	27.11	0
3	144105	27.21	0
3	144658	27.31	0
3	145211	27.41	0
3	145764	27.51	0
3	146317	27.61	0
3	146870	27.71	0
3	147423	27.81	0
3	147976	27.91	0
3	148537	28.01	0
3	149090	28.11	0
3	149643	28.21	0
3	150196	28.31	0
3	150749	28.41	0
3	151302	28.51	0
3	151855	28.61	0
3	152408	28.71	0
3	152961	28.81	0
3	153514	28.91	0
3	154075	29.01	0
3	154628	29.11	0
3	155181	29.21	0
3	155734	29.31	0
3	156287	29.41	0
3	156840	29.51	0
3	157393	29.61	0
3	157946	29.71	0
3	158499	29.81	0
3	159052	29.91	0
3	159613	30.01	0
3	160166	30.11	0
3	160719	30.21	0
3	161272	30.31	0
3	161825	30.41	0
3	162378	30.51	0
3	162931	30.61	0
3	163484	30.71	0
3	164037	30.81	0
3	164590	30.91	0
3	165151	31.01	0
3	165704	31.11	0
3	166257	31.21	0
3	166810	31.31	0
3	167363	31.41	0
3	167916	31.51	0
3	168469	31.61	0
3	169022	31.71	0
3	169575	31.81	0
3	170128	31.91	0
3	170689	32.01	0
3	171242	32.11	0
3	171795	32.21	0
3	172348	32.31	0
3	172901	32.41	0
3	173454	32.51	0
3	174007	32.61	0
3	174560	32.71	0
3	175113	32.81	0
3	175666	32.91	0
3	176227	33.01	0
3	176780	33.11	0
3	177333	33.21	0
3	177886	33.31	0
3	178439	33.41	0
3	178992	33.51	0
3	179545	33.61	0
3	180098	33.71	0
3	180651	33.81	0
3	181204	33.91	0
3	181765	34.01	0
3	182318	34.11	0
3	182871	34.21	0
3	183424	34.31	0
3	183977	34.41	0
3	184530	34.51	0
3	185083	34.61	0
3	185636	34.71	0
3	186189	34.81	0
3	186742	34.91	0
3	187303	35.01	0
3	187856	35.11	0
3	188409	35.21	0
3	188962	35.31	0
3	189515	35.41	0
3	190068	35.51	0
3	190621	35.61	0
3	191174	35.71	0
3	191727	35.81	0
4	113	1.11	-0.00437036
4	659	1.21	-0.00426837
4	1205	1.31	-0.00410815
4	1751	1.41	-0.00390303
4	2297	1.51	-0.00366476
4	2843	1.61	-0.00340356
4	3389	1.71	-0.00312825
4	3935	1.81	-0.00284628
4	4481	1.91	-0.00256392
4	5035	2.01	-0.0022863
4	5581	2.11	-0.00201755
4	6127	2.21	-0.00176089
4	6673	2.31	-0.00151876
4	7219	2.41	-0.00129289
4	7765	2.51	-0.00108441
4	8311	2.61	-0.00089393
4	8857	2.71	-0.000721638
4	9403	2.81	-0.000567355
4	9949	2.91	-0.000430614
4	10503	3.01	-0.000310715
4	11049	3.11	-0.000206783
4	11595	3.21	-0.000117814
4	12141	3.31	-4.27149e-05
4	12687	3.41	1.96584e-05
4	13233	3.51	7.04736e-05
4	13779	3.61	0.000110896
4	14325	3.71	0.000142067
4	14871	3.81	0.00016509
4	15417	3.91	0.000181016
4	15971	4.01	0.000190834
4	16517	4.11	0.000195466
4	17063	4.21	0.00019576
4	17609	4.31	0.000192489
4	18155	4.41	0.000186354
4	18701	4.51	0.000177979
4	19247	4.61	0.000167916
4	19793	4.71	0.000156649
4	20339	4.81	0.000144597
4	20885	4.91	0.000132116
4	21439	5.01	0.000119508
4	21985	5.11	0.000107021
4	22531	5.21	9.48587e-05
4	23077	5.31	8.31796e-05
4	23623	5.41	7.21068e-05
4	24169	5.51	6.17299e-05
4	24715	5.61	5.21101e-05
4	25261	5.71	4.32839e-05
4	25807	5.81	3.52669e-05
4	26353	5.91	2.80577e-05
4	26907	6.01	2.16404e-05
4	27453	6.11	1.59878e-05
4	27999	6.21	1.1064e-05
4	28545	6.31	6.82631e-06
4	29091	6.41	3.22748e-06
4	29637	6.51	2.17307e-07
4	30183	6.61	-2.25598e-06
4	30729	6.71	-4.24448e-06
4	31275	6.81	-5.79961e-06
4	31821	6.91	-6.97134e-06
4	32375	7.01	-7.80753e-06
4	32921	7.11	-8.35346e-06
4	33467	7.21	-8.65149e-06
4	34013	7.31	-8.7408e-06
4	34559	7.41	-8.6573e-06
4	35105	7.51	-8.43352e-06
4	35651	7.61	-8.09868e-06
4	36197	7.71	-7.67874e-06
4	36743	7.81	-7.19651e-06
4	37289	7.91	-6.67185e-06
4	37843	8.01	-6.12177e-06
4	38389	8.11	-5.56072e-06
4	38935	8.21	-5.00073e-06
4	39481	8.31	-4.45164e-06
4	40027	8.41	-3.92136e-06
4	40573	8.51	-3.41601e-06
4	41119	8.61	-2.94018e-06
4	41665	8.71	-2.4971e-06
4	42211	8.81	-2.08883e-06
4	42757	8.91	-1.71644e-06
4	43311	9.01	-1.38016e-06
4	43857	9.11	-1.07955e-06
4	44403	9.21	-8.13576e-07
4	44949	9.31	-5.80794e-07
4	45495	9.41	-3.79414e-07
4	46041	9.51	-2.07408e-07
4	46587	9.61	-6.25825e-08
4	47133	9.71	5.73472e-08
4	47679	9.81	1.54703e-07
4	48225	9.91	2.31794e-07
4	48853	10.01	2.90877e-07
4	49406	10.11	3.3413e-07
4	49959	10.21	3.63618e-07
4	50512	10.31	3.81288e-07
4	51065	10.41	3.88944e-07
4	51618	10.51	3.88249e-07
4	52171	10.61	3.80715e-07
4	52724	10.71	3.67706e-07
4	53277	10.81	3.50439e-07
4	53830	10.91	3.29989e-07
4	54391	11.01	3.07294e-07
4	54944	11.11	2.83164e-07
4	55497	11.21	2.58291e-07
4	56050	11.31	2.33253e-07
4	56603	11.41	2.0853e-07
4	57156	11.51	1.84509e-07
4	57709	11.61	1.61493e-07
4	58262	11.71	1.39716e-07
4	58815	11.81	1.19345e-07
4	59368	11.91	1.00493e-07
4	59929	12.01	8.32259e-08
4	60482	12.11	6.75676e-08
4	61035	12.21	5.35106e-08
4	61588	12.31	4.10193e-08
4	62141	12.41	3.00361e-08
4	62694	12.51	2.04874e-08
4	63247	12.61	1.22867e-08
4	63800	12.71	5.33902e-09
4	64353	12.81	-4.56524e-10
4	64906	12.91	-5.20259e-09
4	65467	13.01	-9.00258e-09
4	66020	13.11	-1.19588e-08
4	66573	13.21	-1.41693e-08
4	67126	13.31	-1.57286e-08
4	67679	13.41	-1.67255e-08
4	68232	13.51	-1.72435e-08
4	68785	13.61	-1.73589e-08
4	69338	13.71	-1.71426e-08
4	69891	13.81	-1.66573e-08
4	70444	13.91	-1.59606e-08
4	71005	14.01	-1.51029e-08
4	71558	14.11	-1.41284e-08
4	72111	14.21	-1.30754e-08
4	72664	14.31	-1.19773e-08
4	73217	14.41	-1.08614e-08
4	73770	14.51	-9.75113e-09
4	74323	14.61	-8.66542e-09
4	74876	14.71	-7.61951e-09
4	75429	14.81	-6.62475e-09
4	75982	14.91	-5.69003e-09
4	76543	15.01	-4.82103e-09
4	77096	15.11	-4.02167e-09
4	77649	15.21	-3.29372e-09
4	78202	15.31	-2.63753e-09
4	78755	15.41	-2.05205e-09
4	79308	15.51	-1.53477e-09
4	79861	15.61	-1.08287e-09
4	80414	15.71	-6.92779e-10
4	80967	15.81	-3.606e-10
4	81520	15.91	-8.13571e-11
4	82081	16.01	1.49214e-10
4	82634	16.11	3.35731e-10
4	83187	16.21	4.82459e-10
4	83740	16.31	5.94369e-10
4	84293	16.41	6.75726e-10
4	84846	16.51	7.30083e-10
4	85399	16.61	7.61702e-10
4	85952	16.71	7.73781e-10
4	86505	16.81	7.70228e-10
4	87058	16.91	7.53175e-10
4	87619	17.01	7.25819e-10
4	88172	17.11	6.90292e-10
4	88725	17.21	6.48726e-10
4	89278	17.31	6.03251e-10
4	89831	17.41	5.54934e-10
4	90384	17.51	5.05196e-10
4	90937	17.61	4.55458e-10
4	91490	17.71	4.0643e-10
4	92043	17.81	3.58824e-10
4	92596	17.91	3.13349e-10
4	93157	18.01	2.70717e-10
4	93710	18.11	2.30571e-10
4	94263	18.21	1.93623e-10
4	94816	18.31	1.59872e-10
4	95369	18.41	1.29319e-10
4	95922	18.51	1.01963e-10
4	96475	18.61	7.78044e-11
4	97028	18.71	5.64881e-11
4	97581	18.81	3.8014e-11
4	98134	18.91	2.20268e-11
4	98695	19.01	8.88178e-12
4	99248	19.11	-2.4869e-12
4	99801	19.21	-1.13687e-11
4	100354	19.31	-1.88294e-11
4	100907	19.41	-2.45137e-11
4	101460	19.51	-2.8777e-11
4	102013	19.61	-3.16192e-11
4	102566	19.71	-3.33955e-11
4	103119	19.81	-3.44613e-11
4	103672	19.91	-3.44613e-11
4	104233	20.01	-3.41061e-11
4	104786	20.11	-3.30402e-11
4	105339	20.21	-3.16192e-11
4	105892	20.31	-3.01981e-11
4	106445	20.41	-2.80664e-11
4	106998	20.51	-2.59348e-11
4	107551	20.61	-2.41585e-11
4	108104	20.71	-2.20268e-11
4	108657	20.81	-1.98952e-11
4	109210	20.91	-1.77636e-11
4	109771	21.01	-1.59872e-11
4	110324	21.11	-1.38556e-11
4	110877	21.21	-1.1724e-11
4	111430	21.31	-9.9476e-12
4	111983	21.41	-8.17124e-12
4	112536	21.51	-6.39488e-12
4	113089	21.61	-4.9738e-12
4	113642	21.71	-3.55271e-12
4	114195	21.81	-2.4869e-12
4	114748	21.91	-1.42109e-12
4	115309	22.01	-3.55271e-13
4	115862	22.11	3.55271e-13
4	116415	22.21	1.42109e-12
4	116968	22.31	2.13163e-12
4	117521	22.41	2.84217e-12
4	118074	22.51	3.19744e-12
4	118627	22.61	3.90799e-12
4	119180	22.71	4.26326e-12
4	119733	22.81	4.61853e-12
4	120286	22.91	4.9738e-12
4	120847	23.01	5.32907e-12
4	121400	23.11	5.68434e-12
4	121953	23.21	6.03961e-12
4	122506	23.31	6.39488e-12
4	123059	23.41	6.75016e-12
4	123612	23.51	6.75016e-12
4	124165	23.61	7.10543e-12
4	124718	23.71	7.10543e-12
4	125271	23.81	7.4607e-12
4	125824	23.91	7.4607e-12
4	126385	24.01	7.81597e-12
4	126938	24.11	7.81597e-12
4	127491	24.21	7.81597e-12
4	128044	24.31	7.81597e-12
4	128597	24.41	8.17124e-12
4	129150	24.51	8.17124e-12
4	129703	24.61	8.17124e-12
4	130256	24.71	8.17124e-12
4	130809	24.81	8.17124e-12
4	131362	24.91	8.52651e-12
4	131923	25.01	8.52651e-12
4	132476	25.11	8.52651e-12
4	133029	25.21	8.52651e-12
4	133582	25.31	8.52651e-12
4	134135	25.41	8.52651e-12
4	134688	25.51	8.52651e-12
4	135241	25.61	8.52651e-12
4	135794	25.71	8.52651e-12
4	136347	25.81	8.52651e-12
4	136900	25.91	8.88178e-12
4	137461	26.01	8.88178e-12
4	138014	26.11	8.88178e-12
4	138567	26.21	8.88178e-12
4	139120	26.31	8.88178e-12
4	139673	26.41	8.88178e-12
4	140226	26.51	8.88178e-12
4	140779	26.61	8.88178e-12
4	141332	26.71	8.88178e-12
4	141885	26.81	8.88178e-12
4	142438	26.91	8.88178e-12
4	142999	27.01	8.88178e-12
4	143552	27.11	8.88178e-12
4	144105	27.21	8.88178e-12
4	144658	27.31	8.88178e-12
4	145211	27.41	8.88178e-12
4	145764	27.51	8.88178e-12
4	146317	27.61	8.88178e-12
4	146870	27.71	8.88178e-12
4	147423	27.81	8.88178e-12
4	147976	27.91	8.88178e-12
4	148537	28.01	8.88178e-12
4	149090	28.11	8.88178e-12
4	149643	28.21	8.88178e-12
4	150196	28.31	8.88178e-12
4	150749	28.41	8.88178e-12
4	151302	28.51	8.88178e-12
4	151855	28.61	8.88178e-12
4	152408	28.71	8.88178e-12
4	152961	28.81	8.88178e-12
4	153514	28.91	8.88178e-12
4	154075	29.01	8.88178e-12
4	154628	29.11	8.88178e-12
4	155181	29.21	8.88178e-12
4	155734	29.31	8.88178e-12
4	156287	29.41	8.88178e-12
4	156840	29.51	8.88178e-12
4	157393	29.61	8.88178e-12
4	157946	29.71	8.88178e-12
4	158499	29.81	8.88178e-12
4	159052	29.91	8.88178e-12
4	159613	30.01	8.88178e-12
4	160166	30.11	8.88178e-12
4	160719	30.21	8.88178e-12
4	161272	30.31	8.88178e-12
4	161825	30.41	8.88178e-12
4	162378	30.51	8.88178e-12
4	162931	30.61	8.88178e-12
4	163484	30.71	8.88178e-12
4	164037	30.81	8.88178e-12
4	164590	30.91	8.88178e-12
4	165151	31.01	8.88178e-12
4	165704	31.11	8.88178e-12
4	166257	31.21	8.88178e-12
4	166810	31.31	8.88178e-12
4	167363	31.41	8.88178e-12
4	167916	31.51	8.88178e-12
4	168469	31.61	8.88178e-12
4	169022	31.71	8.88178e-12
4	169575	31.81	8.88178e-12
4	170128	31.91	8.88178e-12
4	170689	32.01	8.88178e-12
4	171242	32.11	8.88178e-12
4	171795	32.21	8.88178e-12
4	172348	32.31	8.88178e-12
4	172901	32.41	8.88178e-12
4	173454	32.51	8.88178e-12
4	174007	32.61	8.88178e-12
4	174560	32.71	8.88178e-12
4	175113	32.81	8.88178e-12
4	175666	32.91	8.88178e-12
4	176227	33.01	8.88178e-12
4	176780	33.11	8.88178e-12
4	177333	33.21	8.88178e-12
4	177886	33.31	8.88178e-12
4	178439	33.41	8.88178e-12
4	178992	33.51	8.88178e-12
4	179545	33.61	8.88178e-12
4	180098	33.71	8.88178e-12
4	180651	33.81	8.88178e-12
4	181204	33.91	8.88178e-12
4	181765	34.01	8.88178e-12
4	182318	34.11	8.88178e-12
4	182871	34.21	8.88178e-12
4	183424	34.31	8.88178e-12
4	183977	34.41	8.88178e-12
4	184530	34.51	8.88178e-12
4	185083	34.61	8.88178e-12
4	185636	34.71	8.88178e-12
4	186189	34.81	8.88178e-12
4	186742	34.91	8.88178e-12
4	187303	35.01	8.88178e-12
4	187856	35.11	8.88178e-12
4	188409	35.21	8.88178e-12
4	188962	35.31	8.88178e-12
4	189515	35.41	8.88178e-12
4	190068	35.51	8.88178e-12
4	190621	35.61	8.88178e-12
4	191174	35.71	8.88178e-12
4	191727	35.81	8.88178e-12
5	113	1.11	30.56
5	659	1.21	30.5599
5	1205	1.31	30.5597
5	1751	1.41	30.5595
5	2297	1.51	30.5592
5	2843	1.61	30.559
5	3389	1.71	30.5587
5	3935	1.81	30.5584
5	4481	1.91	30.5581
5	5035	2.01	30.5579
5	5581	2.11	30.5576
5	6127	2.21	30.5573
5	6673	2.31	30.5571
5	7219	2.41	30.5569
5	7765	2.51	30.5567
5	8311	2.61	30.5565
5	8857	2.71	30.5563
5	9403	2.81	30.5562
5	9949	2.91	30.556
5	10503	3.01	30.5559
5	11049	3.11	30.5558
5	11595	3.21	30.5557
5	12141	3.31	30.5556
5	12687	3.41	30.5556
5	13233	3.51	30.5555
5	13779	3.61	30.5555
5	14325	3.71	30.5555
5	14871	3.81	30.5554
5	15417	3.91	30.5554
5	15971	4.01	30.5554
5	16517	4.11	30.5554
5	17063	4.21	30.5554
5	17609	4.31	30.5554
5	18155	4.41	30.5554
5	18701	4.51	30.5554
5	19247	4.61	30.5554
5	19793	4.71	30.5554
5	20339	4.81	30.5555
5	20885	4.91	30.5555
5	21439	5.01	30.5555
5	21985	5.11	30.5555
5	22531	5.21	30.5555
5	23077	5.31	30.5555
5	23623	5.41	30.5555
5	24169	5.51	30.5555
5	24715	5.61	30.5555
5	25261	5.71	30.5556
5	25807	5.81	30.5556
5	26353	5.91	30.5556
5	26907	6.01	30.5556
5	27453	6.11	30.5556
5	27999	6.21	30.5556
5	28545	6.31	30.5556
5	29091	6.41	30.5556
5	29637	6.51	30.5556
5	30183	6.61	30.5556
5	30729	6.71	30.5556
5	31275	6.81	30.5556
5	31821	6.91	30.5556
5	32375	7.01	30.5556
5	32921	7.11	30.5556
5	33467	7.21	30.5556
5	34013	7.31	30.5556
5	34559	7.41	30.5556
5	35105	7.51	30.5556
5	35651	7.61	30.5556
5	36197	7.71	30.5556
5	36743	7.81	30.5556
5	37289	7.91	30.5556
5	37843	8.01	30.5556
5	38389	8.11	30.5556
5	38935	8.21	30.5556
5	39481	8.31	30.5556
5	40027	8.41	30.5556
5	40573	8.51	30.5556
5	41119	8.61	30.5556
5	41665	8.71	30.5556
5	42211	8.81	30.5556
5	42757	8.91	30.5556
5	43311	9.01	30.5556
5	43857	9.11	30.5556
5	44403	9.21	30.5556
5	44949	9.31	30.5556
5	45495	9.41	30.5556
5	46041	9.51	30.5556
5	46587	9.61	30.5556
5	47133	9.71	30.5556
5	47679	9.81	30.5556
5	48225	9.91	30.5556
5	48853	10.01	30.5556
5	49406	10.11	30.5556
5	49959	10.21	30.5556
5	50512	10.31	30.5556
5	51065	10.41	30.5556
5	51618	10.51	30.5556
5	52171	10.61	30.5556
5	52724	10.71	30.5556
5	53277	10.81	30.5556
5	53830	10.91	30.5556
5	54391	11.01	30.5556
5	54944	11.11	30.5556
5	55497	11.21	30.5556
5	56050	11.31	30.5556
5	56603	11.41	30.5556
5	57156	11.51	30.5556
5	57709	11.61	30.5556
5	58262	11.71	30.5556
5	58815	11.81	30.5556
5	59368	11.91	30.5556
5	59929	12.01	30.5556
5	60482	12.11	30.5556
5	61035	12.21	30.5556
5	61588	12.31	30.5556
5	62141	12.41	30.5556
5	62694	12.51	30.5556
5	63247	12.61	30.5556
5	63800	12.71	30.5556
5	64353	12.81	30.5556
5	64906	12.91	30.5556
5	65467	13.01	30.5556
5	66020	13.11	30.5556
5	66573	13.21	30.5556
5	67126	13.31	30.5556
5	67679	13.41	30.5556
5	68232	13.51	30.5556
5	68785	13.61	30.5556
5	69338	13.71	30.5556
5	69891	13.81	30.5556
5	70444	13.91	30.5556
5	71005	14.01	30.5556
5	71558	14.11	30.5556
5	72111	14.21	30.5556
5	72664	14.31	30.5556
5	73217	14.41	30.5556
5	73770	14.51	30.5556
5	74323	14.61	30.5556
5	74876	14.71	30.5556
5	75429	14.81	30.5556
5	75982	14.91	30.5556
5	76543	15.01	30.5556
5	77096	15.11	30.5556
5	77649	15.21	30.5556
5	78202	15.31	30.5556
5	78755	15.41	30.5556
5	79308	15.51	30.5556
5	79861	15.61	30.5556
5	80414	15.71	30.5556
5	80967	15.81	30.5556
5	81520	15.91	30.5556
5	82081	16.01	30.5556
5	82634	16.11	30.5556
5	83187	16.21	30.5556
5	83740	16.31	30.5556
5	84293	16.41	30.5556
5	84846	16.51	30.5556
5	85399	16.61	30.5556
5	85952	16.71	30.5556
5	86505	16.81	30.5556
5	87058	16.91	30.5556
5	87619	17.01	30.5556
5	88172	17.11	30.5556
5	88725	17.21	30.5556
5	89278	17.31	30.5556
5	89831	17.41	30.5556
5	90384	17.51	30.5556
5	90937	17.61	30.5556
5	91490	17.71	30.5556
5	92043	17.81	30.5556
5	92596	17.91	30.5556
5	93157	18.01	30.5556
5	93710	18.11	30.5556
5	94263	18.21	30.5556
5	94816	18.31	30.5556
5	95369	18.41	30.5556
5	95922	18.51	30.5556
5	96475	18.61	30.5556
5	97028	18.71	30.5556
5	97581	18.81	30.5556
5	98134	18.91	30.5556
5	98695	19.01	30.5556
5	99248	19.11	30.5556
5	99801	19.21	30.5556
5	100354	19.31	30.5556
5	100907	19.41	30.5556
5	101460	19.51	30.5556
5	102013	19.61	30.5556
5	102566	19.71	30.5556
5	103119	19.81	30.5556
5	103672	19.91	30.5556
5	104233	20.01	30.5556
5	104786	20.11	30.5556
5	105339	20.21	30.5556
5	105892	20.31	30.5556
5	106445	20.41	30.5556
5	106998	20.51	30.5556
5	107551	20.61	30.5556
5	108104	20.71	30.5556
5	108657	20.81	30.5556
5	109210	20.91	30.5556
5	109771	21.01	30.5556
5	110324	21.11	30.5556
5	110877	21.21	30.5556
5	111430	21.31	30.5556
5	111983	21.41	30.5556
5	112536	21.51	30.5556
5	113089	21.61	30.5556
5	113642	21.71	30.5556
5	114195	21.81	30.5556
5	114748	21.91	30.5556
5	115309	22.01	30.5556
5	115862	22.11	30.5556
5	116415	22.21	30.5556
5	116968	22.31	30.5556
5	117521	22.41	30.5556
5	118074	22.51	30.5556
5	118627	22.61	30.5556
5	119180	22.71	30.5556
5	119733	22.81	30.5556
5	120286	22.91	30.5556
5	120847	23.01	30.5556
5	121400	23.11	30.5556
5	121953	23.21	30.5556
5	122506	23.31	30.5556
5	123059	23.41	30.5556
5	123612	23.51	30.5556
5	124165	23.61	30.5556
5	124718	23.71	30.5556
5	125271	23.81	30.5556
5	125824	23.91	30.5556
5	126385	24.01	30.5556
5	126938	24.11	30.5556
5	127491	24.21	30.5556
5	128044	24.31	30.5556
5	128597	24.41	30.5556
5	129150	24.51	30.5556
5	129703	24.61	30.5556
5	130256	24.71	30.5556
5	130809	24.81	30.5556
5	131362	24.91	30.5556
5	131923	25.01	30.5556
5	132476	25.11	30.5556
5	133029	25.21	30.5556
5	133582	25.31	30.5556
5	134135	25.41	30.5556
5	134688	25.51	30.5556
5	135241	25.61	30.5556
5	135794	25.71	30.5556
5	136347	25.81	30.5556
5	136900	25.91	30.5556
5	137461	26.01	30.5556
5	138014	26.11	30.5556
5	138567	26.21	30.5556
5	139120	26.31	30.5556
5	139673	26.41	30.5556
5	140226	26.51	30.5556
5	140779	26.61	30.5556
5	141332	26.71	30.5556
5	141885	26.81	30.5556
5	142438	26.91	30.5556
5	142999	27.01	30.5556
5	143552	27.11	30.5556
5	144105	27.21	30.5556
5	144658	27.31	30.5556
5	145211	27.41	30.5556
5	145764	27.51	30.5556
5	146317	27.61	30.5556
5	146870	27.71	30.5556
5	147423	27.81	30.5556
5	147976	27.91	30.5556
5	148537	28.01	30.5556
5	149090	28.11	30.5556
5	149643	28.21	30.5556
5	150196	28.31	30.5556
5	150749	28.41	30.5556
5	151302	28.51	30.5556
5	151855	28.61	30.5556
5	152408	28.71	30.5556
5	152961	28.81	30.5556
5	153514	28.91	30.5556
5	154075	29.01	30.5556
5	154628	29.11	30.5556
5	155181	29.21	30.5556
5	155734	29.31	30.5556
5	156287	29.41	30.5556
5	156840	29.51	30.5556
5	157393	29.61	30.5556
5	157946	29.71	30.5556
5	158499	29.81	30.5556
5	159052	29.91	30.5556
5	159613	30.01	30.5556
5	160166	30.11	30.5556
5	160719	30.21	30.5556
5	161272	30.31	30.5556
5	161825	30.41	30.5556
5	162378	30.51	30.5556
5	162931	30.61	30.5556
5	163484	30.71	30.5556
5	164037	30.81	30.5556
5	164590	30.91	30.5556
5	165151	31.01	30.5556
5	165704	31.11	30.5556
5	166257	31.21	30.5556
5	166810	31.31	30.5556
5	167363	31.41	30.5556
5	167916	31.51	30.5556
5	168469	31.61	30.5556
5	169022	31.71	30.5556
5	169575	31.81	30.5556
5	170128	31.91	30.5556
5	170689	32.01	30.5556
5	171242	32.11	30.5556
5	171795	32.21	30.5556
5	172348	32.31	30.5556
5	172901	32.41	30.5556
5	173454	32.51	30.5556
5	174007	32.61	30.5556
5	174560	32.71	30.5556
5	175113	32.81	30.5556
5	175666	32.91	30.5556
5	176227	33.01	30.5556
5	176780	33.11	30.5556
5	177333	33.21	30.5556
5	177886	33.31	30.5556
5	178439	33.41	30.5556
5	178992	33.51	30.5556
5	179545	33.61	30.5556
5	180098	33.71	30.5556
5	180651	33.81	30.5556
5	181204	33.91	30.5556
5	181765	34.01	30.5556
5	182318	34.11	30.5556
5	182871	34.21	30.5556
5	183424	34.31	30.5556
5	183977	34.41	30.5556
5	184530	34.51	30.5556
5	185083	34.61	30.5556
5	185636	34.71	30.5556
5	186189	34.81	30.5556
5	186742	34.91	30.5556
5	187303	35.01	30.5556
5	187856	35.11	30.5556
5	188409	35.21	30.5556
5	188962	35.31	30.5556
5	189515	35.41	30.5556
5	190068	35.51	30.5556
5	190621	35.61	30.5556
5	191174	35.71	30.5556
5	191727	35.81	30.5556
6	113	1.11	52.3604
6	659	1.21	55.4164
6	1205	1.31	58.4724
6	1751	1.41	61.5283
6	2297	1.51	64.5843
6	2843	1.61	67.6402
6	3389	1.71	70.6961
6	3935	1.81	73.7519
6	4481	1.91	76.8077
6	5035	2.01	79.8635
6	5581	2.11	82.9193
6	6127	2.21	85.9751
6	6673	2.31	89.0308
6	7219	2.41	92.0865
6	7765	2.51	95.1422
6	8311	2.61	98.1978
6	8857	2.71	101.253
6	9403	2.81	104.309
6	9949	2.91	107.365
6	10503	3.01	110.42
6	11049	3.11	113.476
6	11595	3.21	116.531
6	12141	3.31	119.587
6	12687	3.41	122.643
6	13233	3.51	125.698
6	13779	3.61	128.754
6	14325	3.71	131.809
6	14871	3.81	134.865
6	15417	3.91	137.92
6	15971	4.01	140.976
6	16517	4.11	144.031
6	17063	4.21	147.087
6	17609	4.31	150.142
6	18155	4.41	153.198
6	18701	4.51	156.254
6	19247	4.61	159.309
6	19793	4.71	162.365
6	20339	4.81	165.42
6	20885	4.91	168.476
6	21439	5.01	171.531
6	21985	5.11	174.587
6	22531	5.21	177.642
6	23077	5.31	180.698
6	23623	5.41	183.753
6	24169	5.51	186.809
6	24715	5.61	189.865
6	25261	5.71	192.92
6	25807	5.81	195.976
6	26353	5.91	199.031
6	26907	6.01	202.087
6	27453	6.11	205.142
6	27999	6.21	208.198
6	28545	6.31	211.253
6	29091	6.41	214.309
6	29637	6.51	217.365
6	30183	6.61	220.42
6	30729	6.71	223.476
6	31275	6.81	226.531
6	31821	6.91	229.587
6	32375	7.01	232.642
6	32921	7.11	235.698
6	33467	7.21	238.754
6	34013	7.31	241.809
6	34559	7.41	244.865
6	35105	7.51	247.92
6	35651	7.61	250.976
6	36197	7.71	254.031
6	36743	7.81	257.087
6	37289	7.91	260.142
6	37843	8.01	263.198
6	38389	8.11	266.254
6	38935	8.21	269.309
6	39481	8.31	272.365
6	40027	8.41	275.42
6	40573	8.51	278.476
6	41119	8.61	281.531
6	41665	8.71	284.587
6	42211	8.81	287.643
6	42757	8.91	290.698
6	43311	9.01	293.754
6	43857	9.11	296.809
6	44403	9.21	299.865
6	44949	9.31	302.92
6	45495	9.41	305.976
6	46041	9.51	309.031
6	46587	9.61	312.087
6	47133	9.71	315.143
6	47679	9.81	318.198
6	48225	9.91	321.254
6	48853	10.01	324.309
6	49406	10.11	327.365
6	49959	10.21	330.42
6	50512	10.31	333.476
6	51065	10.41	336.531
6	51618	10.51	339.587
6	52171	10.61	342.643
6	52724	10.71	345.698
6	53277	10.81	348.754
6	53830	10.91	351.809
6	54391	11.01	354.865
6	54944	11.11	357.92
6	55497	11.21	360.976
6	56050	11.31	364.032
6	56603	11.41	367.087
6	57156	11.51	370.143
6	57709	11.61	373.198
6	58262	11.71	376.254
6	58815	11.81	379.309
6	59368	11.91	382.365
6	59929	12.01	385.42
6	60482	12.11	388.476
6	61035	12.21	391.532
6	61588	12.31	394.587
6	62141	12.41	397.643
6	62694	12.51	400.698
6	63247	12.61	403.754
6	63800	12.71	406.809
6	64353	12.81	409.865
6	64906	12.91	412.92
6	65467	13.01	415.976
6	66020	13.11	419.032
6	66573	13.21	422.087
6	67126	13.31	425.143
6	67679	13.41	428.198
6	68232	13.51	431.254
6	68785	13.61	434.309
6	69338	13.71	437.365
6	69891	13.81	440.421
6	70444	13.91	443.476
6	71005	14.01	446.532
6	71558	14.11	449.587
6	72111	14.21	452.643
6	72664	14.31	455.698
6	73217	14.41	458.754
6	73770	14.51	461.809
6	74323	14.61	464.865
6	74876	14.71	467.921
6	75429	14.81	470.976
6	75982	14.91	474.032
6	76543	15.01	477.087
6	77096	15.11	480.143
6	77649	15.21	483.198
6	78202	15.31	486.254
6	78755	15.41	489.309
6	79308	15.51	492.365
6	79861	15.61	495.421
6	80414	15.71	498.476
6	80967	15.81	501.532
6	81520	15.91	504.587
6	82081	16.01	507.643
6	82634	16.11	510.698
6	83187	16.21	513.754
6	83740	16.31	516.81
6	84293	16.41	519.865
6	84846	16.51	522.921
6	85399	16.61	525.976
6	85952	16.71	529.032
6	86505	16.81	532.087
6	87058	16.91	535.143
6	87619	17.01	538.198
6	88172	17.11	541.254
6	88725	17.21	544.31
6	89278	17.31	547.365
6	89831	17.41	550.421
6	90384	17.51	553.476
6	90937	17.61	556.532
6	91490	17.71	559.587
6	92043	17.81	562.643
6	92596	17.91	565.698
6	93157	18.01	568.754
6	93710	18.11	571.81
6	94263	18.21	574.865
6	94816	18.31	577.921
6	95369	18.41	580.976
6	95922	18.51	584.032
6	96475	18.61	587.087
6	97028	18.71	590.143
6	97581	18.81	593.199
6	98134	18.91	596.254
6	98695	19.01	599.31
6	99248	19.11	602.365
6	99801	19.21	605.421
6	100354	19.31	608.476
6	100907	19.41	611.532
6	101460	19.51	614.587
6	102013	19.61	617.643
6	102566	19.71	620.699
6	103119	19.81	623.754
6	103672	19.91	626.81
6	104233	20.01	629.865
6	104786	20.11	632.921
6	105339	20.21	635.976
6	105892	20.31	639.032
6	106445	20.41	642.087
6	106998	20.51	645.143
6	107551	20.61	648.199
6	108104	20.71	651.254
6	108657	20.81	654.31
6	109210	20.91	657.365
6	109771	21.01	660.421
6	110324	21.11	663.476
6	110877	21.21	666.532
6	111430	21.31	669.588
6	111983	21.41	672.643
6	112536	21.51	675.699
6	113089	21.61	678.754
6	113642	21.71	681.81
6	114195	21.81	684.865
6	114748	21.91	687.921
6	115309	22.01	690.976
6	115862	22.11	694.032
6	116415	22.21	697.088
6	116968	22.31	700.143
6	117521	22.41	703.199
6	118074	22.51	706.254
6	118627	22.61	709.31
6	119180	22.71	712.365
6	119733	22.81	715.421
6	120286	22.91	718.476
6	120847	23.01	721.532
6	121400	23.11	724.588
6	121953	23.21	727.643
6	122506	23.31	730.699
6	123059	23.41	733.754
6	123612	23.51	736.81
6	124165	23.61	739.865
6	124718	23.71	742.921
6	125271	23.81	745.977
6	125824	23.91	749.032
6	126385	24.01	752.088
6	126938	24.11	755.143
6	127491	24.21	758.199
6	128044	24.31	761.254
6	128597	24.41	764.31
6	129150	24.51	767.365
6	129703	24.61	770.421
6	130256	24.71	773.477
6	130809	24.81	776.532
6	131362	24.91	779.588
6	131923	25.01	782.643
6	132476	25.11	785.699
6	133029	25.21	788.754
6	133582	25.31	791.81
6	134135	25.41	794.865
6	134688	25.51	797.921
6	135241	25.61	800.977
6	135794	25.71	804.032
6	136347	25.81	807.088
6	136900	25.91	810.143
6	137461	26.01	813.199
6	138014	26.11	816.254
6	138567	26.21	819.31
6	139120	26.31	822.366
6	139673	26.41	825.421
6	140226	26.51	828.477
6	140779	26.61	831.532
6	141332	26.71	834.588
6	141885	26.81	837.643
6	142438	26.91	840.699
6	142999	27.01	843.754
6	143552	27.11	846.81
6	144105	27.21	849.866
6	144658	27.31	852.921
6	145211	27.41	855.977
6	145764	27.51	859.032
6	146317	27.61	862.088
6	146870	27.71	865.143
6	147423	27.81	868.199
6	147976	27.91	871.254
6	148537	28.01	874.31
6	149090	28.11	877.366
6	149643	28.21	880.421
6	150196	28.31	883.477
6	150749	28.41	886.532
6	151302	28.51	889.588
6	151855	28.61	892.643
6	152408	28.71	895.699
6	152961	28.81	898.755
6	153514	28.91	901.81
6	154075	29.01	904.866
6	154628	29.11	907.921
6	155181	29.21	910.977
6	155734	29.31	914.032
6	156287	29.41	917.088
6	156840	29.51	920.143
6	157393	29.61	923.199
6	157946	29.71	926.255
6	158499	29.81	929.31
6	159052	29.91	932.366
6	159613	30.01	935.421
6	160166	30.11	938.477
6	160719	30.21	941.532
6	161272	30.31	944.588
6	161825	30.41	947.643
6	162378	30.51	950.699
6	162931	30.61	953.755
6	163484	30.71	956.81
6	164037	30.81	959.866
6	164590	30.91	962.921
6	165151	31.01	965.977
6	165704	31.11	969.032
6	166257	31.21	972.088
6	166810	31.31	975.144
6	167363	31.41	978.199
6	167916	31.51	981.255
6	168469	31.61	984.31
6	169022	31.71	987.366
6	169575	31.81	990.421
6	170128	31.91	993.477
6	170689	32.01	996.532
6	171242	32.11	999.588
6	171795	32.21	1002.64
6	172348	32.31	1005.7
6	172901	32.41	1008.75
6	173454	32.51	1011.81
6	174007	32.61	1014.87
6	174560	32.71	1017.92
6	175113	32.81	1020.98
6	175666	32.91	1024.03
6	176227	33.01	1027.09
6	176780	33.11	1030.14
6	177333	33.21	1033.2
6	177886	33.31	1036.25
6	178439	33.41	1039.31
6	178992	33.51	1042.37
6	179545	33.61	1045.42
6	180098	33.71	1048.48
6	180651	33.81	1051.53
6	181204	33.91	1054.59
6	181765	34.01	1057.64
6	182318	34.11	1060.7
6	182871	34.21	1063.75
6	183424	34.31	1066.81
6	183977	34.41	1069.87
6	184530	34.51	1072.92
6	185083	34.61	1075.98
6	185636	34.71	1079.03
6	186189	34.81	1082.09
6	186742	34.91	1085.14
6	187303	35.01	1088.2
6	187856	35.11	1091.25
6	188409	35.21	1094.31
6	188962	35.31	1097.37
6	189515	35.41	1100.42
6	190068	35.51	1103.48
6	190621	35.61	1106.53
6	191174	35.71	1109.59
6	191727	35.81	1112.64
7	113	1.11	242.45
7	659	1.21	242.45
7	1205	1.31	242.45
7	1751	1.41	242.45
7	2297	1.51	242.45
7	2843	1.61	242.45
7	3389	1.71	242.45
7	3935	1.81	242.45
7	4481	1.91	242.45
7	5035	2.01	242.45
7	5581	2.11	242.45
7	6127	2.21	242.45
7	6673	2.31	242.45
7	7219	2.41	242.45
7	7765	2.51	242.45
7	8311	2.61	242.45
7	8857	2.71	242.45
7	9403	2.81	242.45
7	9949	2.91	242.45
7	10503	3.01	242.45
7	11049	3.11	242.45
7	11595	3.21	242.45
7	12141	3.31	242.45
7	12687	3.41	242.45
7	13233	3.51	242.45
7	13779	3.61	242.45
7	14325	3.71	242.45
7	14871	3.81	242.45
7	15417	3.91	242.45
7	15971	4.01	242.45
7	16517	4.11	242.45
7	17063	4.21	242.45
7	17609	4.31	242.45
7	18155	4.41	242.45
7	18701	4.51	242.45
7	19247	4.61	242.45
7	19793	4.71	242.45
7	20339	4.81	242.45
7	20885	4.91	242.45
7	21439	5.01	242.45
7	21985	5.11	242.45
7	22531	5.21	242.45
7	23077	5.31	242.45
7	23623	5.41	242.45
7	24169	5.51	242.45
7	24715	5.61	242.45
7	25261	5.71	242.45
7	25807	5.81	242.45
7	26353	5.91	242.45
7	26907	6.01	242.45
7	27453	6.11	242.45
7	27999	6.21	242.45
7	28545	6.31	242.45
7	29091	6.41	242.45
7	29637	6.51	242.45
7	30183	6.61	242.45
7	30729	6.71	242.45
7	31275	6.81	242.45
7	31821	6.91	242.45
7	32375	7.01	242.45
7	32921	7.11	242.45
7	33467	7.21	242.45
7	34013	7.31	242.45
7	34559	7.41	242.45
7	35105	7.51	242.45
7	35651	7.61	242.45
7	36197	7.71	242.45
7	36743	7.81	242.45
7	37289	7.91	242.45
7	37843	8.01	242.45
7	38389	8.11	242.45
7	38935	8.21	242.45
7	39481	8.31	242.45
7	40027	8.41	242.45
7	40573	8.51	242.45
7	41119	8.61	242.45
7	41665	8.71	242.45
7	42211	8.81	242.45
7	42757	8.91	242.45
7	43311	9.01	242.45
7	43857	9.11	242.45
7	44403	9.21	242.45
7	44949	9.31	242.45
7	45495	9.41	242.45
7	46041	9.51	242.45
7	46587	9.61	242.45
7	47133	9.71	242.45
7	47679	9.81	242.45
7	48225	9.91	242.45
7	48853	10.01	242.45
7	49406	10.11	242.45
7	49959	10.21	242.45
7	50512	10.31	242.45
7	51065	10.41	242.45
7	51618	10.51	242.45
7	52171	10.61	242.45
7	52724	10.71	242.45
7	53277	10.81	242.45
7	53830	10.91	242.45
7	54391	11.01	242.45
7	54944	11.11	242.45
7	55497	11.21	242.45
7	56050	11.31	242.45
7	56603	11.41	242.45
7	57156	11.51	242.45
7	57709	11.61	242.45
7	58262	11.71	242.45
7	58815	11.81	242.45
7	59368	11.91	242.45
7	59929	12.01	242.45
7	60482	12.11	242.45
7	61035	12.21	242.45
7	61588	12.31	242.45
7	62141	12.41	242.45
7	62694	12.51	242.45
7	63247	12.61	242.45
7	63800	12.71	242.45
7	64353	12.81	242.45
7	64906	12.91	242.45
7	65467	13.01	242.45
7	66020	13.11	242.45
7	66573	13.21	242.45
7	67126	13.31	242.45
7	67679	13.41	242.45
7	68232	13.51	242.45
7	68785	13.61	242.45
7	69338	13.71	242.45
7	69891	13.81	242.45
7	70444	13.91	242.45
7	71005	14.01	242.45
7	71558	14.11	242.45
7	72111	14.21	242.45
7	72664	14.31	242.45
7	73217	14.41	242.45
7	73770	14.51	242.45
7	74323	14.61	242.45
7	74876	14.71	242.45
7	75429	14.81	242.45
7	75982	14.91	242.45
7	76543	15.01	242.45
7	77096	15.11	242.45
7	77649	15.21	242.45
7	78202	15.31	242.45
7	78755	15.41	242.45
7	79308	15.51	242.45
7	79861	15.61	242.45
7	80414	15.71	242.45
7	80967	15.81	242.45
7	81520	15.91	242.45
7	82081	16.01	242.45
7	82634	16.11	242.45
7	83187	16.21	242.45
7	83740	16.31	242.45
7	84293	16.41	242.45
7	84846	16.51	242.45
7	85399	16.61	242.45
7	85952	16.71	242.45
7	86505	16.81	242.45
7	87058	16.91	242.45
7	87619	17.01	242.45
7	88172	17.11	242.45
7	88725	17.21	242.45
7	89278	17.31	242.45
7	89831	17.41	242.45
7	90384	17.51	242.45
7	90937	17.61	242.45
7	91490	17.71	242.45
7	92043	17.81	242.45
7	92596	17.91	242.45
7	93157	18.01	242.45
7	93710	18.11	242.45
7	94263	18.21	242.45
7	94816	18.31	242.45
7	95369	18.41	242.45
7	95922	18.51	242.45
7	96475	18.61	242.45
7	97028	18.71	242.45
7	97581	18.81	242.45
7	98134	18.91	242.45
7	98695	19.01	242.45
7	99248	19.11	242.45
7	99801	19.21	242.45
7	100354	19.31	242.45
7	100907	19.41	242.45
7	101460	19.51	242.45
7	102013	19.61	242.45
7	102566	19.71	242.45
7	103119	19.81	242.45
7	103672	19.91	242.45
7	104233	20.01	242.45
7	104786	20.11	242.45
7	105339	20.21	242.45
7	105892	20.31	242.45
7	106445	20.41	242.45
7	106998	20.51	242.45
7	107551	20.61	242.45
7	108104	20.71	242.45
7	108657	20.81	242.45
7	109210	20.91	242.45
7	109771	21.01	242.45
7	110324	21.11	242.45
7	110877	21.21	242.45
7	111430	21.31	242.45
7	111983	21.41	242.45
7	112536	21.51	242.45
7	113089	21.61	242.45
7	113642	21.71	242.45
7	114195	21.81	242.45
7	114748	21.91	242.45
7	115309	22.01	242.45
7	115862	22.11	242.45
7	116415	22.21	242.45
7	116968	22.31	242.45
7	117521	22.41	242.45
7	118074	22.51	242.45
7	118627	22.61	242.45
7	119180	22.71	242.45
7	119733	22.81	242.45
7	120286	22.91	242.45
7	120847	23.01	242.45
7	121400	23.11	242.45
7	121953	23.21	242.45
7	122506	23.31	242.45
7	123059	23.41	242.45
7	123612	23.51	242.45
7	124165	23.61	242.45
7	124718	23.71	242.45
7	125271	23.81	242.45
7	125824	23.91	242.45
7	126385	24.01	242.45
7	126938	24.11	242.45
7	127491	24.21	242.45
7	128044	24.31	242.45
7	128597	24.41	242.45
7	129150	24.51	242.45
7	129703	24.61	242.45
7	130256	24.71	242.45
7	130809	24.81	242.45
7	131362	24.91	242.45
7	131923	25.01	242.45
7	132476	25.11	242.45
7	133029	25.21	242.45
7	133582	25.31	242.45
7	134135	25.41	242.45
7	134688	25.51	242.45
7	135241	25.61	242.45
7	135794	25.71	242.45
7	136347	25.81	242.45
7	136900	25.91	242.45
7	137461	26.01	242.45
7	138014	26.11	242.45
7	138567	26.21	242.45
7	139120	26.31	242.45
7	139673	26.41	242.45
7	140226	26.51	242.45
7	140779	26.61	242.45
7	141332	26.71	242.45
7	141885	26.81	242.45
7	142438	26.91	242.45
7	142999	27.01	242.45
7	143552	27.11	242.45
7	144105	27.21	242.45
7	144658	27.31	242.45
7	145211	27.41	242.45
7	145764	27.51	242.45
7	146317	27.61	242.45
7	146870	27.71	242.45
7	147423	27.81	242.45
7	147976	27.91	242.45
7	148537	28.01	242.45
7	149090	28.11	242.45
7	149643	28.21	242.45
7	150196	28.31	242.45
7	150749	28.41	242.45
7	151302	28.51	242.45
7	151855	28.61	242.45
7	152408	28.71	242.45
7	152961	28.81	242.45
7	153514	28.91	242.45
7	154075	29.01	242.45
7	154628	29.11	242.45
7	155181	29.21	242.45
7	155734	29.31	242.45
7	156287	29.41	242.45
7	156840	29.51	242.45
7	157393	29.61	242.45
7	157946	29.71	242.45
7	158499	29.81	242.45
7	159052	29.91	242.45
7	159613	30.01	242.45
7	160166	30.11	242.45
7	160719	30.21	242.45
7	161272	30.31	242.45
7	161825	30.41	242.45
7	162378	30.51	242.45
7	162931	30.61	242.45
7	163484	30.71	242.45
7	164037	30.81	242.45
7	164590	30.91	242.45
7	165151	31.01	242.45
7	165704	31.11	242.45
7	166257	31.21	242.45
7	166810	31.31	242.45
7	167363	31.41	242.45
7	167916	31.51	242.45
7	168469	31.61	242.45
7	169022	31.71	242.45
7	169575	31.81	242.45
7	170128	31.91	242.45
7	170689	32.01	242.45
7	171242	32.11	242.45
7	171795	32.21	242.45
7	172348	32.31	242.45
7	172901	32.41	242.45
7	173454	32.51	242.45
7	174007	32.61	242.45
7	174560	32.71	242.45
7	175113	32.81	242.45
7	175666	32.91	242.45
7	176227	33.01	242.45
7	176780	33.11	242.45
7	177333	33.21	242.45
7	177886	33.31	242.45
7	178439	33.41	242.45
7	178992	33.51	242.45
7	179545	33.61	242.45
7	180098	33.71	242.45
7	180651	33.81	242.45
7	181204	33.91	242.45
7	181765	34.01	242.45
7	182318	34.11	242.45
7	182871	34.21	242.45
7	183424	34.31	242.45
7	183977	34.41	242.45
7	184530	34.51	242.45
7	185083	34.61	242.45
7	185636	34.71	242.45
7	186189	34.81	242.45
7	186742	34.91	242.45
7	187303	35.01	242.45
7	187856	35.11	242.45
7	188409	35.21	242.45
7	188962	35.31	242.45
7	189515	35.41	242.45
7	190068	35.51	242.45
7	190621	35.61	242.45
7	191174	35.71	242.45
7	191727	35.81	242.45
8	114	1.11	2
8	660	1.21	1.99999
8	1206	1.31	1.99997
8	1752	1.41	1.99994
8	2298	1.51	1.9999
8	2844	1.61	1.99986
8	3390	1.71	1.99981
8	3936	1.81	1.99976
8	4482	1.91	1.9997
8	5036	2.01	1.99965
8	5582	2.11	1.9996
8	6128	2.21	1.99954
8	6674	2.31	1.99949
8	7220	2.41	1.99944
8	7766	2.51	1.99939
8	8312	2.61	1.99935
8	8858	2.71	1.99931
8	9404	2.81	1.99927
8	9950	2.91	1.99923
8	10504	3.01	1.99919
8	11050	3.11	1.99916
8	11596	3.21	1.99913
8	12142	3.31	1.99911
8	12688	3.41	1.99908
8	13234	3.51	1.99906
8	13780	3.61	1.99904
8	14326	3.71	1.99902
8	14872	3.81	1.999
8	15418	3.91	1.99899
8	15972	4.01	1.99897
8	16518	4.11	1.99896
8	17064	4.21	1.99895
8	17610	4.31	1.99894
8	18156	4.41	1.99894
8	18702	4.51	1.99893
8	19248	4.61	1.99893
8	19794	4.71	1.99892
8	20340	4.81	1.99892
8	20886	4.91	1.99892
8	21440	5.01	1.99891
8	21986	5.11	1.99891
8	22532	5.21	1.99891
8	23078	5.31	1.99891
8	23624	5.41	1.99891
8	24170	5.51	1.99892
8	24716	5.61	1.99892
8	25262	5.71	1.99892
8	25808	5.81	1.99892
8	26354	5.91	1.99893
8	26908	6.01	1.99893
8	27454	6.11	1.99893
8	28000	6.21	1.99894
8	28546	6.31	1.99894
8	29092	6.41	1.99895
8	29638	6.51	1.99895
8	30184	6.61	1.99896
8	30730	6.71	1.99896
8	31276	6.81	1.99897
8	31822	6.91	1.99897
8	32376	7.01	1.99898
8	32922	7.11	1.99899
8	33468	7.21	1.99899
8	34014	7.31	1.999
8	34560	7.41	1.99901
8	35106	7.51	1.99901
8	35652	7.61	1.99902
8	36198	7.71	1.99903
8	36744	7.81	1.99903
8	37290	7.91	1.99904
8	37844	8.01	1.99905
8	38390	8.11	1.99906
8	38936	8.21	1.99907
8	39482	8.31	1.99907
8	40028	8.41	1.99908
8	40574	8.51	1.99909
8	41120	8.61	1.9991
8	41666	8.71	1.99911
8	42212	8.81	1.99912
8	42758	8.91	1.99913
8	43312	9.01	1.99913
8	43858	9.11	1.99914
8	44404	9.21	1.99915
8	44950	9.31	1.99916
8	45496	9.41	1.99917
8	46042	9.51	1.99918
8	46588	9.61	1.99919
8	47134	9.71	1.9992
8	47680	9.81	1.99921
8	48226	9.91	1.99922
8	48854	10.01	1.99922
8	49407	10.11	1.99928
8	49960	10.21	1.99955
8	50513	10.31	2.00022
8	51066	10.41	2.00142
8	51619	10.51	2.00327
8	52172	10.61	2.00585
8	52725	10.71	2.00923
8	53278	10.81	2.01345
8	53831	10.91	2.01855
8	54392	11.01	2.02455
8	54945	11.11	2.03145
8	55498	11.21	2.03926
8	56051	11.31	2.04797
8	56604	11.41	2.05758
8	57157	11.51	2.06805
8	57710	11.61	2.07937
8	58263	11.71	2.09152
8	58816	11.81	2.10448
8	59369	11.91	2.1182
8	59930	12.01	2.13267
8	60483	12.11	2.14784
8	61036	12.21	2.1637
8	61589	12.31	2.18021
8	62142	12.41	2.19733
8	62695	12.51	2.21503
8	63248	12.61	2.23329
8	63801	12.71	2.25208
8	64354	12.81	2.27135
8	64907	12.91	2.29108
8	65468	13.01	2.31125
8	66021	13.11	2.33181
8	66574	13.21	2.35276
8	67127	13.31	2.37405
8	67680	13.41	2.39566
8	68233	13.51	2.41758
8	68786	13.61	2.43976
8	69339	13.71	2.46219
8	69892	13.81	2.48485
8	70445	13.91	2.50771
8	71006	14.01	2.53076
8	71559	14.11	2.55397
8	72112	14.21	2.57732
8	72665	14.31	2.6008
8	73218	14.41	2.62438
8	73771	14.51	2.64805
8	74324	14.61	2.6718
8	74877	14.71	2.6956
8	75430	14.81	2.71945
8	75983	14.91	2.74332
8	76544	15.01	2.76721
8	77097	15.11	2.7911
8	77650	15.21	2.81498
8	78203	15.31	2.83884
8	78756	15.41	2.86266
8	79309	15.51	2.88644
8	79862	15.61	2.91017
8	80415	15.71	2.93383
8	80968	15.81	2.95742
8	81521	15.91	2.98092
8	82082	16.01	3.00434
8	82635	16.11	3.02765
8	83188	16.21	3.05086
8	83741	16.31	3.07396
8	84294	16.41	3.09694
8	84847	16.51	3.11979
8	85400	16.61	3.14252
8	85953	16.71	3.1651
8	86506	16.81	3.18755
8	87059	16.91	3.20985
8	87620	17.01	3.23199
8	88173	17.11	3.25399
8	88726	17.21	3.27582
8	89279	17.31	3.29749
8	89832	17.41	3.31899
8	90385	17.51	3.34033
8	90938	17.61	3.36149
8	91491	17.71	3.38248
8	92044	17.81	3.40329
8	92597	17.91	3.42393
8	93158	18.01	3.44438
8	93711	18.11	3.46464
8	94264	18.21	3.48473
8	94817	18.31	3.50462
8	95370	18.41	3.52433
8	95923	18.51	3.54385
8	96476	18.61	3.56318
8	97029	18.71	3.58232
8	97582	18.81	3.60126
8	98135	18.91	3.62002
8	98696	19.01	3.63858
8	99249	19.11	3.65695
8	99802	19.21	3.67513
8	100355	19.31	3.69311
8	100908	19.41	3.71091
8	101461	19.51	3.7285
8	102014	19.61	3.74591
8	102567	19.71	3.76312
8	103120	19.81	3.78014
8	103673	19.91	3.79697
8	104234	20.01	3.81361
8	104787	20.11	3.83006
8	105340	20.21	3.84632
8	105893	20.31	3.86238
8	106446	20.41	3.87827
8	106999	20.51	3.89396
8	107552	20.61	3.90947
8	108105	20.71	3.92479
8	108658	20.81	3.93992
8	109211	20.91	3.95488
8	109772	21.01	3.96965
8	110325	21.11	3.98424
8	110878	21.21	3.99865
8	111431	21.31	4.01288
8	111984	21.41	4.02694
8	112537	21.51	4.04082
8	113090	21.61	4.05452
8	113643	21.71	4.06805
8	114196	21.81	4.08141
8	114749	21.91	4.0946
8	115310	22.01	4.10762
8	115863	22.11	4.12047
8	116416	22.21	4.13315
8	116969	22.31	4.14567
8	117522	22.41	4.15803
8	118075	22.51	4.17023
8	118628	22.61	4.18226
8	119181	22.71	4.19414
8	119734	22.81	4.20586
8	120287	22.91	4.21742
8	120848	23.01	4.22883
8	121401	23.11	4.24008
8	121954	23.21	4.25119
8	122507	23.31	4.26214
8	123060	23.41	4.27295
8	123613	23.51	4.28361
8	124166	23.61	4.29413
8	124719	23.71	4.3045
8	125272	23.81	4.31473
8	125825	23.91	4.32482
8	126386	24.01	4.33477
8	126939	24.11	4.34459
8	127492	24.21	4.35427
8	128045	24.31	4.36381
8	128598	24.41	4.37323
8	129151	24.51	4.38251
8	129704	24.61	4.39166
8	130257	24.71	4.40069
8	130810	24.81	4.40959
8	131363	24.91	4.41836
8	131924	25.01	4.42701
8	132477	25.11	4.43554
8	133030	25.21	4.44395
8	133583	25.31	4.45224
8	134136	25.41	4.46041
8	134689	25.51	4.46846
8	135242	25.61	4.47641
8	135795	25.71	4.48423
8	136348	25.81	4.49195
8	136901	25.91	4.49956
8	137462	26.01	4.50705
8	138015	26.11	4.51444
8	138568	26.21	4.52173
8	139121	26.31	4.52891
8	139674	26.41	4.53598
8	140227	26.51	4.54295
8	140780	26.61	4.54983
8	141333	26.71	4.5566
8	141886	26.81	4.56327
8	142439	26.91	4.56985
8	143000	27.01	4.57633
8	143553	27.11	4.58272
8	144106	27.21	4.58902
8	144659	27.31	4.59522
8	145212	27.41	4.60133
8	145765	27.51	4.60736
8	146318	27.61	4.61329
8	146871	27.71	4.61914
8	147424	27.81	4.6249
8	147977	27.91	4.63058
8	148538	28.01	4.63617
8	149091	28.11	4.64169
8	149644	28.21	4.64712
8	150197	28.31	4.65247
8	150750	28.41	4.65774
8	151303	28.51	4.66293
8	151856	28.61	4.66805
8	152409	28.71	4.67309
8	152962	28.81	4.67806
8	153515	28.91	4.68295
8	154076	29.01	4.68777
8	154629	29.11	4.69252
8	155182	29.21	4.6972
8	155735	29.31	4.70181
8	156288	29.41	4.70635
8	156841	29.51	4.71082
8	157394	29.61	4.71523
8	157947	29.71	4.71957
8	158500	29.81	4.72384
8	159053	29.91	4.72805
8	159614	30.01	4.7322
8	160167	30.11	4.73629
8	160720	30.21	4.74031
8	161273	30.31	4.74428
8	161826	30.41	4.74818
8	162379	30.51	4.75203
8	162932	30.61	4.75582
8	163485	30.71	4.75955
8	164038	30.81	4.76323
8	164591	30.91	4.76685
8	165152	31.01	4.77041
8	165705	31.11	4.77392
8	166258	31.21	4.77738
8	166811	31.31	4.78079
8	167364	31.41	4.78415
8	167917	31.51	4.78745
8	168470	31.61	4.79071
8	169023	31.71	4.79391
8	169576	31.81	4.79707
8	170129	31.91	4.80018
8	170690	32.01	4.80325
8	171243	32.11	4.80626
8	171796	32.21	4.80923
8	172349	32.31	4.81216
8	172902	32.41	4.81504
8	173455	32.51	4.81788
8	174008	32.61	4.82067
8	174561	32.71	4.82343
8	175114	32.81	4.82614
8	175667	32.91	4.82881
8	176228	33.01	4.83144
8	176781	33.11	4.83402
8	177334	33.21	4.83657
8	177887	33.31	4.83909
8	178440	33.41	4.84156
8	178993	33.51	4.84399
8	179546	33.61	4.84639
8	180099	33.71	4.84875
8	180652	33.81	4.85108
8	181205	33.91	4.85337
8	181766	34.01	4.85562
8	182319	34.11	4.85785
8	182872	34.21	4.86003
8	183425	34.31	4.86219
8	183978	34.41	4.86431
8	184531	34.51	4.8664
8	185084	34.61	4.86845
8	185637	34.71	4.87048
8	186190	34.81	4.87247
8	186743	34.91	4.87443
8	187304	35.01	4.87637
8	187857	35.11	4.87827
8	188410	35.21	4.88015
8	188963	35.31	4.88199
8	189516	35.41	4.88381
8	190069	35.51	4.8856
8	190622	35.61	4.88737
8	191175	35.71	4.8891
8	191728	35.81	4.89081
9	114	1.11	-3.68088e-05
9	660	1.21	-0.000144414
9	1206	1.31	-0.000257902
9	1752	1.41	-0.000347406
9	2298	1.51	-0.000416039
9	2844	1.61	-0.000466881
9	3390	1.71	-0.000502416
9	3936	1.81	-0.000524753
9	4482	1.91	-0.000535867
9	5036	2.01	-0.000537994
9	5582	2.11	-0.000532849
9	6128	2.21	-0.00052164
9	6674	2.31	-0.000505811
9	7220	2.41	-0.000486299
9	7766	2.51	-0.000464022
9	8312	2.61	-0.00043989
9	8858	2.71	-0.000414542
9	9404	2.81	-0.000388394
9	9950	2.91	-0.000362115
9	10504	3.01	-0.000335918
9	11050	3.11	-0.000310065
9	11596	3.21	-0.000284891
9	12142	3.31	-0.000260546
9	12688	3.41	-0.000237045
9	13234	3.51	-0.000214742
9	13780	3.61	-0.000193618
9	14326	3.71	-0.000173773
9	14872	3.81	-0.000155441
9	15418	3.91	-0.000138278
9	15972	4.01	-0.000122144
9	16518	4.11	-0.000107109
9	17064	4.21	-9.31747e-05
9	17610	4.31	-8.02935e-05
9	18156	4.41	-6.83844e-05
9	18702	4.51	-5.73453e-05
9	19248	4.61	-4.70628e-05
9	19794	4.71	-3.742e-05
9	20340	4.81	-2.83102e-05
9	20886	4.91	-2.00866e-05
9	21440	5.01	-1.28105e-05
9	21986	5.11	-6.27335e-06
9	22532	5.21	-2.97227e-07
9	23078	5.31	5.26777e-06
9	23624	5.41	1.05457e-05
9	24170	5.51	1.56371e-05
9	24716	5.61	2.06217e-05
9	25262	5.71	2.55526e-05
9	25808	5.81	3.00134e-05
9	26354	5.91	3.3875e-05
9	26908	6.01	3.72773e-05
9	27454	6.11	4.03322e-05
9	28000	6.21	4.31277e-05
9	28546	6.31	4.57323e-05
9	29092	6.41	4.81975e-05
9	29638	6.51	5.05614e-05
9	30184	6.61	5.28508e-05
9	30730	6.71	5.50837e-05
9	31276	6.81	5.72707e-05
9	31822	6.91	5.94171e-05
9	32376	7.01	6.1524e-05
9	32922	7.11	6.35892e-05
9	33468	7.21	6.56085e-05
9	34014	7.31	6.75763e-05
9	34560	7.41	6.94863e-05
9	35106	7.51	7.13318e-05
9	35652	7.61	7.31063e-05
9	36198	7.71	7.48036e-05
9	36744	7.81	7.64181e-05
9	37290	7.91	7.79449e-05
9	37844	8.01	7.93801e-05
9	38390	8.11	8.07206e-05
9	38936	8.21	8.1964e-05
9	39482	8.31	8.31091e-05
9	40028	8.41	8.41551e-05
9	40574	8.51	8.51024e-05
9	41120	8.61	8.59518e-05
9	41666	8.71	8.67048e-05
9	42212	8.81	8.73637e-05
9	42758	8.91	8.79308e-05
9	43312	9.01	8.84092e-05
9	43858	9.11	8.88022e-05
9	44404	9.21	8.91132e-05
9	44950	9.31	8.93462e-05
9	45496	9.41	8.95048e-05
9	46042	9.51	8.9593e-05
9	46588	9.61	8.96149e-05
9	47134	9.71	8.95743e-05
9	47680	9.81	8.94751e-05
9	48226	9.91	8.93212e-05
9	48854	10.01	8.91163e-05
9	49407	10.11	0.0013089
9	49960	10.21	0.00445507
9	50513	10.31	0.00915873
9	51066	10.41	0.0151058
9	51619	10.51	0.0220293
9	52172	10.61	0.0297028
9	52725	10.71	0.0379346
9	53278	10.81	0.0465627
9	53831	10.91	0.0554511
9	54392	11.01	0.0644854
9	54945	11.11	0.0735702
9	55498	11.21	0.0826263
9	56051	11.31	0.0915881
9	56604	11.41	0.100402
9	57157	11.51	0.109024
9	57710	11.61	0.11742
9	58263	11.71	0.125562
9	58816	11.81	0.133427
9	59369	11.91	0.141001
9	59930	12.01	0.14827
9	60483	12.11	0.155228
9	61036	12.21	0.161869
9	61589	12.31	0.168191
9	62142	12.41	0.174195
9	62695	12.51	0.179881
9	63248	12.61	0.185254
9	63801	12.71	0.190317
9	64354	12.81	0.195078
9	64907	12.91	0.199541
9	65468	13.01	0.203715
9	66021	13.11	0.207607
9	66574	13.21	0.211224
9	67127	13.31	0.214576
9	67680	13.41	0.21767
9	68233	13.51	0.220515
9	68786	13.61	0.223119
9	69339	13.71	0.225492
9	69892	13.81	0.227641
9	70445	13.91	0.229576
9	71006	14.01	0.231303
9	71559	14.11	0.232832
9	72112	14.21	0.234171
9	72665	14.31	0.235327
9	73218	14.41	0.236308
9	73771	14.51	0.237122
9	74324	14.61	0.237775
9	74877	14.71	0.238275
9	75430	14.81	0.238629
9	75983	14.91	0.238843
9	76544	15.01	0.238923
9	77097	15.11	0.238877
9	77650	15.21	0.238709
9	78203	15.31	0.238426
9	78756	15.41	0.238034
9	79309	15.51	0.237537
9	79862	15.61	0.236941
9	80415	15.71	0.236251
9	80968	15.81	0.235472
[...]
91	67641	13.407204464821	3
91	68194	13.50720479277	3
91	68747	13.607205121189	3
91	69300	13.70720545009	3
91	69853	13.807205779481	3
91	70406	13.907206109376	3
91	70967	14.007206439782	3
91	71520	14.107206770712	3
91	72073	14.207207102172	3
91	72626	14.307207434172	3
91	73179	14.407207766721	3
91	73732	14.507208099827	3
91	74285	14.607208433498	3
91	74838	14.707208767742	3
91	75391	14.807209102565	3
91	75944	14.907209437976	3
91	76505	15.007209773982	3
91	77058	15.107210110591	3
91	77611	15.207210447808	3
91	78164	15.30721078564	3
91	78717	15.407211124093	3
91	79270	15.507211463174	3
91	79823	15.607198802886	3
91	80376	15.707199143236	3
91	80929	15.807199484229	3
91	81482	15.90719982587	3
91	82043	16.007200168162	3
91	82596	16.107200511112	3
91	83149	16.207200854725	3
91	83702	16.307201199005	3
91	84255	16.407201543954	3
91	84808	16.507201889578	3
91	85361	16.607202235879	3
91	85914	16.707202582861	3
91	86467	16.807202930528	3
91	87020	16.907203278882	3
91	87581	17.007203627926	3
91	88134	17.107203977663	3
91	88687	17.207204328096	3
91	89240	17.307204679227	3
91	89793	17.407205031058	3
91	90346	17.50720538359	3
91	90899	17.607205736828	3
91	91452	17.707206090772	3
91	92005	17.807206445423	3
91	92558	17.907206800786	3
91	93119	18.007207156858	3
91	93672	18.107207513643	3
91	94225	18.20720787114	3
91	94778	18.307208229352	3
91	95331	18.40720858828	3
91	95884	18.507208947923	3
91	96437	18.607209308282	3
91	96990	18.707209669359	3
91	97543	18.807210031153	3
91	98096	18.907210393664	3
91	98657	19.007210756893	3
91	99210	19.10721112084	3
91	99763	19.207211485506	3
91	100316	19.30719885089	3
91	100869	19.407199216993	3
91	101422	19.50719958381	3
91	101975	19.607199951346	3
91	102528	19.707200319596	3
91	103081	19.807200688562	3
91	103634	19.907201058243	3
91	104195	20.007201428639	3
91	104748	20.107201799747	3
91	105301	20.207202171569	3
91	105854	20.307202544103	3
91	106407	20.407202917346	3
91	106960	20.507203291297	3
91	107513	20.607203665957	3
91	108066	20.707204041322	3
91	108619	20.807204417393	3
91	109172	20.907204794168	3
91	109733	21.007205171646	3
91	110286	21.107205549825	3
91	110839	21.2072059287	3
91	111392	21.307206308274	3
91	111945	21.407206688543	3
91	112498	21.507207069504	3
91	113051	21.607207451157	3
91	113604	21.707207833502	3
91	114157	21.807208216532	3
91	114710	21.907208600248	3
91	115271	22.007208984648	3
91	115824	22.10720936973	3
91	116377	22.207209755489	3
91	116930	22.307210141926	3
91	117483	22.407210529037	3
91	118036	22.507210916823	3
91	118589	22.607211305277	3
91	119142	22.707198694396	3
91	119695	22.807199084182	3
91	120248	22.907199474631	3
91	120809	23.00719986574	3
91	121362	23.107200257506	3
91	121915	23.207200649927	3
91	122468	23.307201043	3
91	123021	23.407201436723	3
91	123574	23.507201831093	3
91	124127	23.607202226107	3
91	124680	23.707202621762	3
91	125233	23.807203018056	3
91	125786	23.907203414986	3
91	126347	24.007203812549	3
91	126900	24.107204210743	3
91	127453	24.207204609562	3
91	128006	24.307205009007	3
91	128559	24.407205409074	3
91	129112	24.507205809759	3
91	129665	24.60720621106	3
91	130218	24.707206612971	3
91	130771	24.807207015493	3
91	131324	24.907207418621	3
91	131885	25.007207822352	3
91	132438	25.107208226684	3
91	132991	25.207208631613	3
91	133544	25.307209037136	3
91	134097	25.407209443251	3
91	134650	25.507209849955	3
91	135203	25.607210257243	3
91	135756	25.707210665113	3
91	136309	25.80721107356	3
91	136862	25.907211482584	3
91	137423	26.007198892181	3
91	137976	26.107199302346	3
91	138529	26.207199713078	3
91	139082	26.307200124372	3
91	139635	26.407200536226	3
91	140188	26.507200948637	3
91	140741	26.6072013616	3
91	141294	26.707201775114	3
91	141847	26.807202189174	3
91	142400	26.907202603778	3
91	142961	27.007203018923	3
91	143514	27.107203434604	3
91	144067	27.207203850819	3
91	144620	27.307204267566	3
91	145173	27.407204684841	3
91	145726	27.50720510264	3
91	146279	27.607205520961	3
91	146832	27.707205939799	3
91	147385	27.807206359152	3
91	147938	27.907206779015	3
91	148499	28.007207199388	3
91	149052	28.107207620264	3
91	149605	28.207208041641	3
91	150158	28.307208463519	3
91	150711	28.407208885891	3
91	151264	28.507209308756	3
91	151817	28.60720973211	3
91	152370	28.707210155951	3
91	152923	28.807210580273	3
91	153476	28.907211005074	3
91	154037	29.00721143035	3
91	154590	29.107198856101	3
91	155143	29.207199282322	3
91	155696	29.307199709006	3
91	156249	29.407200136157	3
91	156802	29.507200563768	3
91	157355	29.607200991837	3
91	157908	29.70720142036	3
91	158461	29.807201849334	3
91	159014	29.907202278755	3
91	159575	30.007202708619	3
91	160128	30.107203138926	3
91	160681	30.207203569672	3
91	161234	30.307204000854	3
91	161787	30.407204432468	3
91	162340	30.50720486451	3
91	162893	30.60720529698	3
91	163446	30.707205729872	3
91	163999	30.807206163186	3
91	164552	30.907206596916	3
91	165113	31.007207031061	3
91	165666	31.107207465616	3
91	166219	31.207207900581	3
91	166772	31.307208335949	3
91	167325	31.407208771721	3
91	167878	31.50720920789	3
91	168431	31.607209644459	3
91	168984	31.707210081419	3
91	169537	31.807210518769	3
91	170090	31.907210956507	3
91	170651	32.00721139463	3
91	171204	32.107198833134	3
91	171757	32.207199272017	3
91	172310	32.307199711276	3
91	172863	32.407200150908	3
91	173416	32.507200590911	3
91	173969	32.607201031281	3
91	174522	32.707201472015	3
91	175075	32.807201913111	3
91	175628	32.907202354566	3
91	176189	33.007202796377	3
91	176742	33.107203238542	3
91	177295	33.207203681057	3
91	177848	33.307204123921	3
91	178401	33.407204567129	3
91	178954	33.50720501068	3
91	179507	33.607205454572	3
91	180060	33.707205898799	3
91	180613	33.807206343362	3
91	181166	33.907206788256	3
91	181727	34.00720723348	3
91	182280	34.10720767903	3
91	182833	34.207208124904	3
91	183386	34.3072085711	3
91	183939	34.407209017617	3
91	184492	34.507209464447	3
91	185045	34.607209911591	3
91	185598	34.707210359046	3
91	186151	34.807210806809	3
91	186704	34.90721125488	3
91	187265	35.007198703254	3
91	187818	35.107199151929	3
91	188371	35.207199600904	3
91	188924	35.307200050176	3
91	189477	35.407200499741	3
91	190030	35.507200949596	3
91	190583	35.60720139974	3
91	191136	35.707201850173	3
91	191689	35.807202300889	3
92	4960	2	0
92	10428	3	0
92	15896	4	0
92	21364	5	0
92	26832	6	0
92	32300	7	0
92	37768	8	0
92	43236	9	0
92	48705	10	0
92	54309	11	0
92	59847	12	0
92	65385	13	0
92	70923	14	0
92	76461	15	0
92	81999	16	0
92	87537	17	0
92	93075	18	0
92	98613	19	0
92	104151	20	0
92	109689	21	0
92	115227	22	0
92	120765	23	0
92	126303	24	0
92	131841	25	0
92	137379	26	0
92	142917	27	0
92	148455	28	0
92	153993	29	0
92	159531	30	0
92	165069	31	0
92	170607	32	0
92	176145	33	0
92	181683	34	0
92	187221	35	0
93	4960	2	0.022161
93	10428	3	0.02497
93	15896	4	0.02497
93	21364	5	0.02497
93	26832	6	0.02497
93	32300	7	0.02497
93	37768	8	0.02497
93	43236	9	0.02497
93	48705	10	0.02497
93	54309	11	0.025019
93	59847	12	0.02497
93	65385	13	0.02497
93	70923	14	0.02497
93	76461	15	0.02497
93	81999	16	0.02497
93	87537	17	0.02497
93	93075	18	0.02497
93	98613	19	0.02497
93	104151	20	0.02497
93	109689	21	0.02497
93	115227	22	0.02497
93	120765	23	0.02497
93	126303	24	0.02497
93	131841	25	0.02497
93	137379	26	0.02497
93	142917	27	0.02497
93	148455	28	0.02497
93	153993	29	0.02497
93	159531	30	0.02497
93	165069	31	0.02497
93	170607	32	0.02497
93	176145	33	0.02497
93	181683	34	0.02497
93	187221	35	0.02497
94	4960	2	0
94	10428	3	0
94	15896	4	0
94	21364	5	0
94	26832	6	0
94	32300	7	0
94	37768	8	0
94	43236	9	0
94	48705	10	0
94	54309	11	0
94	59847	12	0
94	65385	13	0
94	70923	14	0
94	76461	15	0
94	81999	16	0
94	87537	17	0
94	93075	18	0
94	98613	19	0
94	104151	20	0
94	109689	21	0
94	115227	22	0
94	120765	23	0
94	126303	24	0
94	131841	25	0
94	137379	26	0
94	142917	27	0
94	148455	28	0
94	153993	29	0
94	159531	30	0
94	165069	31	0
94	170607	32	0
94	176145	33	0
94	181683	34	0
94	187221	35	0
95	4961	2	1
95	10429	3	1
95	15897	4	1
95	21365	5	1
95	26833	6	1
95	32301	7	1
95	37769	8	1
95	43237	9	1
95	48706	10	1
95	54310	11	1
95	59848	12	1
95	65386	13	1
95	70924	14	1
95	76462	15	1
95	82000	16	1
95	87538	17	1
95	93076	18	1
95	98614	19	1
95	104152	20	1
95	109690	21	1
95	115228	22	1
95	120766	23	1
95	126304	24	1
95	131842	25	1
95	137380	26	1
95	142918	27	1
95	148456	28	1
95	153994	29	1
95	159532	30	1
95	165070	31	1
95	170608	32	1
95	176146	33	1
95	181684	34	1
95	187222	35	1
96	4961	2	0.022161
96	10429	3	0.02497
96	15897	4	0.02497
96	21365	5	0.02497
96	26833	6	0.02497
96	32301	7	0.02497
96	37769	8	0.02497
96	43237	9	0.02497
96	48706	10	0.02497
96	54310	11	0.025018
96	59848	12	0.02497
96	65386	13	0.02497
96	70924	14	0.02497
96	76462	15	0.02497
96	82000	16	0.02497
96	87538	17	0.02497
96	93076	18	0.02497
96	98614	19	0.02497
96	104152	20	0.02497
96	109690	21	0.02497
96	115228	22	0.02497
96	120766	23	0.02497
96	126304	24	0.02497
96	131842	25	0.02497
96	137380	26	0.02497
96	142918	27	0.02497
96	148456	28	0.02497
96	153994	29	0.02497
96	159532	30	0.02497
96	165070	31	0.02497
96	170608	32	0.02497
96	176146	33	0.02497
96	181684	34	0.02497
96	187222	35	0.02497
97	4961	2	0
97	10429	3	0
97	15897	4	0
97	21365	5	0
97	26833	6	0
97	32301	7	0
97	37769	8	0
97	43237	9	0
97	48706	10	0
97	54310	11	0
97	59848	12	0
97	65386	13	0
97	70924	14	0
97	76462	15	0
97	82000	16	0
97	87538	17	0
97	93076	18	0
97	98614	19	0
97	104152	20	0
97	109690	21	0
97	115228	22	0
97	120766	23	0
97	126304	24	0
97	131842	25	0
97	137380	26	0
97	142918	27	0
97	148456	28	0
97	153994	29	0
97	159532	30	0
97	165070	31	0
97	170608	32	0
97	176146	33	0
97	181684	34	0
97	187222	35	0
98	4962	2	2
98	10430	3	2
98	15898	4	2
98	21366	5	2
98	26834	6	2
98	32302	7	2
98	37770	8	2
98	43238	9	2
98	48707	10	2
98	54311	11	2
98	59849	12	2
98	65387	13	2
98	70925	14	2
98	76463	15	2
98	82001	16	2
98	87539	17	2
98	93077	18	2
98	98615	19	2
98	104153	20	2
98	109691	21	2
98	115229	22	2
98	120767	23	2
98	126305	24	2
98	131843	25	2
98	137381	26	2
98	142919	27	2
98	148457	28	2
98	153995	29	2
98	159533	30	2
98	165071	31	2
98	170609	32	2
98	176147	33	2
98	181685	34	2
98	187223	35	2
99	4962	2	0.02216
99	10430	3	0.02497
99	15898	4	0.02497
99	21366	5	0.02497
99	26834	6	0.02497
99	32302	7	0.02497
99	37770	8	0.02497
99	43238	9	0.02497
99	48707	10	0.02497
99	54311	11	0.025018
99	59849	12	0.02497
99	65387	13	0.02497
99	70925	14	0.02497
99	76463	15	0.02497
99	82001	16	0.02497
99	87539	17	0.02497
99	93077	18	0.02497
99	98615	19	0.02497
99	104153	20	0.02497
99	109691	21	0.02497
99	115229	22	0.02497
99	120767	23	0.02497
99	126305	24	0.02497
99	131843	25	0.02497
99	137381	26	0.02497
99	142919	27	0.02497
99	148457	28	0.02497
99	153995	29	0.02497
99	159533	30	0.02497
99	165071	31	0.02497
99	170609	32	0.02497
99	176147	33	0.02497
99	181685	34	0.02497
99	187223	35	0.02497
100	4962	2	0
100	10430	3	0
100	15898	4	0
100	21366	5	0
100	26834	6	0
100	32302	7	0
100	37770	8	0
100	43238	9	0
100	48707	10	0
100	54311	11	0
100	59849	12	0
100	65387	13	0
100	70925	14	0
100	76463	15	0
100	82001	16	0
100	87539	17	0
100	93077	18	0
100	98615	19	0
100	104153	20	0
100	109691	21	0
100	115229	22	0
100	120767	23	0
100	126305	24	0
100	131843	25	0
100	137381	26	0
100	142919	27	0
100	148457	28	0
100	153995	29	0
100	159533	30	0
100	165071	31	0
100	170609	32	0
100	176147	33	0
100	181685	34	0
100	187223	35	0
101	4963	2	3
101	10431	3	3
101	15899	4	3
101	21367	5	3
101	26835	6	3
101	32303	7	3
101	37771	8	3
101	43239	9	3
101	48708	10	3
101	54312	11	3
101	59850	12	3
101	65388	13	3
101	70926	14	3
101	76464	15	3
101	82002	16	3
101	87540	17	3
101	93078	18	3
101	98616	19	3
101	104154	20	3
101	109692	21	3
101	115230	22	3
101	120768	23	3
101	126306	24	3
101	131844	25	3
101	137382	26	3
101	142920	27	3
101	148458	28	3
101	153996	29	3
101	159534	30	3
101	165072	31	3
101	170610	32	3
101	176148	33	3
101	181686	34	3
101	187224	35	3
102	4963	2	0.022161
102	10431	3	0.02497
102	15899	4	0.02497
102	21367	5	0.02497
102	26835	6	0.02497
102	32303	7	0.02497
102	37771	8	0.02497
102	43239	9	0.02497
102	48708	10	0.02497
102	54312	11	0.025018
102	59850	12	0.02497
102	65388	13	0.02497
102	70926	14	0.02497
102	76464	15	0.02497
102	82002	16	0.02497
102	87540	17	0.02497
102	93078	18	0.02497
102	98616	19	0.02497
102	104154	20	0.02497
102	109692	21	0.02497
102	115230	22	0.02497
102	120768	23	0.02497
102	126306	24	0.02497
102	131844	25	0.02497
102	137382	26	0.02497
102	142920	27	0.02497
102	148458	28	0.02497
102	153996	29	0.02497
102	159534	30	0.02497
102	165072	31	0.02497
102	170610	32	0.02497
102	176148	33	0.02497
102	181686	34	0.02497
102	187224	35	0.02497
103	4963	2	0
103	10431	3	0
103	15899	4	0
103	21367	5	0
103	26835	6	0
103	32303	7	0
103	37771	8	0
103	43239	9	0
103	48708	10	0
103	54312	11	0
103	59850	12	0
103	65388	13	0
103	70926	14	0
103	76464	15	0
103	82002	16	0
103	87540	17	0
103	93078	18	0
103	98616	19	0
103	104154	20	0
103	109692	21	0
103	115230	22	0
103	120768	23	0
103	126306	24	0
103	131844	25	0
103	137382	26	0
103	142920	27	0
103	148458	28	0
103	153996	29	0
103	159534	30	0
103	165072	31	0
103	170610	32	0
103	176148	33	0
103	181686	34	0
103	187224	35	0
104	4964	2	4
104	10432	3	4
104	15900	4	4
104	21368	5	4
104	26836	6	4
104	32304	7	4
104	37772	8	4
104	43240	9	4
104	48709	10	4
104	54313	11	4
104	59851	12	4
104	65389	13	4
104	70927	14	4
104	76465	15	4
104	82003	16	4
104	87541	17	4
104	93079	18	4
104	98617	19	4
104	104155	20	4
104	109693	21	4
104	115231	22	4
104	120769	23	4
104	126307	24	4
104	131845	25	4
104	137383	26	4
104	142921	27	4
104	148459	28	4
104	153997	29	4
104	159535	30	4
104	165073	31	4
104	170611	32	4
104	176149	33	4
104	181687	34	4
104	187225	35	4
105	4964	2	0.022161
105	10432	3	0.02497
105	15900	4	0.02497
105	21368	5	0.02497
105	26836	6	0.02497
105	32304	7	0.02497
105	37772	8	0.02497
105	43240	9	0.02497
105	48709	10	0.02497
105	54313	11	0.025018
105	59851	12	0.02497
105	65389	13	0.02497
105	70927	14	0.02497
105	76465	15	0.02497
105	82003	16	0.02497
105	87541	17	0.02497
105	93079	18	0.02497
105	98617	19	0.02497
105	104155	20	0.02497
105	109693	21	0.02497
105	115231	22	0.02497
105	120769	23	0.02497
105	126307	24	0.02497
105	131845	25	0.02497
105	137383	26	0.02497
105	142921	27	0.02497
105	148459	28	0.02497
105	153997	29	0.02497
105	159535	30	0.02497
105	165073	31	0.02497
105	170611	32	0.02497
105	176149	33	0.02497
105	181687	34	0.02497
105	187225	35	0.02497
106	4964	2	0
106	10432	3	0
106	15900	4	0
106	21368	5	0
106	26836	6	0
106	32304	7	0
106	37772	8	0
106	43240	9	0
106	48709	10	0
106	54313	11	0
106	59851	12	0
106	65389	13	0
106	70927	14	0
106	76465	15	0
106	82003	16	0
106	87541	17	0
106	93079	18	0
106	98617	19	0
106	104155	20	0
106	109693	21	0
106	115231	22	0
106	120769	23	0
106	126307	24	0
106	131845	25	0
106	137383	26	0
106	142921	27	0
106	148459	28	0
106	153997	29	0
106	159535	30	0
106	165073	31	0
106	170611	32	0
106	176149	33	0
106	181687	34	0
106	187225	35	0
107	4965	2	5
107	10433	3	5
107	15901	4	5
107	21369	5	5
107	26837	6	5
107	32305	7	5
107	37773	8	5
107	43241	9	5
107	48710	10	5
107	54314	11	5
107	59852	12	5
107	65390	13	5
107	70928	14	5
107	76466	15	5
107	82004	16	5
107	87542	17	5
107	93080	18	5
107	98618	19	5
107	104156	20	5
107	109694	21	5
107	115232	22	5
107	120770	23	5
107	126308	24	5
107	131846	25	5
107	137384	26	5
107	142922	27	5
107	148460	28	5
107	153998	29	5
107	159536	30	5
107	165074	31	5
107	170612	32	5
107	176150	33	5
107	181688	34	5
107	187226	35	5
108	4965	2	0.022161
108	10433	3	0.02497
108	15901	4	0.02497
108	21369	5	0.02497
108	26837	6	0.02497
108	32305	7	0.02497
108	37773	8	0.02497
108	43241	9	0.02497
108	48710	10	0.02497
108	54314	11	0.025018
108	59852	12	0.02497
108	65390	13	0.02497
108	70928	14	0.02497
108	76466	15	0.02497
108	82004	16	0.02497
108	87542	17	0.02497
108	93080	18	0.02497
108	98618	19	0.02497
108	104156	20	0.02497
108	109694	21	0.02497
108	115232	22	0.02497
108	120770	23	0.02497
108	126308	24	0.02497
108	131846	25	0.02497
108	137384	26	0.02497
108	142922	27	0.02497
108	148460	28	0.02497
108	153998	29	0.02497
108	159536	30	0.02497
108	165074	31	0.02497
108	170612	32	0.02497
108	176150	33	0.02497
108	181688	34	0.02497
108	187226	35	0.02497
109	4965	2	0
109	10433	3	0
109	15901	4	0
109	21369	5	0
109	26837	6	0
109	32305	7	0
109	37773	8	0
109	43241	9	0
109	48710	10	0
109	54314	11	0
109	59852	12	0
109	65390	13	0
109	70928	14	0
109	76466	15	0
109	82004	16	0
109	87542	17	0
109	93080	18	0
109	98618	19	0
109	104156	20	0
109	109694	21	0
109	115232	22	0
109	120770	23	0
109	126308	24	0
109	131846	25	0
109	137384	26	0
109	142922	27	0
109	148460	28	0
109	153998	29	0
109	159536	30	0
109	165074	31	0
109	170612	32	0
109	176150	33	0
109	181688	34	0
109	187226	35	0
110	4966	2	6
110	10434	3	6
110	15902	4	6
110	21370	5	6
110	26838	6	6
110	32306	7	6
110	37774	8	6
110	43242	9	6
110	48711	10	6
110	54315	11	6
110	59853	12	6
110	65391	13	6
110	70929	14	6
110	76467	15	6
110	82005	16	6
110	87543	17	6
110	93081	18	6
110	98619	19	6
110	104157	20	6
110	109695	21	6
110	115233	22	6
110	120771	23	6
110	126309	24	6
110	131847	25	6
110	137385	26	6
110	142923	27	6
110	148461	28	6
110	153999	29	6
110	159537	30	6
110	165075	31	6
110	170613	32	6
110	176151	33	6
110	181689	34	6
110	187227	35	6
111	4966	2	0.022161
111	10434	3	0.02497
111	15902	4	0.02497
111	21370	5	0.02497
111	26838	6	0.02497
111	32306	7	0.02497
111	37774	8	0.02497
111	43242	9	0.02497
111	48711	10	0.02497
111	54315	11	0.025018
111	59853	12	0.02497
111	65391	13	0.02497
111	70929	14	0.02497
111	76467	15	0.02497
111	82005	16	0.02497
111	87543	17	0.02497
111	93081	18	0.02497
111	98619	19	0.02497
111	104157	20	0.02497
111	109695	21	0.02497
111	115233	22	0.02497
111	120771	23	0.02497
111	126309	24	0.02497
111	131847	25	0.02497
111	137385	26	0.02497
111	142923	27	0.02497
111	148461	28	0.02497
111	153999	29	0.02497
111	159537	30	0.02497
111	165075	31	0.02497
111	170613	32	0.02497
111	176151	33	0.02497
111	181689	34	0.02497
111	187227	35	0.02497
112	4966	2	0
112	10434	3	0
112	15902	4	0
112	21370	5	0
112	26838	6	0
112	32306	7	0
112	37774	8	0
112	43242	9	0
112	48711	10	0
112	54315	11	0
112	59853	12	0
112	65391	13	0
112	70929	14	0
112	76467	15	0
112	82005	16	0
112	87543	17	0
112	93081	18	0
112	98619	19	0
112	104157	20	0
112	109695	21	0
112	115233	22	0
112	120771	23	0
112	126309	24	0
112	131847	25	0
112	137385	26	0
112	142923	27	0
112	148461	28	0
112	153999	29	0
112	159537	30	0
112	165075	31	0
112	170613	32	0
112	176151	33	0
112	181689	34	0
112	187227	35	0
113	4967	2	7
113	10435	3	7
113	15903	4	7
113	21371	5	7
113	26839	6	7
113	32307	7	7
113	37775	8	7
113	43243	9	7
113	48712	10	7
113	54316	11	7
113	59854	12	7
113	65392	13	7
113	70930	14	7
113	76468	15	7
113	82006	16	7
113	87544	17	7
113	93082	18	7
113	98620	19	7
113	104158	20	7
113	109696	21	7
113	115234	22	7
113	120772	23	7
113	126310	24	7
113	131848	25	7
113	137386	26	7
113	142924	27	7
113	148462	28	7
113	154000	29	7
113	159538	30	7
113	165076	31	7
113	170614	32	7
113	176152	33	7
113	181690	34	7
113	187228	35	7
114	4967	2	0.022161
114	10435	3	0.02497
114	15903	4	0.02497
114	21371	5	0.02497
114	26839	6	0.02497
114	32307	7	0.02497
114	37775	8	0.02497
114	43243	9	0.02497
114	48712	10	0.02497
114	54316	11	0.025018
114	59854	12	0.02497
114	65392	13	0.02497
114	70930	14	0.02497
114	76468	15	0.02497
114	82006	16	0.02497
114	87544	17	0.02497
114	93082	18	0.02497
114	98620	19	0.02497
114	104158	20	0.02497
114	109696	21	0.02497
114	115234	22	0.02497
114	120772	23	0.02497
114	126310	24	0.02497
114	131848	25	0.02497
114	137386	26	0.02497
114	142924	27	0.02497
114	148462	28	0.02497
114	154000	29	0.02497
114	159538	30	0.02497
114	165076	31	0.02497
114	170614	32	0.02497
114	176152	33	0.02497
114	181690	34	0.02497
114	187228	35	0.02497
115	4967	2	0
115	10435	3	0
115	15903	4	0
115	21371	5	0
115	26839	6	0
115	32307	7	0
115	37775	8	0
115	43243	9	0
115	48712	10	0
115	54316	11	0
115	59854	12	0
115	65392	13	0
115	70930	14	0
115	76468	15	0
115	82006	16	0
115	87544	17	0
115	93082	18	0
115	98620	19	0
115	104158	20	0
115	109696	21	0
115	115234	22	0
115	120772	23	0
115	126310	24	0
115	131848	25	0
115	137386	26	0
115	142924	27	0
115	148462	28	0
115	154000	29	0
115	159538	30	0
115	165076	31	0
115	170614	32	0
115	176152	33	0
115	181690	34	0
115	187228	35	0

