version 3
run BreakRanksNoGui-802-20240711-12:44:11-287211
attr configname BreakRanksNoGui
attr datetime 20240711-12:44:11
attr datetimef 20240711-124411
attr experiment BreakRanksNoGui
attr inifile omnetpp.ini
attr iterationvars "$nCars=9, $platoonSize=9, $nLanes=1, $ploegH=0.5, $controller=1, $headway=0.1, $leaderHeadway=1.2, $leaderSpeed=110, $breakRanksSafetyDistance=2, $minSpeed=100, $maxSpeed=120, $beaconInterval=0.1, $priority=4, $packetSize=200, $sController=\"CACC\", $0=2, $1=0"
attr iterationvarsd nCars=9/platoonSize=9/nLanes=1/ploegH=0.5/controller=1/headway=0.1/leaderHeadway=1.2/leaderSpeed=110/breakRanksSafetyDistance=2/minSpeed=100/maxSpeed=120/beaconInterval=0.1/priority=4/packetSize=200/sController=CACC/2/0
attr iterationvarsf nCars=9,platoonSize=9,nLanes=1,ploegH=0.5,controller=1,headway=0.1,leaderHeadway=1.2,leaderSpeed=110,breakRanksSafetyDistance=2,minSpeed=100,maxSpeed=120,beaconInterval=0.1,priority=4,packetSize=200,sController=CACC,2,0-
attr measurement "$nCars=9, $platoonSize=9, $nLanes=1, $ploegH=0.5, $controller=1, $headway=0.1, $leaderHeadway=1.2, $leaderSpeed=110, $breakRanksSafetyDistance=2, $minSpeed=100, $maxSpeed=120, $beaconInterval=0.1, $priority=4, $packetSize=200, $sController=\"CACC\", $0=2, $1=0"
attr network Highway
attr processid 287211
attr repetition 2
attr replication #2
attr resultdir results
attr runnumber 802
attr seedset 2
itervar beaconInterval 0.1
itervar breakRanksSafetyDistance 2
itervar controller 1
itervar headway 0.1
itervar leaderHeadway 1.2
itervar leaderSpeed 110
itervar maxSpeed 120
itervar minSpeed 100
itervar nCars 9
itervar nLanes 1
itervar packetSize 200
itervar platoonSize 9
itervar ploegH 0.5
itervar priority 4
itervar sController "\"CACC\""
config image-path ../../../veins/images
config repeat 10
config extends BreakRanks
config *.manager.command "\"sumo\""
config *.manager.ignoreGuiCommands true
config output-vector-file "results/BreakRanks_1_0.1_110_2_9 /result_2.vec"
config output-scalar-file "results/BreakRanks_1_0.1_110_2_9 /result_2.sca"
config extends Platooning
config *.node[*].scenario_type "\"BreakRanksScenario\""
config *.manager.command "\"sumo-gui\""
config *.node[*].scenario_type "\"SimpleScenario\""
config cmdenv-express-mode true
config cmdenv-autoflush true
config cmdenv-status-frequency 15s
config num-rngs 6
config network Highway
config debug-on-errors true
config print-undisposed true
config *.playgroundSizeX 65000m
config *.playgroundSizeY 25000m
config *.playgroundSizeZ 50m
config sim-time-limit "100 s"
config *.annotations.draw false
config *.obstacles.debug false
config *.world.useTorus false
config *.world.use2D false
config *.manager.updateInterval 0.01s
config *.manager.host "\"localhost\""
config *.manager.moduleType "\"org.car2x.plexe.PlatoonCar\""
config *.manager.moduleName "\"node\""
config *.manager.moduleDisplayString "\"\""
config *.manager.autoShutdown true
config *.manager.margin 25
config *.connectionManager.sendDirect true
config *.connectionManager.maxInterfDist 2600m
config *.connectionManager.drawMaxIntfDist false
config *.**.nic.mac1609_4.useServiceChannel false
config *.**.nic.mac1609_4.txPower 100mW
config *.**.nic.mac1609_4.bitrate 6Mbps
config *.**.nic.mac1609_4.useAcks true
config *.**.nic.mac1609_4.ackErrorRate 0.0
config *.**.nic.mac1609_4.frameErrorRate 0.0
config *.**.nic.phy80211p.minPowerLevel -94dBm
config *.**.nic.phy80211p.maxTXPower 100mW
config *.**.nic.phy80211p.useNoiseFloor true
config *.**.nic.phy80211p.noiseFloor -95dBm
config *.**.nic.phy80211p.decider "xmldoc(\"config.xml\")"
config *.**.nic.phy80211p.analogueModels "xmldoc(\"config.xml\")"
config *.**.nic.phy80211p.usePropagationDelay true
config *.node[*].mobility.x 0
config *.node[*].mobility.y 0
config *.node[*].mobility.z 1.895
config seed-set 2
config **.seed 2
config *.node[*].prot.rng-0 2
config *.node[*].appl.rng-0 3
config *.node[*].scenario.rng-0 4
config **.traffic.rng-0 5
config *.manager.configFile "\"./sumocfg/freeway.sumo.cfg\""
config *.manager.launchConfig "xmldoc(\"./sumocfg/freeway.launchd.xml\")"
config **.numberOfCars 9
config **.numberOfCarsPerPlatoon 9
config **.numberOfLanes 1
config *.node[*].helper_type "\"PositionHelper\""
config *.node[*].scenario.caccC1 0.5
config *.node[*].scenario.caccXi 1
config *.node[*].scenario.caccOmegaN "0.2 Hz"
config *.node[*].scenario.caccSpacing "2 m"
config *.node[*].scenario.engineTau "0.5 s"
config *.node[*].scenario.ploegH 0.5s
config *.node[*].scenario.ploegKp 0.2
config *.node[*].scenario.ploegKd 0.7
config *.node[*].scenario.useRealisticEngine false
config *.node[*].scenario.useControllerAcceleration true
config *.node[*].scenario.nLanes 1
config **.numericController 1
config **.headway 0.1s
config *.node[*].scenario.accHeadway 0.1s
config *.node[*].scenario.leaderHeadway 1.2s
config *.node[*].scenario.leaderSpeed 110kmph
config *.node[*].appl_type "\"SimplePlatooningApp\""
config *.node[*].appl.*.scalar-recording true
config *.node[*].appl.*.vector-recording true
config *.node[0].appl.breakRanksSafetyDistance 2m
config *.node[*].appl.minSpeed 100kmph
config *.node[*].appl.maxSpeed 120kmph
config *.node[*].protocol_type "\"SimplePlatooningBeaconing\""
config *.node[*].prot.*.scalar-recording true
config *.node[*].prot.*.vector-recording true
config *.node[*].prot.beaconingInterval 0.1s
config *.node[*].prot.priority 4
config *.node[*].prot.packetSize 200
config **.traffic_type "\"PlatoonsTrafficManager\""
config **.traffic.platoonInsertTime "1 s"
config **.traffic.platoonInsertSpeed 110kmph
config **.traffic.nCars 9
config **.traffic.platoonSize 9
config **.traffic.nLanes 1
config **.traffic.platooningVType "\"vtypeauto\""
config **.traffic.controller "\"CACC\""
config **.traffic.platoonInsertDistance 2m
config **.traffic.platoonInsertHeadway 0s
config **.traffic.platoonLeaderHeadway 1.2s
config **.scalar-recording false
config **.vector-recording false

vector 0 Highway.node[0].appl distance ETV
vector 1 Highway.node[0].appl relativeSpeed ETV
vector 2 Highway.node[0].appl nodeId ETV
vector 3 Highway.node[0].appl acceleration ETV
vector 4 Highway.node[0].appl controllerAcceleration ETV
vector 5 Highway.node[0].appl speed ETV
vector 6 Highway.node[0].appl posx ETV
vector 7 Highway.node[0].appl posy ETV
vector 8 Highway.node[1].appl distance ETV
vector 9 Highway.node[1].appl relativeSpeed ETV
vector 10 Highway.node[1].appl nodeId ETV
vector 11 Highway.node[1].appl acceleration ETV
vector 12 Highway.node[1].appl controllerAcceleration ETV
vector 13 Highway.node[1].appl speed ETV
vector 14 Highway.node[1].appl posx ETV
vector 15 Highway.node[1].appl posy ETV
vector 16 Highway.node[2].appl distance ETV
vector 17 Highway.node[2].appl relativeSpeed ETV
vector 18 Highway.node[2].appl nodeId ETV
vector 19 Highway.node[2].appl acceleration ETV
vector 20 Highway.node[2].appl controllerAcceleration ETV
vector 21 Highway.node[2].appl speed ETV
vector 22 Highway.node[2].appl posx ETV
vector 23 Highway.node[2].appl posy ETV
vector 24 Highway.node[3].appl distance ETV
vector 25 Highway.node[3].appl relativeSpeed ETV
vector 26 Highway.node[3].appl nodeId ETV
vector 27 Highway.node[3].appl acceleration ETV
vector 28 Highway.node[3].appl controllerAcceleration ETV
vector 29 Highway.node[3].appl speed ETV
vector 30 Highway.node[3].appl posx ETV
vector 31 Highway.node[3].appl posy ETV
vector 32 Highway.node[4].appl distance ETV
vector 33 Highway.node[4].appl relativeSpeed ETV
vector 34 Highway.node[4].appl nodeId ETV
vector 35 Highway.node[4].appl acceleration ETV
vector 36 Highway.node[4].appl controllerAcceleration ETV
vector 37 Highway.node[4].appl speed ETV
vector 38 Highway.node[4].appl posx ETV
vector 39 Highway.node[4].appl posy ETV
vector 40 Highway.node[5].appl distance ETV
vector 41 Highway.node[5].appl relativeSpeed ETV
vector 42 Highway.node[5].appl nodeId ETV
vector 43 Highway.node[5].appl acceleration ETV
vector 44 Highway.node[5].appl controllerAcceleration ETV
vector 45 Highway.node[5].appl speed ETV
vector 46 Highway.node[5].appl posx ETV
vector 47 Highway.node[5].appl posy ETV
vector 48 Highway.node[6].appl distance ETV
vector 49 Highway.node[6].appl relativeSpeed ETV
vector 50 Highway.node[6].appl nodeId ETV
vector 51 Highway.node[6].appl acceleration ETV
vector 52 Highway.node[6].appl controllerAcceleration ETV
vector 53 Highway.node[6].appl speed ETV
vector 54 Highway.node[6].appl posx ETV
vector 55 Highway.node[6].appl posy ETV
vector 56 Highway.node[7].appl distance ETV
vector 57 Highway.node[7].appl relativeSpeed ETV
vector 58 Highway.node[7].appl nodeId ETV
vector 59 Highway.node[7].appl acceleration ETV
vector 60 Highway.node[7].appl controllerAcceleration ETV
vector 61 Highway.node[7].appl speed ETV
vector 62 Highway.node[7].appl posx ETV
vector 63 Highway.node[7].appl posy ETV
vector 64 Highway.node[8].appl distance ETV
vector 65 Highway.node[8].appl relativeSpeed ETV
vector 66 Highway.node[8].appl nodeId ETV
vector 67 Highway.node[8].appl acceleration ETV
vector 68 Highway.node[8].appl controllerAcceleration ETV
vector 69 Highway.node[8].appl speed ETV
vector 70 Highway.node[8].appl posx ETV
vector 71 Highway.node[8].appl posy ETV
vector 72 Highway.node[7].prot frontDelay ETV
vector 73 Highway.node[7].prot frontDelayId ETV
vector 74 Highway.node[8].prot frontDelay ETV
vector 75 Highway.node[8].prot frontDelayId ETV
vector 76 Highway.node[6].prot frontDelay ETV
vector 77 Highway.node[6].prot frontDelayId ETV
vector 78 Highway.node[1].prot leaderDelay ETV
vector 79 Highway.node[1].prot leaderDelayId ETV
vector 80 Highway.node[1].prot frontDelay ETV
vector 81 Highway.node[1].prot frontDelayId ETV
vector 82 Highway.node[2].prot leaderDelay ETV
vector 83 Highway.node[2].prot leaderDelayId ETV
vector 84 Highway.node[3].prot leaderDelay ETV
vector 85 Highway.node[3].prot leaderDelayId ETV
vector 86 Highway.node[4].prot leaderDelay ETV
vector 87 Highway.node[4].prot leaderDelayId ETV
vector 88 Highway.node[5].prot leaderDelay ETV
vector 89 Highway.node[5].prot leaderDelayId ETV
vector 90 Highway.node[6].prot leaderDelay ETV
vector 91 Highway.node[6].prot leaderDelayId ETV
vector 92 Highway.node[7].prot leaderDelay ETV
vector 93 Highway.node[7].prot leaderDelayId ETV
vector 94 Highway.node[8].prot leaderDelay ETV
vector 95 Highway.node[8].prot leaderDelayId ETV
vector 96 Highway.node[4].prot frontDelay ETV
vector 97 Highway.node[4].prot frontDelayId ETV
vector 98 Highway.node[3].prot frontDelay ETV
vector 99 Highway.node[3].prot frontDelayId ETV
vector 100 Highway.node[5].prot frontDelay ETV
vector 101 Highway.node[5].prot frontDelayId ETV
vector 102 Highway.node[2].prot frontDelay ETV
vector 103 Highway.node[2].prot frontDelayId ETV
vector 104 Highway.node[0].prot nodeId ETV
vector 105 Highway.node[0].prot busyTime ETV
vector 106 Highway.node[0].prot collisions ETV
vector 107 Highway.node[1].prot nodeId ETV
vector 108 Highway.node[1].prot busyTime ETV
vector 109 Highway.node[1].prot collisions ETV
vector 110 Highway.node[2].prot nodeId ETV
vector 111 Highway.node[2].prot busyTime ETV
vector 112 Highway.node[2].prot collisions ETV
vector 113 Highway.node[3].prot nodeId ETV
vector 114 Highway.node[3].prot busyTime ETV
vector 115 Highway.node[3].prot collisions ETV
vector 116 Highway.node[4].prot nodeId ETV
vector 117 Highway.node[4].prot busyTime ETV
vector 118 Highway.node[4].prot collisions ETV
vector 119 Highway.node[5].prot nodeId ETV
vector 120 Highway.node[5].prot busyTime ETV
vector 121 Highway.node[5].prot collisions ETV
vector 122 Highway.node[6].prot nodeId ETV
vector 123 Highway.node[6].prot busyTime ETV
vector 124 Highway.node[6].prot collisions ETV
vector 125 Highway.node[7].prot nodeId ETV
vector 126 Highway.node[7].prot busyTime ETV
vector 127 Highway.node[7].prot collisions ETV
vector 128 Highway.node[8].prot nodeId ETV
vector 129 Highway.node[8].prot busyTime ETV
vector 130 Highway.node[8].prot collisions ETV
0	113	1.11	-1
0	798	1.21	-1
0	1483	1.31	-1
0	2168	1.41	-1
0	2853	1.51	-1
0	3538	1.61	-1
0	4223	1.71	-1
0	4908	1.81	-1
0	5593	1.91	-1
0	6287	2.01	-1
0	6972	2.11	-1
0	7657	2.21	-1
0	8342	2.31	-1
0	9027	2.41	-1
0	9712	2.51	-1
0	10397	2.61	-1
0	11082	2.71	-1
0	11767	2.81	-1
0	12452	2.91	-1
0	13146	3.01	-1
0	13831	3.11	-1
0	14516	3.21	-1
0	15201	3.31	-1
0	15886	3.41	-1
0	16571	3.51	-1
0	17256	3.61	-1
0	17941	3.71	-1
0	18626	3.81	-1
0	19311	3.91	-1
0	20005	4.01	-1
0	20690	4.11	-1
0	21375	4.21	-1
0	22060	4.31	-1
0	22745	4.41	-1
0	23430	4.51	-1
0	24115	4.61	-1
0	24800	4.71	-1
0	25485	4.81	-1
0	26170	4.91	-1
0	26864	5.01	-1
0	27549	5.11	-1
0	28234	5.21	-1
0	28919	5.31	-1
0	29604	5.41	-1
0	30289	5.51	-1
0	30974	5.61	-1
0	31659	5.71	-1
0	32344	5.81	-1
0	33029	5.91	-1
0	33723	6.01	-1
0	34408	6.11	-1
0	35093	6.21	-1
0	35778	6.31	-1
0	36463	6.41	-1
0	37148	6.51	-1
0	37833	6.61	-1
0	38518	6.71	-1
0	39203	6.81	-1
0	39888	6.91	-1
0	40582	7.01	-1
0	41267	7.11	-1
0	41952	7.21	-1
0	42637	7.31	-1
0	43322	7.41	-1
0	44007	7.51	-1
0	44692	7.61	-1
0	45377	7.71	-1
0	46062	7.81	-1
0	46747	7.91	-1
0	47441	8.01	-1
0	48126	8.11	-1
0	48811	8.21	-1
0	49496	8.31	-1
0	50181	8.41	-1
0	50866	8.51	-1
0	51551	8.61	-1
0	52236	8.71	-1
0	52921	8.81	-1
0	53606	8.91	-1
0	54300	9.01	-1
0	54985	9.11	-1
0	55670	9.21	-1
0	56355	9.31	-1
0	57040	9.41	-1
0	57725	9.51	-1
0	58410	9.61	-1
0	59095	9.71	-1
0	59780	9.81	-1
0	60465	9.91	-1
0	63496	10.01	-1
0	64181	10.11	-1
0	64866	10.21	-1
0	65551	10.31	-1
0	66236	10.41	-1
0	66921	10.51	-1
0	67606	10.61	-1
0	68291	10.71	-1
0	68976	10.81	-1
0	69661	10.91	-1
0	70355	11.01	-1
0	71040	11.11	-1
0	71725	11.21	-1
0	72410	11.31	-1
0	73095	11.41	-1
0	73780	11.51	-1
0	74465	11.61	-1
0	75150	11.71	-1
0	75835	11.81	-1
0	76520	11.91	-1
0	77214	12.01	-1
0	77899	12.11	-1
0	78584	12.21	-1
0	79269	12.31	-1
0	79954	12.41	-1
0	80639	12.51	-1
0	81324	12.61	-1
0	82009	12.71	-1
0	82694	12.81	-1
0	83379	12.91	-1
0	84073	13.01	-1
0	84758	13.11	-1
0	85443	13.21	-1
0	86128	13.31	-1
0	86813	13.41	-1
0	87498	13.51	-1
0	88183	13.61	-1
0	88868	13.71	-1
0	89553	13.81	-1
0	90238	13.91	-1
0	90932	14.01	-1
0	91617	14.11	-1
0	92302	14.21	-1
0	92987	14.31	-1
0	93672	14.41	-1
0	94357	14.51	-1
0	95042	14.61	-1
0	95727	14.71	-1
0	96412	14.81	-1
0	97097	14.91	-1
0	97791	15.01	-1
0	98476	15.11	-1
0	99161	15.21	-1
0	99846	15.31	-1
0	100531	15.41	-1
0	101216	15.51	-1
0	101901	15.61	-1
0	102586	15.71	-1
0	103271	15.81	-1
0	103956	15.91	-1
0	104650	16.01	-1
0	105335	16.11	-1
0	106020	16.21	-1
0	106705	16.31	-1
0	107390	16.41	-1
0	108075	16.51	-1
0	108760	16.61	-1
0	109445	16.71	-1
0	110130	16.81	-1
0	110815	16.91	-1
0	111509	17.01	-1
0	112194	17.11	-1
0	112879	17.21	-1
0	113564	17.31	-1
0	114249	17.41	-1
0	114934	17.51	-1
0	115619	17.61	-1
0	116304	17.71	-1
0	116989	17.81	-1
0	117674	17.91	-1
0	118368	18.01	-1
0	119053	18.11	-1
0	119738	18.21	-1
0	120423	18.31	-1
0	121108	18.41	-1
0	121793	18.51	-1
0	122478	18.61	-1
0	123163	18.71	-1
0	123848	18.81	-1
0	124533	18.91	-1
0	125227	19.01	-1
0	125912	19.11	-1
0	126597	19.21	-1
0	127282	19.31	-1
0	127967	19.41	-1
0	128652	19.51	-1
0	129337	19.61	-1
0	130022	19.71	-1
0	130707	19.81	-1
0	131392	19.91	-1
0	132086	20.01	-1
0	132771	20.11	-1
0	133456	20.21	-1
0	134141	20.31	-1
0	134826	20.41	-1
0	135511	20.51	-1
0	136196	20.61	-1
0	136881	20.71	-1
0	137566	20.81	-1
0	138251	20.91	-1
0	138945	21.01	-1
0	139630	21.11	-1
0	140315	21.21	-1
0	141000	21.31	-1
0	141685	21.41	-1
0	142370	21.51	-1
0	143055	21.61	-1
0	143740	21.71	-1
0	144425	21.81	-1
0	145110	21.91	-1
0	145804	22.01	-1
0	146489	22.11	-1
0	147174	22.21	-1
0	147859	22.31	-1
0	148544	22.41	-1
0	149229	22.51	-1
0	149914	22.61	-1
0	150599	22.71	-1
0	151284	22.81	-1
0	151969	22.91	-1
0	152663	23.01	-1
0	153348	23.11	-1
0	154033	23.21	-1
0	154718	23.31	-1
0	155403	23.41	-1
0	156088	23.51	-1
0	156773	23.61	-1
0	157458	23.71	-1
0	158143	23.81	-1
0	158828	23.91	-1
0	159522	24.01	-1
0	160207	24.11	-1
0	160892	24.21	-1
0	161577	24.31	-1
0	162262	24.41	-1
0	162947	24.51	-1
0	163632	24.61	-1
0	164317	24.71	-1
0	165002	24.81	-1
0	165687	24.91	-1
0	166381	25.01	-1
0	167066	25.11	-1
0	167751	25.21	-1
0	168436	25.31	-1
0	169121	25.41	-1
0	169806	25.51	-1
0	170491	25.61	-1
0	171176	25.71	-1
0	171861	25.81	-1
0	172546	25.91	-1
0	173240	26.01	-1
0	173925	26.11	-1
0	174610	26.21	-1
0	175295	26.31	-1
0	175980	26.41	-1
0	176665	26.51	-1
0	177350	26.61	-1
0	178035	26.71	-1
0	178720	26.81	-1
0	179405	26.91	-1
0	180099	27.01	-1
0	180784	27.11	-1
0	181469	27.21	-1
0	182154	27.31	-1
0	182839	27.41	-1
0	183524	27.51	-1
0	184209	27.61	-1
0	184894	27.71	-1
0	185579	27.81	-1
0	186264	27.91	-1
0	186958	28.01	-1
0	187643	28.11	-1
0	188328	28.21	-1
0	189013	28.31	-1
0	189698	28.41	-1
0	190383	28.51	-1
0	191068	28.61	-1
0	191753	28.71	-1
0	192438	28.81	-1
0	193123	28.91	-1
0	193817	29.01	-1
0	194502	29.11	-1
0	195187	29.21	-1
0	195872	29.31	-1
0	196557	29.41	-1
0	197242	29.51	-1
0	197927	29.61	-1
0	198612	29.71	-1
0	199297	29.81	-1
0	199982	29.91	-1
0	200676	30.01	-1
0	201361	30.11	-1
0	202046	30.21	-1
0	202731	30.31	-1
0	203416	30.41	-1
0	204101	30.51	-1
0	204786	30.61	-1
0	205471	30.71	-1
0	206156	30.81	-1
0	206841	30.91	-1
0	207535	31.01	-1
0	208220	31.11	-1
0	208905	31.21	-1
0	209590	31.31	-1
0	210275	31.41	-1
0	210960	31.51	-1
0	211645	31.61	-1
0	212330	31.71	-1
0	213015	31.81	-1
0	213700	31.91	-1
0	214394	32.01	-1
0	215079	32.11	-1
0	215764	32.21	-1
0	216449	32.31	-1
0	217134	32.41	-1
0	217819	32.51	-1
0	218504	32.61	-1
0	219189	32.71	-1
0	219874	32.81	-1
0	220559	32.91	-1
0	221253	33.01	-1
0	221938	33.11	-1
0	222623	33.21	-1
0	223308	33.31	-1
0	223993	33.41	-1
0	224678	33.51	-1
0	225363	33.61	-1
0	226048	33.71	-1
0	226733	33.81	-1
0	227418	33.91	-1
0	228112	34.01	-1
0	228797	34.11	-1
0	229482	34.21	-1
0	230167	34.31	-1
0	230852	34.41	-1
0	231537	34.51	-1
0	232222	34.61	-1
0	232907	34.71	-1
0	233592	34.81	-1
0	234277	34.91	-1
0	234971	35.01	-1
0	235656	35.11	-1
0	236341	35.21	-1
0	237026	35.31	-1
0	237711	35.41	-1
0	238396	35.51	-1
0	239081	35.61	-1
0	239766	35.71	-1
0	240451	35.81	-1
0	241136	35.91	-1
0	241830	36.01	-1
0	242515	36.11	-1
0	243200	36.21	-1
0	243885	36.31	-1
0	244570	36.41	-1
0	245255	36.51	-1
0	245940	36.61	-1
0	246625	36.71	-1
0	247310	36.81	-1
0	247995	36.91	-1
0	248689	37.01	-1
0	249374	37.11	-1
0	250059	37.21	-1
0	250744	37.31	-1
0	251429	37.41	-1
0	252114	37.51	-1
0	252799	37.61	-1
0	253484	37.71	-1
0	254169	37.81	-1
0	254854	37.91	-1
0	255548	38.01	-1
0	256233	38.11	-1
0	256918	38.21	-1
0	257603	38.31	-1
0	258288	38.41	-1
0	258973	38.51	-1
0	259658	38.61	-1
0	260343	38.71	-1
0	261028	38.81	-1
0	261713	38.91	-1
0	262407	39.01	-1
0	263092	39.11	-1
0	263777	39.21	-1
0	264462	39.31	-1
0	265147	39.41	-1
0	265832	39.51	-1
0	266517	39.61	-1
0	267202	39.71	-1
0	267887	39.81	-1
0	268572	39.91	-1
0	269266	40.01	-1
0	269951	40.11	-1
0	270636	40.21	-1
0	271321	40.31	-1
0	272006	40.41	-1
0	272691	40.51	-1
0	273376	40.61	-1
0	274061	40.71	-1
0	274746	40.81	-1
0	275431	40.91	-1
0	276125	41.01	-1
0	276810	41.11	-1
0	277495	41.21	-1
0	278180	41.31	-1
0	278865	41.41	-1
0	279550	41.51	-1
0	280235	41.61	-1
0	280920	41.71	-1
0	281605	41.81	-1
0	282290	41.91	-1
0	282984	42.01	-1
0	283669	42.11	-1
0	284354	42.21	-1
0	285039	42.31	-1
0	285724	42.41	-1
0	286409	42.51	-1
0	287094	42.61	-1
0	287779	42.71	-1
0	288464	42.81	-1
0	289149	42.91	-1
0	289843	43.01	-1
0	290528	43.11	-1
0	291213	43.21	-1
0	291898	43.31	-1
0	292583	43.41	-1
0	293268	43.51	-1
0	293953	43.61	-1
0	294638	43.71	-1
0	295323	43.81	-1
0	296008	43.91	-1
0	296702	44.01	-1
0	297387	44.11	-1
0	298072	44.21	-1
0	298757	44.31	-1
0	299442	44.41	-1
0	300127	44.51	-1
0	300812	44.61	-1
0	301497	44.71	-1
0	302182	44.81	-1
0	302867	44.91	-1
0	303561	45.01	-1
0	304246	45.11	-1
0	304931	45.21	-1
0	305616	45.31	-1
0	306301	45.41	-1
0	306986	45.51	-1
0	307671	45.61	-1
0	308356	45.71	-1
0	309041	45.81	-1
0	309726	45.91	-1
0	310420	46.01	-1
0	311105	46.11	-1
0	311790	46.21	-1
0	312475	46.31	-1
0	313160	46.41	-1
0	313845	46.51	-1
0	314530	46.61	-1
0	315215	46.71	-1
0	315900	46.81	-1
0	316585	46.91	-1
0	317279	47.01	-1
0	317964	47.11	-1
0	318649	47.21	-1
0	319334	47.31	-1
0	320019	47.41	-1
0	320704	47.51	-1
0	321389	47.61	-1
0	322074	47.71	-1
0	322759	47.81	-1
0	323444	47.91	-1
0	324138	48.01	-1
0	324823	48.11	-1
0	325508	48.21	-1
0	326193	48.31	-1
0	326878	48.41	-1
0	327563	48.51	-1
0	328248	48.61	-1
0	328933	48.71	-1
0	329618	48.81	-1
0	330303	48.91	-1
0	330997	49.01	-1
0	331682	49.11	-1
0	332367	49.21	-1
0	333052	49.31	-1
0	333737	49.41	-1
0	334422	49.51	-1
0	335107	49.61	-1
0	335792	49.71	-1
0	336477	49.81	-1
0	337162	49.91	-1
0	337856	50.01	-1
0	338541	50.11	-1
0	339226	50.21	-1
0	339911	50.31	-1
0	340596	50.41	-1
0	341281	50.51	-1
0	341966	50.61	-1
0	342651	50.71	-1
0	343336	50.81	-1
0	344021	50.91	-1
0	344715	51.01	-1
0	345400	51.11	-1
0	346085	51.21	-1
0	346770	51.31	-1
0	347455	51.41	-1
0	348140	51.51	-1
0	348825	51.61	-1
0	349510	51.71	-1
0	350195	51.81	-1
0	350880	51.91	-1
0	351574	52.01	-1
0	352259	52.11	-1
0	352944	52.21	-1
0	353629	52.31	-1
0	354314	52.41	-1
0	354999	52.51	-1
0	355684	52.61	-1
0	356369	52.71	-1
0	357054	52.81	-1
0	357739	52.91	-1
0	358433	53.01	-1
0	359118	53.11	-1
0	359803	53.21	-1
0	360488	53.31	-1
0	361173	53.41	-1
0	361858	53.51	-1
0	362543	53.61	-1
0	363228	53.71	-1
0	363913	53.81	-1
0	364598	53.91	-1
0	365292	54.01	-1
0	365977	54.11	-1
0	366662	54.21	-1
0	367347	54.31	-1
0	368032	54.41	-1
0	368717	54.51	-1
0	369402	54.61	-1
0	370087	54.71	-1
0	370772	54.81	-1
0	371457	54.91	-1
0	372151	55.01	-1
0	372836	55.11	-1
0	373521	55.21	-1
0	374206	55.31	-1
0	374891	55.41	-1
0	375576	55.51	-1
0	376261	55.61	-1
0	376946	55.71	-1
0	377631	55.81	-1
0	378316	55.91	-1
0	379010	56.01	-1
0	379695	56.11	-1
0	380380	56.21	-1
0	381065	56.31	-1
0	381750	56.41	-1
0	382435	56.51	-1
0	383120	56.61	-1
0	383805	56.71	-1
0	384490	56.81	-1
0	385175	56.91	-1
0	385869	57.01	-1
0	386554	57.11	-1
0	387239	57.21	-1
0	387924	57.31	-1
0	388609	57.41	-1
0	389294	57.51	-1
0	389979	57.61	-1
0	390664	57.71	-1
0	391349	57.81	-1
0	392034	57.91	-1
0	392728	58.01	-1
0	393413	58.11	-1
0	394098	58.21	-1
0	394783	58.31	-1
0	395468	58.41	-1
0	396153	58.51	-1
0	396838	58.61	-1
0	397523	58.71	-1
0	398208	58.81	-1
0	398893	58.91	-1
0	399587	59.01	-1
0	400272	59.11	-1
0	400957	59.21	-1
0	401642	59.31	-1
0	402327	59.41	-1
0	403012	59.51	-1
0	403697	59.61	-1
0	404382	59.71	-1
0	405067	59.81	-1
0	405752	59.91	-1
0	406446	60.01	-1
0	407131	60.11	-1
0	407816	60.21	-1
0	408501	60.31	-1
0	409186	60.41	-1
0	409871	60.51	-1
0	410556	60.61	-1
0	411241	60.71	-1
0	411926	60.81	-1
0	412611	60.91	-1
0	413305	61.01	-1
0	413990	61.11	-1
0	414675	61.21	-1
0	415360	61.31	-1
0	416045	61.41	-1
0	416730	61.51	-1
0	417415	61.61	-1
0	418100	61.71	-1
0	418785	61.81	-1
0	419470	61.91	-1
0	420164	62.01	-1
0	420849	62.11	-1
0	421534	62.21	-1
0	422219	62.31	-1
0	422904	62.41	-1
0	423589	62.51	-1
0	424274	62.61	-1
0	424959	62.71	-1
0	425644	62.81	-1
0	426329	62.91	-1
0	427023	63.01	-1
0	427708	63.11	-1
0	428393	63.21	-1
0	429078	63.31	-1
0	429763	63.41	-1
0	430448	63.51	-1
0	431133	63.61	-1
0	431818	63.71	-1
0	432503	63.81	-1
0	433188	63.91	-1
0	433882	64.01	-1
0	434567	64.11	-1
0	435252	64.21	-1
0	435937	64.31	-1
0	436622	64.41	-1
0	437307	64.51	-1
0	437992	64.61	-1
0	438677	64.71	-1
0	439362	64.81	-1
0	440047	64.91	-1
0	440741	65.01	-1
0	441426	65.11	-1
0	442111	65.21	-1
0	442796	65.31	-1
0	443481	65.41	-1
0	444166	65.51	-1
0	444851	65.61	-1
0	445536	65.71	-1
0	446221	65.81	-1
0	446906	65.91	-1
0	447600	66.01	-1
0	448285	66.11	-1
0	448970	66.21	-1
0	449655	66.31	-1
0	450340	66.41	-1
0	451025	66.51	-1
0	451710	66.61	-1
0	452395	66.71	-1
0	453080	66.81	-1
0	453765	66.91	-1
0	454459	67.01	-1
0	455144	67.11	-1
0	455829	67.21	-1
0	456514	67.31	-1
0	457199	67.41	-1
0	457884	67.51	-1
0	458569	67.61	-1
0	459254	67.71	-1
0	459939	67.81	-1
0	460624	67.91	-1
0	461318	68.01	-1
0	462003	68.11	-1
0	462688	68.21	-1
0	463373	68.31	-1
0	464058	68.41	-1
0	464743	68.51	-1
0	465428	68.61	-1
0	466113	68.71	-1
0	466798	68.81	-1
0	467483	68.91	-1
0	468177	69.01	-1
0	468862	69.11	-1
0	469547	69.21	-1
0	470232	69.31	-1
0	470917	69.41	-1
0	471602	69.51	-1
0	472287	69.61	-1
0	472972	69.71	-1
0	473657	69.81	-1
0	474342	69.91	-1
0	475036	70.01	-1
0	475721	70.11	-1
0	476406	70.21	-1
0	477091	70.31	-1
0	477776	70.41	-1
0	478461	70.51	-1
0	479146	70.61	-1
0	479831	70.71	-1
0	480516	70.81	-1
0	481201	70.91	-1
0	481895	71.01	-1
0	482580	71.11	-1
0	483265	71.21	-1
0	483950	71.31	-1
0	484635	71.41	-1
0	485320	71.51	-1
0	486005	71.61	-1
0	486690	71.71	-1
0	487375	71.81	-1
0	488060	71.91	-1
0	488754	72.01	-1
0	489439	72.11	-1
0	490124	72.21	-1
0	490809	72.31	-1
0	491494	72.41	-1
0	492179	72.51	-1
0	492864	72.61	-1
0	493549	72.71	-1
0	494234	72.81	-1
0	494919	72.91	-1
0	495613	73.01	-1
0	496298	73.11	-1
0	496983	73.21	-1
0	497668	73.31	-1
0	498353	73.41	-1
0	499038	73.51	-1
0	499723	73.61	-1
0	500408	73.71	-1
0	501093	73.81	-1
0	501778	73.91	-1
0	502472	74.01	-1
0	503157	74.11	-1
0	503842	74.21	-1
0	504527	74.31	-1
0	505212	74.41	-1
0	505897	74.51	-1
0	506582	74.61	-1
0	507267	74.71	-1
0	507952	74.81	-1
0	508637	74.91	-1
0	509331	75.01	-1
0	510016	75.11	-1
0	510701	75.21	-1
0	511386	75.31	-1
0	512071	75.41	-1
0	512756	75.51	-1
0	513441	75.61	-1
0	514126	75.71	-1
0	514811	75.81	-1
0	515496	75.91	-1
0	516190	76.01	-1
0	516875	76.11	-1
0	517560	76.21	-1
0	518245	76.31	-1
0	518930	76.41	-1
0	519615	76.51	-1
0	520300	76.61	-1
0	520985	76.71	-1
0	521670	76.81	-1
0	522355	76.91	-1
0	523049	77.01	-1
0	523734	77.11	-1
0	524419	77.21	-1
0	525104	77.31	-1
0	525789	77.41	-1
0	526474	77.51	-1
0	527159	77.61	-1
0	527844	77.71	-1
0	528529	77.81	-1
0	529214	77.91	-1
0	529908	78.01	-1
0	530593	78.11	-1
0	531278	78.21	-1
0	531963	78.31	-1
0	532648	78.41	-1
0	533333	78.51	-1
0	534018	78.61	-1
0	534703	78.71	-1
0	535388	78.81	-1
0	536073	78.91	-1
0	536767	79.01	-1
0	537452	79.11	-1
0	538137	79.21	-1
0	538822	79.31	-1
0	539507	79.41	-1
0	540192	79.51	-1
0	540877	79.61	-1
0	541562	79.71	-1
0	542247	79.81	-1
0	542932	79.91	-1
0	543626	80.01	-1
0	544311	80.11	-1
0	544996	80.21	-1
0	545681	80.31	-1
0	546366	80.41	-1
0	547051	80.51	-1
0	547736	80.61	-1
0	548421	80.71	-1
0	549106	80.81	-1
0	549791	80.91	-1
0	550485	81.01	-1
0	551170	81.11	-1
0	551855	81.21	-1
0	552540	81.31	-1
0	553225	81.41	-1
0	553910	81.51	-1
0	554595	81.61	-1
0	555280	81.71	-1
0	555965	81.81	-1
0	556650	81.91	-1
0	557344	82.01	-1
0	558029	82.11	-1
0	558714	82.21	-1
0	559399	82.31	-1
0	560084	82.41	-1
0	560769	82.51	-1
0	561454	82.61	-1
0	562139	82.71	-1
0	562824	82.81	-1
0	563509	82.91	-1
0	564203	83.01	-1
0	564888	83.11	-1
0	565573	83.21	25.6113
0	566258	83.31	25.7557
0	566943	83.41	25.9002
0	567628	83.51	26.0446
0	568313	83.61	26.189
0	568998	83.71	26.3335
0	569683	83.81	26.4779
0	570368	83.91	26.6224
0	571062	84.01	26.7668
0	571747	84.11	26.9112
0	572432	84.21	27.0557
0	573117	84.31	27.2001
0	573802	84.41	27.3446
0	574487	84.51	27.489
0	575172	84.61	27.6334
0	575857	84.71	27.7779
0	576542	84.81	27.9223
0	577227	84.91	28.0668
0	577921	85.01	28.2112
0	578606	85.11	28.3556
0	579291	85.21	28.5001
0	579976	85.31	28.6445
0	580661	85.41	28.789
0	581346	85.51	28.9334
0	582031	85.61	29.0778
0	582716	85.71	29.2223
0	583401	85.81	29.3667
0	584086	85.91	29.5112
0	584780	86.01	29.6556
0	585465	86.11	29.8
0	586150	86.21	29.9445
0	586835	86.31	30.0889
0	587520	86.41	30.2334
0	588205	86.51	30.3778
0	588890	86.61	30.5222
0	589575	86.71	30.6667
0	590260	86.81	30.8111
0	590945	86.91	30.9556
0	591639	87.01	31.1
0	592324	87.11	31.2444
0	593009	87.21	31.3889
0	593694	87.31	31.5333
0	594379	87.41	31.6778
0	595064	87.51	31.8222
0	595749	87.61	31.9666
0	596434	87.71	32.1111
0	597119	87.81	32.2555
0	597804	87.91	32.4
0	598498	88.01	32.5444
0	599183	88.11	32.6888
0	599868	88.21	32.8333
0	600553	88.31	32.9777
0	601238	88.41	33.1222
0	601923	88.51	33.2666
0	602608	88.61	33.411
0	603293	88.71	33.5555
0	603978	88.81	33.6999
0	604663	88.91	33.8444
0	605357	89.01	33.9888
0	606042	89.11	34.1332
0	606727	89.21	34.2777
0	607412	89.31	34.4221
0	608097	89.41	34.5666
0	608782	89.51	34.711
0	609467	89.61	34.8554
0	610152	89.71	34.9999
0	610837	89.81	35.1443
0	611522	89.91	35.2888
0	612216	90.01	35.4332
0	612901	90.11	35.5776
0	613586	90.21	35.7221
0	614271	90.31	35.8665
0	614956	90.41	36.011
0	615641	90.51	36.1554
0	616326	90.61	36.2998
0	617011	90.71	36.4443
0	617696	90.81	36.5887
0	618381	90.91	36.7332
0	619075	91.01	36.8776
0	619760	91.11	37.022
0	620445	91.21	37.1665
0	621130	91.31	37.3109
0	621815	91.41	37.4554
0	622500	91.51	37.5998
0	623185	91.61	37.7442
0	623870	91.71	37.8887
0	624555	91.81	38.0331
0	625240	91.91	38.1776
0	625934	92.01	38.322
0	626619	92.11	38.4664
0	627304	92.21	38.6109
0	627989	92.31	38.7553
0	628674	92.41	38.8998
0	629359	92.51	39.0442
0	630044	92.61	39.1886
0	630729	92.71	39.3331
0	631414	92.81	39.4775
0	632099	92.91	39.622
0	632793	93.01	39.7664
0	633478	93.11	39.9108
0	634163	93.21	40.0553
0	634848	93.31	40.1997
0	635533	93.41	40.3442
0	636218	93.51	40.4886
0	636903	93.61	40.633
0	637588	93.71	40.7775
0	638273	93.81	40.9219
0	638958	93.91	41.0664
0	639652	94.01	41.2108
0	640337	94.11	41.3552
0	641022	94.21	41.4997
0	641707	94.31	41.6441
0	642392	94.41	41.7886
0	643077	94.51	41.933
0	643762	94.61	42.0774
0	644447	94.71	42.2219
0	645132	94.81	42.3663
0	645817	94.91	42.5108
0	646511	95.01	42.6552
0	647196	95.11	42.7996
0	647881	95.21	42.9441
0	648566	95.31	43.0885
0	649251	95.41	43.233
0	649936	95.51	43.3774
0	650621	95.61	43.5218
0	651306	95.71	43.6663
0	651991	95.81	43.8107
0	652676	95.91	43.9552
0	653370	96.01	44.0996
0	654055	96.11	44.244
0	654740	96.21	44.3885
0	655425	96.31	44.5329
0	656110	96.41	44.6774
0	656795	96.51	44.8218
0	657480	96.61	44.9662
0	658165	96.71	45.1107
0	658850	96.81	45.2551
0	659535	96.91	45.3996
0	660229	97.01	45.544
0	660914	97.11	45.6884
0	661599	97.21	45.8329
0	662284	97.31	45.9773
0	662969	97.41	46.1218
0	663654	97.51	46.2662
0	664339	97.61	46.4106
0	665024	97.71	46.5551
0	665709	97.81	46.6995
0	666394	97.91	46.844
0	667088	98.01	46.9884
0	667773	98.11	47.1328
0	668458	98.21	47.2773
0	669143	98.31	47.4217
0	669828	98.41	47.5662
0	670513	98.51	47.7106
0	671198	98.61	47.855
0	671883	98.71	47.9995
0	672568	98.81	48.1439
0	673253	98.91	48.2884
0	673947	99.01	48.4328
0	674632	99.11	48.5772
0	675317	99.21	48.7217
0	676002	99.31	48.8661
0	676687	99.41	49.0106
0	677372	99.51	49.155
0	678057	99.61	49.2994
0	678742	99.71	49.4439
0	679427	99.81	49.5883
0	680112	99.91	49.7328
1	113	1.11	0
1	798	1.21	0
1	1483	1.31	0
1	2168	1.41	0
1	2853	1.51	0
1	3538	1.61	0
1	4223	1.71	0
1	4908	1.81	0
1	5593	1.91	0
1	6287	2.01	0
1	6972	2.11	0
1	7657	2.21	0
1	8342	2.31	0
1	9027	2.41	0
1	9712	2.51	0
1	10397	2.61	0
1	11082	2.71	0
1	11767	2.81	0
1	12452	2.91	0
1	13146	3.01	0
1	13831	3.11	0
1	14516	3.21	0
1	15201	3.31	0
1	15886	3.41	0
1	16571	3.51	0
1	17256	3.61	0
1	17941	3.71	0
1	18626	3.81	0
1	19311	3.91	0
1	20005	4.01	0
1	20690	4.11	0
1	21375	4.21	0
1	22060	4.31	0
1	22745	4.41	0
1	23430	4.51	0
1	24115	4.61	0
1	24800	4.71	0
1	25485	4.81	0
1	26170	4.91	0
1	26864	5.01	0
1	27549	5.11	0
1	28234	5.21	0
1	28919	5.31	0
1	29604	5.41	0
1	30289	5.51	0
1	30974	5.61	0
1	31659	5.71	0
1	32344	5.81	0
1	33029	5.91	0
1	33723	6.01	0
1	34408	6.11	0
1	35093	6.21	0
1	35778	6.31	0
1	36463	6.41	0
1	37148	6.51	0
1	37833	6.61	0
1	38518	6.71	0
1	39203	6.81	0
1	39888	6.91	0
1	40582	7.01	0
1	41267	7.11	0
1	41952	7.21	0
1	42637	7.31	0
1	43322	7.41	0
1	44007	7.51	0
1	44692	7.61	0
1	45377	7.71	0
1	46062	7.81	0
1	46747	7.91	0
1	47441	8.01	0
1	48126	8.11	0
1	48811	8.21	0
1	49496	8.31	0
1	50181	8.41	0
1	50866	8.51	0
1	51551	8.61	0
1	52236	8.71	0
1	52921	8.81	0
1	53606	8.91	0
1	54300	9.01	0
1	54985	9.11	0
1	55670	9.21	0
1	56355	9.31	0
1	57040	9.41	0
1	57725	9.51	0
1	58410	9.61	0
1	59095	9.71	0
1	59780	9.81	0
1	60465	9.91	0
1	63496	10.01	0
1	64181	10.11	0
1	64866	10.21	0
1	65551	10.31	0
1	66236	10.41	0
1	66921	10.51	0
1	67606	10.61	0
1	68291	10.71	0
1	68976	10.81	0
1	69661	10.91	0
1	70355	11.01	0
1	71040	11.11	0
1	71725	11.21	0
1	72410	11.31	0
1	73095	11.41	0
1	73780	11.51	0
1	74465	11.61	0
1	75150	11.71	0
1	75835	11.81	0
1	76520	11.91	0
1	77214	12.01	0
1	77899	12.11	0
1	78584	12.21	0
1	79269	12.31	0
1	79954	12.41	0
1	80639	12.51	0
1	81324	12.61	0
1	82009	12.71	0
1	82694	12.81	0
1	83379	12.91	0
1	84073	13.01	0
1	84758	13.11	0
1	85443	13.21	0
1	86128	13.31	0
1	86813	13.41	0
1	87498	13.51	0
1	88183	13.61	0
1	88868	13.71	0
1	89553	13.81	0
1	90238	13.91	0
1	90932	14.01	0
1	91617	14.11	0
1	92302	14.21	0
1	92987	14.31	0
1	93672	14.41	0
1	94357	14.51	0
1	95042	14.61	0
1	95727	14.71	0
1	96412	14.81	0
1	97097	14.91	0
1	97791	15.01	0
1	98476	15.11	0
1	99161	15.21	0
1	99846	15.31	0
1	100531	15.41	0
1	101216	15.51	0
1	101901	15.61	0
1	102586	15.71	0
1	103271	15.81	0
1	103956	15.91	0
1	104650	16.01	0
1	105335	16.11	0
1	106020	16.21	0
1	106705	16.31	0
1	107390	16.41	0
1	108075	16.51	0
1	108760	16.61	0
1	109445	16.71	0
1	110130	16.81	0
1	110815	16.91	0
1	111509	17.01	0
1	112194	17.11	0
1	112879	17.21	0
1	113564	17.31	0
1	114249	17.41	0
1	114934	17.51	0
1	115619	17.61	0
1	116304	17.71	0
1	116989	17.81	0
1	117674	17.91	0
1	118368	18.01	0
1	119053	18.11	0
1	119738	18.21	0
1	120423	18.31	0
1	121108	18.41	0
1	121793	18.51	0
1	122478	18.61	0
1	123163	18.71	0
1	123848	18.81	0
1	124533	18.91	0
1	125227	19.01	0
1	125912	19.11	0
1	126597	19.21	0
1	127282	19.31	0
1	127967	19.41	0
1	128652	19.51	0
1	129337	19.61	0
1	130022	19.71	0
1	130707	19.81	0
1	131392	19.91	0
1	132086	20.01	0
1	132771	20.11	0
1	133456	20.21	0
1	134141	20.31	0
1	134826	20.41	0
1	135511	20.51	0
1	136196	20.61	0
1	136881	20.71	0
1	137566	20.81	0
1	138251	20.91	0
1	138945	21.01	0
1	139630	21.11	0
1	140315	21.21	0
1	141000	21.31	0
1	141685	21.41	0
1	142370	21.51	0
1	143055	21.61	0
1	143740	21.71	0
1	144425	21.81	0
1	145110	21.91	0
1	145804	22.01	0
1	146489	22.11	0
1	147174	22.21	0
1	147859	22.31	0
1	148544	22.41	0
1	149229	22.51	0
1	149914	22.61	0
1	150599	22.71	0
1	151284	22.81	0
1	151969	22.91	0
1	152663	23.01	0
1	153348	23.11	0
1	154033	23.21	0
1	154718	23.31	0
1	155403	23.41	0
1	156088	23.51	0
1	156773	23.61	0
1	157458	23.71	0
1	158143	23.81	0
1	158828	23.91	0
1	159522	24.01	0
1	160207	24.11	0
1	160892	24.21	0
1	161577	24.31	0
1	162262	24.41	0
1	162947	24.51	0
1	163632	24.61	0
1	164317	24.71	0
1	165002	24.81	0
1	165687	24.91	0
1	166381	25.01	0
1	167066	25.11	0
1	167751	25.21	0
1	168436	25.31	0
1	169121	25.41	0
1	169806	25.51	0
1	170491	25.61	0
1	171176	25.71	0
1	171861	25.81	0
1	172546	25.91	0
1	173240	26.01	0
1	173925	26.11	0
1	174610	26.21	0
1	175295	26.31	0
1	175980	26.41	0
1	176665	26.51	0
1	177350	26.61	0
1	178035	26.71	0
1	178720	26.81	0
1	179405	26.91	0
1	180099	27.01	0
1	180784	27.11	0
1	181469	27.21	0
1	182154	27.31	0
1	182839	27.41	0
1	183524	27.51	0
1	184209	27.61	0
1	184894	27.71	0
1	185579	27.81	0
1	186264	27.91	0
1	186958	28.01	0
1	187643	28.11	0
1	188328	28.21	0
1	189013	28.31	0
1	189698	28.41	0
1	190383	28.51	0
1	191068	28.61	0
1	191753	28.71	0
1	192438	28.81	0
1	193123	28.91	0
1	193817	29.01	0
1	194502	29.11	0
1	195187	29.21	0
1	195872	29.31	0
1	196557	29.41	0
1	197242	29.51	0
1	197927	29.61	0
1	198612	29.71	0
1	199297	29.81	0
1	199982	29.91	0
1	200676	30.01	0
1	201361	30.11	0
1	202046	30.21	0
1	202731	30.31	0
1	203416	30.41	0
1	204101	30.51	0
1	204786	30.61	0
1	205471	30.71	0
1	206156	30.81	0
1	206841	30.91	0
1	207535	31.01	0
1	208220	31.11	0
1	208905	31.21	0
1	209590	31.31	0
1	210275	31.41	0
1	210960	31.51	0
1	211645	31.61	0
1	212330	31.71	0
1	213015	31.81	0
1	213700	31.91	0
1	214394	32.01	0
1	215079	32.11	0
1	215764	32.21	0
1	216449	32.31	0
1	217134	32.41	0
1	217819	32.51	0
1	218504	32.61	0
1	219189	32.71	0
1	219874	32.81	0
1	220559	32.91	0
1	221253	33.01	0
1	221938	33.11	0
1	222623	33.21	0
1	223308	33.31	0
1	223993	33.41	0
1	224678	33.51	0
1	225363	33.61	0
1	226048	33.71	0
1	226733	33.81	0
1	227418	33.91	0
1	228112	34.01	0
1	228797	34.11	0
1	229482	34.21	0
1	230167	34.31	0
1	230852	34.41	0
1	231537	34.51	0
1	232222	34.61	0
1	232907	34.71	0
1	233592	34.81	0
1	234277	34.91	0
1	234971	35.01	0
1	235656	35.11	0
1	236341	35.21	0
1	237026	35.31	0
1	237711	35.41	0
1	238396	35.51	0
1	239081	35.61	0
1	239766	35.71	0
1	240451	35.81	0
1	241136	35.91	0
1	241830	36.01	0
1	242515	36.11	0
1	243200	36.21	0
1	243885	36.31	0
1	244570	36.41	0
1	245255	36.51	0
1	245940	36.61	0
1	246625	36.71	0
1	247310	36.81	0
1	247995	36.91	0
1	248689	37.01	0
1	249374	37.11	0
1	250059	37.21	0
1	250744	37.31	0
1	251429	37.41	0
1	252114	37.51	0
1	252799	37.61	0
1	253484	37.71	0
1	254169	37.81	0
1	254854	37.91	0
1	255548	38.01	0
1	256233	38.11	0
1	256918	38.21	0
1	257603	38.31	0
1	258288	38.41	0
1	258973	38.51	0
1	259658	38.61	0
1	260343	38.71	0
1	261028	38.81	0
1	261713	38.91	0
1	262407	39.01	0
1	263092	39.11	0
1	263777	39.21	0
1	264462	39.31	0
1	265147	39.41	0
1	265832	39.51	0
1	266517	39.61	0
1	267202	39.71	0
1	267887	39.81	0
1	268572	39.91	0
1	269266	40.01	0
1	269951	40.11	0
1	270636	40.21	0
1	271321	40.31	0
1	272006	40.41	0
1	272691	40.51	0
1	273376	40.61	0
1	274061	40.71	0
1	274746	40.81	0
1	275431	40.91	0
1	276125	41.01	0
1	276810	41.11	0
1	277495	41.21	0
1	278180	41.31	0
1	278865	41.41	0
1	279550	41.51	0
1	280235	41.61	0
1	280920	41.71	0
1	281605	41.81	0
1	282290	41.91	0
1	282984	42.01	0
1	283669	42.11	0
1	284354	42.21	0
1	285039	42.31	0
1	285724	42.41	0
1	286409	42.51	0
1	287094	42.61	0
1	287779	42.71	0
1	288464	42.81	0
1	289149	42.91	0
1	289843	43.01	0
1	290528	43.11	0
1	291213	43.21	0
1	291898	43.31	0
1	292583	43.41	0
1	293268	43.51	0
1	293953	43.61	0
1	294638	43.71	0
1	295323	43.81	0
1	296008	43.91	0
1	296702	44.01	0
1	297387	44.11	0
1	298072	44.21	0
1	298757	44.31	0
1	299442	44.41	0
1	300127	44.51	0
1	300812	44.61	0
1	301497	44.71	0
1	302182	44.81	0
1	302867	44.91	0
1	303561	45.01	0
1	304246	45.11	0
1	304931	45.21	0
1	305616	45.31	0
1	306301	45.41	0
1	306986	45.51	0
1	307671	45.61	0
1	308356	45.71	0
1	309041	45.81	0
1	309726	45.91	0
1	310420	46.01	0
1	311105	46.11	0
1	311790	46.21	0
1	312475	46.31	0
1	313160	46.41	0
1	313845	46.51	0
1	314530	46.61	0
1	315215	46.71	0
1	315900	46.81	0
1	316585	46.91	0
1	317279	47.01	0
1	317964	47.11	0
1	318649	47.21	0
1	319334	47.31	0
1	320019	47.41	0
1	320704	47.51	0
1	321389	47.61	0
1	322074	47.71	0
1	322759	47.81	0
1	323444	47.91	0
1	324138	48.01	0
1	324823	48.11	0
1	325508	48.21	0
1	326193	48.31	0
1	326878	48.41	0
1	327563	48.51	0
1	328248	48.61	0
1	328933	48.71	0
1	329618	48.81	0
1	330303	48.91	0
1	330997	49.01	0
1	331682	49.11	0
1	332367	49.21	0
1	333052	49.31	0
1	333737	49.41	0
1	334422	49.51	0
1	335107	49.61	0
1	335792	49.71	0
1	336477	49.81	0
1	337162	49.91	0
1	337856	50.01	0
1	338541	50.11	0
1	339226	50.21	0
1	339911	50.31	0
1	340596	50.41	0
1	341281	50.51	0
1	341966	50.61	0
1	342651	50.71	0
1	343336	50.81	0
1	344021	50.91	0
1	344715	51.01	0
1	345400	51.11	0
1	346085	51.21	0
1	346770	51.31	0
1	347455	51.41	0
1	348140	51.51	0
1	348825	51.61	0
1	349510	51.71	0
1	350195	51.81	0
1	350880	51.91	0
1	351574	52.01	0
1	352259	52.11	0
1	352944	52.21	0
1	353629	52.31	0
1	354314	52.41	0
1	354999	52.51	0
1	355684	52.61	0
1	356369	52.71	0
1	357054	52.81	0
1	357739	52.91	0
1	358433	53.01	0
1	359118	53.11	0
1	359803	53.21	0
1	360488	53.31	0
1	361173	53.41	0
1	361858	53.51	0
1	362543	53.61	0
1	363228	53.71	0
1	363913	53.81	0
1	364598	53.91	0
1	365292	54.01	0
1	365977	54.11	0
1	366662	54.21	0
1	367347	54.31	0
1	368032	54.41	0
1	368717	54.51	0
1	369402	54.61	0
1	370087	54.71	0
1	370772	54.81	0
1	371457	54.91	0
1	372151	55.01	0
1	372836	55.11	0
1	373521	55.21	0
1	374206	55.31	0
1	374891	55.41	0
1	375576	55.51	0
1	376261	55.61	0
1	376946	55.71	0
1	377631	55.81	0
1	378316	55.91	0
1	379010	56.01	0
1	379695	56.11	0
1	380380	56.21	0
1	381065	56.31	0
1	381750	56.41	0
1	382435	56.51	0
1	383120	56.61	0
1	383805	56.71	0
1	384490	56.81	0
1	385175	56.91	0
1	385869	57.01	0
1	386554	57.11	0
1	387239	57.21	0
1	387924	57.31	0
1	388609	57.41	0
1	389294	57.51	0
1	389979	57.61	0
1	390664	57.71	0
1	391349	57.81	0
1	392034	57.91	0
1	392728	58.01	0
1	393413	58.11	0
1	394098	58.21	0
1	394783	58.31	0
1	395468	58.41	0
1	396153	58.51	0
1	396838	58.61	0
1	397523	58.71	0
1	398208	58.81	0
1	398893	58.91	0
1	399587	59.01	0
1	400272	59.11	0
1	400957	59.21	0
1	401642	59.31	0
1	402327	59.41	0
1	403012	59.51	0
1	403697	59.61	0
1	404382	59.71	0
1	405067	59.81	0
1	405752	59.91	0
1	406446	60.01	0
1	407131	60.11	0
1	407816	60.21	0
1	408501	60.31	0
1	409186	60.41	0
1	409871	60.51	0
1	410556	60.61	0
1	411241	60.71	0
1	411926	60.81	0
1	412611	60.91	0
1	413305	61.01	0
1	413990	61.11	0
1	414675	61.21	0
1	415360	61.31	0
1	416045	61.41	0
1	416730	61.51	0
1	417415	61.61	0
1	418100	61.71	0
1	418785	61.81	0
1	419470	61.91	0
1	420164	62.01	0
1	420849	62.11	0
1	421534	62.21	0
1	422219	62.31	0
1	422904	62.41	0
1	423589	62.51	0
1	424274	62.61	0
1	424959	62.71	0
1	425644	62.81	0
1	426329	62.91	0
1	427023	63.01	0
1	427708	63.11	0
1	428393	63.21	0
1	429078	63.31	0
1	429763	63.41	0
1	430448	63.51	0
1	431133	63.61	0
1	431818	63.71	0
1	432503	63.81	0
1	433188	63.91	0
1	433882	64.01	0
1	434567	64.11	0
1	435252	64.21	0
1	435937	64.31	0
1	436622	64.41	0
1	437307	64.51	0
1	437992	64.61	0
1	438677	64.71	0
1	439362	64.81	0
1	440047	64.91	0
1	440741	65.01	0
1	441426	65.11	0
1	442111	65.21	0
1	442796	65.31	0
1	443481	65.41	0
1	444166	65.51	0
1	444851	65.61	0
1	445536	65.71	0
1	446221	65.81	0
1	446906	65.91	0
1	447600	66.01	0
1	448285	66.11	0
1	448970	66.21	0
1	449655	66.31	0
1	450340	66.41	0
1	451025	66.51	0
1	451710	66.61	0
1	452395	66.71	0
1	453080	66.81	0
1	453765	66.91	0
1	454459	67.01	0
1	455144	67.11	0
1	455829	67.21	0
1	456514	67.31	0
1	457199	67.41	0
1	457884	67.51	0
1	458569	67.61	0
1	459254	67.71	0
1	459939	67.81	0
1	460624	67.91	0
1	461318	68.01	0
1	462003	68.11	0
1	462688	68.21	0
1	463373	68.31	0
1	464058	68.41	0
1	464743	68.51	0
1	465428	68.61	0
1	466113	68.71	0
1	466798	68.81	0
1	467483	68.91	0
1	468177	69.01	0
1	468862	69.11	0
1	469547	69.21	0
1	470232	69.31	0
1	470917	69.41	0
1	471602	69.51	0
1	472287	69.61	0
1	472972	69.71	0
1	473657	69.81	0
1	474342	69.91	0
1	475036	70.01	0
1	475721	70.11	0
1	476406	70.21	0
1	477091	70.31	0
1	477776	70.41	0
1	478461	70.51	0
1	479146	70.61	0
1	479831	70.71	0
1	480516	70.81	0
1	481201	70.91	0
1	481895	71.01	0
1	482580	71.11	0
1	483265	71.21	0
1	483950	71.31	0
1	484635	71.41	0
1	485320	71.51	0
1	486005	71.61	0
1	486690	71.71	0
1	487375	71.81	0
1	488060	71.91	0
1	488754	72.01	0
1	489439	72.11	0
1	490124	72.21	0
1	490809	72.31	0
1	491494	72.41	0
1	492179	72.51	0
1	492864	72.61	0
1	493549	72.71	0
1	494234	72.81	0
1	494919	72.91	0
1	495613	73.01	0
1	496298	73.11	0
1	496983	73.21	0
1	497668	73.31	0
1	498353	73.41	0
1	499038	73.51	0
1	499723	73.61	0
1	500408	73.71	0
1	501093	73.81	0
1	501778	73.91	0
1	502472	74.01	0
1	503157	74.11	0
1	503842	74.21	0
1	504527	74.31	0
1	505212	74.41	0
1	505897	74.51	0
1	506582	74.61	0
1	507267	74.71	0
1	507952	74.81	0
1	508637	74.91	0
1	509331	75.01	0
1	510016	75.11	0
1	510701	75.21	0
1	511386	75.31	0
1	512071	75.41	0
1	512756	75.51	0
1	513441	75.61	0
1	514126	75.71	0
1	514811	75.81	0
1	515496	75.91	0
1	516190	76.01	0
1	516875	76.11	0
1	517560	76.21	0
1	518245	76.31	0
1	518930	76.41	0
1	519615	76.51	0
1	520300	76.61	0
1	520985	76.71	0
1	521670	76.81	0
1	522355	76.91	0
1	523049	77.01	0
1	523734	77.11	0
1	524419	77.21	0
1	525104	77.31	0
1	525789	77.41	0
1	526474	77.51	0
1	527159	77.61	0
1	527844	77.71	0
1	528529	77.81	0
1	529214	77.91	0
1	529908	78.01	0
1	530593	78.11	0
1	531278	78.21	0
1	531963	78.31	0
1	532648	78.41	0
1	533333	78.51	0
1	534018	78.61	0
1	534703	78.71	0
1	535388	78.81	0
1	536073	78.91	0
1	536767	79.01	0
1	537452	79.11	0
1	538137	79.21	0
1	538822	79.31	0
1	539507	79.41	0
1	540192	79.51	0
1	540877	79.61	0
1	541562	79.71	0
1	542247	79.81	0
1	542932	79.91	0
1	543626	80.01	0
1	544311	80.11	0
1	544996	80.21	0
1	545681	80.31	0
1	546366	80.41	0
1	547051	80.51	0
1	547736	80.61	0
1	548421	80.71	0
1	549106	80.81	0
1	549791	80.91	0
1	550485	81.01	0
1	551170	81.11	0
1	551855	81.21	0
1	552540	81.31	0
1	553225	81.41	0
1	553910	81.51	0
1	554595	81.61	0
1	555280	81.71	0
1	555965	81.81	0
1	556650	81.91	0
1	557344	82.01	0
1	558029	82.11	0
1	558714	82.21	0
1	559399	82.31	0
1	560084	82.41	0
1	560769	82.51	0
1	561454	82.61	0
1	562139	82.71	0
1	562824	82.81	0
1	563509	82.91	0
1	564203	83.01	0
1	564888	83.11	0
1	565573	83.21	1.4444
1	566258	83.31	1.4444
1	566943	83.41	1.4444
1	567628	83.51	1.4444
1	568313	83.61	1.4444
1	568998	83.71	1.4444
1	569683	83.81	1.4444
1	570368	83.91	1.4444
1	571062	84.01	1.4444
1	571747	84.11	1.4444
1	572432	84.21	1.4444
1	573117	84.31	1.4444
1	573802	84.41	1.4444
1	574487	84.51	1.4444
1	575172	84.61	1.4444
1	575857	84.71	1.4444
1	576542	84.81	1.4444
1	577227	84.91	1.4444
1	577921	85.01	1.4444
1	578606	85.11	1.4444
1	579291	85.21	1.4444
1	579976	85.31	1.4444
1	580661	85.41	1.4444
1	581346	85.51	1.4444
1	582031	85.61	1.4444
1	582716	85.71	1.4444
1	583401	85.81	1.4444
1	584086	85.91	1.4444
1	584780	86.01	1.4444
1	585465	86.11	1.4444
1	586150	86.21	1.4444
1	586835	86.31	1.4444
1	587520	86.41	1.4444
1	588205	86.51	1.4444
1	588890	86.61	1.4444
1	589575	86.71	1.4444
1	590260	86.81	1.4444
1	590945	86.91	1.4444
1	591639	87.01	1.4444
1	592324	87.11	1.4444
1	593009	87.21	1.4444
1	593694	87.31	1.4444
1	594379	87.41	1.4444
1	595064	87.51	1.4444
1	595749	87.61	1.4444
1	596434	87.71	1.4444
1	597119	87.81	1.4444
1	597804	87.91	1.4444
1	598498	88.01	1.4444
1	599183	88.11	1.4444
1	599868	88.21	1.4444
1	600553	88.31	1.4444
1	601238	88.41	1.4444
1	601923	88.51	1.4444
1	602608	88.61	1.4444
1	603293	88.71	1.4444
1	603978	88.81	1.4444
1	604663	88.91	1.4444
1	605357	89.01	1.4444
1	606042	89.11	1.4444
1	606727	89.21	1.4444
1	607412	89.31	1.4444
1	608097	89.41	1.4444
1	608782	89.51	1.4444
1	609467	89.61	1.4444
1	610152	89.71	1.4444
1	610837	89.81	1.4444
1	611522	89.91	1.4444
1	612216	90.01	1.4444
1	612901	90.11	1.4444
1	613586	90.21	1.4444
1	614271	90.31	1.4444
1	614956	90.41	1.4444
1	615641	90.51	1.4444
1	616326	90.61	1.4444
1	617011	90.71	1.4444
1	617696	90.81	1.4444
1	618381	90.91	1.4444
1	619075	91.01	1.4444
1	619760	91.11	1.4444
1	620445	91.21	1.4444
1	621130	91.31	1.4444
1	621815	91.41	1.4444
1	622500	91.51	1.4444
1	623185	91.61	1.4444
1	623870	91.71	1.4444
1	624555	91.81	1.4444
1	625240	91.91	1.4444
1	625934	92.01	1.4444
1	626619	92.11	1.4444
1	627304	92.21	1.4444
1	627989	92.31	1.4444
1	628674	92.41	1.4444
1	629359	92.51	1.4444
1	630044	92.61	1.4444
1	630729	92.71	1.4444
1	631414	92.81	1.4444
1	632099	92.91	1.4444
1	632793	93.01	1.4444
1	633478	93.11	1.4444
1	634163	93.21	1.4444
1	634848	93.31	1.4444
1	635533	93.41	1.4444
1	636218	93.51	1.4444
1	636903	93.61	1.4444
1	637588	93.71	1.4444
1	638273	93.81	1.4444
1	638958	93.91	1.4444
1	639652	94.01	1.4444
1	640337	94.11	1.4444
1	641022	94.21	1.4444
1	641707	94.31	1.4444
1	642392	94.41	1.4444
1	643077	94.51	1.4444
1	643762	94.61	1.4444
1	644447	94.71	1.4444
1	645132	94.81	1.4444
1	645817	94.91	1.4444
1	646511	95.01	1.4444
1	647196	95.11	1.4444
1	647881	95.21	1.4444
1	648566	95.31	1.4444
1	649251	95.41	1.4444
1	649936	95.51	1.4444
1	650621	95.61	1.4444
1	651306	95.71	1.4444
1	651991	95.81	1.4444
1	652676	95.91	1.4444
1	653370	96.01	1.4444
1	654055	96.11	1.4444
1	654740	96.21	1.4444
1	655425	96.31	1.4444
1	656110	96.41	1.4444
1	656795	96.51	1.4444
1	657480	96.61	1.4444
1	658165	96.71	1.4444
1	658850	96.81	1.4444
1	659535	96.91	1.4444
1	660229	97.01	1.4444
1	660914	97.11	1.4444
1	661599	97.21	1.4444
1	662284	97.31	1.4444
1	662969	97.41	1.4444
1	663654	97.51	1.4444
1	664339	97.61	1.4444
1	665024	97.71	1.4444
1	665709	97.81	1.4444
1	666394	97.91	1.4444
1	667088	98.01	1.4444
1	667773	98.11	1.4444
1	668458	98.21	1.4444
1	669143	98.31	1.4444
1	669828	98.41	1.4444
1	670513	98.51	1.4444
1	671198	98.61	1.4444
1	671883	98.71	1.4444
1	672568	98.81	1.4444
1	673253	98.91	1.4444
1	673947	99.01	1.4444
1	674632	99.11	1.4444
1	675317	99.21	1.4444
1	676002	99.31	1.4444
1	676687	99.41	1.4444
1	677372	99.51	1.4444
1	678057	99.61	1.4444
1	678742	99.71	1.4444
1	679427	99.81	1.4444
1	680112	99.91	1.4444
2	113	1.11	0
2	798	1.21	0
2	1483	1.31	0
2	2168	1.41	0
2	2853	1.51	0
2	3538	1.61	0
2	4223	1.71	0
2	4908	1.81	0
2	5593	1.91	0
2	6287	2.01	0
2	6972	2.11	0
2	7657	2.21	0
2	8342	2.31	0
2	9027	2.41	0
2	9712	2.51	0
2	10397	2.61	0
2	11082	2.71	0
2	11767	2.81	0
2	12452	2.91	0
2	13146	3.01	0
2	13831	3.11	0
2	14516	3.21	0
2	15201	3.31	0
2	15886	3.41	0
2	16571	3.51	0
2	17256	3.61	0
2	17941	3.71	0
2	18626	3.81	0
2	19311	3.91	0
2	20005	4.01	0
2	20690	4.11	0
2	21375	4.21	0
2	22060	4.31	0
2	22745	4.41	0
2	23430	4.51	0
2	24115	4.61	0
2	24800	4.71	0
2	25485	4.81	0
2	26170	4.91	0
2	26864	5.01	0
2	27549	5.11	0
2	28234	5.21	0
2	28919	5.31	0
2	29604	5.41	0
2	30289	5.51	0
2	30974	5.61	0
2	31659	5.71	0
2	32344	5.81	0
2	33029	5.91	0
2	33723	6.01	0
2	34408	6.11	0
2	35093	6.21	0
2	35778	6.31	0
2	36463	6.41	0
2	37148	6.51	0
2	37833	6.61	0
2	38518	6.71	0
2	39203	6.81	0
2	39888	6.91	0
2	40582	7.01	0
2	41267	7.11	0
2	41952	7.21	0
2	42637	7.31	0
2	43322	7.41	0
2	44007	7.51	0
2	44692	7.61	0
2	45377	7.71	0
2	46062	7.81	0
2	46747	7.91	0
2	47441	8.01	0
2	48126	8.11	0
2	48811	8.21	0
2	49496	8.31	0
2	50181	8.41	0
2	50866	8.51	0
2	51551	8.61	0
2	52236	8.71	0
2	52921	8.81	0
2	53606	8.91	0
2	54300	9.01	0
2	54985	9.11	0
2	55670	9.21	0
2	56355	9.31	0
2	57040	9.41	0
2	57725	9.51	0
2	58410	9.61	0
2	59095	9.71	0
2	59780	9.81	0
2	60465	9.91	0
2	63496	10.01	0
2	64181	10.11	0
2	64866	10.21	0
2	65551	10.31	0
2	66236	10.41	0
2	66921	10.51	0
2	67606	10.61	0
2	68291	10.71	0
2	68976	10.81	0
2	69661	10.91	0
2	70355	11.01	0
2	71040	11.11	0
2	71725	11.21	0
2	72410	11.31	0
2	73095	11.41	0
2	73780	11.51	0
2	74465	11.61	0
2	75150	11.71	0
2	75835	11.81	0
2	76520	11.91	0
2	77214	12.01	0
2	77899	12.11	0
2	78584	12.21	0
2	79269	12.31	0
2	79954	12.41	0
2	80639	12.51	0
2	81324	12.61	0
2	82009	12.71	0
2	82694	12.81	0
2	83379	12.91	0
2	84073	13.01	0
2	84758	13.11	0
2	85443	13.21	0
2	86128	13.31	0
2	86813	13.41	0
2	87498	13.51	0
2	88183	13.61	0
2	88868	13.71	0
2	89553	13.81	0
2	90238	13.91	0
2	90932	14.01	0
2	91617	14.11	0
2	92302	14.21	0
2	92987	14.31	0
2	93672	14.41	0
2	94357	14.51	0
2	95042	14.61	0
2	95727	14.71	0
2	96412	14.81	0
2	97097	14.91	0
2	97791	15.01	0
2	98476	15.11	0
2	99161	15.21	0
2	99846	15.31	0
2	100531	15.41	0
2	101216	15.51	0
2	101901	15.61	0
2	102586	15.71	0
2	103271	15.81	0
2	103956	15.91	0
2	104650	16.01	0
2	105335	16.11	0
2	106020	16.21	0
2	106705	16.31	0
2	107390	16.41	0
2	108075	16.51	0
2	108760	16.61	0
2	109445	16.71	0
2	110130	16.81	0
2	110815	16.91	0
2	111509	17.01	0
2	112194	17.11	0
2	112879	17.21	0
2	113564	17.31	0
2	114249	17.41	0
2	114934	17.51	0
2	115619	17.61	0
2	116304	17.71	0
2	116989	17.81	0
2	117674	17.91	0
2	118368	18.01	0
2	119053	18.11	0
2	119738	18.21	0
2	120423	18.31	0
2	121108	18.41	0
2	121793	18.51	0
2	122478	18.61	0
2	123163	18.71	0
2	123848	18.81	0
2	124533	18.91	0
2	125227	19.01	0
2	125912	19.11	0
2	126597	19.21	0
2	127282	19.31	0
2	127967	19.41	0
2	128652	19.51	0
2	129337	19.61	0
2	130022	19.71	0
2	130707	19.81	0
2	131392	19.91	0
2	132086	20.01	0
2	132771	20.11	0
2	133456	20.21	0
2	134141	20.31	0
2	134826	20.41	0
2	135511	20.51	0
2	136196	20.61	0
2	136881	20.71	0
2	137566	20.81	0
2	138251	20.91	0
2	138945	21.01	0
2	139630	21.11	0
2	140315	21.21	0
2	141000	21.31	0
2	141685	21.41	0
2	142370	21.51	0
2	143055	21.61	0
2	143740	21.71	0
2	144425	21.81	0
2	145110	21.91	0
2	145804	22.01	0
2	146489	22.11	0
2	147174	22.21	0
2	147859	22.31	0
2	148544	22.41	0
2	149229	22.51	0
2	149914	22.61	0
2	150599	22.71	0
2	151284	22.81	0
2	151969	22.91	0
2	152663	23.01	0
2	153348	23.11	0
2	154033	23.21	0
2	154718	23.31	0
2	155403	23.41	0
2	156088	23.51	0
2	156773	23.61	0
2	157458	23.71	0
2	158143	23.81	0
2	158828	23.91	0
2	159522	24.01	0
2	160207	24.11	0
2	160892	24.21	0
2	161577	24.31	0
2	162262	24.41	0
2	162947	24.51	0
2	163632	24.61	0
2	164317	24.71	0
2	165002	24.81	0
2	165687	24.91	0
2	166381	25.01	0
2	167066	25.11	0
2	167751	25.21	0
2	168436	25.31	0
2	169121	25.41	0
2	169806	25.51	0
2	170491	25.61	0
2	171176	25.71	0
2	171861	25.81	0
2	172546	25.91	0
2	173240	26.01	0
2	173925	26.11	0
2	174610	26.21	0
2	175295	26.31	0
2	175980	26.41	0
2	176665	26.51	0
2	177350	26.61	0
2	178035	26.71	0
2	178720	26.81	0
2	179405	26.91	0
2	180099	27.01	0
2	180784	27.11	0
2	181469	27.21	0
2	182154	27.31	0
2	182839	27.41	0
2	183524	27.51	0
2	184209	27.61	0
2	184894	27.71	0
2	185579	27.81	0
2	186264	27.91	0
2	186958	28.01	0
2	187643	28.11	0
2	188328	28.21	0
2	189013	28.31	0
2	189698	28.41	0
2	190383	28.51	0
2	191068	28.61	0
2	191753	28.71	0
2	192438	28.81	0
2	193123	28.91	0
2	193817	29.01	0
2	194502	29.11	0
2	195187	29.21	0
2	195872	29.31	0
2	196557	29.41	0
2	197242	29.51	0
2	197927	29.61	0
2	198612	29.71	0
2	199297	29.81	0
2	199982	29.91	0
2	200676	30.01	0
2	201361	30.11	0
2	202046	30.21	0
2	202731	30.31	0
2	203416	30.41	0
2	204101	30.51	0
2	204786	30.61	0
2	205471	30.71	0
2	206156	30.81	0
2	206841	30.91	0
2	207535	31.01	0
2	208220	31.11	0
2	208905	31.21	0
2	209590	31.31	0
2	210275	31.41	0
2	210960	31.51	0
2	211645	31.61	0
2	212330	31.71	0
2	213015	31.81	0
2	213700	31.91	0
2	214394	32.01	0
2	215079	32.11	0
2	215764	32.21	0
2	216449	32.31	0
2	217134	32.41	0
2	217819	32.51	0
2	218504	32.61	0
2	219189	32.71	0
2	219874	32.81	0
2	220559	32.91	0
2	221253	33.01	0
2	221938	33.11	0
2	222623	33.21	0
2	223308	33.31	0
2	223993	33.41	0
2	224678	33.51	0
2	225363	33.61	0
2	226048	33.71	0
2	226733	33.81	0
2	227418	33.91	0
2	228112	34.01	0
2	228797	34.11	0
2	229482	34.21	0
2	230167	34.31	0
2	230852	34.41	0
2	231537	34.51	0
2	232222	34.61	0
2	232907	34.71	0
2	233592	34.81	0
2	234277	34.91	0
2	234971	35.01	0
2	235656	35.11	0
2	236341	35.21	0
2	237026	35.31	0
2	237711	35.41	0
2	238396	35.51	0
2	239081	35.61	0
2	239766	35.71	0
2	240451	35.81	0
2	241136	35.91	0
2	241830	36.01	0
2	242515	36.11	0
2	243200	36.21	0
2	243885	36.31	0
2	244570	36.41	0
2	245255	36.51	0
2	245940	36.61	0
2	246625	36.71	0
2	247310	36.81	0
2	247995	36.91	0
2	248689	37.01	0
2	249374	37.11	0
2	250059	37.21	0
2	250744	37.31	0
2	251429	37.41	0
2	252114	37.51	0
2	252799	37.61	0
2	253484	37.71	0
2	254169	37.81	0
2	254854	37.91	0
2	255548	38.01	0
2	256233	38.11	0
2	256918	38.21	0
2	257603	38.31	0
2	258288	38.41	0
2	258973	38.51	0
2	259658	38.61	0
2	260343	38.71	0
2	261028	38.81	0
2	261713	38.91	0
2	262407	39.01	0
2	263092	39.11	0
2	263777	39.21	0
2	264462	39.31	0
2	265147	39.41	0
2	265832	39.51	0
2	266517	39.61	0
2	267202	39.71	0
2	267887	39.81	0
2	268572	39.91	0
2	269266	40.01	0
2	269951	40.11	0
2	270636	40.21	0
2	271321	40.31	0
2	272006	40.41	0
2	272691	40.51	0
2	273376	40.61	0
2	274061	40.71	0
2	274746	40.81	0
2	275431	40.91	0
2	276125	41.01	0
2	276810	41.11	0
2	277495	41.21	0
2	278180	41.31	0
2	278865	41.41	0
2	279550	41.51	0
2	280235	41.61	0
2	280920	41.71	0
2	281605	41.81	0
2	282290	41.91	0
2	282984	42.01	0
2	283669	42.11	0
2	284354	42.21	0
2	285039	42.31	0
2	285724	42.41	0
2	286409	42.51	0
2	287094	42.61	0
2	287779	42.71	0
2	288464	42.81	0
2	289149	42.91	0
2	289843	43.01	0
2	290528	43.11	0
2	291213	43.21	0
2	291898	43.31	0
2	292583	43.41	0
2	293268	43.51	0
2	293953	43.61	0
2	294638	43.71	0
2	295323	43.81	0
2	296008	43.91	0
2	296702	44.01	0
2	297387	44.11	0
2	298072	44.21	0
2	298757	44.31	0
2	299442	44.41	0
2	300127	44.51	0
2	300812	44.61	0
2	301497	44.71	0
2	302182	44.81	0
2	302867	44.91	0
2	303561	45.01	0
2	304246	45.11	0
2	304931	45.21	0
2	305616	45.31	0
2	306301	45.41	0
2	306986	45.51	0
2	307671	45.61	0
2	308356	45.71	0
2	309041	45.81	0
2	309726	45.91	0
2	310420	46.01	0
2	311105	46.11	0
2	311790	46.21	0
2	312475	46.31	0
2	313160	46.41	0
2	313845	46.51	0
2	314530	46.61	0
2	315215	46.71	0
2	315900	46.81	0
2	316585	46.91	0
2	317279	47.01	0
2	317964	47.11	0
2	318649	47.21	0
2	319334	47.31	0
2	320019	47.41	0
2	320704	47.51	0
2	321389	47.61	0
2	322074	47.71	0
2	322759	47.81	0
2	323444	47.91	0
2	324138	48.01	0
2	324823	48.11	0
2	325508	48.21	0
2	326193	48.31	0
2	326878	48.41	0
2	327563	48.51	0
2	328248	48.61	0
2	328933	48.71	0
2	329618	48.81	0
2	330303	48.91	0
2	330997	49.01	0
2	331682	49.11	0
2	332367	49.21	0
2	333052	49.31	0
2	333737	49.41	0
2	334422	49.51	0
2	335107	49.61	0
2	335792	49.71	0
2	336477	49.81	0
2	337162	49.91	0
2	337856	50.01	0
2	338541	50.11	0
2	339226	50.21	0
2	339911	50.31	0
2	340596	50.41	0
2	341281	50.51	0
2	341966	50.61	0
2	342651	50.71	0
2	343336	50.81	0
2	344021	50.91	0
2	344715	51.01	0
2	345400	51.11	0
2	346085	51.21	0
2	346770	51.31	0
2	347455	51.41	0
2	348140	51.51	0
2	348825	51.61	0
2	349510	51.71	0
2	350195	51.81	0
2	350880	51.91	0
2	351574	52.01	0
2	352259	52.11	0
2	352944	52.21	0
2	353629	52.31	0
2	354314	52.41	0
2	354999	52.51	0
2	355684	52.61	0
2	356369	52.71	0
2	357054	52.81	0
2	357739	52.91	0
2	358433	53.01	0
2	359118	53.11	0
2	359803	53.21	0
2	360488	53.31	0
2	361173	53.41	0
2	361858	53.51	0
2	362543	53.61	0
2	363228	53.71	0
2	363913	53.81	0
2	364598	53.91	0
2	365292	54.01	0
2	365977	54.11	0
2	366662	54.21	0
2	367347	54.31	0
2	368032	54.41	0
2	368717	54.51	0
2	369402	54.61	0
2	370087	54.71	0
2	370772	54.81	0
2	371457	54.91	0
2	372151	55.01	0
2	372836	55.11	0
2	373521	55.21	0
2	374206	55.31	0
2	374891	55.41	0
2	375576	55.51	0
2	376261	55.61	0
2	376946	55.71	0
2	377631	55.81	0
2	378316	55.91	0
2	379010	56.01	0
2	379695	56.11	0
2	380380	56.21	0
2	381065	56.31	0
2	381750	56.41	0
2	382435	56.51	0
2	383120	56.61	0
2	383805	56.71	0
2	384490	56.81	0
2	385175	56.91	0
2	385869	57.01	0
2	386554	57.11	0
2	387239	57.21	0
2	387924	57.31	0
2	388609	57.41	0
2	389294	57.51	0
2	389979	57.61	0
2	390664	57.71	0
2	391349	57.81	0
2	392034	57.91	0
2	392728	58.01	0
2	393413	58.11	0
2	394098	58.21	0
2	394783	58.31	0
2	395468	58.41	0
2	396153	58.51	0
2	396838	58.61	0
2	397523	58.71	0
2	398208	58.81	0
2	398893	58.91	0
2	399587	59.01	0
2	400272	59.11	0
2	400957	59.21	0
2	401642	59.31	0
2	402327	59.41	0
2	403012	59.51	0
2	403697	59.61	0
2	404382	59.71	0
2	405067	59.81	0
2	405752	59.91	0
2	406446	60.01	0
2	407131	60.11	0
2	407816	60.21	0
2	408501	60.31	0
2	409186	60.41	0
2	409871	60.51	0
2	410556	60.61	0
2	411241	60.71	0
2	411926	60.81	0
2	412611	60.91	0
2	413305	61.01	0
2	413990	61.11	0
2	414675	61.21	0
2	415360	61.31	0
2	416045	61.41	0
2	416730	61.51	0
2	417415	61.61	0
2	418100	61.71	0
2	418785	61.81	0
2	419470	61.91	0
2	420164	62.01	0
2	420849	62.11	0
2	421534	62.21	0
2	422219	62.31	0
2	422904	62.41	0
2	423589	62.51	0
2	424274	62.61	0
2	424959	62.71	0
2	425644	62.81	0
2	426329	62.91	0
2	427023	63.01	0
2	427708	63.11	0
2	428393	63.21	0
2	429078	63.31	0
2	429763	63.41	0
2	430448	63.51	0
2	431133	63.61	0
2	431818	63.71	0
2	432503	63.81	0
2	433188	63.91	0
2	433882	64.01	0
2	434567	64.11	0
2	435252	64.21	0
2	435937	64.31	0
2	436622	64.41	0
2	437307	64.51	0
2	437992	64.61	0
2	438677	64.71	0
2	439362	64.81	0
2	440047	64.91	0
2	440741	65.01	0
2	441426	65.11	0
2	442111	65.21	0
2	442796	65.31	0
2	443481	65.41	0
2	444166	65.51	0
2	444851	65.61	0
2	445536	65.71	0
2	446221	65.81	0
2	446906	65.91	0
2	447600	66.01	0
2	448285	66.11	0
2	448970	66.21	0
2	449655	66.31	0
2	450340	66.41	0
2	451025	66.51	0
2	451710	66.61	0
2	452395	66.71	0
2	453080	66.81	0
2	453765	66.91	0
2	454459	67.01	0
2	455144	67.11	0
2	455829	67.21	0
2	456514	67.31	0
2	457199	67.41	0
2	457884	67.51	0
2	458569	67.61	0
2	459254	67.71	0
2	459939	67.81	0
2	460624	67.91	0
2	461318	68.01	0
2	462003	68.11	0
2	462688	68.21	0
2	463373	68.31	0
2	464058	68.41	0
2	464743	68.51	0
2	465428	68.61	0
2	466113	68.71	0
2	466798	68.81	0
2	467483	68.91	0
2	468177	69.01	0
2	468862	69.11	0
2	469547	69.21	0
2	470232	69.31	0
2	470917	69.41	0
2	471602	69.51	0
2	472287	69.61	0
2	472972	69.71	0
2	473657	69.81	0
2	474342	69.91	0
2	475036	70.01	0
2	475721	70.11	0
2	476406	70.21	0
2	477091	70.31	0
2	477776	70.41	0
2	478461	70.51	0
2	479146	70.61	0
2	479831	70.71	0
2	480516	70.81	0
2	481201	70.91	0
2	481895	71.01	0
2	482580	71.11	0
2	483265	71.21	0
2	483950	71.31	0
2	484635	71.41	0
2	485320	71.51	0
2	486005	71.61	0
2	486690	71.71	0
2	487375	71.81	0
2	488060	71.91	0
2	488754	72.01	0
2	489439	72.11	0
2	490124	72.21	0
2	490809	72.31	0
2	491494	72.41	0
2	492179	72.51	0
2	492864	72.61	0
2	493549	72.71	0
2	494234	72.81	0
2	494919	72.91	0
2	495613	73.01	0
2	496298	73.11	0
2	496983	73.21	0
2	497668	73.31	0
2	498353	73.41	0
2	499038	73.51	0
2	499723	73.61	0
2	500408	73.71	0
2	501093	73.81	0
2	501778	73.91	0
2	502472	74.01	0
2	503157	74.11	0
2	503842	74.21	0
2	504527	74.31	0
2	505212	74.41	0
2	505897	74.51	0
2	506582	74.61	0
2	507267	74.71	0
2	507952	74.81	0
2	508637	74.91	0
2	509331	75.01	0
2	510016	75.11	0
2	510701	75.21	0
2	511386	75.31	0
2	512071	75.41	0
2	512756	75.51	0
2	513441	75.61	0
2	514126	75.71	0
2	514811	75.81	0
2	515496	75.91	0
2	516190	76.01	0
2	516875	76.11	0
2	517560	76.21	0
2	518245	76.31	0
2	518930	76.41	0
2	519615	76.51	0
2	520300	76.61	0
2	520985	76.71	0
2	521670	76.81	0
2	522355	76.91	0
2	523049	77.01	0
2	523734	77.11	0
2	524419	77.21	0
2	525104	77.31	0
2	525789	77.41	0
2	526474	77.51	0
2	527159	77.61	0
2	527844	77.71	0
2	528529	77.81	0
2	529214	77.91	0
2	529908	78.01	0
2	530593	78.11	0
2	531278	78.21	0
2	531963	78.31	0
2	532648	78.41	0
2	533333	78.51	0
2	534018	78.61	0
2	534703	78.71	0
2	535388	78.81	0
2	536073	78.91	0
2	536767	79.01	0
2	537452	79.11	0
2	538137	79.21	0
2	538822	79.31	0
2	539507	79.41	0
2	540192	79.51	0
2	540877	79.61	0
2	541562	79.71	0
2	542247	79.81	0
2	542932	79.91	0
2	543626	80.01	0
2	544311	80.11	0
2	544996	80.21	0
2	545681	80.31	0
2	546366	80.41	0
2	547051	80.51	0
2	547736	80.61	0
2	548421	80.71	0
2	549106	80.81	0
2	549791	80.91	0
2	550485	81.01	0
2	551170	81.11	0
2	551855	81.21	0
2	552540	81.31	0
2	553225	81.41	0
2	553910	81.51	0
2	554595	81.61	0
2	555280	81.71	0
2	555965	81.81	0
2	556650	81.91	0
2	557344	82.01	0
2	558029	82.11	0
2	558714	82.21	0
2	559399	82.31	0
2	560084	82.41	0
2	560769	82.51	0
2	561454	82.61	0
2	562139	82.71	0
2	562824	82.81	0
2	563509	82.91	0
2	564203	83.01	0
2	564888	83.11	0
2	565573	83.21	0
2	566258	83.31	0
2	566943	83.41	0
2	567628	83.51	0
2	568313	83.61	0
2	568998	83.71	0
2	569683	83.81	0
2	570368	83.91	0
2	571062	84.01	0
2	571747	84.11	0
2	572432	84.21	0
2	573117	84.31	0
2	573802	84.41	0
2	574487	84.51	0
2	575172	84.61	0
2	575857	84.71	0
2	576542	84.81	0
2	577227	84.91	0
2	577921	85.01	0
2	578606	85.11	0
2	579291	85.21	0
2	579976	85.31	0
2	580661	85.41	0
2	581346	85.51	0
2	582031	85.61	0
2	582716	85.71	0
2	583401	85.81	0
2	584086	85.91	0
2	584780	86.01	0
2	585465	86.11	0
2	586150	86.21	0
2	586835	86.31	0
2	587520	86.41	0
2	588205	86.51	0
2	588890	86.61	0
2	589575	86.71	0
2	590260	86.81	0
2	590945	86.91	0
2	591639	87.01	0
2	592324	87.11	0
2	593009	87.21	0
2	593694	87.31	0
2	594379	87.41	0
2	595064	87.51	0
2	595749	87.61	0
2	596434	87.71	0
2	597119	87.81	0
2	597804	87.91	0
2	598498	88.01	0
2	599183	88.11	0
2	599868	88.21	0
2	600553	88.31	0
2	601238	88.41	0
2	601923	88.51	0
2	602608	88.61	0
2	603293	88.71	0
2	603978	88.81	0
2	604663	88.91	0
2	605357	89.01	0
2	606042	89.11	0
2	606727	89.21	0
2	607412	89.31	0
2	608097	89.41	0
2	608782	89.51	0
2	609467	89.61	0
2	610152	89.71	0
2	610837	89.81	0
2	611522	89.91	0
2	612216	90.01	0
2	612901	90.11	0
2	613586	90.21	0
2	614271	90.31	0
2	614956	90.41	0
2	615641	90.51	0
2	616326	90.61	0
2	617011	90.71	0
2	617696	90.81	0
2	618381	90.91	0
2	619075	91.01	0
2	619760	91.11	0
2	620445	91.21	0
2	621130	91.31	0
2	621815	91.41	0
2	622500	91.51	0
2	623185	91.61	0
2	623870	91.71	0
2	624555	91.81	0
2	625240	91.91	0
2	625934	92.01	0
2	626619	92.11	0
2	627304	92.21	0
2	627989	92.31	0
2	628674	92.41	0
2	629359	92.51	0
2	630044	92.61	0
2	630729	92.71	0
2	631414	92.81	0
2	632099	92.91	0
2	632793	93.01	0
2	633478	93.11	0
2	634163	93.21	0
2	634848	93.31	0
2	635533	93.41	0
2	636218	93.51	0
2	636903	93.61	0
2	637588	93.71	0
2	638273	93.81	0
2	638958	93.91	0
2	639652	94.01	0
2	640337	94.11	0
2	641022	94.21	0
2	641707	94.31	0
2	642392	94.41	0
2	643077	94.51	0
2	643762	94.61	0
2	644447	94.71	0
2	645132	94.81	0
2	645817	94.91	0
2	646511	95.01	0
2	647196	95.11	0
2	647881	95.21	0
2	648566	95.31	0
2	649251	95.41	0
2	649936	95.51	0
2	650621	95.61	0
2	651306	95.71	0
2	651991	95.81	0
2	652676	95.91	0
2	653370	96.01	0
2	654055	96.11	0
2	654740	96.21	0
2	655425	96.31	0
2	656110	96.41	0
2	656795	96.51	0
2	657480	96.61	0
2	658165	96.71	0
2	658850	96.81	0
2	659535	96.91	0
2	660229	97.01	0
2	660914	97.11	0
2	661599	97.21	0
2	662284	97.31	0
2	662969	97.41	0
2	663654	97.51	0
2	664339	97.61	0
2	665024	97.71	0
2	665709	97.81	0
2	666394	97.91	0
2	667088	98.01	0
2	667773	98.11	0
2	668458	98.21	0
2	669143	98.31	0
2	669828	98.41	0
2	670513	98.51	0
2	671198	98.61	0
2	671883	98.71	0
2	672568	98.81	0
2	673253	98.91	0
2	673947	99.01	0
2	674632	99.11	0
2	675317	99.21	0
2	676002	99.31	0
2	676687	99.41	0
2	677372	99.51	0
2	678057	99.61	0
2	678742	99.71	0
2	679427	99.81	0
2	680112	99.91	0
3	113	1.11	-0.000716383
3	798	1.21	-0.00136341
3	1483	1.31	-0.00186974
3	2168	1.41	-0.00225157
3	2853	1.51	-0.00252443
3	3538	1.61	-0.00270298
3	4223	1.71	-0.00280098
3	4908	1.81	-0.00283113
3	5593	1.91	-0.00280509
3	6287	2.01	-0.00273342
3	6972	2.11	-0.00262559
3	7657	2.21	-0.00249005
3	8342	2.31	-0.00233419
3	9027	2.41	-0.00216447
3	9712	2.51	-0.00198642
3	10397	2.61	-0.00180472
3	11082	2.71	-0.0016233
3	11767	2.81	-0.00144536
3	12452	2.91	-0.00127346
3	13146	3.01	-0.0011096
3	13831	3.11	-0.000955278
3	14516	3.21	-0.000811546
3	15201	3.31	-0.00067908
3	15886	3.41	-0.000558232
3	16571	3.51	-0.000449082
3	17256	3.61	-0.000351487
3	17941	3.71	-0.00026512
3	18626	3.81	-0.000189514
3	19311	3.91	-0.000124092
3	20005	4.01	-6.81972e-05
3	20690	4.11	-2.11209e-05
3	21375	4.21	1.78769e-05
3	22060	4.31	4.9548e-05
3	22745	4.41	7.46407e-05
3	23430	4.51	9.38867e-05
3	24115	4.61	0.000107991
3	24800	4.71	0.000117625
3	25485	4.81	0.000123418
3	26170	4.91	0.000125957
3	26864	5.01	0.000125781
3	27549	5.11	0.00012338
3	28234	5.21	0.000119198
3	28919	5.31	0.000113629
3	29604	5.41	0.000107022
3	30289	5.51	9.96832e-05
3	30974	5.61	9.18747e-05
3	31659	5.71	8.38211e-05
3	32344	5.81	7.57109e-05
3	33029	5.91	6.76999e-05
3	33723	6.01	5.99137e-05
3	34408	6.11	5.24518e-05
3	35093	6.21	4.53896e-05
3	35778	6.31	3.87821e-05
3	36463	6.41	3.2666e-05
3	37148	6.51	2.70628e-05
3	37833	6.61	2.19809e-05
3	38518	6.71	1.74176e-05
3	39203	6.81	1.33618e-05
3	39888	6.91	9.79494e-06
3	40582	7.01	6.6932e-06
3	41267	7.11	4.02864e-06
3	41952	7.21	1.77051e-06
3	42637	7.31	-1.13691e-07
3	43322	7.41	-1.65736e-06
3	44007	7.51	-2.89397e-06
3	44692	7.61	-3.85652e-06
3	45377	7.71	-4.57698e-06
3	46062	7.81	-5.08591e-06
3	46747	7.91	-5.41219e-06
3	47441	8.01	-5.58279e-06
3	48126	8.11	-5.6226e-06
3	48811	8.21	-5.55442e-06
3	49496	8.31	-5.39886e-06
3	50181	8.41	-5.17441e-06
3	50866	8.51	-4.89748e-06
3	51551	8.61	-4.58246e-06
3	52236	8.71	-4.24184e-06
3	52921	8.81	-3.88634e-06
3	53606	8.91	-3.52499e-06
3	54300	9.01	-3.16534e-06
3	54985	9.11	-2.81353e-06
3	55670	9.21	-2.47446e-06
3	56355	9.31	-2.15192e-06
3	57040	9.41	-1.84873e-06
3	57725	9.51	-1.56685e-06
3	58410	9.61	-1.30751e-06
3	59095	9.71	-1.0713e-06
3	59780	9.81	-8.58321e-07
3	60465	9.91	-6.68206e-07
3	63496	10.01	-5.0026e-07
3	64181	10.11	-3.53514e-07
3	64866	10.21	-2.2679e-07
3	65551	10.31	-1.18765e-07
3	66236	10.41	-2.80163e-08
3	66921	10.51	4.6931e-08
3	67606	10.61	1.07573e-07
3	68291	10.71	1.55391e-07
3	68976	10.81	1.91831e-07
3	69661	10.91	2.18284e-07
3	70355	11.01	2.3607e-07
3	71040	11.11	2.46427e-07
3	71725	11.21	2.50502e-07
3	72410	11.31	2.49353e-07
3	73095	11.41	2.43938e-07
3	73780	11.51	2.3512e-07
3	74465	11.61	2.23669e-07
3	75150	11.71	2.10264e-07
3	75835	11.81	1.95496e-07
3	76520	11.91	1.79874e-07
3	77214	12.01	1.63833e-07
3	77899	12.11	1.47736e-07
3	78584	12.21	1.3188e-07
3	79269	12.31	1.16508e-07
3	79954	12.41	1.01807e-07
3	80639	12.51	8.79222e-08
3	81324	12.61	7.49541e-08
3	82009	12.71	6.29711e-08
3	82694	12.81	5.20114e-08
3	83379	12.91	4.20883e-08
3	84073	13.01	3.3193e-08
3	84758	13.11	2.53003e-08
3	85443	13.21	1.83718e-08
3	86128	13.31	1.23581e-08
3	86813	13.41	7.20348e-09
3	87498	13.51	2.84537e-09
3	88183	13.61	-7.80886e-10
3	88868	13.71	-3.74136e-09
3	89553	13.81	-6.10285e-09
3	90238	13.91	-7.93072e-09
3	90932	14.01	-9.28821e-09
3	91617	14.11	-1.0235e-08
3	92302	14.21	-1.08283e-08
3	92987	14.31	-1.11211e-08
3	93672	14.41	-1.11612e-08
3	94357	14.51	-1.09946e-08
3	95042	14.61	-1.06599e-08
3	95727	14.71	-1.01945e-08
3	96412	14.81	-9.62999e-09
3	97097	14.91	-8.99405e-09
3	97791	15.01	-8.31086e-09
3	98476	15.11	-7.60103e-09
3	99161	15.21	-6.88338e-09
3	99846	15.31	-6.17071e-09
3	100531	15.41	-5.47544e-09
3	101216	15.51	-4.80682e-09
3	101901	15.61	-4.17266e-09
3	102586	15.71	-3.57687e-09
3	103271	15.81	-3.02443e-09
3	103956	15.91	-2.51674e-09
3	104650	16.01	-2.05489e-09
3	105335	16.11	-1.63958e-09
3	106020	16.21	-1.26903e-09
3	106705	16.31	-9.42535e-10
3	107390	16.41	-6.57963e-10
3	108075	16.51	-4.1247e-10
3	108760	16.61	-2.04636e-10
3	109445	16.71	-2.91323e-11
3	110130	16.81	1.14753e-10
3	110815	16.91	2.30926e-10
3	111509	17.01	3.22231e-10
3	112194	17.11	3.91154e-10
3	112879	17.21	4.40892e-10
3	113564	17.31	4.73577e-10
3	114249	17.41	4.92051e-10
3	114934	17.51	4.98446e-10
3	115619	17.61	4.94893e-10
3	116304	17.71	4.82814e-10
3	116989	17.81	4.6434e-10
3	117674	17.91	4.40892e-10
3	118368	18.01	4.13536e-10
3	119053	18.11	3.83693e-10
3	119738	18.21	3.51719e-10
3	120423	18.31	3.19744e-10
3	121108	18.41	2.8777e-10
3	121793	18.51	2.55795e-10
3	122478	18.61	2.25953e-10
3	123163	18.71	1.97531e-10
3	123848	18.81	1.6982e-10
3	124533	18.91	1.44951e-10
3	125227	19.01	1.21503e-10
3	125912	19.11	1.00187e-10
3	126597	19.21	8.10019e-11
3	127282	19.31	6.32383e-11
3	127967	19.41	4.86722e-11
3	128652	19.51	3.44613e-11
3	129337	19.61	2.34479e-11
3	130022	19.71	1.27898e-11
3	130707	19.81	4.9738e-12
3	131392	19.91	-2.13163e-12
3	132086	20.01	-8.17124e-12
3	132771	20.11	-1.1724e-11
3	133456	20.21	-1.52767e-11
3	134141	20.31	-1.88294e-11
3	134826	20.41	-2.02505e-11
3	135511	20.51	-2.02505e-11
3	136196	20.61	-2.02505e-11
3	136881	20.71	-2.02505e-11
3	137566	20.81	-2.02505e-11
3	138251	20.91	-2.02505e-11
3	138945	21.01	-2.02505e-11
3	139630	21.11	-2.02505e-11
3	140315	21.21	-2.02505e-11
3	141000	21.31	-1.88294e-11
3	141685	21.41	-1.7053e-11
3	142370	21.51	-1.52767e-11
3	143055	21.61	-1.38556e-11
3	143740	21.71	-1.24345e-11
3	144425	21.81	-1.13687e-11
3	145110	21.91	-1.03029e-11
3	145804	22.01	-9.23706e-12
3	146489	22.11	-8.52651e-12
3	147174	22.21	-7.4607e-12
3	147859	22.31	-6.75016e-12
3	148544	22.41	-6.03961e-12
3	149229	22.51	-5.68434e-12
3	149914	22.61	-4.9738e-12
3	150599	22.71	-4.61853e-12
3	151284	22.81	-4.26326e-12
3	151969	22.91	-3.90799e-12
3	152663	23.01	-3.55271e-12
3	153348	23.11	-3.19744e-12
3	154033	23.21	-2.84217e-12
3	154718	23.31	-2.4869e-12
3	155403	23.41	-2.13163e-12
3	156088	23.51	-2.13163e-12
3	156773	23.61	-1.77636e-12
3	157458	23.71	-1.77636e-12
3	158143	23.81	-1.42109e-12
3	158828	23.91	-1.42109e-12
3	159522	24.01	-1.06581e-12
3	160207	24.11	-1.06581e-12
3	160892	24.21	-1.06581e-12
3	161577	24.31	-1.06581e-12
3	162262	24.41	-7.10543e-13
3	162947	24.51	-7.10543e-13
3	163632	24.61	-7.10543e-13
3	164317	24.71	-7.10543e-13
3	165002	24.81	-7.10543e-13
3	165687	24.91	-3.55271e-13
3	166381	25.01	-3.55271e-13
3	167066	25.11	-3.55271e-13
3	167751	25.21	-3.55271e-13
3	168436	25.31	-3.55271e-13
3	169121	25.41	-3.55271e-13
3	169806	25.51	-3.55271e-13
3	170491	25.61	-3.55271e-13
3	171176	25.71	-3.55271e-13
3	171861	25.81	-3.55271e-13
3	172546	25.91	0
3	173240	26.01	0
3	173925	26.11	0
3	174610	26.21	0
3	175295	26.31	0
3	175980	26.41	0
3	176665	26.51	0
3	177350	26.61	0
3	178035	26.71	0
3	178720	26.81	0
3	179405	26.91	0
3	180099	27.01	0
3	180784	27.11	0
3	181469	27.21	0
3	182154	27.31	0
3	182839	27.41	0
3	183524	27.51	0
3	184209	27.61	0
3	184894	27.71	0
3	185579	27.81	0
3	186264	27.91	0
3	186958	28.01	0
3	187643	28.11	0
3	188328	28.21	0
3	189013	28.31	0
3	189698	28.41	0
3	190383	28.51	0
3	191068	28.61	0
3	191753	28.71	0
3	192438	28.81	0
3	193123	28.91	0
3	193817	29.01	0
3	194502	29.11	0
3	195187	29.21	0
3	195872	29.31	0
3	196557	29.41	0
3	197242	29.51	0
3	197927	29.61	0
3	198612	29.71	0
3	199297	29.81	0
3	199982	29.91	0
3	200676	30.01	0
3	201361	30.11	0
3	202046	30.21	0
3	202731	30.31	0
3	203416	30.41	0
3	204101	30.51	0
3	204786	30.61	0
3	205471	30.71	0
3	206156	30.81	0
3	206841	30.91	0
3	207535	31.01	0
3	208220	31.11	0
3	208905	31.21	0
3	209590	31.31	0
3	210275	31.41	0
3	210960	31.51	0
3	211645	31.61	0
3	212330	31.71	0
3	213015	31.81	0
3	213700	31.91	0
3	214394	32.01	0
3	215079	32.11	0
3	215764	32.21	0
3	216449	32.31	0
3	217134	32.41	0
3	217819	32.51	0
3	218504	32.61	0
3	219189	32.71	0
3	219874	32.81	0
3	220559	32.91	0
3	221253	33.01	0
3	221938	33.11	0
3	222623	33.21	0
3	223308	33.31	0
3	223993	33.41	0
3	224678	33.51	0
3	225363	33.61	0
3	226048	33.71	0
3	226733	33.81	0
3	227418	33.91	0
3	228112	34.01	0
3	228797	34.11	0
3	229482	34.21	0
3	230167	34.31	0
3	230852	34.41	0
3	231537	34.51	0
3	232222	34.61	0
3	232907	34.71	0
3	233592	34.81	0
3	234277	34.91	0
3	234971	35.01	0
3	235656	35.11	0
3	236341	35.21	0
3	237026	35.31	0
3	237711	35.41	0
3	238396	35.51	0
3	239081	35.61	0
3	239766	35.71	0
3	240451	35.81	0
3	241136	35.91	0
3	241830	36.01	0
3	242515	36.11	0
3	243200	36.21	0
3	243885	36.31	0
3	244570	36.41	0
3	245255	36.51	0
3	245940	36.61	0
3	246625	36.71	0
3	247310	36.81	0
3	247995	36.91	0
3	248689	37.01	0
3	249374	37.11	0
3	250059	37.21	0
3	250744	37.31	0
3	251429	37.41	0
3	252114	37.51	0
3	252799	37.61	0
3	253484	37.71	0
3	254169	37.81	0
3	254854	37.91	0
3	255548	38.01	0
3	256233	38.11	0
3	256918	38.21	0
3	257603	38.31	0
3	258288	38.41	0
3	258973	38.51	0
3	259658	38.61	0
3	260343	38.71	0
3	261028	38.81	0
3	261713	38.91	0
3	262407	39.01	0
3	263092	39.11	0
3	263777	39.21	0
3	264462	39.31	0
3	265147	39.41	0
3	265832	39.51	0
3	266517	39.61	0
3	267202	39.71	0
3	267887	39.81	0
3	268572	39.91	0
3	269266	40.01	0
3	269951	40.11	0
3	270636	40.21	0
3	271321	40.31	0
3	272006	40.41	0
3	272691	40.51	0
3	273376	40.61	0
3	274061	40.71	0
3	274746	40.81	0
3	275431	40.91	0
3	276125	41.01	0
3	276810	41.11	0
3	277495	41.21	0
3	278180	41.31	0
3	278865	41.41	0
3	279550	41.51	0
3	280235	41.61	0
3	280920	41.71	0
3	281605	41.81	0
3	282290	41.91	0
3	282984	42.01	0
3	283669	42.11	0
3	284354	42.21	0
3	285039	42.31	0
3	285724	42.41	0
3	286409	42.51	0
3	287094	42.61	0
3	287779	42.71	0
3	288464	42.81	0
3	289149	42.91	0
3	289843	43.01	0
3	290528	43.11	0
3	291213	43.21	0
3	291898	43.31	0
3	292583	43.41	0
3	293268	43.51	0
3	293953	43.61	0
3	294638	43.71	0
3	295323	43.81	0
3	296008	43.91	0
3	296702	44.01	0
3	297387	44.11	0
3	298072	44.21	0
3	298757	44.31	0
3	299442	44.41	0
3	300127	44.51	0
3	300812	44.61	0
3	301497	44.71	0
3	302182	44.81	0
3	302867	44.91	0
3	303561	45.01	0
3	304246	45.11	0
3	304931	45.21	0
3	305616	45.31	0
3	306301	45.41	0
3	306986	45.51	0
3	307671	45.61	0
3	308356	45.71	0
3	309041	45.81	0
3	309726	45.91	0
3	310420	46.01	0
3	311105	46.11	0
3	311790	46.21	0
3	312475	46.31	0
3	313160	46.41	0
3	313845	46.51	0
3	314530	46.61	0
3	315215	46.71	0
3	315900	46.81	0
3	316585	46.91	0
3	317279	47.01	0
3	317964	47.11	0
3	318649	47.21	0
3	319334	47.31	0
3	320019	47.41	0
3	320704	47.51	0
3	321389	47.61	0
3	322074	47.71	0
3	322759	47.81	0
3	323444	47.91	0
3	324138	48.01	0
3	324823	48.11	0
3	325508	48.21	0
3	326193	48.31	0
3	326878	48.41	0
3	327563	48.51	0
3	328248	48.61	0
3	328933	48.71	0
3	329618	48.81	0
3	330303	48.91	0
3	330997	49.01	0
3	331682	49.11	0
3	332367	49.21	0
3	333052	49.31	0
3	333737	49.41	0
3	334422	49.51	0
3	335107	49.61	0
3	335792	49.71	0
3	336477	49.81	0
3	337162	49.91	0
3	337856	50.01	0
3	338541	50.11	0
3	339226	50.21	0
3	339911	50.31	0
3	340596	50.41	0
3	341281	50.51	0
3	341966	50.61	0
3	342651	50.71	0
3	343336	50.81	0
3	344021	50.91	0
3	344715	51.01	0
3	345400	51.11	0
3	346085	51.21	0
3	346770	51.31	0
3	347455	51.41	0
3	348140	51.51	0
3	348825	51.61	0
3	349510	51.71	0
3	350195	51.81	0
3	350880	51.91	0
3	351574	52.01	0
3	352259	52.11	0
3	352944	52.21	0
3	353629	52.31	0
3	354314	52.41	0
3	354999	52.51	0
3	355684	52.61	0
3	356369	52.71	0
3	357054	52.81	0
3	357739	52.91	0
3	358433	53.01	0
3	359118	53.11	0
3	359803	53.21	0
3	360488	53.31	0
3	361173	53.41	0
3	361858	53.51	0
3	362543	53.61	0
3	363228	53.71	0
3	363913	53.81	0
3	364598	53.91	0
3	365292	54.01	0
3	365977	54.11	0
3	366662	54.21	0
3	367347	54.31	0
3	368032	54.41	0
3	368717	54.51	0
3	369402	54.61	0
3	370087	54.71	0
3	370772	54.81	0
3	371457	54.91	0
3	372151	55.01	0
3	372836	55.11	0
3	373521	55.21	0
3	374206	55.31	0
3	374891	55.41	0
3	375576	55.51	0
3	376261	55.61	0
3	376946	55.71	0
3	377631	55.81	0
3	378316	55.91	0
3	379010	56.01	0
3	379695	56.11	0
3	380380	56.21	0
3	381065	56.31	0
3	381750	56.41	0
3	382435	56.51	0
3	383120	56.61	0
3	383805	56.71	0
3	384490	56.81	0
3	385175	56.91	0
3	385869	57.01	0
3	386554	57.11	0
3	387239	57.21	0
3	387924	57.31	0
3	388609	57.41	0
3	389294	57.51	0
3	389979	57.61	0
3	390664	57.71	0
3	391349	57.81	0
3	392034	57.91	0
3	392728	58.01	0
3	393413	58.11	0
3	394098	58.21	0
3	394783	58.31	0
3	395468	58.41	0
3	396153	58.51	0
3	396838	58.61	0
3	397523	58.71	0
3	398208	58.81	0
3	398893	58.91	0
3	399587	59.01	0
3	400272	59.11	0
3	400957	59.21	0
3	401642	59.31	0
3	402327	59.41	0
3	403012	59.51	0
3	403697	59.61	0
3	404382	59.71	0
3	405067	59.81	0
3	405752	59.91	0
3	406446	60.01	0
3	407131	60.11	0
3	407816	60.21	0
3	408501	60.31	0
3	409186	60.41	0
3	409871	60.51	0
3	410556	60.61	0
3	411241	60.71	0
3	411926	60.81	0
3	412611	60.91	0
3	413305	61.01	0
3	413990	61.11	0
3	414675	61.21	0
3	415360	61.31	0
3	416045	61.41	0
3	416730	61.51	0
3	417415	61.61	0
3	418100	61.71	0
3	418785	61.81	0
3	419470	61.91	0
3	420164	62.01	0
3	420849	62.11	0
3	421534	62.21	0
3	422219	62.31	0
3	422904	62.41	0
3	423589	62.51	0
3	424274	62.61	0
3	424959	62.71	0
3	425644	62.81	0
3	426329	62.91	0
3	427023	63.01	0
3	427708	63.11	0
3	428393	63.21	0
3	429078	63.31	0
3	429763	63.41	0
3	430448	63.51	0
3	431133	63.61	0
3	431818	63.71	0
3	432503	63.81	0
3	433188	63.91	0
3	433882	64.01	0
3	434567	64.11	0
3	435252	64.21	0
3	435937	64.31	0
3	436622	64.41	0
3	437307	64.51	0
3	437992	64.61	0
3	438677	64.71	0
3	439362	64.81	0
3	440047	64.91	0
3	440741	65.01	0
3	441426	65.11	0
3	442111	65.21	0
3	442796	65.31	0
3	443481	65.41	0
3	444166	65.51	0
3	444851	65.61	0
3	445536	65.71	0
3	446221	65.81	0
3	446906	65.91	0
3	447600	66.01	0
3	448285	66.11	0
3	448970	66.21	0
3	449655	66.31	0
3	450340	66.41	0
3	451025	66.51	0
3	451710	66.61	0
3	452395	66.71	0
3	453080	66.81	0
3	453765	66.91	0
3	454459	67.01	0
3	455144	67.11	0
3	455829	67.21	0
3	456514	67.31	0
3	457199	67.41	0
3	457884	67.51	0
3	458569	67.61	0
3	459254	67.71	0
3	459939	67.81	0
3	460624	67.91	0
3	461318	68.01	0
3	462003	68.11	0
3	462688	68.21	0
3	463373	68.31	0
3	464058	68.41	0
3	464743	68.51	0
3	465428	68.61	0
3	466113	68.71	0
3	466798	68.81	0
3	467483	68.91	0
3	468177	69.01	0
3	468862	69.11	0
3	469547	69.21	0
3	470232	69.31	0
3	470917	69.41	0
3	471602	69.51	0
3	472287	69.61	0
3	472972	69.71	0
3	473657	69.81	0
3	474342	69.91	0
3	475036	70.01	0
3	475721	70.11	0
3	476406	70.21	0
3	477091	70.31	0
3	477776	70.41	0
3	478461	70.51	0
3	479146	70.61	0
3	479831	70.71	0
3	480516	70.81	0
3	481201	70.91	0
3	481895	71.01	0
3	482580	71.11	0
3	483265	71.21	0
3	483950	71.31	0
3	484635	71.41	0
3	485320	71.51	0
3	486005	71.61	0
3	486690	71.71	0
3	487375	71.81	0
3	488060	71.91	0
3	488754	72.01	0
3	489439	72.11	0
3	490124	72.21	0
3	490809	72.31	0
3	491494	72.41	0
3	492179	72.51	0
3	492864	72.61	0
3	493549	72.71	0
3	494234	72.81	0
3	494919	72.91	0
3	495613	73.01	0
3	496298	73.11	0
3	496983	73.21	0
3	497668	73.31	0
3	498353	73.41	0
3	499038	73.51	0
3	499723	73.61	0
3	500408	73.71	0
3	501093	73.81	0
3	501778	73.91	0
3	502472	74.01	0
3	503157	74.11	0
3	503842	74.21	0
3	504527	74.31	0
3	505212	74.41	0
3	505897	74.51	0
3	506582	74.61	0
3	507267	74.71	0
3	507952	74.81	0
3	508637	74.91	0
3	509331	75.01	0
3	510016	75.11	0
3	510701	75.21	0
3	511386	75.31	0
3	512071	75.41	0
3	512756	75.51	0
3	513441	75.61	0
3	514126	75.71	0
3	514811	75.81	0
3	515496	75.91	0
3	516190	76.01	0
3	516875	76.11	0
3	517560	76.21	0
3	518245	76.31	0
3	518930	76.41	0
3	519615	76.51	0
3	520300	76.61	0
3	520985	76.71	0
3	521670	76.81	0
3	522355	76.91	0
3	523049	77.01	0
3	523734	77.11	0
3	524419	77.21	0
3	525104	77.31	0
3	525789	77.41	0
3	526474	77.51	0
3	527159	77.61	0
3	527844	77.71	0
3	528529	77.81	0
3	529214	77.91	0
3	529908	78.01	0
3	530593	78.11	0
3	531278	78.21	0
3	531963	78.31	0
3	532648	78.41	0
3	533333	78.51	0
3	534018	78.61	0
3	534703	78.71	0
3	535388	78.81	0
3	536073	78.91	0
3	536767	79.01	0
3	537452	79.11	0
3	538137	79.21	0
3	538822	79.31	0
3	539507	79.41	0
3	540192	79.51	0
3	540877	79.61	0
3	541562	79.71	0
3	542247	79.81	0
3	542932	79.91	0
3	543626	80.01	0
[...]
119	516111	76	5
119	522970	77	5
119	529829	78	5
119	536688	79	5
119	543547	80	5
119	550406	81	5
119	557265	82	5
119	564124	83	5
119	570983	84	5
119	577842	85	5
119	584701	86	5
119	591560	87	5
119	598419	88	5
119	605278	89	5
119	612137	90	5
119	618996	91	5
119	625855	92	5
119	632714	93	5
119	639573	94	5
119	646432	95	5
119	653291	96	5
119	660150	97	5
119	667009	98	5
119	673868	99	5
119	680727	100	5
120	6208	2	0.024969
120	13067	3	0.02809
120	19926	4	0.02809
120	26785	5	0.02809
120	33644	6	0.02809
120	40503	7	0.02809
120	47362	8	0.02809
120	54221	9	0.02809
120	61081	10	0.02809
120	70276	11	0.03035344029
120	77135	12	0.02809
120	83994	13	0.02809
120	90853	14	0.02809
120	97712	15	0.02809
120	104571	16	0.02809
120	111430	17	0.02809
120	118289	18	0.02809
120	125148	19	0.02809
120	132007	20	0.02809
120	138866	21	0.02809
120	145725	22	0.02809
120	152584	23	0.02809
120	159443	24	0.02809
120	166302	25	0.02809
120	173161	26	0.02809
120	180020	27	0.02809
120	186879	28	0.02809
120	193738	29	0.02809
120	200597	30	0.02809
120	207456	31	0.02809
120	214315	32	0.02809
120	221174	33	0.02809
120	228033	34	0.02809
120	234892	35	0.02809
120	241751	36	0.02809
120	248610	37	0.02809
120	255469	38	0.02809
120	262328	39	0.02809
120	269187	40	0.02809
120	276046	41	0.02809
120	282905	42	0.02809
120	289764	43	0.02809
120	296623	44	0.02809
120	303482	45	0.02809
120	310341	46	0.02809
120	317200	47	0.02809
120	324059	48	0.02809
120	330918	49	0.02809
120	337777	50	0.02809
120	344636	51	0.02809
120	351495	52	0.02809
120	358354	53	0.02809
120	365213	54	0.02809
120	372072	55	0.02809
120	378931	56	0.02809
120	385790	57	0.02809
120	392649	58	0.02809
120	399508	59	0.02809
120	406367	60	0.02809
120	413226	61	0.02809
120	420085	62	0.02809
120	426944	63	0.02809
120	433803	64	0.02809
120	440662	65	0.02809
120	447521	66	0.02809
120	454380	67	0.02809
120	461239	68	0.02809
120	468098	69	0.02809
120	474957	70	0.02809
120	481816	71	0.02809
120	488675	72	0.02809
120	495534	73	0.02809
120	502393	74	0.02809
120	509252	75	0.02809
120	516111	76	0.02809
120	522970	77	0.02809
120	529829	78	0.02809
120	536688	79	0.02809
120	543547	80	0.02809
120	550406	81	0.02809
120	557265	82	0.02809
120	564124	83	0.02809
120	570983	84	0.02809
120	577842	85	0.02809
120	584701	86	0.02809
120	591560	87	0.02809
120	598419	88	0.02809
120	605278	89	0.02809
120	612137	90	0.02809
120	618996	91	0.02809
120	625855	92	0.02809
120	632714	93	0.02809
120	639573	94	0.02809
120	646432	95	0.02809
120	653291	96	0.02809
120	660150	97	0.02809
120	667009	98	0.02809
120	673868	99	0.02809
120	680727	100	0.02809
121	6208	2	0
121	13067	3	0
121	19926	4	0
121	26785	5	0
121	33644	6	0
121	40503	7	0
121	47362	8	0
121	54221	9	0
121	61081	10	0
121	70276	11	0
121	77135	12	0
121	83994	13	0
121	90853	14	0
121	97712	15	0
121	104571	16	0
121	111430	17	0
121	118289	18	0
121	125148	19	0
121	132007	20	0
121	138866	21	0
121	145725	22	0
121	152584	23	0
121	159443	24	0
121	166302	25	0
121	173161	26	0
121	180020	27	0
121	186879	28	0
121	193738	29	0
121	200597	30	0
121	207456	31	0
121	214315	32	0
121	221174	33	0
121	228033	34	0
121	234892	35	0
121	241751	36	0
121	248610	37	0
121	255469	38	0
121	262328	39	0
121	269187	40	0
121	276046	41	0
121	282905	42	0
121	289764	43	0
121	296623	44	0
121	303482	45	0
121	310341	46	0
121	317200	47	0
121	324059	48	0
121	330918	49	0
121	337777	50	0
121	344636	51	0
121	351495	52	0
121	358354	53	0
121	365213	54	0
121	372072	55	0
121	378931	56	0
121	385790	57	0
121	392649	58	0
121	399508	59	0
121	406367	60	0
121	413226	61	0
121	420085	62	0
121	426944	63	0
121	433803	64	0
121	440662	65	0
121	447521	66	0
121	454380	67	0
121	461239	68	0
121	468098	69	0
121	474957	70	0
121	481816	71	0
121	488675	72	0
121	495534	73	0
121	502393	74	0
121	509252	75	0
121	516111	76	0
121	522970	77	0
121	529829	78	0
121	536688	79	0
121	543547	80	0
121	550406	81	0
121	557265	82	0
121	564124	83	0
121	570983	84	0
121	577842	85	0
121	584701	86	0
121	591560	87	0
121	598419	88	0
121	605278	89	0
121	612137	90	0
121	618996	91	0
121	625855	92	0
121	632714	93	0
121	639573	94	0
121	646432	95	0
121	653291	96	0
121	660150	97	0
121	667009	98	0
121	673868	99	0
121	680727	100	0
122	6209	2	6
122	13068	3	6
122	19927	4	6
122	26786	5	6
122	33645	6	6
122	40504	7	6
122	47363	8	6
122	54222	9	6
122	61082	10	6
122	70277	11	6
122	77136	12	6
122	83995	13	6
122	90854	14	6
122	97713	15	6
122	104572	16	6
122	111431	17	6
122	118290	18	6
122	125149	19	6
122	132008	20	6
122	138867	21	6
122	145726	22	6
122	152585	23	6
122	159444	24	6
122	166303	25	6
122	173162	26	6
122	180021	27	6
122	186880	28	6
122	193739	29	6
122	200598	30	6
122	207457	31	6
122	214316	32	6
122	221175	33	6
122	228034	34	6
122	234893	35	6
122	241752	36	6
122	248611	37	6
122	255470	38	6
122	262329	39	6
122	269188	40	6
122	276047	41	6
122	282906	42	6
122	289765	43	6
122	296624	44	6
122	303483	45	6
122	310342	46	6
122	317201	47	6
122	324060	48	6
122	330919	49	6
122	337778	50	6
122	344637	51	6
122	351496	52	6
122	358355	53	6
122	365214	54	6
122	372073	55	6
122	378932	56	6
122	385791	57	6
122	392650	58	6
122	399509	59	6
122	406368	60	6
122	413227	61	6
122	420086	62	6
122	426945	63	6
122	433804	64	6
122	440663	65	6
122	447522	66	6
122	454381	67	6
122	461240	68	6
122	468099	69	6
122	474958	70	6
122	481817	71	6
122	488676	72	6
122	495535	73	6
122	502394	74	6
122	509253	75	6
122	516112	76	6
122	522971	77	6
122	529830	78	6
122	536689	79	6
122	543548	80	6
122	550407	81	6
122	557266	82	6
122	564125	83	6
122	570984	84	6
122	577843	85	6
122	584702	86	6
122	591561	87	6
122	598420	88	6
122	605279	89	6
122	612138	90	6
122	618997	91	6
122	625856	92	6
122	632715	93	6
122	639574	94	6
122	646433	95	6
122	653292	96	6
122	660151	97	6
122	667010	98	6
122	673869	99	6
122	680728	100	6
123	6209	2	0.024969
123	13068	3	0.02809
123	19927	4	0.02809
123	26786	5	0.02809
123	33645	6	0.02809
123	40504	7	0.02809
123	47363	8	0.02809
123	54222	9	0.02809
123	61082	10	0.02809
123	70277	11	0.03032036024
123	77136	12	0.02809
123	83995	13	0.02809
123	90854	14	0.02809
123	97713	15	0.02809
123	104572	16	0.02809
123	111431	17	0.02809
123	118290	18	0.02809
123	125149	19	0.02809
123	132008	20	0.02809
123	138867	21	0.02809
123	145726	22	0.02809
123	152585	23	0.02809
123	159444	24	0.02809
123	166303	25	0.02809
123	173162	26	0.02809
123	180021	27	0.02809
123	186880	28	0.02809
123	193739	29	0.02809
123	200598	30	0.02809
123	207457	31	0.02809
123	214316	32	0.02809
123	221175	33	0.02809
123	228034	34	0.02809
123	234893	35	0.02809
123	241752	36	0.02809
123	248611	37	0.02809
123	255470	38	0.02809
123	262329	39	0.02809
123	269188	40	0.02809
123	276047	41	0.02809
123	282906	42	0.02809
123	289765	43	0.02809
123	296624	44	0.02809
123	303483	45	0.02809
123	310342	46	0.02809
123	317201	47	0.02809
123	324060	48	0.02809
123	330919	49	0.02809
123	337778	50	0.02809
123	344637	51	0.02809
123	351496	52	0.02809
123	358355	53	0.02809
123	365214	54	0.02809
123	372073	55	0.02809
123	378932	56	0.02809
123	385791	57	0.02809
123	392650	58	0.02809
123	399509	59	0.02809
123	406368	60	0.02809
123	413227	61	0.02809
123	420086	62	0.02809
123	426945	63	0.02809
123	433804	64	0.02809
123	440663	65	0.02809
123	447522	66	0.02809
123	454381	67	0.02809
123	461240	68	0.02809
123	468099	69	0.02809
123	474958	70	0.02809
123	481817	71	0.02809
123	488676	72	0.02809
123	495535	73	0.02809
123	502394	74	0.02809
123	509253	75	0.02809
123	516112	76	0.02809
123	522971	77	0.02809
123	529830	78	0.02809
123	536689	79	0.02809
123	543548	80	0.02809
123	550407	81	0.02809
123	557266	82	0.02809
123	564125	83	0.02809
123	570984	84	0.02809
123	577843	85	0.02809
123	584702	86	0.02809
123	591561	87	0.02809
123	598420	88	0.02809
123	605279	89	0.02809
123	612138	90	0.02809
123	618997	91	0.02809
123	625856	92	0.02809
123	632715	93	0.02809
123	639574	94	0.02809
123	646433	95	0.02809
123	653292	96	0.02809
123	660151	97	0.02809
123	667010	98	0.02809
123	673869	99	0.02809
123	680728	100	0.02809
124	6209	2	0
124	13068	3	0
124	19927	4	0
124	26786	5	0
124	33645	6	0
124	40504	7	0
124	47363	8	0
124	54222	9	0
124	61082	10	0
124	70277	11	0
124	77136	12	0
124	83995	13	0
124	90854	14	0
124	97713	15	0
124	104572	16	0
124	111431	17	0
124	118290	18	0
124	125149	19	0
124	132008	20	0
124	138867	21	0
124	145726	22	0
124	152585	23	0
124	159444	24	0
124	166303	25	0
124	173162	26	0
124	180021	27	0
124	186880	28	0
124	193739	29	0
124	200598	30	0
124	207457	31	0
124	214316	32	0
124	221175	33	0
124	228034	34	0
124	234893	35	0
124	241752	36	0
124	248611	37	0
124	255470	38	0
124	262329	39	0
124	269188	40	0
124	276047	41	0
124	282906	42	0
124	289765	43	0
124	296624	44	0
124	303483	45	0
124	310342	46	0
124	317201	47	0
124	324060	48	0
124	330919	49	0
124	337778	50	0
124	344637	51	0
124	351496	52	0
124	358355	53	0
124	365214	54	0
124	372073	55	0
124	378932	56	0
124	385791	57	0
124	392650	58	0
124	399509	59	0
124	406368	60	0
124	413227	61	0
124	420086	62	0
124	426945	63	0
124	433804	64	0
124	440663	65	0
124	447522	66	0
124	454381	67	0
124	461240	68	0
124	468099	69	0
124	474958	70	0
124	481817	71	0
124	488676	72	0
124	495535	73	0
124	502394	74	0
124	509253	75	0
124	516112	76	0
124	522971	77	0
124	529830	78	0
124	536689	79	0
124	543548	80	0
124	550407	81	0
124	557266	82	0
124	564125	83	0
124	570984	84	0
124	577843	85	0
124	584702	86	0
124	591561	87	0
124	598420	88	0
124	605279	89	0
124	612138	90	0
124	618997	91	0
124	625856	92	0
124	632715	93	0
124	639574	94	0
124	646433	95	0
124	653292	96	0
124	660151	97	0
124	667010	98	0
124	673869	99	0
124	680728	100	0
125	6210	2	7
125	13069	3	7
125	19928	4	7
125	26787	5	7
125	33646	6	7
125	40505	7	7
125	47364	8	7
125	54223	9	7
125	61083	10	7
125	70278	11	7
125	77137	12	7
125	83996	13	7
125	90855	14	7
125	97714	15	7
125	104573	16	7
125	111432	17	7
125	118291	18	7
125	125150	19	7
125	132009	20	7
125	138868	21	7
125	145727	22	7
125	152586	23	7
125	159445	24	7
125	166304	25	7
125	173163	26	7
125	180022	27	7
125	186881	28	7
125	193740	29	7
125	200599	30	7
125	207458	31	7
125	214317	32	7
125	221176	33	7
125	228035	34	7
125	234894	35	7
125	241753	36	7
125	248612	37	7
125	255471	38	7
125	262330	39	7
125	269189	40	7
125	276048	41	7
125	282907	42	7
125	289766	43	7
125	296625	44	7
125	303484	45	7
125	310343	46	7
125	317202	47	7
125	324061	48	7
125	330920	49	7
125	337779	50	7
125	344638	51	7
125	351497	52	7
125	358356	53	7
125	365215	54	7
125	372074	55	7
125	378933	56	7
125	385792	57	7
125	392651	58	7
125	399510	59	7
125	406369	60	7
125	413228	61	7
125	420087	62	7
125	426946	63	7
125	433805	64	7
125	440664	65	7
125	447523	66	7
125	454382	67	7
125	461241	68	7
125	468100	69	7
125	474959	70	7
125	481818	71	7
125	488677	72	7
125	495536	73	7
125	502395	74	7
125	509254	75	7
125	516113	76	7
125	522972	77	7
125	529831	78	7
125	536690	79	7
125	543549	80	7
125	550408	81	7
125	557267	82	7
125	564126	83	7
125	570985	84	7
125	577844	85	7
125	584703	86	7
125	591562	87	7
125	598421	88	7
125	605280	89	7
125	612139	90	7
125	618998	91	7
125	625857	92	7
125	632716	93	7
125	639575	94	7
125	646434	95	7
125	653293	96	7
125	660152	97	7
125	667011	98	7
125	673870	99	7
125	680729	100	7
126	6210	2	0.024969
126	13069	3	0.02809
126	19928	4	0.02809
126	26787	5	0.02809
126	33646	6	0.02809
126	40505	7	0.02809
126	47364	8	0.02809
126	54223	9	0.02809
126	61083	10	0.02809
126	70278	11	0.030234320204
126	77137	12	0.02809
126	83996	13	0.02809
126	90855	14	0.02809
126	97714	15	0.02809
126	104573	16	0.02809
126	111432	17	0.02809
126	118291	18	0.02809
126	125150	19	0.02809
126	132009	20	0.02809
126	138868	21	0.02809
126	145727	22	0.02809
126	152586	23	0.02809
126	159445	24	0.02809
126	166304	25	0.02809
126	173163	26	0.02809
126	180022	27	0.02809
126	186881	28	0.02809
126	193740	29	0.02809
126	200599	30	0.02809
126	207458	31	0.02809
126	214317	32	0.02809
126	221176	33	0.02809
126	228035	34	0.02809
126	234894	35	0.02809
126	241753	36	0.02809
126	248612	37	0.02809
126	255471	38	0.02809
126	262330	39	0.02809
126	269189	40	0.02809
126	276048	41	0.02809
126	282907	42	0.02809
126	289766	43	0.02809
126	296625	44	0.02809
126	303484	45	0.02809
126	310343	46	0.02809
126	317202	47	0.02809
126	324061	48	0.02809
126	330920	49	0.02809
126	337779	50	0.02809
126	344638	51	0.02809
126	351497	52	0.02809
126	358356	53	0.02809
126	365215	54	0.02809
126	372074	55	0.02809
126	378933	56	0.02809
126	385792	57	0.02809
126	392651	58	0.02809
126	399510	59	0.02809
126	406369	60	0.02809
126	413228	61	0.02809
126	420087	62	0.02809
126	426946	63	0.02809
126	433805	64	0.02809
126	440664	65	0.02809
126	447523	66	0.02809
126	454382	67	0.02809
126	461241	68	0.02809
126	468100	69	0.02809
126	474959	70	0.02809
126	481818	71	0.02809
126	488677	72	0.02809
126	495536	73	0.02809
126	502395	74	0.02809
126	509254	75	0.02809
126	516113	76	0.02809
126	522972	77	0.02809
126	529831	78	0.02809
126	536690	79	0.02809
126	543549	80	0.02809
126	550408	81	0.02809
126	557267	82	0.02809
126	564126	83	0.02809
126	570985	84	0.02809
126	577844	85	0.02809
126	584703	86	0.02809
126	591562	87	0.02809
126	598421	88	0.02809
126	605280	89	0.02809
126	612139	90	0.02809
126	618998	91	0.02809
126	625857	92	0.02809
126	632716	93	0.02809
126	639575	94	0.02809
126	646434	95	0.02809
126	653293	96	0.02809
126	660152	97	0.02809
126	667011	98	0.02809
126	673870	99	0.02809
126	680729	100	0.02809
127	6210	2	0
127	13069	3	0
127	19928	4	0
127	26787	5	0
127	33646	6	0
127	40505	7	0
127	47364	8	0
127	54223	9	0
127	61083	10	0
127	70278	11	0
127	77137	12	0
127	83996	13	0
127	90855	14	0
127	97714	15	0
127	104573	16	0
127	111432	17	0
127	118291	18	0
127	125150	19	0
127	132009	20	0
127	138868	21	0
127	145727	22	0
127	152586	23	0
127	159445	24	0
127	166304	25	0
127	173163	26	0
127	180022	27	0
127	186881	28	0
127	193740	29	0
127	200599	30	0
127	207458	31	0
127	214317	32	0
127	221176	33	0
127	228035	34	0
127	234894	35	0
127	241753	36	0
127	248612	37	0
127	255471	38	0
127	262330	39	0
127	269189	40	0
127	276048	41	0
127	282907	42	0
127	289766	43	0
127	296625	44	0
127	303484	45	0
127	310343	46	0
127	317202	47	0
127	324061	48	0
127	330920	49	0
127	337779	50	0
127	344638	51	0
127	351497	52	0
127	358356	53	0
127	365215	54	0
127	372074	55	0
127	378933	56	0
127	385792	57	0
127	392651	58	0
127	399510	59	0
127	406369	60	0
127	413228	61	0
127	420087	62	0
127	426946	63	0
127	433805	64	0
127	440664	65	0
127	447523	66	0
127	454382	67	0
127	461241	68	0
127	468100	69	0
127	474959	70	0
127	481818	71	0
127	488677	72	0
127	495536	73	0
127	502395	74	0
127	509254	75	0
127	516113	76	0
127	522972	77	0
127	529831	78	0
127	536690	79	0
127	543549	80	0
127	550408	81	0
127	557267	82	0
127	564126	83	0
127	570985	84	0
127	577844	85	0
127	584703	86	0
127	591562	87	0
127	598421	88	0
127	605280	89	0
127	612139	90	0
127	618998	91	0
127	625857	92	0
127	632716	93	0
127	639575	94	0
127	646434	95	0
127	653293	96	0
127	660152	97	0
127	667011	98	0
127	673870	99	0
127	680729	100	0
128	6211	2	8
128	13070	3	8
128	19929	4	8
128	26788	5	8
128	33647	6	8
128	40506	7	8
128	47365	8	8
128	54224	9	8
128	61084	10	8
128	70279	11	8
128	77138	12	8
128	83997	13	8
128	90856	14	8
128	97715	15	8
128	104574	16	8
128	111433	17	8
128	118292	18	8
128	125151	19	8
128	132010	20	8
128	138869	21	8
128	145728	22	8
128	152587	23	8
128	159446	24	8
128	166305	25	8
128	173164	26	8
128	180023	27	8
128	186882	28	8
128	193741	29	8
128	200600	30	8
128	207459	31	8
128	214318	32	8
128	221177	33	8
128	228036	34	8
128	234895	35	8
128	241754	36	8
128	248613	37	8
128	255472	38	8
128	262331	39	8
128	269190	40	8
128	276049	41	8
128	282908	42	8
128	289767	43	8
128	296626	44	8
128	303485	45	8
128	310344	46	8
128	317203	47	8
128	324062	48	8
128	330921	49	8
128	337780	50	8
128	344639	51	8
128	351498	52	8
128	358357	53	8
128	365216	54	8
128	372075	55	8
128	378934	56	8
128	385793	57	8
128	392652	58	8
128	399511	59	8
128	406370	60	8
128	413229	61	8
128	420088	62	8
128	426947	63	8
128	433806	64	8
128	440665	65	8
128	447524	66	8
128	454383	67	8
128	461242	68	8
128	468101	69	8
128	474960	70	8
128	481819	71	8
128	488678	72	8
128	495537	73	8
128	502396	74	8
128	509255	75	8
128	516114	76	8
128	522973	77	8
128	529832	78	8
128	536691	79	8
128	543550	80	8
128	550409	81	8
128	557268	82	8
128	564127	83	8
128	570986	84	8
128	577845	85	8
128	584704	86	8
128	591563	87	8
128	598422	88	8
128	605281	89	8
128	612140	90	8
128	618999	91	8
128	625858	92	8
128	632717	93	8
128	639576	94	8
128	646435	95	8
128	653294	96	8
128	660153	97	8
128	667012	98	8
128	673871	99	8
128	680730	100	8
129	6211	2	0.024969
129	13070	3	0.02809
129	19929	4	0.02809
129	26788	5	0.02809
129	33647	6	0.02809
129	40506	7	0.02809
129	47365	8	0.02809
129	54224	9	0.02809
129	61084	10	0.02809
129	70279	11	0.030267440284
129	77138	12	0.02809
129	83997	13	0.02809
129	90856	14	0.02809
129	97715	15	0.02809
129	104574	16	0.02809
129	111433	17	0.02809
129	118292	18	0.02809
129	125151	19	0.02809
129	132010	20	0.02809
129	138869	21	0.02809
129	145728	22	0.02809
129	152587	23	0.02809
129	159446	24	0.02809
129	166305	25	0.02809
129	173164	26	0.02809
129	180023	27	0.02809
129	186882	28	0.02809
129	193741	29	0.02809
129	200600	30	0.02809
129	207459	31	0.02809
129	214318	32	0.02809
129	221177	33	0.02809
129	228036	34	0.02809
129	234895	35	0.02809
129	241754	36	0.02809
129	248613	37	0.02809
129	255472	38	0.02809
129	262331	39	0.02809
129	269190	40	0.02809
129	276049	41	0.02809
129	282908	42	0.02809
129	289767	43	0.02809
129	296626	44	0.02809
129	303485	45	0.02809
129	310344	46	0.02809
129	317203	47	0.02809
129	324062	48	0.02809
129	330921	49	0.02809
129	337780	50	0.02809
129	344639	51	0.02809
129	351498	52	0.02809
129	358357	53	0.02809
129	365216	54	0.02809
129	372075	55	0.02809
129	378934	56	0.02809
129	385793	57	0.02809
129	392652	58	0.02809
129	399511	59	0.02809
129	406370	60	0.02809
129	413229	61	0.02809
129	420088	62	0.02809
129	426947	63	0.02809
129	433806	64	0.02809
129	440665	65	0.02809
129	447524	66	0.02809
129	454383	67	0.02809
129	461242	68	0.02809
129	468101	69	0.02809
129	474960	70	0.02809
129	481819	71	0.02809
129	488678	72	0.02809
129	495537	73	0.02809
129	502396	74	0.02809
129	509255	75	0.02809
129	516114	76	0.02809
129	522973	77	0.02809
129	529832	78	0.02809
129	536691	79	0.02809
129	543550	80	0.02809
129	550409	81	0.02809
129	557268	82	0.02809
129	564127	83	0.02809
129	570986	84	0.02809
129	577845	85	0.02809
129	584704	86	0.02809
129	591563	87	0.02809
129	598422	88	0.02809
129	605281	89	0.02809
129	612140	90	0.02809
129	618999	91	0.02809
129	625858	92	0.02809
129	632717	93	0.02809
129	639576	94	0.02809
129	646435	95	0.02809
129	653294	96	0.02809
129	660153	97	0.02809
129	667012	98	0.02809
129	673871	99	0.02809
129	680730	100	0.02809
130	6211	2	0
130	13070	3	0
130	19929	4	0
130	26788	5	0
130	33647	6	0
130	40506	7	0
130	47365	8	0
130	54224	9	0
130	61084	10	0
130	70279	11	0
130	77138	12	0
130	83997	13	0
130	90856	14	0
130	97715	15	0
130	104574	16	0
130	111433	17	0
130	118292	18	0
130	125151	19	0
130	132010	20	0
130	138869	21	0
130	145728	22	0
130	152587	23	0
130	159446	24	0
130	166305	25	0
130	173164	26	0
130	180023	27	0
130	186882	28	0
130	193741	29	0
130	200600	30	0
130	207459	31	0
130	214318	32	0
130	221177	33	0
130	228036	34	0
130	234895	35	0
130	241754	36	0
130	248613	37	0
130	255472	38	0
130	262331	39	0
130	269190	40	0
130	276049	41	0
130	282908	42	0
130	289767	43	0
130	296626	44	0
130	303485	45	0
130	310344	46	0
130	317203	47	0
130	324062	48	0
130	330921	49	0
130	337780	50	0
130	344639	51	0
130	351498	52	0
130	358357	53	0
130	365216	54	0
130	372075	55	0
130	378934	56	0
130	385793	57	0
130	392652	58	0
130	399511	59	0
130	406370	60	0
130	413229	61	0
130	420088	62	0
130	426947	63	0
130	433806	64	0
130	440665	65	0
130	447524	66	0
130	454383	67	0
130	461242	68	0
130	468101	69	0
130	474960	70	0
130	481819	71	0
130	488678	72	0
130	495537	73	0
130	502396	74	0
130	509255	75	0
130	516114	76	0
130	522973	77	0
130	529832	78	0
130	536691	79	0
130	543550	80	0
130	550409	81	0
130	557268	82	0
130	564127	83	0
130	570986	84	0
130	577845	85	0
130	584704	86	0
130	591563	87	0
130	598422	88	0
130	605281	89	0
130	612140	90	0
130	618999	91	0
130	625858	92	0
130	632717	93	0
130	639576	94	0
130	646435	95	0
130	653294	96	0
130	660153	97	0
130	667012	98	0
130	673871	99	0
130	680730	100	0

