file 2739656 1720694651                                         
version 3
run BreakRanksNoGui-801-20240711-12:43:59-287206
attr configname BreakRanksNoGui
attr datetime 20240711-12:43:59
attr datetimef 20240711-124359
attr experiment BreakRanksNoGui
attr inifile omnetpp.ini
attr iterationvars "$nCars=9, $platoonSize=9, $nLanes=1, $ploegH=0.5, $controller=1, $headway=0.1, $leaderHeadway=1.2, $leaderSpeed=110, $breakRanksSafetyDistance=2, $minSpeed=100, $maxSpeed=120, $beaconInterval=0.1, $priority=4, $packetSize=200, $sController=\"CACC\", $0=2, $1=0"
attr iterationvarsd nCars=9/platoonSize=9/nLanes=1/ploegH=0.5/controller=1/headway=0.1/leaderHeadway=1.2/leaderSpeed=110/breakRanksSafetyDistance=2/minSpeed=100/maxSpeed=120/beaconInterval=0.1/priority=4/packetSize=200/sController=CACC/2/0
attr iterationvarsf nCars=9,platoonSize=9,nLanes=1,ploegH=0.5,controller=1,headway=0.1,leaderHeadway=1.2,leaderSpeed=110,breakRanksSafetyDistance=2,minSpeed=100,maxSpeed=120,beaconInterval=0.1,priority=4,packetSize=200,sController=CACC,2,0-
attr measurement "$nCars=9, $platoonSize=9, $nLanes=1, $ploegH=0.5, $controller=1, $headway=0.1, $leaderHeadway=1.2, $leaderSpeed=110, $breakRanksSafetyDistance=2, $minSpeed=100, $maxSpeed=120, $beaconInterval=0.1, $priority=4, $packetSize=200, $sController=\"CACC\", $0=2, $1=0"
attr network Highway
attr processid 287206
attr repetition 1
attr replication #1
attr resultdir results
attr runnumber 801
attr seedset 1
itervar beaconInterval 0.1
itervar breakRanksSafetyDistance 2
itervar controller 1
itervar headway 0.1
itervar leaderHeadway 1.2
itervar leaderSpeed 110
itervar maxSpeed 120
itervar minSpeed 100
itervar nCars 9
itervar nLanes 1
itervar packetSize 200
itervar platoonSize 9
itervar ploegH 0.5
itervar priority 4
itervar sController "\"CACC\""
config image-path ../../../veins/images
config repeat 10
config extends BreakRanks
config *.manager.command "\"sumo\""
config *.manager.ignoreGuiCommands true
config output-vector-file "results/BreakRanks_1_0.1_110_2_9 /result_1.vec"
config output-scalar-file "results/BreakRanks_1_0.1_110_2_9 /result_1.sca"
config extends Platooning
config *.node[*].scenario_type "\"BreakRanksScenario\""
config *.manager.command "\"sumo-gui\""
config *.node[*].scenario_type "\"SimpleScenario\""
config cmdenv-express-mode true
config cmdenv-autoflush true
config cmdenv-status-frequency 15s
config num-rngs 6
config network Highway
config debug-on-errors true
config print-undisposed true
config *.playgroundSizeX 65000m
config *.playgroundSizeY 25000m
config *.playgroundSizeZ 50m
config sim-time-limit "100 s"
config *.annotations.draw false
config *.obstacles.debug false
config *.world.useTorus false
config *.world.use2D false
config *.manager.updateInterval 0.01s
config *.manager.host "\"localhost\""
config *.manager.moduleType "\"org.car2x.plexe.PlatoonCar\""
config *.manager.moduleName "\"node\""
config *.manager.moduleDisplayString "\"\""
config *.manager.autoShutdown true
config *.manager.margin 25
config *.connectionManager.sendDirect true
config *.connectionManager.maxInterfDist 2600m
config *.connectionManager.drawMaxIntfDist false
config *.**.nic.mac1609_4.useServiceChannel false
config *.**.nic.mac1609_4.txPower 100mW
config *.**.nic.mac1609_4.bitrate 6Mbps
config *.**.nic.mac1609_4.useAcks true
config *.**.nic.mac1609_4.ackErrorRate 0.0
config *.**.nic.mac1609_4.frameErrorRate 0.0
config *.**.nic.phy80211p.minPowerLevel -94dBm
config *.**.nic.phy80211p.maxTXPower 100mW
config *.**.nic.phy80211p.useNoiseFloor true
config *.**.nic.phy80211p.noiseFloor -95dBm
config *.**.nic.phy80211p.decider "xmldoc(\"config.xml\")"
config *.**.nic.phy80211p.analogueModels "xmldoc(\"config.xml\")"
config *.**.nic.phy80211p.usePropagationDelay true
config *.node[*].mobility.x 0
config *.node[*].mobility.y 0
config *.node[*].mobility.z 1.895
config seed-set 1
config **.seed 1
config *.node[*].prot.rng-0 2
config *.node[*].appl.rng-0 3
config *.node[*].scenario.rng-0 4
config **.traffic.rng-0 5
config *.manager.configFile "\"./sumocfg/freeway.sumo.cfg\""
config *.manager.launchConfig "xmldoc(\"./sumocfg/freeway.launchd.xml\")"
config **.numberOfCars 9
config **.numberOfCarsPerPlatoon 9
config **.numberOfLanes 1
config *.node[*].helper_type "\"PositionHelper\""
config *.node[*].scenario.caccC1 0.5
config *.node[*].scenario.caccXi 1
config *.node[*].scenario.caccOmegaN "0.2 Hz"
config *.node[*].scenario.caccSpacing "2 m"
config *.node[*].scenario.engineTau "0.5 s"
config *.node[*].scenario.ploegH 0.5s
config *.node[*].scenario.ploegKp 0.2
config *.node[*].scenario.ploegKd 0.7
config *.node[*].scenario.useRealisticEngine false
config *.node[*].scenario.useControllerAcceleration true
config *.node[*].scenario.nLanes 1
config **.numericController 1
config **.headway 0.1s
config *.node[*].scenario.accHeadway 0.1s
config *.node[*].scenario.leaderHeadway 1.2s
config *.node[*].scenario.leaderSpeed 110kmph
config *.node[*].appl_type "\"SimplePlatooningApp\""
config *.node[*].appl.*.scalar-recording true
config *.node[*].appl.*.vector-recording true
config *.node[0].appl.breakRanksSafetyDistance 2m
config *.node[*].appl.minSpeed 100kmph
config *.node[*].appl.maxSpeed 120kmph
config *.node[*].protocol_type "\"SimplePlatooningBeaconing\""
config *.node[*].prot.*.scalar-recording true
config *.node[*].prot.*.vector-recording true
config *.node[*].prot.beaconingInterval 0.1s
config *.node[*].prot.priority 4
config *.node[*].prot.packetSize 200
config **.traffic_type "\"PlatoonsTrafficManager\""
config **.traffic.platoonInsertTime "1 s"
config **.traffic.platoonInsertSpeed 110kmph
config **.traffic.nCars 9
config **.traffic.platoonSize 9
config **.traffic.nLanes 1
config **.traffic.platooningVType "\"vtypeauto\""
config **.traffic.controller "\"CACC\""
config **.traffic.platoonInsertDistance 2m
config **.traffic.platoonInsertHeadway 0s
config **.traffic.platoonLeaderHeadway 1.2s
config **.scalar-recording false
config **.vector-recording false

vector 0 Highway.node[0].appl distance ETV
vector 1 Highway.node[0].appl relativeSpeed ETV
vector 2 Highway.node[0].appl nodeId ETV
vector 3 Highway.node[0].appl acceleration ETV
vector 4 Highway.node[0].appl controllerAcceleration ETV
vector 5 Highway.node[0].appl speed ETV
vector 6 Highway.node[0].appl posx ETV
vector 7 Highway.node[0].appl posy ETV
vector 8 Highway.node[1].appl distance ETV
vector 9 Highway.node[1].appl relativeSpeed ETV
vector 10 Highway.node[1].appl nodeId ETV
vector 11 Highway.node[1].appl acceleration ETV
vector 12 Highway.node[1].appl controllerAcceleration ETV
vector 13 Highway.node[1].appl speed ETV
vector 14 Highway.node[1].appl posx ETV
vector 15 Highway.node[1].appl posy ETV
vector 16 Highway.node[2].appl distance ETV
vector 17 Highway.node[2].appl relativeSpeed ETV
vector 18 Highway.node[2].appl nodeId ETV
vector 19 Highway.node[2].appl acceleration ETV
vector 20 Highway.node[2].appl controllerAcceleration ETV
vector 21 Highway.node[2].appl speed ETV
vector 22 Highway.node[2].appl posx ETV
vector 23 Highway.node[2].appl posy ETV
vector 24 Highway.node[3].appl distance ETV
vector 25 Highway.node[3].appl relativeSpeed ETV
vector 26 Highway.node[3].appl nodeId ETV
vector 27 Highway.node[3].appl acceleration ETV
vector 28 Highway.node[3].appl controllerAcceleration ETV
vector 29 Highway.node[3].appl speed ETV
vector 30 Highway.node[3].appl posx ETV
vector 31 Highway.node[3].appl posy ETV
vector 32 Highway.node[4].appl distance ETV
vector 33 Highway.node[4].appl relativeSpeed ETV
vector 34 Highway.node[4].appl nodeId ETV
vector 35 Highway.node[4].appl acceleration ETV
vector 36 Highway.node[4].appl controllerAcceleration ETV
vector 37 Highway.node[4].appl speed ETV
vector 38 Highway.node[4].appl posx ETV
vector 39 Highway.node[4].appl posy ETV
vector 40 Highway.node[5].appl distance ETV
vector 41 Highway.node[5].appl relativeSpeed ETV
vector 42 Highway.node[5].appl nodeId ETV
vector 43 Highway.node[5].appl acceleration ETV
vector 44 Highway.node[5].appl controllerAcceleration ETV
vector 45 Highway.node[5].appl speed ETV
vector 46 Highway.node[5].appl posx ETV
vector 47 Highway.node[5].appl posy ETV
vector 48 Highway.node[6].appl distance ETV
vector 49 Highway.node[6].appl relativeSpeed ETV
vector 50 Highway.node[6].appl nodeId ETV
vector 51 Highway.node[6].appl acceleration ETV
vector 52 Highway.node[6].appl controllerAcceleration ETV
vector 53 Highway.node[6].appl speed ETV
vector 54 Highway.node[6].appl posx ETV
vector 55 Highway.node[6].appl posy ETV
vector 56 Highway.node[7].appl distance ETV
vector 57 Highway.node[7].appl relativeSpeed ETV
vector 58 Highway.node[7].appl nodeId ETV
vector 59 Highway.node[7].appl acceleration ETV
vector 60 Highway.node[7].appl controllerAcceleration ETV
vector 61 Highway.node[7].appl speed ETV
vector 62 Highway.node[7].appl posx ETV
vector 63 Highway.node[7].appl posy ETV
vector 64 Highway.node[8].appl distance ETV
vector 65 Highway.node[8].appl relativeSpeed ETV
vector 66 Highway.node[8].appl nodeId ETV
vector 67 Highway.node[8].appl acceleration ETV
vector 68 Highway.node[8].appl controllerAcceleration ETV
vector 69 Highway.node[8].appl speed ETV
vector 70 Highway.node[8].appl posx ETV
vector 71 Highway.node[8].appl posy ETV
vector 72 Highway.node[2].prot frontDelay ETV
vector 73 Highway.node[2].prot frontDelayId ETV
vector 74 Highway.node[4].prot frontDelay ETV
vector 75 Highway.node[4].prot frontDelayId ETV
vector 76 Highway.node[6].prot frontDelay ETV
vector 77 Highway.node[6].prot frontDelayId ETV
vector 78 Highway.node[7].prot frontDelay ETV
vector 79 Highway.node[7].prot frontDelayId ETV
vector 80 Highway.node[8].prot frontDelay ETV
vector 81 Highway.node[8].prot frontDelayId ETV
vector 82 Highway.node[5].prot frontDelay ETV
vector 83 Highway.node[5].prot frontDelayId ETV
vector 84 Highway.node[1].prot leaderDelay ETV
vector 85 Highway.node[1].prot leaderDelayId ETV
vector 86 Highway.node[1].prot frontDelay ETV
vector 87 Highway.node[1].prot frontDelayId ETV
vector 88 Highway.node[2].prot leaderDelay ETV
vector 89 Highway.node[2].prot leaderDelayId ETV
vector 90 Highway.node[3].prot leaderDelay ETV
vector 91 Highway.node[3].prot leaderDelayId ETV
vector 92 Highway.node[4].prot leaderDelay ETV
vector 93 Highway.node[4].prot leaderDelayId ETV
vector 94 Highway.node[5].prot leaderDelay ETV
vector 95 Highway.node[5].prot leaderDelayId ETV
vector 96 Highway.node[6].prot leaderDelay ETV
vector 97 Highway.node[6].prot leaderDelayId ETV
vector 98 Highway.node[7].prot leaderDelay ETV
vector 99 Highway.node[7].prot leaderDelayId ETV
vector 100 Highway.node[8].prot leaderDelay ETV
vector 101 Highway.node[8].prot leaderDelayId ETV
vector 102 Highway.node[3].prot frontDelay ETV
vector 103 Highway.node[3].prot frontDelayId ETV
vector 104 Highway.node[0].prot nodeId ETV
vector 105 Highway.node[0].prot busyTime ETV
vector 106 Highway.node[0].prot collisions ETV
vector 107 Highway.node[1].prot nodeId ETV
vector 108 Highway.node[1].prot busyTime ETV
vector 109 Highway.node[1].prot collisions ETV
vector 110 Highway.node[2].prot nodeId ETV
vector 111 Highway.node[2].prot busyTime ETV
vector 112 Highway.node[2].prot collisions ETV
vector 113 Highway.node[3].prot nodeId ETV
vector 114 Highway.node[3].prot busyTime ETV
vector 115 Highway.node[3].prot collisions ETV
vector 116 Highway.node[4].prot nodeId ETV
vector 117 Highway.node[4].prot busyTime ETV
vector 118 Highway.node[4].prot collisions ETV
vector 119 Highway.node[5].prot nodeId ETV
vector 120 Highway.node[5].prot busyTime ETV
vector 121 Highway.node[5].prot collisions ETV
vector 122 Highway.node[6].prot nodeId ETV
vector 123 Highway.node[6].prot busyTime ETV
vector 124 Highway.node[6].prot collisions ETV
vector 125 Highway.node[7].prot nodeId ETV
vector 126 Highway.node[7].prot busyTime ETV
vector 127 Highway.node[7].prot collisions ETV
vector 128 Highway.node[8].prot nodeId ETV
vector 129 Highway.node[8].prot busyTime ETV
vector 130 Highway.node[8].prot collisions ETV
0	11896 19467 113 680230 1.11 99.91 989 -1 67.8874 16355.5645 791372.33577583
1	31363 18628 113 680230 1.11 99.91 989 0 1.4444 557.95019 791.1981952781
2	49991 16564 113 680230 1.11 99.91 989 0 0 0 0
3	66555 19152 113 680230 1.11 99.91 989 -0.00283113 0.000125957 -0.043966303784312 9.6812896349407e-05
4	85707 26532 113 680230 1.11 99.91 989 -0.00437036 0.00019576 -0.042459310034081 0.00013890441444735
5	112239 22494 113 680230 1.11 99.91 989 30.5554 30.56 30219.5304 923377.16656332
6	134733 22392 113 680230 1.11 99.91 989 58.3604 3077.26 1550565.0859 3183635753.7183
7	157125 21509 113 680230 1.11 99.91 989 242.45 242.45 239783.05 58135400.472499
8	178634 20193 114 680231 1.11 99.91 989 -1 75.2607 19968.21867 1016207.5588365
9	198827 17498 114 680231 1.11 99.91 989 -0.000537994 2 881.99228593439 1764.0000044778
10	216325 17553 114 680231 1.11 99.91 989 1 1 989 989
11	233878 22293 114 680231 1.11 99.91 989 -0.357705 0.0159691 -5.569237077786 1.5487217257575
12	256171 27467 114 680231 1.11 99.91 989 -0.546793 0.0248247 -5.1001750295386 2.0485750424801
13	283638 19390 114 680231 1.11 99.91 989 29.9752 30.56 29725.0534 893433.0579411
14	303028 23472 114 680231 1.11 99.91 989 52.3604 3021.84 1522628.8414 3070461355.9362
15	326500 22498 114 680231 1.11 99.91 989 242.45 245.75 242749.75 59583743.4125
16	348998 23343 115 680232 1.11 99.91 989 1.99968 38.6622 31524.50415 1137640.1360967
17	372341 25534 115 680232 1.11 99.91 989 -6.49554e-05 2.62712 306.62942964663 439.69853843656
18	397875 17553 115 680232 1.11 99.91 989 2 2 1978 3956
19	415428 26342 115 680232 1.11 99.91 989 -1.66118 0.290724 -0.0024380451599993 36.64092122733
20	441770 26333 115 680232 1.11 99.91 989 -2.53478 0.327908 1.151871611032 50.842206675438
21	468103 23377 115 680232 1.11 99.91 989 27.9285 30.56 29912.909 905078.86244902
22	491480 23373 115 680232 1.11 99.91 989 46.3604 3034.6 1514544.7758 3058188286.8215
23	514853 22498 115 680232 1.11 99.91 989 242.45 242.45 239783.05 58135400.472499
24	537351 23349 116 680233 1.11 99.91 989 1.99963 68.1408 38599.90794 1877206.7347263
25	560700 24579 116 680233 1.11 99.91 989 -7.79152e-05 3.02051 661.68515822074 774.83558064411
26	585279 17553 116 680233 1.11 99.91 989 3 3 2967 8901
27	602832 23093 116 680233 1.11 99.91 989 -2.42344 0.563528 -5.5500806394258 116.72503787781
28	625925 26790 116 680233 1.11 99.91 989 -3.05019 0.605096 -4.2230884675539 141.10284803864
29	652715 20570 116 680233 1.11 99.91 989 25.1258 30.56 29251.2222 866432.60436286
30	673285 23437 116 680233 1.11 99.91 989 40.3604 2962.45 1471985.8884 2897875008.2053
31	696722 22498 116 680233 1.11 99.91 989 242.45 242.45 239783.05 58135400.472499
32	719220 23324 117 680234 1.11 99.91 989 1.99978 100.054 49311.02495 3338478.6590033
33	742544 20767 117 680234 1.11 99.91 989 -4.00971e-05 2.9681 981.04354500076 1248.8205800429
34	763311 17553 117 680234 1.11 99.91 989 4 4 3956 15824
35	780864 22720 117 680234 1.11 99.91 989 -2.66052 0.787067 -15.550063235798 197.21969285725
36	803584 26885 117 680234 1.11 99.91 989 -3.05303 0.828191 -14.225385904166 223.08598232785
37	830469 20322 117 680234 1.11 99.91 989 22.6281 30.56 28270.1802 810511.87009092
38	850791 22672 117 680234 1.11 99.91 989 34.3604 2858.4 1418721.4898 2693381891.8581
39	873463 22498 117 680234 1.11 99.91 989 242.45 242.45 239783.05 58135400.472499
40	895961 23388 118 680235 1.11 99.91 989 0.169884 113.476 62088.737004 5113594.4055364
41	919349 22883 118 680235 1.11 99.91 989 -5.99956e-05 9.19761 1437.2390051076 3967.0621121782
42	942232 17553 118 680235 1.11 99.91 989 5 5 4945 24725
43	959785 22109 118 680235 1.11 99.91 989 -2.71202 1.49992 -15.563895468353 332.18631655744
44	981894 27401 118 680235 1.11 99.91 989 -3.05304 1.5 -13.356889458644 372.52505589891
45	1009295 19956 118 680235 1.11 99.91 989 20.7368 30.56 28368.7228 816627.33098214
46	1029251 23452 118 680235 1.11 99.91 989 28.3604 2862.25 1419879.9164 2702268676.2065
47	1052703 22498 118 680235 1.11 99.91 989 242.45 245.75 242597.95 59509634.6525
48	1075201 23306 119 680236 1.11 99.91 989 0.310068 65.7687 37508.884768 1685755.4219828
49	1098507 24658 119 680236 1.11 99.91 989 -1.00001 11.0233 278.32640098429 4208.1358973277
50	1123165 17553 119 680236 1.11 99.91 989 6 6 5934 35604
51	1140718 26565 119 680236 1.11 99.91 989 -2.7179 1.49999 -5.4381640979523 371.44558195187
52	1167283 26314 119 680236 1.11 99.91 989 -3.05303 1.5 -3.3568104029951 432.24469598932
53	1193597 22560 119 680236 1.11 99.91 989 21.0017 31.0073 29603.9811 889725.12337457
54	1216157 23386 119 680236 1.11 99.91 989 22.3604 2979.73 1470866.1417 2921702096.2792
55	1239543 22498 119 680236 1.11 99.91 989 242.45 249.05 243353.65 59883402.5525
56	1262041 18884 120 680237 1.11 99.91 989 -1 2.00001 -719.00241 1258.9903601585
57	1280925 18499 120 680237 1.11 99.91 989 -2.23466e-05 1.04957e-05 -0.0009556816942 1.8003847699116e-08
58	1299424 17553 120 680237 1.11 99.91 989 7 7 6923 48461
59	1316977 21560 120 680237 1.11 99.91 989 -0.0414963 0.929019 14.439131141924 10.471266205437
60	1338537 28030 120 680237 1.11 99.91 989 -0.0644999 1.44514 14.599807158801 16.009014838371
61	1366567 19489 120 680237 1.11 99.91 989 30.5556 32.0645 31503.5671 1003695.6794176
62	1386056 23451 120 680237 1.11 99.91 989 16.3604 3163.59 1566101.6103 3303309086.9787
63	1409507 22498 120 680237 1.11 99.91 989 242.45 249.05 242522.05000001 59479658.772499
64	1432005 21031 121 680238 1.11 99.91 989 -1 39.601 14943.95641 553598.1062923
65	1453036 21554 121 680238 1.11 99.91 989 -0.238338 2.01728 161.50734732734 157.63841121025
66	1474590 17553 121 680238 1.11 99.91 989 8 8 7912 63296
67	1492143 24696 121 680238 1.11 99.91 989 -0.225242 0.358368 13.672678091746 4.3557304718235
68	1516839 26687 121 680238 1.11 99.91 989 -0.248376 0.458012 14.634720338222 5.0611547829734
69	1543526 21456 121 680238 1.11 99.91 989 29.9332 32.0093 31127.5179 980210.28438705
70	1564982 22981 121 680238 1.11 99.91 989 10.3604 3119.99 1531531.1526 3176899584.5743
71	1587963 22498 121 680238 1.11 99.91 989 242.45 249.05 243812.35 60111695.8925
72	1610461 40024 844 680270 1.212415540375 99.912422080023 988 0.099994520339 0.100011116677 98.800001060009 9.8800002455511
73	1650485 27315 844 680270 1.212415540375 99.912422080023 988 2 2 1976 3952
74	1677800 40053 994 680444 1.235023780541 99.935018236547 988 0.099994520339 0.100011100863 98.799988976367 9.8799978287329
75	1717853 27318 994 680444 1.235023780541 99.935018236547 988 4 4 3952 15808
76	1745171 40040 1069 680507 1.248693820569 99.948688615863 988 0.099994520339 0.100011101201 98.799989315655 9.8799978965942
77	1785211 27311 1069 680507 1.248693820569 99.948688615863 988 6 6 5928 35568
78	1812522 40061 1145 680613 1.263871840583 99.963880229647 988 0.099994520339 0.100011127737 98.800002909425 9.8800006154518
79	1852583 27319 1145 680613 1.263871840583 99.963880229647 988 7 7 6916 48412
80	1879902 40053 1222 680648 1.292153860597 99.992149375108 988 0.099994520339 0.100011114826 98.800003034872 9.8800006405017
81	1919955 27326 1222 680648 1.292153860597 99.992149375108 988 8 8 7904 63232
82	1947281 40043 1296 680722 1.297373920639 99.997370265473 988 0.099994520339 0.1000111158 98.800003865195 9.8800008065654
83	1987324 27313 1296 680722 1.297373920639 99.997370265473 988 5 5 4940 24700
84	2014637 40023 1364 680808 1.297784000694 99.997794164399 988 0.099994520339 0.100011129442 98.800004684066 9.8800009703702
85	2054660 27290 1364 680808 1.297784000694 99.997794164399 988 1 1 988 988
86	2081950 40023 1364 680808 1.297784000694 99.997794164399 988 0.099994520339 0.100011129442 98.800004684066 9.8800009703702
87	2121973 27290 1364 680808 1.297784000694 99.997794164399 988 1 1 988 988
88	2149263 40028 1370 680796 1.297784020708 99.99779412135 988 0.099994520339 0.100011129257 98.800004621003 9.8800009577576
89	2189291 27289 1370 680796 1.297784020708 99.99779412135 988 2 2 1976 3952
90	2216580 40059 1376 680826 1.297784040721 99.997794362152 988 0.099994520339 0.100011129442 98.800004841791 9.8800010019152
91	2256639 27322 1376 680826 1.297784040721 99.997794362152 988 3 3 2964 8892
92	2283961 40057 1382 680838 1.297784060735 99.99779470954 988 0.099994520339 0.100011129776 98.800005169166 9.8800010673902
93	2324018 27324 1382 680838 1.297784060735 99.99779470954 988 4 4 3952 15808
94	2351342 40069 1388 680832 1.297784080749 99.997794696768 988 0.099994520339 0.100011129775 98.80000513638 9.880001060833
95	2391411 27328 1388 680832 1.297784080749 99.997794696768 988 5 5 4940 24700
96	2418739 40040 1394 680820 1.297784100763 99.99779430471 988 0.099994520339 0.100011129438 98.800004724308 9.8800009784186
97	2458779 27302 1394 680820 1.297784100763 99.99779430471 988 6 6 5928 35568
98	2486081 40049 1400 680814 1.297784120777 99.997794267448 988 0.099994520339 0.100011129739 98.800004667032 9.8800009669635
99	2526130 27305 1400 680814 1.297784120777 99.997794267448 988 7 7 6916 48412
100	2553435 41054 1406 680802 1.297784140791 99.997794121987 988 0.099994520339 0.100011129712 98.800004501557 9.8800009338685
101	2594489 28320 1406 680802 1.297784140791 99.997794121987 988 8 8 7904 63232
102	2622809 40984 1445 680204 1.307203040722 99.907202232729 987 0.099994520339 0.100011103568 98.699993712368 9.8699987759294
103	2663793 28270 1445 680204 1.307203040722 99.907202232729 987 3 3 2961 8883
104	2692063 1562 6203 680840 2 100 99 0 0 0 0
105	2693625 2164 6203 680840 2 100 99 0.024969 0.030644961256 2.780343961256 0.078100230311382
106	2695789 1562 6203 680840 2 100 99 0 0 0 0
107	2697351 1562 6204 680841 2 100 99 1 1 99 99
108	2698913 2164 6204 680841 2 100 99 0.024969 0.030282280183 2.779981280183 0.078078133154082
109	2701077 1562 6204 680841 2 100 99 0 0 0 0
110	2702639 1562 6205 680842 2 100 99 2 2 198 396
111	2704201 2164 6205 680842 2 100 99 0.024968 0.030282400262 2.779980400262 0.078078090489628
112	2706365 1562 6205 680842 2 100 99 0 0 0 0
113	2707927 1562 6206 680843 2 100 99 3 3 297 891
114	2709489 2164 6206 680843 2 100 99 0.024969 0.030441560369 2.780140560369 0.078087805258699
115	2711653 1562 6206 680843 2 100 99 0 0 0 0
116	2713215 1562 6207 680844 2 100 99 4 4 396 1584
117	2714777 2164 6207 680844 2 100 99 0.024969 0.030368440288 2.780067440288 0.078083358826526
118	2716941 1562 6207 680844 2 100 99 0 0 0 0
119	2718503 1562 6208 680845 2 100 99 5 5 495 2475
120	2720065 2164 6208 680845 2 100 99 0.024969 0.030388560364 2.780087560364 0.078084581261996
121	2722229 1562 6208 680845 2 100 99 0 0 0 0
122	2723791 1562 6209 680846 2 100 99 6 6 594 3564
123	2725353 2164 6209 680846 2 100 99 0.024969 0.030428600394 2.780127600394 0.078087016382938
124	2727517 1562 6209 680846 2 100 99 0 0 0 0
125	2729079 1562 6210 680847 2 100 99 7 7 693 4851
126	2730641 2164 6210 680847 2 100 99 0.024969 0.030315480308 2.780014480308 0.078080145007305
127	2732805 1562 6210 680847 2 100 99 0 0 0 0
128	2734367 1562 6211 680848 2 100 99 8 8 792 6336
129	2735929 2164 6211 680848 2 100 99 0.024969 0.030355600394 2.780054600394 0.07808257913628
130	2738093 1562 6211 680848 2 100 99 0 0 0 0

