file 2445142 1720583243                                         
version 3
run BreakRanksNoGui-27-20240710-05:47:13-233548
attr configname BreakRanksNoGui
attr datetime 20240710-05:47:13
attr datetimef 20240710-054713
attr experiment BreakRanksNoGui
attr inifile omnetpp.ini
attr iterationvars "$nCars=8, $platoonSize=8, $nLanes=1, $ploegH=0.5, $controller=1, $headway=0.1, $leaderHeadway=1.2, $leaderSpeed=110, $breakRanksSafetyDistance=3, $minSpeed=100, $maxSpeed=120, $beaconInterval=0.1, $priority=4, $packetSize=200, $sController=\"CACC\", $0=2, $1=0"
attr iterationvarsd nCars=8/platoonSize=8/nLanes=1/ploegH=0.5/controller=1/headway=0.1/leaderHeadway=1.2/leaderSpeed=110/breakRanksSafetyDistance=3/minSpeed=100/maxSpeed=120/beaconInterval=0.1/priority=4/packetSize=200/sController=CACC/2/0
attr iterationvarsf nCars=8,platoonSize=8,nLanes=1,ploegH=0.5,controller=1,headway=0.1,leaderHeadway=1.2,leaderSpeed=110,breakRanksSafetyDistance=3,minSpeed=100,maxSpeed=120,beaconInterval=0.1,priority=4,packetSize=200,sController=CACC,2,0-
attr measurement "$nCars=8, $platoonSize=8, $nLanes=1, $ploegH=0.5, $controller=1, $headway=0.1, $leaderHeadway=1.2, $leaderSpeed=110, $breakRanksSafetyDistance=3, $minSpeed=100, $maxSpeed=120, $beaconInterval=0.1, $priority=4, $packetSize=200, $sController=\"CACC\", $0=2, $1=0"
attr network Highway
attr processid 233548
attr repetition 7
attr replication #7
attr resultdir results
attr runnumber 27
attr seedset 7
itervar beaconInterval 0.1
itervar breakRanksSafetyDistance 3
itervar controller 1
itervar headway 0.1
itervar leaderHeadway 1.2
itervar leaderSpeed 110
itervar maxSpeed 120
itervar minSpeed 100
itervar nCars 8
itervar nLanes 1
itervar packetSize 200
itervar platoonSize 8
itervar ploegH 0.5
itervar priority 4
itervar sController "\"CACC\""
config image-path ../../../veins/images
config repeat 10
config extends BreakRanks
config *.manager.command "\"sumo\""
config *.manager.ignoreGuiCommands true
config output-vector-file results/BreakRanks_1_0.1_110_3/result_7.vec
config output-scalar-file results/BreakRanks_1_0.1_110_3/result_7.sca
config extends Platooning
config *.node[*].scenario_type "\"BreakRanksScenario\""
config *.manager.command "\"sumo-gui\""
config *.node[*].scenario_type "\"SimpleScenario\""
config cmdenv-express-mode true
config cmdenv-autoflush true
config cmdenv-status-frequency 15s
config num-rngs 6
config network Highway
config debug-on-errors true
config print-undisposed true
config *.playgroundSizeX 65000m
config *.playgroundSizeY 25000m
config *.playgroundSizeZ 50m
config sim-time-limit "100 s"
config *.annotations.draw false
config *.obstacles.debug false
config *.world.useTorus false
config *.world.use2D false
config *.manager.updateInterval 0.01s
config *.manager.host "\"localhost\""
config *.manager.moduleType "\"org.car2x.plexe.PlatoonCar\""
config *.manager.moduleName "\"node\""
config *.manager.moduleDisplayString "\"\""
config *.manager.autoShutdown true
config *.manager.margin 25
config *.connectionManager.sendDirect true
config *.connectionManager.maxInterfDist 2600m
config *.connectionManager.drawMaxIntfDist false
config *.**.nic.mac1609_4.useServiceChannel false
config *.**.nic.mac1609_4.txPower 100mW
config *.**.nic.mac1609_4.bitrate 6Mbps
config *.**.nic.mac1609_4.useAcks true
config *.**.nic.mac1609_4.ackErrorRate 0.0
config *.**.nic.mac1609_4.frameErrorRate 0.0
config *.**.nic.phy80211p.minPowerLevel -94dBm
config *.**.nic.phy80211p.maxTXPower 100mW
config *.**.nic.phy80211p.useNoiseFloor true
config *.**.nic.phy80211p.noiseFloor -95dBm
config *.**.nic.phy80211p.decider "xmldoc(\"config.xml\")"
config *.**.nic.phy80211p.analogueModels "xmldoc(\"config.xml\")"
config *.**.nic.phy80211p.usePropagationDelay true
config *.node[*].mobility.x 0
config *.node[*].mobility.y 0
config *.node[*].mobility.z 1.895
config seed-set 7
config **.seed 7
config *.node[*].prot.rng-0 2
config *.node[*].appl.rng-0 3
config *.node[*].scenario.rng-0 4
config **.traffic.rng-0 5
config *.manager.configFile "\"./sumocfg/freeway.sumo.cfg\""
config *.manager.launchConfig "xmldoc(\"./sumocfg/freeway.launchd.xml\")"
config **.numberOfCars 8
config **.numberOfCarsPerPlatoon 8
config **.numberOfLanes 1
config *.node[*].helper_type "\"PositionHelper\""
config *.node[*].scenario.caccC1 0.5
config *.node[*].scenario.caccXi 1
config *.node[*].scenario.caccOmegaN "0.2 Hz"
config *.node[*].scenario.caccSpacing "2 m"
config *.node[*].scenario.engineTau "0.5 s"
config *.node[*].scenario.ploegH 0.5s
config *.node[*].scenario.ploegKp 0.2
config *.node[*].scenario.ploegKd 0.7
config *.node[*].scenario.useRealisticEngine false
config *.node[*].scenario.useControllerAcceleration true
config *.node[*].scenario.nLanes 1
config **.numericController 1
config **.headway 0.1s
config *.node[*].scenario.accHeadway 0.1s
config *.node[*].scenario.leaderHeadway 1.2s
config *.node[*].scenario.leaderSpeed 110kmph
config *.node[*].appl_type "\"SimplePlatooningApp\""
config *.node[*].appl.*.scalar-recording true
config *.node[*].appl.*.vector-recording true
config *.node[0].appl.breakRanksSafetyDistance 3m
config *.node[*].appl.minSpeed 100kmph
config *.node[*].appl.maxSpeed 120kmph
config *.node[*].protocol_type "\"SimplePlatooningBeaconing\""
config *.node[*].prot.*.scalar-recording true
config *.node[*].prot.*.vector-recording true
config *.node[*].prot.beaconingInterval 0.1s
config *.node[*].prot.priority 4
config *.node[*].prot.packetSize 200
config **.traffic_type "\"PlatoonsTrafficManager\""
config **.traffic.platoonInsertTime "1 s"
config **.traffic.platoonInsertSpeed 110kmph
config **.traffic.nCars 8
config **.traffic.platoonSize 8
config **.traffic.nLanes 1
config **.traffic.platooningVType "\"vtypeauto\""
config **.traffic.controller "\"CACC\""
config **.traffic.platoonInsertDistance 2m
config **.traffic.platoonInsertHeadway 0s
config **.traffic.platoonLeaderHeadway 1.2s
config **.scalar-recording false
config **.vector-recording false

vector 0 Highway.node[0].appl distance ETV
vector 1 Highway.node[0].appl relativeSpeed ETV
vector 2 Highway.node[0].appl nodeId ETV
vector 3 Highway.node[0].appl acceleration ETV
vector 4 Highway.node[0].appl controllerAcceleration ETV
vector 5 Highway.node[0].appl speed ETV
vector 6 Highway.node[0].appl posx ETV
vector 7 Highway.node[0].appl posy ETV
vector 8 Highway.node[1].appl distance ETV
vector 9 Highway.node[1].appl relativeSpeed ETV
vector 10 Highway.node[1].appl nodeId ETV
vector 11 Highway.node[1].appl acceleration ETV
vector 12 Highway.node[1].appl controllerAcceleration ETV
vector 13 Highway.node[1].appl speed ETV
vector 14 Highway.node[1].appl posx ETV
vector 15 Highway.node[1].appl posy ETV
vector 16 Highway.node[2].appl distance ETV
vector 17 Highway.node[2].appl relativeSpeed ETV
vector 18 Highway.node[2].appl nodeId ETV
vector 19 Highway.node[2].appl acceleration ETV
vector 20 Highway.node[2].appl controllerAcceleration ETV
vector 21 Highway.node[2].appl speed ETV
vector 22 Highway.node[2].appl posx ETV
vector 23 Highway.node[2].appl posy ETV
vector 24 Highway.node[3].appl distance ETV
vector 25 Highway.node[3].appl relativeSpeed ETV
vector 26 Highway.node[3].appl nodeId ETV
vector 27 Highway.node[3].appl acceleration ETV
vector 28 Highway.node[3].appl controllerAcceleration ETV
vector 29 Highway.node[3].appl speed ETV
vector 30 Highway.node[3].appl posx ETV
vector 31 Highway.node[3].appl posy ETV
vector 32 Highway.node[4].appl distance ETV
vector 33 Highway.node[4].appl relativeSpeed ETV
vector 34 Highway.node[4].appl nodeId ETV
vector 35 Highway.node[4].appl acceleration ETV
vector 36 Highway.node[4].appl controllerAcceleration ETV
vector 37 Highway.node[4].appl speed ETV
vector 38 Highway.node[4].appl posx ETV
vector 39 Highway.node[4].appl posy ETV
vector 40 Highway.node[5].appl distance ETV
vector 41 Highway.node[5].appl relativeSpeed ETV
vector 42 Highway.node[5].appl nodeId ETV
vector 43 Highway.node[5].appl acceleration ETV
vector 44 Highway.node[5].appl controllerAcceleration ETV
vector 45 Highway.node[5].appl speed ETV
vector 46 Highway.node[5].appl posx ETV
vector 47 Highway.node[5].appl posy ETV
vector 48 Highway.node[6].appl distance ETV
vector 49 Highway.node[6].appl relativeSpeed ETV
vector 50 Highway.node[6].appl nodeId ETV
vector 51 Highway.node[6].appl acceleration ETV
vector 52 Highway.node[6].appl controllerAcceleration ETV
vector 53 Highway.node[6].appl speed ETV
vector 54 Highway.node[6].appl posx ETV
vector 55 Highway.node[6].appl posy ETV
vector 56 Highway.node[7].appl distance ETV
vector 57 Highway.node[7].appl relativeSpeed ETV
vector 58 Highway.node[7].appl nodeId ETV
vector 59 Highway.node[7].appl acceleration ETV
vector 60 Highway.node[7].appl controllerAcceleration ETV
vector 61 Highway.node[7].appl speed ETV
vector 62 Highway.node[7].appl posx ETV
vector 63 Highway.node[7].appl posy ETV
vector 64 Highway.node[4].prot frontDelay ETV
vector 65 Highway.node[4].prot frontDelayId ETV
vector 66 Highway.node[3].prot frontDelay ETV
vector 67 Highway.node[3].prot frontDelayId ETV
vector 68 Highway.node[7].prot frontDelay ETV
vector 69 Highway.node[7].prot frontDelayId ETV
vector 70 Highway.node[2].prot frontDelay ETV
vector 71 Highway.node[2].prot frontDelayId ETV
vector 72 Highway.node[6].prot frontDelay ETV
vector 73 Highway.node[6].prot frontDelayId ETV
vector 74 Highway.node[5].prot frontDelay ETV
vector 75 Highway.node[5].prot frontDelayId ETV
vector 76 Highway.node[1].prot leaderDelay ETV
vector 77 Highway.node[1].prot leaderDelayId ETV
vector 78 Highway.node[1].prot frontDelay ETV
vector 79 Highway.node[1].prot frontDelayId ETV
vector 80 Highway.node[2].prot leaderDelay ETV
vector 81 Highway.node[2].prot leaderDelayId ETV
vector 82 Highway.node[3].prot leaderDelay ETV
vector 83 Highway.node[3].prot leaderDelayId ETV
vector 84 Highway.node[4].prot leaderDelay ETV
vector 85 Highway.node[4].prot leaderDelayId ETV
vector 86 Highway.node[5].prot leaderDelay ETV
vector 87 Highway.node[5].prot leaderDelayId ETV
vector 88 Highway.node[6].prot leaderDelay ETV
vector 89 Highway.node[6].prot leaderDelayId ETV
vector 90 Highway.node[7].prot leaderDelay ETV
vector 91 Highway.node[7].prot leaderDelayId ETV
vector 92 Highway.node[0].prot nodeId ETV
vector 93 Highway.node[0].prot busyTime ETV
vector 94 Highway.node[0].prot collisions ETV
vector 95 Highway.node[1].prot nodeId ETV
vector 96 Highway.node[1].prot busyTime ETV
vector 97 Highway.node[1].prot collisions ETV
vector 98 Highway.node[2].prot nodeId ETV
vector 99 Highway.node[2].prot busyTime ETV
vector 100 Highway.node[2].prot collisions ETV
vector 101 Highway.node[3].prot nodeId ETV
vector 102 Highway.node[3].prot busyTime ETV
vector 103 Highway.node[3].prot collisions ETV
vector 104 Highway.node[4].prot nodeId ETV
vector 105 Highway.node[4].prot busyTime ETV
vector 106 Highway.node[4].prot collisions ETV
vector 107 Highway.node[5].prot nodeId ETV
vector 108 Highway.node[5].prot busyTime ETV
vector 109 Highway.node[5].prot collisions ETV
vector 110 Highway.node[6].prot nodeId ETV
vector 111 Highway.node[6].prot busyTime ETV
vector 112 Highway.node[6].prot collisions ETV
vector 113 Highway.node[7].prot nodeId ETV
vector 114 Highway.node[7].prot busyTime ETV
vector 115 Highway.node[7].prot collisions ETV
0	11185 19120 113 543894 1.11 99.91 989 -1 102.713 19989.9262 1469253.8566391
1	30305 18176 113 543894 1.11 99.91 989 0 2.4444 809.09639999999 1977.75524016
2	48481 16521 113 543894 1.11 99.91 989 0 0 0 0
3	65002 19109 113 543894 1.11 99.91 989 -0.00283113 0.000125957 -0.043966303784312 9.6812896349407e-05
4	84111 26489 113 543894 1.11 99.91 989 -0.00437036 0.00019576 -0.042459310034081 0.00013890441444735
5	110600 22451 113 543894 1.11 99.91 989 30.5554 30.56 30219.5304 923377.16656332
6	133051 22377 113 543894 1.11 99.91 989 51.0204 3069.92 1543305.8264 3160926741.3121
7	155428 21466 113 543894 1.11 99.91 989 242.45 242.45 239783.05 58135400.472499
8	176894 20007 114 543895 1.11 99.91 989 -1 2.99713 865.60098 4093.4467198696
9	196901 21045 114 543895 1.11 99.91 989 -0.000537994 0.0796792 9.971538801393 0.52736204574385
10	217946 17510 114 543895 1.11 99.91 989 1 1 989 989
11	235456 25432 114 543895 1.11 99.91 989 -0.0597349 1.34113 24.414855169945 25.458363767305
12	260888 27218 114 543895 1.11 99.91 989 -0.0929121 1.5 24.195364304513 33.029639855581
13	288106 21535 114 543895 1.11 99.91 989 30.4759 33.0929 31347.8834 995096.83362238
14	309641 23385 114 543895 1.11 99.91 989 45.0204 3176.63 1563079.9693 3278834330.8988
15	333026 22455 114 543895 1.11 99.91 989 242.45 245.75 240268.15 58372226.292499
16	355481 23314 115 543896 1.11 99.91 989 1.99968 49.8612 18021.46289 638619.19027067
17	378795 24768 115 543896 1.11 99.91 989 -9.06016e-05 2.45644 408.91798415993 462.75834286088
18	403563 17510 115 543896 1.11 99.91 989 2 2 1978 3956
19	421073 26290 115 543896 1.11 99.91 989 -1.55245 0.271809 -5.555247232213 31.899390170629
20	447363 26691 115 543896 1.11 99.91 989 -2.36876 0.306569 -4.4484038137372 44.290998208127
21	474054 22133 115 543896 1.11 99.91 989 28.0992 30.56 29800.6402 898242.48657278
22	496187 23364 115 543896 1.11 99.91 989 39.0204 3016.06 1517941.6362 3059025903.3731
23	519551 22455 115 543896 1.11 99.91 989 242.45 242.45 239783.05 58135400.472499
24	542006 23326 116 543897 1.11 99.91 989 1.99967 73.9037 19638.74871 875737.177607
25	565332 23240 116 543897 1.11 99.91 989 -4.72856e-05 3.00423 1068.6321545304 2475.0761767865
26	588572 17510 116 543897 1.11 99.91 989 3 3 2967 8901
27	606082 25925 116 543897 1.11 99.91 989 -2.33509 0.537347 -35.550808847086 100.75303992128
28	632007 26900 116 543897 1.11 99.91 989 -2.96569 0.576857 -34.245999926629 123.786661217
29	658907 21741 116 543897 1.11 99.91 989 25.3659 30.56 28472.0114 822919.38311112
30	680648 23370 116 543897 1.11 99.91 989 33.0204 2877.34 1481901.363 2890230481.3513
31	704018 22455 116 543897 1.11 99.91 989 242.45 242.45 239783.05 58135400.472499
32	726473 21689 117 543898 1.11 99.91 989 -1 40.3864 5426.19226 153595.83180171
33	748162 22867 117 543898 1.11 99.91 989 -3.65536e-05 4.45291 231.18076048856 541.12209042326
34	771029 17510 117 543898 1.11 99.91 989 4 4 3956 15824
35	788539 25408 117 543898 1.11 99.91 989 -2.52124 1.47367 14.481212492425 98.362289570769
36	813947 26785 117 543898 1.11 99.91 989 -2.96856 1.5 15.981012512381 158.26415449702
37	840732 21675 117 543898 1.11 99.91 989 27.9731 32.0876 30752.519 956964.1908401
38	862407 23382 117 543898 1.11 99.91 989 27.0204 3099.14 1527643.0852 3135646485.8143
39	885789 22455 117 543898 1.11 99.91 989 242.45 245.75 241324.15 58887765.4925
40	908244 23299 118 543899 1.11 99.91 989 1.99952 34.1318 14550.48822 403443.74089188
41	931543 25275 118 543899 1.11 99.91 989 -0.000502663 2.36778 251.39860521836 303.79249373013
42	956818 17510 118 543899 1.11 99.91 989 5 5 4945 24725
43	974328 25887 118 543899 1.11 99.91 989 -2.53675 0.704763 -35.810610537335 144.79282070248
44	1000215 25920 118 543899 1.11 99.91 989 -2.96805 0.742508 -34.46364384914 168.12814562709
45	1026135 23335 118 543899 1.11 99.91 989 23.5002 30.56 28210.682 809149.60996784
46	1049470 23317 118 543899 1.11 99.91 989 21.0204 2839.21 1460004.4692 2809142562.9172
47	1072787 22455 118 543899 1.11 99.91 989 242.45 242.45 239783.05 58135400.472499
48	1095242 22540 119 543900 1.11 99.91 989 -1 61.8972 15562.22666 684477.20123881
49	1117782 22190 119 543900 1.11 99.91 989 -0.000344035 3 443.30728329925 782.25882345383
50	1139972 17510 119 543900 1.11 99.91 989 6 6 5934 35604
51	1157482 25175 119 543900 1.11 99.91 989 -0.988104 0.0440217 -15.562095128873 11.952021640345
52	1182657 26812 119 543900 1.11 99.91 989 -1.5 0.0683502 -14.757520136844 16.647394481251
53	1209469 21506 119 543900 1.11 99.91 989 28.9316 30.56 29432.0483 876392.86841999
54	1230975 23385 119 543900 1.11 99.91 989 15.0204 2955.25 1486257.8096 2948362740.8513
55	1254360 22455 119 543900 1.11 99.91 989 242.45 249.05 241030.45 58747865.9525
56	1276815 23047 120 543901 1.11 99.91 989 1.9999 200.49 47959.48146 6355756.2448547
57	1299862 23391 120 543901 1.11 99.91 989 -0.367776 4.80548 1656.0932663801 6502.6684640821
58	1323253 17510 120 543901 1.11 99.91 989 7 7 6923 48461
59	1340763 26741 120 543901 1.11 99.91 989 -2.38822 1.41189 -25.539655066524 143.92138008654
60	1367504 26661 120 543901 1.11 99.91 989 -2.51388 1.5 -23.592439345375 192.8338617907
61	1394165 21999 120 543901 1.11 99.91 989 25.1095 30.56 28885.6173 845412.28357129
62	1416164 23379 120 543901 1.11 99.91 989 9.0204 2894.65 1465660.9703 2859728412.1461
63	1439543 22455 120 543901 1.11 99.91 989 242.45 245.75 241277.95 58865210.6525
64	1461998 39970 702 543961 1.214462500346 99.914472265359 988 0.09998748031 0.100008786771 98.800010245345 9.8800020647174
65	1501968 27259 702 543961 1.214462500346 99.914472265359 988 4 4 3952 15808
66	1529227 39997 769 544022 1.22169752036 99.921694450957 988 0.099987480312 0.100008687073 98.799997410929 9.8799994976439
67	1569224 27264 769 544022 1.22169752036 99.921694450957 988 3 3 2964 8892
68	1596488 40005 903 544132 1.247009640443 99.94700679833 988 0.099987480311 0.10000868712 98.799997638219 9.8799995428707
69	1636493 27276 903 544132 1.247009640443 99.94700679833 988 7 7 6916 48412
70	1663769 39958 970 544211 1.254140740512 99.954138870889 988 0.09998748031 0.10000873759 98.799998610709 9.8799997376545
71	1703727 27248 970 544211 1.254140740512 99.954138870889 988 2 2 1976 3952
72	1730975 40003 1038 544279 1.273478820567 99.973477848811 988 0.099987480311 0.100008687166 98.799999508576 9.8799999169507
73	1770978 27266 1038 544279 1.273478820567 99.973477848811 988 6 6 5928 35568
74	1798244 39994 1105 544370 1.285042840581 99.985043198023 988 0.09998748031 0.100008835184 98.800000837774 9.8800001831129
75	1838238 27280 1105 544370 1.285042840581 99.985043198023 988 5 5 4940 24700
76	1865518 39987 1166 544413 1.293967920636 99.993967784752 988 0.099987480311 0.100008737616 98.800000344448 9.8800000844056
77	1905505 27262 1166 544413 1.293967920636 99.993967784752 988 1 1 988 988
78	1932767 39987 1166 544413 1.293967920636 99.993967784752 988 0.099987480311 0.100008737616 98.800000344448 9.8800000844056
79	1972754 27262 1166 544413 1.293967920636 99.993967784752 988 1 1 988 988
80	2000016 40000 1172 544407 1.29396794065 99.99396760789 988 0.099987480311 0.100008737618 98.800000147572 9.8800000450304
81	2040016 27282 1172 544407 1.29396794065 99.99396760789 988 2 2 1976 3952
82	2067298 40002 1178 544431 1.293967960663 99.993968071488 988 0.099987480311 0.10000873762 98.800000591156 9.8800001337472
83	2107300 27276 1178 544431 1.293967960663 99.993968071488 988 3 3 2964 8892
84	2134576 39975 1184 544401 1.293967980677 99.993967526602 988 0.099987480311 0.100008737624 98.800000026257 9.8800000207674
85	2174551 27277 1184 544401 1.293967980677 99.993967526602 988 4 4 3952 15808
86	2201828 40012 1190 544437 1.293968000691 99.99396819869 988 0.099987480311 0.100008737629 98.800000678331 9.8800001511822
87	2241840 27282 1190 544437 1.293968000691 99.99396819869 988 5 5 4940 24700
88	2269122 40013 1196 544419 1.293968020705 99.993967811029 988 0.099987480311 0.100008737635 98.800000270656 9.8800000696472
89	2309135 27274 1196 544419 1.293968020705 99.993967811029 988 6 6 5928 35568
90	2336409 39998 1202 544425 1.293968040719 99.993968013549 988 0.099987480311 0.100008737642 98.800000453162 9.8800001061484
91	2376407 27264 1202 544425 1.293968040719 99.993968013549 988 7 7 6916 48412
92	2403671 1459 5026 544439 2 100 99 0 0 0 0
93	2405130 2067 5026 544439 2 100 99 0.022473 0.02613030338 2.47160630338 0.061713137820731
94	2407197 1459 5026 544439 2 100 99 0 0 0 0
95	2408656 1459 5027 544440 2 100 99 1 1 99 99
96	2410115 2068 5027 544440 2 100 99 0.022473 0.025898 2.471214046036 0.06169302261439
97	2412183 1459 5027 544440 2 100 99 0 0 0 0
98	2413642 1459 5028 544441 2 100 99 2 2 198 396
99	2415101 2068 5028 544441 2 100 99 0.022473 0.025898 2.471214092388 0.061693024942658
100	2417169 1558 5028 544441 2 100 99 0 0 0 0
101	2418727 1558 5029 544442 2 100 99 3 3 297 891
102	2420285 2167 5029 544442 2 100 99 0.022473 0.025898 2.471214138864 0.061693027277158
103	2422452 1558 5029 544442 2 100 99 0 0 0 0
104	2424010 1558 5030 544443 2 100 99 4 4 396 1584
105	2425568 2166 5030 544443 2 100 99 0.022473 0.025898 2.47121418539 0.061693029614174
106	2427734 1558 5030 544443 2 100 99 0 0 0 0
107	2429292 1558 5031 544444 2 100 99 5 5 495 2475
108	2430850 2167 5031 544444 2 100 99 0.022473 0.025898 2.471214231948 0.061693031952802
109	2433017 1558 5031 544444 2 100 99 0 0 0 0
110	2434575 1558 5032 544445 2 100 99 6 6 594 3564
111	2436133 2167 5032 544445 2 100 99 0.022473 0.025898 2.471214278522 0.061693034292238
112	2438300 1558 5032 544445 2 100 99 0 0 0 0
113	2439858 1558 5033 544446 2 100 99 7 7 693 4851
114	2441416 2167 5033 544446 2 100 99 0.022473 0.025931325104 2.471214325104 0.061693091018649
115	2443583 1558 5033 544446 2 100 99 0 0 0 0

