file 2440634 1720583212                                         
version 3
run BreakRanksNoGui-24-20240710-05:46:42-233481
attr configname BreakRanksNoGui
attr datetime 20240710-05:46:42
attr datetimef 20240710-054642
attr experiment BreakRanksNoGui
attr inifile omnetpp.ini
attr iterationvars "$nCars=8, $platoonSize=8, $nLanes=1, $ploegH=0.5, $controller=1, $headway=0.1, $leaderHeadway=1.2, $leaderSpeed=110, $breakRanksSafetyDistance=3, $minSpeed=100, $maxSpeed=120, $beaconInterval=0.1, $priority=4, $packetSize=200, $sController=\"CACC\", $0=2, $1=0"
attr iterationvarsd nCars=8/platoonSize=8/nLanes=1/ploegH=0.5/controller=1/headway=0.1/leaderHeadway=1.2/leaderSpeed=110/breakRanksSafetyDistance=3/minSpeed=100/maxSpeed=120/beaconInterval=0.1/priority=4/packetSize=200/sController=CACC/2/0
attr iterationvarsf nCars=8,platoonSize=8,nLanes=1,ploegH=0.5,controller=1,headway=0.1,leaderHeadway=1.2,leaderSpeed=110,breakRanksSafetyDistance=3,minSpeed=100,maxSpeed=120,beaconInterval=0.1,priority=4,packetSize=200,sController=CACC,2,0-
attr measurement "$nCars=8, $platoonSize=8, $nLanes=1, $ploegH=0.5, $controller=1, $headway=0.1, $leaderHeadway=1.2, $leaderSpeed=110, $breakRanksSafetyDistance=3, $minSpeed=100, $maxSpeed=120, $beaconInterval=0.1, $priority=4, $packetSize=200, $sController=\"CACC\", $0=2, $1=0"
attr network Highway
attr processid 233481
attr repetition 4
attr replication #4
attr resultdir results
attr runnumber 24
attr seedset 4
itervar beaconInterval 0.1
itervar breakRanksSafetyDistance 3
itervar controller 1
itervar headway 0.1
itervar leaderHeadway 1.2
itervar leaderSpeed 110
itervar maxSpeed 120
itervar minSpeed 100
itervar nCars 8
itervar nLanes 1
itervar packetSize 200
itervar platoonSize 8
itervar ploegH 0.5
itervar priority 4
itervar sController "\"CACC\""
config image-path ../../../veins/images
config repeat 10
config extends BreakRanks
config *.manager.command "\"sumo\""
config *.manager.ignoreGuiCommands true
config output-vector-file results/BreakRanks_1_0.1_110_3/result_4.vec
config output-scalar-file results/BreakRanks_1_0.1_110_3/result_4.sca
config extends Platooning
config *.node[*].scenario_type "\"BreakRanksScenario\""
config *.manager.command "\"sumo-gui\""
config *.node[*].scenario_type "\"SimpleScenario\""
config cmdenv-express-mode true
config cmdenv-autoflush true
config cmdenv-status-frequency 15s
config num-rngs 6
config network Highway
config debug-on-errors true
config print-undisposed true
config *.playgroundSizeX 65000m
config *.playgroundSizeY 25000m
config *.playgroundSizeZ 50m
config sim-time-limit "100 s"
config *.annotations.draw false
config *.obstacles.debug false
config *.world.useTorus false
config *.world.use2D false
config *.manager.updateInterval 0.01s
config *.manager.host "\"localhost\""
config *.manager.moduleType "\"org.car2x.plexe.PlatoonCar\""
config *.manager.moduleName "\"node\""
config *.manager.moduleDisplayString "\"\""
config *.manager.autoShutdown true
config *.manager.margin 25
config *.connectionManager.sendDirect true
config *.connectionManager.maxInterfDist 2600m
config *.connectionManager.drawMaxIntfDist false
config *.**.nic.mac1609_4.useServiceChannel false
config *.**.nic.mac1609_4.txPower 100mW
config *.**.nic.mac1609_4.bitrate 6Mbps
config *.**.nic.mac1609_4.useAcks true
config *.**.nic.mac1609_4.ackErrorRate 0.0
config *.**.nic.mac1609_4.frameErrorRate 0.0
config *.**.nic.phy80211p.minPowerLevel -94dBm
config *.**.nic.phy80211p.maxTXPower 100mW
config *.**.nic.phy80211p.useNoiseFloor true
config *.**.nic.phy80211p.noiseFloor -95dBm
config *.**.nic.phy80211p.decider "xmldoc(\"config.xml\")"
config *.**.nic.phy80211p.analogueModels "xmldoc(\"config.xml\")"
config *.**.nic.phy80211p.usePropagationDelay true
config *.node[*].mobility.x 0
config *.node[*].mobility.y 0
config *.node[*].mobility.z 1.895
config seed-set 4
config **.seed 4
config *.node[*].prot.rng-0 2
config *.node[*].appl.rng-0 3
config *.node[*].scenario.rng-0 4
config **.traffic.rng-0 5
config *.manager.configFile "\"./sumocfg/freeway.sumo.cfg\""
config *.manager.launchConfig "xmldoc(\"./sumocfg/freeway.launchd.xml\")"
config **.numberOfCars 8
config **.numberOfCarsPerPlatoon 8
config **.numberOfLanes 1
config *.node[*].helper_type "\"PositionHelper\""
config *.node[*].scenario.caccC1 0.5
config *.node[*].scenario.caccXi 1
config *.node[*].scenario.caccOmegaN "0.2 Hz"
config *.node[*].scenario.caccSpacing "2 m"
config *.node[*].scenario.engineTau "0.5 s"
config *.node[*].scenario.ploegH 0.5s
config *.node[*].scenario.ploegKp 0.2
config *.node[*].scenario.ploegKd 0.7
config *.node[*].scenario.useRealisticEngine false
config *.node[*].scenario.useControllerAcceleration true
config *.node[*].scenario.nLanes 1
config **.numericController 1
config **.headway 0.1s
config *.node[*].scenario.accHeadway 0.1s
config *.node[*].scenario.leaderHeadway 1.2s
config *.node[*].scenario.leaderSpeed 110kmph
config *.node[*].appl_type "\"SimplePlatooningApp\""
config *.node[*].appl.*.scalar-recording true
config *.node[*].appl.*.vector-recording true
config *.node[0].appl.breakRanksSafetyDistance 3m
config *.node[*].appl.minSpeed 100kmph
config *.node[*].appl.maxSpeed 120kmph
config *.node[*].protocol_type "\"SimplePlatooningBeaconing\""
config *.node[*].prot.*.scalar-recording true
config *.node[*].prot.*.vector-recording true
config *.node[*].prot.beaconingInterval 0.1s
config *.node[*].prot.priority 4
config *.node[*].prot.packetSize 200
config **.traffic_type "\"PlatoonsTrafficManager\""
config **.traffic.platoonInsertTime "1 s"
config **.traffic.platoonInsertSpeed 110kmph
config **.traffic.nCars 8
config **.traffic.platoonSize 8
config **.traffic.nLanes 1
config **.traffic.platooningVType "\"vtypeauto\""
config **.traffic.controller "\"CACC\""
config **.traffic.platoonInsertDistance 2m
config **.traffic.platoonInsertHeadway 0s
config **.traffic.platoonLeaderHeadway 1.2s
config **.scalar-recording false
config **.vector-recording false

vector 0 Highway.node[0].appl distance ETV
vector 1 Highway.node[0].appl relativeSpeed ETV
vector 2 Highway.node[0].appl nodeId ETV
vector 3 Highway.node[0].appl acceleration ETV
vector 4 Highway.node[0].appl controllerAcceleration ETV
vector 5 Highway.node[0].appl speed ETV
vector 6 Highway.node[0].appl posx ETV
vector 7 Highway.node[0].appl posy ETV
vector 8 Highway.node[1].appl distance ETV
vector 9 Highway.node[1].appl relativeSpeed ETV
vector 10 Highway.node[1].appl nodeId ETV
vector 11 Highway.node[1].appl acceleration ETV
vector 12 Highway.node[1].appl controllerAcceleration ETV
vector 13 Highway.node[1].appl speed ETV
vector 14 Highway.node[1].appl posx ETV
vector 15 Highway.node[1].appl posy ETV
vector 16 Highway.node[2].appl distance ETV
vector 17 Highway.node[2].appl relativeSpeed ETV
vector 18 Highway.node[2].appl nodeId ETV
vector 19 Highway.node[2].appl acceleration ETV
vector 20 Highway.node[2].appl controllerAcceleration ETV
vector 21 Highway.node[2].appl speed ETV
vector 22 Highway.node[2].appl posx ETV
vector 23 Highway.node[2].appl posy ETV
vector 24 Highway.node[3].appl distance ETV
vector 25 Highway.node[3].appl relativeSpeed ETV
vector 26 Highway.node[3].appl nodeId ETV
vector 27 Highway.node[3].appl acceleration ETV
vector 28 Highway.node[3].appl controllerAcceleration ETV
vector 29 Highway.node[3].appl speed ETV
vector 30 Highway.node[3].appl posx ETV
vector 31 Highway.node[3].appl posy ETV
vector 32 Highway.node[4].appl distance ETV
vector 33 Highway.node[4].appl relativeSpeed ETV
vector 34 Highway.node[4].appl nodeId ETV
vector 35 Highway.node[4].appl acceleration ETV
vector 36 Highway.node[4].appl controllerAcceleration ETV
vector 37 Highway.node[4].appl speed ETV
vector 38 Highway.node[4].appl posx ETV
vector 39 Highway.node[4].appl posy ETV
vector 40 Highway.node[5].appl distance ETV
vector 41 Highway.node[5].appl relativeSpeed ETV
vector 42 Highway.node[5].appl nodeId ETV
vector 43 Highway.node[5].appl acceleration ETV
vector 44 Highway.node[5].appl controllerAcceleration ETV
vector 45 Highway.node[5].appl speed ETV
vector 46 Highway.node[5].appl posx ETV
vector 47 Highway.node[5].appl posy ETV
vector 48 Highway.node[6].appl distance ETV
vector 49 Highway.node[6].appl relativeSpeed ETV
vector 50 Highway.node[6].appl nodeId ETV
vector 51 Highway.node[6].appl acceleration ETV
vector 52 Highway.node[6].appl controllerAcceleration ETV
vector 53 Highway.node[6].appl speed ETV
vector 54 Highway.node[6].appl posx ETV
vector 55 Highway.node[6].appl posy ETV
vector 56 Highway.node[7].appl distance ETV
vector 57 Highway.node[7].appl relativeSpeed ETV
vector 58 Highway.node[7].appl nodeId ETV
vector 59 Highway.node[7].appl acceleration ETV
vector 60 Highway.node[7].appl controllerAcceleration ETV
vector 61 Highway.node[7].appl speed ETV
vector 62 Highway.node[7].appl posx ETV
vector 63 Highway.node[7].appl posy ETV
vector 64 Highway.node[4].prot frontDelay ETV
vector 65 Highway.node[4].prot frontDelayId ETV
vector 66 Highway.node[1].prot leaderDelay ETV
vector 67 Highway.node[1].prot leaderDelayId ETV
vector 68 Highway.node[1].prot frontDelay ETV
vector 69 Highway.node[1].prot frontDelayId ETV
vector 70 Highway.node[2].prot leaderDelay ETV
vector 71 Highway.node[2].prot leaderDelayId ETV
vector 72 Highway.node[3].prot leaderDelay ETV
vector 73 Highway.node[3].prot leaderDelayId ETV
vector 74 Highway.node[4].prot leaderDelay ETV
vector 75 Highway.node[4].prot leaderDelayId ETV
vector 76 Highway.node[5].prot leaderDelay ETV
vector 77 Highway.node[5].prot leaderDelayId ETV
vector 78 Highway.node[6].prot leaderDelay ETV
vector 79 Highway.node[6].prot leaderDelayId ETV
vector 80 Highway.node[7].prot leaderDelay ETV
vector 81 Highway.node[7].prot leaderDelayId ETV
vector 82 Highway.node[3].prot frontDelay ETV
vector 83 Highway.node[3].prot frontDelayId ETV
vector 84 Highway.node[6].prot frontDelay ETV
vector 85 Highway.node[6].prot frontDelayId ETV
vector 86 Highway.node[2].prot frontDelay ETV
vector 87 Highway.node[2].prot frontDelayId ETV
vector 88 Highway.node[5].prot frontDelay ETV
vector 89 Highway.node[5].prot frontDelayId ETV
vector 90 Highway.node[7].prot frontDelay ETV
vector 91 Highway.node[7].prot frontDelayId ETV
vector 92 Highway.node[0].prot nodeId ETV
vector 93 Highway.node[0].prot busyTime ETV
vector 94 Highway.node[0].prot collisions ETV
vector 95 Highway.node[1].prot nodeId ETV
vector 96 Highway.node[1].prot busyTime ETV
vector 97 Highway.node[1].prot collisions ETV
vector 98 Highway.node[2].prot nodeId ETV
vector 99 Highway.node[2].prot busyTime ETV
vector 100 Highway.node[2].prot collisions ETV
vector 101 Highway.node[3].prot nodeId ETV
vector 102 Highway.node[3].prot busyTime ETV
vector 103 Highway.node[3].prot collisions ETV
vector 104 Highway.node[4].prot nodeId ETV
vector 105 Highway.node[4].prot busyTime ETV
vector 106 Highway.node[4].prot collisions ETV
vector 107 Highway.node[5].prot nodeId ETV
vector 108 Highway.node[5].prot busyTime ETV
vector 109 Highway.node[5].prot collisions ETV
vector 110 Highway.node[6].prot nodeId ETV
vector 111 Highway.node[6].prot busyTime ETV
vector 112 Highway.node[6].prot collisions ETV
vector 113 Highway.node[7].prot nodeId ETV
vector 114 Highway.node[7].prot busyTime ETV
vector 115 Highway.node[7].prot collisions ETV
0	11185 17510 113 543894 1.11 99.91 989 -1 -1 -989 989
1	28695 16521 113 543894 1.11 99.91 989 0 0 0 0
2	45216 16521 113 543894 1.11 99.91 989 0 0 0 0
3	61737 19109 113 543894 1.11 99.91 989 -0.00283113 0.000125957 -0.043966303784312 9.6812896349407e-05
4	80846 26489 113 543894 1.11 99.91 989 -0.00437036 0.00019576 -0.042459310034081 0.00013890441444735
5	107335 22451 113 543894 1.11 99.91 989 30.5554 30.56 30219.5304 923377.16656332
6	129786 22360 113 543894 1.11 99.91 989 66.0304 3084.93 1558150.7216 3207479615.8964
7	152146 21466 113 543894 1.11 99.91 989 242.45 242.45 239783.05 58135400.472499
8	173612 20011 114 543895 1.11 99.91 989 -1 2.99713 865.65459 4093.6771982527
9	193623 21019 114 543895 1.11 99.91 989 -0.000377192 0.0796544 9.97154410554 0.52702529575765
10	214642 17510 114 543895 1.11 99.91 989 1 1 989 989
11	232152 26182 114 543895 1.11 99.91 989 -0.357361 0.0159569 -5.5693117876962 1.567429178928
12	258334 27162 114 543895 1.11 99.91 989 -0.546579 0.0248046 -5.0906025046753 2.075008361243
13	285496 21395 114 543895 1.11 99.91 989 29.9752 30.56 29948.9883 906988.55285859
14	306891 22949 114 543895 1.11 99.91 989 60.0304 3051.9 1545307.7763 3154175540.6475
15	329840 22455 114 543895 1.11 99.91 989 242.45 245.75 241360.45 58905487.1525
16	352295 23318 115 543896 1.11 99.91 989 1.99964 49.8612 18021.30482 638618.39667068
17	375613 24779 115 543896 1.11 99.91 989 -0.00012811 2.45644 408.91801888475 462.75918331222
18	400392 17510 115 543896 1.11 99.91 989 2 2 1978 3956
19	417902 26295 115 543896 1.11 99.91 989 -1.55245 0.271809 -5.5552395809055 31.899383900015
20	444197 26656 115 543896 1.11 99.91 989 -2.36876 0.306569 -4.4492596760974 44.291009353404
21	470853 22149 115 543896 1.11 99.91 989 28.0992 30.56 29800.6411 898242.54186173
22	493002 23353 115 543896 1.11 99.91 989 54.0304 3031.07 1532786.6511 3104817538.2011
23	516355 22455 115 543896 1.11 99.91 989 242.45 242.45 239783.05 58135400.472499
24	538810 23188 116 543897 1.11 99.91 989 1.99962 101.413 22507.3067 1295658.4427113
25	561998 23484 116 543897 1.11 99.91 989 -9.98491e-05 3.00423 1217.6298805937 3220.0634510766
26	585482 17510 116 543897 1.11 99.91 989 3 3 2967 8901
27	602992 25924 116 543897 1.11 99.91 989 -2.33509 0.537347 -35.55080424372 100.75298780068
28	628916 26901 116 543897 1.11 99.91 989 -2.96569 0.576857 -34.246398074174 123.78665546548
29	655817 21737 116 543897 1.11 99.91 989 25.3659 30.56 28472.0131 822919.48797883
30	677554 23371 116 543897 1.11 99.91 989 48.0304 2892.35 1496746.577 2934940428.9868
31	700925 22455 116 543897 1.11 99.91 989 242.45 242.45 239783.05 58135400.472499
32	723380 23260 117 543898 1.11 99.91 989 1.99994 97.4929 27749.23188 1981190.5753683
33	746640 23488 117 543898 1.11 99.91 989 -4.12144e-05 4.39614 606.91518926038 993.08718021765
34	770128 17510 117 543898 1.11 99.91 989 4 4 3956 15824
35	787638 25889 117 543898 1.11 99.91 989 -2.58159 1.45522 -15.560915889374 211.34934727237
36	813527 26536 117 543898 1.11 99.91 989 -2.96856 1.5 -13.617540185831 244.08174743571
37	840063 22060 117 543898 1.11 99.91 989 22.9275 30.56 29002.5571 853547.66799905
38	862123 23368 117 543898 1.11 99.91 989 42.0304 2939.31 1495606.5845 2946407668.7151
39	885491 22455 117 543898 1.11 99.91 989 242.45 245.75 240670.75 58568775.6125
40	907946 22911 118 543899 1.11 99.91 989 -1 110.118 31664.244551 2645836.3832755
41	930857 22917 118 543899 1.11 99.91 989 -9.22847e-05 9.40782 928.27506371193 3531.0629605728
42	953774 17510 118 543899 1.11 99.91 989 5 5 4945 24725
43	971284 25652 118 543899 1.11 99.91 989 -2.63569 1.4998 -15.566849706073 304.8130800848
44	996936 26428 118 543899 1.11 99.91 989 -2.96806 1.5 -13.214644727521 347.15297166537
45	1023364 21923 118 543899 1.11 99.91 989 21.4019 30.56 29047.3042 856230.77224366
46	1045287 23383 118 543899 1.11 99.91 989 36.0304 2937.78 1490838.8438 2934989213.3046
47	1068670 22455 118 543899 1.11 99.91 989 242.45 252.35 242439.55 59441451.372501
48	1091125 20939 119 543900 1.11 99.91 989 -1 2.93057 746.731 3476.4017990108
49	1112064 21887 119 543900 1.11 99.91 989 -0.000103228 0.0382905 9.309279259648 0.26273907173202
50	1133951 17510 119 543900 1.11 99.91 989 6 6 5934 35604
51	1151461 26851 119 543900 1.11 99.91 989 -0.0658723 0.301356 4.4359186271568 1.2511976059427
52	1178312 26805 119 543900 1.11 99.91 989 -0.0777051 0.468278 4.7729474224305 1.9579919674538
53	1205117 21402 119 543900 1.11 99.91 989 30.2756 31.0208 30368.695 932596.0885132
54	1226519 23377 119 543900 1.11 99.91 989 30.0304 3063.82 1523033.6499 3105059838.8087
55	1249896 22455 119 543900 1.11 99.91 989 242.45 249.05 242937.84999999 59685984.672502
56	1272351 22148 120 543901 1.11 99.91 989 -1 37.9245 10210.01241 351613.21387882
57	1294499 23848 120 543901 1.11 99.91 989 -0.217096 0.0790189 10.896229340455 1.1168821593661
58	1318347 17510 120 543901 1.11 99.91 989 7 7 6923 48461
59	1335857 26456 120 543901 1.11 99.91 989 -0.223936 1.21904 14.467405142515 20.035422190067
60	1362313 26477 120 543901 1.11 99.91 989 -0.247384 1.5 15.286509634636 27.518933574364
61	1388790 22739 120 543901 1.11 99.91 989 29.9164 32.0843 30333.4414 930884.26202336
62	1411529 23332 120 543901 1.11 99.91 989 24.0304 3054.25 1510419.0373 3055704017.2164
63	1434861 22455 120 543901 1.11 99.91 989 242.45 252.35 242898.25 59671465.3325
64	1457316 40025 771 544006 1.240521540375 99.94051697461 988 0.099987440288 0.100008768538 98.799995874541 9.8799991873424
65	1497341 27295 771 544006 1.240521540375 99.94051697461 988 4 4 3952 15808
66	1524636 39987 831 544078 1.241802600416 99.941811571339 988 0.099987440286 0.100003680442 98.800009411228 9.8800018944183
67	1564623 27275 831 544078 1.241802600416 99.941811571339 988 1 1 988 988
68	1591898 39987 831 544078 1.241802600416 99.941811571339 988 0.099987440286 0.100003680442 98.800009411228 9.8800018944183
69	1631885 27275 831 544078 1.241802600416 99.941811571339 988 1 1 988 988
70	1659160 40005 837 544084 1.24180262043 99.941811640288 988 0.099987440286 0.100003680442 98.800009460163 9.8800019042053
71	1699165 27281 837 544084 1.24180262043 99.941811640288 988 2 2 1976 3952
72	1726446 40009 843 544102 1.241802640443 99.941812103385 988 0.099987440286 0.100003680442 98.800009903246 9.8800019928219
73	1766455 27272 843 544102 1.241802640443 99.941812103385 988 3 3 2964 8892
74	1793727 40014 849 544090 1.241802660457 99.941811946494 988 0.099987440286 0.100003680442 98.800009726342 9.8800019574411
75	1833741 27270 849 544090 1.241802660457 99.941811946494 988 4 4 3952 15808
76	1861011 39984 855 544096 1.241802680471 99.941811951705 988 0.099987440286 0.100003680442 98.800009711539 9.8800019544805
77	1900995 27259 855 544096 1.241802680471 99.941811951705 988 5 5 4940 24700
78	1928254 40007 861 544066 1.241802700485 99.941811534259 988 0.099987440286 0.100003680442 98.800009274079 9.8800018669885
79	1968261 27269 861 544066 1.241802700485 99.941811534259 988 6 6 5928 35568
80	1995530 39991 867 544072 1.241802720499 99.941811567906 988 0.099987440286 0.100003680442 98.800009287712 9.8800018697151
81	2035521 27270 867 544072 1.241802720499 99.941811567906 988 7 7 6916 48412
82	2062791 40008 905 544170 1.262739640444 99.962736103585 988 0.099987440287 0.100008788629 98.799996903446 9.8799993936156
83	2102799 27271 905 544170 1.262739640444 99.962736103585 988 3 3 2964 8892
84	2130070 40010 971 544230 1.266698700486 99.966695372808 988 0.099987440288 0.100008776849 98.799997112627 9.8799994351745
85	2170080 27260 971 544230 1.266698700486 99.966695372808 988 6 6 5928 35568
86	2197340 39993 1039 544280 1.281915780541 99.981912403064 988 0.099987440287 0.10000878864 98.799997062828 9.8799994252686
87	2237333 27267 1039 544280 1.281915780541 99.981912403064 988 2 2 1976 3952
88	2264600 40019 1105 544334 1.287382840583 99.987379720825 988 0.099987440287 0.10000878613 98.799997320547 9.8799994770456
89	2304619 27267 1105 544334 1.287382840583 99.987379720825 988 5 5 4940 24700
90	2331886 40001 1171 544400 1.289456880611 99.989454158679 988 0.099987440287 0.100008776896 98.799997718373 9.8799995563247
91	2371887 27275 1171 544400 1.289456880611 99.989454158679 988 7 7 6916 48412
92	2399162 1459 5026 544439 2 100 99 0 0 0 0
93	2400621 2068 5026 544439 2 100 99 0.022473 0.026130303376 2.471606303376 0.061713137820522
94	2402689 1459 5026 544439 2 100 99 0 0 0 0
95	2404148 1459 5027 544440 2 100 99 1 1 99 99
96	2405607 2068 5027 544440 2 100 99 0.022473 0.025898 2.471214046036 0.06169302261439
97	2407675 1459 5027 544440 2 100 99 0 0 0 0
98	2409134 1459 5028 544441 2 100 99 2 2 198 396
99	2410593 2068 5028 544441 2 100 99 0.022473 0.025898 2.471214092386 0.061693024942557
100	2412661 1558 5028 544441 2 100 99 0 0 0 0
101	2414219 1558 5029 544442 2 100 99 3 3 297 891
102	2415777 2167 5029 544442 2 100 99 0.022473 0.025898 2.471214138862 0.061693027277057
103	2417944 1558 5029 544442 2 100 99 0 0 0 0
104	2419502 1558 5030 544443 2 100 99 4 4 396 1584
105	2421060 2167 5030 544443 2 100 99 0.022473 0.025898 2.471214185388 0.061693029614073
106	2423227 1558 5030 544443 2 100 99 0 0 0 0
107	2424785 1558 5031 544444 2 100 99 5 5 495 2475
108	2426343 2167 5031 544444 2 100 99 0.022473 0.025898 2.471214231946 0.061693031952701
109	2428510 1558 5031 544444 2 100 99 0 0 0 0
110	2430068 1558 5032 544445 2 100 99 6 6 594 3564
111	2431626 2166 5032 544445 2 100 99 0.022473 0.025898 2.47121427852 0.061693034292137
112	2433792 1558 5032 544445 2 100 99 0 0 0 0
113	2435350 1558 5033 544446 2 100 99 7 7 693 4851
114	2436908 2167 5033 544446 2 100 99 0.022473 0.025931325102 2.471214325102 0.061693091018545
115	2439075 1558 5033 544446 2 100 99 0 0 0 0

