file 2448589 1720583254                                         
version 3
run BreakRanksNoGui-28-20240710-05:47:24-233567
attr configname BreakRanksNoGui
attr datetime 20240710-05:47:24
attr datetimef 20240710-054724
attr experiment BreakRanksNoGui
attr inifile omnetpp.ini
attr iterationvars "$nCars=8, $platoonSize=8, $nLanes=1, $ploegH=0.5, $controller=1, $headway=0.1, $leaderHeadway=1.2, $leaderSpeed=110, $breakRanksSafetyDistance=3, $minSpeed=100, $maxSpeed=120, $beaconInterval=0.1, $priority=4, $packetSize=200, $sController=\"CACC\", $0=2, $1=0"
attr iterationvarsd nCars=8/platoonSize=8/nLanes=1/ploegH=0.5/controller=1/headway=0.1/leaderHeadway=1.2/leaderSpeed=110/breakRanksSafetyDistance=3/minSpeed=100/maxSpeed=120/beaconInterval=0.1/priority=4/packetSize=200/sController=CACC/2/0
attr iterationvarsf nCars=8,platoonSize=8,nLanes=1,ploegH=0.5,controller=1,headway=0.1,leaderHeadway=1.2,leaderSpeed=110,breakRanksSafetyDistance=3,minSpeed=100,maxSpeed=120,beaconInterval=0.1,priority=4,packetSize=200,sController=CACC,2,0-
attr measurement "$nCars=8, $platoonSize=8, $nLanes=1, $ploegH=0.5, $controller=1, $headway=0.1, $leaderHeadway=1.2, $leaderSpeed=110, $breakRanksSafetyDistance=3, $minSpeed=100, $maxSpeed=120, $beaconInterval=0.1, $priority=4, $packetSize=200, $sController=\"CACC\", $0=2, $1=0"
attr network Highway
attr processid 233567
attr repetition 8
attr replication #8
attr resultdir results
attr runnumber 28
attr seedset 8
itervar beaconInterval 0.1
itervar breakRanksSafetyDistance 3
itervar controller 1
itervar headway 0.1
itervar leaderHeadway 1.2
itervar leaderSpeed 110
itervar maxSpeed 120
itervar minSpeed 100
itervar nCars 8
itervar nLanes 1
itervar packetSize 200
itervar platoonSize 8
itervar ploegH 0.5
itervar priority 4
itervar sController "\"CACC\""
config image-path ../../../veins/images
config repeat 10
config extends BreakRanks
config *.manager.command "\"sumo\""
config *.manager.ignoreGuiCommands true
config output-vector-file results/BreakRanks_1_0.1_110_3/result_8.vec
config output-scalar-file results/BreakRanks_1_0.1_110_3/result_8.sca
config extends Platooning
config *.node[*].scenario_type "\"BreakRanksScenario\""
config *.manager.command "\"sumo-gui\""
config *.node[*].scenario_type "\"SimpleScenario\""
config cmdenv-express-mode true
config cmdenv-autoflush true
config cmdenv-status-frequency 15s
config num-rngs 6
config network Highway
config debug-on-errors true
config print-undisposed true
config *.playgroundSizeX 65000m
config *.playgroundSizeY 25000m
config *.playgroundSizeZ 50m
config sim-time-limit "100 s"
config *.annotations.draw false
config *.obstacles.debug false
config *.world.useTorus false
config *.world.use2D false
config *.manager.updateInterval 0.01s
config *.manager.host "\"localhost\""
config *.manager.moduleType "\"org.car2x.plexe.PlatoonCar\""
config *.manager.moduleName "\"node\""
config *.manager.moduleDisplayString "\"\""
config *.manager.autoShutdown true
config *.manager.margin 25
config *.connectionManager.sendDirect true
config *.connectionManager.maxInterfDist 2600m
config *.connectionManager.drawMaxIntfDist false
config *.**.nic.mac1609_4.useServiceChannel false
config *.**.nic.mac1609_4.txPower 100mW
config *.**.nic.mac1609_4.bitrate 6Mbps
config *.**.nic.mac1609_4.useAcks true
config *.**.nic.mac1609_4.ackErrorRate 0.0
config *.**.nic.mac1609_4.frameErrorRate 0.0
config *.**.nic.phy80211p.minPowerLevel -94dBm
config *.**.nic.phy80211p.maxTXPower 100mW
config *.**.nic.phy80211p.useNoiseFloor true
config *.**.nic.phy80211p.noiseFloor -95dBm
config *.**.nic.phy80211p.decider "xmldoc(\"config.xml\")"
config *.**.nic.phy80211p.analogueModels "xmldoc(\"config.xml\")"
config *.**.nic.phy80211p.usePropagationDelay true
config *.node[*].mobility.x 0
config *.node[*].mobility.y 0
config *.node[*].mobility.z 1.895
config seed-set 8
config **.seed 8
config *.node[*].prot.rng-0 2
config *.node[*].appl.rng-0 3
config *.node[*].scenario.rng-0 4
config **.traffic.rng-0 5
config *.manager.configFile "\"./sumocfg/freeway.sumo.cfg\""
config *.manager.launchConfig "xmldoc(\"./sumocfg/freeway.launchd.xml\")"
config **.numberOfCars 8
config **.numberOfCarsPerPlatoon 8
config **.numberOfLanes 1
config *.node[*].helper_type "\"PositionHelper\""
config *.node[*].scenario.caccC1 0.5
config *.node[*].scenario.caccXi 1
config *.node[*].scenario.caccOmegaN "0.2 Hz"
config *.node[*].scenario.caccSpacing "2 m"
config *.node[*].scenario.engineTau "0.5 s"
config *.node[*].scenario.ploegH 0.5s
config *.node[*].scenario.ploegKp 0.2
config *.node[*].scenario.ploegKd 0.7
config *.node[*].scenario.useRealisticEngine false
config *.node[*].scenario.useControllerAcceleration true
config *.node[*].scenario.nLanes 1
config **.numericController 1
config **.headway 0.1s
config *.node[*].scenario.accHeadway 0.1s
config *.node[*].scenario.leaderHeadway 1.2s
config *.node[*].scenario.leaderSpeed 110kmph
config *.node[*].appl_type "\"SimplePlatooningApp\""
config *.node[*].appl.*.scalar-recording true
config *.node[*].appl.*.vector-recording true
config *.node[0].appl.breakRanksSafetyDistance 3m
config *.node[*].appl.minSpeed 100kmph
config *.node[*].appl.maxSpeed 120kmph
config *.node[*].protocol_type "\"SimplePlatooningBeaconing\""
config *.node[*].prot.*.scalar-recording true
config *.node[*].prot.*.vector-recording true
config *.node[*].prot.beaconingInterval 0.1s
config *.node[*].prot.priority 4
config *.node[*].prot.packetSize 200
config **.traffic_type "\"PlatoonsTrafficManager\""
config **.traffic.platoonInsertTime "1 s"
config **.traffic.platoonInsertSpeed 110kmph
config **.traffic.nCars 8
config **.traffic.platoonSize 8
config **.traffic.nLanes 1
config **.traffic.platooningVType "\"vtypeauto\""
config **.traffic.controller "\"CACC\""
config **.traffic.platoonInsertDistance 2m
config **.traffic.platoonInsertHeadway 0s
config **.traffic.platoonLeaderHeadway 1.2s
config **.scalar-recording false
config **.vector-recording false

vector 0 Highway.node[0].appl distance ETV
vector 1 Highway.node[0].appl relativeSpeed ETV
vector 2 Highway.node[0].appl nodeId ETV
vector 3 Highway.node[0].appl acceleration ETV
vector 4 Highway.node[0].appl controllerAcceleration ETV
vector 5 Highway.node[0].appl speed ETV
vector 6 Highway.node[0].appl posx ETV
vector 7 Highway.node[0].appl posy ETV
vector 8 Highway.node[1].appl distance ETV
vector 9 Highway.node[1].appl relativeSpeed ETV
vector 10 Highway.node[1].appl nodeId ETV
vector 11 Highway.node[1].appl acceleration ETV
vector 12 Highway.node[1].appl controllerAcceleration ETV
vector 13 Highway.node[1].appl speed ETV
vector 14 Highway.node[1].appl posx ETV
vector 15 Highway.node[1].appl posy ETV
vector 16 Highway.node[2].appl distance ETV
vector 17 Highway.node[2].appl relativeSpeed ETV
vector 18 Highway.node[2].appl nodeId ETV
vector 19 Highway.node[2].appl acceleration ETV
vector 20 Highway.node[2].appl controllerAcceleration ETV
vector 21 Highway.node[2].appl speed ETV
vector 22 Highway.node[2].appl posx ETV
vector 23 Highway.node[2].appl posy ETV
vector 24 Highway.node[3].appl distance ETV
vector 25 Highway.node[3].appl relativeSpeed ETV
vector 26 Highway.node[3].appl nodeId ETV
vector 27 Highway.node[3].appl acceleration ETV
vector 28 Highway.node[3].appl controllerAcceleration ETV
vector 29 Highway.node[3].appl speed ETV
vector 30 Highway.node[3].appl posx ETV
vector 31 Highway.node[3].appl posy ETV
vector 32 Highway.node[4].appl distance ETV
vector 33 Highway.node[4].appl relativeSpeed ETV
vector 34 Highway.node[4].appl nodeId ETV
vector 35 Highway.node[4].appl acceleration ETV
vector 36 Highway.node[4].appl controllerAcceleration ETV
vector 37 Highway.node[4].appl speed ETV
vector 38 Highway.node[4].appl posx ETV
vector 39 Highway.node[4].appl posy ETV
vector 40 Highway.node[5].appl distance ETV
vector 41 Highway.node[5].appl relativeSpeed ETV
vector 42 Highway.node[5].appl nodeId ETV
vector 43 Highway.node[5].appl acceleration ETV
vector 44 Highway.node[5].appl controllerAcceleration ETV
vector 45 Highway.node[5].appl speed ETV
vector 46 Highway.node[5].appl posx ETV
vector 47 Highway.node[5].appl posy ETV
vector 48 Highway.node[6].appl distance ETV
vector 49 Highway.node[6].appl relativeSpeed ETV
vector 50 Highway.node[6].appl nodeId ETV
vector 51 Highway.node[6].appl acceleration ETV
vector 52 Highway.node[6].appl controllerAcceleration ETV
vector 53 Highway.node[6].appl speed ETV
vector 54 Highway.node[6].appl posx ETV
vector 55 Highway.node[6].appl posy ETV
vector 56 Highway.node[7].appl distance ETV
vector 57 Highway.node[7].appl relativeSpeed ETV
vector 58 Highway.node[7].appl nodeId ETV
vector 59 Highway.node[7].appl acceleration ETV
vector 60 Highway.node[7].appl controllerAcceleration ETV
vector 61 Highway.node[7].appl speed ETV
vector 62 Highway.node[7].appl posx ETV
vector 63 Highway.node[7].appl posy ETV
vector 64 Highway.node[4].prot frontDelay ETV
vector 65 Highway.node[4].prot frontDelayId ETV
vector 66 Highway.node[2].prot frontDelay ETV
vector 67 Highway.node[2].prot frontDelayId ETV
vector 68 Highway.node[3].prot frontDelay ETV
vector 69 Highway.node[3].prot frontDelayId ETV
vector 70 Highway.node[5].prot frontDelay ETV
vector 71 Highway.node[5].prot frontDelayId ETV
vector 72 Highway.node[7].prot frontDelay ETV
vector 73 Highway.node[7].prot frontDelayId ETV
vector 74 Highway.node[1].prot leaderDelay ETV
vector 75 Highway.node[1].prot leaderDelayId ETV
vector 76 Highway.node[1].prot frontDelay ETV
vector 77 Highway.node[1].prot frontDelayId ETV
vector 78 Highway.node[2].prot leaderDelay ETV
vector 79 Highway.node[2].prot leaderDelayId ETV
vector 80 Highway.node[3].prot leaderDelay ETV
vector 81 Highway.node[3].prot leaderDelayId ETV
vector 82 Highway.node[4].prot leaderDelay ETV
vector 83 Highway.node[4].prot leaderDelayId ETV
vector 84 Highway.node[5].prot leaderDelay ETV
vector 85 Highway.node[5].prot leaderDelayId ETV
vector 86 Highway.node[6].prot leaderDelay ETV
vector 87 Highway.node[6].prot leaderDelayId ETV
vector 88 Highway.node[7].prot leaderDelay ETV
vector 89 Highway.node[7].prot leaderDelayId ETV
vector 90 Highway.node[6].prot frontDelay ETV
vector 91 Highway.node[6].prot frontDelayId ETV
vector 92 Highway.node[0].prot nodeId ETV
vector 93 Highway.node[0].prot busyTime ETV
vector 94 Highway.node[0].prot collisions ETV
vector 95 Highway.node[1].prot nodeId ETV
vector 96 Highway.node[1].prot busyTime ETV
vector 97 Highway.node[1].prot collisions ETV
vector 98 Highway.node[2].prot nodeId ETV
vector 99 Highway.node[2].prot busyTime ETV
vector 100 Highway.node[2].prot collisions ETV
vector 101 Highway.node[3].prot nodeId ETV
vector 102 Highway.node[3].prot busyTime ETV
vector 103 Highway.node[3].prot collisions ETV
vector 104 Highway.node[4].prot nodeId ETV
vector 105 Highway.node[4].prot busyTime ETV
vector 106 Highway.node[4].prot collisions ETV
vector 107 Highway.node[5].prot nodeId ETV
vector 108 Highway.node[5].prot busyTime ETV
vector 109 Highway.node[5].prot collisions ETV
vector 110 Highway.node[6].prot nodeId ETV
vector 111 Highway.node[6].prot busyTime ETV
vector 112 Highway.node[6].prot collisions ETV
vector 113 Highway.node[7].prot nodeId ETV
vector 114 Highway.node[7].prot busyTime ETV
vector 115 Highway.node[7].prot collisions ETV
0	11185 17510 113 543894 1.11 99.91 989 -1 -1 -989 989
1	28695 16521 113 543894 1.11 99.91 989 0 0 0 0
2	45216 16521 113 543894 1.11 99.91 989 0 0 0 0
3	61737 19109 113 543894 1.11 99.91 989 -0.00283113 0.000125957 -0.043966303784312 9.6812896349407e-05
4	80846 26489 113 543894 1.11 99.91 989 -0.00437036 0.00019576 -0.042459310034081 0.00013890441444735
5	107335 22451 113 543894 1.11 99.91 989 30.5554 30.56 30219.5304 923377.16656332
6	129786 22349 113 543894 1.11 99.91 989 65.6804 3084.58 1557804.5716 3206389031.5438
7	152135 21466 113 543894 1.11 99.91 989 242.45 242.45 239783.05 58135400.472499
8	173601 20014 114 543895 1.11 99.91 989 -1 2.99713 865.64225 4093.6245154031
9	193615 21013 114 543895 1.11 99.91 989 -0.0004354 0.0796597 9.97154269263 0.52709732984598
10	214628 17510 114 543895 1.11 99.91 989 1 1 989 989
11	232138 25453 114 543895 1.11 99.91 989 -0.999857 0.0445381 -15.562115119061 12.10140143505
12	257591 27102 114 543895 1.11 99.91 989 -1.5 0.0691478 -14.763573245663 16.884972424171
13	284693 21499 114 543895 1.11 99.91 989 28.9308 30.56 29480.6008 879348.78693922
14	306192 23384 114 543895 1.11 99.91 989 59.6804 3004.76 1533991.8516 3096730259.2801
15	329576 22455 114 543895 1.11 99.91 989 242.45 245.75 241360.45 58905487.1525
16	352031 23333 115 543896 1.11 99.91 989 1.99977 38.3886 16634.57441 523396.4793845
17	375364 25284 115 543896 1.11 99.91 989 -8.70308e-05 2.45644 293.92834730388 384.8352869687
18	400648 17510 115 543896 1.11 99.91 989 2 2 1978 3956
19	418158 26093 115 543896 1.11 99.91 989 -1.55245 0.271809 -0.27423607828099 32.059876919713
20	444251 26129 115 543896 1.11 99.91 989 -2.36876 0.306569 0.84599649039001 44.447145636468
21	470380 23333 115 543896 1.11 99.91 989 28.0992 30.56 29915.631 905191.78837356
22	493713 23336 115 543896 1.11 99.91 989 53.6804 3042.19 1533826.2722 3111458547.6353
23	517049 22455 115 543896 1.11 99.91 989 242.45 242.45 239783.05 58135400.472499
24	539504 23290 116 543897 1.11 99.91 989 1.99976 38.278 15496.11321 476414.00584689
25	562794 25217 116 543897 1.11 99.91 989 -3.43232e-05 2.93044 362.79923011236 575.99558960382
26	588011 17510 116 543897 1.11 99.91 989 3 3 2967 8901
27	605521 25826 116 543897 1.11 99.91 989 -2.33509 0.537347 -0.65208469418099 107.36478906674
28	631347 25838 116 543897 1.11 99.91 989 -2.96569 0.576856 0.68671687782 130.15932739855
29	657185 23342 116 543897 1.11 99.91 989 25.3659 30.56 29552.8311 884511.65948187
30	680527 23330 116 543897 1.11 99.91 989 47.6804 2999.91 1514374.2544 3027993908.0992
31	703857 22455 116 543897 1.11 99.91 989 242.45 242.45 239783.05 58135400.472499
32	726312 23322 117 543898 1.11 99.91 989 1.99982 107.768 26048.36975 1770082.3417572
33	749634 24421 117 543898 1.11 99.91 989 -4.78815e-05 3.43601 1179.398516874 3177.7985602788
34	774055 17510 117 543898 1.11 99.91 989 4 4 3956 15824
35	791565 26171 117 543898 1.11 99.91 989 -2.58159 0.755794 -35.550785489247 178.19996830129
36	817736 26617 117 543898 1.11 99.91 989 -2.96856 0.795189 -34.244768797922 202.74673226938
37	844353 21946 117 543898 1.11 99.91 989 22.9275 30.56 28285.4801 813385.30748295
38	866299 23387 117 543898 1.11 99.91 989 41.6804 2867.35 1482414.6954 2879323706.8454
39	889686 22455 117 543898 1.11 99.91 989 242.45 242.45 239783.05 58135400.472499
40	912141 23232 118 543899 1.11 99.91 989 1.99988 44.0267 19558.12324 782182.39480175
41	935373 26379 118 543899 1.11 99.91 989 -0.103857 8.98678 363.51775316055 2194.0260611307
42	961752 17510 118 543899 1.11 99.91 989 5 5 4945 24725
43	979262 25754 118 543899 1.11 99.91 989 -2.63569 1.49997 -5.5367894964447 329.72616111784
44	1005016 26339 118 543899 1.11 99.91 989 -2.96807 1.5 -3.9744929574873 367.13907422881
45	1031355 21991 118 543899 1.11 99.91 989 21.0111 30.56 29361.7884 875266.19074016
46	1053346 23376 118 543899 1.11 99.91 989 35.6804 2968.83 1495119.3036 2958925330.2733
47	1076722 22455 118 543899 1.11 99.91 989 242.45 249.05 242627.64999999 59533521.372502
48	1099177 20944 119 543900 1.11 99.91 989 -1 2.93072 746.67137 3476.2110658481
49	1120121 21895 119 543900 1.11 99.91 989 -0.000469608 0.0383802 9.3108158719295 0.26353016669042
50	1142016 17510 119 543900 1.11 99.91 989 6 6 5934 35604
51	1159526 27073 119 543900 1.11 99.91 989 -0.345545 0.0154217 -5.5682551166596 1.5983500849345
52	1186599 26897 119 543900 1.11 99.91 989 -0.527767 0.0239755 -5.0766454422902 2.0726380552723
53	1213496 21406 119 543900 1.11 99.91 989 29.976 30.56 29900.442 904032.87554386
54	1234902 22950 119 543900 1.11 99.91 989 29.6804 3016.7 1511726.0778 3047751521.0543
55	1257852 22455 119 543900 1.11 99.91 989 242.45 249.05 242937.84999999 59685984.672502
56	1280307 23153 120 543901 1.11 99.91 989 1.99957 37.7868 18711.65641 649033.11685523
57	1303460 25248 120 543901 1.11 99.91 989 -0.00157749 1.48958 97.440453749073 129.19717070654
58	1328708 17510 120 543901 1.11 99.91 989 7 7 6923 48461
59	1346218 25166 120 543901 1.11 99.91 989 -0.982298 0.0438111 -15.551516734304 11.833587577525
60	1371384 26806 120 543901 1.11 99.91 989 -1.5 0.068051 -14.580730756288 16.209574320844
61	1398190 21516 120 543901 1.11 99.91 989 28.9319 30.56 29422.7569 875828.40188209
62	1419706 23373 120 543901 1.11 99.91 989 23.6804 2962.98 1494196.7278 2971722211.4537
63	1443079 22455 120 543901 1.11 99.91 989 242.45 245.75 241162.45 58808823.5525
64	1465534 39997 768 544033 1.218681580402 99.918677836739 988 0.099987480317 0.100008782348 98.79999673667 9.8799993581769
65	1505531 27265 768 544033 1.218681580402 99.918677836739 988 4 4 3952 15808
66	1532796 40012 835 544082 1.22410962043 99.924105539406 988 0.099987480318 0.100008776819 98.799996399309 9.879999290409
67	1572808 27276 835 544082 1.22410962043 99.924105539406 988 2 2 1976 3952
68	1600084 39988 902 544143 1.233905640444 99.933901680434 988 0.099987480317 0.100008834665 98.799996520323 9.8799993149309
69	1640072 27257 902 544143 1.233905640444 99.933901680434 988 3 3 2964 8892
70	1667329 39974 968 544203 1.236616680472 99.936613462476 988 0.099987480317 0.100008834668 98.799997262337 9.8799994633321
71	1707303 27248 968 544203 1.236616680472 99.936613462476 988 5 5 4940 24700
72	1734551 39981 1036 544289 1.2505597205 99.950556802607 988 0.099987480318 0.100008768585 98.79999756244 9.87999952305
73	1774532 27258 1036 544289 1.2505597205 99.950556802607 988 7 7 6916 48412
74	1801790 39997 1097 544344 1.260290840583 99.960288116217 988 0.099987480317 0.100008834681 98.799997755967 9.8799995620605
75	1841787 27269 1097 544344 1.260290840583 99.960288116217 988 1 1 988 988
76	1869056 39997 1097 544344 1.260290840583 99.960288116217 988 0.099987480317 0.100008834681 98.799997755967 9.8799995620605
77	1909053 27269 1097 544344 1.260290840583 99.960288116217 988 1 1 988 988
78	1936322 40007 1103 544332 1.260290860597 99.960287990894 988 0.099987480317 0.100008834682 98.79999761063 9.8799995329931
79	1976329 27276 1103 544332 1.260290860597 99.960287990894 988 2 2 1976 3952
80	2003605 39978 1109 544350 1.26029088061 99.960288131925 988 0.099987480317 0.100008834683 98.799997731647 9.8799995571965
81	2043583 27255 1109 544350 1.26029088061 99.960288131925 988 3 3 2964 8892
82	2070838 40003 1115 544368 1.260290900624 99.960288574681 988 0.099987480317 0.100008834685 98.79999815439 9.8799996417451
83	2110841 27266 1115 544368 1.260290900624 99.960288574681 988 4 4 3952 15808
84	2138107 39982 1121 544356 1.260290920638 99.960288236304 988 0.099987480317 0.100008834687 98.799997795999 9.8799995700669
85	2178089 27266 1121 544356 1.260290920638 99.960288236304 988 5 5 4940 24700
86	2205355 40007 1127 544338 1.260290940652 99.960288077083 988 0.099987480317 0.10000883469 98.799997616764 9.8799995342199
87	2245362 27282 1127 544338 1.260290940652 99.960288077083 988 6 6 5928 35568
88	2272644 39975 1133 544362 1.260290960666 99.960288255368 988 0.099987480317 0.100008834695 98.799997775035 9.8799995658741
89	2312619 27253 1133 544362 1.260290960666 99.960288255368 988 7 7 6916 48412
90	2339872 39979 1170 544417 1.271698940652 99.971709395966 988 0.099987480317 0.100008786142 98.800010935647 9.8800021978477
91	2379851 27266 1170 544417 1.271698940652 99.971709395966 988 6 6 5928 35568
92	2407117 1459 5026 544439 2 100 99 0 0 0 0
93	2408576 2068 5026 544439 2 100 99 0.022473 0.026130303388 2.471606303388 0.061713137821149
94	2410644 1459 5026 544439 2 100 99 0 0 0 0
95	2412103 1459 5027 544440 2 100 99 1 1 99 99
96	2413562 2068 5027 544440 2 100 99 0.022473 0.025898 2.471214046036 0.06169302261439
97	2415630 1459 5027 544440 2 100 99 0 0 0 0
98	2417089 1459 5028 544441 2 100 99 2 2 198 396
99	2418548 2068 5028 544441 2 100 99 0.022473 0.025898 2.471214092388 0.061693024942658
100	2420616 1558 5028 544441 2 100 99 0 0 0 0
101	2422174 1558 5029 544442 2 100 99 3 3 297 891
102	2423732 2167 5029 544442 2 100 99 0.022473 0.025898 2.471214138866 0.061693027277258
103	2425899 1558 5029 544442 2 100 99 0 0 0 0
104	2427457 1558 5030 544443 2 100 99 4 4 396 1584
105	2429015 2166 5030 544443 2 100 99 0.022473 0.025898 2.47121418539 0.061693029614174
106	2431181 1558 5030 544443 2 100 99 0 0 0 0
107	2432739 1558 5031 544444 2 100 99 5 5 495 2475
108	2434297 2167 5031 544444 2 100 99 0.022473 0.025898 2.471214231948 0.061693031952802
109	2436464 1558 5031 544444 2 100 99 0 0 0 0
110	2438022 1558 5032 544445 2 100 99 6 6 594 3564
111	2439580 2167 5032 544445 2 100 99 0.022473 0.025898 2.471214278524 0.061693034292338
112	2441747 1558 5032 544445 2 100 99 0 0 0 0
113	2443305 1558 5033 544446 2 100 99 7 7 693 4851
114	2444863 2167 5033 544446 2 100 99 0.022473 0.025931325106 2.471214325106 0.061693091018753
115	2447030 1558 5033 544446 2 100 99 0 0 0 0

