version 3
run BreakRanksNoGui-26-20240708-17:57:19-156378
attr configname BreakRanksNoGui
attr datetime 20240708-17:57:19
attr datetimef 20240708-175719
attr experiment BreakRanksNoGui
attr inifile omnetpp.ini
attr iterationvars "$nCars=8, $platoonSize=8, $nLanes=1, $ploegH=0.5, $controller=1, $headway=0.1, $leaderHeadway=1.2, $leaderSpeed=110, $breakRanksSafetyDistance=3, $minSpeed=100, $maxSpeed=120, $beaconInterval=0.1, $priority=4, $packetSize=200, $sController=\"CACC\", $0=2, $1=0"
attr iterationvarsd nCars=8/platoonSize=8/nLanes=1/ploegH=0.5/controller=1/headway=0.1/leaderHeadway=1.2/leaderSpeed=110/breakRanksSafetyDistance=3/minSpeed=100/maxSpeed=120/beaconInterval=0.1/priority=4/packetSize=200/sController=CACC/2/0
attr iterationvarsf nCars=8,platoonSize=8,nLanes=1,ploegH=0.5,controller=1,headway=0.1,leaderHeadway=1.2,leaderSpeed=110,breakRanksSafetyDistance=3,minSpeed=100,maxSpeed=120,beaconInterval=0.1,priority=4,packetSize=200,sController=CACC,2,0-
attr measurement "$nCars=8, $platoonSize=8, $nLanes=1, $ploegH=0.5, $controller=1, $headway=0.1, $leaderHeadway=1.2, $leaderSpeed=110, $breakRanksSafetyDistance=3, $minSpeed=100, $maxSpeed=120, $beaconInterval=0.1, $priority=4, $packetSize=200, $sController=\"CACC\", $0=2, $1=0"
attr network Highway
attr processid 156378
attr repetition 6
attr replication #6
attr resultdir results
attr runnumber 26
attr seedset 6
itervar beaconInterval 0.1
itervar breakRanksSafetyDistance 3
itervar controller 1
itervar headway 0.1
itervar leaderHeadway 1.2
itervar leaderSpeed 110
itervar maxSpeed 120
itervar minSpeed 100
itervar nCars 8
itervar nLanes 1
itervar packetSize 200
itervar platoonSize 8
itervar ploegH 0.5
itervar priority 4
itervar sController "\"CACC\""
config image-path ../../../veins/images
config repeat 10
config extends BreakRanks
config *.manager.command "\"sumo\""
config *.manager.ignoreGuiCommands true
config output-vector-file results/BreakRanks_1_0.1_110_3/result_6.vec
config output-scalar-file results/BreakRanks_1_0.1_110_3/result_6.sca
config extends Platooning
config *.node[*].scenario_type "\"BreakRanksScenario\""
config *.manager.command "\"sumo-gui\""
config *.node[*].scenario_type "\"SimpleScenario\""
config cmdenv-express-mode true
config cmdenv-autoflush true
config cmdenv-status-frequency 15s
config num-rngs 6
config network Highway
config debug-on-errors true
config print-undisposed true
config *.playgroundSizeX 65000m
config *.playgroundSizeY 25000m
config *.playgroundSizeZ 50m
config sim-time-limit "100 s"
config *.annotations.draw false
config *.obstacles.debug false
config *.world.useTorus false
config *.world.use2D false
config *.manager.updateInterval 0.01s
config *.manager.host "\"localhost\""
config *.manager.moduleType "\"org.car2x.plexe.PlatoonCar\""
config *.manager.moduleName "\"node\""
config *.manager.moduleDisplayString "\"\""
config *.manager.autoShutdown true
config *.manager.margin 25
config *.connectionManager.sendDirect true
config *.connectionManager.maxInterfDist 2600m
config *.connectionManager.drawMaxIntfDist false
config *.**.nic.mac1609_4.useServiceChannel false
config *.**.nic.mac1609_4.txPower 100mW
config *.**.nic.mac1609_4.bitrate 6Mbps
config *.**.nic.mac1609_4.useAcks true
config *.**.nic.mac1609_4.ackErrorRate 0.0
config *.**.nic.mac1609_4.frameErrorRate 0.0
config *.**.nic.phy80211p.minPowerLevel -94dBm
config *.**.nic.phy80211p.maxTXPower 100mW
config *.**.nic.phy80211p.useNoiseFloor true
config *.**.nic.phy80211p.noiseFloor -95dBm
config *.**.nic.phy80211p.decider "xmldoc(\"config.xml\")"
config *.**.nic.phy80211p.analogueModels "xmldoc(\"config.xml\")"
config *.**.nic.phy80211p.usePropagationDelay true
config *.node[*].mobility.x 0
config *.node[*].mobility.y 0
config *.node[*].mobility.z 1.895
config seed-set 6
config **.seed 6
config *.node[*].prot.rng-0 2
config *.node[*].appl.rng-0 3
config *.node[*].scenario.rng-0 4
config **.traffic.rng-0 5
config *.manager.configFile "\"./sumocfg/freeway.sumo.cfg\""
config *.manager.launchConfig "xmldoc(\"./sumocfg/freeway.launchd.xml\")"
config **.numberOfCars 8
config **.numberOfCarsPerPlatoon 8
config **.numberOfLanes 1
config *.node[*].helper_type "\"PositionHelper\""
config *.node[*].scenario.caccC1 0.5
config *.node[*].scenario.caccXi 1
config *.node[*].scenario.caccOmegaN "0.2 Hz"
config *.node[*].scenario.caccSpacing "2 m"
config *.node[*].scenario.engineTau "0.5 s"
config *.node[*].scenario.ploegH 0.5s
config *.node[*].scenario.ploegKp 0.2
config *.node[*].scenario.ploegKd 0.7
config *.node[*].scenario.useRealisticEngine false
config *.node[*].scenario.useControllerAcceleration true
config *.node[*].scenario.nLanes 1
config **.numericController 1
config **.headway 0.1s
config *.node[*].scenario.accHeadway 0.1s
config *.node[*].scenario.leaderHeadway 1.2s
config *.node[*].scenario.leaderSpeed 110kmph
config *.node[*].appl_type "\"SimplePlatooningApp\""
config *.node[*].appl.*.scalar-recording true
config *.node[*].appl.*.vector-recording true
config *.node[0].appl.breakRanksSafetyDistance 3m
config *.node[*].appl.minSpeed 100kmph
config *.node[*].appl.maxSpeed 120kmph
config *.node[*].protocol_type "\"SimplePlatooningBeaconing\""
config *.node[*].prot.*.scalar-recording true
config *.node[*].prot.*.vector-recording true
config *.node[*].prot.beaconingInterval 0.1s
config *.node[*].prot.priority 4
config *.node[*].prot.packetSize 200
config **.traffic_type "\"PlatoonsTrafficManager\""
config **.traffic.platoonInsertTime "1 s"
config **.traffic.platoonInsertSpeed 110kmph
config **.traffic.nCars 8
config **.traffic.platoonSize 8
config **.traffic.nLanes 1
config **.traffic.platooningVType "\"vtypeauto\""
config **.traffic.controller "\"CACC\""
config **.traffic.platoonInsertDistance 2m
config **.traffic.platoonInsertHeadway 0s
config **.traffic.platoonLeaderHeadway 1.2s
config **.scalar-recording false
config **.vector-recording false
config output-vector-file results/BreakRanksNoGui_1_0.1_110_3/result_6.vec
config output-scalar-file results/BreakRanksNoGui_1_0.1_110_3/result_6.sca

vector 0 Highway.node[0].appl distance ETV
vector 1 Highway.node[0].appl relativeSpeed ETV
vector 2 Highway.node[0].appl nodeId ETV
vector 3 Highway.node[0].appl acceleration ETV
vector 4 Highway.node[0].appl controllerAcceleration ETV
vector 5 Highway.node[0].appl speed ETV
vector 6 Highway.node[0].appl posx ETV
vector 7 Highway.node[0].appl posy ETV
vector 8 Highway.node[1].appl distance ETV
vector 9 Highway.node[1].appl relativeSpeed ETV
vector 10 Highway.node[1].appl nodeId ETV
vector 11 Highway.node[1].appl acceleration ETV
vector 12 Highway.node[1].appl controllerAcceleration ETV
vector 13 Highway.node[1].appl speed ETV
vector 14 Highway.node[1].appl posx ETV
vector 15 Highway.node[1].appl posy ETV
vector 16 Highway.node[2].appl distance ETV
vector 17 Highway.node[2].appl relativeSpeed ETV
vector 18 Highway.node[2].appl nodeId ETV
vector 19 Highway.node[2].appl acceleration ETV
vector 20 Highway.node[2].appl controllerAcceleration ETV
vector 21 Highway.node[2].appl speed ETV
vector 22 Highway.node[2].appl posx ETV
vector 23 Highway.node[2].appl posy ETV
vector 24 Highway.node[3].appl distance ETV
vector 25 Highway.node[3].appl relativeSpeed ETV
vector 26 Highway.node[3].appl nodeId ETV
vector 27 Highway.node[3].appl acceleration ETV
vector 28 Highway.node[3].appl controllerAcceleration ETV
vector 29 Highway.node[3].appl speed ETV
vector 30 Highway.node[3].appl posx ETV
vector 31 Highway.node[3].appl posy ETV
vector 32 Highway.node[4].appl distance ETV
vector 33 Highway.node[4].appl relativeSpeed ETV
vector 34 Highway.node[4].appl nodeId ETV
vector 35 Highway.node[4].appl acceleration ETV
vector 36 Highway.node[4].appl controllerAcceleration ETV
vector 37 Highway.node[4].appl speed ETV
vector 38 Highway.node[4].appl posx ETV
vector 39 Highway.node[4].appl posy ETV
vector 40 Highway.node[5].appl distance ETV
vector 41 Highway.node[5].appl relativeSpeed ETV
vector 42 Highway.node[5].appl nodeId ETV
vector 43 Highway.node[5].appl acceleration ETV
vector 44 Highway.node[5].appl controllerAcceleration ETV
vector 45 Highway.node[5].appl speed ETV
vector 46 Highway.node[5].appl posx ETV
vector 47 Highway.node[5].appl posy ETV
vector 48 Highway.node[6].appl distance ETV
vector 49 Highway.node[6].appl relativeSpeed ETV
vector 50 Highway.node[6].appl nodeId ETV
vector 51 Highway.node[6].appl acceleration ETV
vector 52 Highway.node[6].appl controllerAcceleration ETV
vector 53 Highway.node[6].appl speed ETV
vector 54 Highway.node[6].appl posx ETV
vector 55 Highway.node[6].appl posy ETV
vector 56 Highway.node[7].appl distance ETV
vector 57 Highway.node[7].appl relativeSpeed ETV
vector 58 Highway.node[7].appl nodeId ETV
vector 59 Highway.node[7].appl acceleration ETV
vector 60 Highway.node[7].appl controllerAcceleration ETV
vector 61 Highway.node[7].appl speed ETV
vector 62 Highway.node[7].appl posx ETV
vector 63 Highway.node[7].appl posy ETV
vector 64 Highway.node[1].prot leaderDelay ETV
vector 65 Highway.node[1].prot leaderDelayId ETV
vector 66 Highway.node[1].prot frontDelay ETV
vector 67 Highway.node[1].prot frontDelayId ETV
vector 68 Highway.node[2].prot leaderDelay ETV
vector 69 Highway.node[2].prot leaderDelayId ETV
vector 70 Highway.node[3].prot leaderDelay ETV
vector 71 Highway.node[3].prot leaderDelayId ETV
vector 72 Highway.node[4].prot leaderDelay ETV
vector 73 Highway.node[4].prot leaderDelayId ETV
vector 74 Highway.node[5].prot leaderDelay ETV
vector 75 Highway.node[5].prot leaderDelayId ETV
vector 76 Highway.node[6].prot leaderDelay ETV
vector 77 Highway.node[6].prot leaderDelayId ETV
vector 78 Highway.node[7].prot leaderDelay ETV
vector 79 Highway.node[7].prot leaderDelayId ETV
vector 80 Highway.node[7].prot frontDelay ETV
vector 81 Highway.node[7].prot frontDelayId ETV
vector 82 Highway.node[3].prot frontDelay ETV
vector 83 Highway.node[3].prot frontDelayId ETV
vector 84 Highway.node[6].prot frontDelay ETV
vector 85 Highway.node[6].prot frontDelayId ETV
vector 86 Highway.node[2].prot frontDelay ETV
vector 87 Highway.node[2].prot frontDelayId ETV
vector 88 Highway.node[4].prot frontDelay ETV
vector 89 Highway.node[4].prot frontDelayId ETV
vector 90 Highway.node[5].prot frontDelay ETV
vector 91 Highway.node[5].prot frontDelayId ETV
vector 92 Highway.node[0].prot nodeId ETV
vector 93 Highway.node[0].prot busyTime ETV
vector 94 Highway.node[0].prot collisions ETV
vector 95 Highway.node[1].prot nodeId ETV
vector 96 Highway.node[1].prot busyTime ETV
vector 97 Highway.node[1].prot collisions ETV
vector 98 Highway.node[2].prot nodeId ETV
vector 99 Highway.node[2].prot busyTime ETV
vector 100 Highway.node[2].prot collisions ETV
vector 101 Highway.node[3].prot nodeId ETV
vector 102 Highway.node[3].prot busyTime ETV
vector 103 Highway.node[3].prot collisions ETV
vector 104 Highway.node[4].prot nodeId ETV
vector 105 Highway.node[4].prot busyTime ETV
vector 106 Highway.node[4].prot collisions ETV
vector 107 Highway.node[5].prot nodeId ETV
vector 108 Highway.node[5].prot busyTime ETV
vector 109 Highway.node[5].prot collisions ETV
vector 110 Highway.node[6].prot nodeId ETV
vector 111 Highway.node[6].prot busyTime ETV
vector 112 Highway.node[6].prot collisions ETV
vector 113 Highway.node[7].prot nodeId ETV
vector 114 Highway.node[7].prot busyTime ETV
vector 115 Highway.node[7].prot collisions ETV
0	113	1.11	-1
0	659	1.21	-1
0	1205	1.31	-1
0	1751	1.41	-1
0	2297	1.51	-1
0	2843	1.61	-1
0	3389	1.71	-1
0	3935	1.81	-1
0	4481	1.91	-1
0	5035	2.01	-1
0	5581	2.11	-1
0	6127	2.21	-1
0	6673	2.31	-1
0	7219	2.41	-1
0	7765	2.51	-1
0	8311	2.61	-1
0	8857	2.71	-1
0	9403	2.81	-1
0	9949	2.91	-1
0	10503	3.01	-1
0	11049	3.11	-1
0	11595	3.21	-1
0	12141	3.31	-1
0	12687	3.41	-1
0	13233	3.51	-1
0	13779	3.61	-1
0	14325	3.71	-1
0	14871	3.81	-1
0	15417	3.91	-1
0	15971	4.01	-1
0	16517	4.11	-1
0	17063	4.21	-1
0	17609	4.31	-1
0	18155	4.41	-1
0	18701	4.51	-1
0	19247	4.61	-1
0	19793	4.71	-1
0	20339	4.81	-1
0	20885	4.91	-1
0	21439	5.01	-1
0	21985	5.11	-1
0	22531	5.21	-1
0	23077	5.31	-1
0	23623	5.41	-1
0	24169	5.51	-1
0	24715	5.61	-1
0	25261	5.71	-1
0	25807	5.81	-1
0	26353	5.91	-1
0	26907	6.01	-1
0	27453	6.11	-1
0	27999	6.21	-1
0	28545	6.31	-1
0	29091	6.41	-1
0	29637	6.51	-1
0	30183	6.61	-1
0	30729	6.71	-1
0	31275	6.81	-1
0	31821	6.91	-1
0	32375	7.01	-1
0	32921	7.11	-1
0	33467	7.21	-1
0	34013	7.31	-1
0	34559	7.41	-1
0	35105	7.51	-1
0	35651	7.61	-1
0	36197	7.71	-1
0	36743	7.81	-1
0	37289	7.91	-1
0	37843	8.01	-1
0	38389	8.11	-1
0	38935	8.21	-1
0	39481	8.31	-1
0	40027	8.41	-1
0	40573	8.51	-1
0	41119	8.61	-1
0	41665	8.71	-1
0	42211	8.81	-1
0	42757	8.91	-1
0	43311	9.01	-1
0	43857	9.11	-1
0	44403	9.21	-1
0	44949	9.31	-1
0	45495	9.41	-1
0	46041	9.51	-1
0	46587	9.61	-1
0	47133	9.71	-1
0	47679	9.81	-1
0	48225	9.91	-1
0	48853	10.01	-1
0	49406	10.11	-1
0	49959	10.21	-1
0	50512	10.31	-1
0	51065	10.41	-1
0	51618	10.51	-1
0	52171	10.61	-1
0	52724	10.71	-1
0	53277	10.81	-1
0	53830	10.91	-1
0	54391	11.01	-1
0	54944	11.11	-1
0	55497	11.21	-1
0	56050	11.31	-1
0	56603	11.41	-1
0	57156	11.51	-1
0	57709	11.61	-1
0	58262	11.71	-1
0	58815	11.81	-1
0	59368	11.91	-1
0	59929	12.01	-1
0	60482	12.11	-1
0	61035	12.21	-1
0	61588	12.31	-1
0	62141	12.41	-1
0	62694	12.51	-1
0	63247	12.61	-1
0	63800	12.71	-1
0	64353	12.81	-1
0	64906	12.91	-1
0	65467	13.01	-1
0	66020	13.11	-1
0	66573	13.21	-1
0	67126	13.31	-1
0	67679	13.41	-1
0	68232	13.51	-1
0	68785	13.61	-1
0	69338	13.71	-1
0	69891	13.81	-1
0	70444	13.91	-1
0	71005	14.01	-1
0	71558	14.11	-1
0	72111	14.21	-1
0	72664	14.31	-1
0	73217	14.41	-1
0	73770	14.51	-1
0	74323	14.61	-1
0	74876	14.71	-1
0	75429	14.81	-1
0	75982	14.91	-1
0	76543	15.01	-1
0	77096	15.11	-1
0	77649	15.21	-1
0	78202	15.31	-1
0	78755	15.41	-1
0	79308	15.51	-1
0	79861	15.61	-1
0	80414	15.71	-1
0	80967	15.81	-1
0	81520	15.91	-1
0	82081	16.01	-1
0	82634	16.11	-1
0	83187	16.21	-1
0	83740	16.31	-1
0	84293	16.41	-1
0	84846	16.51	-1
0	85399	16.61	-1
0	85952	16.71	-1
0	86505	16.81	-1
0	87058	16.91	-1
0	87619	17.01	-1
0	88172	17.11	-1
0	88725	17.21	-1
0	89278	17.31	-1
0	89831	17.41	-1
0	90384	17.51	-1
0	90937	17.61	-1
0	91490	17.71	-1
0	92043	17.81	-1
0	92596	17.91	-1
0	93157	18.01	-1
0	93710	18.11	-1
0	94263	18.21	-1
0	94816	18.31	-1
0	95369	18.41	-1
0	95922	18.51	-1
0	96475	18.61	-1
0	97028	18.71	-1
0	97581	18.81	-1
0	98134	18.91	-1
0	98695	19.01	-1
0	99248	19.11	-1
0	99801	19.21	-1
0	100354	19.31	-1
0	100907	19.41	-1
0	101460	19.51	-1
0	102013	19.61	-1
0	102566	19.71	-1
0	103119	19.81	-1
0	103672	19.91	-1
0	104233	20.01	-1
0	104786	20.11	-1
0	105339	20.21	-1
0	105892	20.31	-1
0	106445	20.41	-1
0	106998	20.51	-1
0	107551	20.61	-1
0	108104	20.71	-1
0	108657	20.81	-1
0	109210	20.91	-1
0	109771	21.01	-1
0	110324	21.11	-1
0	110877	21.21	-1
0	111430	21.31	-1
0	111983	21.41	-1
0	112536	21.51	-1
0	113089	21.61	-1
0	113642	21.71	-1
0	114195	21.81	-1
0	114748	21.91	-1
0	115309	22.01	-1
0	115862	22.11	-1
0	116415	22.21	-1
0	116968	22.31	-1
0	117521	22.41	-1
0	118074	22.51	-1
0	118627	22.61	-1
0	119180	22.71	-1
0	119733	22.81	-1
0	120286	22.91	-1
0	120847	23.01	-1
0	121400	23.11	-1
0	121953	23.21	-1
0	122506	23.31	-1
0	123059	23.41	-1
0	123612	23.51	-1
0	124165	23.61	-1
0	124718	23.71	-1
0	125271	23.81	-1
0	125824	23.91	-1
0	126385	24.01	-1
0	126938	24.11	-1
0	127491	24.21	-1
0	128044	24.31	-1
0	128597	24.41	-1
0	129150	24.51	-1
0	129703	24.61	-1
0	130256	24.71	-1
0	130809	24.81	-1
0	131362	24.91	-1
0	131923	25.01	-1
0	132476	25.11	-1
0	133029	25.21	-1
0	133582	25.31	-1
0	134135	25.41	-1
0	134688	25.51	-1
0	135241	25.61	-1
0	135794	25.71	-1
0	136347	25.81	-1
0	136900	25.91	-1
0	137461	26.01	-1
0	138014	26.11	-1
0	138567	26.21	-1
0	139120	26.31	-1
0	139673	26.41	-1
0	140226	26.51	-1
0	140779	26.61	-1
0	141332	26.71	-1
0	141885	26.81	-1
0	142438	26.91	-1
0	142999	27.01	-1
0	143552	27.11	-1
0	144105	27.21	-1
0	144658	27.31	-1
0	145211	27.41	-1
0	145764	27.51	-1
0	146317	27.61	-1
0	146870	27.71	-1
0	147423	27.81	-1
0	147976	27.91	-1
0	148537	28.01	-1
0	149090	28.11	-1
0	149643	28.21	-1
0	150196	28.31	-1
0	150749	28.41	-1
0	151302	28.51	-1
0	151855	28.61	-1
0	152408	28.71	-1
0	152961	28.81	-1
0	153514	28.91	-1
0	154075	29.01	-1
0	154628	29.11	-1
0	155181	29.21	-1
0	155827	29.31	-1
0	156379	29.41	-1
0	156931	29.51	-1
0	157483	29.61	-1
0	158035	29.71	-1
0	158587	29.81	-1
0	159139	29.91	-1
0	159699	30.01	-1
0	160251	30.11	-1
0	160803	30.21	-1
0	161355	30.31	-1
0	161907	30.41	-1
0	162459	30.51	-1
0	163011	30.61	-1
0	163563	30.71	-1
0	164115	30.81	-1
0	164667	30.91	-1
0	165227	31.01	-1
0	165779	31.11	-1
0	166331	31.21	-1
0	166883	31.31	-1
0	167435	31.41	-1
0	167987	31.51	-1
0	168539	31.61	-1
0	169091	31.71	-1
0	169643	31.81	-1
0	170195	31.91	-1
0	170755	32.01	-1
0	171307	32.11	-1
0	171859	32.21	-1
0	172411	32.31	-1
0	172963	32.41	-1
0	173515	32.51	-1
0	174067	32.61	-1
0	174619	32.71	-1
0	175171	32.81	-1
0	175723	32.91	-1
0	176283	33.01	-1
0	176835	33.11	-1
0	177387	33.21	-1
0	177939	33.31	-1
0	178491	33.41	-1
0	179136	33.51	-1
0	179687	33.61	-1
0	180238	33.71	-1
0	180789	33.81	-1
0	181340	33.91	-1
0	181899	34.01	-1
0	182450	34.11	-1
0	183001	34.21	-1
0	183552	34.31	-1
0	184103	34.41	-1
0	184654	34.51	-1
0	185205	34.61	-1
0	185756	34.71	-1
0	186307	34.81	-1
0	186858	34.91	-1
0	187417	35.01	-1
0	187968	35.11	-1
0	188519	35.21	-1
0	189070	35.31	-1
0	189621	35.41	-1
0	190172	35.51	-1
0	190723	35.61	-1
0	191274	35.71	-1
0	191825	35.81	-1
0	192376	35.91	-1
0	192935	36.01	-1
0	193486	36.11	-1
0	194037	36.21	-1
0	194588	36.31	-1
0	195139	36.41	-1
0	195690	36.51	-1
0	196241	36.61	-1
0	196792	36.71	-1
0	197343	36.81	-1
0	197894	36.91	-1
0	198453	37.01	-1
0	199004	37.11	-1
0	199555	37.21	-1
0	200106	37.31	-1
0	200657	37.41	-1
0	201301	37.51	-1
0	201851	37.61	-1
0	202401	37.71	-1
0	202951	37.81	-1
0	203501	37.91	-1
0	204059	38.01	-1
0	204609	38.11	-1
0	205159	38.21	-1
0	205709	38.31	-1
0	206259	38.41	-1
0	206809	38.51	-1
0	207359	38.61	-1
0	207909	38.71	-1
0	208459	38.81	-1
0	209009	38.91	-1
0	209567	39.01	-1
0	210117	39.11	-1
0	210667	39.21	-1
0	211217	39.31	-1
0	211767	39.41	-1
0	212317	39.51	-1
0	212867	39.61	-1
0	213417	39.71	-1
0	213967	39.81	-1
0	214517	39.91	-1
0	215075	40.01	-1
0	215625	40.11	-1
0	216175	40.21	-1
0	216725	40.31	-1
0	217275	40.41	-1
0	217825	40.51	-1
0	218375	40.61	-1
0	218925	40.71	-1
0	219475	40.81	-1
0	220025	40.91	-1
0	220583	41.01	-1
0	221133	41.11	-1
0	221683	41.21	-1
0	222326	41.31	-1
0	222875	41.41	-1
0	223424	41.51	-1
0	223973	41.61	-1
0	224522	41.71	-1
0	225071	41.81	-1
0	225620	41.91	-1
0	226177	42.01	-1
0	226726	42.11	-1
0	227275	42.21	-1
0	227824	42.31	-1
0	228373	42.41	-1
0	228922	42.51	-1
0	229471	42.61	-1
0	230020	42.71	-1
0	230569	42.81	-1
0	231118	42.91	-1
0	231675	43.01	-1
0	232224	43.11	-1
0	232773	43.21	-1
0	233322	43.31	-1
0	233871	43.41	-1
0	234420	43.51	-1
0	234969	43.61	-1
0	235518	43.71	-1
0	236067	43.81	-1
0	236616	43.91	-1
0	237173	44.01	-1
0	237722	44.11	-1
0	238271	44.21	-1
0	238820	44.31	-1
0	239369	44.41	-1
0	239918	44.51	-1
0	240467	44.61	-1
0	241016	44.71	-1
0	241565	44.81	-1
0	242114	44.91	-1
0	242764	45.01	-1
0	243312	45.11	-1
0	243860	45.21	-1
0	244408	45.31	-1
0	244956	45.41	-1
0	245504	45.51	-1
0	246052	45.61	-1
0	246600	45.71	-1
0	247148	45.81	-1
0	247696	45.91	-1
0	248252	46.01	-1
0	248800	46.11	-1
0	249348	46.21	-1
0	249896	46.31	-1
0	250444	46.41	-1
0	250992	46.51	-1
0	251540	46.61	-1
0	252088	46.71	-1
0	252636	46.81	-1
0	253184	46.91	-1
0	253740	47.01	-1
0	254288	47.11	-1
0	254836	47.21	-1
0	255384	47.31	-1
0	255932	47.41	-1
0	256480	47.51	-1
0	257028	47.61	-1
0	257576	47.71	-1
0	258124	47.81	-1
0	258672	47.91	-1
0	259228	48.01	-1
0	259776	48.11	-1
0	260324	48.21	-1
0	260872	48.31	-1
0	261420	48.41	-1
0	261968	48.51	-1
0	262609	48.61	-1
0	263156	48.71	-1
0	263703	48.81	-1
0	264250	48.91	-1
0	264805	49.01	-1
0	265352	49.11	-1
0	265899	49.21	-1
0	266446	49.31	-1
0	266993	49.41	-1
0	267540	49.51	-1
0	268087	49.61	-1
0	268634	49.71	-1
0	269181	49.81	-1
0	269728	49.91	-1
0	270283	50.01	-1
0	270830	50.11	-1
0	271377	50.21	-1
0	271924	50.31	-1
0	272471	50.41	-1
0	273018	50.51	-1
0	273565	50.61	-1
0	274112	50.71	-1
0	274659	50.81	-1
0	275206	50.91	-1
0	275761	51.01	-1
0	276308	51.11	-1
0	276855	51.21	-1
0	277402	51.31	-1
0	277949	51.41	-1
0	278496	51.51	-1
0	279043	51.61	-1
0	279590	51.71	-1
0	280137	51.81	-1
0	280684	51.91	-1
0	281239	52.01	-1
0	282544	52.11	-1
0	283090	52.21	-1
0	283636	52.31	-1
0	284182	52.41	-1
0	284728	52.51	-1
0	285274	52.61	-1
0	285820	52.71	-1
0	286366	52.81	-1
0	286912	52.91	-1
0	287466	53.01	-1
0	288012	53.11	-1
0	288558	53.21	-1
0	289104	53.31	-1
0	289650	53.41	-1
0	290196	53.51	-1
0	290742	53.61	-1
0	291288	53.71	-1
0	291834	53.81	-1
0	292380	53.91	-1
0	292934	54.01	-1
0	293480	54.11	-1
0	294026	54.21	-1
0	294572	54.31	-1
0	295118	54.41	-1
0	295664	54.51	-1
0	296210	54.61	-1
0	296756	54.71	-1
0	297302	54.81	-1
0	297848	54.91	-1
0	298402	55.01	-1
0	298948	55.11	-1
0	299494	55.21	-1
0	300040	55.31	-1
0	300586	55.41	-1
0	301132	55.51	-1
0	301678	55.61	-1
0	302224	55.71	-1
0	302770	55.81	-1
0	303316	55.91	-1
0	303870	56.01	-1
0	304416	56.11	-1
0	304962	56.21	-1
0	305508	56.31	-1
0	306054	56.41	-1
0	306600	56.51	-1
0	307146	56.61	-1
0	307692	56.71	-1
0	308238	56.81	-1
0	308784	56.91	-1
0	309338	57.01	-1
0	309884	57.11	-1
0	310430	57.21	-1
0	310976	57.31	-1
0	311522	57.41	-1
0	312068	57.51	-1
0	312614	57.61	-1
0	313160	57.71	-1
0	313706	57.81	-1
0	314252	57.91	-1
0	314806	58.01	-1
0	315352	58.11	-1
0	315898	58.21	-1
0	316444	58.31	-1
0	316990	58.41	-1
0	317536	58.51	-1
0	318082	58.61	-1
0	318628	58.71	-1
0	319174	58.81	-1
0	319720	58.91	-1
0	320274	59.01	-1
0	320820	59.11	-1
0	321366	59.21	-1
0	321912	59.31	-1
0	322458	59.41	-1
0	323004	59.51	-1
0	323550	59.61	-1
0	324096	59.71	-1
0	324642	59.81	-1
0	325188	59.91	-1
0	325742	60.01	-1
0	326288	60.11	-1
0	326834	60.21	-1
0	327380	60.31	-1
0	327926	60.41	-1
0	328472	60.51	-1
0	329018	60.61	-1
0	329564	60.71	-1
0	330110	60.81	-1
0	330656	60.91	-1
0	331210	61.01	-1
0	331756	61.11	-1
0	332302	61.21	-1
0	332848	61.31	-1
0	333394	61.41	-1
0	333940	61.51	-1
0	334486	61.61	-1
0	335032	61.71	-1
0	335578	61.81	-1
0	336124	61.91	-1
0	336678	62.01	-1
0	337224	62.11	-1
0	337770	62.21	-1
0	338316	62.31	-1
0	338862	62.41	-1
0	339408	62.51	-1
0	339954	62.61	-1
0	340500	62.71	-1
0	341046	62.81	-1
0	341592	62.91	-1
0	342146	63.01	-1
0	342692	63.11	-1
0	343238	63.21	-1
0	343784	63.31	-1
0	344330	63.41	-1
0	344876	63.51	-1
0	345422	63.61	-1
0	345968	63.71	-1
0	346514	63.81	-1
0	347060	63.91	-1
0	347614	64.01	-1
0	348160	64.11	-1
0	348706	64.21	-1
0	349252	64.31	-1
0	349798	64.41	-1
0	350344	64.51	-1
0	350890	64.61	-1
0	351436	64.71	-1
0	351982	64.81	-1
0	352528	64.91	-1
0	353082	65.01	-1
0	353628	65.11	-1
0	354174	65.21	-1
0	354720	65.31	-1
0	355266	65.41	-1
0	355812	65.51	-1
0	356358	65.61	-1
0	356904	65.71	-1
0	357450	65.81	-1
0	357996	65.91	-1
0	358550	66.01	-1
0	359096	66.11	-1
0	359642	66.21	-1
0	360188	66.31	-1
0	360734	66.41	-1
0	361280	66.51	-1
0	361826	66.61	-1
0	362372	66.71	-1
0	362918	66.81	-1
0	363464	66.91	-1
0	364018	67.01	-1
0	364564	67.11	-1
0	365110	67.21	-1
0	365656	67.31	-1
0	366202	67.41	-1
0	366748	67.51	-1
0	367294	67.61	-1
0	367840	67.71	-1
0	368386	67.81	-1
0	368932	67.91	-1
0	369486	68.01	-1
0	370032	68.11	-1
0	370578	68.21	-1
0	371124	68.31	-1
0	371670	68.41	-1
0	372216	68.51	-1
0	372762	68.61	-1
0	373308	68.71	-1
0	373854	68.81	-1
0	374400	68.91	-1
0	374954	69.01	-1
0	375500	69.11	-1
0	376046	69.21	-1
0	376592	69.31	-1
0	377138	69.41	-1
0	377684	69.51	-1
0	378230	69.61	-1
0	378776	69.71	-1
0	379322	69.81	-1
0	379868	69.91	-1
0	380422	70.01	-1
0	380968	70.11	-1
0	381514	70.21	-1
0	382060	70.31	-1
0	382606	70.41	-1
0	383152	70.51	-1
0	383698	70.61	-1
0	384244	70.71	-1
0	384790	70.81	-1
0	385336	70.91	-1
0	385890	71.01	-1
0	386436	71.11	-1
0	386982	71.21	-1
0	387528	71.31	-1
0	388074	71.41	-1
0	388620	71.51	-1
0	389166	71.61	-1
0	389712	71.71	-1
0	390258	71.81	-1
0	390804	71.91	-1
0	391358	72.01	-1
0	391904	72.11	-1
0	392450	72.21	-1
0	392996	72.31	-1
0	393542	72.41	-1
0	394088	72.51	-1
0	394634	72.61	-1
0	395180	72.71	-1
0	395726	72.81	-1
0	396272	72.91	-1
0	396826	73.01	-1
0	397372	73.11	-1
0	397918	73.21	-1
0	398464	73.31	-1
0	399010	73.41	-1
0	399556	73.51	-1
0	400102	73.61	-1
0	400648	73.71	-1
0	401194	73.81	-1
0	401740	73.91	-1
0	402294	74.01	-1
0	402840	74.11	-1
0	403386	74.21	-1
0	403932	74.31	-1
0	404478	74.41	-1
0	405024	74.51	-1
0	405570	74.61	-1
0	406116	74.71	-1
0	406662	74.81	-1
0	407208	74.91	-1
0	407762	75.01	-1
0	408308	75.11	-1
0	408854	75.21	-1
0	409400	75.31	-1
0	409946	75.41	-1
0	410492	75.51	-1
0	411038	75.61	-1
0	411584	75.71	-1
0	412130	75.81	-1
0	412676	75.91	-1
0	413230	76.01	-1
0	413776	76.11	-1
0	414322	76.21	-1
0	414868	76.31	-1
0	415414	76.41	-1
0	415960	76.51	-1
0	416506	76.61	-1
0	417052	76.71	-1
0	417598	76.81	-1
0	418144	76.91	-1
0	418698	77.01	-1
0	419244	77.11	-1
0	419790	77.21	-1
0	420336	77.31	-1
0	420882	77.41	-1
0	421428	77.51	-1
0	421974	77.61	-1
0	422520	77.71	-1
0	423066	77.81	-1
0	423612	77.91	-1
0	424166	78.01	-1
0	424712	78.11	-1
0	425258	78.21	-1
0	425804	78.31	-1
0	426350	78.41	-1
0	426896	78.51	-1
0	427442	78.61	-1
0	427988	78.71	-1
0	428534	78.81	-1
0	429080	78.91	-1
0	429634	79.01	-1
0	430180	79.11	-1
0	430726	79.21	-1
0	431272	79.31	-1
0	431818	79.41	-1
0	432364	79.51	-1
0	432910	79.61	-1
0	433456	79.71	-1
0	434002	79.81	-1
0	434548	79.91	-1
0	435102	80.01	-1
0	435648	80.11	-1
0	436194	80.21	-1
0	436740	80.31	-1
0	437286	80.41	-1
0	437832	80.51	-1
0	438378	80.61	-1
0	438924	80.71	-1
0	439470	80.81	-1
0	440016	80.91	-1
0	440570	81.01	-1
0	441116	81.11	-1
0	441662	81.21	-1
0	442208	81.31	-1
0	442754	81.41	-1
0	443300	81.51	-1
0	443846	81.61	-1
0	444392	81.71	-1
0	444938	81.81	-1
0	445484	81.91	-1
0	446038	82.01	-1
0	446584	82.11	-1
0	447130	82.21	-1
0	447676	82.31	-1
0	448222	82.41	-1
0	448768	82.51	-1
0	449314	82.61	-1
0	449860	82.71	-1
0	450406	82.81	-1
0	450952	82.91	-1
0	451506	83.01	-1
0	452052	83.11	-1
0	452598	83.21	-1
0	453144	83.31	-1
0	453690	83.41	-1
0	454236	83.51	-1
0	454782	83.61	-1
0	455328	83.71	-1
0	455874	83.81	-1
0	456420	83.91	-1
0	456974	84.01	-1
0	457520	84.11	-1
0	458066	84.21	-1
0	458612	84.31	-1
0	459158	84.41	-1
0	459704	84.51	-1
0	460250	84.61	-1
0	460796	84.71	-1
0	461342	84.81	-1
0	461888	84.91	-1
0	462442	85.01	-1
0	462988	85.11	-1
0	463534	85.21	-1
0	464080	85.31	-1
0	464626	85.41	-1
0	465172	85.51	-1
0	465718	85.61	-1
0	466264	85.71	-1
0	466810	85.81	-1
0	467356	85.91	-1
0	467910	86.01	-1
0	468456	86.11	-1
0	469002	86.21	-1
0	469548	86.31	-1
0	470094	86.41	-1
0	470640	86.51	-1
0	471186	86.61	-1
0	471732	86.71	-1
0	472278	86.81	-1
0	472824	86.91	-1
0	473378	87.01	-1
0	473924	87.11	-1
0	474470	87.21	-1
0	475016	87.31	-1
0	475562	87.41	-1
0	476108	87.51	-1
0	476654	87.61	-1
0	477200	87.71	-1
0	477746	87.81	-1
0	478292	87.91	-1
0	478846	88.01	-1
0	479392	88.11	-1
0	479938	88.21	-1
0	480484	88.31	-1
0	481030	88.41	-1
0	481576	88.51	-1
0	482122	88.61	-1
0	482668	88.71	-1
0	483214	88.81	-1
0	483760	88.91	-1
0	484314	89.01	-1
0	484860	89.11	-1
0	485406	89.21	-1
0	485952	89.31	-1
0	486498	89.41	-1
0	487044	89.51	-1
0	487590	89.61	-1
0	488136	89.71	-1
0	488682	89.81	-1
0	489228	89.91	-1
0	489782	90.01	-1
0	490328	90.11	-1
0	490874	90.21	-1
0	491420	90.31	-1
0	491966	90.41	-1
0	492512	90.51	-1
0	493058	90.61	-1
0	493604	90.71	-1
0	494150	90.81	-1
0	494696	90.91	-1
0	495250	91.01	-1
0	495796	91.11	-1
0	496342	91.21	-1
0	496888	91.31	-1
0	497434	91.41	-1
0	497980	91.51	-1
0	498526	91.61	-1
0	499072	91.71	-1
0	499618	91.81	-1
0	500164	91.91	-1
0	500718	92.01	-1
0	501264	92.11	-1
0	501810	92.21	-1
0	502356	92.31	-1
0	502902	92.41	-1
0	503448	92.51	-1
0	503994	92.61	-1
0	504540	92.71	-1
0	505086	92.81	-1
0	505632	92.91	-1
0	506186	93.01	-1
0	506732	93.11	-1
0	507278	93.21	-1
0	507824	93.31	-1
0	508370	93.41	-1
0	508916	93.51	-1
0	509462	93.61	-1
0	510008	93.71	-1
0	510554	93.81	-1
0	511100	93.91	-1
0	511654	94.01	-1
0	512200	94.11	-1
0	512746	94.21	-1
0	513292	94.31	-1
0	513838	94.41	-1
0	514384	94.51	-1
0	514930	94.61	-1
0	515476	94.71	-1
0	516022	94.81	-1
0	516568	94.91	-1
0	517122	95.01	-1
0	517668	95.11	-1
0	518214	95.21	-1
0	518760	95.31	-1
0	519306	95.41	-1
0	519852	95.51	-1
0	520398	95.61	-1
0	520944	95.71	-1
0	521490	95.81	-1
0	522036	95.91	-1
0	522590	96.01	-1
0	523136	96.11	-1
0	523682	96.21	-1
0	524228	96.31	-1
0	524774	96.41	-1
0	525320	96.51	-1
0	525866	96.61	-1
0	526412	96.71	-1
0	526958	96.81	-1
0	527504	96.91	-1
0	528058	97.01	-1
0	528604	97.11	-1
0	529150	97.21	-1
0	529696	97.31	-1
0	530242	97.41	-1
0	530788	97.51	-1
0	531334	97.61	-1
0	531880	97.71	-1
0	532426	97.81	-1
0	532972	97.91	-1
0	533526	98.01	-1
0	534072	98.11	-1
0	534618	98.21	-1
0	535164	98.31	-1
0	535710	98.41	-1
0	536256	98.51	-1
0	536802	98.61	-1
0	537348	98.71	-1
0	537894	98.81	-1
0	538440	98.91	-1
0	538994	99.01	-1
0	539540	99.11	-1
0	540086	99.21	-1
0	540632	99.31	-1
0	541178	99.41	-1
0	541724	99.51	-1
0	542270	99.61	-1
0	542816	99.71	-1
0	543362	99.81	-1
0	543908	99.91	-1
1	113	1.11	0
1	659	1.21	0
1	1205	1.31	0
1	1751	1.41	0
1	2297	1.51	0
1	2843	1.61	0
1	3389	1.71	0
1	3935	1.81	0
1	4481	1.91	0
1	5035	2.01	0
1	5581	2.11	0
1	6127	2.21	0
1	6673	2.31	0
1	7219	2.41	0
1	7765	2.51	0
1	8311	2.61	0
1	8857	2.71	0
1	9403	2.81	0
1	9949	2.91	0
1	10503	3.01	0
1	11049	3.11	0
1	11595	3.21	0
1	12141	3.31	0
1	12687	3.41	0
1	13233	3.51	0
1	13779	3.61	0
1	14325	3.71	0
1	14871	3.81	0
1	15417	3.91	0
1	15971	4.01	0
1	16517	4.11	0
1	17063	4.21	0
1	17609	4.31	0
1	18155	4.41	0
1	18701	4.51	0
1	19247	4.61	0
1	19793	4.71	0
1	20339	4.81	0
1	20885	4.91	0
1	21439	5.01	0
1	21985	5.11	0
1	22531	5.21	0
1	23077	5.31	0
1	23623	5.41	0
1	24169	5.51	0
1	24715	5.61	0
1	25261	5.71	0
1	25807	5.81	0
1	26353	5.91	0
1	26907	6.01	0
1	27453	6.11	0
1	27999	6.21	0
1	28545	6.31	0
1	29091	6.41	0
1	29637	6.51	0
1	30183	6.61	0
1	30729	6.71	0
1	31275	6.81	0
1	31821	6.91	0
1	32375	7.01	0
1	32921	7.11	0
1	33467	7.21	0
1	34013	7.31	0
1	34559	7.41	0
1	35105	7.51	0
1	35651	7.61	0
1	36197	7.71	0
1	36743	7.81	0
1	37289	7.91	0
1	37843	8.01	0
1	38389	8.11	0
1	38935	8.21	0
1	39481	8.31	0
1	40027	8.41	0
1	40573	8.51	0
1	41119	8.61	0
1	41665	8.71	0
1	42211	8.81	0
1	42757	8.91	0
1	43311	9.01	0
1	43857	9.11	0
1	44403	9.21	0
1	44949	9.31	0
1	45495	9.41	0
1	46041	9.51	0
1	46587	9.61	0
1	47133	9.71	0
1	47679	9.81	0
1	48225	9.91	0
1	48853	10.01	0
1	49406	10.11	0
1	49959	10.21	0
1	50512	10.31	0
1	51065	10.41	0
1	51618	10.51	0
1	52171	10.61	0
1	52724	10.71	0
1	53277	10.81	0
1	53830	10.91	0
1	54391	11.01	0
1	54944	11.11	0
1	55497	11.21	0
1	56050	11.31	0
1	56603	11.41	0
1	57156	11.51	0
1	57709	11.61	0
1	58262	11.71	0
1	58815	11.81	0
1	59368	11.91	0
1	59929	12.01	0
1	60482	12.11	0
1	61035	12.21	0
1	61588	12.31	0
1	62141	12.41	0
1	62694	12.51	0
1	63247	12.61	0
1	63800	12.71	0
1	64353	12.81	0
1	64906	12.91	0
1	65467	13.01	0
1	66020	13.11	0
1	66573	13.21	0
1	67126	13.31	0
1	67679	13.41	0
1	68232	13.51	0
1	68785	13.61	0
1	69338	13.71	0
1	69891	13.81	0
1	70444	13.91	0
1	71005	14.01	0
1	71558	14.11	0
1	72111	14.21	0
1	72664	14.31	0
1	73217	14.41	0
1	73770	14.51	0
1	74323	14.61	0
1	74876	14.71	0
1	75429	14.81	0
1	75982	14.91	0
1	76543	15.01	0
1	77096	15.11	0
1	77649	15.21	0
1	78202	15.31	0
1	78755	15.41	0
1	79308	15.51	0
1	79861	15.61	0
1	80414	15.71	0
1	80967	15.81	0
1	81520	15.91	0
1	82081	16.01	0
1	82634	16.11	0
1	83187	16.21	0
1	83740	16.31	0
1	84293	16.41	0
1	84846	16.51	0
1	85399	16.61	0
1	85952	16.71	0
1	86505	16.81	0
1	87058	16.91	0
1	87619	17.01	0
1	88172	17.11	0
1	88725	17.21	0
1	89278	17.31	0
1	89831	17.41	0
1	90384	17.51	0
1	90937	17.61	0
1	91490	17.71	0
1	92043	17.81	0
1	92596	17.91	0
1	93157	18.01	0
1	93710	18.11	0
1	94263	18.21	0
1	94816	18.31	0
1	95369	18.41	0
1	95922	18.51	0
1	96475	18.61	0
1	97028	18.71	0
1	97581	18.81	0
1	98134	18.91	0
1	98695	19.01	0
1	99248	19.11	0
1	99801	19.21	0
1	100354	19.31	0
1	100907	19.41	0
1	101460	19.51	0
1	102013	19.61	0
1	102566	19.71	0
1	103119	19.81	0
1	103672	19.91	0
1	104233	20.01	0
1	104786	20.11	0
1	105339	20.21	0
1	105892	20.31	0
1	106445	20.41	0
1	106998	20.51	0
1	107551	20.61	0
1	108104	20.71	0
1	108657	20.81	0
1	109210	20.91	0
1	109771	21.01	0
1	110324	21.11	0
1	110877	21.21	0
1	111430	21.31	0
1	111983	21.41	0
1	112536	21.51	0
1	113089	21.61	0
1	113642	21.71	0
1	114195	21.81	0
1	114748	21.91	0
1	115309	22.01	0
1	115862	22.11	0
1	116415	22.21	0
1	116968	22.31	0
1	117521	22.41	0
1	118074	22.51	0
1	118627	22.61	0
1	119180	22.71	0
1	119733	22.81	0
1	120286	22.91	0
1	120847	23.01	0
1	121400	23.11	0
1	121953	23.21	0
1	122506	23.31	0
1	123059	23.41	0
1	123612	23.51	0
1	124165	23.61	0
1	124718	23.71	0
1	125271	23.81	0
1	125824	23.91	0
1	126385	24.01	0
1	126938	24.11	0
1	127491	24.21	0
1	128044	24.31	0
1	128597	24.41	0
1	129150	24.51	0
1	129703	24.61	0
1	130256	24.71	0
1	130809	24.81	0
1	131362	24.91	0
1	131923	25.01	0
1	132476	25.11	0
1	133029	25.21	0
1	133582	25.31	0
1	134135	25.41	0
1	134688	25.51	0
1	135241	25.61	0
1	135794	25.71	0
1	136347	25.81	0
1	136900	25.91	0
1	137461	26.01	0
1	138014	26.11	0
1	138567	26.21	0
1	139120	26.31	0
1	139673	26.41	0
1	140226	26.51	0
1	140779	26.61	0
1	141332	26.71	0
1	141885	26.81	0
1	142438	26.91	0
1	142999	27.01	0
1	143552	27.11	0
1	144105	27.21	0
1	144658	27.31	0
1	145211	27.41	0
1	145764	27.51	0
1	146317	27.61	0
1	146870	27.71	0
1	147423	27.81	0
1	147976	27.91	0
1	148537	28.01	0
1	149090	28.11	0
1	149643	28.21	0
1	150196	28.31	0
1	150749	28.41	0
1	151302	28.51	0
1	151855	28.61	0
1	152408	28.71	0
1	152961	28.81	0
1	153514	28.91	0
1	154075	29.01	0
1	154628	29.11	0
1	155181	29.21	0
1	155827	29.31	0
1	156379	29.41	0
1	156931	29.51	0
1	157483	29.61	0
1	158035	29.71	0
1	158587	29.81	0
1	159139	29.91	0
1	159699	30.01	0
1	160251	30.11	0
1	160803	30.21	0
1	161355	30.31	0
1	161907	30.41	0
1	162459	30.51	0
1	163011	30.61	0
1	163563	30.71	0
1	164115	30.81	0
1	164667	30.91	0
1	165227	31.01	0
1	165779	31.11	0
1	166331	31.21	0
1	166883	31.31	0
1	167435	31.41	0
1	167987	31.51	0
1	168539	31.61	0
1	169091	31.71	0
1	169643	31.81	0
1	170195	31.91	0
1	170755	32.01	0
1	171307	32.11	0
1	171859	32.21	0
1	172411	32.31	0
1	172963	32.41	0
1	173515	32.51	0
1	174067	32.61	0
1	174619	32.71	0
1	175171	32.81	0
1	175723	32.91	0
1	176283	33.01	0
1	176835	33.11	0
1	177387	33.21	0
1	177939	33.31	0
1	178491	33.41	0
1	179136	33.51	0
1	179687	33.61	0
1	180238	33.71	0
1	180789	33.81	0
1	181340	33.91	0
1	181899	34.01	0
1	182450	34.11	0
1	183001	34.21	0
1	183552	34.31	0
1	184103	34.41	0
1	184654	34.51	0
1	185205	34.61	0
1	185756	34.71	0
1	186307	34.81	0
1	186858	34.91	0
1	187417	35.01	0
1	187968	35.11	0
1	188519	35.21	0
1	189070	35.31	0
1	189621	35.41	0
1	190172	35.51	0
1	190723	35.61	0
1	191274	35.71	0
1	191825	35.81	0
1	192376	35.91	0
1	192935	36.01	0
1	193486	36.11	0
1	194037	36.21	0
1	194588	36.31	0
1	195139	36.41	0
1	195690	36.51	0
1	196241	36.61	0
1	196792	36.71	0
1	197343	36.81	0
1	197894	36.91	0
1	198453	37.01	0
1	199004	37.11	0
1	199555	37.21	0
1	200106	37.31	0
1	200657	37.41	0
1	201301	37.51	0
1	201851	37.61	0
1	202401	37.71	0
1	202951	37.81	0
1	203501	37.91	0
1	204059	38.01	0
1	204609	38.11	0
1	205159	38.21	0
1	205709	38.31	0
1	206259	38.41	0
1	206809	38.51	0
1	207359	38.61	0
1	207909	38.71	0
1	208459	38.81	0
1	209009	38.91	0
1	209567	39.01	0
1	210117	39.11	0
1	210667	39.21	0
1	211217	39.31	0
1	211767	39.41	0
1	212317	39.51	0
1	212867	39.61	0
1	213417	39.71	0
1	213967	39.81	0
1	214517	39.91	0
1	215075	40.01	0
1	215625	40.11	0
1	216175	40.21	0
1	216725	40.31	0
1	217275	40.41	0
1	217825	40.51	0
1	218375	40.61	0
1	218925	40.71	0
1	219475	40.81	0
1	220025	40.91	0
1	220583	41.01	0
1	221133	41.11	0
1	221683	41.21	0
1	222326	41.31	0
1	222875	41.41	0
1	223424	41.51	0
1	223973	41.61	0
1	224522	41.71	0
1	225071	41.81	0
1	225620	41.91	0
1	226177	42.01	0
1	226726	42.11	0
1	227275	42.21	0
1	227824	42.31	0
1	228373	42.41	0
1	228922	42.51	0
1	229471	42.61	0
1	230020	42.71	0
1	230569	42.81	0
1	231118	42.91	0
1	231675	43.01	0
1	232224	43.11	0
1	232773	43.21	0
1	233322	43.31	0
1	233871	43.41	0
1	234420	43.51	0
1	234969	43.61	0
1	235518	43.71	0
1	236067	43.81	0
1	236616	43.91	0
1	237173	44.01	0
1	237722	44.11	0
1	238271	44.21	0
1	238820	44.31	0
1	239369	44.41	0
1	239918	44.51	0
1	240467	44.61	0
1	241016	44.71	0
1	241565	44.81	0
1	242114	44.91	0
1	242764	45.01	0
1	243312	45.11	0
1	243860	45.21	0
1	244408	45.31	0
1	244956	45.41	0
1	245504	45.51	0
1	246052	45.61	0
1	246600	45.71	0
1	247148	45.81	0
1	247696	45.91	0
1	248252	46.01	0
1	248800	46.11	0
1	249348	46.21	0
1	249896	46.31	0
1	250444	46.41	0
1	250992	46.51	0
1	251540	46.61	0
1	252088	46.71	0
1	252636	46.81	0
1	253184	46.91	0
1	253740	47.01	0
1	254288	47.11	0
1	254836	47.21	0
1	255384	47.31	0
1	255932	47.41	0
1	256480	47.51	0
1	257028	47.61	0
1	257576	47.71	0
1	258124	47.81	0
1	258672	47.91	0
1	259228	48.01	0
1	259776	48.11	0
1	260324	48.21	0
1	260872	48.31	0
1	261420	48.41	0
1	261968	48.51	0
1	262609	48.61	0
1	263156	48.71	0
1	263703	48.81	0
1	264250	48.91	0
1	264805	49.01	0
1	265352	49.11	0
1	265899	49.21	0
1	266446	49.31	0
1	266993	49.41	0
1	267540	49.51	0
1	268087	49.61	0
1	268634	49.71	0
1	269181	49.81	0
1	269728	49.91	0
1	270283	50.01	0
1	270830	50.11	0
1	271377	50.21	0
1	271924	50.31	0
1	272471	50.41	0
1	273018	50.51	0
1	273565	50.61	0
1	274112	50.71	0
1	274659	50.81	0
1	275206	50.91	0
1	275761	51.01	0
1	276308	51.11	0
1	276855	51.21	0
1	277402	51.31	0
1	277949	51.41	0
1	278496	51.51	0
1	279043	51.61	0
1	279590	51.71	0
1	280137	51.81	0
1	280684	51.91	0
1	281239	52.01	0
1	282544	52.11	0
1	283090	52.21	0
1	283636	52.31	0
1	284182	52.41	0
1	284728	52.51	0
1	285274	52.61	0
1	285820	52.71	0
1	286366	52.81	0
1	286912	52.91	0
1	287466	53.01	0
1	288012	53.11	0
1	288558	53.21	0
1	289104	53.31	0
1	289650	53.41	0
1	290196	53.51	0
1	290742	53.61	0
1	291288	53.71	0
1	291834	53.81	0
1	292380	53.91	0
1	292934	54.01	0
1	293480	54.11	0
1	294026	54.21	0
1	294572	54.31	0
1	295118	54.41	0
1	295664	54.51	0
1	296210	54.61	0
1	296756	54.71	0
1	297302	54.81	0
1	297848	54.91	0
1	298402	55.01	0
1	298948	55.11	0
1	299494	55.21	0
1	300040	55.31	0
1	300586	55.41	0
1	301132	55.51	0
1	301678	55.61	0
1	302224	55.71	0
1	302770	55.81	0
1	303316	55.91	0
1	303870	56.01	0
1	304416	56.11	0
1	304962	56.21	0
1	305508	56.31	0
1	306054	56.41	0
1	306600	56.51	0
1	307146	56.61	0
1	307692	56.71	0
1	308238	56.81	0
1	308784	56.91	0
1	309338	57.01	0
1	309884	57.11	0
1	310430	57.21	0
1	310976	57.31	0
1	311522	57.41	0
1	312068	57.51	0
1	312614	57.61	0
1	313160	57.71	0
1	313706	57.81	0
1	314252	57.91	0
1	314806	58.01	0
1	315352	58.11	0
1	315898	58.21	0
1	316444	58.31	0
1	316990	58.41	0
1	317536	58.51	0
1	318082	58.61	0
1	318628	58.71	0
1	319174	58.81	0
1	319720	58.91	0
1	320274	59.01	0
1	320820	59.11	0
1	321366	59.21	0
1	321912	59.31	0
1	322458	59.41	0
1	323004	59.51	0
1	323550	59.61	0
1	324096	59.71	0
1	324642	59.81	0
1	325188	59.91	0
1	325742	60.01	0
1	326288	60.11	0
1	326834	60.21	0
1	327380	60.31	0
1	327926	60.41	0
1	328472	60.51	0
1	329018	60.61	0
1	329564	60.71	0
1	330110	60.81	0
1	330656	60.91	0
1	331210	61.01	0
1	331756	61.11	0
1	332302	61.21	0
1	332848	61.31	0
1	333394	61.41	0
1	333940	61.51	0
1	334486	61.61	0
1	335032	61.71	0
1	335578	61.81	0
1	336124	61.91	0
1	336678	62.01	0
1	337224	62.11	0
1	337770	62.21	0
1	338316	62.31	0
1	338862	62.41	0
1	339408	62.51	0
1	339954	62.61	0
1	340500	62.71	0
1	341046	62.81	0
1	341592	62.91	0
1	342146	63.01	0
1	342692	63.11	0
1	343238	63.21	0
1	343784	63.31	0
1	344330	63.41	0
1	344876	63.51	0
1	345422	63.61	0
1	345968	63.71	0
1	346514	63.81	0
1	347060	63.91	0
1	347614	64.01	0
1	348160	64.11	0
1	348706	64.21	0
1	349252	64.31	0
1	349798	64.41	0
1	350344	64.51	0
1	350890	64.61	0
1	351436	64.71	0
1	351982	64.81	0
1	352528	64.91	0
1	353082	65.01	0
1	353628	65.11	0
1	354174	65.21	0
1	354720	65.31	0
1	355266	65.41	0
1	355812	65.51	0
1	356358	65.61	0
1	356904	65.71	0
1	357450	65.81	0
1	357996	65.91	0
1	358550	66.01	0
1	359096	66.11	0
1	359642	66.21	0
1	360188	66.31	0
1	360734	66.41	0
1	361280	66.51	0
1	361826	66.61	0
1	362372	66.71	0
1	362918	66.81	0
1	363464	66.91	0
1	364018	67.01	0
1	364564	67.11	0
1	365110	67.21	0
1	365656	67.31	0
1	366202	67.41	0
1	366748	67.51	0
1	367294	67.61	0
1	367840	67.71	0
1	368386	67.81	0
1	368932	67.91	0
1	369486	68.01	0
1	370032	68.11	0
1	370578	68.21	0
1	371124	68.31	0
1	371670	68.41	0
1	372216	68.51	0
1	372762	68.61	0
1	373308	68.71	0
1	373854	68.81	0
1	374400	68.91	0
1	374954	69.01	0
1	375500	69.11	0
1	376046	69.21	0
1	376592	69.31	0
1	377138	69.41	0
1	377684	69.51	0
1	378230	69.61	0
1	378776	69.71	0
1	379322	69.81	0
1	379868	69.91	0
1	380422	70.01	0
1	380968	70.11	0
1	381514	70.21	0
1	382060	70.31	0
1	382606	70.41	0
1	383152	70.51	0
1	383698	70.61	0
1	384244	70.71	0
1	384790	70.81	0
1	385336	70.91	0
1	385890	71.01	0
1	386436	71.11	0
1	386982	71.21	0
1	387528	71.31	0
1	388074	71.41	0
1	388620	71.51	0
1	389166	71.61	0
1	389712	71.71	0
1	390258	71.81	0
1	390804	71.91	0
1	391358	72.01	0
1	391904	72.11	0
1	392450	72.21	0
1	392996	72.31	0
1	393542	72.41	0
1	394088	72.51	0
1	394634	72.61	0
1	395180	72.71	0
1	395726	72.81	0
1	396272	72.91	0
1	396826	73.01	0
1	397372	73.11	0
1	397918	73.21	0
1	398464	73.31	0
1	399010	73.41	0
1	399556	73.51	0
1	400102	73.61	0
1	400648	73.71	0
1	401194	73.81	0
1	401740	73.91	0
1	402294	74.01	0
1	402840	74.11	0
1	403386	74.21	0
1	403932	74.31	0
1	404478	74.41	0
1	405024	74.51	0
1	405570	74.61	0
1	406116	74.71	0
1	406662	74.81	0
1	407208	74.91	0
1	407762	75.01	0
1	408308	75.11	0
1	408854	75.21	0
1	409400	75.31	0
1	409946	75.41	0
1	410492	75.51	0
1	411038	75.61	0
1	411584	75.71	0
1	412130	75.81	0
1	412676	75.91	0
1	413230	76.01	0
1	413776	76.11	0
1	414322	76.21	0
1	414868	76.31	0
1	415414	76.41	0
1	415960	76.51	0
1	416506	76.61	0
1	417052	76.71	0
1	417598	76.81	0
1	418144	76.91	0
1	418698	77.01	0
1	419244	77.11	0
1	419790	77.21	0
1	420336	77.31	0
1	420882	77.41	0
1	421428	77.51	0
1	421974	77.61	0
1	422520	77.71	0
1	423066	77.81	0
1	423612	77.91	0
1	424166	78.01	0
1	424712	78.11	0
1	425258	78.21	0
1	425804	78.31	0
1	426350	78.41	0
1	426896	78.51	0
1	427442	78.61	0
1	427988	78.71	0
1	428534	78.81	0
1	429080	78.91	0
1	429634	79.01	0
1	430180	79.11	0
1	430726	79.21	0
1	431272	79.31	0
1	431818	79.41	0
1	432364	79.51	0
1	432910	79.61	0
1	433456	79.71	0
1	434002	79.81	0
1	434548	79.91	0
1	435102	80.01	0
1	435648	80.11	0
1	436194	80.21	0
1	436740	80.31	0
1	437286	80.41	0
1	437832	80.51	0
1	438378	80.61	0
1	438924	80.71	0
1	439470	80.81	0
1	440016	80.91	0
1	440570	81.01	0
1	441116	81.11	0
1	441662	81.21	0
1	442208	81.31	0
1	442754	81.41	0
1	443300	81.51	0
1	443846	81.61	0
1	444392	81.71	0
1	444938	81.81	0
1	445484	81.91	0
1	446038	82.01	0
1	446584	82.11	0
1	447130	82.21	0
1	447676	82.31	0
1	448222	82.41	0
1	448768	82.51	0
1	449314	82.61	0
1	449860	82.71	0
1	450406	82.81	0
1	450952	82.91	0
1	451506	83.01	0
1	452052	83.11	0
1	452598	83.21	0
1	453144	83.31	0
1	453690	83.41	0
1	454236	83.51	0
1	454782	83.61	0
1	455328	83.71	0
1	455874	83.81	0
1	456420	83.91	0
1	456974	84.01	0
1	457520	84.11	0
1	458066	84.21	0
1	458612	84.31	0
1	459158	84.41	0
1	459704	84.51	0
1	460250	84.61	0
1	460796	84.71	0
1	461342	84.81	0
1	461888	84.91	0
1	462442	85.01	0
1	462988	85.11	0
1	463534	85.21	0
1	464080	85.31	0
1	464626	85.41	0
1	465172	85.51	0
1	465718	85.61	0
1	466264	85.71	0
1	466810	85.81	0
1	467356	85.91	0
1	467910	86.01	0
1	468456	86.11	0
1	469002	86.21	0
1	469548	86.31	0
1	470094	86.41	0
1	470640	86.51	0
1	471186	86.61	0
1	471732	86.71	0
1	472278	86.81	0
1	472824	86.91	0
1	473378	87.01	0
1	473924	87.11	0
1	474470	87.21	0
1	475016	87.31	0
1	475562	87.41	0
1	476108	87.51	0
1	476654	87.61	0
1	477200	87.71	0
1	477746	87.81	0
1	478292	87.91	0
1	478846	88.01	0
1	479392	88.11	0
1	479938	88.21	0
1	480484	88.31	0
1	481030	88.41	0
1	481576	88.51	0
1	482122	88.61	0
1	482668	88.71	0
1	483214	88.81	0
1	483760	88.91	0
1	484314	89.01	0
1	484860	89.11	0
1	485406	89.21	0
1	485952	89.31	0
1	486498	89.41	0
1	487044	89.51	0
1	487590	89.61	0
1	488136	89.71	0
1	488682	89.81	0
1	489228	89.91	0
1	489782	90.01	0
1	490328	90.11	0
1	490874	90.21	0
1	491420	90.31	0
1	491966	90.41	0
1	492512	90.51	0
1	493058	90.61	0
1	493604	90.71	0
1	494150	90.81	0
1	494696	90.91	0
1	495250	91.01	0
1	495796	91.11	0
1	496342	91.21	0
1	496888	91.31	0
1	497434	91.41	0
1	497980	91.51	0
1	498526	91.61	0
1	499072	91.71	0
1	499618	91.81	0
1	500164	91.91	0
1	500718	92.01	0
1	501264	92.11	0
1	501810	92.21	0
1	502356	92.31	0
1	502902	92.41	0
1	503448	92.51	0
1	503994	92.61	0
1	504540	92.71	0
1	505086	92.81	0
1	505632	92.91	0
1	506186	93.01	0
1	506732	93.11	0
1	507278	93.21	0
1	507824	93.31	0
1	508370	93.41	0
1	508916	93.51	0
1	509462	93.61	0
1	510008	93.71	0
1	510554	93.81	0
1	511100	93.91	0
1	511654	94.01	0
1	512200	94.11	0
1	512746	94.21	0
1	513292	94.31	0
1	513838	94.41	0
1	514384	94.51	0
1	514930	94.61	0
1	515476	94.71	0
1	516022	94.81	0
1	516568	94.91	0
1	517122	95.01	0
1	517668	95.11	0
1	518214	95.21	0
1	518760	95.31	0
1	519306	95.41	0
1	519852	95.51	0
1	520398	95.61	0
1	520944	95.71	0
1	521490	95.81	0
1	522036	95.91	0
1	522590	96.01	0
1	523136	96.11	0
1	523682	96.21	0
1	524228	96.31	0
1	524774	96.41	0
1	525320	96.51	0
1	525866	96.61	0
1	526412	96.71	0
1	526958	96.81	0
1	527504	96.91	0
1	528058	97.01	0
1	528604	97.11	0
1	529150	97.21	0
1	529696	97.31	0
1	530242	97.41	0
1	530788	97.51	0
1	531334	97.61	0
1	531880	97.71	0
1	532426	97.81	0
1	532972	97.91	0
1	533526	98.01	0
1	534072	98.11	0
1	534618	98.21	0
1	535164	98.31	0
1	535710	98.41	0
1	536256	98.51	0
1	536802	98.61	0
1	537348	98.71	0
1	537894	98.81	0
1	538440	98.91	0
1	538994	99.01	0
1	539540	99.11	0
1	540086	99.21	0
1	540632	99.31	0
1	541178	99.41	0
1	541724	99.51	0
1	542270	99.61	0
1	542816	99.71	0
1	543362	99.81	0
1	543908	99.91	0
2	113	1.11	0
2	659	1.21	0
2	1205	1.31	0
2	1751	1.41	0
2	2297	1.51	0
2	2843	1.61	0
2	3389	1.71	0
2	3935	1.81	0
2	4481	1.91	0
2	5035	2.01	0
2	5581	2.11	0
2	6127	2.21	0
2	6673	2.31	0
2	7219	2.41	0
2	7765	2.51	0
2	8311	2.61	0
2	8857	2.71	0
2	9403	2.81	0
2	9949	2.91	0
2	10503	3.01	0
2	11049	3.11	0
2	11595	3.21	0
2	12141	3.31	0
2	12687	3.41	0
2	13233	3.51	0
2	13779	3.61	0
2	14325	3.71	0
2	14871	3.81	0
2	15417	3.91	0
2	15971	4.01	0
2	16517	4.11	0
2	17063	4.21	0
2	17609	4.31	0
2	18155	4.41	0
2	18701	4.51	0
2	19247	4.61	0
2	19793	4.71	0
2	20339	4.81	0
2	20885	4.91	0
2	21439	5.01	0
2	21985	5.11	0
2	22531	5.21	0
2	23077	5.31	0
2	23623	5.41	0
2	24169	5.51	0
2	24715	5.61	0
2	25261	5.71	0
2	25807	5.81	0
2	26353	5.91	0
2	26907	6.01	0
2	27453	6.11	0
2	27999	6.21	0
2	28545	6.31	0
2	29091	6.41	0
2	29637	6.51	0
2	30183	6.61	0
2	30729	6.71	0
2	31275	6.81	0
2	31821	6.91	0
2	32375	7.01	0
2	32921	7.11	0
2	33467	7.21	0
2	34013	7.31	0
2	34559	7.41	0
2	35105	7.51	0
2	35651	7.61	0
2	36197	7.71	0
2	36743	7.81	0
2	37289	7.91	0
2	37843	8.01	0
2	38389	8.11	0
2	38935	8.21	0
2	39481	8.31	0
2	40027	8.41	0
2	40573	8.51	0
2	41119	8.61	0
2	41665	8.71	0
2	42211	8.81	0
2	42757	8.91	0
2	43311	9.01	0
2	43857	9.11	0
2	44403	9.21	0
2	44949	9.31	0
2	45495	9.41	0
2	46041	9.51	0
2	46587	9.61	0
2	47133	9.71	0
2	47679	9.81	0
2	48225	9.91	0
2	48853	10.01	0
2	49406	10.11	0
2	49959	10.21	0
2	50512	10.31	0
2	51065	10.41	0
2	51618	10.51	0
2	52171	10.61	0
2	52724	10.71	0
2	53277	10.81	0
2	53830	10.91	0
2	54391	11.01	0
2	54944	11.11	0
2	55497	11.21	0
2	56050	11.31	0
2	56603	11.41	0
2	57156	11.51	0
2	57709	11.61	0
2	58262	11.71	0
2	58815	11.81	0
2	59368	11.91	0
2	59929	12.01	0
2	60482	12.11	0
2	61035	12.21	0
2	61588	12.31	0
2	62141	12.41	0
2	62694	12.51	0
2	63247	12.61	0
2	63800	12.71	0
2	64353	12.81	0
2	64906	12.91	0
2	65467	13.01	0
2	66020	13.11	0
2	66573	13.21	0
2	67126	13.31	0
2	67679	13.41	0
2	68232	13.51	0
2	68785	13.61	0
2	69338	13.71	0
2	69891	13.81	0
2	70444	13.91	0
2	71005	14.01	0
2	71558	14.11	0
2	72111	14.21	0
2	72664	14.31	0
2	73217	14.41	0
2	73770	14.51	0
2	74323	14.61	0
2	74876	14.71	0
2	75429	14.81	0
2	75982	14.91	0
2	76543	15.01	0
2	77096	15.11	0
2	77649	15.21	0
2	78202	15.31	0
2	78755	15.41	0
2	79308	15.51	0
2	79861	15.61	0
2	80414	15.71	0
2	80967	15.81	0
2	81520	15.91	0
2	82081	16.01	0
2	82634	16.11	0
2	83187	16.21	0
2	83740	16.31	0
2	84293	16.41	0
2	84846	16.51	0
2	85399	16.61	0
2	85952	16.71	0
2	86505	16.81	0
2	87058	16.91	0
2	87619	17.01	0
2	88172	17.11	0
2	88725	17.21	0
2	89278	17.31	0
2	89831	17.41	0
2	90384	17.51	0
2	90937	17.61	0
2	91490	17.71	0
2	92043	17.81	0
2	92596	17.91	0
2	93157	18.01	0
2	93710	18.11	0
2	94263	18.21	0
2	94816	18.31	0
2	95369	18.41	0
2	95922	18.51	0
2	96475	18.61	0
2	97028	18.71	0
2	97581	18.81	0
2	98134	18.91	0
2	98695	19.01	0
2	99248	19.11	0
2	99801	19.21	0
2	100354	19.31	0
2	100907	19.41	0
2	101460	19.51	0
2	102013	19.61	0
2	102566	19.71	0
2	103119	19.81	0
2	103672	19.91	0
2	104233	20.01	0
2	104786	20.11	0
2	105339	20.21	0
2	105892	20.31	0
2	106445	20.41	0
2	106998	20.51	0
2	107551	20.61	0
2	108104	20.71	0
2	108657	20.81	0
2	109210	20.91	0
2	109771	21.01	0
2	110324	21.11	0
2	110877	21.21	0
2	111430	21.31	0
2	111983	21.41	0
2	112536	21.51	0
2	113089	21.61	0
2	113642	21.71	0
2	114195	21.81	0
2	114748	21.91	0
2	115309	22.01	0
2	115862	22.11	0
2	116415	22.21	0
2	116968	22.31	0
2	117521	22.41	0
2	118074	22.51	0
2	118627	22.61	0
2	119180	22.71	0
2	119733	22.81	0
2	120286	22.91	0
2	120847	23.01	0
2	121400	23.11	0
2	121953	23.21	0
2	122506	23.31	0
2	123059	23.41	0
2	123612	23.51	0
2	124165	23.61	0
2	124718	23.71	0
2	125271	23.81	0
2	125824	23.91	0
2	126385	24.01	0
2	126938	24.11	0
2	127491	24.21	0
2	128044	24.31	0
2	128597	24.41	0
2	129150	24.51	0
2	129703	24.61	0
2	130256	24.71	0
2	130809	24.81	0
2	131362	24.91	0
2	131923	25.01	0
2	132476	25.11	0
2	133029	25.21	0
2	133582	25.31	0
2	134135	25.41	0
2	134688	25.51	0
2	135241	25.61	0
2	135794	25.71	0
2	136347	25.81	0
2	136900	25.91	0
2	137461	26.01	0
2	138014	26.11	0
2	138567	26.21	0
2	139120	26.31	0
2	139673	26.41	0
2	140226	26.51	0
2	140779	26.61	0
2	141332	26.71	0
2	141885	26.81	0
2	142438	26.91	0
2	142999	27.01	0
2	143552	27.11	0
2	144105	27.21	0
2	144658	27.31	0
2	145211	27.41	0
2	145764	27.51	0
2	146317	27.61	0
2	146870	27.71	0
2	147423	27.81	0
2	147976	27.91	0
2	148537	28.01	0
2	149090	28.11	0
2	149643	28.21	0
2	150196	28.31	0
2	150749	28.41	0
2	151302	28.51	0
2	151855	28.61	0
2	152408	28.71	0
2	152961	28.81	0
2	153514	28.91	0
2	154075	29.01	0
2	154628	29.11	0
2	155181	29.21	0
2	155827	29.31	0
2	156379	29.41	0
2	156931	29.51	0
2	157483	29.61	0
2	158035	29.71	0
2	158587	29.81	0
2	159139	29.91	0
2	159699	30.01	0
2	160251	30.11	0
2	160803	30.21	0
2	161355	30.31	0
2	161907	30.41	0
2	162459	30.51	0
2	163011	30.61	0
2	163563	30.71	0
2	164115	30.81	0
2	164667	30.91	0
2	165227	31.01	0
2	165779	31.11	0
2	166331	31.21	0
2	166883	31.31	0
2	167435	31.41	0
2	167987	31.51	0
2	168539	31.61	0
2	169091	31.71	0
2	169643	31.81	0
2	170195	31.91	0
2	170755	32.01	0
2	171307	32.11	0
2	171859	32.21	0
2	172411	32.31	0
2	172963	32.41	0
2	173515	32.51	0
2	174067	32.61	0
2	174619	32.71	0
2	175171	32.81	0
2	175723	32.91	0
2	176283	33.01	0
2	176835	33.11	0
2	177387	33.21	0
2	177939	33.31	0
2	178491	33.41	0
2	179136	33.51	0
2	179687	33.61	0
2	180238	33.71	0
2	180789	33.81	0
2	181340	33.91	0
2	181899	34.01	0
2	182450	34.11	0
2	183001	34.21	0
2	183552	34.31	0
2	184103	34.41	0
2	184654	34.51	0
2	185205	34.61	0
2	185756	34.71	0
2	186307	34.81	0
2	186858	34.91	0
2	187417	35.01	0
2	187968	35.11	0
2	188519	35.21	0
2	189070	35.31	0
2	189621	35.41	0
2	190172	35.51	0
2	190723	35.61	0
2	191274	35.71	0
2	191825	35.81	0
2	192376	35.91	0
2	192935	36.01	0
2	193486	36.11	0
2	194037	36.21	0
2	194588	36.31	0
2	195139	36.41	0
2	195690	36.51	0
2	196241	36.61	0
2	196792	36.71	0
2	197343	36.81	0
2	197894	36.91	0
2	198453	37.01	0
2	199004	37.11	0
2	199555	37.21	0
2	200106	37.31	0
2	200657	37.41	0
2	201301	37.51	0
2	201851	37.61	0
2	202401	37.71	0
2	202951	37.81	0
2	203501	37.91	0
2	204059	38.01	0
2	204609	38.11	0
2	205159	38.21	0
2	205709	38.31	0
2	206259	38.41	0
2	206809	38.51	0
2	207359	38.61	0
2	207909	38.71	0
2	208459	38.81	0
2	209009	38.91	0
2	209567	39.01	0
2	210117	39.11	0
2	210667	39.21	0
2	211217	39.31	0
2	211767	39.41	0
2	212317	39.51	0
2	212867	39.61	0
2	213417	39.71	0
2	213967	39.81	0
2	214517	39.91	0
2	215075	40.01	0
2	215625	40.11	0
2	216175	40.21	0
2	216725	40.31	0
2	217275	40.41	0
2	217825	40.51	0
2	218375	40.61	0
2	218925	40.71	0
2	219475	40.81	0
2	220025	40.91	0
2	220583	41.01	0
2	221133	41.11	0
2	221683	41.21	0
2	222326	41.31	0
2	222875	41.41	0
2	223424	41.51	0
2	223973	41.61	0
2	224522	41.71	0
2	225071	41.81	0
2	225620	41.91	0
2	226177	42.01	0
2	226726	42.11	0
2	227275	42.21	0
2	227824	42.31	0
2	228373	42.41	0
2	228922	42.51	0
2	229471	42.61	0
2	230020	42.71	0
2	230569	42.81	0
2	231118	42.91	0
2	231675	43.01	0
2	232224	43.11	0
2	232773	43.21	0
2	233322	43.31	0
2	233871	43.41	0
2	234420	43.51	0
2	234969	43.61	0
2	235518	43.71	0
2	236067	43.81	0
2	236616	43.91	0
2	237173	44.01	0
2	237722	44.11	0
2	238271	44.21	0
2	238820	44.31	0
2	239369	44.41	0
2	239918	44.51	0
2	240467	44.61	0
2	241016	44.71	0
2	241565	44.81	0
2	242114	44.91	0
2	242764	45.01	0
2	243312	45.11	0
2	243860	45.21	0
2	244408	45.31	0
2	244956	45.41	0
2	245504	45.51	0
2	246052	45.61	0
2	246600	45.71	0
2	247148	45.81	0
2	247696	45.91	0
2	248252	46.01	0
2	248800	46.11	0
2	249348	46.21	0
2	249896	46.31	0
2	250444	46.41	0
2	250992	46.51	0
2	251540	46.61	0
2	252088	46.71	0
2	252636	46.81	0
2	253184	46.91	0
2	253740	47.01	0
2	254288	47.11	0
2	254836	47.21	0
2	255384	47.31	0
2	255932	47.41	0
2	256480	47.51	0
2	257028	47.61	0
2	257576	47.71	0
2	258124	47.81	0
2	258672	47.91	0
2	259228	48.01	0
2	259776	48.11	0
2	260324	48.21	0
2	260872	48.31	0
2	261420	48.41	0
2	261968	48.51	0
2	262609	48.61	0
2	263156	48.71	0
2	263703	48.81	0
2	264250	48.91	0
2	264805	49.01	0
2	265352	49.11	0
2	265899	49.21	0
2	266446	49.31	0
2	266993	49.41	0
2	267540	49.51	0
2	268087	49.61	0
2	268634	49.71	0
2	269181	49.81	0
2	269728	49.91	0
2	270283	50.01	0
2	270830	50.11	0
2	271377	50.21	0
2	271924	50.31	0
2	272471	50.41	0
2	273018	50.51	0
2	273565	50.61	0
2	274112	50.71	0
2	274659	50.81	0
2	275206	50.91	0
2	275761	51.01	0
2	276308	51.11	0
2	276855	51.21	0
2	277402	51.31	0
2	277949	51.41	0
2	278496	51.51	0
2	279043	51.61	0
2	279590	51.71	0
2	280137	51.81	0
2	280684	51.91	0
2	281239	52.01	0
2	282544	52.11	0
2	283090	52.21	0
2	283636	52.31	0
2	284182	52.41	0
2	284728	52.51	0
2	285274	52.61	0
2	285820	52.71	0
2	286366	52.81	0
2	286912	52.91	0
2	287466	53.01	0
2	288012	53.11	0
2	288558	53.21	0
2	289104	53.31	0
2	289650	53.41	0
2	290196	53.51	0
2	290742	53.61	0
2	291288	53.71	0
2	291834	53.81	0
2	292380	53.91	0
2	292934	54.01	0
2	293480	54.11	0
2	294026	54.21	0
2	294572	54.31	0
2	295118	54.41	0
2	295664	54.51	0
2	296210	54.61	0
2	296756	54.71	0
2	297302	54.81	0
2	297848	54.91	0
2	298402	55.01	0
2	298948	55.11	0
2	299494	55.21	0
2	300040	55.31	0
2	300586	55.41	0
2	301132	55.51	0
2	301678	55.61	0
2	302224	55.71	0
2	302770	55.81	0
2	303316	55.91	0
2	303870	56.01	0
2	304416	56.11	0
2	304962	56.21	0
2	305508	56.31	0
2	306054	56.41	0
2	306600	56.51	0
2	307146	56.61	0
2	307692	56.71	0
2	308238	56.81	0
2	308784	56.91	0
2	309338	57.01	0
2	309884	57.11	0
2	310430	57.21	0
2	310976	57.31	0
2	311522	57.41	0
2	312068	57.51	0
2	312614	57.61	0
2	313160	57.71	0
2	313706	57.81	0
2	314252	57.91	0
2	314806	58.01	0
2	315352	58.11	0
2	315898	58.21	0
2	316444	58.31	0
2	316990	58.41	0
2	317536	58.51	0
2	318082	58.61	0
2	318628	58.71	0
2	319174	58.81	0
2	319720	58.91	0
2	320274	59.01	0
2	320820	59.11	0
2	321366	59.21	0
2	321912	59.31	0
2	322458	59.41	0
2	323004	59.51	0
2	323550	59.61	0
2	324096	59.71	0
2	324642	59.81	0
2	325188	59.91	0
2	325742	60.01	0
2	326288	60.11	0
2	326834	60.21	0
2	327380	60.31	0
2	327926	60.41	0
2	328472	60.51	0
2	329018	60.61	0
2	329564	60.71	0
2	330110	60.81	0
2	330656	60.91	0
2	331210	61.01	0
2	331756	61.11	0
2	332302	61.21	0
2	332848	61.31	0
2	333394	61.41	0
2	333940	61.51	0
2	334486	61.61	0
2	335032	61.71	0
2	335578	61.81	0
2	336124	61.91	0
2	336678	62.01	0
2	337224	62.11	0
2	337770	62.21	0
2	338316	62.31	0
2	338862	62.41	0
2	339408	62.51	0
2	339954	62.61	0
2	340500	62.71	0
2	341046	62.81	0
2	341592	62.91	0
2	342146	63.01	0
2	342692	63.11	0
2	343238	63.21	0
2	343784	63.31	0
2	344330	63.41	0
2	344876	63.51	0
2	345422	63.61	0
2	345968	63.71	0
2	346514	63.81	0
2	347060	63.91	0
2	347614	64.01	0
2	348160	64.11	0
2	348706	64.21	0
2	349252	64.31	0
2	349798	64.41	0
2	350344	64.51	0
2	350890	64.61	0
2	351436	64.71	0
2	351982	64.81	0
2	352528	64.91	0
2	353082	65.01	0
2	353628	65.11	0
2	354174	65.21	0
2	354720	65.31	0
2	355266	65.41	0
2	355812	65.51	0
2	356358	65.61	0
2	356904	65.71	0
2	357450	65.81	0
2	357996	65.91	0
2	358550	66.01	0
2	359096	66.11	0
2	359642	66.21	0
2	360188	66.31	0
2	360734	66.41	0
2	361280	66.51	0
2	361826	66.61	0
2	362372	66.71	0
2	362918	66.81	0
2	363464	66.91	0
2	364018	67.01	0
2	364564	67.11	0
2	365110	67.21	0
2	365656	67.31	0
2	366202	67.41	0
2	366748	67.51	0
2	367294	67.61	0
2	367840	67.71	0
2	368386	67.81	0
2	368932	67.91	0
2	369486	68.01	0
2	370032	68.11	0
2	370578	68.21	0
2	371124	68.31	0
2	371670	68.41	0
2	372216	68.51	0
2	372762	68.61	0
2	373308	68.71	0
2	373854	68.81	0
2	374400	68.91	0
2	374954	69.01	0
2	375500	69.11	0
2	376046	69.21	0
2	376592	69.31	0
2	377138	69.41	0
2	377684	69.51	0
2	378230	69.61	0
2	378776	69.71	0
2	379322	69.81	0
2	379868	69.91	0
2	380422	70.01	0
2	380968	70.11	0
2	381514	70.21	0
2	382060	70.31	0
2	382606	70.41	0
2	383152	70.51	0
2	383698	70.61	0
2	384244	70.71	0
2	384790	70.81	0
2	385336	70.91	0
2	385890	71.01	0
2	386436	71.11	0
2	386982	71.21	0
2	387528	71.31	0
2	388074	71.41	0
2	388620	71.51	0
2	389166	71.61	0
2	389712	71.71	0
2	390258	71.81	0
2	390804	71.91	0
2	391358	72.01	0
2	391904	72.11	0
2	392450	72.21	0
2	392996	72.31	0
2	393542	72.41	0
2	394088	72.51	0
2	394634	72.61	0
2	395180	72.71	0
2	395726	72.81	0
2	396272	72.91	0
2	396826	73.01	0
2	397372	73.11	0
2	397918	73.21	0
2	398464	73.31	0
2	399010	73.41	0
2	399556	73.51	0
2	400102	73.61	0
2	400648	73.71	0
2	401194	73.81	0
2	401740	73.91	0
2	402294	74.01	0
2	402840	74.11	0
2	403386	74.21	0
2	403932	74.31	0
2	404478	74.41	0
2	405024	74.51	0
2	405570	74.61	0
2	406116	74.71	0
2	406662	74.81	0
2	407208	74.91	0
2	407762	75.01	0
2	408308	75.11	0
2	408854	75.21	0
2	409400	75.31	0
2	409946	75.41	0
2	410492	75.51	0
2	411038	75.61	0
2	411584	75.71	0
2	412130	75.81	0
2	412676	75.91	0
2	413230	76.01	0
2	413776	76.11	0
2	414322	76.21	0
2	414868	76.31	0
2	415414	76.41	0
2	415960	76.51	0
2	416506	76.61	0
2	417052	76.71	0
2	417598	76.81	0
2	418144	76.91	0
2	418698	77.01	0
2	419244	77.11	0
2	419790	77.21	0
2	420336	77.31	0
2	420882	77.41	0
2	421428	77.51	0
2	421974	77.61	0
2	422520	77.71	0
2	423066	77.81	0
2	423612	77.91	0
2	424166	78.01	0
2	424712	78.11	0
2	425258	78.21	0
2	425804	78.31	0
2	426350	78.41	0
2	426896	78.51	0
2	427442	78.61	0
2	427988	78.71	0
2	428534	78.81	0
2	429080	78.91	0
2	429634	79.01	0
2	430180	79.11	0
2	430726	79.21	0
2	431272	79.31	0
2	431818	79.41	0
2	432364	79.51	0
2	432910	79.61	0
2	433456	79.71	0
2	434002	79.81	0
2	434548	79.91	0
2	435102	80.01	0
2	435648	80.11	0
2	436194	80.21	0
2	436740	80.31	0
2	437286	80.41	0
2	437832	80.51	0
2	438378	80.61	0
2	438924	80.71	0
2	439470	80.81	0
2	440016	80.91	0
2	440570	81.01	0
2	441116	81.11	0
2	441662	81.21	0
2	442208	81.31	0
2	442754	81.41	0
2	443300	81.51	0
2	443846	81.61	0
2	444392	81.71	0
2	444938	81.81	0
2	445484	81.91	0
2	446038	82.01	0
2	446584	82.11	0
2	447130	82.21	0
2	447676	82.31	0
2	448222	82.41	0
2	448768	82.51	0
2	449314	82.61	0
2	449860	82.71	0
2	450406	82.81	0
2	450952	82.91	0
2	451506	83.01	0
2	452052	83.11	0
2	452598	83.21	0
2	453144	83.31	0
2	453690	83.41	0
2	454236	83.51	0
2	454782	83.61	0
2	455328	83.71	0
2	455874	83.81	0
2	456420	83.91	0
2	456974	84.01	0
2	457520	84.11	0
2	458066	84.21	0
2	458612	84.31	0
2	459158	84.41	0
2	459704	84.51	0
2	460250	84.61	0
2	460796	84.71	0
2	461342	84.81	0
2	461888	84.91	0
2	462442	85.01	0
2	462988	85.11	0
2	463534	85.21	0
2	464080	85.31	0
2	464626	85.41	0
2	465172	85.51	0
2	465718	85.61	0
2	466264	85.71	0
2	466810	85.81	0
2	467356	85.91	0
2	467910	86.01	0
2	468456	86.11	0
2	469002	86.21	0
2	469548	86.31	0
2	470094	86.41	0
2	470640	86.51	0
2	471186	86.61	0
2	471732	86.71	0
2	472278	86.81	0
2	472824	86.91	0
2	473378	87.01	0
2	473924	87.11	0
2	474470	87.21	0
2	475016	87.31	0
2	475562	87.41	0
2	476108	87.51	0
2	476654	87.61	0
2	477200	87.71	0
2	477746	87.81	0
2	478292	87.91	0
2	478846	88.01	0
2	479392	88.11	0
2	479938	88.21	0
2	480484	88.31	0
2	481030	88.41	0
2	481576	88.51	0
2	482122	88.61	0
2	482668	88.71	0
2	483214	88.81	0
2	483760	88.91	0
2	484314	89.01	0
2	484860	89.11	0
2	485406	89.21	0
2	485952	89.31	0
2	486498	89.41	0
2	487044	89.51	0
2	487590	89.61	0
2	488136	89.71	0
2	488682	89.81	0
2	489228	89.91	0
2	489782	90.01	0
2	490328	90.11	0
2	490874	90.21	0
2	491420	90.31	0
2	491966	90.41	0
2	492512	90.51	0
2	493058	90.61	0
2	493604	90.71	0
2	494150	90.81	0
2	494696	90.91	0
2	495250	91.01	0
2	495796	91.11	0
2	496342	91.21	0
2	496888	91.31	0
2	497434	91.41	0
2	497980	91.51	0
2	498526	91.61	0
2	499072	91.71	0
2	499618	91.81	0
2	500164	91.91	0
2	500718	92.01	0
2	501264	92.11	0
2	501810	92.21	0
2	502356	92.31	0
2	502902	92.41	0
2	503448	92.51	0
2	503994	92.61	0
2	504540	92.71	0
2	505086	92.81	0
2	505632	92.91	0
2	506186	93.01	0
2	506732	93.11	0
2	507278	93.21	0
2	507824	93.31	0
2	508370	93.41	0
2	508916	93.51	0
2	509462	93.61	0
2	510008	93.71	0
2	510554	93.81	0
2	511100	93.91	0
2	511654	94.01	0
2	512200	94.11	0
2	512746	94.21	0
2	513292	94.31	0
2	513838	94.41	0
2	514384	94.51	0
2	514930	94.61	0
2	515476	94.71	0
2	516022	94.81	0
2	516568	94.91	0
2	517122	95.01	0
2	517668	95.11	0
2	518214	95.21	0
2	518760	95.31	0
2	519306	95.41	0
2	519852	95.51	0
2	520398	95.61	0
2	520944	95.71	0
2	521490	95.81	0
2	522036	95.91	0
2	522590	96.01	0
2	523136	96.11	0
2	523682	96.21	0
2	524228	96.31	0
2	524774	96.41	0
2	525320	96.51	0
2	525866	96.61	0
2	526412	96.71	0
2	526958	96.81	0
2	527504	96.91	0
2	528058	97.01	0
2	528604	97.11	0
2	529150	97.21	0
2	529696	97.31	0
2	530242	97.41	0
2	530788	97.51	0
2	531334	97.61	0
2	531880	97.71	0
2	532426	97.81	0
2	532972	97.91	0
2	533526	98.01	0
2	534072	98.11	0
2	534618	98.21	0
2	535164	98.31	0
2	535710	98.41	0
2	536256	98.51	0
2	536802	98.61	0
2	537348	98.71	0
2	537894	98.81	0
2	538440	98.91	0
2	538994	99.01	0
2	539540	99.11	0
2	540086	99.21	0
2	540632	99.31	0
2	541178	99.41	0
2	541724	99.51	0
2	542270	99.61	0
2	542816	99.71	0
2	543362	99.81	0
2	543908	99.91	0
3	113	1.11	-0.000716383
3	659	1.21	-0.00136341
3	1205	1.31	-0.00186974
3	1751	1.41	-0.00225157
3	2297	1.51	-0.00252443
3	2843	1.61	-0.00270298
3	3389	1.71	-0.00280098
3	3935	1.81	-0.00283113
3	4481	1.91	-0.00280509
3	5035	2.01	-0.00273342
3	5581	2.11	-0.00262559
3	6127	2.21	-0.00249005
3	6673	2.31	-0.00233419
3	7219	2.41	-0.00216447
3	7765	2.51	-0.00198642
3	8311	2.61	-0.00180472
3	8857	2.71	-0.0016233
3	9403	2.81	-0.00144536
3	9949	2.91	-0.00127346
3	10503	3.01	-0.0011096
3	11049	3.11	-0.000955278
3	11595	3.21	-0.000811546
3	12141	3.31	-0.00067908
3	12687	3.41	-0.000558232
3	13233	3.51	-0.000449082
3	13779	3.61	-0.000351487
3	14325	3.71	-0.00026512
3	14871	3.81	-0.000189514
3	15417	3.91	-0.000124092
3	15971	4.01	-6.81972e-05
3	16517	4.11	-2.11209e-05
3	17063	4.21	1.78769e-05
3	17609	4.31	4.9548e-05
3	18155	4.41	7.46407e-05
3	18701	4.51	9.38867e-05
3	19247	4.61	0.000107991
3	19793	4.71	0.000117625
3	20339	4.81	0.000123418
3	20885	4.91	0.000125957
3	21439	5.01	0.000125781
3	21985	5.11	0.00012338
3	22531	5.21	0.000119198
3	23077	5.31	0.000113629
3	23623	5.41	0.000107022
3	24169	5.51	9.96832e-05
3	24715	5.61	9.18747e-05
3	25261	5.71	8.38211e-05
3	25807	5.81	7.57109e-05
3	26353	5.91	6.76999e-05
3	26907	6.01	5.99137e-05
3	27453	6.11	5.24518e-05
3	27999	6.21	4.53896e-05
3	28545	6.31	3.87821e-05
3	29091	6.41	3.2666e-05
3	29637	6.51	2.70628e-05
3	30183	6.61	2.19809e-05
3	30729	6.71	1.74176e-05
3	31275	6.81	1.33618e-05
3	31821	6.91	9.79494e-06
3	32375	7.01	6.6932e-06
3	32921	7.11	4.02864e-06
3	33467	7.21	1.77051e-06
3	34013	7.31	-1.13691e-07
3	34559	7.41	-1.65736e-06
3	35105	7.51	-2.89397e-06
3	35651	7.61	-3.85652e-06
3	36197	7.71	-4.57698e-06
3	36743	7.81	-5.08591e-06
3	37289	7.91	-5.41219e-06
3	37843	8.01	-5.58279e-06
3	38389	8.11	-5.6226e-06
3	38935	8.21	-5.55442e-06
3	39481	8.31	-5.39886e-06
3	40027	8.41	-5.17441e-06
3	40573	8.51	-4.89748e-06
3	41119	8.61	-4.58246e-06
3	41665	8.71	-4.24184e-06
3	42211	8.81	-3.88634e-06
3	42757	8.91	-3.52499e-06
3	43311	9.01	-3.16534e-06
3	43857	9.11	-2.81353e-06
3	44403	9.21	-2.47446e-06
3	44949	9.31	-2.15192e-06
3	45495	9.41	-1.84873e-06
3	46041	9.51	-1.56685e-06
3	46587	9.61	-1.30751e-06
3	47133	9.71	-1.0713e-06
3	47679	9.81	-8.58321e-07
3	48225	9.91	-6.68206e-07
3	48853	10.01	-5.0026e-07
3	49406	10.11	-3.53514e-07
3	49959	10.21	-2.2679e-07
3	50512	10.31	-1.18765e-07
3	51065	10.41	-2.80163e-08
3	51618	10.51	4.6931e-08
3	52171	10.61	1.07573e-07
3	52724	10.71	1.55391e-07
3	53277	10.81	1.91831e-07
3	53830	10.91	2.18284e-07
3	54391	11.01	2.3607e-07
3	54944	11.11	2.46427e-07
3	55497	11.21	2.50502e-07
3	56050	11.31	2.49353e-07
3	56603	11.41	2.43938e-07
3	57156	11.51	2.3512e-07
3	57709	11.61	2.23669e-07
3	58262	11.71	2.10264e-07
3	58815	11.81	1.95496e-07
3	59368	11.91	1.79874e-07
3	59929	12.01	1.63833e-07
3	60482	12.11	1.47736e-07
3	61035	12.21	1.3188e-07
3	61588	12.31	1.16508e-07
3	62141	12.41	1.01807e-07
3	62694	12.51	8.79222e-08
3	63247	12.61	7.49541e-08
3	63800	12.71	6.29711e-08
3	64353	12.81	5.20114e-08
3	64906	12.91	4.20883e-08
3	65467	13.01	3.3193e-08
3	66020	13.11	2.53003e-08
3	66573	13.21	1.83718e-08
3	67126	13.31	1.23581e-08
3	67679	13.41	7.20348e-09
3	68232	13.51	2.84537e-09
3	68785	13.61	-7.80886e-10
3	69338	13.71	-3.74136e-09
3	69891	13.81	-6.10285e-09
3	70444	13.91	-7.93072e-09
3	71005	14.01	-9.28821e-09
3	71558	14.11	-1.0235e-08
3	72111	14.21	-1.08283e-08
3	72664	14.31	-1.11211e-08
3	73217	14.41	-1.11612e-08
3	73770	14.51	-1.09946e-08
3	74323	14.61	-1.06599e-08
3	74876	14.71	-1.01945e-08
3	75429	14.81	-9.62999e-09
3	75982	14.91	-8.99405e-09
3	76543	15.01	-8.31086e-09
3	77096	15.11	-7.60103e-09
3	77649	15.21	-6.88338e-09
3	78202	15.31	-6.17071e-09
3	78755	15.41	-5.47544e-09
3	79308	15.51	-4.80682e-09
3	79861	15.61	-4.17266e-09
3	80414	15.71	-3.57687e-09
3	80967	15.81	-3.02443e-09
3	81520	15.91	-2.51674e-09
3	82081	16.01	-2.05489e-09
3	82634	16.11	-1.63958e-09
3	83187	16.21	-1.26903e-09
3	83740	16.31	-9.42535e-10
3	84293	16.41	-6.57963e-10
3	84846	16.51	-4.1247e-10
3	85399	16.61	-2.04636e-10
3	85952	16.71	-2.91323e-11
3	86505	16.81	1.14753e-10
3	87058	16.91	2.30926e-10
3	87619	17.01	3.22231e-10
3	88172	17.11	3.91154e-10
3	88725	17.21	4.40892e-10
3	89278	17.31	4.73577e-10
3	89831	17.41	4.92051e-10
3	90384	17.51	4.98446e-10
3	90937	17.61	4.94893e-10
3	91490	17.71	4.82814e-10
3	92043	17.81	4.6434e-10
3	92596	17.91	4.40892e-10
3	93157	18.01	4.13536e-10
3	93710	18.11	3.83693e-10
3	94263	18.21	3.51719e-10
3	94816	18.31	3.19744e-10
3	95369	18.41	2.8777e-10
3	95922	18.51	2.55795e-10
3	96475	18.61	2.25953e-10
3	97028	18.71	1.97531e-10
3	97581	18.81	1.6982e-10
3	98134	18.91	1.44951e-10
3	98695	19.01	1.21503e-10
3	99248	19.11	1.00187e-10
3	99801	19.21	8.10019e-11
3	100354	19.31	6.32383e-11
3	100907	19.41	4.86722e-11
3	101460	19.51	3.44613e-11
3	102013	19.61	2.34479e-11
3	102566	19.71	1.27898e-11
3	103119	19.81	4.9738e-12
3	103672	19.91	-2.13163e-12
3	104233	20.01	-8.17124e-12
3	104786	20.11	-1.1724e-11
3	105339	20.21	-1.52767e-11
3	105892	20.31	-1.88294e-11
3	106445	20.41	-2.02505e-11
3	106998	20.51	-2.02505e-11
3	107551	20.61	-2.02505e-11
3	108104	20.71	-2.02505e-11
3	108657	20.81	-2.02505e-11
3	109210	20.91	-2.02505e-11
3	109771	21.01	-2.02505e-11
3	110324	21.11	-2.02505e-11
3	110877	21.21	-2.02505e-11
3	111430	21.31	-1.88294e-11
3	111983	21.41	-1.7053e-11
3	112536	21.51	-1.52767e-11
3	113089	21.61	-1.38556e-11
3	113642	21.71	-1.24345e-11
3	114195	21.81	-1.13687e-11
3	114748	21.91	-1.03029e-11
3	115309	22.01	-9.23706e-12
3	115862	22.11	-8.52651e-12
3	116415	22.21	-7.4607e-12
3	116968	22.31	-6.75016e-12
3	117521	22.41	-6.03961e-12
3	118074	22.51	-5.68434e-12
3	118627	22.61	-4.9738e-12
3	119180	22.71	-4.61853e-12
3	119733	22.81	-4.26326e-12
3	120286	22.91	-3.90799e-12
3	120847	23.01	-3.55271e-12
3	121400	23.11	-3.19744e-12
3	121953	23.21	-2.84217e-12
3	122506	23.31	-2.4869e-12
3	123059	23.41	-2.13163e-12
3	123612	23.51	-2.13163e-12
3	124165	23.61	-1.77636e-12
3	124718	23.71	-1.77636e-12
3	125271	23.81	-1.42109e-12
3	125824	23.91	-1.42109e-12
3	126385	24.01	-1.06581e-12
3	126938	24.11	-1.06581e-12
3	127491	24.21	-1.06581e-12
3	128044	24.31	-1.06581e-12
3	128597	24.41	-7.10543e-13
3	129150	24.51	-7.10543e-13
3	129703	24.61	-7.10543e-13
3	130256	24.71	-7.10543e-13
3	130809	24.81	-7.10543e-13
3	131362	24.91	-3.55271e-13
3	131923	25.01	-3.55271e-13
3	132476	25.11	-3.55271e-13
3	133029	25.21	-3.55271e-13
3	133582	25.31	-3.55271e-13
3	134135	25.41	-3.55271e-13
3	134688	25.51	-3.55271e-13
3	135241	25.61	-3.55271e-13
3	135794	25.71	-3.55271e-13
3	136347	25.81	-3.55271e-13
3	136900	25.91	0
3	137461	26.01	0
3	138014	26.11	0
3	138567	26.21	0
3	139120	26.31	0
3	139673	26.41	0
3	140226	26.51	0
3	140779	26.61	0
3	141332	26.71	0
3	141885	26.81	0
3	142438	26.91	0
3	142999	27.01	0
3	143552	27.11	0
3	144105	27.21	0
3	144658	27.31	0
3	145211	27.41	0
3	145764	27.51	0
3	146317	27.61	0
3	146870	27.71	0
3	147423	27.81	0
3	147976	27.91	0
3	148537	28.01	0
3	149090	28.11	0
3	149643	28.21	0
3	150196	28.31	0
3	150749	28.41	0
3	151302	28.51	0
3	151855	28.61	0
3	152408	28.71	0
3	152961	28.81	0
3	153514	28.91	0
3	154075	29.01	0
3	154628	29.11	0
3	155181	29.21	0
3	155827	29.31	0
3	156379	29.41	0
3	156931	29.51	0
3	157483	29.61	0
3	158035	29.71	0
3	158587	29.81	0
3	159139	29.91	0
3	159699	30.01	0
3	160251	30.11	0
3	160803	30.21	0
3	161355	30.31	0
3	161907	30.41	0
3	162459	30.51	0
3	163011	30.61	0
3	163563	30.71	0
3	164115	30.81	0
3	164667	30.91	0
3	165227	31.01	0
3	165779	31.11	0
3	166331	31.21	0
3	166883	31.31	0
3	167435	31.41	0
3	167987	31.51	0
3	168539	31.61	0
3	169091	31.71	0
3	169643	31.81	0
3	170195	31.91	0
3	170755	32.01	0
3	171307	32.11	0
3	171859	32.21	0
3	172411	32.31	0
3	172963	32.41	0
3	173515	32.51	0
3	174067	32.61	0
3	174619	32.71	0
3	175171	32.81	0
3	175723	32.91	0
3	176283	33.01	0
3	176835	33.11	0
3	177387	33.21	0
3	177939	33.31	0
3	178491	33.41	0
3	179136	33.51	0
3	179687	33.61	0
3	180238	33.71	0
3	180789	33.81	0
3	181340	33.91	0
3	181899	34.01	0
3	182450	34.11	0
3	183001	34.21	0
3	183552	34.31	0
3	184103	34.41	0
3	184654	34.51	0
3	185205	34.61	0
3	185756	34.71	0
3	186307	34.81	0
3	186858	34.91	0
3	187417	35.01	0
3	187968	35.11	0
3	188519	35.21	0
3	189070	35.31	0
3	189621	35.41	0
3	190172	35.51	0
3	190723	35.61	0
3	191274	35.71	0
3	191825	35.81	0
3	192376	35.91	0
3	192935	36.01	0
3	193486	36.11	0
3	194037	36.21	0
3	194588	36.31	0
3	195139	36.41	0
3	195690	36.51	0
3	196241	36.61	0
3	196792	36.71	0
3	197343	36.81	0
3	197894	36.91	0
3	198453	37.01	0
3	199004	37.11	0
3	199555	37.21	0
3	200106	37.31	0
3	200657	37.41	0
3	201301	37.51	0
3	201851	37.61	0
3	202401	37.71	0
3	202951	37.81	0
3	203501	37.91	0
3	204059	38.01	0
3	204609	38.11	0
3	205159	38.21	0
3	205709	38.31	0
3	206259	38.41	0
3	206809	38.51	0
3	207359	38.61	0
3	207909	38.71	0
3	208459	38.81	0
3	209009	38.91	0
3	209567	39.01	0
3	210117	39.11	0
3	210667	39.21	0
3	211217	39.31	0
3	211767	39.41	0
3	212317	39.51	0
3	212867	39.61	0
3	213417	39.71	0
3	213967	39.81	0
3	214517	39.91	0
3	215075	40.01	0
3	215625	40.11	0
3	216175	40.21	0
3	216725	40.31	0
3	217275	40.41	0
3	217825	40.51	0
3	218375	40.61	0
3	218925	40.71	0
3	219475	40.81	0
3	220025	40.91	0
3	220583	41.01	0
3	221133	41.11	0
3	221683	41.21	0
3	222326	41.31	0
3	222875	41.41	0
3	223424	41.51	0
3	223973	41.61	0
3	224522	41.71	0
3	225071	41.81	0
3	225620	41.91	0
3	226177	42.01	0
3	226726	42.11	0
3	227275	42.21	0
3	227824	42.31	0
3	228373	42.41	0
3	228922	42.51	0
3	229471	42.61	0
3	230020	42.71	0
3	230569	42.81	0
3	231118	42.91	0
3	231675	43.01	0
3	232224	43.11	0
3	232773	43.21	0
3	233322	43.31	0
3	233871	43.41	0
3	234420	43.51	0
3	234969	43.61	0
3	235518	43.71	0
3	236067	43.81	0
3	236616	43.91	0
3	237173	44.01	0
3	237722	44.11	0
3	238271	44.21	0
3	238820	44.31	0
3	239369	44.41	0
3	239918	44.51	0
3	240467	44.61	0
3	241016	44.71	0
3	241565	44.81	0
3	242114	44.91	0
3	242764	45.01	0
3	243312	45.11	0
3	243860	45.21	0
3	244408	45.31	0
3	244956	45.41	0
3	245504	45.51	0
3	246052	45.61	0
3	246600	45.71	0
3	247148	45.81	0
3	247696	45.91	0
3	248252	46.01	0
3	248800	46.11	0
3	249348	46.21	0
3	249896	46.31	0
3	250444	46.41	0
3	250992	46.51	0
3	251540	46.61	0
3	252088	46.71	0
3	252636	46.81	0
3	253184	46.91	0
3	253740	47.01	0
3	254288	47.11	0
3	254836	47.21	0
3	255384	47.31	0
3	255932	47.41	0
3	256480	47.51	0
3	257028	47.61	0
3	257576	47.71	0
3	258124	47.81	0
3	258672	47.91	0
3	259228	48.01	0
3	259776	48.11	0
3	260324	48.21	0
3	260872	48.31	0
3	261420	48.41	0
3	261968	48.51	0
3	262609	48.61	0
3	263156	48.71	0
3	263703	48.81	0
3	264250	48.91	0
3	264805	49.01	0
3	265352	49.11	0
3	265899	49.21	0
3	266446	49.31	0
3	266993	49.41	0
3	267540	49.51	0
3	268087	49.61	0
3	268634	49.71	0
3	269181	49.81	0
3	269728	49.91	0
3	270283	50.01	0
3	270830	50.11	0
3	271377	50.21	0
3	271924	50.31	0
3	272471	50.41	0
3	273018	50.51	0
3	273565	50.61	0
3	274112	50.71	0
3	274659	50.81	0
3	275206	50.91	0
3	275761	51.01	0
3	276308	51.11	0
3	276855	51.21	0
3	277402	51.31	0
3	277949	51.41	0
3	278496	51.51	0
3	279043	51.61	0
3	279590	51.71	0
3	280137	51.81	0
3	280684	51.91	0
3	281239	52.01	0
3	282544	52.11	0
3	283090	52.21	0
3	283636	52.31	0
3	284182	52.41	0
3	284728	52.51	0
3	285274	52.61	0
3	285820	52.71	0
3	286366	52.81	0
3	286912	52.91	0
3	287466	53.01	0
3	288012	53.11	0
3	288558	53.21	0
3	289104	53.31	0
3	289650	53.41	0
3	290196	53.51	0
3	290742	53.61	0
3	291288	53.71	0
3	291834	53.81	0
3	292380	53.91	0
3	292934	54.01	0
3	293480	54.11	0
3	294026	54.21	0
3	294572	54.31	0
3	295118	54.41	0
3	295664	54.51	0
3	296210	54.61	0
3	296756	54.71	0
3	297302	54.81	0
3	297848	54.91	0
3	298402	55.01	0
3	298948	55.11	0
3	299494	55.21	0
3	300040	55.31	0
3	300586	55.41	0
3	301132	55.51	0
3	301678	55.61	0
3	302224	55.71	0
3	302770	55.81	0
3	303316	55.91	0
3	303870	56.01	0
3	304416	56.11	0
3	304962	56.21	0
3	305508	56.31	0
3	306054	56.41	0
3	306600	56.51	0
3	307146	56.61	0
3	307692	56.71	0
3	308238	56.81	0
3	308784	56.91	0
3	309338	57.01	0
3	309884	57.11	0
3	310430	57.21	0
3	310976	57.31	0
3	311522	57.41	0
3	312068	57.51	0
3	312614	57.61	0
3	313160	57.71	0
3	313706	57.81	0
3	314252	57.91	0
3	314806	58.01	0
3	315352	58.11	0
3	315898	58.21	0
3	316444	58.31	0
3	316990	58.41	0
3	317536	58.51	0
3	318082	58.61	0
3	318628	58.71	0
3	319174	58.81	0
3	319720	58.91	0
3	320274	59.01	0
3	320820	59.11	0
3	321366	59.21	0
3	321912	59.31	0
3	322458	59.41	0
3	323004	59.51	0
3	323550	59.61	0
3	324096	59.71	0
3	324642	59.81	0
3	325188	59.91	0
3	325742	60.01	0
3	326288	60.11	0
3	326834	60.21	0
3	327380	60.31	0
3	327926	60.41	0
3	328472	60.51	0
3	329018	60.61	0
3	329564	60.71	0
3	330110	60.81	0
3	330656	60.91	0
3	331210	61.01	0
3	331756	61.11	0
3	332302	61.21	0
3	332848	61.31	0
3	333394	61.41	0
3	333940	61.51	0
3	334486	61.61	0
3	335032	61.71	0
3	335578	61.81	0
3	336124	61.91	0
3	336678	62.01	0
3	337224	62.11	0
3	337770	62.21	0
3	338316	62.31	0
3	338862	62.41	0
3	339408	62.51	0
3	339954	62.61	0
3	340500	62.71	0
3	341046	62.81	0
3	341592	62.91	0
3	342146	63.01	0
3	342692	63.11	0
3	343238	63.21	0
3	343784	63.31	0
3	344330	63.41	0
3	344876	63.51	0
3	345422	63.61	0
3	345968	63.71	0
3	346514	63.81	0
3	347060	63.91	0
3	347614	64.01	0
3	348160	64.11	0
3	348706	64.21	0
3	349252	64.31	0
3	349798	64.41	0
3	350344	64.51	0
3	350890	64.61	0
3	351436	64.71	0
3	351982	64.81	0
3	352528	64.91	0
3	353082	65.01	0
3	353628	65.11	0
3	354174	65.21	0
3	354720	65.31	0
3	355266	65.41	0
3	355812	65.51	0
3	356358	65.61	0
3	356904	65.71	0
3	357450	65.81	0
3	357996	65.91	0
3	358550	66.01	0
3	359096	66.11	0
3	359642	66.21	0
3	360188	66.31	0
3	360734	66.41	0
3	361280	66.51	0
3	361826	66.61	0
3	362372	66.71	0
3	362918	66.81	0
3	363464	66.91	0
3	364018	67.01	0
3	364564	67.11	0
3	365110	67.21	0
3	365656	67.31	0
3	366202	67.41	0
3	366748	67.51	0
3	367294	67.61	0
3	367840	67.71	0
3	368386	67.81	0
3	368932	67.91	0
3	369486	68.01	0
3	370032	68.11	0
3	370578	68.21	0
3	371124	68.31	0
3	371670	68.41	0
3	372216	68.51	0
3	372762	68.61	0
3	373308	68.71	0
3	373854	68.81	0
3	374400	68.91	0
3	374954	69.01	0
3	375500	69.11	0
3	376046	69.21	0
3	376592	69.31	0
3	377138	69.41	0
3	377684	69.51	0
3	378230	69.61	0
3	378776	69.71	0
3	379322	69.81	0
3	379868	69.91	0
3	380422	70.01	0
3	380968	70.11	0
3	381514	70.21	0
3	382060	70.31	0
3	382606	70.41	0
3	383152	70.51	0
3	383698	70.61	0
3	384244	70.71	0
3	384790	70.81	0
3	385336	70.91	0
3	385890	71.01	0
3	386436	71.11	0
3	386982	71.21	0
3	387528	71.31	0
3	388074	71.41	0
3	388620	71.51	0
3	389166	71.61	0
3	389712	71.71	0
3	390258	71.81	0
3	390804	71.91	0
3	391358	72.01	0
3	391904	72.11	0
3	392450	72.21	0
3	392996	72.31	0
3	393542	72.41	0
3	394088	72.51	0
3	394634	72.61	0
3	395180	72.71	0
3	395726	72.81	0
3	396272	72.91	0
3	396826	73.01	0
3	397372	73.11	0
3	397918	73.21	0
3	398464	73.31	0
3	399010	73.41	0
3	399556	73.51	0
3	400102	73.61	0
3	400648	73.71	0
3	401194	73.81	0
3	401740	73.91	0
3	402294	74.01	0
3	402840	74.11	0
3	403386	74.21	0
3	403932	74.31	0
3	404478	74.41	0
3	405024	74.51	0
3	405570	74.61	0
3	406116	74.71	0
3	406662	74.81	0
3	407208	74.91	0
3	407762	75.01	0
3	408308	75.11	0
3	408854	75.21	0
3	409400	75.31	0
3	409946	75.41	0
3	410492	75.51	0
3	411038	75.61	0
3	411584	75.71	0
3	412130	75.81	0
3	412676	75.91	0
3	413230	76.01	0
3	413776	76.11	0
3	414322	76.21	0
3	414868	76.31	0
3	415414	76.41	0
3	415960	76.51	0
3	416506	76.61	0
3	417052	76.71	0
3	417598	76.81	0
3	418144	76.91	0
3	418698	77.01	0
3	419244	77.11	0
3	419790	77.21	0
3	420336	77.31	0
3	420882	77.41	0
3	421428	77.51	0
3	421974	77.61	0
3	422520	77.71	0
3	423066	77.81	0
3	423612	77.91	0
3	424166	78.01	0
3	424712	78.11	0
3	425258	78.21	0
3	425804	78.31	0
3	426350	78.41	0
3	426896	78.51	0
3	427442	78.61	0
3	427988	78.71	0
3	428534	78.81	0
3	429080	78.91	0
3	429634	79.01	0
3	430180	79.11	0
3	430726	79.21	0
3	431272	79.31	0
3	431818	79.41	0
3	432364	79.51	0
3	432910	79.61	0
3	433456	79.71	0
3	434002	79.81	0
3	434548	79.91	0
3	435102	80.01	0
3	435648	80.11	0
3	436194	80.21	0
3	436740	80.31	0
3	437286	80.41	0
3	437832	80.51	0
3	438378	80.61	0
3	438924	80.71	0
3	439470	80.81	0
3	440016	80.91	0
3	440570	81.01	0
3	441116	81.11	0
3	441662	81.21	0
3	442208	81.31	0
3	442754	81.41	0
3	443300	81.51	0
3	443846	81.61	0
3	444392	81.71	0
3	444938	81.81	0
3	445484	81.91	0
3	446038	82.01	0
3	446584	82.11	0
3	447130	82.21	0
3	447676	82.31	0
3	448222	82.41	0
3	448768	82.51	0
3	449314	82.61	0
3	449860	82.71	0
3	450406	82.81	0
3	450952	82.91	0
3	451506	83.01	0
3	452052	83.11	0
3	452598	83.21	0
3	453144	83.31	0
3	453690	83.41	0
3	454236	83.51	0
3	454782	83.61	0
3	455328	83.71	0
3	455874	83.81	0
3	456420	83.91	0
3	456974	84.01	0
3	457520	84.11	0
3	458066	84.21	0
3	458612	84.31	0
3	459158	84.41	0
3	459704	84.51	0
3	460250	84.61	0
3	460796	84.71	0
3	461342	84.81	0
3	461888	84.91	0
3	462442	85.01	0
3	462988	85.11	0
3	463534	85.21	0
3	464080	85.31	0
3	464626	85.41	0
3	465172	85.51	0
3	465718	85.61	0
3	466264	85.71	0
3	466810	85.81	0
3	467356	85.91	0
3	467910	86.01	0
3	468456	86.11	0
3	469002	86.21	0
3	469548	86.31	0
3	470094	86.41	0
3	470640	86.51	0
3	471186	86.61	0
3	471732	86.71	0
3	472278	86.81	0
3	472824	86.91	0
3	473378	87.01	0
3	473924	87.11	0
3	474470	87.21	0
3	475016	87.31	0
3	475562	87.41	0
3	476108	87.51	0
3	476654	87.61	0
3	477200	87.71	0
3	477746	87.81	0
3	478292	87.91	0
3	478846	88.01	0
3	479392	88.11	0
3	479938	88.21	0
3	480484	88.31	0
3	481030	88.41	0
3	481576	88.51	0
3	482122	88.61	0
3	482668	88.71	0
3	483214	88.81	0
3	483760	88.91	0
3	484314	89.01	0
3	484860	89.11	0
3	485406	89.21	0
3	485952	89.31	0
3	486498	89.41	0
3	487044	89.51	0
3	487590	89.61	0
3	488136	89.71	0
3	488682	89.81	0
3	489228	89.91	0
3	489782	90.01	0
3	490328	90.11	0
3	490874	90.21	0
3	491420	90.31	0
3	491966	90.41	0
3	492512	90.51	0
3	493058	90.61	0
3	493604	90.71	0
3	494150	90.81	0
3	494696	90.91	0
3	495250	91.01	0
3	495796	91.11	0
3	496342	91.21	0
3	496888	91.31	0
3	497434	91.41	0
3	497980	91.51	0
3	498526	91.61	0
3	499072	91.71	0
3	499618	91.81	0
3	500164	91.91	0
3	500718	92.01	0
3	501264	92.11	0
3	501810	92.21	0
3	502356	92.31	0
3	502902	92.41	0
3	503448	92.51	0
3	503994	92.61	0
3	504540	92.71	0
3	505086	92.81	0
3	505632	92.91	0
3	506186	93.01	0
3	506732	93.11	0
3	507278	93.21	0
3	507824	93.31	0
3	508370	93.41	0
3	508916	93.51	0
3	509462	93.61	0
3	510008	93.71	0
3	510554	93.81	0
3	511100	93.91	0
3	511654	94.01	0
[...]
105	440324	81	0.024967997632
105	445792	82	0.024967807566
105	451260	83	0.024980609997
105	456728	84	0.024967397648
105	462196	85	0.024967161731
105	467664	86	0.024966894785
105	473132	87	0.024966596842
105	478600	88	0.024979273612
105	484068	89	0.024965929975
105	489536	90	0.024965568768
105	495004	91	0.024978192638
105	500472	92	0.024964804175
105	505940	93	0.024977404844
105	511408	94	0.024963973114
105	516876	95	0.024976465232
105	522344	96	0.02496303486
105	527812	97	0.024975598389
105	533280	98	0.02496215665
105	538748	99	0.024974727183
105	544216	100	0.024974339491
106	4789	2	0
106	10257	3	0
106	15725	4	0
106	21193	5	0
106	26661	6	0
106	32129	7	0
106	37597	8	0
106	43065	9	0
106	48534	10	0
106	54138	11	0
106	59676	12	0
106	65214	13	0
106	70752	14	0
106	76290	15	0
106	81828	16	0
106	87366	17	0
106	92904	18	0
106	98442	19	0
106	103980	20	0
106	109518	21	0
106	115056	22	0
106	120594	23	0
106	126132	24	0
106	131670	25	0
106	137208	26	0
106	142746	27	0
106	148284	28	0
106	153822	29	0
106	159447	30	0
106	164975	31	0
106	170503	32	0
106	176031	33	0
106	181648	34	0
106	187166	35	0
106	192684	36	0
106	198202	37	0
106	203809	38	0
106	209317	39	0
106	214825	40	0
106	220333	41	0
106	225928	42	0
106	231426	43	0
106	236924	44	0
106	242422	45	0
106	248004	46	0
106	253492	47	0
106	258980	48	0
106	264558	49	0
106	270036	50	0
106	275514	51	0
106	280992	52	0
106	287220	53	0
106	292688	54	0
106	298156	55	0
106	303624	56	0
106	309092	57	0
106	314560	58	0
106	320028	59	0
106	325496	60	0
106	330964	61	0
106	336432	62	0
106	341900	63	0
106	347368	64	0
106	352836	65	0
106	358304	66	0
106	363772	67	0
106	369240	68	0
106	374708	69	0
106	380176	70	0
106	385644	71	0
106	391112	72	0
106	396580	73	0
106	402048	74	0
106	407516	75	0
106	412984	76	0
106	418452	77	0
106	423920	78	0
106	429388	79	0
106	434856	80	0
106	440324	81	0
106	445792	82	0
106	451260	83	0
106	456728	84	0
106	462196	85	0
106	467664	86	0
106	473132	87	0
106	478600	88	0
106	484068	89	0
106	489536	90	0
106	495004	91	0
106	500472	92	0
106	505940	93	0
106	511408	94	0
106	516876	95	0
106	522344	96	0
106	527812	97	0
106	533280	98	0
106	538748	99	0
106	544216	100	0
107	4790	2	5
107	10258	3	5
107	15726	4	5
107	21194	5	5
107	26662	6	5
107	32130	7	5
107	37598	8	5
107	43066	9	5
107	48535	10	5
107	54139	11	5
107	59677	12	5
107	65215	13	5
107	70753	14	5
107	76291	15	5
107	81829	16	5
107	87367	17	5
107	92905	18	5
107	98443	19	5
107	103981	20	5
107	109519	21	5
107	115057	22	5
107	120595	23	5
107	126133	24	5
107	131671	25	5
107	137209	26	5
107	142747	27	5
107	148285	28	5
107	153823	29	5
107	159448	30	5
107	164976	31	5
107	170504	32	5
107	176032	33	5
107	181649	34	5
107	187167	35	5
107	192685	36	5
107	198203	37	5
107	203810	38	5
107	209318	39	5
107	214826	40	5
107	220334	41	5
107	225929	42	5
107	231427	43	5
107	236925	44	5
107	242423	45	5
107	248005	46	5
107	253493	47	5
107	258981	48	5
107	264559	49	5
107	270037	50	5
107	275515	51	5
107	280993	52	5
107	287221	53	5
107	292689	54	5
107	298157	55	5
107	303625	56	5
107	309093	57	5
107	314561	58	5
107	320029	59	5
107	325497	60	5
107	330965	61	5
107	336433	62	5
107	341901	63	5
107	347369	64	5
107	352837	65	5
107	358305	66	5
107	363773	67	5
107	369241	68	5
107	374709	69	5
107	380177	70	5
107	385645	71	5
107	391113	72	5
107	396581	73	5
107	402049	74	5
107	407517	75	5
107	412985	76	5
107	418453	77	5
107	423921	78	5
107	429389	79	5
107	434857	80	5
107	440325	81	5
107	445793	82	5
107	451261	83	5
107	456729	84	5
107	462197	85	5
107	467665	86	5
107	473133	87	5
107	478601	88	5
107	484069	89	5
107	489537	90	5
107	495005	91	5
107	500473	92	5
107	505941	93	5
107	511409	94	5
107	516877	95	5
107	522345	96	5
107	527813	97	5
107	533281	98	5
107	538749	99	5
107	544217	100	5
108	4790	2	0.021463536928
108	10258	3	0.024964796484
108	15726	4	0.024977796553
108	21194	5	0.024964796594
108	26662	6	0.024977796621
108	32130	7	0.024964796651
108	37598	8	0.02496479666
108	43066	9	0.024977796669
108	48535	10	0.024964796677
108	54139	11	0.02502275634
108	59677	12	0.024964792081
108	65215	13	0.024977780393
108	70753	14	0.024964761432
108	76291	15	0.024964736306
108	81829	16	0.024977706226
108	87367	17	0.024964672366
108	92905	18	0.024977635808
108	98443	19	0.024964597495
108	103981	20	0.024977558234
108	109519	21	0.024964518727
108	115057	22	0.024964479548
108	120595	23	0.024977441144
108	126133	24	0.024964403888
108	131671	25	0.024977368045
108	137209	26	0.024964333814
108	142747	27	0.024977301339
108	148285	28	0.02496427069
108	153823	29	0.02496424191
108	159448	30	0.025094168969
108	164976	31	0.024964189942
108	170504	32	0.024964166686
108	176032	33	0.024977145174
108	181649	34	0.025081078971
108	187167	35	0.024964107056
108	192685	36	0.024977090287
108	198203	37	0.024964074935
108	203810	38	0.025080922029
108	209318	39	0.024977048074
108	214826	40	0.024964036406
108	220334	41	0.024977025785
108	225929	42	0.025080830754
108	231427	43	0.024964007394
108	236925	44	0.024976999469
108	242423	45	0.024963992291
108	248005	46	0.025114171116
108	253493	47	0.024976979963
108	258981	48	0.024963974688
108	264559	49	0.02508069141
108	270037	50	0.024976965649
108	275515	51	0.024963961791
108	280993	52	0.024976958331
108	287221	53	0.025891583756
108	292689	54	0.024976786283
108	298157	55	0.024963457154
108	303625	56	0.024975816607
108	309093	57	0.024961922385
108	314561	58	0.024973911877
108	320029	59	0.024972959916
108	325497	60	0.024972108745
108	330965	61	0.024971513109
108	336433	62	0.024958151768
108	341901	63	0.024970955408
108	347369	64	0.024970823438
108	352837	65	0.024970689082
108	358305	66	0.024970538493
108	363773	67	0.02497037779
108	369241	68	0.024970212776
108	374709	69	0.024970045742
108	380177	70	0.024969877225
108	385645	71	0.024969707387
108	391113	72	0.024969536328
108	396581	73	0.024969356536
108	402049	74	0.024969177076
108	407517	75	0.024968999076
108	412985	76	0.024981819573
108	418453	77	0.024968638182
108	423921	78	0.024968513795
108	429389	79	0.024968366761
108	434857	80	0.024968186742
108	440325	81	0.024968003521
108	445793	82	0.024967814238
108	451261	83	0.024980616668
108	456729	84	0.024967404319
108	462197	85	0.024967168403
108	467665	86	0.024966901456
108	473133	87	0.024966603513
108	478601	88	0.024979280283
108	484069	89	0.024965936647
108	489537	90	0.024965575439
108	495005	91	0.024978199309
108	500473	92	0.024964810846
108	505941	93	0.024977411516
108	511409	94	0.024963979785
108	516877	95	0.024976471903
108	522345	96	0.024963041532
108	527813	97	0.02497560506
108	533281	98	0.024962163321
108	538749	99	0.024974733854
108	544217	100	0.024974346163
109	4790	2	0
109	10258	3	0
109	15726	4	0
109	21194	5	0
109	26662	6	0
109	32130	7	0
109	37598	8	0
109	43066	9	0
109	48535	10	0
109	54139	11	0
109	59677	12	0
109	65215	13	0
109	70753	14	0
109	76291	15	0
109	81829	16	0
109	87367	17	0
109	92905	18	0
109	98443	19	0
109	103981	20	0
109	109519	21	0
109	115057	22	0
109	120595	23	0
109	126133	24	0
109	131671	25	0
109	137209	26	0
109	142747	27	0
109	148285	28	0
109	153823	29	0
109	159448	30	0
109	164976	31	0
109	170504	32	0
109	176032	33	0
109	181649	34	0
109	187167	35	0
109	192685	36	0
109	198203	37	0
109	203810	38	0
109	209318	39	0
109	214826	40	0
109	220334	41	0
109	225929	42	0
109	231427	43	0
109	236925	44	0
109	242423	45	0
109	248005	46	0
109	253493	47	0
109	258981	48	0
109	264559	49	0
109	270037	50	0
109	275515	51	0
109	280993	52	0
109	287221	53	0
109	292689	54	0
109	298157	55	0
109	303625	56	0
109	309093	57	0
109	314561	58	0
109	320029	59	0
109	325497	60	0
109	330965	61	0
109	336433	62	0
109	341901	63	0
109	347369	64	0
109	352837	65	0
109	358305	66	0
109	363773	67	0
109	369241	68	0
109	374709	69	0
109	380177	70	0
109	385645	71	0
109	391113	72	0
109	396581	73	0
109	402049	74	0
109	407517	75	0
109	412985	76	0
109	418453	77	0
109	423921	78	0
109	429389	79	0
109	434857	80	0
109	440325	81	0
109	445793	82	0
109	451261	83	0
109	456729	84	0
109	462197	85	0
109	467665	86	0
109	473133	87	0
109	478601	88	0
109	484069	89	0
109	489537	90	0
109	495005	91	0
109	500473	92	0
109	505941	93	0
109	511409	94	0
109	516877	95	0
109	522345	96	0
109	527813	97	0
109	533281	98	0
109	538749	99	0
109	544217	100	0
110	4791	2	6
110	10259	3	6
110	15727	4	6
110	21195	5	6
110	26663	6	6
110	32131	7	6
110	37599	8	6
110	43067	9	6
110	48536	10	6
110	54140	11	6
110	59678	12	6
110	65216	13	6
110	70754	14	6
110	76292	15	6
110	81830	16	6
110	87368	17	6
110	92906	18	6
110	98444	19	6
110	103982	20	6
110	109520	21	6
110	115058	22	6
110	120596	23	6
110	126134	24	6
110	131672	25	6
110	137210	26	6
110	142748	27	6
110	148286	28	6
110	153824	29	6
110	159449	30	6
110	164977	31	6
110	170505	32	6
110	176033	33	6
110	181650	34	6
110	187168	35	6
110	192686	36	6
110	198204	37	6
110	203811	38	6
110	209319	39	6
110	214827	40	6
110	220335	41	6
110	225930	42	6
110	231428	43	6
110	236926	44	6
110	242424	45	6
110	248006	46	6
110	253494	47	6
110	258982	48	6
110	264560	49	6
110	270038	50	6
110	275516	51	6
110	280994	52	6
110	287222	53	6
110	292690	54	6
110	298158	55	6
110	303626	56	6
110	309094	57	6
110	314562	58	6
110	320030	59	6
110	325498	60	6
110	330966	61	6
110	336434	62	6
110	341902	63	6
110	347370	64	6
110	352838	65	6
110	358306	66	6
110	363774	67	6
110	369242	68	6
110	374710	69	6
110	380178	70	6
110	385646	71	6
110	391114	72	6
110	396582	73	6
110	402050	74	6
110	407518	75	6
110	412986	76	6
110	418454	77	6
110	423922	78	6
110	429390	79	6
110	434858	80	6
110	440326	81	6
110	445794	82	6
110	451262	83	6
110	456730	84	6
110	462198	85	6
110	467666	86	6
110	473134	87	6
110	478602	88	6
110	484070	89	6
110	489538	90	6
110	495006	91	6
110	500474	92	6
110	505942	93	6
110	511410	94	6
110	516878	95	6
110	522346	96	6
110	527814	97	6
110	533282	98	6
110	538750	99	6
110	544218	100	6
111	4791	2	0.021463516914
111	10259	3	0.024964796484
111	15727	4	0.024977796554
111	21195	5	0.024964796594
111	26663	6	0.024977796621
111	32131	7	0.024964796651
111	37599	8	0.02496479666
111	43067	9	0.024977796669
111	48536	10	0.024964796677
111	54140	11	0.02502275634
111	59678	12	0.024964792079
111	65216	13	0.024977780383
111	70754	14	0.024964761412
111	76292	15	0.024964736275
111	81830	16	0.024977706181
111	87368	17	0.024964672309
111	92906	18	0.024977635738
111	98444	19	0.024964597412
111	103982	20	0.024977558141
111	109520	21	0.024964518624
111	115058	22	0.024964479437
111	120596	23	0.024977441026
111	126134	24	0.024964403765
111	131672	25	0.02497736792
111	137210	26	0.024964333686
111	142748	27	0.024977301212
111	148286	28	0.024964270563
111	153824	29	0.024964241785
111	159449	30	0.025094168848
111	164977	31	0.024964189824
111	170505	32	0.024964166572
111	176033	33	0.024977145065
111	181650	34	0.025081078867
111	187168	35	0.024964106957
111	192686	36	0.024977090194
111	198204	37	0.024964074847
111	203811	38	0.025080921947
111	209319	39	0.024977047997
111	214827	40	0.024964036334
111	220335	41	0.024977025719
111	225930	42	0.025080830692
111	231428	43	0.024964007337
111	236926	44	0.024976999417
111	242424	45	0.024963992243
111	248006	46	0.025080939127
111	253494	47	0.024976979922
111	258982	48	0.024963974651
111	264560	49	0.025113969894
111	270038	50	0.024976965618
111	275516	51	0.024963961763
111	280994	52	0.024976958305
111	287222	53	0.02589157648
111	292690	54	0.024976792966
111	298158	55	0.024963455044
111	303626	56	0.024975793663
111	309094	57	0.024961891774
111	314562	58	0.024973877712
111	320030	59	0.02497292876
111	325498	60	0.024972082957
111	330966	61	0.024971492281
111	336434	62	0.02495813592
111	341902	63	0.024970943814
111	347370	64	0.024970813593
111	352838	65	0.024970679368
111	358306	66	0.024970528589
111	363774	67	0.02497036779
111	369242	68	0.024970202765
111	374710	69	0.024970035738
111	380178	70	0.024969867225
111	385646	71	0.024969697388
111	391114	72	0.024969526328
111	396582	73	0.024969346726
111	402050	74	0.024969167069
111	407518	75	0.024968989069
111	412986	76	0.024981809566
111	418454	77	0.024968628175
111	423922	78	0.024968503788
111	429390	79	0.024968356754
111	434858	80	0.024968176735
111	440326	81	0.024967993362
111	445794	82	0.024967804235
111	451262	83	0.024980606665
111	456730	84	0.024967394315
111	462198	85	0.024967158399
111	467666	86	0.024966891452
111	473134	87	0.024966593509
111	478602	88	0.024979270279
111	484070	89	0.024965926643
111	489538	90	0.024965565435
111	495006	91	0.024978189304
111	500474	92	0.024964800842
111	505942	93	0.024977401511
111	511410	94	0.024963969781
111	516878	95	0.024976461898
111	522346	96	0.024963031527
111	527814	97	0.024975595055
111	533282	98	0.024962153316
111	538750	99	0.024974723849
111	544218	100	0.024974336158
112	4791	2	0
112	10259	3	0
112	15727	4	0
112	21195	5	0
112	26663	6	0
112	32131	7	0
112	37599	8	0
112	43067	9	0
112	48536	10	0
112	54140	11	0
112	59678	12	0
112	65216	13	0
112	70754	14	0
112	76292	15	0
112	81830	16	0
112	87368	17	0
112	92906	18	0
112	98444	19	0
112	103982	20	0
112	109520	21	0
112	115058	22	0
112	120596	23	0
112	126134	24	0
112	131672	25	0
112	137210	26	0
112	142748	27	0
112	148286	28	0
112	153824	29	0
112	159449	30	0
112	164977	31	0
112	170505	32	0
112	176033	33	0
112	181650	34	0
112	187168	35	0
112	192686	36	0
112	198204	37	0
112	203811	38	0
112	209319	39	0
112	214827	40	0
112	220335	41	0
112	225930	42	0
112	231428	43	0
112	236926	44	0
112	242424	45	0
112	248006	46	0
112	253494	47	0
112	258982	48	0
112	264560	49	0
112	270038	50	0
112	275516	51	0
112	280994	52	0
112	287222	53	0
112	292690	54	0
112	298158	55	0
112	303626	56	0
112	309094	57	0
112	314562	58	0
112	320030	59	0
112	325498	60	0
112	330966	61	0
112	336434	62	0
112	341902	63	0
112	347370	64	0
112	352838	65	0
112	358306	66	0
112	363774	67	0
112	369242	68	0
112	374710	69	0
112	380178	70	0
112	385646	71	0
112	391114	72	0
112	396582	73	0
112	402050	74	0
112	407518	75	0
112	412986	76	0
112	418454	77	0
112	423922	78	0
112	429390	79	0
112	434858	80	0
112	440326	81	0
112	445794	82	0
112	451262	83	0
112	456730	84	0
112	462198	85	0
112	467666	86	0
112	473134	87	0
112	478602	88	0
112	484070	89	0
112	489538	90	0
112	495006	91	0
112	500474	92	0
112	505942	93	0
112	511410	94	0
112	516878	95	0
112	522346	96	0
112	527814	97	0
112	533282	98	0
112	538750	99	0
112	544218	100	0
113	4792	2	7
113	10260	3	7
113	15728	4	7
113	21196	5	7
113	26664	6	7
113	32132	7	7
113	37600	8	7
113	43068	9	7
113	48537	10	7
113	54141	11	7
113	59679	12	7
113	65217	13	7
113	70755	14	7
113	76293	15	7
113	81831	16	7
113	87369	17	7
113	92907	18	7
113	98445	19	7
113	103983	20	7
113	109521	21	7
113	115059	22	7
113	120597	23	7
113	126135	24	7
113	131673	25	7
113	137211	26	7
113	142749	27	7
113	148287	28	7
113	153825	29	7
113	159450	30	7
113	164978	31	7
113	170506	32	7
113	176034	33	7
113	181651	34	7
113	187169	35	7
113	192687	36	7
113	198205	37	7
113	203812	38	7
113	209320	39	7
113	214828	40	7
113	220336	41	7
113	225931	42	7
113	231429	43	7
113	236927	44	7
113	242425	45	7
113	248007	46	7
113	253495	47	7
113	258983	48	7
113	264561	49	7
113	270039	50	7
113	275517	51	7
113	280995	52	7
113	287223	53	7
113	292691	54	7
113	298159	55	7
113	303627	56	7
113	309095	57	7
113	314563	58	7
113	320031	59	7
113	325499	60	7
113	330967	61	7
113	336435	62	7
113	341903	63	7
113	347371	64	7
113	352839	65	7
113	358307	66	7
113	363775	67	7
113	369243	68	7
113	374711	69	7
113	380179	70	7
113	385647	71	7
113	391115	72	7
113	396583	73	7
113	402051	74	7
113	407519	75	7
113	412987	76	7
113	418455	77	7
113	423923	78	7
113	429391	79	7
113	434859	80	7
113	440327	81	7
113	445795	82	7
113	451263	83	7
113	456731	84	7
113	462199	85	7
113	467667	86	7
113	473135	87	7
113	478603	88	7
113	484071	89	7
113	489539	90	7
113	495007	91	7
113	500475	92	7
113	505943	93	7
113	511411	94	7
113	516879	95	7
113	522347	96	7
113	527815	97	7
113	533283	98	7
113	538751	99	7
113	544219	100	7
114	4792	2	0.0214634969
114	10260	3	0.024964796484
114	15728	4	0.024977796554
114	21196	5	0.024964796594
114	26664	6	0.024977796621
114	32132	7	0.024964796651
114	37600	8	0.02496479666
114	43068	9	0.02497779667
114	48537	10	0.024964796677
114	54141	11	0.025022756339
114	59679	12	0.024964792076
114	65217	13	0.024977780378
114	70755	14	0.024964761401
114	76293	15	0.024964736256
114	81831	16	0.024977706154
114	87369	17	0.024964672271
114	92907	18	0.02497763569
114	98445	19	0.024964597354
114	103983	20	0.024977558071
114	109521	21	0.024964518545
114	115059	22	0.024964479349
114	120597	23	0.02497744093
114	126135	24	0.024964403662
114	131673	25	0.024977367811
114	137211	26	0.024964333574
114	142749	27	0.024977301095
114	148287	28	0.024964270446
114	153825	29	0.024964241667
114	159450	30	0.025094168729
114	164978	31	0.024964189707
114	170506	32	0.024964166457
114	176034	33	0.024977144954
114	181651	34	0.025081078758
114	187169	35	0.024964106853
114	192687	36	0.024977090093
114	198205	37	0.024964074751
114	203812	38	0.025080921855
114	209320	39	0.024977047911
114	214828	40	0.024964036252
114	220336	41	0.024977025641
114	225931	42	0.02508083062
114	231429	43	0.024964007269
114	236927	44	0.024976999353
114	242425	45	0.024963992184
114	248007	46	0.025080939072
114	253495	47	0.024976979872
114	258983	48	0.024963974603
114	264561	49	0.025080691333
114	270039	50	0.024976965578
114	275517	51	0.024963961725
114	280995	52	0.024976958272
114	287223	53	0.025924908867
114	292691	54	0.024976793731
114	298159	55	0.024963470527
114	303627	56	0.02497583057
114	309095	57	0.024961911791
114	314563	58	0.02497388605
114	320031	59	0.024972937149
114	325499	60	0.024972092091
114	330967	61	0.024971496847
114	336435	62	0.024958135721
114	341903	63	0.024970940877
114	347371	64	0.024970810098
114	352839	65	0.024970676005
114	358307	66	0.024970525341
114	363775	67	0.024970364559
114	369243	68	0.024970199515
114	374711	69	0.024970032472
114	380179	70	0.024969863949
114	385647	71	0.024969694104
114	391115	72	0.024969523039
114	396583	73	0.024969343241
114	402051	74	0.024969163777
114	407519	75	0.024968985773
114	412987	76	0.024981806267
114	418455	77	0.024968624872
114	423923	78	0.024968501029
114	429391	79	0.024968353426
114	434859	80	0.024968173405
114	440327	81	0.024967989697
114	445795	82	0.024967800918
114	451263	83	0.024980603347
114	456731	84	0.024967390996
114	462199	85	0.024967155078
114	467667	86	0.024966888131
114	473135	87	0.024966590187
114	478603	88	0.024979266956
114	484071	89	0.024965923319
114	489539	90	0.02496556211
114	495007	91	0.024978185979
114	500475	92	0.024964797516
114	505943	93	0.024977398185
114	511411	94	0.024963966453
114	516879	95	0.024976458571
114	522347	96	0.0249630282
114	527815	97	0.024975591727
114	533283	98	0.024962149988
114	538751	99	0.02497472052
114	544219	100	0.024974332829
115	4792	2	0
115	10260	3	0
115	15728	4	0
115	21196	5	0
115	26664	6	0
115	32132	7	0
115	37600	8	0
115	43068	9	0
115	48537	10	0
115	54141	11	0
115	59679	12	0
115	65217	13	0
115	70755	14	0
115	76293	15	0
115	81831	16	0
115	87369	17	0
115	92907	18	0
115	98445	19	0
115	103983	20	0
115	109521	21	0
115	115059	22	0
115	120597	23	0
115	126135	24	0
115	131673	25	0
115	137211	26	0
115	142749	27	0
115	148287	28	0
115	153825	29	0
115	159450	30	0
115	164978	31	0
115	170506	32	0
115	176034	33	0
115	181651	34	0
115	187169	35	0
115	192687	36	0
115	198205	37	0
115	203812	38	0
115	209320	39	0
115	214828	40	0
115	220336	41	0
115	225931	42	0
115	231429	43	0
115	236927	44	0
115	242425	45	0
115	248007	46	0
115	253495	47	0
115	258983	48	0
115	264561	49	0
115	270039	50	0
115	275517	51	0
115	280995	52	0
115	287223	53	0
115	292691	54	0
115	298159	55	0
115	303627	56	0
115	309095	57	0
115	314563	58	0
115	320031	59	0
115	325499	60	0
115	330967	61	0
115	336435	62	0
115	341903	63	0
115	347371	64	0
115	352839	65	0
115	358307	66	0
115	363775	67	0
115	369243	68	0
115	374711	69	0
115	380179	70	0
115	385647	71	0
115	391115	72	0
115	396583	73	0
115	402051	74	0
115	407519	75	0
115	412987	76	0
115	418455	77	0
115	423923	78	0
115	429391	79	0
115	434859	80	0
115	440327	81	0
115	445795	82	0
115	451263	83	0
115	456731	84	0
115	462199	85	0
115	467667	86	0
115	473135	87	0
115	478603	88	0
115	484071	89	0
115	489539	90	0
115	495007	91	0
115	500475	92	0
115	505943	93	0
115	511411	94	0
115	516879	95	0
115	522347	96	0
115	527815	97	0
115	533283	98	0
115	538751	99	0
115	544219	100	0

