file 2441311 1720583191                                         
version 3
run BreakRanksNoGui-22-20240710-05:46:21-233445
attr configname BreakRanksNoGui
attr datetime 20240710-05:46:21
attr datetimef 20240710-054621
attr experiment BreakRanksNoGui
attr inifile omnetpp.ini
attr iterationvars "$nCars=8, $platoonSize=8, $nLanes=1, $ploegH=0.5, $controller=1, $headway=0.1, $leaderHeadway=1.2, $leaderSpeed=110, $breakRanksSafetyDistance=3, $minSpeed=100, $maxSpeed=120, $beaconInterval=0.1, $priority=4, $packetSize=200, $sController=\"CACC\", $0=2, $1=0"
attr iterationvarsd nCars=8/platoonSize=8/nLanes=1/ploegH=0.5/controller=1/headway=0.1/leaderHeadway=1.2/leaderSpeed=110/breakRanksSafetyDistance=3/minSpeed=100/maxSpeed=120/beaconInterval=0.1/priority=4/packetSize=200/sController=CACC/2/0
attr iterationvarsf nCars=8,platoonSize=8,nLanes=1,ploegH=0.5,controller=1,headway=0.1,leaderHeadway=1.2,leaderSpeed=110,breakRanksSafetyDistance=3,minSpeed=100,maxSpeed=120,beaconInterval=0.1,priority=4,packetSize=200,sController=CACC,2,0-
attr measurement "$nCars=8, $platoonSize=8, $nLanes=1, $ploegH=0.5, $controller=1, $headway=0.1, $leaderHeadway=1.2, $leaderSpeed=110, $breakRanksSafetyDistance=3, $minSpeed=100, $maxSpeed=120, $beaconInterval=0.1, $priority=4, $packetSize=200, $sController=\"CACC\", $0=2, $1=0"
attr network Highway
attr processid 233445
attr repetition 2
attr replication #2
attr resultdir results
attr runnumber 22
attr seedset 2
itervar beaconInterval 0.1
itervar breakRanksSafetyDistance 3
itervar controller 1
itervar headway 0.1
itervar leaderHeadway 1.2
itervar leaderSpeed 110
itervar maxSpeed 120
itervar minSpeed 100
itervar nCars 8
itervar nLanes 1
itervar packetSize 200
itervar platoonSize 8
itervar ploegH 0.5
itervar priority 4
itervar sController "\"CACC\""
config image-path ../../../veins/images
config repeat 10
config extends BreakRanks
config *.manager.command "\"sumo\""
config *.manager.ignoreGuiCommands true
config output-vector-file results/BreakRanks_1_0.1_110_3/result_2.vec
config output-scalar-file results/BreakRanks_1_0.1_110_3/result_2.sca
config extends Platooning
config *.node[*].scenario_type "\"BreakRanksScenario\""
config *.manager.command "\"sumo-gui\""
config *.node[*].scenario_type "\"SimpleScenario\""
config cmdenv-express-mode true
config cmdenv-autoflush true
config cmdenv-status-frequency 15s
config num-rngs 6
config network Highway
config debug-on-errors true
config print-undisposed true
config *.playgroundSizeX 65000m
config *.playgroundSizeY 25000m
config *.playgroundSizeZ 50m
config sim-time-limit "100 s"
config *.annotations.draw false
config *.obstacles.debug false
config *.world.useTorus false
config *.world.use2D false
config *.manager.updateInterval 0.01s
config *.manager.host "\"localhost\""
config *.manager.moduleType "\"org.car2x.plexe.PlatoonCar\""
config *.manager.moduleName "\"node\""
config *.manager.moduleDisplayString "\"\""
config *.manager.autoShutdown true
config *.manager.margin 25
config *.connectionManager.sendDirect true
config *.connectionManager.maxInterfDist 2600m
config *.connectionManager.drawMaxIntfDist false
config *.**.nic.mac1609_4.useServiceChannel false
config *.**.nic.mac1609_4.txPower 100mW
config *.**.nic.mac1609_4.bitrate 6Mbps
config *.**.nic.mac1609_4.useAcks true
config *.**.nic.mac1609_4.ackErrorRate 0.0
config *.**.nic.mac1609_4.frameErrorRate 0.0
config *.**.nic.phy80211p.minPowerLevel -94dBm
config *.**.nic.phy80211p.maxTXPower 100mW
config *.**.nic.phy80211p.useNoiseFloor true
config *.**.nic.phy80211p.noiseFloor -95dBm
config *.**.nic.phy80211p.decider "xmldoc(\"config.xml\")"
config *.**.nic.phy80211p.analogueModels "xmldoc(\"config.xml\")"
config *.**.nic.phy80211p.usePropagationDelay true
config *.node[*].mobility.x 0
config *.node[*].mobility.y 0
config *.node[*].mobility.z 1.895
config seed-set 2
config **.seed 2
config *.node[*].prot.rng-0 2
config *.node[*].appl.rng-0 3
config *.node[*].scenario.rng-0 4
config **.traffic.rng-0 5
config *.manager.configFile "\"./sumocfg/freeway.sumo.cfg\""
config *.manager.launchConfig "xmldoc(\"./sumocfg/freeway.launchd.xml\")"
config **.numberOfCars 8
config **.numberOfCarsPerPlatoon 8
config **.numberOfLanes 1
config *.node[*].helper_type "\"PositionHelper\""
config *.node[*].scenario.caccC1 0.5
config *.node[*].scenario.caccXi 1
config *.node[*].scenario.caccOmegaN "0.2 Hz"
config *.node[*].scenario.caccSpacing "2 m"
config *.node[*].scenario.engineTau "0.5 s"
config *.node[*].scenario.ploegH 0.5s
config *.node[*].scenario.ploegKp 0.2
config *.node[*].scenario.ploegKd 0.7
config *.node[*].scenario.useRealisticEngine false
config *.node[*].scenario.useControllerAcceleration true
config *.node[*].scenario.nLanes 1
config **.numericController 1
config **.headway 0.1s
config *.node[*].scenario.accHeadway 0.1s
config *.node[*].scenario.leaderHeadway 1.2s
config *.node[*].scenario.leaderSpeed 110kmph
config *.node[*].appl_type "\"SimplePlatooningApp\""
config *.node[*].appl.*.scalar-recording true
config *.node[*].appl.*.vector-recording true
config *.node[0].appl.breakRanksSafetyDistance 3m
config *.node[*].appl.minSpeed 100kmph
config *.node[*].appl.maxSpeed 120kmph
config *.node[*].protocol_type "\"SimplePlatooningBeaconing\""
config *.node[*].prot.*.scalar-recording true
config *.node[*].prot.*.vector-recording true
config *.node[*].prot.beaconingInterval 0.1s
config *.node[*].prot.priority 4
config *.node[*].prot.packetSize 200
config **.traffic_type "\"PlatoonsTrafficManager\""
config **.traffic.platoonInsertTime "1 s"
config **.traffic.platoonInsertSpeed 110kmph
config **.traffic.nCars 8
config **.traffic.platoonSize 8
config **.traffic.nLanes 1
config **.traffic.platooningVType "\"vtypeauto\""
config **.traffic.controller "\"CACC\""
config **.traffic.platoonInsertDistance 2m
config **.traffic.platoonInsertHeadway 0s
config **.traffic.platoonLeaderHeadway 1.2s
config **.scalar-recording false
config **.vector-recording false

vector 0 Highway.node[0].appl distance ETV
vector 1 Highway.node[0].appl relativeSpeed ETV
vector 2 Highway.node[0].appl nodeId ETV
vector 3 Highway.node[0].appl acceleration ETV
vector 4 Highway.node[0].appl controllerAcceleration ETV
vector 5 Highway.node[0].appl speed ETV
vector 6 Highway.node[0].appl posx ETV
vector 7 Highway.node[0].appl posy ETV
vector 8 Highway.node[1].appl distance ETV
vector 9 Highway.node[1].appl relativeSpeed ETV
vector 10 Highway.node[1].appl nodeId ETV
vector 11 Highway.node[1].appl acceleration ETV
vector 12 Highway.node[1].appl controllerAcceleration ETV
vector 13 Highway.node[1].appl speed ETV
vector 14 Highway.node[1].appl posx ETV
vector 15 Highway.node[1].appl posy ETV
vector 16 Highway.node[2].appl distance ETV
vector 17 Highway.node[2].appl relativeSpeed ETV
vector 18 Highway.node[2].appl nodeId ETV
vector 19 Highway.node[2].appl acceleration ETV
vector 20 Highway.node[2].appl controllerAcceleration ETV
vector 21 Highway.node[2].appl speed ETV
vector 22 Highway.node[2].appl posx ETV
vector 23 Highway.node[2].appl posy ETV
vector 24 Highway.node[3].appl distance ETV
vector 25 Highway.node[3].appl relativeSpeed ETV
vector 26 Highway.node[3].appl nodeId ETV
vector 27 Highway.node[3].appl acceleration ETV
vector 28 Highway.node[3].appl controllerAcceleration ETV
vector 29 Highway.node[3].appl speed ETV
vector 30 Highway.node[3].appl posx ETV
vector 31 Highway.node[3].appl posy ETV
vector 32 Highway.node[4].appl distance ETV
vector 33 Highway.node[4].appl relativeSpeed ETV
vector 34 Highway.node[4].appl nodeId ETV
vector 35 Highway.node[4].appl acceleration ETV
vector 36 Highway.node[4].appl controllerAcceleration ETV
vector 37 Highway.node[4].appl speed ETV
vector 38 Highway.node[4].appl posx ETV
vector 39 Highway.node[4].appl posy ETV
vector 40 Highway.node[5].appl distance ETV
vector 41 Highway.node[5].appl relativeSpeed ETV
vector 42 Highway.node[5].appl nodeId ETV
vector 43 Highway.node[5].appl acceleration ETV
vector 44 Highway.node[5].appl controllerAcceleration ETV
vector 45 Highway.node[5].appl speed ETV
vector 46 Highway.node[5].appl posx ETV
vector 47 Highway.node[5].appl posy ETV
vector 48 Highway.node[6].appl distance ETV
vector 49 Highway.node[6].appl relativeSpeed ETV
vector 50 Highway.node[6].appl nodeId ETV
vector 51 Highway.node[6].appl acceleration ETV
vector 52 Highway.node[6].appl controllerAcceleration ETV
vector 53 Highway.node[6].appl speed ETV
vector 54 Highway.node[6].appl posx ETV
vector 55 Highway.node[6].appl posy ETV
vector 56 Highway.node[7].appl distance ETV
vector 57 Highway.node[7].appl relativeSpeed ETV
vector 58 Highway.node[7].appl nodeId ETV
vector 59 Highway.node[7].appl acceleration ETV
vector 60 Highway.node[7].appl controllerAcceleration ETV
vector 61 Highway.node[7].appl speed ETV
vector 62 Highway.node[7].appl posx ETV
vector 63 Highway.node[7].appl posy ETV
vector 64 Highway.node[7].prot frontDelay ETV
vector 65 Highway.node[7].prot frontDelayId ETV
vector 66 Highway.node[6].prot frontDelay ETV
vector 67 Highway.node[6].prot frontDelayId ETV
vector 68 Highway.node[1].prot leaderDelay ETV
vector 69 Highway.node[1].prot leaderDelayId ETV
vector 70 Highway.node[1].prot frontDelay ETV
vector 71 Highway.node[1].prot frontDelayId ETV
vector 72 Highway.node[2].prot leaderDelay ETV
vector 73 Highway.node[2].prot leaderDelayId ETV
vector 74 Highway.node[3].prot leaderDelay ETV
vector 75 Highway.node[3].prot leaderDelayId ETV
vector 76 Highway.node[4].prot leaderDelay ETV
vector 77 Highway.node[4].prot leaderDelayId ETV
vector 78 Highway.node[5].prot leaderDelay ETV
vector 79 Highway.node[5].prot leaderDelayId ETV
vector 80 Highway.node[6].prot leaderDelay ETV
vector 81 Highway.node[6].prot leaderDelayId ETV
vector 82 Highway.node[7].prot leaderDelay ETV
vector 83 Highway.node[7].prot leaderDelayId ETV
vector 84 Highway.node[4].prot frontDelay ETV
vector 85 Highway.node[4].prot frontDelayId ETV
vector 86 Highway.node[3].prot frontDelay ETV
vector 87 Highway.node[3].prot frontDelayId ETV
vector 88 Highway.node[5].prot frontDelay ETV
vector 89 Highway.node[5].prot frontDelayId ETV
vector 90 Highway.node[2].prot frontDelay ETV
vector 91 Highway.node[2].prot frontDelayId ETV
vector 92 Highway.node[0].prot nodeId ETV
vector 93 Highway.node[0].prot busyTime ETV
vector 94 Highway.node[0].prot collisions ETV
vector 95 Highway.node[1].prot nodeId ETV
vector 96 Highway.node[1].prot busyTime ETV
vector 97 Highway.node[1].prot collisions ETV
vector 98 Highway.node[2].prot nodeId ETV
vector 99 Highway.node[2].prot busyTime ETV
vector 100 Highway.node[2].prot collisions ETV
vector 101 Highway.node[3].prot nodeId ETV
vector 102 Highway.node[3].prot busyTime ETV
vector 103 Highway.node[3].prot collisions ETV
vector 104 Highway.node[4].prot nodeId ETV
vector 105 Highway.node[4].prot busyTime ETV
vector 106 Highway.node[4].prot collisions ETV
vector 107 Highway.node[5].prot nodeId ETV
vector 108 Highway.node[5].prot busyTime ETV
vector 109 Highway.node[5].prot collisions ETV
vector 110 Highway.node[6].prot nodeId ETV
vector 111 Highway.node[6].prot busyTime ETV
vector 112 Highway.node[6].prot collisions ETV
vector 113 Highway.node[7].prot nodeId ETV
vector 114 Highway.node[7].prot busyTime ETV
vector 115 Highway.node[7].prot collisions ETV
0	11185 17510 113 543894 1.11 99.91 989 -1 -1 -989 989
1	28695 16521 113 543894 1.11 99.91 989 0 0 0 0
2	45216 16521 113 543894 1.11 99.91 989 0 0 0 0
3	61737 19109 113 543894 1.11 99.91 989 -0.00283113 0.000125957 -0.043966303784312 9.6812896349407e-05
4	80846 26489 113 543894 1.11 99.91 989 -0.00437036 0.00019576 -0.042459310034081 0.00013890441444735
5	107335 22451 113 543894 1.11 99.91 989 30.5554 30.56 30219.5304 923377.16656332
6	129786 22338 113 543894 1.11 99.91 989 54.6404 3073.54 1546886.0081 3172113239.691
7	152124 21466 113 543894 1.11 99.91 989 242.45 242.45 239783.05 58135400.472499
8	173590 21596 114 543895 1.11 99.91 989 -1 78.8652 15597.70358 744574.85633489
9	195186 21688 114 543895 1.11 99.91 989 -0.000441914 4.0489 1070.3741816609 3593.405861571
10	216874 17510 114 543895 1.11 99.91 989 1 1 989 989
11	234384 25517 114 543895 1.11 99.91 989 -1.46271 0.0652003 -35.562102420324 42.101502160329
12	259901 26991 114 543895 1.11 99.91 989 -1.5 0.101253 -34.75411262909 49.260564511619
13	286892 21564 114 543895 1.11 99.91 989 26.8987 30.56 28565.8703 828111.37530479
14	308456 23381 114 543895 1.11 99.91 989 48.6404 2902.35 1502154.2726 2957444483.9442
15	331837 22455 114 543895 1.11 99.91 989 242.45 245.75 240683.95 58575219.8525
16	354292 21761 115 543896 1.11 99.91 989 -1 32.0563 4614.82401 93655.32075204
17	376053 22963 115 543896 1.11 99.91 989 -0.000131373 2.45644 230.91911854521 363.3890661207
18	399016 17510 115 543896 1.11 99.91 989 2 2 1978 3956
19	416526 26520 115 543896 1.11 99.91 989 -1.55245 0.707115 4.453512177918 37.88875887012
20	443046 26631 115 543896 1.11 99.91 989 -2.36876 1.09315 5.6042244948826 53.03355116138
21	469677 22277 115 543896 1.11 99.91 989 28.0992 31.0489 30109.8052 917098.79983788
22	491954 23351 115 543896 1.11 99.91 989 42.6404 3050.54 1526299.4762 3096040622.4475
23	515305 22455 115 543896 1.11 99.91 989 242.45 245.75 240835.75 58649328.6125
24	537760 23297 116 543897 1.11 99.91 989 1.99958 84.323 28113.78019 1888725.3303892
25	561057 24772 116 543897 1.11 99.91 989 -0.000101157 2.93044 462.6167685033 650.90916234369
26	585829 17510 116 543897 1.11 99.91 989 3 3 2967 8901
27	603339 26386 116 543897 1.11 99.91 989 -2.33509 0.640869 -5.5436782385605 111.15683974948
28	629725 26495 116 543897 1.11 99.91 989 -2.96568 0.982719 -4.2031612786032 135.79554947077
29	656220 22261 116 543897 1.11 99.91 989 25.3659 30.56 29516.0253 882257.10662235
30	678481 23374 116 543897 1.11 99.91 989 36.6404 2985.21 1503813.7215 2996220962.5909
31	701855 22455 116 543897 1.11 99.91 989 242.45 242.45 239783.05 58135400.472499
32	724310 23336 117 543898 1.11 99.91 989 1.99966 63.4043 17647.03989 673876.65712418
33	747646 25742 117 543898 1.11 99.91 989 -5.87299e-05 3.04456 615.54273811337 1546.5073258468
34	773388 17510 117 543898 1.11 99.91 989 4 4 3956 15824
35	790898 26180 117 543898 1.11 99.91 989 -2.58159 0.755794 -35.550763489682 178.19947170487
36	817078 26623 117 543898 1.11 99.91 989 -2.96855 0.79519 -34.244854960742 202.74593854206
37	843701 21944 117 543898 1.11 99.91 989 22.9275 30.56 28285.4794 813385.28430988
38	865645 23350 117 543898 1.11 99.91 989 30.6404 2856.31 1471497.2507 2846714099.3673
39	888995 22455 117 543898 1.11 99.91 989 242.45 242.45 239783.05 58135400.472499
40	911450 21309 118 543899 1.11 99.91 989 -1 26.086 1373.55988 11169.408775074
41	932759 22387 118 543899 1.11 99.91 989 -5.17117e-05 8.24144 167.25914707413 946.51969923538
42	955146 17510 118 543899 1.11 99.91 989 5 5 4945 24725
43	972656 25876 118 543899 1.11 99.91 989 -2.63568 1.49999 4.4569724820114 350.02946241825
44	998532 26257 118 543899 1.11 99.91 989 -2.96806 1.5 5.8988259882189 381.01997783276
45	1024789 22072 118 543899 1.11 99.91 989 20.7476 31.1039 29627.1636 892339.02125078
46	1046861 23371 118 543899 1.11 99.91 989 24.6404 2984.28 1487018.1023 2942370070.8283
47	1070232 22455 118 543899 1.11 99.91 989 242.45 252.35 243901.45 60172858.092501
48	1092687 21991 119 543900 1.11 99.91 989 -1 87.6757 14743.36587 959822.33441895
49	1114678 21866 119 543900 1.11 99.91 989 -4.42475e-05 2.00001 419.30948808104 820.26180766963
50	1136544 17510 119 543900 1.11 99.91 989 6 6 5934 35604
51	1154054 25173 119 543900 1.11 99.91 989 -0.988087 0.0440209 -15.562095731 11.950288506711
52	1179227 26826 119 543900 1.11 99.91 989 -1.5 0.068349 -14.757725653658 16.645333803974
53	1206053 21504 119 543900 1.11 99.91 989 28.9316 30.56 29432.0488 876392.8825756
54	1227557 23387 119 543900 1.11 99.91 989 18.6404 2958.87 1489838.7106 2959137459.1044
55	1250944 22455 119 543900 1.11 99.91 989 242.45 249.05 242261.35 59351252.472501
56	1273399 22276 120 543901 1.11 99.91 989 -1 37.7382 9584.29408 277605.09517009
57	1295675 23751 120 543901 1.11 99.91 989 -1.50842 2.01646 99.114971396445 178.65366819493
58	1319426 17510 120 543901 1.11 99.91 989 7 7 6923 48461
59	1336936 26128 120 543901 1.11 99.91 989 -1.26371 1.48577 24.465534745779 92.003193670697
60	1363064 26045 120 543901 1.11 99.91 989 -1.36338 1.5 25.603518721866 104.6223729017
61	1389109 22948 120 543901 1.11 99.91 989 26.8267 33.103 29857.2513 904437.04950645
62	1412057 23347 120 543901 1.11 99.91 989 12.6404 2995.19 1479381.4996 2924863438.5652
63	1435404 22455 120 543901 1.11 99.91 989 242.45 249.05 242518.74999999 59478613.992502
64	1457859 40001 702 543943 1.21212246032 99.912112855923 988 0.099987440285 0.100008544057 98.799990835909 9.8799981779314
65	1497860 27253 702 543943 1.21212246032 99.912112855923 988 7 7 6916 48412
66	1525113 40002 837 544078 1.247587520362 99.947577981902 988 0.099987440285 0.100008544088 98.799990901846 9.8799981911184
67	1565115 27271 837 544078 1.247587520362 99.947577981902 988 6 6 5928 35568
68	1592386 40022 899 544164 1.262193620431 99.962197765305 988 0.099987440285 0.100008544112 98.79999158518 9.8799983277875
69	1632408 27276 899 544164 1.262193620431 99.962197765305 988 1 1 988 988
70	1659684 40022 899 544164 1.262193620431 99.962197765305 988 0.099987440285 0.100008544112 98.79999158518 9.8799983277875
71	1699706 27276 899 544164 1.262193620431 99.962197765305 988 1 1 988 988
72	1726982 40020 905 544134 1.262193640445 99.962197270971 988 0.099987440285 0.100008544116 98.799991070832 9.8799982249179
73	1767002 27259 905 544134 1.262193640445 99.962197270971 988 2 2 1976 3952
74	1794261 40022 911 544146 1.262193660458 99.962197488296 988 0.099987440285 0.100008544122 98.799991268143 9.8799982643801
75	1834283 27283 911 544146 1.262193660458 99.962197488296 988 3 3 2964 8892
76	1861566 40026 917 544170 1.262193680472 99.962197918875 988 0.099987440285 0.10000854413 98.799991678709 9.8799983464933
77	1901592 27286 917 544170 1.262193680472 99.962197918875 988 4 4 3952 15808
78	1928878 40020 923 544152 1.262193700486 99.962197493045 988 0.099987440285 0.10000854414 98.799991232865 9.8799982573245
79	1968898 27284 923 544152 1.262193700486 99.962197493045 988 5 5 4940 24700
80	1996182 40013 929 544158 1.2621937205 99.96219757654 988 0.099987440285 0.100008544151 98.799991296346 9.8799982700207
81	2036195 27264 929 544158 1.2621937205 99.96219757654 988 6 6 5928 35568
82	2063459 40015 935 544140 1.262193740514 99.962197455357 988 0.099987440285 0.100008544161 98.799991155149 9.8799982417813
83	2103474 27278 935 544140 1.262193740514 99.962197455357 988 7 7 6916 48412
84	2130752 40029 972 544237 1.276565680472 99.976569918975 988 0.099987440282 0.10000853607 98.800004678808 9.8800009462354
85	2170781 27279 972 544237 1.276565680472 99.976569918975 988 4 4 3952 15808
86	2198060 40025 1039 544280 1.287856700486 99.987860925175 988 0.099987440285 0.100008544134 98.799991664994 9.8799983437518
87	2238085 27276 1039 544280 1.287856700486 99.987860925175 988 3 3 2964 8892
88	2265361 40030 1106 544347 1.297496740514 99.997488785099 988 0.099987440285 0.100008549532 98.79999248489 9.8799985077254
89	2305391 27274 1106 544347 1.297496740514 99.997488785099 988 5 5 4940 24700
90	2332665 39943 1173 543886 1.302586800556 99.902590039738 987 0.099987440283 0.100008649321 98.700003679487 9.8700007465905
91	2372608 27232 1173 543886 1.302586800556 99.902590039738 987 2 2 1974 3948
92	2399840 1459 4960 544373 2 100 99 0 0 0 0
93	2401299 2068 4960 544373 2 100 99 0.022161 0.026130303372 2.471294303372 0.061699212012313
94	2403367 1459 4960 544373 2 100 99 0 0 0 0
95	2404826 1459 4961 544374 2 100 99 1 1 99 99
96	2406285 2067 4961 544374 2 100 99 0.02216 0.025898 2.470901046036 0.06167905248539
97	2408352 1459 4961 544374 2 100 99 0 0 0 0
98	2409811 1459 4962 544375 2 100 99 2 2 198 396
99	2411270 2068 4962 544375 2 100 99 0.022161 0.025898 2.470902092386 0.061679099134557
100	2413338 1558 4962 544375 2 100 99 0 0 0 0
101	2414896 1558 4963 544376 2 100 99 3 3 297 891
102	2416454 2167 4963 544376 2 100 99 0.022161 0.025898 2.470902138862 0.061679101469057
103	2418621 1558 4963 544376 2 100 99 0 0 0 0
104	2420179 1558 4964 544377 2 100 99 4 4 396 1584
105	2421737 2167 4964 544377 2 100 99 0.022161 0.025898 2.470902185386 0.061679103805973
106	2423904 1558 4964 544377 2 100 99 0 0 0 0
107	2425462 1558 4965 544378 2 100 99 5 5 495 2475
108	2427020 2167 4965 544378 2 100 99 0.022161 0.025898 2.470902231944 0.061679106144601
109	2429187 1558 4965 544378 2 100 99 0 0 0 0
110	2430745 1558 4966 544379 2 100 99 6 6 594 3564
111	2432303 2166 4966 544379 2 100 99 0.022161 0.025898 2.47090227852 0.061679108484137
112	2434469 1558 4966 544379 2 100 99 0 0 0 0
113	2436027 1558 4967 544380 2 100 99 7 7 693 4851
114	2437585 2167 4967 544380 2 100 99 0.022161 0.025931325102 2.470902325102 0.061679165210545
115	2439752 1558 4967 544380 2 100 99 0 0 0 0

