version 3
run BreakRanksNoGui-1725-20240711-18:34:38-303947
attr configname BreakRanksNoGui
attr datetime 20240711-18:34:38
attr datetimef 20240711-183438
attr experiment BreakRanksNoGui
attr inifile omnetpp.ini
attr iterationvars "$nCars=6, $platoonSize=4, $nLanes=1, $ploegH=0.5, $controller=1, $headway=0.1, $leaderHeadway=1.2, $leaderSpeed=110, $breakRanksSafetyDistance=15, $minSpeed=100, $maxSpeed=120, $beaconInterval=0.1, $priority=4, $packetSize=200, $sController=\"CACC\", $0=2, $1=0"
attr iterationvarsd nCars=6/platoonSize=4/nLanes=1/ploegH=0.5/controller=1/headway=0.1/leaderHeadway=1.2/leaderSpeed=110/breakRanksSafetyDistance=15/minSpeed=100/maxSpeed=120/beaconInterval=0.1/priority=4/packetSize=200/sController=CACC/2/0
attr iterationvarsf nCars=6,platoonSize=4,nLanes=1,ploegH=0.5,controller=1,headway=0.1,leaderHeadway=1.2,leaderSpeed=110,breakRanksSafetyDistance=15,minSpeed=100,maxSpeed=120,beaconInterval=0.1,priority=4,packetSize=200,sController=CACC,2,0-
attr measurement "$nCars=6, $platoonSize=4, $nLanes=1, $ploegH=0.5, $controller=1, $headway=0.1, $leaderHeadway=1.2, $leaderSpeed=110, $breakRanksSafetyDistance=15, $minSpeed=100, $maxSpeed=120, $beaconInterval=0.1, $priority=4, $packetSize=200, $sController=\"CACC\", $0=2, $1=0"
attr network Highway
attr processid 303947
attr repetition 5
attr replication #5
attr resultdir results
attr runnumber 1725
attr seedset 5
itervar beaconInterval 0.1
itervar breakRanksSafetyDistance 15
itervar controller 1
itervar headway 0.1
itervar leaderHeadway 1.2
itervar leaderSpeed 110
itervar maxSpeed 120
itervar minSpeed 100
itervar nCars 6
itervar nLanes 1
itervar packetSize 200
itervar platoonSize 4
itervar ploegH 0.5
itervar priority 4
itervar sController "\"CACC\""
config image-path ../../../veins/images
config repeat 10
config extends BreakRanks
config *.manager.command "\"sumo\""
config *.manager.ignoreGuiCommands true
config output-vector-file "results/BreakRanks_1_0.1_110_15_4 /result_5.vec"
config output-scalar-file "results/BreakRanks_1_0.1_110_15_4 /result_5.sca"
config extends Platooning
config *.node[*].scenario_type "\"BreakRanksScenario\""
config *.manager.command "\"sumo-gui\""
config *.node[*].scenario_type "\"SimpleScenario\""
config cmdenv-express-mode true
config cmdenv-autoflush true
config cmdenv-status-frequency 15s
config num-rngs 6
config network Highway
config debug-on-errors true
config print-undisposed true
config *.playgroundSizeX 65000m
config *.playgroundSizeY 25000m
config *.playgroundSizeZ 50m
config sim-time-limit "100 s"
config *.annotations.draw false
config *.obstacles.debug false
config *.world.useTorus false
config *.world.use2D false
config *.manager.updateInterval 0.01s
config *.manager.host "\"localhost\""
config *.manager.moduleType "\"org.car2x.plexe.PlatoonCar\""
config *.manager.moduleName "\"node\""
config *.manager.moduleDisplayString "\"\""
config *.manager.autoShutdown true
config *.manager.margin 25
config *.connectionManager.sendDirect true
config *.connectionManager.maxInterfDist 2600m
config *.connectionManager.drawMaxIntfDist false
config *.**.nic.mac1609_4.useServiceChannel false
config *.**.nic.mac1609_4.txPower 100mW
config *.**.nic.mac1609_4.bitrate 6Mbps
config *.**.nic.mac1609_4.useAcks true
config *.**.nic.mac1609_4.ackErrorRate 0.0
config *.**.nic.mac1609_4.frameErrorRate 0.0
config *.**.nic.phy80211p.minPowerLevel -94dBm
config *.**.nic.phy80211p.maxTXPower 100mW
config *.**.nic.phy80211p.useNoiseFloor true
config *.**.nic.phy80211p.noiseFloor -95dBm
config *.**.nic.phy80211p.decider "xmldoc(\"config.xml\")"
config *.**.nic.phy80211p.analogueModels "xmldoc(\"config.xml\")"
config *.**.nic.phy80211p.usePropagationDelay true
config *.node[*].mobility.x 0
config *.node[*].mobility.y 0
config *.node[*].mobility.z 1.895
config seed-set 5
config **.seed 5
config *.node[*].prot.rng-0 2
config *.node[*].appl.rng-0 3
config *.node[*].scenario.rng-0 4
config **.traffic.rng-0 5
config *.manager.configFile "\"./sumocfg/freeway.sumo.cfg\""
config *.manager.launchConfig "xmldoc(\"./sumocfg/freeway.launchd.xml\")"
config **.numberOfCars 6
config **.numberOfCarsPerPlatoon 4
config **.numberOfLanes 1
config *.node[*].helper_type "\"PositionHelper\""
config *.node[*].scenario.caccC1 0.5
config *.node[*].scenario.caccXi 1
config *.node[*].scenario.caccOmegaN "0.2 Hz"
config *.node[*].scenario.caccSpacing "2 m"
config *.node[*].scenario.engineTau "0.5 s"
config *.node[*].scenario.ploegH 0.5s
config *.node[*].scenario.ploegKp 0.2
config *.node[*].scenario.ploegKd 0.7
config *.node[*].scenario.useRealisticEngine false
config *.node[*].scenario.useControllerAcceleration true
config *.node[*].scenario.nLanes 1
config **.numericController 1
config **.headway 0.1s
config *.node[*].scenario.accHeadway 0.1s
config *.node[*].scenario.leaderHeadway 1.2s
config *.node[*].scenario.leaderSpeed 110kmph
config *.node[*].appl_type "\"SimplePlatooningApp\""
config *.node[*].appl.*.scalar-recording true
config *.node[*].appl.*.vector-recording true
config *.node[0].appl.breakRanksSafetyDistance 15m
config *.node[*].appl.minSpeed 100kmph
config *.node[*].appl.maxSpeed 120kmph
config *.node[*].protocol_type "\"SimplePlatooningBeaconing\""
config *.node[*].prot.*.scalar-recording true
config *.node[*].prot.*.vector-recording true
config *.node[*].prot.beaconingInterval 0.1s
config *.node[*].prot.priority 4
config *.node[*].prot.packetSize 200
config **.traffic_type "\"PlatoonsTrafficManager\""
config **.traffic.platoonInsertTime "1 s"
config **.traffic.platoonInsertSpeed 110kmph
config **.traffic.nCars 6
config **.traffic.platoonSize 4
config **.traffic.nLanes 1
config **.traffic.platooningVType "\"vtypeauto\""
config **.traffic.controller "\"CACC\""
config **.traffic.platoonInsertDistance 2m
config **.traffic.platoonInsertHeadway 0s
config **.traffic.platoonLeaderHeadway 1.2s
config **.scalar-recording false
config **.vector-recording false

vector 0 Highway.node[0].appl distance ETV
vector 1 Highway.node[0].appl relativeSpeed ETV
vector 2 Highway.node[0].appl nodeId ETV
vector 3 Highway.node[0].appl acceleration ETV
vector 4 Highway.node[0].appl controllerAcceleration ETV
vector 5 Highway.node[0].appl speed ETV
vector 6 Highway.node[0].appl posx ETV
vector 7 Highway.node[0].appl posy ETV
vector 8 Highway.node[1].appl distance ETV
vector 9 Highway.node[1].appl relativeSpeed ETV
vector 10 Highway.node[1].appl nodeId ETV
vector 11 Highway.node[1].appl acceleration ETV
vector 12 Highway.node[1].appl controllerAcceleration ETV
vector 13 Highway.node[1].appl speed ETV
vector 14 Highway.node[1].appl posx ETV
vector 15 Highway.node[1].appl posy ETV
vector 16 Highway.node[2].appl distance ETV
vector 17 Highway.node[2].appl relativeSpeed ETV
vector 18 Highway.node[2].appl nodeId ETV
vector 19 Highway.node[2].appl acceleration ETV
vector 20 Highway.node[2].appl controllerAcceleration ETV
vector 21 Highway.node[2].appl speed ETV
vector 22 Highway.node[2].appl posx ETV
vector 23 Highway.node[2].appl posy ETV
vector 24 Highway.node[3].appl distance ETV
vector 25 Highway.node[3].appl relativeSpeed ETV
vector 26 Highway.node[3].appl nodeId ETV
vector 27 Highway.node[3].appl acceleration ETV
vector 28 Highway.node[3].appl controllerAcceleration ETV
vector 29 Highway.node[3].appl speed ETV
vector 30 Highway.node[3].appl posx ETV
vector 31 Highway.node[3].appl posy ETV
vector 32 Highway.node[4].appl distance ETV
vector 33 Highway.node[4].appl relativeSpeed ETV
vector 34 Highway.node[4].appl nodeId ETV
vector 35 Highway.node[4].appl acceleration ETV
vector 36 Highway.node[4].appl controllerAcceleration ETV
vector 37 Highway.node[4].appl speed ETV
vector 38 Highway.node[4].appl posx ETV
vector 39 Highway.node[4].appl posy ETV
vector 40 Highway.node[5].appl distance ETV
vector 41 Highway.node[5].appl relativeSpeed ETV
vector 42 Highway.node[5].appl nodeId ETV
vector 43 Highway.node[5].appl acceleration ETV
vector 44 Highway.node[5].appl controllerAcceleration ETV
vector 45 Highway.node[5].appl speed ETV
vector 46 Highway.node[5].appl posx ETV
vector 47 Highway.node[5].appl posy ETV
vector 48 Highway.node[2].prot frontDelay ETV
vector 49 Highway.node[2].prot frontDelayId ETV
vector 50 Highway.node[3].prot frontDelay ETV
vector 51 Highway.node[3].prot frontDelayId ETV
vector 52 Highway.node[5].prot leaderDelay ETV
vector 53 Highway.node[5].prot leaderDelayId ETV
vector 54 Highway.node[5].prot frontDelay ETV
vector 55 Highway.node[5].prot frontDelayId ETV
vector 56 Highway.node[1].prot leaderDelay ETV
vector 57 Highway.node[1].prot leaderDelayId ETV
vector 58 Highway.node[1].prot frontDelay ETV
vector 59 Highway.node[1].prot frontDelayId ETV
vector 60 Highway.node[2].prot leaderDelay ETV
vector 61 Highway.node[2].prot leaderDelayId ETV
vector 62 Highway.node[3].prot leaderDelay ETV
vector 63 Highway.node[3].prot leaderDelayId ETV
vector 64 Highway.node[0].prot nodeId ETV
vector 65 Highway.node[0].prot busyTime ETV
vector 66 Highway.node[0].prot collisions ETV
vector 67 Highway.node[1].prot nodeId ETV
vector 68 Highway.node[1].prot busyTime ETV
vector 69 Highway.node[1].prot collisions ETV
vector 70 Highway.node[2].prot nodeId ETV
vector 71 Highway.node[2].prot busyTime ETV
vector 72 Highway.node[2].prot collisions ETV
vector 73 Highway.node[3].prot nodeId ETV
vector 74 Highway.node[3].prot busyTime ETV
vector 75 Highway.node[3].prot collisions ETV
vector 76 Highway.node[4].prot nodeId ETV
vector 77 Highway.node[4].prot busyTime ETV
vector 78 Highway.node[4].prot collisions ETV
vector 79 Highway.node[5].prot nodeId ETV
vector 80 Highway.node[5].prot busyTime ETV
vector 81 Highway.node[5].prot collisions ETV
0	113	1.11	9329.83
0	301	1.21	9329.83
0	489	1.31	9329.83
0	677	1.41	9329.83
0	865	1.51	9329.83
0	1053	1.61	9329.83
0	1241	1.71	9329.83
0	1429	1.81	9329.83
0	1617	1.91	9329.83
0	1811	2.01	9329.83
0	1999	2.11	9329.83
0	2187	2.21	-1
0	2375	2.31	-1
0	2563	2.41	-1
0	2751	2.51	-1
0	2939	2.61	-1
0	3127	2.71	-1
0	3315	2.81	-1
0	3503	2.91	-1
0	3697	3.01	-1
0	3885	3.11	-1
0	4073	3.21	-1
0	4261	3.31	-1
0	4449	3.41	-1
0	4637	3.51	-1
0	4825	3.61	-1
0	5013	3.71	-1
0	5201	3.81	-1
0	5389	3.91	-1
0	5583	4.01	-1
0	5771	4.11	-1
0	5959	4.21	-1
0	6147	4.31	-1
0	6335	4.41	-1
0	6523	4.51	-1
0	6711	4.61	-1
0	6899	4.71	-1
0	7087	4.81	-1
0	7275	4.91	-1
0	7469	5.01	-1
0	7657	5.11	-1
0	7845	5.21	-1
0	8033	5.31	-1
0	8221	5.41	-1
0	8409	5.51	-1
0	8597	5.61	-1
0	8785	5.71	-1
0	8973	5.81	-1
0	9161	5.91	-1
0	9355	6.01	-1
0	9543	6.11	-1
0	9731	6.21	-1
0	9919	6.31	-1
0	10107	6.41	-1
0	10295	6.51	-1
0	10483	6.61	-1
0	10671	6.71	-1
0	10859	6.81	-1
0	11047	6.91	-1
0	11241	7.01	-1
0	11429	7.11	-1
0	11617	7.21	-1
0	11805	7.31	-1
0	11993	7.41	-1
0	12181	7.51	-1
0	12369	7.61	-1
0	12557	7.71	-1
0	12745	7.81	-1
0	12933	7.91	-1
0	13127	8.01	-1
0	13315	8.11	-1
0	13503	8.21	-1
0	13691	8.31	-1
0	13879	8.41	-1
0	14067	8.51	-1
0	14255	8.61	-1
0	14443	8.71	-1
0	14631	8.81	-1
0	14819	8.91	-1
0	15013	9.01	-1
0	15201	9.11	-1
0	15389	9.21	-1
0	15577	9.31	-1
0	15765	9.41	-1
0	15953	9.51	-1
0	16141	9.61	-1
0	16329	9.71	-1
0	16517	9.81	-1
0	16705	9.91	-1
0	16957	10.01	-1
0	17149	10.11	-1
0	17341	10.21	-1
0	17533	10.31	-1
0	17725	10.41	-1
0	17917	10.51	-1
0	18109	10.61	-1
0	18301	10.71	-1
0	18493	10.81	-1
0	18685	10.91	-1
0	18883	11.01	-1
0	19075	11.11	-1
0	19267	11.21	-1
0	19459	11.31	-1
0	19651	11.41	-1
0	19843	11.51	-1
0	20035	11.61	-1
0	20227	11.71	-1
0	20419	11.81	-1
0	20611	11.91	-1
0	20809	12.01	-1
0	21001	12.11	-1
0	21193	12.21	-1
0	21385	12.31	-1
0	21577	12.41	-1
0	21769	12.51	-1
0	21961	12.61	-1
0	22153	12.71	-1
0	22345	12.81	-1
0	22537	12.91	-1
0	22735	13.01	-1
0	22927	13.11	-1
0	23119	13.21	-1
0	23311	13.31	-1
0	23503	13.41	-1
0	23695	13.51	-1
0	23887	13.61	-1
0	24079	13.71	-1
0	24271	13.81	-1
0	24463	13.91	-1
0	24661	14.01	-1
0	24853	14.11	-1
0	25045	14.21	-1
0	25237	14.31	-1
0	25429	14.41	-1
0	25621	14.51	-1
0	25813	14.61	-1
0	26005	14.71	-1
0	26197	14.81	-1
0	26389	14.91	-1
0	26587	15.01	-1
0	26779	15.11	-1
0	26971	15.21	-1
0	27163	15.31	-1
0	27355	15.41	-1
0	27547	15.51	-1
0	27739	15.61	-1
0	27931	15.71	-1
0	28123	15.81	-1
0	28315	15.91	-1
0	28513	16.01	-1
0	28705	16.11	-1
0	28897	16.21	-1
0	29089	16.31	-1
0	29281	16.41	-1
0	29473	16.51	-1
0	29665	16.61	-1
0	29857	16.71	-1
0	30049	16.81	-1
0	30241	16.91	-1
0	30439	17.01	-1
0	30631	17.11	-1
0	30823	17.21	-1
0	31015	17.31	-1
0	31207	17.41	-1
0	31399	17.51	-1
0	31591	17.61	-1
0	31783	17.71	-1
0	31975	17.81	-1
0	32167	17.91	-1
0	32365	18.01	-1
0	32557	18.11	-1
0	32749	18.21	-1
0	32941	18.31	-1
0	33133	18.41	-1
0	33325	18.51	-1
0	33517	18.61	-1
0	33709	18.71	-1
0	33901	18.81	-1
0	34093	18.91	-1
0	34291	19.01	-1
0	34483	19.11	-1
0	34675	19.21	-1
0	34867	19.31	-1
0	35059	19.41	-1
0	35251	19.51	-1
0	35443	19.61	-1
0	35635	19.71	-1
0	35827	19.81	-1
0	36019	19.91	-1
0	36217	20.01	-1
0	36409	20.11	-1
0	36601	20.21	-1
0	36793	20.31	-1
0	36985	20.41	-1
0	37177	20.51	-1
0	37369	20.61	-1
0	37561	20.71	-1
0	37753	20.81	-1
0	37945	20.91	-1
0	38143	21.01	-1
0	38335	21.11	-1
0	38527	21.21	-1
0	38719	21.31	-1
0	38911	21.41	-1
0	39103	21.51	-1
0	39295	21.61	-1
0	39487	21.71	-1
0	39679	21.81	-1
0	39871	21.91	-1
0	40069	22.01	-1
0	40261	22.11	-1
0	40453	22.21	-1
0	40645	22.31	-1
0	40837	22.41	-1
0	41029	22.51	-1
0	41221	22.61	-1
0	41413	22.71	-1
0	41605	22.81	-1
0	41797	22.91	-1
0	41995	23.01	-1
0	42187	23.11	-1
0	42379	23.21	-1
0	42571	23.31	-1
0	42763	23.41	-1
0	42955	23.51	-1
0	43147	23.61	-1
0	43339	23.71	-1
0	43531	23.81	-1
0	43723	23.91	-1
0	43921	24.01	-1
0	44113	24.11	-1
0	44305	24.21	-1
0	44497	24.31	-1
0	44689	24.41	-1
0	44881	24.51	-1
0	45073	24.61	-1
0	45265	24.71	-1
0	45457	24.81	-1
0	45649	24.91	-1
0	45847	25.01	-1
0	46039	25.11	-1
0	46231	25.21	-1
0	46423	25.31	-1
0	46615	25.41	-1
0	46807	25.51	-1
0	46999	25.61	-1
0	47191	25.71	-1
0	47383	25.81	-1
0	47575	25.91	-1
0	47773	26.01	-1
0	47965	26.11	-1
0	48157	26.21	-1
0	48349	26.31	-1
0	48541	26.41	-1
0	48733	26.51	-1
0	48925	26.61	-1
0	49117	26.71	-1
0	49309	26.81	-1
0	49501	26.91	-1
0	49699	27.01	-1
0	49891	27.11	-1
0	50083	27.21	-1
0	50275	27.31	-1
0	50467	27.41	-1
0	50659	27.51	-1
0	50851	27.61	-1
0	51043	27.71	-1
0	51235	27.81	-1
0	51427	27.91	-1
0	51625	28.01	-1
0	51817	28.11	-1
0	52009	28.21	-1
0	52201	28.31	-1
0	52393	28.41	-1
0	52585	28.51	-1
0	52777	28.61	-1
0	52969	28.71	-1
0	53161	28.81	-1
0	53353	28.91	-1
0	53551	29.01	-1
0	53743	29.11	-1
0	53935	29.21	-1
0	54127	29.31	-1
0	54319	29.41	-1
0	54511	29.51	-1
0	54703	29.61	-1
0	54895	29.71	-1
0	55087	29.81	-1
0	55279	29.91	-1
0	55477	30.01	-1
0	55669	30.11	-1
0	55861	30.21	-1
0	56053	30.31	-1
0	56245	30.41	-1
0	56437	30.51	-1
0	56629	30.61	-1
0	56821	30.71	-1
0	57013	30.81	-1
0	57205	30.91	-1
0	57403	31.01	-1
0	57595	31.11	-1
0	57787	31.21	-1
0	57979	31.31	-1
0	58171	31.41	-1
0	58363	31.51	-1
0	58555	31.61	-1
0	58747	31.71	-1
0	58939	31.81	-1
0	59131	31.91	-1
0	59329	32.01	-1
0	59521	32.11	-1
0	59713	32.21	-1
0	59905	32.31	-1
0	60097	32.41	-1
0	60289	32.51	-1
0	60481	32.61	-1
0	60673	32.71	-1
0	60865	32.81	-1
0	61057	32.91	-1
0	61255	33.01	-1
0	61447	33.11	-1
0	61639	33.21	-1
0	61831	33.31	-1
0	62023	33.41	-1
0	62215	33.51	-1
0	62407	33.61	-1
0	62599	33.71	-1
0	62791	33.81	-1
0	62983	33.91	-1
0	63181	34.01	-1
0	63373	34.11	-1
0	63565	34.21	-1
0	63757	34.31	-1
0	63949	34.41	-1
0	64141	34.51	-1
0	64333	34.61	-1
0	64525	34.71	-1
0	64717	34.81	-1
0	64909	34.91	-1
0	65107	35.01	-1
0	65299	35.11	-1
0	65491	35.21	-1
0	65683	35.31	-1
0	65875	35.41	-1
0	66067	35.51	-1
0	66259	35.61	-1
0	66451	35.71	-1
0	66643	35.81	-1
0	66835	35.91	-1
0	67033	36.01	-1
0	67225	36.11	-1
0	67417	36.21	-1
0	67609	36.31	-1
0	67801	36.41	-1
0	67993	36.51	-1
0	68185	36.61	-1
0	68377	36.71	-1
0	68569	36.81	-1
0	68761	36.91	-1
0	68959	37.01	-1
0	69151	37.11	-1
0	69343	37.21	-1
0	69535	37.31	-1
0	69727	37.41	-1
0	69919	37.51	-1
0	70111	37.61	-1
0	70303	37.71	-1
0	70495	37.81	-1
0	70687	37.91	-1
0	70885	38.01	-1
0	71077	38.11	-1
0	71269	38.21	-1
0	71461	38.31	-1
0	71653	38.41	-1
0	71845	38.51	-1
0	72037	38.61	-1
0	72229	38.71	-1
0	72421	38.81	-1
0	72613	38.91	-1
0	72811	39.01	-1
0	73003	39.11	-1
0	73195	39.21	-1
0	73387	39.31	-1
0	73579	39.41	-1
0	73771	39.51	-1
0	73963	39.61	-1
0	74155	39.71	-1
0	74347	39.81	-1
0	74539	39.91	-1
0	74737	40.01	-1
0	74929	40.11	-1
0	75121	40.21	-1
0	75313	40.31	-1
0	75505	40.41	-1
0	75697	40.51	-1
0	75889	40.61	-1
0	76081	40.71	-1
0	76273	40.81	-1
0	76465	40.91	-1
0	76663	41.01	-1
0	76855	41.11	-1
0	77047	41.21	-1
0	77239	41.31	-1
0	77431	41.41	-1
0	77623	41.51	-1
0	77815	41.61	-1
0	78007	41.71	-1
0	78199	41.81	-1
0	78391	41.91	-1
0	78589	42.01	-1
0	78781	42.11	-1
0	78973	42.21	-1
0	79165	42.31	-1
0	79357	42.41	-1
0	79549	42.51	-1
0	79741	42.61	-1
0	79933	42.71	-1
0	80125	42.81	-1
0	80317	42.91	-1
0	80515	43.01	-1
0	80707	43.11	-1
0	80899	43.21	-1
0	81091	43.31	-1
0	81283	43.41	-1
0	81475	43.51	-1
0	81667	43.61	-1
0	81859	43.71	-1
0	82051	43.81	-1
0	82243	43.91	-1
0	82441	44.01	-1
0	82633	44.11	-1
0	82825	44.21	-1
0	83017	44.31	-1
0	83209	44.41	-1
0	83401	44.51	-1
0	83593	44.61	-1
0	83785	44.71	-1
0	83977	44.81	-1
0	84169	44.91	-1
0	84367	45.01	-1
0	84559	45.11	-1
0	84751	45.21	-1
0	84943	45.31	-1
0	85135	45.41	-1
0	85327	45.51	-1
0	85519	45.61	-1
0	85711	45.71	-1
0	86022	45.81	-1
0	86212	45.91	-1
0	86408	46.01	-1
0	86598	46.11	-1
0	86788	46.21	-1
0	86978	46.31	-1
0	87168	46.41	-1
0	87358	46.51	-1
0	87548	46.61	-1
0	87738	46.71	-1
0	87928	46.81	-1
0	88118	46.91	-1
0	88314	47.01	-1
0	88504	47.11	-1
0	88694	47.21	-1
0	88884	47.31	-1
0	89074	47.41	-1
0	89264	47.51	-1
0	89454	47.61	-1
0	89644	47.71	-1
0	89834	47.81	-1
0	90024	47.91	-1
0	90220	48.01	-1
0	90410	48.11	-1
0	90600	48.21	-1
0	90790	48.31	-1
0	90980	48.41	-1
0	91170	48.51	-1
0	91360	48.61	-1
0	91550	48.71	-1
0	91740	48.81	-1
0	91930	48.91	-1
0	92126	49.01	-1
0	92316	49.11	-1
0	92506	49.21	-1
0	92696	49.31	-1
0	92886	49.41	-1
0	93076	49.51	-1
0	93266	49.61	-1
0	93456	49.71	-1
0	93646	49.81	-1
0	93836	49.91	-1
0	94032	50.01	-1
0	94222	50.11	-1
0	94412	50.21	-1
0	94602	50.31	-1
0	94792	50.41	-1
0	94982	50.51	-1
0	95172	50.61	-1
0	95362	50.71	-1
0	95552	50.81	-1
0	95742	50.91	-1
0	95938	51.01	-1
0	96128	51.11	-1
0	96318	51.21	-1
0	96508	51.31	-1
0	96698	51.41	-1
0	96888	51.51	-1
0	97078	51.61	-1
0	97268	51.71	-1
0	97458	51.81	-1
0	97701	51.91	-1
0	97896	52.01	-1
0	98085	52.11	-1
0	98274	52.21	-1
0	98463	52.31	-1
0	98652	52.41	-1
0	98841	52.51	-1
0	99030	52.61	-1
0	99219	52.71	-1
0	99408	52.81	-1
0	99597	52.91	-1
0	99792	53.01	-1
0	99981	53.11	-1
0	100170	53.21	-1
0	100359	53.31	-1
0	100548	53.41	-1
0	100737	53.51	-1
0	100926	53.61	-1
0	101115	53.71	-1
0	101304	53.81	-1
0	101493	53.91	-1
0	101688	54.01	-1
0	101877	54.11	-1
0	102066	54.21	-1
0	102255	54.31	-1
0	102444	54.41	-1
0	102633	54.51	-1
0	102822	54.61	-1
0	103011	54.71	-1
0	103200	54.81	-1
0	103389	54.91	-1
0	103584	55.01	-1
0	103773	55.11	-1
0	103962	55.21	-1
0	104151	55.31	-1
0	104340	55.41	-1
0	104529	55.51	-1
0	104718	55.61	-1
0	104907	55.71	-1
0	105096	55.81	-1
0	105285	55.91	-1
0	105480	56.01	-1
0	105669	56.11	-1
0	105858	56.21	-1
0	106047	56.31	-1
0	106236	56.41	-1
0	106425	56.51	-1
0	106614	56.61	-1
0	106803	56.71	-1
0	106992	56.81	-1
0	107181	56.91	-1
0	107376	57.01	-1
0	107565	57.11	-1
0	107754	57.21	-1
0	107943	57.31	-1
0	108344	57.41	-1
0	108532	57.51	-1
0	108720	57.61	-1
0	108908	57.71	-1
0	109096	57.81	-1
0	109284	57.91	-1
0	109478	58.01	-1
0	109666	58.11	-1
0	109854	58.21	-1
0	110042	58.31	-1
0	110230	58.41	-1
0	110418	58.51	-1
0	110606	58.61	-1
0	110794	58.71	-1
0	110982	58.81	-1
0	111170	58.91	-1
0	111364	59.01	-1
0	111552	59.11	-1
0	111740	59.21	-1
0	111928	59.31	-1
0	112116	59.41	-1
0	112304	59.51	-1
0	112492	59.61	-1
0	112680	59.71	-1
0	112868	59.81	-1
0	113056	59.91	-1
0	113250	60.01	-1
0	113438	60.11	-1
0	113626	60.21	-1
0	113814	60.31	-1
0	114002	60.41	-1
0	114190	60.51	-1
0	114378	60.61	-1
0	114566	60.71	-1
0	114754	60.81	-1
0	114942	60.91	-1
0	115136	61.01	-1
0	115324	61.11	-1
0	115512	61.21	-1
0	115700	61.31	-1
0	115888	61.41	-1
0	116076	61.51	-1
0	116264	61.61	-1
0	116452	61.71	-1
0	116640	61.81	-1
0	116828	61.91	-1
0	117022	62.01	-1
0	117210	62.11	-1
0	117398	62.21	-1
0	117586	62.31	-1
0	117774	62.41	-1
0	117962	62.51	-1
0	118150	62.61	-1
0	118338	62.71	-1
0	118526	62.81	-1
0	118714	62.91	-1
0	118908	63.01	-1
0	119096	63.11	-1
0	119284	63.21	-1
0	119472	63.31	-1
0	119660	63.41	-1
0	119848	63.51	-1
0	120036	63.61	-1
0	120224	63.71	-1
0	120412	63.81	-1
0	120600	63.91	-1
0	120794	64.01	-1
0	120982	64.11	-1
0	121170	64.21	-1
0	121358	64.31	-1
0	121546	64.41	-1
0	121734	64.51	-1
0	121922	64.61	-1
0	122110	64.71	-1
0	122298	64.81	-1
0	122486	64.91	-1
0	122680	65.01	-1
0	122868	65.11	-1
0	123056	65.21	-1
0	123244	65.31	-1
0	123432	65.41	-1
0	123620	65.51	-1
0	123808	65.61	-1
0	123996	65.71	-1
0	124184	65.81	-1
0	124372	65.91	-1
0	124566	66.01	-1
0	124754	66.11	-1
0	124942	66.21	-1
0	125130	66.31	-1
0	125318	66.41	-1
0	125506	66.51	-1
0	125694	66.61	-1
0	125882	66.71	-1
0	126070	66.81	-1
0	126258	66.91	-1
0	126452	67.01	-1
0	126640	67.11	-1
0	126828	67.21	-1
0	127016	67.31	-1
0	127204	67.41	-1
0	127392	67.51	-1
0	127580	67.61	-1
0	127768	67.71	-1
0	127956	67.81	-1
0	128144	67.91	-1
0	128338	68.01	-1
0	128526	68.11	-1
0	128714	68.21	-1
0	128902	68.31	-1
0	129090	68.41	-1
0	129278	68.51	-1
0	129466	68.61	-1
0	129654	68.71	-1
0	129842	68.81	-1
0	130030	68.91	-1
0	130224	69.01	-1
0	130412	69.11	-1
0	130600	69.21	-1
0	130788	69.31	-1
0	130976	69.41	-1
0	131164	69.51	-1
0	131352	69.61	-1
0	131540	69.71	-1
0	131728	69.81	-1
0	131916	69.91	-1
0	132110	70.01	-1
0	132298	70.11	-1
0	132486	70.21	-1
0	132674	70.31	-1
0	132862	70.41	-1
0	133050	70.51	-1
0	133238	70.61	-1
0	133426	70.71	-1
0	133614	70.81	-1
0	133802	70.91	-1
0	133996	71.01	-1
0	134184	71.11	-1
0	134372	71.21	-1
0	134560	71.31	-1
0	134748	71.41	-1
0	134936	71.51	-1
0	135124	71.61	-1
0	135312	71.71	-1
0	135500	71.81	-1
0	135688	71.91	-1
0	135882	72.01	-1
0	136070	72.11	-1
0	136258	72.21	-1
0	136446	72.31	-1
0	136634	72.41	-1
0	136822	72.51	-1
0	137010	72.61	-1
0	137198	72.71	-1
0	137386	72.81	-1
0	137574	72.91	-1
0	137768	73.01	-1
0	137956	73.11	-1
0	138144	73.21	-1
0	138332	73.31	-1
0	138520	73.41	-1
0	138708	73.51	-1
0	138896	73.61	-1
0	139084	73.71	-1
0	139272	73.81	-1
0	139460	73.91	-1
0	139654	74.01	-1
0	139842	74.11	-1
0	140030	74.21	-1
0	140218	74.31	-1
0	140406	74.41	-1
0	140594	74.51	-1
0	140782	74.61	-1
0	140970	74.71	-1
0	141158	74.81	-1
0	141346	74.91	-1
0	141540	75.01	-1
0	141728	75.11	-1
0	141916	75.21	-1
0	142104	75.31	-1
0	142292	75.41	-1
0	142480	75.51	-1
0	142668	75.61	-1
0	142856	75.71	-1
0	143044	75.81	-1
0	143232	75.91	-1
0	143426	76.01	-1
0	143614	76.11	-1
0	143802	76.21	-1
0	143990	76.31	-1
0	144178	76.41	-1
0	144366	76.51	-1
0	144554	76.61	-1
0	144742	76.71	-1
0	144930	76.81	-1
0	145118	76.91	-1
0	145312	77.01	-1
0	145500	77.11	-1
0	145688	77.21	-1
0	145876	77.31	-1
0	146064	77.41	-1
0	146252	77.51	-1
0	146440	77.61	-1
0	146628	77.71	-1
0	146816	77.81	-1
0	147004	77.91	-1
0	147198	78.01	-1
0	147386	78.11	-1
0	147574	78.21	-1
0	147762	78.31	-1
0	147950	78.41	-1
0	148138	78.51	-1
0	148326	78.61	-1
0	148514	78.71	-1
0	148702	78.81	-1
0	148890	78.91	-1
0	149084	79.01	-1
0	149272	79.11	-1
0	149460	79.21	-1
0	149648	79.31	-1
0	149836	79.41	-1
0	150024	79.51	-1
0	150212	79.61	-1
0	150400	79.71	-1
0	150588	79.81	-1
0	150776	79.91	-1
0	150970	80.01	-1
0	151158	80.11	-1
0	151346	80.21	-1
0	151534	80.31	-1
0	151722	80.41	-1
0	151910	80.51	-1
0	152098	80.61	-1
0	152286	80.71	-1
0	152474	80.81	-1
0	152662	80.91	-1
0	152856	81.01	-1
0	153044	81.11	-1
0	153232	81.21	-1
0	153420	81.31	-1
0	153608	81.41	-1
0	153796	81.51	-1
0	153984	81.61	-1
0	154172	81.71	-1
0	154360	81.81	-1
0	154548	81.91	-1
0	154742	82.01	-1
0	154930	82.11	-1
0	155118	82.21	-1
0	155306	82.31	-1
0	155494	82.41	-1
0	155682	82.51	-1
0	155870	82.61	-1
0	156058	82.71	-1
0	156246	82.81	-1
0	156434	82.91	-1
0	156628	83.01	-1
0	156816	83.11	-1
0	157004	83.21	-1
0	157192	83.31	-1
0	157380	83.41	-1
0	157568	83.51	-1
0	157756	83.61	-1
0	157944	83.71	-1
0	158132	83.81	-1
0	158320	83.91	-1
0	158514	84.01	-1
0	158702	84.11	-1
0	158890	84.21	-1
0	159078	84.31	-1
0	159266	84.41	-1
0	159454	84.51	-1
0	159642	84.61	-1
0	159830	84.71	-1
0	160018	84.81	-1
0	160206	84.91	-1
0	160400	85.01	-1
0	160588	85.11	-1
0	160776	85.21	-1
0	160964	85.31	-1
0	161152	85.41	-1
0	161340	85.51	-1
0	161528	85.61	-1
0	161716	85.71	-1
0	161904	85.81	-1
0	162092	85.91	-1
0	162286	86.01	-1
0	162474	86.11	-1
0	162662	86.21	-1
0	162850	86.31	-1
0	163038	86.41	-1
0	163226	86.51	-1
0	163414	86.61	-1
0	163602	86.71	-1
0	163790	86.81	-1
0	163978	86.91	-1
0	164172	87.01	-1
0	164360	87.11	-1
0	164548	87.21	-1
0	164736	87.31	-1
0	164924	87.41	-1
0	165112	87.51	-1
0	165300	87.61	-1
0	165488	87.71	-1
0	165676	87.81	-1
0	165864	87.91	-1
0	166058	88.01	-1
0	166246	88.11	-1
0	166434	88.21	-1
0	166622	88.31	-1
0	166810	88.41	-1
0	166998	88.51	-1
0	167186	88.61	-1
0	167374	88.71	-1
0	167562	88.81	-1
0	167750	88.91	-1
0	167944	89.01	-1
0	168132	89.11	-1
0	168320	89.21	-1
0	168508	89.31	-1
0	168696	89.41	-1
0	168884	89.51	-1
0	169072	89.61	-1
0	169260	89.71	-1
0	169448	89.81	-1
0	169636	89.91	-1
0	169830	90.01	-1
0	170018	90.11	-1
0	170206	90.21	-1
0	170394	90.31	-1
0	170582	90.41	-1
0	170770	90.51	-1
0	170958	90.61	-1
0	171146	90.71	-1
0	171334	90.81	-1
0	171522	90.91	-1
0	171716	91.01	-1
0	171904	91.11	-1
0	172092	91.21	-1
0	172280	91.31	-1
0	172468	91.41	-1
0	172656	91.51	-1
0	172844	91.61	-1
0	173032	91.71	-1
0	173220	91.81	-1
0	173408	91.91	-1
0	173602	92.01	-1
0	173790	92.11	-1
0	173978	92.21	-1
0	174166	92.31	-1
0	174354	92.41	-1
0	174542	92.51	-1
0	174730	92.61	-1
0	174918	92.71	-1
0	175106	92.81	-1
0	175294	92.91	-1
0	175488	93.01	-1
0	175676	93.11	-1
0	175864	93.21	-1
0	176052	93.31	-1
0	176240	93.41	-1
0	176428	93.51	-1
0	176616	93.61	-1
0	176804	93.71	-1
0	176992	93.81	-1
0	177180	93.91	-1
0	177374	94.01	-1
0	177562	94.11	-1
0	177750	94.21	-1
0	177938	94.31	-1
0	178126	94.41	-1
0	178314	94.51	-1
0	178502	94.61	-1
0	178690	94.71	-1
0	178878	94.81	-1
0	179066	94.91	-1
0	179260	95.01	-1
0	179448	95.11	-1
0	179636	95.21	-1
0	179824	95.31	-1
0	180012	95.41	-1
0	180200	95.51	-1
0	180388	95.61	-1
0	180576	95.71	-1
0	180764	95.81	-1
0	180952	95.91	-1
0	181146	96.01	-1
0	181334	96.11	-1
0	181522	96.21	-1
0	181710	96.31	-1
0	181898	96.41	-1
0	182086	96.51	-1
0	182274	96.61	-1
0	182462	96.71	-1
0	182650	96.81	-1
0	182838	96.91	-1
0	183032	97.01	-1
0	183220	97.11	-1
0	183408	97.21	-1
0	183596	97.31	-1
0	183784	97.41	-1
0	183972	97.51	-1
0	184160	97.61	-1
0	184348	97.71	-1
0	184536	97.81	-1
0	184724	97.91	-1
0	184918	98.01	-1
0	185106	98.11	-1
0	185294	98.21	-1
0	185482	98.31	-1
0	185670	98.41	-1
0	185858	98.51	-1
0	186046	98.61	-1
0	186234	98.71	-1
0	186422	98.81	-1
0	186610	98.91	-1
0	186804	99.01	-1
0	186992	99.11	-1
0	187180	99.21	-1
0	187368	99.31	-1
0	187556	99.41	-1
0	187744	99.51	-1
0	187932	99.61	-1
0	188120	99.71	-1
0	188308	99.81	-1
0	188496	99.91	-1
1	113	1.11	3.68088e-05
1	301	1.21	0.000136868
1	489	1.31	0.000227942
1	677	1.41	0.00029946
1	865	1.51	0.000353897
1	1053	1.61	0.000393227
1	1241	1.71	0.000419829
1	1429	1.81	0.000435522
1	1617	1.91	0.000441914
1	1811	2.01	0.000440551
1	1999	2.11	0.000433252
1	2187	2.21	0
1	2375	2.31	0
1	2563	2.41	0
1	2751	2.51	0
1	2939	2.61	0
1	3127	2.71	0
1	3315	2.81	0
1	3503	2.91	0
1	3697	3.01	0
1	3885	3.11	0
1	4073	3.21	0
1	4261	3.31	0
1	4449	3.41	0
1	4637	3.51	0
1	4825	3.61	0
1	5013	3.71	0
1	5201	3.81	0
1	5389	3.91	0
1	5583	4.01	0
1	5771	4.11	0
1	5959	4.21	0
1	6147	4.31	0
1	6335	4.41	0
1	6523	4.51	0
1	6711	4.61	0
1	6899	4.71	0
1	7087	4.81	0
1	7275	4.91	0
1	7469	5.01	0
1	7657	5.11	0
1	7845	5.21	0
1	8033	5.31	0
1	8221	5.41	0
1	8409	5.51	0
1	8597	5.61	0
1	8785	5.71	0
1	8973	5.81	0
1	9161	5.91	0
1	9355	6.01	0
1	9543	6.11	0
1	9731	6.21	0
1	9919	6.31	0
1	10107	6.41	0
1	10295	6.51	0
1	10483	6.61	0
1	10671	6.71	0
1	10859	6.81	0
1	11047	6.91	0
1	11241	7.01	0
1	11429	7.11	0
1	11617	7.21	0
1	11805	7.31	0
1	11993	7.41	0
1	12181	7.51	0
1	12369	7.61	0
1	12557	7.71	0
1	12745	7.81	0
1	12933	7.91	0
1	13127	8.01	0
1	13315	8.11	0
1	13503	8.21	0
1	13691	8.31	0
1	13879	8.41	0
1	14067	8.51	0
1	14255	8.61	0
1	14443	8.71	0
1	14631	8.81	0
1	14819	8.91	0
1	15013	9.01	0
1	15201	9.11	0
1	15389	9.21	0
1	15577	9.31	0
1	15765	9.41	0
1	15953	9.51	0
1	16141	9.61	0
1	16329	9.71	0
1	16517	9.81	0
1	16705	9.91	0
1	16957	10.01	0
1	17149	10.11	0
1	17341	10.21	0
1	17533	10.31	0
1	17725	10.41	0
1	17917	10.51	0
1	18109	10.61	0
1	18301	10.71	0
1	18493	10.81	0
1	18685	10.91	0
1	18883	11.01	0
1	19075	11.11	0
1	19267	11.21	0
1	19459	11.31	0
1	19651	11.41	0
1	19843	11.51	0
1	20035	11.61	0
1	20227	11.71	0
1	20419	11.81	0
1	20611	11.91	0
1	20809	12.01	0
1	21001	12.11	0
1	21193	12.21	0
1	21385	12.31	0
1	21577	12.41	0
1	21769	12.51	0
1	21961	12.61	0
1	22153	12.71	0
1	22345	12.81	0
1	22537	12.91	0
1	22735	13.01	0
1	22927	13.11	0
1	23119	13.21	0
1	23311	13.31	0
1	23503	13.41	0
1	23695	13.51	0
1	23887	13.61	0
1	24079	13.71	0
1	24271	13.81	0
1	24463	13.91	0
1	24661	14.01	0
1	24853	14.11	0
1	25045	14.21	0
1	25237	14.31	0
1	25429	14.41	0
1	25621	14.51	0
1	25813	14.61	0
1	26005	14.71	0
1	26197	14.81	0
1	26389	14.91	0
1	26587	15.01	0
1	26779	15.11	0
1	26971	15.21	0
1	27163	15.31	0
1	27355	15.41	0
1	27547	15.51	0
1	27739	15.61	0
1	27931	15.71	0
1	28123	15.81	0
1	28315	15.91	0
1	28513	16.01	0
1	28705	16.11	0
1	28897	16.21	0
1	29089	16.31	0
1	29281	16.41	0
1	29473	16.51	0
1	29665	16.61	0
1	29857	16.71	0
1	30049	16.81	0
1	30241	16.91	0
1	30439	17.01	0
1	30631	17.11	0
1	30823	17.21	0
1	31015	17.31	0
1	31207	17.41	0
1	31399	17.51	0
1	31591	17.61	0
1	31783	17.71	0
1	31975	17.81	0
1	32167	17.91	0
1	32365	18.01	0
1	32557	18.11	0
1	32749	18.21	0
1	32941	18.31	0
1	33133	18.41	0
1	33325	18.51	0
1	33517	18.61	0
1	33709	18.71	0
1	33901	18.81	0
1	34093	18.91	0
1	34291	19.01	0
1	34483	19.11	0
1	34675	19.21	0
1	34867	19.31	0
1	35059	19.41	0
1	35251	19.51	0
1	35443	19.61	0
1	35635	19.71	0
1	35827	19.81	0
1	36019	19.91	0
1	36217	20.01	0
1	36409	20.11	0
1	36601	20.21	0
1	36793	20.31	0
1	36985	20.41	0
1	37177	20.51	0
1	37369	20.61	0
1	37561	20.71	0
1	37753	20.81	0
1	37945	20.91	0
1	38143	21.01	0
1	38335	21.11	0
1	38527	21.21	0
1	38719	21.31	0
1	38911	21.41	0
1	39103	21.51	0
1	39295	21.61	0
1	39487	21.71	0
1	39679	21.81	0
1	39871	21.91	0
1	40069	22.01	0
1	40261	22.11	0
1	40453	22.21	0
1	40645	22.31	0
1	40837	22.41	0
1	41029	22.51	0
1	41221	22.61	0
1	41413	22.71	0
1	41605	22.81	0
1	41797	22.91	0
1	41995	23.01	0
1	42187	23.11	0
1	42379	23.21	0
1	42571	23.31	0
1	42763	23.41	0
1	42955	23.51	0
1	43147	23.61	0
1	43339	23.71	0
1	43531	23.81	0
1	43723	23.91	0
1	43921	24.01	0
1	44113	24.11	0
1	44305	24.21	0
1	44497	24.31	0
1	44689	24.41	0
1	44881	24.51	0
1	45073	24.61	0
1	45265	24.71	0
1	45457	24.81	0
1	45649	24.91	0
1	45847	25.01	0
1	46039	25.11	0
1	46231	25.21	0
1	46423	25.31	0
1	46615	25.41	0
1	46807	25.51	0
1	46999	25.61	0
1	47191	25.71	0
1	47383	25.81	0
1	47575	25.91	0
1	47773	26.01	0
1	47965	26.11	0
1	48157	26.21	0
1	48349	26.31	0
1	48541	26.41	0
1	48733	26.51	0
1	48925	26.61	0
1	49117	26.71	0
1	49309	26.81	0
1	49501	26.91	0
1	49699	27.01	0
1	49891	27.11	0
1	50083	27.21	0
1	50275	27.31	0
1	50467	27.41	0
1	50659	27.51	0
1	50851	27.61	0
1	51043	27.71	0
1	51235	27.81	0
1	51427	27.91	0
1	51625	28.01	0
1	51817	28.11	0
1	52009	28.21	0
1	52201	28.31	0
1	52393	28.41	0
1	52585	28.51	0
1	52777	28.61	0
1	52969	28.71	0
1	53161	28.81	0
1	53353	28.91	0
1	53551	29.01	0
1	53743	29.11	0
1	53935	29.21	0
1	54127	29.31	0
1	54319	29.41	0
1	54511	29.51	0
1	54703	29.61	0
1	54895	29.71	0
1	55087	29.81	0
1	55279	29.91	0
1	55477	30.01	0
1	55669	30.11	0
1	55861	30.21	0
1	56053	30.31	0
1	56245	30.41	0
1	56437	30.51	0
1	56629	30.61	0
1	56821	30.71	0
1	57013	30.81	0
1	57205	30.91	0
1	57403	31.01	0
1	57595	31.11	0
1	57787	31.21	0
1	57979	31.31	0
1	58171	31.41	0
1	58363	31.51	0
1	58555	31.61	0
1	58747	31.71	0
1	58939	31.81	0
1	59131	31.91	0
1	59329	32.01	0
1	59521	32.11	0
1	59713	32.21	0
1	59905	32.31	0
1	60097	32.41	0
1	60289	32.51	0
1	60481	32.61	0
1	60673	32.71	0
1	60865	32.81	0
1	61057	32.91	0
1	61255	33.01	0
1	61447	33.11	0
1	61639	33.21	0
1	61831	33.31	0
1	62023	33.41	0
1	62215	33.51	0
1	62407	33.61	0
1	62599	33.71	0
1	62791	33.81	0
1	62983	33.91	0
1	63181	34.01	0
1	63373	34.11	0
1	63565	34.21	0
1	63757	34.31	0
1	63949	34.41	0
1	64141	34.51	0
1	64333	34.61	0
1	64525	34.71	0
1	64717	34.81	0
1	64909	34.91	0
1	65107	35.01	0
1	65299	35.11	0
1	65491	35.21	0
1	65683	35.31	0
1	65875	35.41	0
1	66067	35.51	0
1	66259	35.61	0
1	66451	35.71	0
1	66643	35.81	0
1	66835	35.91	0
1	67033	36.01	0
1	67225	36.11	0
1	67417	36.21	0
1	67609	36.31	0
1	67801	36.41	0
1	67993	36.51	0
1	68185	36.61	0
1	68377	36.71	0
1	68569	36.81	0
1	68761	36.91	0
1	68959	37.01	0
1	69151	37.11	0
1	69343	37.21	0
1	69535	37.31	0
1	69727	37.41	0
1	69919	37.51	0
1	70111	37.61	0
1	70303	37.71	0
1	70495	37.81	0
1	70687	37.91	0
1	70885	38.01	0
1	71077	38.11	0
1	71269	38.21	0
1	71461	38.31	0
1	71653	38.41	0
1	71845	38.51	0
1	72037	38.61	0
1	72229	38.71	0
1	72421	38.81	0
1	72613	38.91	0
1	72811	39.01	0
1	73003	39.11	0
1	73195	39.21	0
1	73387	39.31	0
1	73579	39.41	0
1	73771	39.51	0
1	73963	39.61	0
1	74155	39.71	0
1	74347	39.81	0
1	74539	39.91	0
1	74737	40.01	0
1	74929	40.11	0
1	75121	40.21	0
1	75313	40.31	0
1	75505	40.41	0
1	75697	40.51	0
1	75889	40.61	0
1	76081	40.71	0
1	76273	40.81	0
1	76465	40.91	0
1	76663	41.01	0
1	76855	41.11	0
1	77047	41.21	0
1	77239	41.31	0
1	77431	41.41	0
1	77623	41.51	0
1	77815	41.61	0
1	78007	41.71	0
1	78199	41.81	0
1	78391	41.91	0
1	78589	42.01	0
1	78781	42.11	0
1	78973	42.21	0
1	79165	42.31	0
1	79357	42.41	0
1	79549	42.51	0
1	79741	42.61	0
1	79933	42.71	0
1	80125	42.81	0
1	80317	42.91	0
1	80515	43.01	0
1	80707	43.11	0
1	80899	43.21	0
1	81091	43.31	0
1	81283	43.41	0
1	81475	43.51	0
1	81667	43.61	0
1	81859	43.71	0
1	82051	43.81	0
1	82243	43.91	0
1	82441	44.01	0
1	82633	44.11	0
1	82825	44.21	0
1	83017	44.31	0
1	83209	44.41	0
1	83401	44.51	0
1	83593	44.61	0
1	83785	44.71	0
1	83977	44.81	0
1	84169	44.91	0
1	84367	45.01	0
1	84559	45.11	0
1	84751	45.21	0
1	84943	45.31	0
1	85135	45.41	0
1	85327	45.51	0
1	85519	45.61	0
1	85711	45.71	0
1	86022	45.81	0
1	86212	45.91	0
1	86408	46.01	0
1	86598	46.11	0
1	86788	46.21	0
1	86978	46.31	0
1	87168	46.41	0
1	87358	46.51	0
1	87548	46.61	0
1	87738	46.71	0
1	87928	46.81	0
1	88118	46.91	0
1	88314	47.01	0
1	88504	47.11	0
1	88694	47.21	0
1	88884	47.31	0
1	89074	47.41	0
1	89264	47.51	0
1	89454	47.61	0
1	89644	47.71	0
1	89834	47.81	0
1	90024	47.91	0
1	90220	48.01	0
1	90410	48.11	0
1	90600	48.21	0
1	90790	48.31	0
1	90980	48.41	0
1	91170	48.51	0
1	91360	48.61	0
1	91550	48.71	0
1	91740	48.81	0
1	91930	48.91	0
1	92126	49.01	0
1	92316	49.11	0
1	92506	49.21	0
1	92696	49.31	0
1	92886	49.41	0
1	93076	49.51	0
1	93266	49.61	0
1	93456	49.71	0
1	93646	49.81	0
1	93836	49.91	0
1	94032	50.01	0
1	94222	50.11	0
1	94412	50.21	0
1	94602	50.31	0
1	94792	50.41	0
1	94982	50.51	0
1	95172	50.61	0
1	95362	50.71	0
1	95552	50.81	0
1	95742	50.91	0
1	95938	51.01	0
1	96128	51.11	0
1	96318	51.21	0
1	96508	51.31	0
1	96698	51.41	0
1	96888	51.51	0
1	97078	51.61	0
1	97268	51.71	0
1	97458	51.81	0
1	97701	51.91	0
1	97896	52.01	0
1	98085	52.11	0
1	98274	52.21	0
1	98463	52.31	0
1	98652	52.41	0
1	98841	52.51	0
1	99030	52.61	0
1	99219	52.71	0
1	99408	52.81	0
1	99597	52.91	0
1	99792	53.01	0
1	99981	53.11	0
1	100170	53.21	0
1	100359	53.31	0
1	100548	53.41	0
1	100737	53.51	0
1	100926	53.61	0
1	101115	53.71	0
1	101304	53.81	0
1	101493	53.91	0
1	101688	54.01	0
1	101877	54.11	0
1	102066	54.21	0
1	102255	54.31	0
1	102444	54.41	0
1	102633	54.51	0
1	102822	54.61	0
1	103011	54.71	0
1	103200	54.81	0
1	103389	54.91	0
1	103584	55.01	0
1	103773	55.11	0
1	103962	55.21	0
1	104151	55.31	0
1	104340	55.41	0
1	104529	55.51	0
1	104718	55.61	0
1	104907	55.71	0
1	105096	55.81	0
1	105285	55.91	0
1	105480	56.01	0
1	105669	56.11	0
1	105858	56.21	0
1	106047	56.31	0
1	106236	56.41	0
1	106425	56.51	0
1	106614	56.61	0
1	106803	56.71	0
1	106992	56.81	0
1	107181	56.91	0
1	107376	57.01	0
1	107565	57.11	0
1	107754	57.21	0
1	107943	57.31	0
1	108344	57.41	0
1	108532	57.51	0
1	108720	57.61	0
1	108908	57.71	0
1	109096	57.81	0
1	109284	57.91	0
1	109478	58.01	0
1	109666	58.11	0
1	109854	58.21	0
1	110042	58.31	0
1	110230	58.41	0
1	110418	58.51	0
1	110606	58.61	0
1	110794	58.71	0
1	110982	58.81	0
1	111170	58.91	0
1	111364	59.01	0
1	111552	59.11	0
1	111740	59.21	0
1	111928	59.31	0
1	112116	59.41	0
1	112304	59.51	0
1	112492	59.61	0
1	112680	59.71	0
1	112868	59.81	0
1	113056	59.91	0
1	113250	60.01	0
1	113438	60.11	0
1	113626	60.21	0
1	113814	60.31	0
1	114002	60.41	0
1	114190	60.51	0
1	114378	60.61	0
1	114566	60.71	0
1	114754	60.81	0
1	114942	60.91	0
1	115136	61.01	0
1	115324	61.11	0
1	115512	61.21	0
1	115700	61.31	0
1	115888	61.41	0
1	116076	61.51	0
1	116264	61.61	0
1	116452	61.71	0
1	116640	61.81	0
1	116828	61.91	0
1	117022	62.01	0
1	117210	62.11	0
1	117398	62.21	0
1	117586	62.31	0
1	117774	62.41	0
1	117962	62.51	0
1	118150	62.61	0
1	118338	62.71	0
1	118526	62.81	0
1	118714	62.91	0
1	118908	63.01	0
1	119096	63.11	0
1	119284	63.21	0
1	119472	63.31	0
1	119660	63.41	0
1	119848	63.51	0
1	120036	63.61	0
1	120224	63.71	0
1	120412	63.81	0
1	120600	63.91	0
1	120794	64.01	0
1	120982	64.11	0
1	121170	64.21	0
1	121358	64.31	0
1	121546	64.41	0
1	121734	64.51	0
1	121922	64.61	0
1	122110	64.71	0
1	122298	64.81	0
1	122486	64.91	0
1	122680	65.01	0
1	122868	65.11	0
1	123056	65.21	0
1	123244	65.31	0
1	123432	65.41	0
1	123620	65.51	0
1	123808	65.61	0
1	123996	65.71	0
1	124184	65.81	0
1	124372	65.91	0
1	124566	66.01	0
1	124754	66.11	0
1	124942	66.21	0
1	125130	66.31	0
1	125318	66.41	0
1	125506	66.51	0
1	125694	66.61	0
1	125882	66.71	0
1	126070	66.81	0
1	126258	66.91	0
1	126452	67.01	0
1	126640	67.11	0
1	126828	67.21	0
1	127016	67.31	0
1	127204	67.41	0
1	127392	67.51	0
1	127580	67.61	0
1	127768	67.71	0
1	127956	67.81	0
1	128144	67.91	0
1	128338	68.01	0
1	128526	68.11	0
1	128714	68.21	0
1	128902	68.31	0
1	129090	68.41	0
1	129278	68.51	0
1	129466	68.61	0
1	129654	68.71	0
1	129842	68.81	0
1	130030	68.91	0
1	130224	69.01	0
1	130412	69.11	0
1	130600	69.21	0
1	130788	69.31	0
1	130976	69.41	0
1	131164	69.51	0
1	131352	69.61	0
1	131540	69.71	0
1	131728	69.81	0
1	131916	69.91	0
1	132110	70.01	0
1	132298	70.11	0
1	132486	70.21	0
1	132674	70.31	0
1	132862	70.41	0
1	133050	70.51	0
1	133238	70.61	0
1	133426	70.71	0
1	133614	70.81	0
1	133802	70.91	0
1	133996	71.01	0
1	134184	71.11	0
1	134372	71.21	0
1	134560	71.31	0
1	134748	71.41	0
1	134936	71.51	0
1	135124	71.61	0
1	135312	71.71	0
1	135500	71.81	0
1	135688	71.91	0
1	135882	72.01	0
1	136070	72.11	0
1	136258	72.21	0
1	136446	72.31	0
1	136634	72.41	0
1	136822	72.51	0
1	137010	72.61	0
1	137198	72.71	0
1	137386	72.81	0
1	137574	72.91	0
1	137768	73.01	0
1	137956	73.11	0
1	138144	73.21	0
1	138332	73.31	0
1	138520	73.41	0
1	138708	73.51	0
1	138896	73.61	0
1	139084	73.71	0
1	139272	73.81	0
1	139460	73.91	0
1	139654	74.01	0
1	139842	74.11	0
1	140030	74.21	0
1	140218	74.31	0
1	140406	74.41	0
1	140594	74.51	0
1	140782	74.61	0
1	140970	74.71	0
1	141158	74.81	0
1	141346	74.91	0
1	141540	75.01	0
1	141728	75.11	0
1	141916	75.21	0
1	142104	75.31	0
1	142292	75.41	0
1	142480	75.51	0
1	142668	75.61	0
1	142856	75.71	0
1	143044	75.81	0
1	143232	75.91	0
1	143426	76.01	0
1	143614	76.11	0
1	143802	76.21	0
1	143990	76.31	0
1	144178	76.41	0
1	144366	76.51	0
1	144554	76.61	0
1	144742	76.71	0
1	144930	76.81	0
1	145118	76.91	0
1	145312	77.01	0
1	145500	77.11	0
1	145688	77.21	0
1	145876	77.31	0
1	146064	77.41	0
1	146252	77.51	0
1	146440	77.61	0
1	146628	77.71	0
1	146816	77.81	0
1	147004	77.91	0
1	147198	78.01	0
1	147386	78.11	0
1	147574	78.21	0
1	147762	78.31	0
1	147950	78.41	0
1	148138	78.51	0
1	148326	78.61	0
1	148514	78.71	0
1	148702	78.81	0
1	148890	78.91	0
1	149084	79.01	0
1	149272	79.11	0
1	149460	79.21	0
1	149648	79.31	0
1	149836	79.41	0
1	150024	79.51	0
1	150212	79.61	0
1	150400	79.71	0
1	150588	79.81	0
1	150776	79.91	0
1	150970	80.01	0
1	151158	80.11	0
1	151346	80.21	0
1	151534	80.31	0
1	151722	80.41	0
1	151910	80.51	0
1	152098	80.61	0
1	152286	80.71	0
1	152474	80.81	0
1	152662	80.91	0
1	152856	81.01	0
1	153044	81.11	0
1	153232	81.21	0
1	153420	81.31	0
1	153608	81.41	0
1	153796	81.51	0
1	153984	81.61	0
1	154172	81.71	0
1	154360	81.81	0
1	154548	81.91	0
1	154742	82.01	0
1	154930	82.11	0
1	155118	82.21	0
1	155306	82.31	0
1	155494	82.41	0
1	155682	82.51	0
1	155870	82.61	0
1	156058	82.71	0
1	156246	82.81	0
1	156434	82.91	0
1	156628	83.01	0
1	156816	83.11	0
1	157004	83.21	0
1	157192	83.31	0
1	157380	83.41	0
1	157568	83.51	0
1	157756	83.61	0
1	157944	83.71	0
1	158132	83.81	0
1	158320	83.91	0
1	158514	84.01	0
1	158702	84.11	0
1	158890	84.21	0
1	159078	84.31	0
1	159266	84.41	0
1	159454	84.51	0
1	159642	84.61	0
1	159830	84.71	0
1	160018	84.81	0
1	160206	84.91	0
1	160400	85.01	0
1	160588	85.11	0
1	160776	85.21	0
1	160964	85.31	0
1	161152	85.41	0
1	161340	85.51	0
1	161528	85.61	0
1	161716	85.71	0
1	161904	85.81	0
1	162092	85.91	0
1	162286	86.01	0
1	162474	86.11	0
1	162662	86.21	0
1	162850	86.31	0
1	163038	86.41	0
1	163226	86.51	0
1	163414	86.61	0
1	163602	86.71	0
1	163790	86.81	0
1	163978	86.91	0
1	164172	87.01	0
1	164360	87.11	0
1	164548	87.21	0
1	164736	87.31	0
1	164924	87.41	0
1	165112	87.51	0
1	165300	87.61	0
1	165488	87.71	0
1	165676	87.81	0
1	165864	87.91	0
1	166058	88.01	0
1	166246	88.11	0
1	166434	88.21	0
1	166622	88.31	0
1	166810	88.41	0
1	166998	88.51	0
1	167186	88.61	0
1	167374	88.71	0
1	167562	88.81	0
1	167750	88.91	0
1	167944	89.01	0
1	168132	89.11	0
1	168320	89.21	0
1	168508	89.31	0
1	168696	89.41	0
1	168884	89.51	0
1	169072	89.61	0
1	169260	89.71	0
1	169448	89.81	0
1	169636	89.91	0
1	169830	90.01	0
1	170018	90.11	0
1	170206	90.21	0
1	170394	90.31	0
1	170582	90.41	0
1	170770	90.51	0
1	170958	90.61	0
1	171146	90.71	0
1	171334	90.81	0
1	171522	90.91	0
1	171716	91.01	0
1	171904	91.11	0
1	172092	91.21	0
1	172280	91.31	0
1	172468	91.41	0
1	172656	91.51	0
1	172844	91.61	0
1	173032	91.71	0
1	173220	91.81	0
1	173408	91.91	0
1	173602	92.01	0
1	173790	92.11	0
1	173978	92.21	0
1	174166	92.31	0
1	174354	92.41	0
1	174542	92.51	0
1	174730	92.61	0
1	174918	92.71	0
1	175106	92.81	0
1	175294	92.91	0
1	175488	93.01	0
1	175676	93.11	0
1	175864	93.21	0
1	176052	93.31	0
1	176240	93.41	0
1	176428	93.51	0
1	176616	93.61	0
1	176804	93.71	0
1	176992	93.81	0
1	177180	93.91	0
1	177374	94.01	0
1	177562	94.11	0
1	177750	94.21	0
1	177938	94.31	0
1	178126	94.41	0
1	178314	94.51	0
1	178502	94.61	0
1	178690	94.71	0
1	178878	94.81	0
1	179066	94.91	0
1	179260	95.01	0
1	179448	95.11	0
1	179636	95.21	0
1	179824	95.31	0
1	180012	95.41	0
1	180200	95.51	0
1	180388	95.61	0
1	180576	95.71	0
1	180764	95.81	0
1	180952	95.91	0
1	181146	96.01	0
1	181334	96.11	0
1	181522	96.21	0
1	181710	96.31	0
1	181898	96.41	0
1	182086	96.51	0
1	182274	96.61	0
1	182462	96.71	0
1	182650	96.81	0
1	182838	96.91	0
1	183032	97.01	0
1	183220	97.11	0
1	183408	97.21	0
1	183596	97.31	0
1	183784	97.41	0
1	183972	97.51	0
1	184160	97.61	0
1	184348	97.71	0
1	184536	97.81	0
1	184724	97.91	0
1	184918	98.01	0
1	185106	98.11	0
1	185294	98.21	0
1	185482	98.31	0
1	185670	98.41	0
1	185858	98.51	0
1	186046	98.61	0
1	186234	98.71	0
1	186422	98.81	0
1	186610	98.91	0
1	186804	99.01	0
1	186992	99.11	0
1	187180	99.21	0
1	187368	99.31	0
1	187556	99.41	0
1	187744	99.51	0
1	187932	99.61	0
1	188120	99.71	0
1	188308	99.81	0
1	188496	99.91	0
2	113	1.11	0
2	301	1.21	0
2	489	1.31	0
2	677	1.41	0
2	865	1.51	0
2	1053	1.61	0
2	1241	1.71	0
2	1429	1.81	0
2	1617	1.91	0
2	1811	2.01	0
2	1999	2.11	0
2	2187	2.21	0
2	2375	2.31	0
2	2563	2.41	0
2	2751	2.51	0
2	2939	2.61	0
2	3127	2.71	0
2	3315	2.81	0
2	3503	2.91	0
2	3697	3.01	0
2	3885	3.11	0
2	4073	3.21	0
2	4261	3.31	0
2	4449	3.41	0
2	4637	3.51	0
2	4825	3.61	0
2	5013	3.71	0
2	5201	3.81	0
2	5389	3.91	0
2	5583	4.01	0
2	5771	4.11	0
2	5959	4.21	0
2	6147	4.31	0
2	6335	4.41	0
2	6523	4.51	0
2	6711	4.61	0
2	6899	4.71	0
2	7087	4.81	0
2	7275	4.91	0
2	7469	5.01	0
2	7657	5.11	0
2	7845	5.21	0
2	8033	5.31	0
2	8221	5.41	0
2	8409	5.51	0
2	8597	5.61	0
2	8785	5.71	0
2	8973	5.81	0
2	9161	5.91	0
2	9355	6.01	0
2	9543	6.11	0
2	9731	6.21	0
2	9919	6.31	0
2	10107	6.41	0
2	10295	6.51	0
2	10483	6.61	0
2	10671	6.71	0
2	10859	6.81	0
2	11047	6.91	0
2	11241	7.01	0
2	11429	7.11	0
2	11617	7.21	0
2	11805	7.31	0
2	11993	7.41	0
2	12181	7.51	0
2	12369	7.61	0
2	12557	7.71	0
2	12745	7.81	0
2	12933	7.91	0
2	13127	8.01	0
2	13315	8.11	0
2	13503	8.21	0
2	13691	8.31	0
2	13879	8.41	0
2	14067	8.51	0
2	14255	8.61	0
2	14443	8.71	0
2	14631	8.81	0
2	14819	8.91	0
2	15013	9.01	0
2	15201	9.11	0
2	15389	9.21	0
2	15577	9.31	0
2	15765	9.41	0
2	15953	9.51	0
2	16141	9.61	0
2	16329	9.71	0
2	16517	9.81	0
2	16705	9.91	0
2	16957	10.01	0
2	17149	10.11	0
2	17341	10.21	0
2	17533	10.31	0
2	17725	10.41	0
2	17917	10.51	0
2	18109	10.61	0
2	18301	10.71	0
2	18493	10.81	0
2	18685	10.91	0
2	18883	11.01	0
2	19075	11.11	0
2	19267	11.21	0
2	19459	11.31	0
2	19651	11.41	0
2	19843	11.51	0
2	20035	11.61	0
2	20227	11.71	0
2	20419	11.81	0
2	20611	11.91	0
2	20809	12.01	0
2	21001	12.11	0
2	21193	12.21	0
2	21385	12.31	0
2	21577	12.41	0
2	21769	12.51	0
2	21961	12.61	0
2	22153	12.71	0
2	22345	12.81	0
2	22537	12.91	0
2	22735	13.01	0
2	22927	13.11	0
2	23119	13.21	0
2	23311	13.31	0
2	23503	13.41	0
2	23695	13.51	0
2	23887	13.61	0
2	24079	13.71	0
2	24271	13.81	0
2	24463	13.91	0
2	24661	14.01	0
2	24853	14.11	0
2	25045	14.21	0
2	25237	14.31	0
2	25429	14.41	0
2	25621	14.51	0
2	25813	14.61	0
2	26005	14.71	0
2	26197	14.81	0
2	26389	14.91	0
2	26587	15.01	0
2	26779	15.11	0
2	26971	15.21	0
2	27163	15.31	0
2	27355	15.41	0
2	27547	15.51	0
2	27739	15.61	0
2	27931	15.71	0
2	28123	15.81	0
2	28315	15.91	0
2	28513	16.01	0
2	28705	16.11	0
2	28897	16.21	0
2	29089	16.31	0
2	29281	16.41	0
2	29473	16.51	0
2	29665	16.61	0
2	29857	16.71	0
2	30049	16.81	0
2	30241	16.91	0
2	30439	17.01	0
2	30631	17.11	0
2	30823	17.21	0
2	31015	17.31	0
2	31207	17.41	0
2	31399	17.51	0
2	31591	17.61	0
2	31783	17.71	0
2	31975	17.81	0
2	32167	17.91	0
2	32365	18.01	0
2	32557	18.11	0
2	32749	18.21	0
2	32941	18.31	0
2	33133	18.41	0
2	33325	18.51	0
2	33517	18.61	0
2	33709	18.71	0
2	33901	18.81	0
2	34093	18.91	0
2	34291	19.01	0
2	34483	19.11	0
2	34675	19.21	0
2	34867	19.31	0
2	35059	19.41	0
2	35251	19.51	0
2	35443	19.61	0
2	35635	19.71	0
2	35827	19.81	0
2	36019	19.91	0
2	36217	20.01	0
2	36409	20.11	0
2	36601	20.21	0
2	36793	20.31	0
2	36985	20.41	0
2	37177	20.51	0
2	37369	20.61	0
2	37561	20.71	0
2	37753	20.81	0
2	37945	20.91	0
2	38143	21.01	0
2	38335	21.11	0
2	38527	21.21	0
2	38719	21.31	0
2	38911	21.41	0
2	39103	21.51	0
2	39295	21.61	0
2	39487	21.71	0
2	39679	21.81	0
2	39871	21.91	0
2	40069	22.01	0
2	40261	22.11	0
2	40453	22.21	0
2	40645	22.31	0
2	40837	22.41	0
2	41029	22.51	0
2	41221	22.61	0
2	41413	22.71	0
2	41605	22.81	0
2	41797	22.91	0
2	41995	23.01	0
2	42187	23.11	0
2	42379	23.21	0
2	42571	23.31	0
2	42763	23.41	0
2	42955	23.51	0
2	43147	23.61	0
2	43339	23.71	0
2	43531	23.81	0
2	43723	23.91	0
2	43921	24.01	0
2	44113	24.11	0
2	44305	24.21	0
2	44497	24.31	0
2	44689	24.41	0
2	44881	24.51	0
2	45073	24.61	0
2	45265	24.71	0
2	45457	24.81	0
2	45649	24.91	0
2	45847	25.01	0
2	46039	25.11	0
2	46231	25.21	0
2	46423	25.31	0
2	46615	25.41	0
2	46807	25.51	0
2	46999	25.61	0
2	47191	25.71	0
2	47383	25.81	0
2	47575	25.91	0
2	47773	26.01	0
2	47965	26.11	0
2	48157	26.21	0
2	48349	26.31	0
2	48541	26.41	0
2	48733	26.51	0
2	48925	26.61	0
2	49117	26.71	0
2	49309	26.81	0
2	49501	26.91	0
2	49699	27.01	0
2	49891	27.11	0
2	50083	27.21	0
2	50275	27.31	0
2	50467	27.41	0
2	50659	27.51	0
2	50851	27.61	0
2	51043	27.71	0
2	51235	27.81	0
2	51427	27.91	0
2	51625	28.01	0
2	51817	28.11	0
2	52009	28.21	0
2	52201	28.31	0
2	52393	28.41	0
2	52585	28.51	0
2	52777	28.61	0
2	52969	28.71	0
2	53161	28.81	0
2	53353	28.91	0
2	53551	29.01	0
2	53743	29.11	0
2	53935	29.21	0
2	54127	29.31	0
2	54319	29.41	0
2	54511	29.51	0
2	54703	29.61	0
2	54895	29.71	0
2	55087	29.81	0
2	55279	29.91	0
2	55477	30.01	0
2	55669	30.11	0
2	55861	30.21	0
2	56053	30.31	0
2	56245	30.41	0
2	56437	30.51	0
2	56629	30.61	0
2	56821	30.71	0
2	57013	30.81	0
2	57205	30.91	0
2	57403	31.01	0
2	57595	31.11	0
2	57787	31.21	0
2	57979	31.31	0
2	58171	31.41	0
2	58363	31.51	0
2	58555	31.61	0
2	58747	31.71	0
2	58939	31.81	0
2	59131	31.91	0
2	59329	32.01	0
2	59521	32.11	0
2	59713	32.21	0
2	59905	32.31	0
2	60097	32.41	0
2	60289	32.51	0
2	60481	32.61	0
2	60673	32.71	0
2	60865	32.81	0
2	61057	32.91	0
2	61255	33.01	0
2	61447	33.11	0
2	61639	33.21	0
2	61831	33.31	0
2	62023	33.41	0
2	62215	33.51	0
2	62407	33.61	0
2	62599	33.71	0
2	62791	33.81	0
2	62983	33.91	0
2	63181	34.01	0
2	63373	34.11	0
2	63565	34.21	0
2	63757	34.31	0
2	63949	34.41	0
2	64141	34.51	0
2	64333	34.61	0
2	64525	34.71	0
2	64717	34.81	0
2	64909	34.91	0
2	65107	35.01	0
2	65299	35.11	0
2	65491	35.21	0
2	65683	35.31	0
2	65875	35.41	0
2	66067	35.51	0
2	66259	35.61	0
2	66451	35.71	0
2	66643	35.81	0
2	66835	35.91	0
2	67033	36.01	0
2	67225	36.11	0
2	67417	36.21	0
2	67609	36.31	0
2	67801	36.41	0
2	67993	36.51	0
2	68185	36.61	0
2	68377	36.71	0
2	68569	36.81	0
2	68761	36.91	0
2	68959	37.01	0
2	69151	37.11	0
2	69343	37.21	0
2	69535	37.31	0
2	69727	37.41	0
2	69919	37.51	0
2	70111	37.61	0
2	70303	37.71	0
2	70495	37.81	0
2	70687	37.91	0
2	70885	38.01	0
2	71077	38.11	0
2	71269	38.21	0
2	71461	38.31	0
2	71653	38.41	0
2	71845	38.51	0
2	72037	38.61	0
2	72229	38.71	0
2	72421	38.81	0
2	72613	38.91	0
2	72811	39.01	0
2	73003	39.11	0
2	73195	39.21	0
2	73387	39.31	0
2	73579	39.41	0
2	73771	39.51	0
2	73963	39.61	0
2	74155	39.71	0
2	74347	39.81	0
2	74539	39.91	0
2	74737	40.01	0
2	74929	40.11	0
2	75121	40.21	0
2	75313	40.31	0
2	75505	40.41	0
2	75697	40.51	0
2	75889	40.61	0
2	76081	40.71	0
2	76273	40.81	0
2	76465	40.91	0
2	76663	41.01	0
2	76855	41.11	0
2	77047	41.21	0
2	77239	41.31	0
2	77431	41.41	0
2	77623	41.51	0
2	77815	41.61	0
2	78007	41.71	0
2	78199	41.81	0
2	78391	41.91	0
2	78589	42.01	0
2	78781	42.11	0
2	78973	42.21	0
2	79165	42.31	0
2	79357	42.41	0
2	79549	42.51	0
2	79741	42.61	0
2	79933	42.71	0
2	80125	42.81	0
2	80317	42.91	0
2	80515	43.01	0
2	80707	43.11	0
2	80899	43.21	0
2	81091	43.31	0
2	81283	43.41	0
2	81475	43.51	0
2	81667	43.61	0
2	81859	43.71	0
2	82051	43.81	0
2	82243	43.91	0
2	82441	44.01	0
2	82633	44.11	0
2	82825	44.21	0
2	83017	44.31	0
2	83209	44.41	0
2	83401	44.51	0
2	83593	44.61	0
2	83785	44.71	0
2	83977	44.81	0
2	84169	44.91	0
2	84367	45.01	0
2	84559	45.11	0
2	84751	45.21	0
2	84943	45.31	0
2	85135	45.41	0
2	85327	45.51	0
2	85519	45.61	0
2	85711	45.71	0
2	86022	45.81	0
2	86212	45.91	0
2	86408	46.01	0
2	86598	46.11	0
2	86788	46.21	0
2	86978	46.31	0
2	87168	46.41	0
2	87358	46.51	0
2	87548	46.61	0
2	87738	46.71	0
2	87928	46.81	0
2	88118	46.91	0
2	88314	47.01	0
2	88504	47.11	0
2	88694	47.21	0
2	88884	47.31	0
2	89074	47.41	0
2	89264	47.51	0
2	89454	47.61	0
2	89644	47.71	0
2	89834	47.81	0
2	90024	47.91	0
2	90220	48.01	0
2	90410	48.11	0
2	90600	48.21	0
2	90790	48.31	0
2	90980	48.41	0
2	91170	48.51	0
2	91360	48.61	0
2	91550	48.71	0
2	91740	48.81	0
2	91930	48.91	0
2	92126	49.01	0
2	92316	49.11	0
2	92506	49.21	0
2	92696	49.31	0
2	92886	49.41	0
2	93076	49.51	0
2	93266	49.61	0
2	93456	49.71	0
2	93646	49.81	0
2	93836	49.91	0
2	94032	50.01	0
2	94222	50.11	0
2	94412	50.21	0
2	94602	50.31	0
2	94792	50.41	0
2	94982	50.51	0
2	95172	50.61	0
2	95362	50.71	0
2	95552	50.81	0
2	95742	50.91	0
2	95938	51.01	0
2	96128	51.11	0
2	96318	51.21	0
2	96508	51.31	0
2	96698	51.41	0
2	96888	51.51	0
2	97078	51.61	0
2	97268	51.71	0
2	97458	51.81	0
2	97701	51.91	0
2	97896	52.01	0
2	98085	52.11	0
2	98274	52.21	0
2	98463	52.31	0
2	98652	52.41	0
2	98841	52.51	0
2	99030	52.61	0
2	99219	52.71	0
2	99408	52.81	0
2	99597	52.91	0
2	99792	53.01	0
2	99981	53.11	0
2	100170	53.21	0
2	100359	53.31	0
2	100548	53.41	0
2	100737	53.51	0
2	100926	53.61	0
2	101115	53.71	0
2	101304	53.81	0
2	101493	53.91	0
2	101688	54.01	0
2	101877	54.11	0
2	102066	54.21	0
2	102255	54.31	0
2	102444	54.41	0
2	102633	54.51	0
2	102822	54.61	0
2	103011	54.71	0
2	103200	54.81	0
2	103389	54.91	0
2	103584	55.01	0
2	103773	55.11	0
2	103962	55.21	0
2	104151	55.31	0
2	104340	55.41	0
2	104529	55.51	0
2	104718	55.61	0
2	104907	55.71	0
2	105096	55.81	0
2	105285	55.91	0
2	105480	56.01	0
2	105669	56.11	0
2	105858	56.21	0
2	106047	56.31	0
2	106236	56.41	0
2	106425	56.51	0
2	106614	56.61	0
2	106803	56.71	0
2	106992	56.81	0
2	107181	56.91	0
2	107376	57.01	0
2	107565	57.11	0
2	107754	57.21	0
2	107943	57.31	0
2	108344	57.41	0
2	108532	57.51	0
2	108720	57.61	0
2	108908	57.71	0
2	109096	57.81	0
2	109284	57.91	0
2	109478	58.01	0
2	109666	58.11	0
2	109854	58.21	0
2	110042	58.31	0
2	110230	58.41	0
2	110418	58.51	0
2	110606	58.61	0
2	110794	58.71	0
2	110982	58.81	0
2	111170	58.91	0
2	111364	59.01	0
2	111552	59.11	0
2	111740	59.21	0
2	111928	59.31	0
2	112116	59.41	0
2	112304	59.51	0
2	112492	59.61	0
2	112680	59.71	0
2	112868	59.81	0
2	113056	59.91	0
2	113250	60.01	0
2	113438	60.11	0
2	113626	60.21	0
2	113814	60.31	0
2	114002	60.41	0
2	114190	60.51	0
2	114378	60.61	0
2	114566	60.71	0
2	114754	60.81	0
2	114942	60.91	0
2	115136	61.01	0
2	115324	61.11	0
2	115512	61.21	0
2	115700	61.31	0
2	115888	61.41	0
2	116076	61.51	0
2	116264	61.61	0
2	116452	61.71	0
2	116640	61.81	0
2	116828	61.91	0
2	117022	62.01	0
2	117210	62.11	0
2	117398	62.21	0
2	117586	62.31	0
2	117774	62.41	0
2	117962	62.51	0
2	118150	62.61	0
2	118338	62.71	0
2	118526	62.81	0
2	118714	62.91	0
2	118908	63.01	0
2	119096	63.11	0
2	119284	63.21	0
2	119472	63.31	0
2	119660	63.41	0
2	119848	63.51	0
2	120036	63.61	0
2	120224	63.71	0
2	120412	63.81	0
2	120600	63.91	0
2	120794	64.01	0
2	120982	64.11	0
2	121170	64.21	0
2	121358	64.31	0
2	121546	64.41	0
2	121734	64.51	0
2	121922	64.61	0
2	122110	64.71	0
2	122298	64.81	0
2	122486	64.91	0
2	122680	65.01	0
2	122868	65.11	0
2	123056	65.21	0
2	123244	65.31	0
2	123432	65.41	0
2	123620	65.51	0
2	123808	65.61	0
2	123996	65.71	0
2	124184	65.81	0
2	124372	65.91	0
2	124566	66.01	0
2	124754	66.11	0
2	124942	66.21	0
2	125130	66.31	0
2	125318	66.41	0
2	125506	66.51	0
2	125694	66.61	0
2	125882	66.71	0
2	126070	66.81	0
2	126258	66.91	0
2	126452	67.01	0
2	126640	67.11	0
2	126828	67.21	0
2	127016	67.31	0
2	127204	67.41	0
2	127392	67.51	0
2	127580	67.61	0
2	127768	67.71	0
2	127956	67.81	0
2	128144	67.91	0
2	128338	68.01	0
2	128526	68.11	0
2	128714	68.21	0
2	128902	68.31	0
2	129090	68.41	0
2	129278	68.51	0
2	129466	68.61	0
2	129654	68.71	0
2	129842	68.81	0
2	130030	68.91	0
2	130224	69.01	0
2	130412	69.11	0
2	130600	69.21	0
2	130788	69.31	0
2	130976	69.41	0
2	131164	69.51	0
2	131352	69.61	0
2	131540	69.71	0
2	131728	69.81	0
2	131916	69.91	0
2	132110	70.01	0
2	132298	70.11	0
2	132486	70.21	0
2	132674	70.31	0
2	132862	70.41	0
2	133050	70.51	0
2	133238	70.61	0
2	133426	70.71	0
2	133614	70.81	0
2	133802	70.91	0
2	133996	71.01	0
2	134184	71.11	0
2	134372	71.21	0
2	134560	71.31	0
2	134748	71.41	0
2	134936	71.51	0
2	135124	71.61	0
2	135312	71.71	0
2	135500	71.81	0
2	135688	71.91	0
2	135882	72.01	0
2	136070	72.11	0
2	136258	72.21	0
2	136446	72.31	0
2	136634	72.41	0
2	136822	72.51	0
2	137010	72.61	0
2	137198	72.71	0
2	137386	72.81	0
2	137574	72.91	0
2	137768	73.01	0
2	137956	73.11	0
2	138144	73.21	0
2	138332	73.31	0
2	138520	73.41	0
2	138708	73.51	0
2	138896	73.61	0
2	139084	73.71	0
2	139272	73.81	0
2	139460	73.91	0
2	139654	74.01	0
2	139842	74.11	0
2	140030	74.21	0
2	140218	74.31	0
2	140406	74.41	0
2	140594	74.51	0
2	140782	74.61	0
2	140970	74.71	0
2	141158	74.81	0
2	141346	74.91	0
2	141540	75.01	0
2	141728	75.11	0
2	141916	75.21	0
2	142104	75.31	0
2	142292	75.41	0
2	142480	75.51	0
2	142668	75.61	0
2	142856	75.71	0
2	143044	75.81	0
2	143232	75.91	0
2	143426	76.01	0
2	143614	76.11	0
2	143802	76.21	0
2	143990	76.31	0
2	144178	76.41	0
2	144366	76.51	0
2	144554	76.61	0
2	144742	76.71	0
2	144930	76.81	0
2	145118	76.91	0
2	145312	77.01	0
2	145500	77.11	0
2	145688	77.21	0
2	145876	77.31	0
2	146064	77.41	0
2	146252	77.51	0
2	146440	77.61	0
2	146628	77.71	0
2	146816	77.81	0
2	147004	77.91	0
2	147198	78.01	0
2	147386	78.11	0
2	147574	78.21	0
2	147762	78.31	0
2	147950	78.41	0
2	148138	78.51	0
2	148326	78.61	0
2	148514	78.71	0
2	148702	78.81	0
2	148890	78.91	0
2	149084	79.01	0
2	149272	79.11	0
2	149460	79.21	0
2	149648	79.31	0
2	149836	79.41	0
2	150024	79.51	0
2	150212	79.61	0
2	150400	79.71	0
2	150588	79.81	0
2	150776	79.91	0
2	150970	80.01	0
2	151158	80.11	0
2	151346	80.21	0
2	151534	80.31	0
2	151722	80.41	0
2	151910	80.51	0
2	152098	80.61	0
2	152286	80.71	0
2	152474	80.81	0
2	152662	80.91	0
2	152856	81.01	0
2	153044	81.11	0
2	153232	81.21	0
2	153420	81.31	0
2	153608	81.41	0
2	153796	81.51	0
2	153984	81.61	0
2	154172	81.71	0
2	154360	81.81	0
2	154548	81.91	0
2	154742	82.01	0
2	154930	82.11	0
2	155118	82.21	0
2	155306	82.31	0
2	155494	82.41	0
2	155682	82.51	0
2	155870	82.61	0
2	156058	82.71	0
2	156246	82.81	0
2	156434	82.91	0
2	156628	83.01	0
2	156816	83.11	0
2	157004	83.21	0
2	157192	83.31	0
2	157380	83.41	0
2	157568	83.51	0
2	157756	83.61	0
2	157944	83.71	0
2	158132	83.81	0
2	158320	83.91	0
2	158514	84.01	0
2	158702	84.11	0
2	158890	84.21	0
2	159078	84.31	0
2	159266	84.41	0
2	159454	84.51	0
2	159642	84.61	0
2	159830	84.71	0
2	160018	84.81	0
2	160206	84.91	0
2	160400	85.01	0
2	160588	85.11	0
2	160776	85.21	0
2	160964	85.31	0
2	161152	85.41	0
2	161340	85.51	0
2	161528	85.61	0
2	161716	85.71	0
2	161904	85.81	0
2	162092	85.91	0
2	162286	86.01	0
2	162474	86.11	0
2	162662	86.21	0
2	162850	86.31	0
2	163038	86.41	0
2	163226	86.51	0
2	163414	86.61	0
2	163602	86.71	0
2	163790	86.81	0
2	163978	86.91	0
2	164172	87.01	0
2	164360	87.11	0
2	164548	87.21	0
2	164736	87.31	0
2	164924	87.41	0
2	165112	87.51	0
2	165300	87.61	0
2	165488	87.71	0
2	165676	87.81	0
2	165864	87.91	0
2	166058	88.01	0
2	166246	88.11	0
2	166434	88.21	0
2	166622	88.31	0
2	166810	88.41	0
2	166998	88.51	0
2	167186	88.61	0
2	167374	88.71	0
2	167562	88.81	0
2	167750	88.91	0
2	167944	89.01	0
2	168132	89.11	0
2	168320	89.21	0
2	168508	89.31	0
2	168696	89.41	0
2	168884	89.51	0
2	169072	89.61	0
2	169260	89.71	0
2	169448	89.81	0
2	169636	89.91	0
2	169830	90.01	0
2	170018	90.11	0
2	170206	90.21	0
2	170394	90.31	0
2	170582	90.41	0
2	170770	90.51	0
2	170958	90.61	0
2	171146	90.71	0
2	171334	90.81	0
2	171522	90.91	0
2	171716	91.01	0
2	171904	91.11	0
2	172092	91.21	0
2	172280	91.31	0
2	172468	91.41	0
2	172656	91.51	0
2	172844	91.61	0
2	173032	91.71	0
2	173220	91.81	0
2	173408	91.91	0
2	173602	92.01	0
2	173790	92.11	0
2	173978	92.21	0
2	174166	92.31	0
2	174354	92.41	0
2	174542	92.51	0
2	174730	92.61	0
2	174918	92.71	0
2	175106	92.81	0
2	175294	92.91	0
2	175488	93.01	0
2	175676	93.11	0
2	175864	93.21	0
2	176052	93.31	0
2	176240	93.41	0
2	176428	93.51	0
2	176616	93.61	0
2	176804	93.71	0
2	176992	93.81	0
2	177180	93.91	0
2	177374	94.01	0
2	177562	94.11	0
2	177750	94.21	0
2	177938	94.31	0
2	178126	94.41	0
2	178314	94.51	0
2	178502	94.61	0
2	178690	94.71	0
2	178878	94.81	0
2	179066	94.91	0
2	179260	95.01	0
2	179448	95.11	0
2	179636	95.21	0
2	179824	95.31	0
2	180012	95.41	0
2	180200	95.51	0
2	180388	95.61	0
2	180576	95.71	0
2	180764	95.81	0
2	180952	95.91	0
2	181146	96.01	0
2	181334	96.11	0
2	181522	96.21	0
2	181710	96.31	0
2	181898	96.41	0
2	182086	96.51	0
2	182274	96.61	0
2	182462	96.71	0
2	182650	96.81	0
2	182838	96.91	0
2	183032	97.01	0
2	183220	97.11	0
2	183408	97.21	0
2	183596	97.31	0
2	183784	97.41	0
2	183972	97.51	0
2	184160	97.61	0
2	184348	97.71	0
2	184536	97.81	0
2	184724	97.91	0
2	184918	98.01	0
2	185106	98.11	0
2	185294	98.21	0
2	185482	98.31	0
2	185670	98.41	0
2	185858	98.51	0
2	186046	98.61	0
2	186234	98.71	0
2	186422	98.81	0
2	186610	98.91	0
2	186804	99.01	0
2	186992	99.11	0
2	187180	99.21	0
2	187368	99.31	0
2	187556	99.41	0
2	187744	99.51	0
2	187932	99.61	0
2	188120	99.71	0
2	188308	99.81	0
2	188496	99.91	0
3	113	1.11	-0.000716383
3	301	1.21	-0.00136341
3	489	1.31	-0.00186974
3	677	1.41	-0.00225157
3	865	1.51	-0.00252443
3	1053	1.61	-0.00270298
3	1241	1.71	-0.00280098
3	1429	1.81	-0.00283113
3	1617	1.91	-0.00280509
3	1811	2.01	-0.00273342
3	1999	2.11	-0.00262559
3	2187	2.21	-0.00249005
3	2375	2.31	-0.00233419
3	2563	2.41	-0.00216447
3	2751	2.51	-0.00198642
3	2939	2.61	-0.00180472
3	3127	2.71	-0.0016233
3	3315	2.81	-0.00144536
3	3503	2.91	-0.00127346
3	3697	3.01	-0.0011096
3	3885	3.11	-0.000955278
3	4073	3.21	-0.000811546
3	4261	3.31	-0.00067908
3	4449	3.41	-0.000558232
3	4637	3.51	-0.000449082
3	4825	3.61	-0.000351487
3	5013	3.71	-0.00026512
3	5201	3.81	-0.000189514
3	5389	3.91	-0.000124092
3	5583	4.01	-6.81972e-05
3	5771	4.11	-2.11209e-05
3	5959	4.21	1.78769e-05
3	6147	4.31	4.9548e-05
3	6335	4.41	7.46407e-05
3	6523	4.51	9.38867e-05
3	6711	4.61	0.000107991
3	6899	4.71	0.000117625
3	7087	4.81	0.000123418
3	7275	4.91	0.000125957
3	7469	5.01	0.000125781
3	7657	5.11	0.00012338
3	7845	5.21	0.000119198
3	8033	5.31	0.000113629
3	8221	5.41	0.000107022
3	8409	5.51	9.96832e-05
3	8597	5.61	9.18747e-05
3	8785	5.71	8.38211e-05
3	8973	5.81	7.57109e-05
3	9161	5.91	6.76999e-05
3	9355	6.01	5.99137e-05
3	9543	6.11	5.24518e-05
3	9731	6.21	4.53896e-05
3	9919	6.31	3.87821e-05
3	10107	6.41	3.2666e-05
3	10295	6.51	2.70628e-05
3	10483	6.61	2.19809e-05
3	10671	6.71	1.74176e-05
3	10859	6.81	1.33618e-05
3	11047	6.91	9.79494e-06
3	11241	7.01	6.6932e-06
3	11429	7.11	4.02864e-06
3	11617	7.21	1.77051e-06
3	11805	7.31	-1.13691e-07
3	11993	7.41	-1.65736e-06
3	12181	7.51	-2.89397e-06
3	12369	7.61	-3.85652e-06
3	12557	7.71	-4.57698e-06
3	12745	7.81	-5.08591e-06
3	12933	7.91	-5.41219e-06
3	13127	8.01	-5.58279e-06
3	13315	8.11	-5.6226e-06
3	13503	8.21	-5.55442e-06
3	13691	8.31	-5.39886e-06
3	13879	8.41	-5.17441e-06
3	14067	8.51	-4.89748e-06
3	14255	8.61	-4.58246e-06
3	14443	8.71	-4.24184e-06
3	14631	8.81	-3.88634e-06
3	14819	8.91	-3.52499e-06
3	15013	9.01	-3.16534e-06
3	15201	9.11	-2.81353e-06
3	15389	9.21	-2.47446e-06
3	15577	9.31	-2.15192e-06
3	15765	9.41	-1.84873e-06
3	15953	9.51	-1.56685e-06
3	16141	9.61	-1.30751e-06
3	16329	9.71	-1.0713e-06
3	16517	9.81	-8.58321e-07
3	16705	9.91	-6.68206e-07
3	16957	10.01	-5.0026e-07
3	17149	10.11	-3.53514e-07
3	17341	10.21	-2.2679e-07
3	17533	10.31	-1.18765e-07
3	17725	10.41	-2.80163e-08
3	17917	10.51	4.6931e-08
3	18109	10.61	1.07573e-07
3	18301	10.71	1.55391e-07
3	18493	10.81	1.91831e-07
3	18685	10.91	2.18284e-07
3	18883	11.01	2.3607e-07
3	19075	11.11	2.46427e-07
3	19267	11.21	2.50502e-07
3	19459	11.31	2.49353e-07
3	19651	11.41	2.43938e-07
3	19843	11.51	2.3512e-07
3	20035	11.61	2.23669e-07
3	20227	11.71	2.10264e-07
3	20419	11.81	1.95496e-07
3	20611	11.91	1.79874e-07
3	20809	12.01	1.63833e-07
3	21001	12.11	1.47736e-07
3	21193	12.21	1.3188e-07
3	21385	12.31	1.16508e-07
3	21577	12.41	1.01807e-07
3	21769	12.51	8.79222e-08
3	21961	12.61	7.49541e-08
3	22153	12.71	6.29711e-08
3	22345	12.81	5.20114e-08
3	22537	12.91	4.20883e-08
3	22735	13.01	3.3193e-08
3	22927	13.11	2.53003e-08
3	23119	13.21	1.83718e-08
3	23311	13.31	1.23581e-08
3	23503	13.41	7.20348e-09
3	23695	13.51	2.84537e-09
3	23887	13.61	-7.80886e-10
3	24079	13.71	-3.74136e-09
3	24271	13.81	-6.10285e-09
3	24463	13.91	-7.93072e-09
3	24661	14.01	-9.28821e-09
3	24853	14.11	-1.0235e-08
3	25045	14.21	-1.08283e-08
3	25237	14.31	-1.11211e-08
3	25429	14.41	-1.11612e-08
3	25621	14.51	-1.09946e-08
3	25813	14.61	-1.06599e-08
3	26005	14.71	-1.01945e-08
3	26197	14.81	-9.62999e-09
3	26389	14.91	-8.99405e-09
3	26587	15.01	-8.31086e-09
3	26779	15.11	-7.60103e-09
3	26971	15.21	-6.88338e-09
3	27163	15.31	-6.17071e-09
3	27355	15.41	-5.47544e-09
3	27547	15.51	-4.80682e-09
3	27739	15.61	-4.17266e-09
3	27931	15.71	-3.57687e-09
3	28123	15.81	-3.02443e-09
3	28315	15.91	-2.51674e-09
3	28513	16.01	-2.05489e-09
3	28705	16.11	-1.63958e-09
3	28897	16.21	-1.26903e-09
3	29089	16.31	-9.42535e-10
3	29281	16.41	-6.57963e-10
3	29473	16.51	-4.1247e-10
3	29665	16.61	-2.04636e-10
3	29857	16.71	-2.91323e-11
3	30049	16.81	1.14753e-10
3	30241	16.91	2.30926e-10
3	30439	17.01	3.22231e-10
3	30631	17.11	3.91154e-10
3	30823	17.21	4.40892e-10
3	31015	17.31	4.73577e-10
3	31207	17.41	4.92051e-10
3	31399	17.51	4.98446e-10
3	31591	17.61	4.94893e-10
3	31783	17.71	4.82814e-10
3	31975	17.81	4.6434e-10
3	32167	17.91	4.40892e-10
3	32365	18.01	4.13536e-10
3	32557	18.11	3.83693e-10
3	32749	18.21	3.51719e-10
3	32941	18.31	3.19744e-10
3	33133	18.41	2.8777e-10
3	33325	18.51	2.55795e-10
3	33517	18.61	2.25953e-10
3	33709	18.71	1.97531e-10
3	33901	18.81	1.6982e-10
3	34093	18.91	1.44951e-10
3	34291	19.01	1.21503e-10
3	34483	19.11	1.00187e-10
3	34675	19.21	8.10019e-11
3	34867	19.31	6.32383e-11
3	35059	19.41	4.86722e-11
3	35251	19.51	3.44613e-11
3	35443	19.61	2.34479e-11
3	35635	19.71	1.27898e-11
3	35827	19.81	4.9738e-12
3	36019	19.91	-2.13163e-12
3	36217	20.01	-8.17124e-12
3	36409	20.11	-1.1724e-11
3	36601	20.21	-1.52767e-11
3	36793	20.31	-1.88294e-11
3	36985	20.41	-2.02505e-11
3	37177	20.51	-2.02505e-11
3	37369	20.61	-2.02505e-11
3	37561	20.71	-2.02505e-11
3	37753	20.81	-2.02505e-11
3	37945	20.91	-2.02505e-11
3	38143	21.01	-2.02505e-11
3	38335	21.11	-2.02505e-11
3	38527	21.21	-2.02505e-11
3	38719	21.31	-1.88294e-11
3	38911	21.41	-1.7053e-11
3	39103	21.51	-1.52767e-11
3	39295	21.61	-1.38556e-11
3	39487	21.71	-1.24345e-11
3	39679	21.81	-1.13687e-11
3	39871	21.91	-1.03029e-11
3	40069	22.01	-9.23706e-12
3	40261	22.11	-8.52651e-12
3	40453	22.21	-7.4607e-12
3	40645	22.31	-6.75016e-12
3	40837	22.41	-6.03961e-12
3	41029	22.51	-5.68434e-12
3	41221	22.61	-4.9738e-12
3	41413	22.71	-4.61853e-12
3	41605	22.81	-4.26326e-12
3	41797	22.91	-3.90799e-12
3	41995	23.01	-3.55271e-12
3	42187	23.11	-3.19744e-12
3	42379	23.21	-2.84217e-12
3	42571	23.31	-2.4869e-12
3	42763	23.41	-2.13163e-12
3	42955	23.51	-2.13163e-12
3	43147	23.61	-1.77636e-12
3	43339	23.71	-1.77636e-12
3	43531	23.81	-1.42109e-12
3	43723	23.91	-1.42109e-12
3	43921	24.01	-1.06581e-12
3	44113	24.11	-1.06581e-12
3	44305	24.21	-1.06581e-12
3	44497	24.31	-1.06581e-12
3	44689	24.41	-7.10543e-13
3	44881	24.51	-7.10543e-13
3	45073	24.61	-7.10543e-13
3	45265	24.71	-7.10543e-13
3	45457	24.81	-7.10543e-13
3	45649	24.91	-3.55271e-13
3	45847	25.01	-3.55271e-13
3	46039	25.11	-3.55271e-13
3	46231	25.21	-3.55271e-13
3	46423	25.31	-3.55271e-13
3	46615	25.41	-3.55271e-13
3	46807	25.51	-3.55271e-13
3	46999	25.61	-3.55271e-13
3	47191	25.71	-3.55271e-13
3	47383	25.81	-3.55271e-13
3	47575	25.91	0
3	47773	26.01	0
3	47965	26.11	0
3	48157	26.21	0
3	48349	26.31	0
3	48541	26.41	0
3	48733	26.51	0
3	48925	26.61	0
3	49117	26.71	0
3	49309	26.81	0
3	49501	26.91	0
3	49699	27.01	0
3	49891	27.11	0
3	50083	27.21	0
3	50275	27.31	0
3	50467	27.41	0
3	50659	27.51	0
3	50851	27.61	0
3	51043	27.71	0
3	51235	27.81	0
3	51427	27.91	0
3	51625	28.01	0
3	51817	28.11	0
3	52009	28.21	0
3	52201	28.31	0
3	52393	28.41	0
3	52585	28.51	0
3	52777	28.61	0
3	52969	28.71	0
3	53161	28.81	0
3	53353	28.91	0
3	53551	29.01	0
3	53743	29.11	0
3	53935	29.21	0
3	54127	29.31	0
3	54319	29.41	0
3	54511	29.51	0
3	54703	29.61	0
3	54895	29.71	0
3	55087	29.81	0
3	55279	29.91	0
3	55477	30.01	0
3	55669	30.11	0
3	55861	30.21	0
3	56053	30.31	0
3	56245	30.41	0
3	56437	30.51	0
3	56629	30.61	0
3	56821	30.71	0
3	57013	30.81	0
3	57205	30.91	0
3	57403	31.01	0
3	57595	31.11	0
3	57787	31.21	0
3	57979	31.31	0
3	58171	31.41	0
3	58363	31.51	0
3	58555	31.61	0
3	58747	31.71	0
3	58939	31.81	0
3	59131	31.91	0
3	59329	32.01	0
3	59521	32.11	0
3	59713	32.21	0
3	59905	32.31	0
3	60097	32.41	0
3	60289	32.51	0
3	60481	32.61	0
3	60673	32.71	0
3	60865	32.81	0
3	61057	32.91	0
3	61255	33.01	0
3	61447	33.11	0
3	61639	33.21	0
3	61831	33.31	0
3	62023	33.41	0
3	62215	33.51	0
3	62407	33.61	0
3	62599	33.71	0
3	62791	33.81	0
3	62983	33.91	0
3	63181	34.01	0
3	63373	34.11	0
3	63565	34.21	0
3	63757	34.31	0
3	63949	34.41	0
3	64141	34.51	0
3	64333	34.61	0
3	64525	34.71	0
3	64717	34.81	0
3	64909	34.91	0
3	65107	35.01	0
3	65299	35.11	0
3	65491	35.21	0
3	65683	35.31	0
3	65875	35.41	0
3	66067	35.51	0
3	66259	35.61	0
3	66451	35.71	0
3	66643	35.81	0
3	66835	35.91	0
3	67033	36.01	0
3	67225	36.11	0
3	67417	36.21	0
3	67609	36.31	0
3	67801	36.41	0
3	67993	36.51	0
3	68185	36.61	0
3	68377	36.71	0
3	68569	36.81	0
3	68761	36.91	0
3	68959	37.01	0
3	69151	37.11	0
3	69343	37.21	0
3	69535	37.31	0
3	69727	37.41	0
3	69919	37.51	0
3	70111	37.61	0
3	70303	37.71	0
3	70495	37.81	0
3	70687	37.91	0
3	70885	38.01	0
3	71077	38.11	0
3	71269	38.21	0
3	71461	38.31	0
3	71653	38.41	0
3	71845	38.51	0
3	72037	38.61	0
3	72229	38.71	0
3	72421	38.81	0
3	72613	38.91	0
3	72811	39.01	0
3	73003	39.11	0
3	73195	39.21	0
3	73387	39.31	0
3	73579	39.41	0
3	73771	39.51	0
3	73963	39.61	0
3	74155	39.71	0
3	74347	39.81	0
3	74539	39.91	0
3	74737	40.01	0
3	74929	40.11	0
3	75121	40.21	0
3	75313	40.31	0
3	75505	40.41	0
3	75697	40.51	0
3	75889	40.61	0
3	76081	40.71	0
3	76273	40.81	0
3	76465	40.91	0
3	76663	41.01	0
3	76855	41.11	0
3	77047	41.21	0
3	77239	41.31	0
3	77431	41.41	0
3	77623	41.51	0
3	77815	41.61	0
3	78007	41.71	0
3	78199	41.81	0
3	78391	41.91	0
3	78589	42.01	0
3	78781	42.11	0
3	78973	42.21	0
3	79165	42.31	0
3	79357	42.41	0
3	79549	42.51	0
3	79741	42.61	0
3	79933	42.71	0
3	80125	42.81	0
3	80317	42.91	0
3	80515	43.01	0
3	80707	43.11	0
3	80899	43.21	0
3	81091	43.31	0
3	81283	43.41	0
3	81475	43.51	0
3	81667	43.61	0
3	81859	43.71	0
3	82051	43.81	0
3	82243	43.91	0
3	82441	44.01	0
3	82633	44.11	0
3	82825	44.21	0
3	83017	44.31	0
3	83209	44.41	0
3	83401	44.51	0
3	83593	44.61	0
3	83785	44.71	0
3	83977	44.81	0
3	84169	44.91	0
3	84367	45.01	0
3	84559	45.11	0
3	84751	45.21	0
3	84943	45.31	0
3	85135	45.41	0
3	85327	45.51	0
3	85519	45.61	0
3	85711	45.71	0
3	86022	45.81	0
3	86212	45.91	0
3	86408	46.01	0
3	86598	46.11	0
3	86788	46.21	0
3	86978	46.31	0
3	87168	46.41	0
3	87358	46.51	0
3	87548	46.61	0
3	87738	46.71	0
3	87928	46.81	0
3	88118	46.91	0
3	88314	47.01	0
3	88504	47.11	0
3	88694	47.21	0
3	88884	47.31	0
3	89074	47.41	0
3	89264	47.51	0
3	89454	47.61	0
3	89644	47.71	0
3	89834	47.81	0
3	90024	47.91	0
3	90220	48.01	0
3	90410	48.11	0
3	90600	48.21	0
3	90790	48.31	0
3	90980	48.41	0
3	91170	48.51	0
3	91360	48.61	0
3	91550	48.71	0
3	91740	48.81	0
3	91930	48.91	0
3	92126	49.01	0
3	92316	49.11	0
3	92506	49.21	0
3	92696	49.31	0
3	92886	49.41	0
3	93076	49.51	0
3	93266	49.61	0
3	93456	49.71	0
3	93646	49.81	0
3	93836	49.91	0
3	94032	50.01	0
3	94222	50.11	0
3	94412	50.21	0
3	94602	50.31	0
3	94792	50.41	0
3	94982	50.51	0
3	95172	50.61	0
3	95362	50.71	0
3	95552	50.81	0
3	95742	50.91	0
3	95938	51.01	0
3	96128	51.11	0
3	96318	51.21	0
3	96508	51.31	0
3	96698	51.41	0
3	96888	51.51	0
3	97078	51.61	0
3	97268	51.71	0
3	97458	51.81	0
3	97701	51.91	0
3	97896	52.01	0
3	98085	52.11	0
3	98274	52.21	0
3	98463	52.31	0
3	98652	52.41	0
3	98841	52.51	0
3	99030	52.61	0
3	99219	52.71	0
3	99408	52.81	0
3	99597	52.91	0
3	99792	53.01	0
3	99981	53.11	0
3	100170	53.21	0
3	100359	53.31	0
3	100548	53.41	0
3	100737	53.51	0
3	100926	53.61	0
3	101115	53.71	0
3	101304	53.81	0
3	101493	53.91	0
3	101688	54.01	0
3	101877	54.11	0
3	102066	54.21	0
3	102255	54.31	0
3	102444	54.41	0
3	102633	54.51	0
3	102822	54.61	0
3	103011	54.71	0
3	103200	54.81	0
3	103389	54.91	0
3	103584	55.01	0
3	103773	55.11	0
3	103962	55.21	0
3	104151	55.31	0
3	104340	55.41	0
3	104529	55.51	0
3	104718	55.61	0
3	104907	55.71	0
3	105096	55.81	0
3	105285	55.91	0
3	105480	56.01	0
3	105669	56.11	0
3	105858	56.21	0
3	106047	56.31	0
3	106236	56.41	0
3	106425	56.51	0
3	106614	56.61	0
3	106803	56.71	0
3	106992	56.81	0
3	107181	56.91	0
3	107376	57.01	0
3	107565	57.11	0
3	107754	57.21	0
3	107943	57.31	0
3	108344	57.41	0
3	108532	57.51	0
3	108720	57.61	0
3	108908	57.71	0
3	109096	57.81	0
3	109284	57.91	0
3	109478	58.01	0
3	109666	58.11	0
3	109854	58.21	0
3	110042	58.31	0
3	110230	58.41	0
3	110418	58.51	0
3	110606	58.61	0
3	110794	58.71	0
3	110982	58.81	0
3	111170	58.91	0
3	111364	59.01	0
3	111552	59.11	0
3	111740	59.21	0
3	111928	59.31	0
3	112116	59.41	0
3	112304	59.51	0
3	112492	59.61	0
3	112680	59.71	0
3	112868	59.81	0
3	113056	59.91	0
3	113250	60.01	0
3	113438	60.11	0
3	113626	60.21	0
3	113814	60.31	0
3	114002	60.41	0
3	114190	60.51	0
3	114378	60.61	0
3	114566	60.71	0
3	114754	60.81	0
3	114942	60.91	0
3	115136	61.01	0
3	115324	61.11	0
3	115512	61.21	0
3	115700	61.31	0
3	115888	61.41	0
3	116076	61.51	0
3	116264	61.61	0
3	116452	61.71	0
3	116640	61.81	0
3	116828	61.91	0
3	117022	62.01	0
3	117210	62.11	0
3	117398	62.21	0
3	117586	62.31	0
3	117774	62.41	0
3	117962	62.51	0
3	118150	62.61	0
3	118338	62.71	0
3	118526	62.81	0
3	118714	62.91	0
3	118908	63.01	0
3	119096	63.11	0
3	119284	63.21	0
3	119472	63.31	0
3	119660	63.41	0
3	119848	63.51	0
3	120036	63.61	0
3	120224	63.71	0
3	120412	63.81	0
3	120600	63.91	0
3	120794	64.01	0
3	120982	64.11	0
3	121170	64.21	0
3	121358	64.31	0
3	121546	64.41	0
3	121734	64.51	0
3	121922	64.61	0
3	122110	64.71	0
3	122298	64.81	0
3	122486	64.91	0
3	122680	65.01	0
3	122868	65.11	0
3	123056	65.21	0
3	123244	65.31	0
3	123432	65.41	0
3	123620	65.51	0
3	123808	65.61	0
3	123996	65.71	0
3	124184	65.81	0
3	124372	65.91	0
3	124566	66.01	0
3	124754	66.11	0
3	124942	66.21	0
3	125130	66.31	0
3	125318	66.41	0
3	125506	66.51	0
3	125694	66.61	0
3	125882	66.71	0
3	126070	66.81	0
3	126258	66.91	0
3	126452	67.01	0
3	126640	67.11	0
3	126828	67.21	0
3	127016	67.31	0
3	127204	67.41	0
3	127392	67.51	0
3	127580	67.61	0
3	127768	67.71	0
3	127956	67.81	0
3	128144	67.91	0
3	128338	68.01	0
3	128526	68.11	0
3	128714	68.21	0
3	128902	68.31	0
3	129090	68.41	0
3	129278	68.51	0
3	129466	68.61	0
3	129654	68.71	0
3	129842	68.81	0
3	130030	68.91	0
3	130224	69.01	0
3	130412	69.11	0
3	130600	69.21	0
3	130788	69.31	0
3	130976	69.41	0
3	131164	69.51	0
3	131352	69.61	0
3	131540	69.71	0
3	131728	69.81	0
3	131916	69.91	0
3	132110	70.01	0
3	132298	70.11	0
3	132486	70.21	0
3	132674	70.31	0
3	132862	70.41	0
3	133050	70.51	0
3	133238	70.61	0
3	133426	70.71	0
3	133614	70.81	0
3	133802	70.91	0
3	133996	71.01	0
3	134184	71.11	0
3	134372	71.21	0
3	134560	71.31	0
3	134748	71.41	0
3	134936	71.51	0
3	135124	71.61	0
3	135312	71.71	0
3	135500	71.81	0
3	135688	71.91	0
3	135882	72.01	0
3	136070	72.11	0
3	136258	72.21	0
3	136446	72.31	0
3	136634	72.41	0
3	136822	72.51	0
3	137010	72.61	0
3	137198	72.71	0
3	137386	72.81	0
3	137574	72.91	0
3	137768	73.01	0
3	137956	73.11	0
3	138144	73.21	0
3	138332	73.31	0
3	138520	73.41	0
3	138708	73.51	0
3	138896	73.61	0
3	139084	73.71	0
3	139272	73.81	0
3	139460	73.91	0
3	139654	74.01	0
3	139842	74.11	0
3	140030	74.21	0
3	140218	74.31	0
3	140406	74.41	0
3	140594	74.51	0
3	140782	74.61	0
3	140970	74.71	0
3	141158	74.81	0
3	141346	74.91	0
3	141540	75.01	0
3	141728	75.11	0
3	141916	75.21	0
3	142104	75.31	0
3	142292	75.41	0
3	142480	75.51	0
3	142668	75.61	0
3	142856	75.71	0
3	143044	75.81	0
3	143232	75.91	0
3	143426	76.01	0
3	143614	76.11	0
3	143802	76.21	0
3	143990	76.31	0
3	144178	76.41	0
3	144366	76.51	0
3	144554	76.61	0
3	144742	76.71	0
3	144930	76.81	0
3	145118	76.91	0
3	145312	77.01	0
3	145500	77.11	0
3	145688	77.21	0
3	145876	77.31	0
3	146064	77.41	0
3	146252	77.51	0
3	146440	77.61	0
3	146628	77.71	0
3	146816	77.81	0
3	147004	77.91	0
3	147198	78.01	0
3	147386	78.11	0
3	147574	78.21	0
3	147762	78.31	0
3	147950	78.41	0
3	148138	78.51	0
3	148326	78.61	0
3	148514	78.71	0
3	148702	78.81	0
3	148890	78.91	0
3	149084	79.01	0
3	149272	79.11	0
3	149460	79.21	0
3	149648	79.31	0
3	149836	79.41	0
3	150024	79.51	0
3	150212	79.61	0
3	150400	79.71	0
3	150588	79.81	0
3	150776	79.91	0
3	150970	80.01	0
3	151158	80.11	0
3	151346	80.21	0
3	151534	80.31	0
3	151722	80.41	0
3	151910	80.51	0
3	152098	80.61	0
3	152286	80.71	0
3	152474	80.81	0
3	152662	80.91	0
3	152856	81.01	0
3	153044	81.11	0
3	153232	81.21	0
3	153420	81.31	0
3	153608	81.41	0
3	153796	81.51	0
3	153984	81.61	0
3	154172	81.71	0
3	154360	81.81	0
3	154548	81.91	0
3	154742	82.01	0
3	154930	82.11	0
3	155118	82.21	0
3	155306	82.31	0
3	155494	82.41	0
3	155682	82.51	0
3	155870	82.61	0
3	156058	82.71	0
3	156246	82.81	0
3	156434	82.91	0
3	156628	83.01	0
3	156816	83.11	0
3	157004	83.21	0
3	157192	83.31	0
3	157380	83.41	0
3	157568	83.51	0
3	157756	83.61	0
3	157944	83.71	0
3	158132	83.81	0
3	158320	83.91	0
3	158514	84.01	0
3	158702	84.11	0
3	158890	84.21	0
3	159078	84.31	0
3	159266	84.41	0
3	159454	84.51	0
3	159642	84.61	0
3	159830	84.71	0
3	160018	84.81	0
3	160206	84.91	0
3	160400	85.01	0
3	160588	85.11	0
3	160776	85.21	0
3	160964	85.31	0
3	161152	85.41	0
3	161340	85.51	0
3	161528	85.61	0
3	161716	85.71	0
3	161904	85.81	0
3	162092	85.91	0
3	162286	86.01	0
3	162474	86.11	0
3	162662	86.21	0
3	162850	86.31	0
3	163038	86.41	0
3	163226	86.51	0
3	163414	86.61	0
3	163602	86.71	0
3	163790	86.81	0
3	163978	86.91	0
3	164172	87.01	0
3	164360	87.11	0
3	164548	87.21	0
3	164736	87.31	0
3	164924	87.41	0
3	165112	87.51	0
3	165300	87.61	0
3	165488	87.71	0
3	165676	87.81	0
3	165864	87.91	0
3	166058	88.01	0
3	166246	88.11	0
3	166434	88.21	0
3	166622	88.31	0
3	166810	88.41	0
3	166998	88.51	0
3	167186	88.61	0
3	167374	88.71	0
3	167562	88.81	0
3	167750	88.91	0
3	167944	89.01	0
3	168132	89.11	0
3	168320	89.21	0
3	168508	89.31	0
3	168696	89.41	0
3	168884	89.51	0
3	169072	89.61	0
3	169260	89.71	0
3	169448	89.81	0
3	169636	89.91	0
3	169830	90.01	0
3	170018	90.11	0
3	170206	90.21	0
3	170394	90.31	0
3	170582	90.41	0
3	170770	90.51	0
3	170958	90.61	0
3	171146	90.71	0
3	171334	90.81	0
3	171522	90.91	0
3	171716	91.01	0
3	171904	91.11	0
3	172092	91.21	0
3	172280	91.31	0
3	172468	91.41	0
3	172656	91.51	0
3	172844	91.61	0
3	173032	91.71	0
3	173220	91.81	0
3	173408	91.91	0
3	173602	92.01	0
3	173790	92.11	0
3	173978	92.21	0
3	174166	92.31	0
3	174354	92.41	0
3	174542	92.51	0
3	174730	92.61	0
3	174918	92.71	0
3	175106	92.81	0
3	175294	92.91	0
3	175488	93.01	0
3	175676	93.11	0
3	175864	93.21	0
3	176052	93.31	0
3	176240	93.41	0
3	176428	93.51	0
3	176616	93.61	0
3	176804	93.71	0
3	176992	93.81	0
3	177180	93.91	0
3	177374	94.01	0
3	177562	94.11	0
3	177750	94.21	0
3	177938	94.31	0
3	178126	94.41	0
3	178314	94.51	0
3	178502	94.61	0
3	178690	94.71	0
3	178878	94.81	0
3	179066	94.91	0
3	179260	95.01	0
3	179448	95.11	0
3	179636	95.21	0
3	179824	95.31	0
3	180012	95.41	0
3	180200	95.51	0
3	180388	95.61	0
3	180576	95.71	0
3	180764	95.81	0
3	180952	95.91	0
3	181146	96.01	0
3	181334	96.11	0
3	181522	96.21	0
3	181710	96.31	0
3	181898	96.41	0
3	182086	96.51	0
3	182274	96.61	0
3	182462	96.71	0
3	182650	96.81	0
3	182838	96.91	0
3	183032	97.01	0
3	183220	97.11	0
3	183408	97.21	0
3	183596	97.31	0
3	183784	97.41	0
3	183972	97.51	0
3	184160	97.61	0
3	184348	97.71	0
3	184536	97.81	0
3	184724	97.91	0
3	184918	98.01	0
3	185106	98.11	0
3	185294	98.21	0
3	185482	98.31	0
3	185670	98.41	0
3	185858	98.51	0
3	186046	98.61	0
3	186234	98.71	0
3	186422	98.81	0
3	186610	98.91	0
3	186804	99.01	0
3	186992	99.11	0
3	187180	99.21	0
3	187368	99.31	0
3	187556	99.41	0
3	187744	99.51	0
3	187932	99.61	0
3	188120	99.71	0
3	188308	99.81	0
3	188496	99.91	0
4	113	1.11	-0.00437036
4	301	1.21	-0.00426837
4	489	1.31	-0.00410815
4	677	1.41	-0.00390303
4	865	1.51	-0.00366476
4	1053	1.61	-0.00340356
4	1241	1.71	-0.00312825
4	1429	1.81	-0.00284628
4	1617	1.91	-0.00256392
4	1811	2.01	-0.0022863
4	1999	2.11	-0.00201755
4	2187	2.21	-0.00176089
4	2375	2.31	-0.00151876
4	2563	2.41	-0.00129289
4	2751	2.51	-0.00108441
4	2939	2.61	-0.00089393
4	3127	2.71	-0.000721638
4	3315	2.81	-0.000567355
4	3503	2.91	-0.000430614
4	3697	3.01	-0.000310715
4	3885	3.11	-0.000206783
4	4073	3.21	-0.000117814
4	4261	3.31	-4.27149e-05
4	4449	3.41	1.96584e-05
4	4637	3.51	7.04736e-05
4	4825	3.61	0.000110896
4	5013	3.71	0.000142067
4	5201	3.81	0.00016509
4	5389	3.91	0.000181016
4	5583	4.01	0.000190834
4	5771	4.11	0.000195466
4	5959	4.21	0.00019576
4	6147	4.31	0.000192489
4	6335	4.41	0.000186354
4	6523	4.51	0.000177979
4	6711	4.61	0.000167916
4	6899	4.71	0.000156649
4	7087	4.81	0.000144597
4	7275	4.91	0.000132116
4	7469	5.01	0.000119508
4	7657	5.11	0.000107021
4	7845	5.21	9.48587e-05
4	8033	5.31	8.31796e-05
4	8221	5.41	7.21068e-05
4	8409	5.51	6.17299e-05
4	8597	5.61	5.21101e-05
4	8785	5.71	4.32839e-05
4	8973	5.81	3.52669e-05
4	9161	5.91	2.80577e-05
4	9355	6.01	2.16404e-05
4	9543	6.11	1.59878e-05
4	9731	6.21	1.1064e-05
4	9919	6.31	6.82631e-06
4	10107	6.41	3.22748e-06
4	10295	6.51	2.17307e-07
4	10483	6.61	-2.25598e-06
4	10671	6.71	-4.24448e-06
4	10859	6.81	-5.79961e-06
4	11047	6.91	-6.97134e-06
4	11241	7.01	-7.80753e-06
4	11429	7.11	-8.35346e-06
4	11617	7.21	-8.65149e-06
4	11805	7.31	-8.7408e-06
4	11993	7.41	-8.6573e-06
4	12181	7.51	-8.43352e-06
4	12369	7.61	-8.09868e-06
4	12557	7.71	-7.67874e-06
4	12745	7.81	-7.19651e-06
4	12933	7.91	-6.67185e-06
4	13127	8.01	-6.12177e-06
4	13315	8.11	-5.56072e-06
4	13503	8.21	-5.00073e-06
4	13691	8.31	-4.45164e-06
4	13879	8.41	-3.92136e-06
4	14067	8.51	-3.41601e-06
4	14255	8.61	-2.94018e-06
4	14443	8.71	-2.4971e-06
4	14631	8.81	-2.08883e-06
4	14819	8.91	-1.71644e-06
4	15013	9.01	-1.38016e-06
4	15201	9.11	-1.07955e-06
4	15389	9.21	-8.13576e-07
4	15577	9.31	-5.80794e-07
[...]
69	124560	66	0
69	126446	67	0
69	128332	68	0
69	130218	69	0
69	132104	70	0
69	133990	71	0
69	135876	72	0
69	137762	73	0
69	139648	74	0
69	141534	75	0
69	143420	76	0
69	145306	77	0
69	147192	78	0
69	149078	79	0
69	150964	80	0
69	152850	81	0
69	154736	82	0
69	156622	83	0
69	158508	84	0
69	160394	85	0
69	162280	86	0
69	164166	87	0
69	166052	88	0
69	167938	89	0
69	169824	90	0
69	171710	91	0
69	173596	92	0
69	175482	93	0
69	177368	94	0
69	179254	95	0
69	181140	96	0
69	183026	97	0
69	184912	98	0
69	186798	99	0
69	188684	100	0
70	1806	2	2
70	3692	3	2
70	5578	4	2
70	7464	5	2
70	9350	6	2
70	11236	7	2
70	13122	8	2
70	15008	9	2
70	16896	10	2
70	18874	11	2
70	20800	12	2
70	22726	13	2
70	24652	14	2
70	26578	15	2
70	28504	16	2
70	30430	17	2
70	32356	18	2
70	34282	19	2
70	36208	20	2
70	38134	21	2
70	40060	22	2
70	41986	23	2
70	43912	24	2
70	45838	25	2
70	47764	26	2
70	49690	27	2
70	51616	28	2
70	53542	29	2
70	55468	30	2
70	57394	31	2
70	59320	32	2
70	61246	33	2
70	63172	34	2
70	65098	35	2
70	67024	36	2
70	68950	37	2
70	70876	38	2
70	72802	39	2
70	74728	40	2
70	76654	41	2
70	78580	42	2
70	80506	43	2
70	82432	44	2
70	84358	45	2
70	86401	46	2
70	88307	47	2
70	90213	48	2
70	92119	49	2
70	94025	50	2
70	95931	51	2
70	97890	52	2
70	99786	53	2
70	101682	54	2
70	103578	55	2
70	105474	56	2
70	107370	57	2
70	109473	58	2
70	111359	59	2
70	113245	60	2
70	115131	61	2
70	117017	62	2
70	118903	63	2
70	120789	64	2
70	122675	65	2
70	124561	66	2
70	126447	67	2
70	128333	68	2
70	130219	69	2
70	132105	70	2
70	133991	71	2
70	135877	72	2
70	137763	73	2
70	139649	74	2
70	141535	75	2
70	143421	76	2
70	145307	77	2
70	147193	78	2
70	149079	79	2
70	150965	80	2
70	152851	81	2
70	154737	82	2
70	156623	83	2
70	158509	84	2
70	160395	85	2
70	162281	86	2
70	164167	87	2
70	166053	88	2
70	167939	89	2
70	169825	90	2
70	171711	91	2
70	173597	92	2
70	175483	93	2
70	177369	94	2
70	179255	95	2
70	181141	96	2
70	183027	97	2
70	184913	98	2
70	186799	99	2
70	188685	100	2
71	1806	2	0.011241
71	3692	3	0.01249
71	5578	4	0.01249
71	7464	5	0.01249
71	9350	6	0.01249
71	11236	7	0.01249
71	13122	8	0.01249
71	15008	9	0.01249
71	16896	10	0.01249
71	18874	11	0.012538
71	20800	12	0.01249
71	22726	13	0.01249
71	24652	14	0.01249
71	26578	15	0.01249
71	28504	16	0.01249
71	30430	17	0.01249
71	32356	18	0.01249
71	34282	19	0.01249
71	36208	20	0.01249
71	38134	21	0.01249
71	40060	22	0.01249
71	41986	23	0.01249
71	43912	24	0.01249
71	45838	25	0.01249
71	47764	26	0.01249
71	49690	27	0.01249
71	51616	28	0.01249
71	53542	29	0.01249
71	55468	30	0.01249
71	57394	31	0.01249
71	59320	32	0.01249
71	61246	33	0.01249
71	63172	34	0.01249
71	65098	35	0.01249
71	67024	36	0.01249
71	68950	37	0.01249
71	70876	38	0.01249
71	72802	39	0.01249
71	74728	40	0.01249
71	76654	41	0.01249
71	78580	42	0.01249
71	80506	43	0.01249
71	82432	44	0.01249
71	84358	45	0.01249
71	86401	46	0.012602
71	88307	47	0.01249
71	90213	48	0.01249
71	92119	49	0.01249
71	94025	50	0.01249
71	95931	51	0.01249
71	97890	52	0.012635252586
71	99786	53	0.01249
71	101682	54	0.01249
71	103578	55	0.01249
71	105474	56	0.01249
71	107370	57	0.01249
71	109473	58	0.01297
71	111359	59	0.01249
71	113245	60	0.01249
71	115131	61	0.01249
71	117017	62	0.01249
71	118903	63	0.01249
71	120789	64	0.01249
71	122675	65	0.01249
71	124561	66	0.01249
71	126447	67	0.01249
71	128333	68	0.01249
71	130219	69	0.01249
71	132105	70	0.01249
71	133991	71	0.01249
71	135877	72	0.01249
71	137763	73	0.01249
71	139649	74	0.01249
71	141535	75	0.01249
71	143421	76	0.01249
71	145307	77	0.01249
71	147193	78	0.01249
71	149079	79	0.01249
71	150965	80	0.01249
71	152851	81	0.01249
71	154737	82	0.01249
71	156623	83	0.01249
71	158509	84	0.01249
71	160395	85	0.01249
71	162281	86	0.01249
71	164167	87	0.01249
71	166053	88	0.01249
71	167939	89	0.01249
71	169825	90	0.01249
71	171711	91	0.01249
71	173597	92	0.01249
71	175483	93	0.01249
71	177369	94	0.01249
71	179255	95	0.01249
71	181141	96	0.01249
71	183027	97	0.01249
71	184913	98	0.01249
71	186799	99	0.01249
71	188685	100	0.01249
72	1806	2	0
72	3692	3	0
72	5578	4	0
72	7464	5	0
72	9350	6	0
72	11236	7	0
72	13122	8	0
72	15008	9	0
72	16896	10	0
72	18874	11	0
72	20800	12	0
72	22726	13	0
72	24652	14	0
72	26578	15	0
72	28504	16	0
72	30430	17	0
72	32356	18	0
72	34282	19	0
72	36208	20	0
72	38134	21	0
72	40060	22	0
72	41986	23	0
72	43912	24	0
72	45838	25	0
72	47764	26	0
72	49690	27	0
72	51616	28	0
72	53542	29	0
72	55468	30	0
72	57394	31	0
72	59320	32	0
72	61246	33	0
72	63172	34	0
72	65098	35	0
72	67024	36	0
72	68950	37	0
72	70876	38	0
72	72802	39	0
72	74728	40	0
72	76654	41	0
72	78580	42	0
72	80506	43	0
72	82432	44	0
72	84358	45	0
72	86401	46	0
72	88307	47	0
72	90213	48	0
72	92119	49	0
72	94025	50	0
72	95931	51	0
72	97890	52	0
72	99786	53	0
72	101682	54	0
72	103578	55	0
72	105474	56	0
72	107370	57	0
72	109473	58	0
72	111359	59	0
72	113245	60	0
72	115131	61	0
72	117017	62	0
72	118903	63	0
72	120789	64	0
72	122675	65	0
72	124561	66	0
72	126447	67	0
72	128333	68	0
72	130219	69	0
72	132105	70	0
72	133991	71	0
72	135877	72	0
72	137763	73	0
72	139649	74	0
72	141535	75	0
72	143421	76	0
72	145307	77	0
72	147193	78	0
72	149079	79	0
72	150965	80	0
72	152851	81	0
72	154737	82	0
72	156623	83	0
72	158509	84	0
72	160395	85	0
72	162281	86	0
72	164167	87	0
72	166053	88	0
72	167939	89	0
72	169825	90	0
72	171711	91	0
72	173597	92	0
72	175483	93	0
72	177369	94	0
72	179255	95	0
72	181141	96	0
72	183027	97	0
72	184913	98	0
72	186799	99	0
72	188685	100	0
73	1807	2	3
73	3693	3	3
73	5579	4	3
73	7465	5	3
73	9351	6	3
73	11237	7	3
73	13123	8	3
73	15009	9	3
73	16897	10	3
73	18875	11	3
73	20801	12	3
73	22727	13	3
73	24653	14	3
73	26579	15	3
73	28505	16	3
73	30431	17	3
73	32357	18	3
73	34283	19	3
73	36209	20	3
73	38135	21	3
73	40061	22	3
73	41987	23	3
73	43913	24	3
73	45839	25	3
73	47765	26	3
73	49691	27	3
73	51617	28	3
73	53543	29	3
73	55469	30	3
73	57395	31	3
73	59321	32	3
73	61247	33	3
73	63173	34	3
73	65099	35	3
73	67025	36	3
73	68951	37	3
73	70877	38	3
73	72803	39	3
73	74729	40	3
73	76655	41	3
73	78581	42	3
73	80507	43	3
73	82433	44	3
73	84359	45	3
73	86402	46	3
73	88308	47	3
73	90214	48	3
73	92120	49	3
73	94026	50	3
73	95932	51	3
73	97891	52	3
73	99787	53	3
73	101683	54	3
73	103579	55	3
73	105475	56	3
73	107371	57	3
73	109474	58	3
73	111360	59	3
73	113246	60	3
73	115132	61	3
73	117018	62	3
73	118904	63	3
73	120790	64	3
73	122676	65	3
73	124562	66	3
73	126448	67	3
73	128334	68	3
73	130220	69	3
73	132106	70	3
73	133992	71	3
73	135878	72	3
73	137764	73	3
73	139650	74	3
73	141536	75	3
73	143422	76	3
73	145308	77	3
73	147194	78	3
73	149080	79	3
73	150966	80	3
73	152852	81	3
73	154738	82	3
73	156624	83	3
73	158510	84	3
73	160396	85	3
73	162282	86	3
73	164168	87	3
73	166054	88	3
73	167940	89	3
73	169826	90	3
73	171712	91	3
73	173598	92	3
73	175484	93	3
73	177370	94	3
73	179256	95	3
73	181142	96	3
73	183028	97	3
73	184914	98	3
73	186800	99	3
73	188686	100	3
74	1807	2	0.011241
74	3693	3	0.01249
74	5579	4	0.01249
74	7465	5	0.01249
74	9351	6	0.01249
74	11237	7	0.01249
74	13123	8	0.01249
74	15009	9	0.01249
74	16897	10	0.01249
74	18875	11	0.012538
74	20801	12	0.01249
74	22727	13	0.01249
74	24653	14	0.01249
74	26579	15	0.01249
74	28505	16	0.01249
74	30431	17	0.01249
74	32357	18	0.01249
74	34283	19	0.01249
74	36209	20	0.01249
74	38135	21	0.01249
74	40061	22	0.01249
74	41987	23	0.01249
74	43913	24	0.01249
74	45839	25	0.01249
74	47765	26	0.01249
74	49691	27	0.01249
74	51617	28	0.01249
74	53543	29	0.01249
74	55469	30	0.01249
74	57395	31	0.01249
74	59321	32	0.01249
74	61247	33	0.01249
74	63173	34	0.01249
74	65099	35	0.01249
74	67025	36	0.01249
74	68951	37	0.01249
74	70877	38	0.01249
74	72803	39	0.01249
74	74729	40	0.01249
74	76655	41	0.01249
74	78581	42	0.01249
74	80507	43	0.01249
74	82433	44	0.01249
74	84359	45	0.01249
74	86402	46	0.012602
74	88308	47	0.01249
74	90214	48	0.01249
74	92120	49	0.01249
74	94026	50	0.01249
74	95932	51	0.01249
74	97891	52	0.012602
74	99787	53	0.01249
74	101683	54	0.01249
74	103579	55	0.01249
74	105475	56	0.01249
74	107371	57	0.01249
74	109474	58	0.013003379188
74	111360	59	0.01249
74	113246	60	0.01249
74	115132	61	0.01249
74	117018	62	0.01249
74	118904	63	0.01249
74	120790	64	0.01249
74	122676	65	0.01249
74	124562	66	0.01249
74	126448	67	0.01249
74	128334	68	0.01249
74	130220	69	0.01249
74	132106	70	0.01249
74	133992	71	0.01249
74	135878	72	0.01249
74	137764	73	0.01249
74	139650	74	0.01249
74	141536	75	0.01249
74	143422	76	0.01249
74	145308	77	0.01249
74	147194	78	0.01249
74	149080	79	0.01249
74	150966	80	0.01249
74	152852	81	0.01249
74	154738	82	0.01249
74	156624	83	0.01249
74	158510	84	0.01249
74	160396	85	0.01249
74	162282	86	0.01249
74	164168	87	0.01249
74	166054	88	0.01249
74	167940	89	0.01249
74	169826	90	0.01249
74	171712	91	0.01249
74	173598	92	0.01249
74	175484	93	0.01249
74	177370	94	0.01249
74	179256	95	0.01249
74	181142	96	0.01249
74	183028	97	0.01249
74	184914	98	0.01249
74	186800	99	0.01249
74	188686	100	0.01249
75	1807	2	0
75	3693	3	0
75	5579	4	0
75	7465	5	0
75	9351	6	0
75	11237	7	0
75	13123	8	0
75	15009	9	0
75	16897	10	0
75	18875	11	0
75	20801	12	0
75	22727	13	0
75	24653	14	0
75	26579	15	0
75	28505	16	0
75	30431	17	0
75	32357	18	0
75	34283	19	0
75	36209	20	0
75	38135	21	0
75	40061	22	0
75	41987	23	0
75	43913	24	0
75	45839	25	0
75	47765	26	0
75	49691	27	0
75	51617	28	0
75	53543	29	0
75	55469	30	0
75	57395	31	0
75	59321	32	0
75	61247	33	0
75	63173	34	0
75	65099	35	0
75	67025	36	0
75	68951	37	0
75	70877	38	0
75	72803	39	0
75	74729	40	0
75	76655	41	0
75	78581	42	0
75	80507	43	0
75	82433	44	0
75	84359	45	0
75	86402	46	0
75	88308	47	0
75	90214	48	0
75	92120	49	0
75	94026	50	0
75	95932	51	0
75	97891	52	0
75	99787	53	0
75	101683	54	0
75	103579	55	0
75	105475	56	0
75	107371	57	0
75	109474	58	0
75	111360	59	0
75	113246	60	0
75	115132	61	0
75	117018	62	0
75	118904	63	0
75	120790	64	0
75	122676	65	0
75	124562	66	0
75	126448	67	0
75	128334	68	0
75	130220	69	0
75	132106	70	0
75	133992	71	0
75	135878	72	0
75	137764	73	0
75	139650	74	0
75	141536	75	0
75	143422	76	0
75	145308	77	0
75	147194	78	0
75	149080	79	0
75	150966	80	0
75	152852	81	0
75	154738	82	0
75	156624	83	0
75	158510	84	0
75	160396	85	0
75	162282	86	0
75	164168	87	0
75	166054	88	0
75	167940	89	0
75	169826	90	0
75	171712	91	0
75	173598	92	0
75	175484	93	0
75	177370	94	0
75	179256	95	0
75	181142	96	0
75	183028	97	0
75	184914	98	0
75	186800	99	0
75	188686	100	0
76	1808	2	4
76	3694	3	4
76	5580	4	4
76	7466	5	4
76	9352	6	4
76	11238	7	4
76	13124	8	4
76	15010	9	4
76	16898	10	4
76	18876	11	4
76	20802	12	4
76	22728	13	4
76	24654	14	4
76	26580	15	4
76	28506	16	4
76	30432	17	4
76	32358	18	4
76	34284	19	4
76	36210	20	4
76	38136	21	4
76	40062	22	4
76	41988	23	4
76	43914	24	4
76	45840	25	4
76	47766	26	4
76	49692	27	4
76	51618	28	4
76	53544	29	4
76	55470	30	4
76	57396	31	4
76	59322	32	4
76	61248	33	4
76	63174	34	4
76	65100	35	4
76	67026	36	4
76	68952	37	4
76	70878	38	4
76	72804	39	4
76	74730	40	4
76	76656	41	4
76	78582	42	4
76	80508	43	4
76	82434	44	4
76	84360	45	4
76	86403	46	4
76	88309	47	4
76	90215	48	4
76	92121	49	4
76	94027	50	4
76	95933	51	4
76	97892	52	4
76	99788	53	4
76	101684	54	4
76	103580	55	4
76	105476	56	4
76	107372	57	4
76	109475	58	4
76	111361	59	4
76	113247	60	4
76	115133	61	4
76	117019	62	4
76	118905	63	4
76	120791	64	4
76	122677	65	4
76	124563	66	4
76	126449	67	4
76	128335	68	4
76	130221	69	4
76	132107	70	4
76	133993	71	4
76	135879	72	4
76	137765	73	4
76	139651	74	4
76	141537	75	4
76	143423	76	4
76	145309	77	4
76	147195	78	4
76	149081	79	4
76	150967	80	4
76	152853	81	4
76	154739	82	4
76	156625	83	4
76	158511	84	4
76	160397	85	4
76	162283	86	4
76	164169	87	4
76	166055	88	4
76	167941	89	4
76	169827	90	4
76	171713	91	4
76	173599	92	4
76	175485	93	4
76	177371	94	4
76	179257	95	4
76	181143	96	4
76	183029	97	4
76	184915	98	4
76	186801	99	4
76	188687	100	4
77	1808	2	0.005625
77	3694	3	0.00625
77	5580	4	0.00625
77	7466	5	0.00625
77	9352	6	0.00625
77	11238	7	0.00625
77	13124	8	0.00625
77	15010	9	0.00625
77	16898	10	0.00625
77	18876	11	0.006299
77	20802	12	0.00625
77	22728	13	0.00625
77	24654	14	0.00625
77	26580	15	0.00625
77	28506	16	0.00625
77	30432	17	0.00625
77	32358	18	0.00625
77	34284	19	0.00625
77	36210	20	0.00625
77	38136	21	0.00625
77	40062	22	0.00625
77	41988	23	0.00625
77	43914	24	0.00625
77	45840	25	0.00625
77	47766	26	0.00625
77	49692	27	0.00625
77	51618	28	0.00625
77	53544	29	0.00625
77	55470	30	0.00625
77	57396	31	0.00625
77	59322	32	0.00625
77	61248	33	0.00625
77	63174	34	0.00625
77	65100	35	0.00625
77	67026	36	0.00625
77	68952	37	0.00625
77	70878	38	0.00625
77	72804	39	0.00625
77	74730	40	0.00625
77	76656	41	0.00625
77	78582	42	0.00625
77	80508	43	0.00625
77	82434	44	0.00625
77	84360	45	0.00625
77	86403	46	0.00653912609
77	88309	47	0.00625
77	90215	48	0.00625
77	92121	49	0.00625
77	94027	50	0.00625
77	95933	51	0.00625
77	97892	52	0.00625
77	99788	53	0.00625
77	101684	54	0.00625
77	103580	55	0.00625
77	105476	56	0.00625
77	107372	57	0.00625
77	109475	58	0.00625
77	111361	59	0.00625
77	113247	60	0.00625
77	115133	61	0.00625
77	117019	62	0.00625
77	118905	63	0.00625
77	120791	64	0.00625
77	122677	65	0.00625
77	124563	66	0.00625
77	126449	67	0.00625
77	128335	68	0.00625
77	130221	69	0.00625
77	132107	70	0.00625
77	133993	71	0.00625
77	135879	72	0.00625
77	137765	73	0.00625
77	139651	74	0.00625
77	141537	75	0.00625
77	143423	76	0.00625
77	145309	77	0.00625
77	147195	78	0.00625
77	149081	79	0.00625
77	150967	80	0.00625
77	152853	81	0.00625
77	154739	82	0.00625
77	156625	83	0.00625
77	158511	84	0.00625
77	160397	85	0.00625
77	162283	86	0.00625
77	164169	87	0.00625
77	166055	88	0.00625
77	167941	89	0.00625
77	169827	90	0.00625
77	171713	91	0.00625
77	173599	92	0.00625
77	175485	93	0.00625
77	177371	94	0.00625
77	179257	95	0.00625
77	181143	96	0.00625
77	183029	97	0.00625
77	184915	98	0.00625
77	186801	99	0.00625
77	188687	100	0.00625
78	1808	2	0
78	3694	3	0
78	5580	4	0
78	7466	5	0
78	9352	6	0
78	11238	7	0
78	13124	8	0
78	15010	9	0
78	16898	10	0
78	18876	11	0
78	20802	12	0
78	22728	13	0
78	24654	14	0
78	26580	15	0
78	28506	16	0
78	30432	17	0
78	32358	18	0
78	34284	19	0
78	36210	20	0
78	38136	21	0
78	40062	22	0
78	41988	23	0
78	43914	24	0
78	45840	25	0
78	47766	26	0
78	49692	27	0
78	51618	28	0
78	53544	29	0
78	55470	30	0
78	57396	31	0
78	59322	32	0
78	61248	33	0
78	63174	34	0
78	65100	35	0
78	67026	36	0
78	68952	37	0
78	70878	38	0
78	72804	39	0
78	74730	40	0
78	76656	41	0
78	78582	42	0
78	80508	43	0
78	82434	44	0
78	84360	45	0
78	86403	46	0
78	88309	47	0
78	90215	48	0
78	92121	49	0
78	94027	50	0
78	95933	51	0
78	97892	52	0
78	99788	53	0
78	101684	54	0
78	103580	55	0
78	105476	56	0
78	107372	57	0
78	109475	58	0
78	111361	59	0
78	113247	60	0
78	115133	61	0
78	117019	62	0
78	118905	63	0
78	120791	64	0
78	122677	65	0
78	124563	66	0
78	126449	67	0
78	128335	68	0
78	130221	69	0
78	132107	70	0
78	133993	71	0
78	135879	72	0
78	137765	73	0
78	139651	74	0
78	141537	75	0
78	143423	76	0
78	145309	77	0
78	147195	78	0
78	149081	79	0
78	150967	80	0
78	152853	81	0
78	154739	82	0
78	156625	83	0
78	158511	84	0
78	160397	85	0
78	162283	86	0
78	164169	87	0
78	166055	88	0
78	167941	89	0
78	169827	90	0
78	171713	91	0
78	173599	92	0
78	175485	93	0
78	177371	94	0
78	179257	95	0
78	181143	96	0
78	183029	97	0
78	184915	98	0
78	186801	99	0
78	188687	100	0
79	1809	2	5
79	3695	3	5
79	5581	4	5
79	7467	5	5
79	9353	6	5
79	11239	7	5
79	13125	8	5
79	15011	9	5
79	16899	10	5
79	18877	11	5
79	20803	12	5
79	22729	13	5
79	24655	14	5
79	26581	15	5
79	28507	16	5
79	30433	17	5
79	32359	18	5
79	34285	19	5
79	36211	20	5
79	38137	21	5
79	40063	22	5
79	41989	23	5
79	43915	24	5
79	45841	25	5
79	47767	26	5
79	49693	27	5
79	51619	28	5
79	53545	29	5
79	55471	30	5
79	57397	31	5
79	59323	32	5
79	61249	33	5
79	63175	34	5
79	65101	35	5
79	67027	36	5
79	68953	37	5
79	70879	38	5
79	72805	39	5
79	74731	40	5
79	76657	41	5
79	78583	42	5
79	80509	43	5
79	82435	44	5
79	84361	45	5
79	86404	46	5
79	88310	47	5
79	90216	48	5
79	92122	49	5
79	94028	50	5
79	95934	51	5
79	97893	52	5
79	99789	53	5
79	101685	54	5
79	103581	55	5
79	105477	56	5
79	107373	57	5
79	109476	58	5
79	111362	59	5
79	113248	60	5
79	115134	61	5
79	117020	62	5
79	118906	63	5
79	120792	64	5
79	122678	65	5
79	124564	66	5
79	126450	67	5
79	128336	68	5
79	130222	69	5
79	132108	70	5
79	133994	71	5
79	135880	72	5
79	137766	73	5
79	139652	74	5
79	141538	75	5
79	143424	76	5
79	145310	77	5
79	147196	78	5
79	149082	79	5
79	150968	80	5
79	152854	81	5
79	154740	82	5
79	156626	83	5
79	158512	84	5
79	160398	85	5
79	162284	86	5
79	164170	87	5
79	166056	88	5
79	167942	89	5
79	169828	90	5
79	171714	91	5
79	173600	92	5
79	175486	93	5
79	177372	94	5
79	179258	95	5
79	181144	96	5
79	183030	97	5
79	184916	98	5
79	186802	99	5
79	188688	100	5
80	1809	2	0.005625
80	3695	3	0.00625
80	5581	4	0.00625
80	7467	5	0.00625
80	9353	6	0.00625
80	11239	7	0.00625
80	13125	8	0.00625
80	15011	9	0.00625
80	16899	10	0.00625
80	18877	11	0.006298
80	20803	12	0.00625
80	22729	13	0.00625
80	24655	14	0.00625
80	26581	15	0.00625
80	28507	16	0.00625
80	30433	17	0.00625
80	32359	18	0.00625
80	34285	19	0.00625
80	36211	20	0.00625
80	38137	21	0.00625
80	40063	22	0.00625
80	41989	23	0.00625
80	43915	24	0.00625
80	45841	25	0.00625
80	47767	26	0.00625
80	49693	27	0.00625
80	51619	28	0.00625
80	53545	29	0.00625
80	55471	30	0.00625
80	57397	31	0.00625
80	59323	32	0.00625
80	61249	33	0.00625
80	63175	34	0.00625
80	65101	35	0.00625
80	67027	36	0.00625
80	68953	37	0.00625
80	70879	38	0.00625
80	72805	39	0.00625
80	74731	40	0.00625
80	76657	41	0.00625
80	78583	42	0.00625
80	80509	43	0.00625
80	82435	44	0.00625
80	84361	45	0.00625
80	86404	46	0.00653912609
80	88310	47	0.00625
80	90216	48	0.00625
80	92122	49	0.00625
80	94028	50	0.00625
80	95934	51	0.00625
80	97893	52	0.00625
80	99789	53	0.00625
80	101685	54	0.00625
80	103581	55	0.00625
80	105477	56	0.00625
80	107373	57	0.00625
80	109476	58	0.00625
80	111362	59	0.00625
80	113248	60	0.00625
80	115134	61	0.00625
80	117020	62	0.00625
80	118906	63	0.00625
80	120792	64	0.00625
80	122678	65	0.00625
80	124564	66	0.00625
80	126450	67	0.00625
80	128336	68	0.00625
80	130222	69	0.00625
80	132108	70	0.00625
80	133994	71	0.00625
80	135880	72	0.00625
80	137766	73	0.00625
80	139652	74	0.00625
80	141538	75	0.00625
80	143424	76	0.00625
80	145310	77	0.00625
80	147196	78	0.00625
80	149082	79	0.00625
80	150968	80	0.00625
80	152854	81	0.00625
80	154740	82	0.00625
80	156626	83	0.00625
80	158512	84	0.00625
80	160398	85	0.00625
80	162284	86	0.00625
80	164170	87	0.00625
80	166056	88	0.00625
80	167942	89	0.00625
80	169828	90	0.00625
80	171714	91	0.00625
80	173600	92	0.00625
80	175486	93	0.00625
80	177372	94	0.00625
80	179258	95	0.00625
80	181144	96	0.00625
80	183030	97	0.00625
80	184916	98	0.00625
80	186802	99	0.00625
80	188688	100	0.00625
81	1809	2	0
81	3695	3	0
81	5581	4	0
81	7467	5	0
81	9353	6	0
81	11239	7	0
81	13125	8	0
81	15011	9	0
81	16899	10	0
81	18877	11	0
81	20803	12	0
81	22729	13	0
81	24655	14	0
81	26581	15	0
81	28507	16	0
81	30433	17	0
81	32359	18	0
81	34285	19	0
81	36211	20	0
81	38137	21	0
81	40063	22	0
81	41989	23	0
81	43915	24	0
81	45841	25	0
81	47767	26	0
81	49693	27	0
81	51619	28	0
81	53545	29	0
81	55471	30	0
81	57397	31	0
81	59323	32	0
81	61249	33	0
81	63175	34	0
81	65101	35	0
81	67027	36	0
81	68953	37	0
81	70879	38	0
81	72805	39	0
81	74731	40	0
81	76657	41	0
81	78583	42	0
81	80509	43	0
81	82435	44	0
81	84361	45	0
81	86404	46	0
81	88310	47	0
81	90216	48	0
81	92122	49	0
81	94028	50	0
81	95934	51	0
81	97893	52	0
81	99789	53	0
81	101685	54	0
81	103581	55	0
81	105477	56	0
81	107373	57	0
81	109476	58	0
81	111362	59	0
81	113248	60	0
81	115134	61	0
81	117020	62	0
81	118906	63	0
81	120792	64	0
81	122678	65	0
81	124564	66	0
81	126450	67	0
81	128336	68	0
81	130222	69	0
81	132108	70	0
81	133994	71	0
81	135880	72	0
81	137766	73	0
81	139652	74	0
81	141538	75	0
81	143424	76	0
81	145310	77	0
81	147196	78	0
81	149082	79	0
81	150968	80	0
81	152854	81	0
81	154740	82	0
81	156626	83	0
81	158512	84	0
81	160398	85	0
81	162284	86	0
81	164170	87	0
81	166056	88	0
81	167942	89	0
81	169828	90	0
81	171714	91	0
81	173600	92	0
81	175486	93	0
81	177372	94	0
81	179258	95	0
81	181144	96	0
81	183030	97	0
81	184916	98	0
81	186802	99	0
81	188688	100	0

