version 3
run BreakRanksNoGui-400-20240711-15:02:48-293180
attr configname BreakRanksNoGui
attr datetime 20240711-15:02:48
attr datetimef 20240711-150248
attr experiment BreakRanksNoGui
attr inifile omnetpp.ini
attr iterationvars "$nCars=3, $platoonSize=3, $nLanes=1, $ploegH=0.5, $controller=1, $headway=0.1, $leaderHeadway=1.2, $leaderSpeed=130, $breakRanksSafetyDistance=15, $minSpeed=120, $maxSpeed=140, $beaconInterval=0.1, $priority=4, $packetSize=200, $sController=\"CACC\", $0=2, $1=0"
attr iterationvarsd nCars=3/platoonSize=3/nLanes=1/ploegH=0.5/controller=1/headway=0.1/leaderHeadway=1.2/leaderSpeed=130/breakRanksSafetyDistance=15/minSpeed=120/maxSpeed=140/beaconInterval=0.1/priority=4/packetSize=200/sController=CACC/2/0
attr iterationvarsf nCars=3,platoonSize=3,nLanes=1,ploegH=0.5,controller=1,headway=0.1,leaderHeadway=1.2,leaderSpeed=130,breakRanksSafetyDistance=15,minSpeed=120,maxSpeed=140,beaconInterval=0.1,priority=4,packetSize=200,sController=CACC,2,0-
attr measurement "$nCars=3, $platoonSize=3, $nLanes=1, $ploegH=0.5, $controller=1, $headway=0.1, $leaderHeadway=1.2, $leaderSpeed=130, $breakRanksSafetyDistance=15, $minSpeed=120, $maxSpeed=140, $beaconInterval=0.1, $priority=4, $packetSize=200, $sController=\"CACC\", $0=2, $1=0"
attr network Highway
attr processid 293180
attr repetition 0
attr replication #0
attr resultdir results
attr runnumber 400
attr seedset 0
itervar beaconInterval 0.1
itervar breakRanksSafetyDistance 15
itervar controller 1
itervar headway 0.1
itervar leaderHeadway 1.2
itervar leaderSpeed 130
itervar maxSpeed 140
itervar minSpeed 120
itervar nCars 3
itervar nLanes 1
itervar packetSize 200
itervar platoonSize 3
itervar ploegH 0.5
itervar priority 4
itervar sController "\"CACC\""
config image-path ../../../veins/images
config repeat 10
config extends BreakRanks
config *.manager.command "\"sumo\""
config *.manager.ignoreGuiCommands true
config output-vector-file "results/BreakRanks_1_0.1_130_15_3 /result_0.vec"
config output-scalar-file "results/BreakRanks_1_0.1_130_15_3 /result_0.sca"
config extends Platooning
config *.node[*].scenario_type "\"BreakRanksScenario\""
config *.manager.command "\"sumo-gui\""
config *.node[*].scenario_type "\"SimpleScenario\""
config cmdenv-express-mode true
config cmdenv-autoflush true
config cmdenv-status-frequency 15s
config num-rngs 6
config network Highway
config debug-on-errors true
config print-undisposed true
config *.playgroundSizeX 65000m
config *.playgroundSizeY 25000m
config *.playgroundSizeZ 50m
config sim-time-limit "100 s"
config *.annotations.draw false
config *.obstacles.debug false
config *.world.useTorus false
config *.world.use2D false
config *.manager.updateInterval 0.01s
config *.manager.host "\"localhost\""
config *.manager.moduleType "\"org.car2x.plexe.PlatoonCar\""
config *.manager.moduleName "\"node\""
config *.manager.moduleDisplayString "\"\""
config *.manager.autoShutdown true
config *.manager.margin 25
config *.connectionManager.sendDirect true
config *.connectionManager.maxInterfDist 2600m
config *.connectionManager.drawMaxIntfDist false
config *.**.nic.mac1609_4.useServiceChannel false
config *.**.nic.mac1609_4.txPower 100mW
config *.**.nic.mac1609_4.bitrate 6Mbps
config *.**.nic.mac1609_4.useAcks true
config *.**.nic.mac1609_4.ackErrorRate 0.0
config *.**.nic.mac1609_4.frameErrorRate 0.0
config *.**.nic.phy80211p.minPowerLevel -94dBm
config *.**.nic.phy80211p.maxTXPower 100mW
config *.**.nic.phy80211p.useNoiseFloor true
config *.**.nic.phy80211p.noiseFloor -95dBm
config *.**.nic.phy80211p.decider "xmldoc(\"config.xml\")"
config *.**.nic.phy80211p.analogueModels "xmldoc(\"config.xml\")"
config *.**.nic.phy80211p.usePropagationDelay true
config *.node[*].mobility.x 0
config *.node[*].mobility.y 0
config *.node[*].mobility.z 1.895
config seed-set 0
config **.seed 0
config *.node[*].prot.rng-0 2
config *.node[*].appl.rng-0 3
config *.node[*].scenario.rng-0 4
config **.traffic.rng-0 5
config *.manager.configFile "\"./sumocfg/freeway.sumo.cfg\""
config *.manager.launchConfig "xmldoc(\"./sumocfg/freeway.launchd.xml\")"
config **.numberOfCars 3
config **.numberOfCarsPerPlatoon 3
config **.numberOfLanes 1
config *.node[*].helper_type "\"PositionHelper\""
config *.node[*].scenario.caccC1 0.5
config *.node[*].scenario.caccXi 1
config *.node[*].scenario.caccOmegaN "0.2 Hz"
config *.node[*].scenario.caccSpacing "2 m"
config *.node[*].scenario.engineTau "0.5 s"
config *.node[*].scenario.ploegH 0.5s
config *.node[*].scenario.ploegKp 0.2
config *.node[*].scenario.ploegKd 0.7
config *.node[*].scenario.useRealisticEngine false
config *.node[*].scenario.useControllerAcceleration true
config *.node[*].scenario.nLanes 1
config **.numericController 1
config **.headway 0.1s
config *.node[*].scenario.accHeadway 0.1s
config *.node[*].scenario.leaderHeadway 1.2s
config *.node[*].scenario.leaderSpeed 130kmph
config *.node[*].appl_type "\"SimplePlatooningApp\""
config *.node[*].appl.*.scalar-recording true
config *.node[*].appl.*.vector-recording true
config *.node[0].appl.breakRanksSafetyDistance 15m
config *.node[*].appl.minSpeed 120kmph
config *.node[*].appl.maxSpeed 140kmph
config *.node[*].protocol_type "\"SimplePlatooningBeaconing\""
config *.node[*].prot.*.scalar-recording true
config *.node[*].prot.*.vector-recording true
config *.node[*].prot.beaconingInterval 0.1s
config *.node[*].prot.priority 4
config *.node[*].prot.packetSize 200
config **.traffic_type "\"PlatoonsTrafficManager\""
config **.traffic.platoonInsertTime "1 s"
config **.traffic.platoonInsertSpeed 130kmph
config **.traffic.nCars 3
config **.traffic.platoonSize 3
config **.traffic.nLanes 1
config **.traffic.platooningVType "\"vtypeauto\""
config **.traffic.controller "\"CACC\""
config **.traffic.platoonInsertDistance 2m
config **.traffic.platoonInsertHeadway 0s
config **.traffic.platoonLeaderHeadway 1.2s
config **.scalar-recording false
config **.vector-recording false

vector 0 Highway.node[0].appl distance ETV
vector 1 Highway.node[0].appl relativeSpeed ETV
vector 2 Highway.node[0].appl nodeId ETV
vector 3 Highway.node[0].appl acceleration ETV
vector 4 Highway.node[0].appl controllerAcceleration ETV
vector 5 Highway.node[0].appl speed ETV
vector 6 Highway.node[0].appl posx ETV
vector 7 Highway.node[0].appl posy ETV
vector 8 Highway.node[1].appl distance ETV
vector 9 Highway.node[1].appl relativeSpeed ETV
vector 10 Highway.node[1].appl nodeId ETV
vector 11 Highway.node[1].appl acceleration ETV
vector 12 Highway.node[1].appl controllerAcceleration ETV
vector 13 Highway.node[1].appl speed ETV
vector 14 Highway.node[1].appl posx ETV
vector 15 Highway.node[1].appl posy ETV
vector 16 Highway.node[2].appl distance ETV
vector 17 Highway.node[2].appl relativeSpeed ETV
vector 18 Highway.node[2].appl nodeId ETV
vector 19 Highway.node[2].appl acceleration ETV
vector 20 Highway.node[2].appl controllerAcceleration ETV
vector 21 Highway.node[2].appl speed ETV
vector 22 Highway.node[2].appl posx ETV
vector 23 Highway.node[2].appl posy ETV
vector 24 Highway.node[2].prot frontDelay ETV
vector 25 Highway.node[2].prot frontDelayId ETV
vector 26 Highway.node[1].prot leaderDelay ETV
vector 27 Highway.node[1].prot leaderDelayId ETV
vector 28 Highway.node[1].prot frontDelay ETV
vector 29 Highway.node[1].prot frontDelayId ETV
vector 30 Highway.node[2].prot leaderDelay ETV
vector 31 Highway.node[2].prot leaderDelayId ETV
vector 32 Highway.node[0].prot nodeId ETV
vector 33 Highway.node[0].prot busyTime ETV
vector 34 Highway.node[0].prot collisions ETV
vector 35 Highway.node[1].prot nodeId ETV
vector 36 Highway.node[1].prot busyTime ETV
vector 37 Highway.node[1].prot collisions ETV
vector 38 Highway.node[2].prot nodeId ETV
vector 39 Highway.node[2].prot busyTime ETV
vector 40 Highway.node[2].prot collisions ETV
0	113	1.11	-1
0	204	1.21	-1
0	295	1.31	-1
0	386	1.41	-1
0	477	1.51	-1
0	568	1.61	-1
0	659	1.71	-1
0	750	1.81	-1
0	841	1.91	-1
0	935	2.01	-1
0	1026	2.11	-1
0	1117	2.21	-1
0	1208	2.31	-1
0	1299	2.41	-1
0	1390	2.51	-1
0	1481	2.61	-1
0	1572	2.71	-1
0	1663	2.81	-1
0	1754	2.91	-1
0	1848	3.01	-1
0	1939	3.11	-1
0	2030	3.21	-1
0	2121	3.31	-1
0	2212	3.41	-1
0	2303	3.51	-1
0	2394	3.61	-1
0	2485	3.71	-1
0	2576	3.81	-1
0	2667	3.91	-1
0	2761	4.01	-1
0	2852	4.11	-1
0	2943	4.21	-1
0	3034	4.31	-1
0	3125	4.41	-1
0	3216	4.51	-1
0	3307	4.61	-1
0	3398	4.71	-1
0	3489	4.81	-1
0	3580	4.91	-1
0	3674	5.01	-1
0	3765	5.11	-1
0	3856	5.21	-1
0	3947	5.31	-1
0	4038	5.41	-1
0	4129	5.51	-1
0	4220	5.61	-1
0	4311	5.71	-1
0	4402	5.81	-1
0	4493	5.91	-1
0	4587	6.01	-1
0	4678	6.11	-1
0	4769	6.21	-1
0	4860	6.31	-1
0	4951	6.41	-1
0	5042	6.51	-1
0	5133	6.61	-1
0	5224	6.71	-1
0	5315	6.81	-1
0	5406	6.91	-1
0	5500	7.01	-1
0	5591	7.11	-1
0	5682	7.21	-1
0	5773	7.31	-1
0	5864	7.41	-1
0	5955	7.51	-1
0	6046	7.61	-1
0	6137	7.71	-1
0	6228	7.81	-1
0	6319	7.91	-1
0	6413	8.01	-1
0	6504	8.11	-1
0	6595	8.21	-1
0	6686	8.31	-1
0	6777	8.41	-1
0	6868	8.51	-1
0	6959	8.61	-1
0	7050	8.71	-1
0	7141	8.81	-1
0	7232	8.91	-1
0	7326	9.01	-1
0	7417	9.11	-1
0	7508	9.21	-1
0	7599	9.31	-1
0	7690	9.41	-1
0	7781	9.51	-1
0	7872	9.61	-1
0	7963	9.71	-1
0	8054	9.81	-1
0	8145	9.91	-1
0	8268	10.01	-1
0	8361	10.11	-1
0	8454	10.21	-1
0	8547	10.31	-1
0	8640	10.41	-1
0	8733	10.51	-1
0	8826	10.61	-1
0	8919	10.71	-1
0	9012	10.81	-1
0	9105	10.91	-1
0	9201	11.01	-1
0	9294	11.11	-1
0	9387	11.21	-1
0	9480	11.31	-1
0	9573	11.41	-1
0	9666	11.51	-1
0	9759	11.61	-1
0	9852	11.71	-1
0	9945	11.81	-1
0	10038	11.91	-1
0	10134	12.01	-1
0	10227	12.11	-1
0	10320	12.21	-1
0	10413	12.31	-1
0	10506	12.41	-1
0	10599	12.51	-1
0	10692	12.61	-1
0	10785	12.71	-1
0	10878	12.81	-1
0	10971	12.91	-1
0	11067	13.01	-1
0	11160	13.11	-1
0	11253	13.21	-1
0	11346	13.31	-1
0	11439	13.41	-1
0	11532	13.51	-1
0	11625	13.61	-1
0	11718	13.71	-1
0	11811	13.81	-1
0	11904	13.91	-1
0	12000	14.01	-1
0	12093	14.11	-1
0	12186	14.21	-1
0	12279	14.31	-1
0	12372	14.41	-1
0	12465	14.51	-1
0	12558	14.61	-1
0	12651	14.71	-1
0	12744	14.81	-1
0	12837	14.91	-1
0	12933	15.01	-1
0	13026	15.11	-1
0	13119	15.21	-1
0	13212	15.31	-1
0	13305	15.41	-1
0	13398	15.51	-1
0	13491	15.61	-1
0	13584	15.71	-1
0	13677	15.81	-1
0	13770	15.91	-1
0	13866	16.01	-1
0	13959	16.11	-1
0	14052	16.21	-1
0	14145	16.31	-1
0	14238	16.41	-1
0	14331	16.51	-1
0	14424	16.61	-1
0	14517	16.71	-1
0	14610	16.81	-1
0	14703	16.91	-1
0	14799	17.01	-1
0	14892	17.11	-1
0	14985	17.21	-1
0	15078	17.31	-1
0	15171	17.41	-1
0	15264	17.51	-1
0	15357	17.61	-1
0	15450	17.71	-1
0	15543	17.81	-1
0	15636	17.91	-1
0	15732	18.01	-1
0	15825	18.11	-1
0	15918	18.21	-1
0	16011	18.31	-1
0	16104	18.41	-1
0	16197	18.51	-1
0	16290	18.61	-1
0	16383	18.71	-1
0	16476	18.81	-1
0	16569	18.91	-1
0	16665	19.01	-1
0	16758	19.11	-1
0	16851	19.21	-1
0	16944	19.31	-1
0	17037	19.41	-1
0	17130	19.51	-1
0	17223	19.61	-1
0	17316	19.71	-1
0	17409	19.81	-1
0	17502	19.91	-1
0	17598	20.01	-1
0	17691	20.11	-1
0	17784	20.21	-1
0	17877	20.31	-1
0	17970	20.41	-1
0	18063	20.51	-1
0	18156	20.61	-1
0	18249	20.71	-1
0	18342	20.81	-1
0	18435	20.91	-1
0	18531	21.01	-1
0	18624	21.11	-1
0	18717	21.21	-1
0	18810	21.31	-1
0	18903	21.41	-1
0	18996	21.51	-1
0	19089	21.61	-1
0	19182	21.71	-1
0	19275	21.81	-1
0	19368	21.91	-1
0	19464	22.01	-1
0	19557	22.11	-1
0	19650	22.21	-1
0	19743	22.31	-1
0	19836	22.41	-1
0	19929	22.51	-1
0	20022	22.61	-1
0	20115	22.71	-1
0	20208	22.81	-1
0	20301	22.91	-1
0	20397	23.01	-1
0	20490	23.11	-1
0	20583	23.21	-1
0	20676	23.31	-1
0	20769	23.41	-1
0	20862	23.51	-1
0	20955	23.61	-1
0	21048	23.71	-1
0	21141	23.81	-1
0	21234	23.91	-1
0	21330	24.01	-1
0	21423	24.11	-1
0	21516	24.21	-1
0	21609	24.31	-1
0	21702	24.41	-1
0	21795	24.51	-1
0	21888	24.61	-1
0	21981	24.71	-1
0	22074	24.81	-1
0	22167	24.91	-1
0	22263	25.01	-1
0	22356	25.11	-1
0	22449	25.21	-1
0	22542	25.31	-1
0	22635	25.41	-1
0	22728	25.51	-1
0	22821	25.61	-1
0	22914	25.71	-1
0	23007	25.81	-1
0	23100	25.91	-1
0	23196	26.01	-1
0	23289	26.11	-1
0	23382	26.21	-1
0	23475	26.31	-1
0	23568	26.41	-1
0	23661	26.51	-1
0	23754	26.61	-1
0	23847	26.71	-1
0	23940	26.81	-1
0	24033	26.91	-1
0	24129	27.01	-1
0	24222	27.11	-1
0	24315	27.21	-1
0	24408	27.31	-1
0	24501	27.41	-1
0	24594	27.51	-1
0	24687	27.61	-1
0	24780	27.71	-1
0	24873	27.81	-1
0	24966	27.91	-1
0	25062	28.01	-1
0	25155	28.11	-1
0	25248	28.21	-1
0	25341	28.31	-1
0	25434	28.41	-1
0	25527	28.51	-1
0	25620	28.61	-1
0	25713	28.71	-1
0	25806	28.81	-1
0	25899	28.91	-1
0	25995	29.01	-1
0	26088	29.11	-1
0	26181	29.21	-1
0	26274	29.31	-1
0	26367	29.41	-1
0	26460	29.51	-1
0	26553	29.61	-1
0	26646	29.71	-1
0	26739	29.81	-1
0	26832	29.91	-1
0	26928	30.01	-1
0	27021	30.11	-1
0	27114	30.21	-1
0	27207	30.31	-1
0	27300	30.41	-1
0	27393	30.51	-1
0	27486	30.61	-1
0	27579	30.71	-1
0	27672	30.81	-1
0	27765	30.91	-1
0	27861	31.01	-1
0	27954	31.11	-1
0	28047	31.21	-1
0	28140	31.31	-1
0	28233	31.41	-1
0	28326	31.51	-1
0	28419	31.61	-1
0	28512	31.71	-1
0	28605	31.81	-1
0	28698	31.91	-1
0	28794	32.01	-1
0	28887	32.11	-1
0	28980	32.21	-1
0	29073	32.31	-1
0	29166	32.41	-1
0	29259	32.51	-1
0	29352	32.61	-1
0	29445	32.71	-1
0	29538	32.81	-1
0	29631	32.91	-1
0	29727	33.01	-1
0	29820	33.11	-1
0	29913	33.21	-1
0	30006	33.31	-1
0	30099	33.41	-1
0	30192	33.51	-1
0	30285	33.61	-1
0	30378	33.71	-1
0	30471	33.81	-1
0	30564	33.91	-1
0	30660	34.01	-1
0	30753	34.11	-1
0	30846	34.21	-1
0	30939	34.31	-1
0	31032	34.41	-1
0	31125	34.51	-1
0	31218	34.61	-1
0	31311	34.71	-1
0	31404	34.81	-1
0	31497	34.91	-1
0	31593	35.01	-1
0	31686	35.11	-1
0	31779	35.21	-1
0	31872	35.31	-1
0	31965	35.41	-1
0	32058	35.51	-1
0	32151	35.61	-1
0	32244	35.71	-1
0	32337	35.81	-1
0	32430	35.91	-1
0	32526	36.01	-1
0	32619	36.11	-1
0	32712	36.21	-1
0	32805	36.31	-1
0	32898	36.41	-1
0	32991	36.51	-1
0	33084	36.61	-1
0	33177	36.71	-1
0	33270	36.81	-1
0	33363	36.91	-1
0	33459	37.01	-1
0	33552	37.11	-1
0	33645	37.21	-1
0	33738	37.31	-1
0	33831	37.41	-1
0	33924	37.51	-1
0	34017	37.61	-1
0	34110	37.71	-1
0	34203	37.81	-1
0	34296	37.91	-1
0	34392	38.01	-1
0	34485	38.11	-1
0	34578	38.21	-1
0	34671	38.31	-1
0	34764	38.41	-1
0	34857	38.51	-1
0	34950	38.61	-1
0	35043	38.71	-1
0	35136	38.81	-1
0	35229	38.91	-1
0	35325	39.01	-1
0	35418	39.11	-1
0	35511	39.21	-1
0	35604	39.31	-1
0	35697	39.41	-1
0	35790	39.51	-1
0	35883	39.61	-1
0	35976	39.71	-1
0	36069	39.81	-1
0	36162	39.91	-1
0	36258	40.01	-1
0	36351	40.11	-1
0	36444	40.21	-1
0	36537	40.31	-1
0	36630	40.41	-1
0	36723	40.51	-1
0	36816	40.61	-1
0	36909	40.71	-1
0	37002	40.81	-1
0	37095	40.91	-1
0	37191	41.01	-1
0	37284	41.11	-1
0	37377	41.21	-1
0	37470	41.31	-1
0	37563	41.41	-1
0	37656	41.51	-1
0	37749	41.61	-1
0	37842	41.71	-1
0	37935	41.81	-1
0	38028	41.91	-1
0	38124	42.01	-1
0	38217	42.11	-1
0	38310	42.21	-1
0	38403	42.31	-1
0	38496	42.41	-1
0	38589	42.51	-1
0	38682	42.61	-1
0	38775	42.71	-1
0	38868	42.81	-1
0	38961	42.91	-1
0	39057	43.01	-1
0	39150	43.11	-1
0	39243	43.21	-1
0	39336	43.31	-1
0	39429	43.41	-1
0	39522	43.51	-1
0	39615	43.61	-1
0	39708	43.71	-1
0	39801	43.81	-1
0	39894	43.91	-1
0	39990	44.01	-1
0	40083	44.11	-1
0	40176	44.21	-1
0	40269	44.31	-1
0	40362	44.41	-1
0	40455	44.51	-1
0	40548	44.61	-1
0	40641	44.71	-1
0	40734	44.81	-1
0	40827	44.91	-1
0	40923	45.01	-1
0	41016	45.11	-1
0	41109	45.21	-1
0	41202	45.31	-1
0	41295	45.41	-1
0	41388	45.51	-1
0	41481	45.61	-1
0	41574	45.71	-1
0	41710	45.81	-1
0	41802	45.91	-1
0	41897	46.01	-1
0	41989	46.11	-1
0	42081	46.21	-1
0	42173	46.31	-1
0	42265	46.41	-1
0	42357	46.51	-1
0	42449	46.61	-1
0	42541	46.71	-1
0	42633	46.81	-1
0	42725	46.91	-1
0	42820	47.01	-1
0	42912	47.11	-1
0	43004	47.21	-1
0	43096	47.31	-1
0	43188	47.41	-1
0	43280	47.51	-1
0	43372	47.61	-1
0	43464	47.71	-1
0	43556	47.81	-1
0	43648	47.91	-1
0	43743	48.01	-1
0	43835	48.11	-1
0	43927	48.21	-1
0	44019	48.31	-1
0	44111	48.41	-1
0	44203	48.51	-1
0	44295	48.61	-1
0	44387	48.71	-1
0	44479	48.81	-1
0	44571	48.91	-1
0	44666	49.01	-1
0	44758	49.11	-1
0	44850	49.21	-1
0	44942	49.31	-1
0	45034	49.41	-1
0	45126	49.51	-1
0	45218	49.61	-1
0	45310	49.71	-1
0	45402	49.81	-1
0	45494	49.91	-1
0	45589	50.01	-1
0	45681	50.11	-1
0	45773	50.21	-1
0	45865	50.31	-1
0	45957	50.41	-1
0	46049	50.51	-1
0	46141	50.61	-1
0	46233	50.71	-1
0	46325	50.81	-1
0	46417	50.91	-1
0	46512	51.01	-1
0	46604	51.11	-1
0	46696	51.21	-1
0	46788	51.31	-1
0	46880	51.41	-1
0	46972	51.51	-1
0	47064	51.61	-1
0	47156	51.71	-1
0	47248	51.81	-1
0	47469	51.91	-1
0	47563	52.01	-1
0	47654	52.11	-1
0	47745	52.21	-1
0	47836	52.31	-1
0	47927	52.41	-1
0	48018	52.51	-1
0	48109	52.61	-1
0	48200	52.71	-1
0	48291	52.81	-1
0	48382	52.91	-1
0	48476	53.01	-1
0	48567	53.11	-1
0	48658	53.21	-1
0	48749	53.31	-1
0	48840	53.41	-1
0	48931	53.51	-1
0	49022	53.61	-1
0	49113	53.71	-1
0	49204	53.81	-1
0	49295	53.91	-1
0	49389	54.01	-1
0	49480	54.11	-1
0	49571	54.21	-1
0	49662	54.31	-1
0	49753	54.41	-1
0	49844	54.51	-1
0	49935	54.61	-1
0	50026	54.71	-1
0	50117	54.81	-1
0	50208	54.91	-1
0	50302	55.01	-1
0	50393	55.11	-1
0	50484	55.21	-1
0	50575	55.31	-1
0	50666	55.41	-1
0	50757	55.51	-1
0	50848	55.61	-1
0	50939	55.71	-1
0	51030	55.81	-1
0	51121	55.91	-1
0	51215	56.01	-1
0	51306	56.11	-1
0	51397	56.21	-1
0	51488	56.31	-1
0	51579	56.41	-1
0	51670	56.51	-1
0	51761	56.61	-1
0	51852	56.71	-1
0	51943	56.81	-1
0	52034	56.91	-1
0	52128	57.01	-1
0	52219	57.11	-1
0	52310	57.21	-1
0	52401	57.31	-1
0	52492	57.41	-1
0	52583	57.51	-1
0	52674	57.61	-1
0	52765	57.71	-1
0	52856	57.81	-1
0	52947	57.91	-1
0	53041	58.01	-1
0	53132	58.11	-1
0	53223	58.21	-1
0	53314	58.31	-1
0	53405	58.41	-1
0	53496	58.51	-1
0	53587	58.61	-1
0	53678	58.71	-1
0	53769	58.81	-1
0	53860	58.91	-1
0	53954	59.01	-1
0	54045	59.11	-1
0	54136	59.21	-1
0	54227	59.31	-1
0	54318	59.41	-1
0	54409	59.51	-1
0	54500	59.61	-1
0	54591	59.71	-1
0	54682	59.81	-1
0	54773	59.91	-1
0	54867	60.01	-1
0	54958	60.11	-1
0	55049	60.21	-1
0	55140	60.31	-1
0	55231	60.41	-1
0	55322	60.51	-1
0	55413	60.61	-1
0	55504	60.71	-1
0	55595	60.81	-1
0	55686	60.91	-1
0	55780	61.01	-1
0	55871	61.11	-1
0	55962	61.21	-1
0	56053	61.31	-1
0	56144	61.41	-1
0	56235	61.51	-1
0	56326	61.61	-1
0	56417	61.71	-1
0	56508	61.81	-1
0	56599	61.91	-1
0	56693	62.01	-1
0	56784	62.11	-1
0	56875	62.21	-1
0	56966	62.31	-1
0	57057	62.41	-1
0	57148	62.51	-1
0	57239	62.61	-1
0	57330	62.71	-1
0	57421	62.81	-1
0	57512	62.91	-1
0	57606	63.01	-1
0	57697	63.11	-1
0	57788	63.21	-1
0	57879	63.31	-1
0	57970	63.41	-1
0	58061	63.51	-1
0	58152	63.61	-1
0	58243	63.71	-1
0	58334	63.81	-1
0	58425	63.91	-1
0	58519	64.01	-1
0	58610	64.11	-1
0	58701	64.21	-1
0	58792	64.31	-1
0	58883	64.41	-1
0	58974	64.51	-1
0	59065	64.61	-1
0	59156	64.71	-1
0	59247	64.81	-1
0	59338	64.91	-1
0	59432	65.01	-1
0	59523	65.11	-1
0	59614	65.21	-1
0	59705	65.31	-1
0	59796	65.41	-1
0	59887	65.51	-1
0	59978	65.61	-1
0	60069	65.71	-1
0	60160	65.81	-1
0	60251	65.91	-1
0	60345	66.01	-1
0	60436	66.11	-1
0	60527	66.21	-1
0	60618	66.31	-1
0	60709	66.41	-1
0	60800	66.51	-1
0	60891	66.61	-1
0	60982	66.71	-1
0	61073	66.81	-1
0	61164	66.91	-1
0	61258	67.01	-1
0	61349	67.11	-1
0	61440	67.21	-1
0	61531	67.31	-1
0	61622	67.41	-1
0	61713	67.51	-1
0	61804	67.61	-1
0	61895	67.71	-1
0	61986	67.81	-1
0	62077	67.91	-1
0	62171	68.01	-1
0	62262	68.11	-1
0	62353	68.21	-1
0	62444	68.31	-1
0	62535	68.41	-1
0	62626	68.51	-1
0	62717	68.61	-1
0	62808	68.71	-1
0	62899	68.81	-1
0	62990	68.91	-1
0	63084	69.01	-1
0	63175	69.11	-1
0	63266	69.21	-1
0	63357	69.31	-1
0	63448	69.41	-1
0	63539	69.51	-1
0	63630	69.61	-1
0	63721	69.71	-1
0	63812	69.81	-1
0	63903	69.91	-1
0	63997	70.01	-1
0	64088	70.11	-1
0	64179	70.21	-1
0	64270	70.31	-1
0	64361	70.41	-1
0	64452	70.51	-1
0	64543	70.61	-1
0	64634	70.71	-1
0	64725	70.81	-1
0	64816	70.91	-1
0	64910	71.01	-1
0	65001	71.11	-1
0	65092	71.21	-1
0	65183	71.31	-1
0	65274	71.41	-1
0	65365	71.51	-1
0	65456	71.61	-1
0	65547	71.71	-1
0	65638	71.81	-1
0	65729	71.91	-1
0	65823	72.01	-1
0	65914	72.11	-1
0	66005	72.21	-1
0	66096	72.31	-1
0	66187	72.41	-1
0	66278	72.51	-1
0	66369	72.61	-1
0	66460	72.71	-1
0	66551	72.81	-1
0	66642	72.91	-1
0	66736	73.01	-1
0	66827	73.11	-1
0	66918	73.21	-1
0	67009	73.31	-1
0	67100	73.41	-1
0	67191	73.51	-1
0	67282	73.61	-1
0	67373	73.71	-1
0	67464	73.81	-1
0	67555	73.91	-1
0	67649	74.01	-1
0	67740	74.11	-1
0	67831	74.21	-1
0	67922	74.31	-1
0	68013	74.41	-1
0	68104	74.51	-1
0	68195	74.61	-1
0	68286	74.71	-1
0	68377	74.81	-1
0	68468	74.91	-1
0	68562	75.01	-1
0	68653	75.11	-1
0	68744	75.21	-1
0	68835	75.31	-1
0	68926	75.41	-1
0	69017	75.51	-1
0	69108	75.61	-1
0	69199	75.71	-1
0	69290	75.81	-1
0	69381	75.91	-1
0	69475	76.01	-1
0	69566	76.11	-1
0	69657	76.21	-1
0	69748	76.31	-1
0	69839	76.41	-1
0	69930	76.51	-1
0	70021	76.61	-1
0	70112	76.71	-1
0	70203	76.81	-1
0	70294	76.91	-1
0	70388	77.01	-1
0	70479	77.11	-1
0	70570	77.21	-1
0	70661	77.31	-1
0	70752	77.41	-1
0	70843	77.51	-1
0	70934	77.61	-1
0	71025	77.71	-1
0	71116	77.81	-1
0	71207	77.91	-1
0	71301	78.01	-1
0	71392	78.11	-1
0	71483	78.21	-1
0	71574	78.31	-1
0	71665	78.41	-1
0	71756	78.51	-1
0	71847	78.61	-1
0	71938	78.71	-1
0	72029	78.81	-1
0	72120	78.91	-1
0	72214	79.01	-1
0	72305	79.11	-1
0	72396	79.21	-1
0	72487	79.31	-1
0	72578	79.41	-1
0	72669	79.51	-1
0	72760	79.61	-1
0	72851	79.71	-1
0	72942	79.81	-1
0	73033	79.91	-1
0	73127	80.01	-1
0	73218	80.11	-1
0	73309	80.21	28.4027
0	73400	80.31	28.5916
0	73491	80.41	28.7804
0	73582	80.51	28.9693
0	73673	80.61	29.1582
0	73764	80.71	29.3471
0	73855	80.81	29.536
0	73946	80.91	29.7249
0	74040	81.01	29.9138
0	74131	81.11	30.1027
0	74222	81.21	30.2916
0	74313	81.31	30.4805
0	74404	81.41	30.6693
0	74495	81.51	30.8582
0	74586	81.61	31.0471
0	74677	81.71	31.236
0	74768	81.81	31.4249
0	74859	81.91	31.6138
0	74953	82.01	31.8027
0	75044	82.11	31.9916
0	75135	82.21	32.1805
0	75226	82.31	32.3694
0	75317	82.41	32.5582
0	75408	82.51	32.7471
0	75499	82.61	32.936
0	75590	82.71	33.1249
0	75681	82.81	33.3138
0	75772	82.91	33.5027
0	75866	83.01	33.6916
0	75957	83.11	33.8805
0	76048	83.21	34.0694
0	76139	83.31	34.2583
0	76230	83.41	34.4471
0	76321	83.51	34.636
0	76412	83.61	34.8249
0	76503	83.71	35.0138
0	76594	83.81	35.2027
0	76685	83.91	35.3916
0	76779	84.01	35.5805
0	76870	84.11	35.7694
0	76961	84.21	35.9583
0	77052	84.31	36.1472
0	77143	84.41	36.336
0	77234	84.51	36.5249
0	77325	84.61	36.7138
0	77416	84.71	36.9027
0	77507	84.81	37.0916
0	77598	84.91	37.2805
0	77692	85.01	37.4694
0	77783	85.11	37.6583
0	77874	85.21	37.8472
0	77965	85.31	38.0361
0	78056	85.41	38.2249
0	78147	85.51	38.4138
0	78238	85.61	38.6027
0	78329	85.71	38.7916
0	78420	85.81	38.9805
0	78511	85.91	39.1694
0	78605	86.01	39.3583
0	78696	86.11	39.5472
0	78787	86.21	39.7361
0	78878	86.31	39.925
0	78969	86.41	40.1138
0	79060	86.51	40.3027
0	79151	86.61	40.4916
0	79242	86.71	40.6805
0	79333	86.81	40.8694
0	79424	86.91	41.0583
0	79518	87.01	41.2472
0	79609	87.11	41.4361
0	79700	87.21	41.625
0	79791	87.31	41.8139
0	79882	87.41	42.0027
0	79973	87.51	42.1916
0	80064	87.61	42.3805
0	80155	87.71	42.5694
0	80246	87.81	42.7583
0	80337	87.91	42.9472
0	80431	88.01	43.1361
0	80522	88.11	43.325
0	80613	88.21	43.5139
0	80704	88.31	43.7028
0	80795	88.41	43.8916
0	80886	88.51	44.0805
0	80977	88.61	44.2694
0	81068	88.71	44.4583
0	81159	88.81	44.6472
0	81250	88.91	44.8361
0	81344	89.01	45.025
0	81435	89.11	45.2139
0	81526	89.21	45.4028
0	81617	89.31	45.5917
0	81708	89.41	45.7805
0	81799	89.51	45.9694
0	81890	89.61	46.1583
0	81981	89.71	46.3472
0	82072	89.81	46.5361
0	82163	89.91	46.725
0	82257	90.01	46.9139
0	82348	90.11	47.1028
0	82439	90.21	47.2917
0	82530	90.31	47.4806
0	82621	90.41	47.6694
0	82712	90.51	47.8583
0	82803	90.61	48.0472
0	82894	90.71	48.2361
0	82985	90.81	48.425
0	83076	90.91	48.6139
0	83170	91.01	48.8028
0	83261	91.11	48.9917
0	83352	91.21	49.1806
0	83443	91.31	49.3695
0	83534	91.41	49.5583
0	83625	91.51	49.7472
0	83716	91.61	49.9361
0	83807	91.71	50.125
0	83898	91.81	50.3139
0	83989	91.91	50.5028
0	84083	92.01	50.6917
0	84174	92.11	50.8806
0	84265	92.21	51.0695
0	84356	92.31	51.2584
0	84447	92.41	51.4472
0	84538	92.51	51.6361
0	84629	92.61	51.825
0	84720	92.71	52.0139
0	84811	92.81	52.2028
0	84902	92.91	52.3917
0	84996	93.01	52.5806
0	85087	93.11	52.7695
0	85178	93.21	52.9584
0	85269	93.31	53.1473
0	85360	93.41	53.3361
0	85451	93.51	53.525
0	85542	93.61	53.7139
0	85633	93.71	53.9028
0	85724	93.81	54.0917
0	85815	93.91	54.2806
0	85909	94.01	54.4695
0	86000	94.11	54.6584
0	86091	94.21	54.8473
0	86182	94.31	55.0362
0	86273	94.41	55.225
0	86364	94.51	55.4139
0	86455	94.61	55.6028
0	86546	94.71	55.7917
0	86637	94.81	55.9806
0	86728	94.91	56.1695
0	86822	95.01	56.3584
0	86913	95.11	56.5473
0	87004	95.21	56.7362
0	87095	95.31	56.9251
0	87186	95.41	57.1139
0	87277	95.51	57.3028
0	87368	95.61	57.4917
0	87459	95.71	57.6806
0	87550	95.81	57.8695
0	87641	95.91	58.0584
0	87735	96.01	58.2473
0	87826	96.11	58.4362
0	87917	96.21	58.6251
0	88008	96.31	58.814
0	88099	96.41	59.0028
0	88190	96.51	59.1917
0	88281	96.61	59.3806
0	88372	96.71	59.5695
0	88463	96.81	59.7584
0	88554	96.91	59.9473
0	88648	97.01	60.1362
0	88739	97.11	60.3251
0	88830	97.21	60.514
0	88921	97.31	60.7029
0	89012	97.41	60.8917
0	89103	97.51	61.0806
0	89194	97.61	61.2695
0	89285	97.71	61.4584
0	89376	97.81	61.6473
0	89467	97.91	61.8362
0	89561	98.01	62.0251
0	89652	98.11	62.214
0	89743	98.21	62.4029
0	89834	98.31	62.5918
0	89925	98.41	62.7806
0	90016	98.51	62.9695
0	90107	98.61	63.1584
0	90198	98.71	63.3473
0	90289	98.81	63.5362
0	90380	98.91	63.7251
0	90474	99.01	63.914
0	90565	99.11	64.1029
0	90656	99.21	64.2918
0	90747	99.31	64.4807
0	90838	99.41	64.6695
0	90929	99.51	64.8584
0	91020	99.61	65.0473
0	91111	99.71	65.2362
0	91202	99.81	65.4251
0	91293	99.91	65.614
1	113	1.11	0
1	204	1.21	0
1	295	1.31	0
1	386	1.41	0
1	477	1.51	0
1	568	1.61	0
1	659	1.71	0
1	750	1.81	0
1	841	1.91	0
1	935	2.01	0
1	1026	2.11	0
1	1117	2.21	0
1	1208	2.31	0
1	1299	2.41	0
1	1390	2.51	0
1	1481	2.61	0
1	1572	2.71	0
1	1663	2.81	0
1	1754	2.91	0
1	1848	3.01	0
1	1939	3.11	0
1	2030	3.21	0
1	2121	3.31	0
1	2212	3.41	0
1	2303	3.51	0
1	2394	3.61	0
1	2485	3.71	0
1	2576	3.81	0
1	2667	3.91	0
1	2761	4.01	0
1	2852	4.11	0
1	2943	4.21	0
1	3034	4.31	0
1	3125	4.41	0
1	3216	4.51	0
1	3307	4.61	0
1	3398	4.71	0
1	3489	4.81	0
1	3580	4.91	0
1	3674	5.01	0
1	3765	5.11	0
1	3856	5.21	0
1	3947	5.31	0
1	4038	5.41	0
1	4129	5.51	0
1	4220	5.61	0
1	4311	5.71	0
1	4402	5.81	0
1	4493	5.91	0
1	4587	6.01	0
1	4678	6.11	0
1	4769	6.21	0
1	4860	6.31	0
1	4951	6.41	0
1	5042	6.51	0
1	5133	6.61	0
1	5224	6.71	0
1	5315	6.81	0
1	5406	6.91	0
1	5500	7.01	0
1	5591	7.11	0
1	5682	7.21	0
1	5773	7.31	0
1	5864	7.41	0
1	5955	7.51	0
1	6046	7.61	0
1	6137	7.71	0
1	6228	7.81	0
1	6319	7.91	0
1	6413	8.01	0
1	6504	8.11	0
1	6595	8.21	0
1	6686	8.31	0
1	6777	8.41	0
1	6868	8.51	0
1	6959	8.61	0
1	7050	8.71	0
1	7141	8.81	0
1	7232	8.91	0
1	7326	9.01	0
1	7417	9.11	0
1	7508	9.21	0
1	7599	9.31	0
1	7690	9.41	0
1	7781	9.51	0
1	7872	9.61	0
1	7963	9.71	0
1	8054	9.81	0
1	8145	9.91	0
1	8268	10.01	0
1	8361	10.11	0
1	8454	10.21	0
1	8547	10.31	0
1	8640	10.41	0
1	8733	10.51	0
1	8826	10.61	0
1	8919	10.71	0
1	9012	10.81	0
1	9105	10.91	0
1	9201	11.01	0
1	9294	11.11	0
1	9387	11.21	0
1	9480	11.31	0
1	9573	11.41	0
1	9666	11.51	0
1	9759	11.61	0
1	9852	11.71	0
1	9945	11.81	0
1	10038	11.91	0
1	10134	12.01	0
1	10227	12.11	0
1	10320	12.21	0
1	10413	12.31	0
1	10506	12.41	0
1	10599	12.51	0
1	10692	12.61	0
1	10785	12.71	0
1	10878	12.81	0
1	10971	12.91	0
1	11067	13.01	0
1	11160	13.11	0
1	11253	13.21	0
1	11346	13.31	0
1	11439	13.41	0
1	11532	13.51	0
1	11625	13.61	0
1	11718	13.71	0
1	11811	13.81	0
1	11904	13.91	0
1	12000	14.01	0
1	12093	14.11	0
1	12186	14.21	0
1	12279	14.31	0
1	12372	14.41	0
1	12465	14.51	0
1	12558	14.61	0
1	12651	14.71	0
1	12744	14.81	0
1	12837	14.91	0
1	12933	15.01	0
1	13026	15.11	0
1	13119	15.21	0
1	13212	15.31	0
1	13305	15.41	0
1	13398	15.51	0
1	13491	15.61	0
1	13584	15.71	0
1	13677	15.81	0
1	13770	15.91	0
1	13866	16.01	0
1	13959	16.11	0
1	14052	16.21	0
1	14145	16.31	0
1	14238	16.41	0
1	14331	16.51	0
1	14424	16.61	0
1	14517	16.71	0
1	14610	16.81	0
1	14703	16.91	0
1	14799	17.01	0
1	14892	17.11	0
1	14985	17.21	0
1	15078	17.31	0
1	15171	17.41	0
1	15264	17.51	0
1	15357	17.61	0
1	15450	17.71	0
1	15543	17.81	0
1	15636	17.91	0
1	15732	18.01	0
1	15825	18.11	0
1	15918	18.21	0
1	16011	18.31	0
1	16104	18.41	0
1	16197	18.51	0
1	16290	18.61	0
1	16383	18.71	0
1	16476	18.81	0
1	16569	18.91	0
1	16665	19.01	0
1	16758	19.11	0
1	16851	19.21	0
1	16944	19.31	0
1	17037	19.41	0
1	17130	19.51	0
1	17223	19.61	0
1	17316	19.71	0
1	17409	19.81	0
1	17502	19.91	0
1	17598	20.01	0
1	17691	20.11	0
1	17784	20.21	0
1	17877	20.31	0
1	17970	20.41	0
1	18063	20.51	0
1	18156	20.61	0
1	18249	20.71	0
1	18342	20.81	0
1	18435	20.91	0
1	18531	21.01	0
1	18624	21.11	0
1	18717	21.21	0
1	18810	21.31	0
1	18903	21.41	0
1	18996	21.51	0
1	19089	21.61	0
1	19182	21.71	0
1	19275	21.81	0
1	19368	21.91	0
1	19464	22.01	0
1	19557	22.11	0
1	19650	22.21	0
1	19743	22.31	0
1	19836	22.41	0
1	19929	22.51	0
1	20022	22.61	0
1	20115	22.71	0
1	20208	22.81	0
1	20301	22.91	0
1	20397	23.01	0
1	20490	23.11	0
1	20583	23.21	0
1	20676	23.31	0
1	20769	23.41	0
1	20862	23.51	0
1	20955	23.61	0
1	21048	23.71	0
1	21141	23.81	0
1	21234	23.91	0
1	21330	24.01	0
1	21423	24.11	0
1	21516	24.21	0
1	21609	24.31	0
1	21702	24.41	0
1	21795	24.51	0
1	21888	24.61	0
1	21981	24.71	0
1	22074	24.81	0
1	22167	24.91	0
1	22263	25.01	0
1	22356	25.11	0
1	22449	25.21	0
1	22542	25.31	0
1	22635	25.41	0
1	22728	25.51	0
1	22821	25.61	0
1	22914	25.71	0
1	23007	25.81	0
1	23100	25.91	0
1	23196	26.01	0
1	23289	26.11	0
1	23382	26.21	0
1	23475	26.31	0
1	23568	26.41	0
1	23661	26.51	0
1	23754	26.61	0
1	23847	26.71	0
1	23940	26.81	0
1	24033	26.91	0
1	24129	27.01	0
1	24222	27.11	0
1	24315	27.21	0
1	24408	27.31	0
1	24501	27.41	0
1	24594	27.51	0
1	24687	27.61	0
1	24780	27.71	0
1	24873	27.81	0
1	24966	27.91	0
1	25062	28.01	0
1	25155	28.11	0
1	25248	28.21	0
1	25341	28.31	0
1	25434	28.41	0
1	25527	28.51	0
1	25620	28.61	0
1	25713	28.71	0
1	25806	28.81	0
1	25899	28.91	0
1	25995	29.01	0
1	26088	29.11	0
1	26181	29.21	0
1	26274	29.31	0
1	26367	29.41	0
1	26460	29.51	0
1	26553	29.61	0
1	26646	29.71	0
1	26739	29.81	0
1	26832	29.91	0
1	26928	30.01	0
1	27021	30.11	0
1	27114	30.21	0
1	27207	30.31	0
1	27300	30.41	0
1	27393	30.51	0
1	27486	30.61	0
1	27579	30.71	0
1	27672	30.81	0
1	27765	30.91	0
1	27861	31.01	0
1	27954	31.11	0
1	28047	31.21	0
1	28140	31.31	0
1	28233	31.41	0
1	28326	31.51	0
1	28419	31.61	0
1	28512	31.71	0
1	28605	31.81	0
1	28698	31.91	0
1	28794	32.01	0
1	28887	32.11	0
1	28980	32.21	0
1	29073	32.31	0
1	29166	32.41	0
1	29259	32.51	0
1	29352	32.61	0
1	29445	32.71	0
1	29538	32.81	0
1	29631	32.91	0
1	29727	33.01	0
1	29820	33.11	0
1	29913	33.21	0
1	30006	33.31	0
1	30099	33.41	0
1	30192	33.51	0
1	30285	33.61	0
1	30378	33.71	0
1	30471	33.81	0
1	30564	33.91	0
1	30660	34.01	0
1	30753	34.11	0
1	30846	34.21	0
1	30939	34.31	0
1	31032	34.41	0
1	31125	34.51	0
1	31218	34.61	0
1	31311	34.71	0
1	31404	34.81	0
1	31497	34.91	0
1	31593	35.01	0
1	31686	35.11	0
1	31779	35.21	0
1	31872	35.31	0
1	31965	35.41	0
1	32058	35.51	0
1	32151	35.61	0
1	32244	35.71	0
1	32337	35.81	0
1	32430	35.91	0
1	32526	36.01	0
1	32619	36.11	0
1	32712	36.21	0
1	32805	36.31	0
1	32898	36.41	0
1	32991	36.51	0
1	33084	36.61	0
1	33177	36.71	0
1	33270	36.81	0
1	33363	36.91	0
1	33459	37.01	0
1	33552	37.11	0
1	33645	37.21	0
1	33738	37.31	0
1	33831	37.41	0
1	33924	37.51	0
1	34017	37.61	0
1	34110	37.71	0
1	34203	37.81	0
1	34296	37.91	0
1	34392	38.01	0
1	34485	38.11	0
1	34578	38.21	0
1	34671	38.31	0
1	34764	38.41	0
1	34857	38.51	0
1	34950	38.61	0
1	35043	38.71	0
1	35136	38.81	0
1	35229	38.91	0
1	35325	39.01	0
1	35418	39.11	0
1	35511	39.21	0
1	35604	39.31	0
1	35697	39.41	0
1	35790	39.51	0
1	35883	39.61	0
1	35976	39.71	0
1	36069	39.81	0
1	36162	39.91	0
1	36258	40.01	0
1	36351	40.11	0
1	36444	40.21	0
1	36537	40.31	0
1	36630	40.41	0
1	36723	40.51	0
1	36816	40.61	0
1	36909	40.71	0
1	37002	40.81	0
1	37095	40.91	0
1	37191	41.01	0
1	37284	41.11	0
1	37377	41.21	0
1	37470	41.31	0
1	37563	41.41	0
1	37656	41.51	0
1	37749	41.61	0
1	37842	41.71	0
1	37935	41.81	0
1	38028	41.91	0
1	38124	42.01	0
1	38217	42.11	0
1	38310	42.21	0
1	38403	42.31	0
1	38496	42.41	0
1	38589	42.51	0
1	38682	42.61	0
1	38775	42.71	0
1	38868	42.81	0
1	38961	42.91	0
1	39057	43.01	0
1	39150	43.11	0
1	39243	43.21	0
1	39336	43.31	0
1	39429	43.41	0
1	39522	43.51	0
1	39615	43.61	0
1	39708	43.71	0
1	39801	43.81	0
1	39894	43.91	0
1	39990	44.01	0
1	40083	44.11	0
1	40176	44.21	0
1	40269	44.31	0
1	40362	44.41	0
1	40455	44.51	0
1	40548	44.61	0
1	40641	44.71	0
1	40734	44.81	0
1	40827	44.91	0
1	40923	45.01	0
1	41016	45.11	0
1	41109	45.21	0
1	41202	45.31	0
1	41295	45.41	0
1	41388	45.51	0
1	41481	45.61	0
1	41574	45.71	0
1	41710	45.81	0
1	41802	45.91	0
1	41897	46.01	0
1	41989	46.11	0
1	42081	46.21	0
1	42173	46.31	0
1	42265	46.41	0
1	42357	46.51	0
1	42449	46.61	0
1	42541	46.71	0
1	42633	46.81	0
1	42725	46.91	0
1	42820	47.01	0
1	42912	47.11	0
1	43004	47.21	0
1	43096	47.31	0
1	43188	47.41	0
1	43280	47.51	0
1	43372	47.61	0
1	43464	47.71	0
1	43556	47.81	0
1	43648	47.91	0
1	43743	48.01	0
1	43835	48.11	0
1	43927	48.21	0
1	44019	48.31	0
1	44111	48.41	0
1	44203	48.51	0
1	44295	48.61	0
1	44387	48.71	0
1	44479	48.81	0
1	44571	48.91	0
1	44666	49.01	0
1	44758	49.11	0
1	44850	49.21	0
1	44942	49.31	0
1	45034	49.41	0
1	45126	49.51	0
1	45218	49.61	0
1	45310	49.71	0
1	45402	49.81	0
1	45494	49.91	0
1	45589	50.01	0
1	45681	50.11	0
1	45773	50.21	0
1	45865	50.31	0
1	45957	50.41	0
1	46049	50.51	0
1	46141	50.61	0
1	46233	50.71	0
1	46325	50.81	0
1	46417	50.91	0
1	46512	51.01	0
1	46604	51.11	0
1	46696	51.21	0
1	46788	51.31	0
1	46880	51.41	0
1	46972	51.51	0
1	47064	51.61	0
1	47156	51.71	0
1	47248	51.81	0
1	47469	51.91	0
1	47563	52.01	0
1	47654	52.11	0
1	47745	52.21	0
1	47836	52.31	0
1	47927	52.41	0
1	48018	52.51	0
1	48109	52.61	0
1	48200	52.71	0
1	48291	52.81	0
1	48382	52.91	0
1	48476	53.01	0
1	48567	53.11	0
1	48658	53.21	0
1	48749	53.31	0
1	48840	53.41	0
1	48931	53.51	0
1	49022	53.61	0
1	49113	53.71	0
1	49204	53.81	0
1	49295	53.91	0
1	49389	54.01	0
1	49480	54.11	0
1	49571	54.21	0
1	49662	54.31	0
1	49753	54.41	0
1	49844	54.51	0
1	49935	54.61	0
1	50026	54.71	0
1	50117	54.81	0
1	50208	54.91	0
1	50302	55.01	0
1	50393	55.11	0
1	50484	55.21	0
1	50575	55.31	0
1	50666	55.41	0
1	50757	55.51	0
1	50848	55.61	0
1	50939	55.71	0
1	51030	55.81	0
1	51121	55.91	0
1	51215	56.01	0
1	51306	56.11	0
1	51397	56.21	0
1	51488	56.31	0
1	51579	56.41	0
1	51670	56.51	0
1	51761	56.61	0
1	51852	56.71	0
1	51943	56.81	0
1	52034	56.91	0
1	52128	57.01	0
1	52219	57.11	0
1	52310	57.21	0
1	52401	57.31	0
1	52492	57.41	0
1	52583	57.51	0
1	52674	57.61	0
1	52765	57.71	0
1	52856	57.81	0
1	52947	57.91	0
1	53041	58.01	0
1	53132	58.11	0
1	53223	58.21	0
1	53314	58.31	0
1	53405	58.41	0
1	53496	58.51	0
1	53587	58.61	0
1	53678	58.71	0
1	53769	58.81	0
1	53860	58.91	0
1	53954	59.01	0
1	54045	59.11	0
1	54136	59.21	0
1	54227	59.31	0
1	54318	59.41	0
1	54409	59.51	0
1	54500	59.61	0
1	54591	59.71	0
1	54682	59.81	0
1	54773	59.91	0
1	54867	60.01	0
1	54958	60.11	0
1	55049	60.21	0
1	55140	60.31	0
1	55231	60.41	0
1	55322	60.51	0
1	55413	60.61	0
1	55504	60.71	0
1	55595	60.81	0
1	55686	60.91	0
1	55780	61.01	0
1	55871	61.11	0
1	55962	61.21	0
1	56053	61.31	0
1	56144	61.41	0
1	56235	61.51	0
1	56326	61.61	0
1	56417	61.71	0
1	56508	61.81	0
1	56599	61.91	0
1	56693	62.01	0
1	56784	62.11	0
1	56875	62.21	0
1	56966	62.31	0
1	57057	62.41	0
1	57148	62.51	0
1	57239	62.61	0
1	57330	62.71	0
1	57421	62.81	0
1	57512	62.91	0
1	57606	63.01	0
1	57697	63.11	0
1	57788	63.21	0
1	57879	63.31	0
1	57970	63.41	0
1	58061	63.51	0
1	58152	63.61	0
1	58243	63.71	0
1	58334	63.81	0
1	58425	63.91	0
1	58519	64.01	0
1	58610	64.11	0
1	58701	64.21	0
1	58792	64.31	0
1	58883	64.41	0
1	58974	64.51	0
1	59065	64.61	0
1	59156	64.71	0
1	59247	64.81	0
1	59338	64.91	0
1	59432	65.01	0
1	59523	65.11	0
1	59614	65.21	0
1	59705	65.31	0
1	59796	65.41	0
1	59887	65.51	0
1	59978	65.61	0
1	60069	65.71	0
1	60160	65.81	0
1	60251	65.91	0
1	60345	66.01	0
1	60436	66.11	0
1	60527	66.21	0
1	60618	66.31	0
1	60709	66.41	0
1	60800	66.51	0
1	60891	66.61	0
1	60982	66.71	0
1	61073	66.81	0
1	61164	66.91	0
1	61258	67.01	0
1	61349	67.11	0
1	61440	67.21	0
1	61531	67.31	0
1	61622	67.41	0
1	61713	67.51	0
1	61804	67.61	0
1	61895	67.71	0
1	61986	67.81	0
1	62077	67.91	0
1	62171	68.01	0
1	62262	68.11	0
1	62353	68.21	0
1	62444	68.31	0
1	62535	68.41	0
1	62626	68.51	0
1	62717	68.61	0
1	62808	68.71	0
1	62899	68.81	0
1	62990	68.91	0
1	63084	69.01	0
1	63175	69.11	0
1	63266	69.21	0
1	63357	69.31	0
1	63448	69.41	0
1	63539	69.51	0
1	63630	69.61	0
1	63721	69.71	0
1	63812	69.81	0
1	63903	69.91	0
1	63997	70.01	0
1	64088	70.11	0
1	64179	70.21	0
1	64270	70.31	0
1	64361	70.41	0
1	64452	70.51	0
1	64543	70.61	0
1	64634	70.71	0
1	64725	70.81	0
1	64816	70.91	0
1	64910	71.01	0
1	65001	71.11	0
1	65092	71.21	0
1	65183	71.31	0
1	65274	71.41	0
1	65365	71.51	0
1	65456	71.61	0
1	65547	71.71	0
1	65638	71.81	0
1	65729	71.91	0
1	65823	72.01	0
1	65914	72.11	0
1	66005	72.21	0
1	66096	72.31	0
1	66187	72.41	0
1	66278	72.51	0
1	66369	72.61	0
1	66460	72.71	0
1	66551	72.81	0
1	66642	72.91	0
1	66736	73.01	0
1	66827	73.11	0
1	66918	73.21	0
1	67009	73.31	0
1	67100	73.41	0
1	67191	73.51	0
1	67282	73.61	0
1	67373	73.71	0
1	67464	73.81	0
1	67555	73.91	0
1	67649	74.01	0
1	67740	74.11	0
1	67831	74.21	0
1	67922	74.31	0
1	68013	74.41	0
1	68104	74.51	0
1	68195	74.61	0
1	68286	74.71	0
1	68377	74.81	0
1	68468	74.91	0
1	68562	75.01	0
1	68653	75.11	0
1	68744	75.21	0
1	68835	75.31	0
1	68926	75.41	0
1	69017	75.51	0
1	69108	75.61	0
1	69199	75.71	0
1	69290	75.81	0
1	69381	75.91	0
1	69475	76.01	0
1	69566	76.11	0
1	69657	76.21	0
1	69748	76.31	0
1	69839	76.41	0
1	69930	76.51	0
1	70021	76.61	0
1	70112	76.71	0
1	70203	76.81	0
1	70294	76.91	0
1	70388	77.01	0
1	70479	77.11	0
1	70570	77.21	0
1	70661	77.31	0
1	70752	77.41	0
1	70843	77.51	0
1	70934	77.61	0
1	71025	77.71	0
1	71116	77.81	0
1	71207	77.91	0
1	71301	78.01	0
1	71392	78.11	0
1	71483	78.21	0
1	71574	78.31	0
1	71665	78.41	0
1	71756	78.51	0
1	71847	78.61	0
1	71938	78.71	0
1	72029	78.81	0
1	72120	78.91	0
1	72214	79.01	0
1	72305	79.11	0
1	72396	79.21	0
1	72487	79.31	0
1	72578	79.41	0
1	72669	79.51	0
1	72760	79.61	0
1	72851	79.71	0
1	72942	79.81	0
1	73033	79.91	0
1	73127	80.01	0
1	73218	80.11	0
1	73309	80.21	1.8889
1	73400	80.31	1.8889
1	73491	80.41	1.8889
1	73582	80.51	1.8889
1	73673	80.61	1.8889
1	73764	80.71	1.8889
1	73855	80.81	1.8889
1	73946	80.91	1.8889
1	74040	81.01	1.8889
1	74131	81.11	1.8889
1	74222	81.21	1.8889
1	74313	81.31	1.8889
1	74404	81.41	1.8889
1	74495	81.51	1.8889
1	74586	81.61	1.8889
1	74677	81.71	1.8889
1	74768	81.81	1.8889
1	74859	81.91	1.8889
1	74953	82.01	1.8889
1	75044	82.11	1.8889
1	75135	82.21	1.8889
1	75226	82.31	1.8889
1	75317	82.41	1.8889
1	75408	82.51	1.8889
1	75499	82.61	1.8889
1	75590	82.71	1.8889
1	75681	82.81	1.8889
1	75772	82.91	1.8889
1	75866	83.01	1.8889
1	75957	83.11	1.8889
1	76048	83.21	1.8889
1	76139	83.31	1.8889
1	76230	83.41	1.8889
1	76321	83.51	1.8889
1	76412	83.61	1.8889
1	76503	83.71	1.8889
1	76594	83.81	1.8889
1	76685	83.91	1.8889
1	76779	84.01	1.8889
1	76870	84.11	1.8889
1	76961	84.21	1.8889
1	77052	84.31	1.8889
1	77143	84.41	1.8889
1	77234	84.51	1.8889
1	77325	84.61	1.8889
1	77416	84.71	1.8889
1	77507	84.81	1.8889
1	77598	84.91	1.8889
1	77692	85.01	1.8889
1	77783	85.11	1.8889
1	77874	85.21	1.8889
1	77965	85.31	1.8889
1	78056	85.41	1.8889
1	78147	85.51	1.8889
1	78238	85.61	1.8889
1	78329	85.71	1.8889
1	78420	85.81	1.8889
1	78511	85.91	1.8889
1	78605	86.01	1.8889
1	78696	86.11	1.8889
1	78787	86.21	1.8889
1	78878	86.31	1.8889
1	78969	86.41	1.8889
1	79060	86.51	1.8889
1	79151	86.61	1.8889
1	79242	86.71	1.8889
1	79333	86.81	1.8889
1	79424	86.91	1.8889
1	79518	87.01	1.8889
1	79609	87.11	1.8889
1	79700	87.21	1.8889
1	79791	87.31	1.8889
1	79882	87.41	1.8889
1	79973	87.51	1.8889
1	80064	87.61	1.8889
1	80155	87.71	1.8889
1	80246	87.81	1.8889
1	80337	87.91	1.8889
1	80431	88.01	1.8889
1	80522	88.11	1.8889
1	80613	88.21	1.8889
1	80704	88.31	1.8889
1	80795	88.41	1.8889
1	80886	88.51	1.8889
1	80977	88.61	1.8889
1	81068	88.71	1.8889
1	81159	88.81	1.8889
1	81250	88.91	1.8889
1	81344	89.01	1.8889
1	81435	89.11	1.8889
1	81526	89.21	1.8889
1	81617	89.31	1.8889
1	81708	89.41	1.8889
1	81799	89.51	1.8889
1	81890	89.61	1.8889
1	81981	89.71	1.8889
1	82072	89.81	1.8889
1	82163	89.91	1.8889
1	82257	90.01	1.8889
1	82348	90.11	1.8889
1	82439	90.21	1.8889
1	82530	90.31	1.8889
1	82621	90.41	1.8889
1	82712	90.51	1.8889
1	82803	90.61	1.8889
1	82894	90.71	1.8889
1	82985	90.81	1.8889
1	83076	90.91	1.8889
1	83170	91.01	1.8889
1	83261	91.11	1.8889
1	83352	91.21	1.8889
1	83443	91.31	1.8889
1	83534	91.41	1.8889
1	83625	91.51	1.8889
1	83716	91.61	1.8889
1	83807	91.71	1.8889
1	83898	91.81	1.8889
1	83989	91.91	1.8889
1	84083	92.01	1.8889
1	84174	92.11	1.8889
1	84265	92.21	1.8889
1	84356	92.31	1.8889
1	84447	92.41	1.8889
1	84538	92.51	1.8889
1	84629	92.61	1.8889
1	84720	92.71	1.8889
1	84811	92.81	1.8889
1	84902	92.91	1.8889
1	84996	93.01	1.8889
1	85087	93.11	1.8889
1	85178	93.21	1.8889
1	85269	93.31	1.8889
1	85360	93.41	1.8889
1	85451	93.51	1.8889
1	85542	93.61	1.8889
1	85633	93.71	1.8889
1	85724	93.81	1.8889
1	85815	93.91	1.8889
1	85909	94.01	1.8889
1	86000	94.11	1.8889
1	86091	94.21	1.8889
1	86182	94.31	1.8889
1	86273	94.41	1.8889
1	86364	94.51	1.8889
1	86455	94.61	1.8889
1	86546	94.71	1.8889
1	86637	94.81	1.8889
1	86728	94.91	1.8889
1	86822	95.01	1.8889
1	86913	95.11	1.8889
1	87004	95.21	1.8889
1	87095	95.31	1.8889
1	87186	95.41	1.8889
1	87277	95.51	1.8889
1	87368	95.61	1.8889
1	87459	95.71	1.8889
1	87550	95.81	1.8889
1	87641	95.91	1.8889
1	87735	96.01	1.8889
1	87826	96.11	1.8889
1	87917	96.21	1.8889
1	88008	96.31	1.8889
1	88099	96.41	1.8889
1	88190	96.51	1.8889
1	88281	96.61	1.8889
1	88372	96.71	1.8889
1	88463	96.81	1.8889
1	88554	96.91	1.8889
1	88648	97.01	1.8889
1	88739	97.11	1.8889
1	88830	97.21	1.8889
1	88921	97.31	1.8889
1	89012	97.41	1.8889
1	89103	97.51	1.8889
1	89194	97.61	1.8889
1	89285	97.71	1.8889
1	89376	97.81	1.8889
1	89467	97.91	1.8889
1	89561	98.01	1.8889
1	89652	98.11	1.8889
1	89743	98.21	1.8889
1	89834	98.31	1.8889
1	89925	98.41	1.8889
1	90016	98.51	1.8889
1	90107	98.61	1.8889
1	90198	98.71	1.8889
1	90289	98.81	1.8889
1	90380	98.91	1.8889
1	90474	99.01	1.8889
1	90565	99.11	1.8889
1	90656	99.21	1.8889
1	90747	99.31	1.8889
1	90838	99.41	1.8889
1	90929	99.51	1.8889
1	91020	99.61	1.8889
1	91111	99.71	1.8889
1	91202	99.81	1.8889
1	91293	99.91	1.8889
2	113	1.11	0
2	204	1.21	0
2	295	1.31	0
2	386	1.41	0
2	477	1.51	0
2	568	1.61	0
2	659	1.71	0
2	750	1.81	0
2	841	1.91	0
2	935	2.01	0
2	1026	2.11	0
2	1117	2.21	0
2	1208	2.31	0
2	1299	2.41	0
2	1390	2.51	0
2	1481	2.61	0
2	1572	2.71	0
2	1663	2.81	0
2	1754	2.91	0
2	1848	3.01	0
2	1939	3.11	0
2	2030	3.21	0
2	2121	3.31	0
2	2212	3.41	0
2	2303	3.51	0
2	2394	3.61	0
2	2485	3.71	0
2	2576	3.81	0
2	2667	3.91	0
2	2761	4.01	0
2	2852	4.11	0
2	2943	4.21	0
2	3034	4.31	0
2	3125	4.41	0
2	3216	4.51	0
2	3307	4.61	0
2	3398	4.71	0
2	3489	4.81	0
2	3580	4.91	0
2	3674	5.01	0
2	3765	5.11	0
2	3856	5.21	0
2	3947	5.31	0
2	4038	5.41	0
2	4129	5.51	0
2	4220	5.61	0
2	4311	5.71	0
2	4402	5.81	0
2	4493	5.91	0
2	4587	6.01	0
2	4678	6.11	0
2	4769	6.21	0
2	4860	6.31	0
2	4951	6.41	0
2	5042	6.51	0
2	5133	6.61	0
2	5224	6.71	0
2	5315	6.81	0
2	5406	6.91	0
2	5500	7.01	0
2	5591	7.11	0
2	5682	7.21	0
2	5773	7.31	0
2	5864	7.41	0
2	5955	7.51	0
2	6046	7.61	0
2	6137	7.71	0
2	6228	7.81	0
2	6319	7.91	0
2	6413	8.01	0
2	6504	8.11	0
2	6595	8.21	0
2	6686	8.31	0
2	6777	8.41	0
2	6868	8.51	0
2	6959	8.61	0
2	7050	8.71	0
2	7141	8.81	0
2	7232	8.91	0
2	7326	9.01	0
2	7417	9.11	0
2	7508	9.21	0
2	7599	9.31	0
2	7690	9.41	0
2	7781	9.51	0
2	7872	9.61	0
2	7963	9.71	0
2	8054	9.81	0
2	8145	9.91	0
2	8268	10.01	0
2	8361	10.11	0
2	8454	10.21	0
2	8547	10.31	0
2	8640	10.41	0
2	8733	10.51	0
2	8826	10.61	0
2	8919	10.71	0
2	9012	10.81	0
2	9105	10.91	0
2	9201	11.01	0
2	9294	11.11	0
2	9387	11.21	0
2	9480	11.31	0
2	9573	11.41	0
2	9666	11.51	0
2	9759	11.61	0
2	9852	11.71	0
2	9945	11.81	0
2	10038	11.91	0
2	10134	12.01	0
2	10227	12.11	0
2	10320	12.21	0
2	10413	12.31	0
2	10506	12.41	0
2	10599	12.51	0
2	10692	12.61	0
2	10785	12.71	0
2	10878	12.81	0
2	10971	12.91	0
2	11067	13.01	0
2	11160	13.11	0
2	11253	13.21	0
2	11346	13.31	0
2	11439	13.41	0
2	11532	13.51	0
2	11625	13.61	0
2	11718	13.71	0
2	11811	13.81	0
2	11904	13.91	0
2	12000	14.01	0
2	12093	14.11	0
2	12186	14.21	0
2	12279	14.31	0
2	12372	14.41	0
2	12465	14.51	0
2	12558	14.61	0
2	12651	14.71	0
2	12744	14.81	0
2	12837	14.91	0
2	12933	15.01	0
2	13026	15.11	0
2	13119	15.21	0
2	13212	15.31	0
2	13305	15.41	0
2	13398	15.51	0
2	13491	15.61	0
2	13584	15.71	0
2	13677	15.81	0
2	13770	15.91	0
2	13866	16.01	0
2	13959	16.11	0
2	14052	16.21	0
2	14145	16.31	0
2	14238	16.41	0
2	14331	16.51	0
2	14424	16.61	0
2	14517	16.71	0
2	14610	16.81	0
2	14703	16.91	0
2	14799	17.01	0
2	14892	17.11	0
2	14985	17.21	0
2	15078	17.31	0
2	15171	17.41	0
2	15264	17.51	0
2	15357	17.61	0
2	15450	17.71	0
2	15543	17.81	0
2	15636	17.91	0
2	15732	18.01	0
2	15825	18.11	0
2	15918	18.21	0
2	16011	18.31	0
2	16104	18.41	0
2	16197	18.51	0
2	16290	18.61	0
2	16383	18.71	0
2	16476	18.81	0
2	16569	18.91	0
2	16665	19.01	0
2	16758	19.11	0
2	16851	19.21	0
2	16944	19.31	0
2	17037	19.41	0
2	17130	19.51	0
2	17223	19.61	0
2	17316	19.71	0
2	17409	19.81	0
2	17502	19.91	0
2	17598	20.01	0
2	17691	20.11	0
2	17784	20.21	0
2	17877	20.31	0
2	17970	20.41	0
2	18063	20.51	0
2	18156	20.61	0
2	18249	20.71	0
2	18342	20.81	0
2	18435	20.91	0
2	18531	21.01	0
2	18624	21.11	0
2	18717	21.21	0
2	18810	21.31	0
2	18903	21.41	0
2	18996	21.51	0
2	19089	21.61	0
2	19182	21.71	0
2	19275	21.81	0
2	19368	21.91	0
2	19464	22.01	0
2	19557	22.11	0
2	19650	22.21	0
2	19743	22.31	0
2	19836	22.41	0
2	19929	22.51	0
2	20022	22.61	0
2	20115	22.71	0
2	20208	22.81	0
2	20301	22.91	0
2	20397	23.01	0
2	20490	23.11	0
2	20583	23.21	0
2	20676	23.31	0
2	20769	23.41	0
2	20862	23.51	0
2	20955	23.61	0
2	21048	23.71	0
2	21141	23.81	0
2	21234	23.91	0
2	21330	24.01	0
2	21423	24.11	0
2	21516	24.21	0
2	21609	24.31	0
2	21702	24.41	0
2	21795	24.51	0
2	21888	24.61	0
2	21981	24.71	0
2	22074	24.81	0
2	22167	24.91	0
2	22263	25.01	0
2	22356	25.11	0
2	22449	25.21	0
2	22542	25.31	0
2	22635	25.41	0
2	22728	25.51	0
2	22821	25.61	0
2	22914	25.71	0
2	23007	25.81	0
2	23100	25.91	0
2	23196	26.01	0
2	23289	26.11	0
2	23382	26.21	0
2	23475	26.31	0
2	23568	26.41	0
2	23661	26.51	0
2	23754	26.61	0
2	23847	26.71	0
2	23940	26.81	0
2	24033	26.91	0
2	24129	27.01	0
2	24222	27.11	0
2	24315	27.21	0
2	24408	27.31	0
2	24501	27.41	0
2	24594	27.51	0
2	24687	27.61	0
2	24780	27.71	0
2	24873	27.81	0
2	24966	27.91	0
2	25062	28.01	0
2	25155	28.11	0
2	25248	28.21	0
2	25341	28.31	0
2	25434	28.41	0
2	25527	28.51	0
2	25620	28.61	0
2	25713	28.71	0
2	25806	28.81	0
2	25899	28.91	0
2	25995	29.01	0
2	26088	29.11	0
2	26181	29.21	0
2	26274	29.31	0
2	26367	29.41	0
2	26460	29.51	0
2	26553	29.61	0
2	26646	29.71	0
2	26739	29.81	0
2	26832	29.91	0
2	26928	30.01	0
2	27021	30.11	0
2	27114	30.21	0
2	27207	30.31	0
2	27300	30.41	0
2	27393	30.51	0
2	27486	30.61	0
2	27579	30.71	0
2	27672	30.81	0
2	27765	30.91	0
2	27861	31.01	0
2	27954	31.11	0
2	28047	31.21	0
2	28140	31.31	0
2	28233	31.41	0
2	28326	31.51	0
2	28419	31.61	0
2	28512	31.71	0
2	28605	31.81	0
2	28698	31.91	0
2	28794	32.01	0
2	28887	32.11	0
2	28980	32.21	0
2	29073	32.31	0
2	29166	32.41	0
2	29259	32.51	0
2	29352	32.61	0
2	29445	32.71	0
2	29538	32.81	0
2	29631	32.91	0
2	29727	33.01	0
2	29820	33.11	0
2	29913	33.21	0
2	30006	33.31	0
2	30099	33.41	0
2	30192	33.51	0
2	30285	33.61	0
2	30378	33.71	0
2	30471	33.81	0
2	30564	33.91	0
2	30660	34.01	0
2	30753	34.11	0
2	30846	34.21	0
2	30939	34.31	0
2	31032	34.41	0
2	31125	34.51	0
2	31218	34.61	0
2	31311	34.71	0
2	31404	34.81	0
2	31497	34.91	0
2	31593	35.01	0
2	31686	35.11	0
2	31779	35.21	0
2	31872	35.31	0
2	31965	35.41	0
2	32058	35.51	0
2	32151	35.61	0
2	32244	35.71	0
2	32337	35.81	0
2	32430	35.91	0
2	32526	36.01	0
2	32619	36.11	0
2	32712	36.21	0
2	32805	36.31	0
2	32898	36.41	0
2	32991	36.51	0
2	33084	36.61	0
2	33177	36.71	0
2	33270	36.81	0
2	33363	36.91	0
2	33459	37.01	0
2	33552	37.11	0
2	33645	37.21	0
2	33738	37.31	0
2	33831	37.41	0
2	33924	37.51	0
2	34017	37.61	0
2	34110	37.71	0
2	34203	37.81	0
2	34296	37.91	0
2	34392	38.01	0
2	34485	38.11	0
2	34578	38.21	0
2	34671	38.31	0
2	34764	38.41	0
2	34857	38.51	0
2	34950	38.61	0
2	35043	38.71	0
2	35136	38.81	0
2	35229	38.91	0
2	35325	39.01	0
2	35418	39.11	0
2	35511	39.21	0
2	35604	39.31	0
2	35697	39.41	0
2	35790	39.51	0
2	35883	39.61	0
2	35976	39.71	0
2	36069	39.81	0
2	36162	39.91	0
2	36258	40.01	0
2	36351	40.11	0
2	36444	40.21	0
2	36537	40.31	0
2	36630	40.41	0
2	36723	40.51	0
2	36816	40.61	0
2	36909	40.71	0
2	37002	40.81	0
2	37095	40.91	0
2	37191	41.01	0
2	37284	41.11	0
2	37377	41.21	0
2	37470	41.31	0
2	37563	41.41	0
2	37656	41.51	0
2	37749	41.61	0
2	37842	41.71	0
2	37935	41.81	0
2	38028	41.91	0
2	38124	42.01	0
2	38217	42.11	0
2	38310	42.21	0
2	38403	42.31	0
2	38496	42.41	0
2	38589	42.51	0
2	38682	42.61	0
2	38775	42.71	0
2	38868	42.81	0
2	38961	42.91	0
2	39057	43.01	0
2	39150	43.11	0
2	39243	43.21	0
2	39336	43.31	0
2	39429	43.41	0
2	39522	43.51	0
2	39615	43.61	0
2	39708	43.71	0
2	39801	43.81	0
2	39894	43.91	0
2	39990	44.01	0
2	40083	44.11	0
2	40176	44.21	0
2	40269	44.31	0
2	40362	44.41	0
2	40455	44.51	0
2	40548	44.61	0
2	40641	44.71	0
2	40734	44.81	0
2	40827	44.91	0
2	40923	45.01	0
2	41016	45.11	0
2	41109	45.21	0
2	41202	45.31	0
2	41295	45.41	0
2	41388	45.51	0
2	41481	45.61	0
2	41574	45.71	0
2	41710	45.81	0
2	41802	45.91	0
2	41897	46.01	0
2	41989	46.11	0
2	42081	46.21	0
2	42173	46.31	0
2	42265	46.41	0
2	42357	46.51	0
2	42449	46.61	0
2	42541	46.71	0
2	42633	46.81	0
2	42725	46.91	0
2	42820	47.01	0
2	42912	47.11	0
2	43004	47.21	0
2	43096	47.31	0
2	43188	47.41	0
2	43280	47.51	0
2	43372	47.61	0
2	43464	47.71	0
2	43556	47.81	0
2	43648	47.91	0
2	43743	48.01	0
2	43835	48.11	0
2	43927	48.21	0
2	44019	48.31	0
2	44111	48.41	0
2	44203	48.51	0
2	44295	48.61	0
2	44387	48.71	0
2	44479	48.81	0
2	44571	48.91	0
2	44666	49.01	0
2	44758	49.11	0
2	44850	49.21	0
2	44942	49.31	0
2	45034	49.41	0
2	45126	49.51	0
2	45218	49.61	0
2	45310	49.71	0
2	45402	49.81	0
2	45494	49.91	0
2	45589	50.01	0
2	45681	50.11	0
2	45773	50.21	0
2	45865	50.31	0
2	45957	50.41	0
2	46049	50.51	0
2	46141	50.61	0
2	46233	50.71	0
2	46325	50.81	0
2	46417	50.91	0
2	46512	51.01	0
2	46604	51.11	0
2	46696	51.21	0
2	46788	51.31	0
2	46880	51.41	0
2	46972	51.51	0
2	47064	51.61	0
2	47156	51.71	0
2	47248	51.81	0
2	47469	51.91	0
2	47563	52.01	0
2	47654	52.11	0
2	47745	52.21	0
2	47836	52.31	0
2	47927	52.41	0
2	48018	52.51	0
2	48109	52.61	0
2	48200	52.71	0
2	48291	52.81	0
2	48382	52.91	0
2	48476	53.01	0
2	48567	53.11	0
2	48658	53.21	0
2	48749	53.31	0
2	48840	53.41	0
2	48931	53.51	0
2	49022	53.61	0
2	49113	53.71	0
2	49204	53.81	0
2	49295	53.91	0
2	49389	54.01	0
2	49480	54.11	0
2	49571	54.21	0
2	49662	54.31	0
2	49753	54.41	0
2	49844	54.51	0
2	49935	54.61	0
2	50026	54.71	0
2	50117	54.81	0
2	50208	54.91	0
2	50302	55.01	0
2	50393	55.11	0
2	50484	55.21	0
2	50575	55.31	0
2	50666	55.41	0
2	50757	55.51	0
2	50848	55.61	0
2	50939	55.71	0
2	51030	55.81	0
2	51121	55.91	0
2	51215	56.01	0
2	51306	56.11	0
2	51397	56.21	0
2	51488	56.31	0
2	51579	56.41	0
2	51670	56.51	0
2	51761	56.61	0
2	51852	56.71	0
2	51943	56.81	0
2	52034	56.91	0
2	52128	57.01	0
2	52219	57.11	0
2	52310	57.21	0
2	52401	57.31	0
2	52492	57.41	0
2	52583	57.51	0
2	52674	57.61	0
2	52765	57.71	0
2	52856	57.81	0
2	52947	57.91	0
2	53041	58.01	0
2	53132	58.11	0
2	53223	58.21	0
2	53314	58.31	0
2	53405	58.41	0
2	53496	58.51	0
2	53587	58.61	0
2	53678	58.71	0
2	53769	58.81	0
2	53860	58.91	0
2	53954	59.01	0
2	54045	59.11	0
2	54136	59.21	0
2	54227	59.31	0
2	54318	59.41	0
2	54409	59.51	0
2	54500	59.61	0
2	54591	59.71	0
2	54682	59.81	0
2	54773	59.91	0
2	54867	60.01	0
2	54958	60.11	0
2	55049	60.21	0
2	55140	60.31	0
2	55231	60.41	0
2	55322	60.51	0
2	55413	60.61	0
2	55504	60.71	0
2	55595	60.81	0
2	55686	60.91	0
2	55780	61.01	0
2	55871	61.11	0
2	55962	61.21	0
2	56053	61.31	0
2	56144	61.41	0
2	56235	61.51	0
2	56326	61.61	0
2	56417	61.71	0
2	56508	61.81	0
2	56599	61.91	0
2	56693	62.01	0
2	56784	62.11	0
2	56875	62.21	0
2	56966	62.31	0
2	57057	62.41	0
2	57148	62.51	0
2	57239	62.61	0
2	57330	62.71	0
2	57421	62.81	0
2	57512	62.91	0
2	57606	63.01	0
2	57697	63.11	0
2	57788	63.21	0
2	57879	63.31	0
2	57970	63.41	0
2	58061	63.51	0
2	58152	63.61	0
2	58243	63.71	0
2	58334	63.81	0
2	58425	63.91	0
2	58519	64.01	0
2	58610	64.11	0
2	58701	64.21	0
2	58792	64.31	0
2	58883	64.41	0
2	58974	64.51	0
2	59065	64.61	0
2	59156	64.71	0
2	59247	64.81	0
2	59338	64.91	0
2	59432	65.01	0
2	59523	65.11	0
2	59614	65.21	0
2	59705	65.31	0
2	59796	65.41	0
2	59887	65.51	0
2	59978	65.61	0
2	60069	65.71	0
2	60160	65.81	0
2	60251	65.91	0
2	60345	66.01	0
2	60436	66.11	0
2	60527	66.21	0
2	60618	66.31	0
2	60709	66.41	0
2	60800	66.51	0
2	60891	66.61	0
2	60982	66.71	0
2	61073	66.81	0
2	61164	66.91	0
2	61258	67.01	0
2	61349	67.11	0
2	61440	67.21	0
2	61531	67.31	0
2	61622	67.41	0
2	61713	67.51	0
2	61804	67.61	0
2	61895	67.71	0
2	61986	67.81	0
2	62077	67.91	0
2	62171	68.01	0
2	62262	68.11	0
2	62353	68.21	0
2	62444	68.31	0
2	62535	68.41	0
2	62626	68.51	0
2	62717	68.61	0
2	62808	68.71	0
2	62899	68.81	0
2	62990	68.91	0
2	63084	69.01	0
2	63175	69.11	0
2	63266	69.21	0
2	63357	69.31	0
2	63448	69.41	0
2	63539	69.51	0
2	63630	69.61	0
2	63721	69.71	0
2	63812	69.81	0
2	63903	69.91	0
2	63997	70.01	0
2	64088	70.11	0
2	64179	70.21	0
2	64270	70.31	0
2	64361	70.41	0
2	64452	70.51	0
2	64543	70.61	0
2	64634	70.71	0
2	64725	70.81	0
2	64816	70.91	0
2	64910	71.01	0
2	65001	71.11	0
2	65092	71.21	0
2	65183	71.31	0
2	65274	71.41	0
2	65365	71.51	0
2	65456	71.61	0
2	65547	71.71	0
2	65638	71.81	0
2	65729	71.91	0
2	65823	72.01	0
2	65914	72.11	0
2	66005	72.21	0
2	66096	72.31	0
2	66187	72.41	0
2	66278	72.51	0
2	66369	72.61	0
2	66460	72.71	0
2	66551	72.81	0
2	66642	72.91	0
2	66736	73.01	0
2	66827	73.11	0
2	66918	73.21	0
2	67009	73.31	0
2	67100	73.41	0
2	67191	73.51	0
2	67282	73.61	0
2	67373	73.71	0
2	67464	73.81	0
2	67555	73.91	0
2	67649	74.01	0
2	67740	74.11	0
2	67831	74.21	0
2	67922	74.31	0
2	68013	74.41	0
2	68104	74.51	0
2	68195	74.61	0
2	68286	74.71	0
2	68377	74.81	0
2	68468	74.91	0
2	68562	75.01	0
2	68653	75.11	0
2	68744	75.21	0
2	68835	75.31	0
2	68926	75.41	0
2	69017	75.51	0
2	69108	75.61	0
2	69199	75.71	0
2	69290	75.81	0
2	69381	75.91	0
2	69475	76.01	0
2	69566	76.11	0
2	69657	76.21	0
2	69748	76.31	0
2	69839	76.41	0
2	69930	76.51	0
2	70021	76.61	0
2	70112	76.71	0
2	70203	76.81	0
2	70294	76.91	0
2	70388	77.01	0
2	70479	77.11	0
2	70570	77.21	0
2	70661	77.31	0
2	70752	77.41	0
2	70843	77.51	0
2	70934	77.61	0
2	71025	77.71	0
2	71116	77.81	0
2	71207	77.91	0
2	71301	78.01	0
2	71392	78.11	0
2	71483	78.21	0
2	71574	78.31	0
2	71665	78.41	0
2	71756	78.51	0
2	71847	78.61	0
2	71938	78.71	0
2	72029	78.81	0
2	72120	78.91	0
2	72214	79.01	0
2	72305	79.11	0
2	72396	79.21	0
2	72487	79.31	0
2	72578	79.41	0
2	72669	79.51	0
2	72760	79.61	0
2	72851	79.71	0
2	72942	79.81	0
2	73033	79.91	0
2	73127	80.01	0
2	73218	80.11	0
2	73309	80.21	0
2	73400	80.31	0
2	73491	80.41	0
2	73582	80.51	0
2	73673	80.61	0
2	73764	80.71	0
2	73855	80.81	0
2	73946	80.91	0
2	74040	81.01	0
2	74131	81.11	0
2	74222	81.21	0
2	74313	81.31	0
2	74404	81.41	0
2	74495	81.51	0
2	74586	81.61	0
2	74677	81.71	0
2	74768	81.81	0
2	74859	81.91	0
2	74953	82.01	0
2	75044	82.11	0
2	75135	82.21	0
2	75226	82.31	0
2	75317	82.41	0
2	75408	82.51	0
2	75499	82.61	0
2	75590	82.71	0
2	75681	82.81	0
2	75772	82.91	0
2	75866	83.01	0
2	75957	83.11	0
2	76048	83.21	0
2	76139	83.31	0
2	76230	83.41	0
2	76321	83.51	0
2	76412	83.61	0
2	76503	83.71	0
2	76594	83.81	0
2	76685	83.91	0
2	76779	84.01	0
2	76870	84.11	0
2	76961	84.21	0
2	77052	84.31	0
2	77143	84.41	0
2	77234	84.51	0
2	77325	84.61	0
2	77416	84.71	0
2	77507	84.81	0
2	77598	84.91	0
2	77692	85.01	0
2	77783	85.11	0
2	77874	85.21	0
2	77965	85.31	0
2	78056	85.41	0
2	78147	85.51	0
2	78238	85.61	0
2	78329	85.71	0
2	78420	85.81	0
2	78511	85.91	0
2	78605	86.01	0
2	78696	86.11	0
2	78787	86.21	0
2	78878	86.31	0
2	78969	86.41	0
2	79060	86.51	0
2	79151	86.61	0
2	79242	86.71	0
2	79333	86.81	0
2	79424	86.91	0
2	79518	87.01	0
2	79609	87.11	0
2	79700	87.21	0
2	79791	87.31	0
2	79882	87.41	0
2	79973	87.51	0
2	80064	87.61	0
2	80155	87.71	0
2	80246	87.81	0
2	80337	87.91	0
2	80431	88.01	0
2	80522	88.11	0
2	80613	88.21	0
2	80704	88.31	0
2	80795	88.41	0
2	80886	88.51	0
2	80977	88.61	0
2	81068	88.71	0
2	81159	88.81	0
2	81250	88.91	0
2	81344	89.01	0
2	81435	89.11	0
2	81526	89.21	0
2	81617	89.31	0
2	81708	89.41	0
2	81799	89.51	0
2	81890	89.61	0
2	81981	89.71	0
2	82072	89.81	0
2	82163	89.91	0
2	82257	90.01	0
2	82348	90.11	0
2	82439	90.21	0
2	82530	90.31	0
2	82621	90.41	0
2	82712	90.51	0
2	82803	90.61	0
2	82894	90.71	0
2	82985	90.81	0
2	83076	90.91	0
2	83170	91.01	0
2	83261	91.11	0
2	83352	91.21	0
2	83443	91.31	0
2	83534	91.41	0
2	83625	91.51	0
2	83716	91.61	0
2	83807	91.71	0
2	83898	91.81	0
2	83989	91.91	0
2	84083	92.01	0
2	84174	92.11	0
2	84265	92.21	0
2	84356	92.31	0
2	84447	92.41	0
2	84538	92.51	0
2	84629	92.61	0
2	84720	92.71	0
2	84811	92.81	0
2	84902	92.91	0
2	84996	93.01	0
2	85087	93.11	0
2	85178	93.21	0
2	85269	93.31	0
2	85360	93.41	0
2	85451	93.51	0
2	85542	93.61	0
2	85633	93.71	0
2	85724	93.81	0
2	85815	93.91	0
2	85909	94.01	0
2	86000	94.11	0
2	86091	94.21	0
2	86182	94.31	0
2	86273	94.41	0
2	86364	94.51	0
2	86455	94.61	0
2	86546	94.71	0
2	86637	94.81	0
2	86728	94.91	0
2	86822	95.01	0
2	86913	95.11	0
2	87004	95.21	0
2	87095	95.31	0
2	87186	95.41	0
2	87277	95.51	0
2	87368	95.61	0
2	87459	95.71	0
2	87550	95.81	0
2	87641	95.91	0
2	87735	96.01	0
2	87826	96.11	0
2	87917	96.21	0
2	88008	96.31	0
2	88099	96.41	0
2	88190	96.51	0
2	88281	96.61	0
2	88372	96.71	0
2	88463	96.81	0
2	88554	96.91	0
2	88648	97.01	0
2	88739	97.11	0
2	88830	97.21	0
2	88921	97.31	0
2	89012	97.41	0
2	89103	97.51	0
2	89194	97.61	0
2	89285	97.71	0
2	89376	97.81	0
2	89467	97.91	0
2	89561	98.01	0
2	89652	98.11	0
2	89743	98.21	0
2	89834	98.31	0
2	89925	98.41	0
2	90016	98.51	0
2	90107	98.61	0
2	90198	98.71	0
2	90289	98.81	0
2	90380	98.91	0
2	90474	99.01	0
2	90565	99.11	0
2	90656	99.21	0
2	90747	99.31	0
2	90838	99.41	0
2	90929	99.51	0
2	91020	99.61	0
2	91111	99.71	0
2	91202	99.81	0
2	91293	99.91	0
3	113	1.11	0.000179096
3	204	1.21	0.000340852
3	295	1.31	0.000467435
3	386	1.41	0.000562893
3	477	1.51	0.000631106
3	568	1.61	0.000675745
3	659	1.71	0.000700245
3	750	1.81	0.000707784
3	841	1.91	0.000701273
3	935	2.01	0.000683354
3	1026	2.11	0.000656398
3	1117	2.21	0.000622512
3	1208	2.31	0.000583548
3	1299	2.41	0.000541117
3	1390	2.51	0.000496604
3	1481	2.61	0.000451181
3	1572	2.71	0.000405825
3	1663	2.81	0.00036134
3	1754	2.91	0.000318365
3	1848	3.01	0.0002774
3	1939	3.11	0.00023882
3	2030	3.21	0.000202887
3	2121	3.31	0.00016977
3	2212	3.41	0.000139558
3	2303	3.51	0.000112271
3	2394	3.61	8.78717e-05
3	2485	3.71	6.628e-05
3	2576	3.81	4.73785e-05
3	2667	3.91	3.1023e-05
3	2761	4.01	1.70493e-05
3	2852	4.11	5.28023e-06
3	2943	4.21	-4.46922e-06
3	3034	4.31	-1.2387e-05
3	3125	4.41	-1.86602e-05
3	3216	4.51	-2.34717e-05
3	3307	4.61	-2.69978e-05
3	3398	4.71	-2.94062e-05
3	3489	4.81	-3.08545e-05
3	3580	4.91	-3.14892e-05
3	3674	5.01	-3.14451e-05
3	3765	5.11	-3.0845e-05
3	3856	5.21	-2.97994e-05
3	3947	5.31	-2.84072e-05
3	4038	5.41	-2.67556e-05
3	4129	5.51	-2.49208e-05
3	4220	5.61	-2.29687e-05
3	4311	5.71	-2.09553e-05
3	4402	5.81	-1.89277e-05
3	4493	5.91	-1.6925e-05
3	4587	6.01	-1.49784e-05
3	4678	6.11	-1.31129e-05
3	4769	6.21	-1.13474e-05
3	4860	6.31	-9.69553e-06
3	4951	6.41	-8.16651e-06
3	5042	6.51	-6.76571e-06
3	5133	6.61	-5.49522e-06
3	5224	6.71	-4.35441e-06
3	5315	6.81	-3.34045e-06
3	5406	6.91	-2.44874e-06
3	5500	7.01	-1.6733e-06
3	5591	7.11	-1.00716e-06
3	5682	7.21	-4.42628e-07
3	5773	7.31	2.84224e-08
3	5864	7.41	4.14339e-07
3	5955	7.51	7.23492e-07
3	6046	7.61	9.6413e-07
3	6137	7.71	1.14424e-06
3	6228	7.81	1.27148e-06
3	6319	7.91	1.35305e-06
3	6413	8.01	1.3957e-06
3	6504	8.11	1.40565e-06
3	6595	8.21	1.3886e-06
3	6686	8.31	1.34971e-06
3	6777	8.41	1.2936e-06
3	6868	8.51	1.22437e-06
3	6959	8.61	1.14561e-06
3	7050	8.71	1.06046e-06
3	7141	8.81	9.71582e-07
3	7232	8.91	8.81246e-07
3	7326	9.01	7.91334e-07
3	7417	9.11	7.03381e-07
3	7508	9.21	6.18613e-07
3	7599	9.31	5.37979e-07
3	7690	9.41	4.62183e-07
3	7781	9.51	3.91714e-07
3	7872	9.61	3.26878e-07
3	7963	9.71	2.67827e-07
3	8054	9.81	2.14581e-07
3	8145	9.91	1.67052e-07
3	8268	10.01	1.25066e-07
3	8361	10.11	8.83794e-08
3	8454	10.21	5.66978e-08
3	8547	10.31	2.96922e-08
3	8640	10.41	7.00453e-09
3	8733	10.51	-1.17325e-08
3	8826	10.61	-2.68933e-08
3	8919	10.71	-3.88482e-08
3	9012	10.81	-4.79581e-08
3	9105	10.91	-5.45704e-08
3	9201	11.01	-5.90177e-08
3	9294	11.11	-6.16069e-08
3	9387	11.21	-6.26265e-08
3	9480	11.31	-6.23395e-08
3	9573	11.41	-6.09859e-08
3	9666	11.51	-5.87811e-08
3	9759	11.61	-5.59183e-08
3	9852	11.71	-5.25674e-08
3	9945	11.81	-4.88761e-08
3	10038	11.91	-4.4971e-08
3	10134	12.01	-4.09599e-08
3	10227	12.11	-3.69354e-08
3	10320	12.21	-3.29713e-08
3	10413	12.31	-2.9128e-08
3	10506	12.41	-2.54531e-08
3	10599	12.51	-2.19821e-08
3	10692	12.61	-1.87399e-08
3	10785	12.71	-1.57428e-08
3	10878	12.81	-1.30029e-08
3	10971	12.91	-1.05217e-08
3	11067	13.01	-8.29772e-09
3	11160	13.11	-6.32454e-09
3	11253	13.21	-4.59224e-09
3	11346	13.31	-3.08802e-09
3	11439	13.41	-1.79838e-09
3	11532	13.51	-7.08411e-10
3	11625	13.61	1.98241e-10
3	11718	13.71	9.37916e-10
3	11811	13.81	1.52767e-09
3	11904	13.91	1.98384e-09
3	12000	14.01	2.32276e-09
3	12093	14.11	2.55937e-09
3	12186	14.21	2.70788e-09
3	12279	14.31	2.78249e-09
3	12372	14.41	2.79243e-09
3	12465	14.51	2.7498e-09
3	12558	14.61	2.66525e-09
3	12651	14.71	2.54872e-09
3	12744	14.81	2.40803e-09
3	12837	14.91	2.24887e-09
3	12933	15.01	2.07763e-09
3	13026	15.11	1.89999e-09
3	13119	15.21	1.72236e-09
3	13212	15.31	1.54472e-09
3	13305	15.41	1.37064e-09
3	13398	15.51	1.20295e-09
3	13491	15.61	1.04379e-09
3	13584	15.71	8.94573e-10
3	13677	15.81	7.56017e-10
3	13770	15.91	6.29541e-10
3	13866	16.01	5.13012e-10
3	13959	16.11	4.09273e-10
3	14052	16.21	3.16902e-10
3	14145	16.31	2.3519e-10
3	14238	16.41	1.63425e-10
3	14331	16.51	1.02318e-10
3	14424	16.61	4.9738e-11
3	14517	16.71	5.68434e-12
3	14610	16.81	-3.05533e-11
3	14703	16.91	-5.8975e-11
3	14799	17.01	-8.10019e-11
3	14892	17.11	-9.80549e-11
3	14985	17.21	-1.11555e-10
3	15078	17.31	-1.18661e-10
3	15171	17.41	-1.23634e-10
3	15264	17.51	-1.23634e-10
3	15357	17.61	-1.23634e-10
3	15450	17.71	-1.21503e-10
3	15543	17.81	-1.14397e-10
3	15636	17.91	-1.07292e-10
3	15732	18.01	-1.00187e-10
3	15825	18.11	-9.30811e-11
3	15918	18.21	-8.59757e-11
3	16011	18.31	-7.88702e-11
3	16104	18.41	-7.17648e-11
3	16197	18.51	-6.46594e-11
3	16290	18.61	-5.7554e-11
3	16383	18.71	-5.04485e-11
3	16476	18.81	-4.33431e-11
3	16569	18.91	-3.62377e-11
3	16665	19.01	-2.91323e-11
3	16758	19.11	-2.20268e-11
3	16851	19.21	-1.7053e-11
3	16944	19.31	-1.49214e-11
3	17037	19.41	-1.35003e-11
3	17130	19.51	-1.27898e-11
3	17223	19.61	-1.13687e-11
3	17316	19.71	-9.9476e-12
3	17409	19.81	-9.23706e-12
3	17502	19.91	-8.52651e-12
3	17598	20.01	-7.81597e-12
3	17691	20.11	-7.10543e-12
3	17784	20.21	-6.39488e-12
3	17877	20.31	-5.68434e-12
3	17970	20.41	-4.9738e-12
3	18063	20.51	-4.26326e-12
3	18156	20.61	-4.26326e-12
3	18249	20.71	-3.55271e-12
3	18342	20.81	-3.55271e-12
3	18435	20.91	-2.84217e-12
3	18531	21.01	-2.84217e-12
3	18624	21.11	-2.84217e-12
3	18717	21.21	-2.13163e-12
3	18810	21.31	-2.13163e-12
3	18903	21.41	-2.13163e-12
3	18996	21.51	-1.42109e-12
3	19089	21.61	-1.42109e-12
3	19182	21.71	-1.42109e-12
3	19275	21.81	-1.42109e-12
3	19368	21.91	-1.42109e-12
3	19464	22.01	-7.10543e-13
3	19557	22.11	-7.10543e-13
3	19650	22.21	-7.10543e-13
3	19743	22.31	-7.10543e-13
3	19836	22.41	-7.10543e-13
3	19929	22.51	-7.10543e-13
3	20022	22.61	-7.10543e-13
3	20115	22.71	-7.10543e-13
3	20208	22.81	-7.10543e-13
3	20301	22.91	-7.10543e-13
3	20397	23.01	0
3	20490	23.11	0
3	20583	23.21	0
3	20676	23.31	0
3	20769	23.41	0
3	20862	23.51	0
3	20955	23.61	0
3	21048	23.71	0
3	21141	23.81	0
3	21234	23.91	0
3	21330	24.01	0
3	21423	24.11	0
3	21516	24.21	0
3	21609	24.31	0
3	21702	24.41	0
3	21795	24.51	0
3	21888	24.61	0
3	21981	24.71	0
3	22074	24.81	0
3	22167	24.91	0
3	22263	25.01	0
3	22356	25.11	0
3	22449	25.21	0
3	22542	25.31	0
3	22635	25.41	0
3	22728	25.51	0
3	22821	25.61	0
3	22914	25.71	0
3	23007	25.81	0
3	23100	25.91	0
3	23196	26.01	0
3	23289	26.11	0
3	23382	26.21	0
3	23475	26.31	0
3	23568	26.41	0
3	23661	26.51	0
3	23754	26.61	0
3	23847	26.71	0
3	23940	26.81	0
3	24033	26.91	0
3	24129	27.01	0
3	24222	27.11	0
3	24315	27.21	0
3	24408	27.31	0
3	24501	27.41	0
3	24594	27.51	0
3	24687	27.61	0
3	24780	27.71	0
3	24873	27.81	0
3	24966	27.91	0
3	25062	28.01	0
3	25155	28.11	0
3	25248	28.21	0
3	25341	28.31	0
3	25434	28.41	0
3	25527	28.51	0
3	25620	28.61	0
3	25713	28.71	0
3	25806	28.81	0
3	25899	28.91	0
3	25995	29.01	0
3	26088	29.11	0
3	26181	29.21	0
3	26274	29.31	0
3	26367	29.41	0
3	26460	29.51	0
3	26553	29.61	0
3	26646	29.71	0
3	26739	29.81	0
3	26832	29.91	0
3	26928	30.01	0
3	27021	30.11	0
3	27114	30.21	0
3	27207	30.31	0
3	27300	30.41	0
3	27393	30.51	0
3	27486	30.61	0
3	27579	30.71	0
3	27672	30.81	0
3	27765	30.91	0
3	27861	31.01	0
3	27954	31.11	0
3	28047	31.21	0
3	28140	31.31	0
3	28233	31.41	0
3	28326	31.51	0
3	28419	31.61	0
3	28512	31.71	0
3	28605	31.81	0
3	28698	31.91	0
3	28794	32.01	0
3	28887	32.11	0
3	28980	32.21	0
3	29073	32.31	0
3	29166	32.41	0
3	29259	32.51	0
3	29352	32.61	0
3	29445	32.71	0
3	29538	32.81	0
3	29631	32.91	0
3	29727	33.01	0
3	29820	33.11	0
3	29913	33.21	0
3	30006	33.31	0
3	30099	33.41	0
3	30192	33.51	0
3	30285	33.61	0
3	30378	33.71	0
3	30471	33.81	0
3	30564	33.91	0
3	30660	34.01	0
3	30753	34.11	0
3	30846	34.21	0
3	30939	34.31	0
3	31032	34.41	0
3	31125	34.51	0
3	31218	34.61	0
3	31311	34.71	0
3	31404	34.81	0
3	31497	34.91	0
3	31593	35.01	0
3	31686	35.11	0
3	31779	35.21	0
3	31872	35.31	0
3	31965	35.41	0
3	32058	35.51	0
3	32151	35.61	0
3	32244	35.71	0
3	32337	35.81	0
3	32430	35.91	0
3	32526	36.01	0
3	32619	36.11	0
3	32712	36.21	0
3	32805	36.31	0
3	32898	36.41	0
3	32991	36.51	0
3	33084	36.61	0
3	33177	36.71	0
3	33270	36.81	0
3	33363	36.91	0
3	33459	37.01	0
3	33552	37.11	0
3	33645	37.21	0
3	33738	37.31	0
3	33831	37.41	0
3	33924	37.51	0
3	34017	37.61	0
3	34110	37.71	0
3	34203	37.81	0
3	34296	37.91	0
3	34392	38.01	0
3	34485	38.11	0
3	34578	38.21	0
3	34671	38.31	0
3	34764	38.41	0
3	34857	38.51	0
3	34950	38.61	0
3	35043	38.71	0
3	35136	38.81	0
3	35229	38.91	0
3	35325	39.01	0
3	35418	39.11	0
3	35511	39.21	0
3	35604	39.31	0
3	35697	39.41	0
3	35790	39.51	0
3	35883	39.61	0
3	35976	39.71	0
3	36069	39.81	0
3	36162	39.91	0
3	36258	40.01	0
3	36351	40.11	0
3	36444	40.21	0
3	36537	40.31	0
3	36630	40.41	0
3	36723	40.51	0
3	36816	40.61	0
3	36909	40.71	0
3	37002	40.81	0
3	37095	40.91	0
3	37191	41.01	0
3	37284	41.11	0
3	37377	41.21	0
3	37470	41.31	0
3	37563	41.41	0
3	37656	41.51	0
3	37749	41.61	0
3	37842	41.71	0
3	37935	41.81	0
3	38028	41.91	0
3	38124	42.01	0
3	38217	42.11	0
3	38310	42.21	0
3	38403	42.31	0
3	38496	42.41	0
3	38589	42.51	0
3	38682	42.61	0
3	38775	42.71	0
3	38868	42.81	0
3	38961	42.91	0
3	39057	43.01	0
3	39150	43.11	0
3	39243	43.21	0
3	39336	43.31	0
3	39429	43.41	0
3	39522	43.51	0
3	39615	43.61	0
3	39708	43.71	0
3	39801	43.81	0
3	39894	43.91	0
3	39990	44.01	0
3	40083	44.11	0
3	40176	44.21	0
3	40269	44.31	0
3	40362	44.41	0
3	40455	44.51	0
3	40548	44.61	0
3	40641	44.71	0
3	40734	44.81	0
3	40827	44.91	0
3	40923	45.01	0
3	41016	45.11	0
3	41109	45.21	0
3	41202	45.31	0
3	41295	45.41	0
3	41388	45.51	0
3	41481	45.61	0
3	41574	45.71	0
3	41710	45.81	0
3	41802	45.91	0
3	41897	46.01	0
3	41989	46.11	0
3	42081	46.21	0
3	42173	46.31	0
3	42265	46.41	0
3	42357	46.51	0
3	42449	46.61	0
3	42541	46.71	0
3	42633	46.81	0
3	42725	46.91	0
3	42820	47.01	0
3	42912	47.11	0
3	43004	47.21	0
3	43096	47.31	0
3	43188	47.41	0
3	43280	47.51	0
3	43372	47.61	0
3	43464	47.71	0
3	43556	47.81	0
3	43648	47.91	0
3	43743	48.01	0
3	43835	48.11	0
3	43927	48.21	0
3	44019	48.31	0
3	44111	48.41	0
3	44203	48.51	0
3	44295	48.61	0
3	44387	48.71	0
3	44479	48.81	0
3	44571	48.91	0
3	44666	49.01	0
3	44758	49.11	0
3	44850	49.21	0
3	44942	49.31	0
3	45034	49.41	0
3	45126	49.51	0
3	45218	49.61	0
3	45310	49.71	0
3	45402	49.81	0
3	45494	49.91	0
3	45589	50.01	0
3	45681	50.11	0
3	45773	50.21	0
3	45865	50.31	0
3	45957	50.41	0
3	46049	50.51	0
3	46141	50.61	0
3	46233	50.71	0
3	46325	50.81	0
3	46417	50.91	0
3	46512	51.01	0
3	46604	51.11	0
3	46696	51.21	0
3	46788	51.31	0
3	46880	51.41	0
3	46972	51.51	0
3	47064	51.61	0
3	47156	51.71	0
3	47248	51.81	0
3	47469	51.91	0
3	47563	52.01	0
3	47654	52.11	0
3	47745	52.21	0
3	47836	52.31	0
3	47927	52.41	0
3	48018	52.51	0
3	48109	52.61	0
3	48200	52.71	0
3	48291	52.81	0
3	48382	52.91	0
3	48476	53.01	0
3	48567	53.11	0
3	48658	53.21	0
3	48749	53.31	0
3	48840	53.41	0
3	48931	53.51	0
3	49022	53.61	0
3	49113	53.71	0
3	49204	53.81	0
3	49295	53.91	0
3	49389	54.01	0
3	49480	54.11	0
3	49571	54.21	0
3	49662	54.31	0
3	49753	54.41	0
3	49844	54.51	0
3	49935	54.61	0
3	50026	54.71	0
3	50117	54.81	0
3	50208	54.91	0
3	50302	55.01	0
3	50393	55.11	0
3	50484	55.21	0
3	50575	55.31	0
3	50666	55.41	0
3	50757	55.51	0
3	50848	55.61	0
3	50939	55.71	0
3	51030	55.81	0
3	51121	55.91	0
3	51215	56.01	0
3	51306	56.11	0
3	51397	56.21	0
3	51488	56.31	0
3	51579	56.41	0
3	51670	56.51	0
3	51761	56.61	0
3	51852	56.71	0
3	51943	56.81	0
3	52034	56.91	0
3	52128	57.01	0
3	52219	57.11	0
3	52310	57.21	0
3	52401	57.31	0
3	52492	57.41	0
3	52583	57.51	0
3	52674	57.61	0
3	52765	57.71	0
3	52856	57.81	0
3	52947	57.91	0
3	53041	58.01	0
3	53132	58.11	0
3	53223	58.21	0
3	53314	58.31	0
3	53405	58.41	0
3	53496	58.51	0
3	53587	58.61	0
3	53678	58.71	0
3	53769	58.81	0
3	53860	58.91	0
3	53954	59.01	0
3	54045	59.11	0
3	54136	59.21	0
3	54227	59.31	0
3	54318	59.41	0
3	54409	59.51	0
3	54500	59.61	0
3	54591	59.71	0
3	54682	59.81	0
3	54773	59.91	0
3	54867	60.01	0
3	54958	60.11	0
3	55049	60.21	0
3	55140	60.31	0
3	55231	60.41	0
3	55322	60.51	0
3	55413	60.61	0
3	55504	60.71	0
3	55595	60.81	0
3	55686	60.91	0
3	55780	61.01	0
3	55871	61.11	0
3	55962	61.21	0
3	56053	61.31	0
3	56144	61.41	0
3	56235	61.51	0
3	56326	61.61	0
3	56417	61.71	0
3	56508	61.81	0
3	56599	61.91	0
3	56693	62.01	0
3	56784	62.11	0
3	56875	62.21	0
3	56966	62.31	0
3	57057	62.41	0
3	57148	62.51	0
3	57239	62.61	0
3	57330	62.71	0
3	57421	62.81	0
3	57512	62.91	0
3	57606	63.01	0
3	57697	63.11	0
3	57788	63.21	0
3	57879	63.31	0
3	57970	63.41	0
3	58061	63.51	0
3	58152	63.61	0
3	58243	63.71	0
3	58334	63.81	0
3	58425	63.91	0
3	58519	64.01	0
3	58610	64.11	0
3	58701	64.21	0
3	58792	64.31	0
3	58883	64.41	0
3	58974	64.51	0
3	59065	64.61	0
3	59156	64.71	0
3	59247	64.81	0
3	59338	64.91	0
3	59432	65.01	0
3	59523	65.11	0
3	59614	65.21	0
3	59705	65.31	0
3	59796	65.41	0
3	59887	65.51	0
3	59978	65.61	0
3	60069	65.71	0
3	60160	65.81	0
3	60251	65.91	0
3	60345	66.01	0
3	60436	66.11	0
3	60527	66.21	0
3	60618	66.31	0
3	60709	66.41	0
3	60800	66.51	0
3	60891	66.61	0
3	60982	66.71	0
3	61073	66.81	0
3	61164	66.91	0
3	61258	67.01	0
3	61349	67.11	0
3	61440	67.21	0
3	61531	67.31	0
3	61622	67.41	0
3	61713	67.51	0
3	61804	67.61	0
3	61895	67.71	0
3	61986	67.81	0
3	62077	67.91	0
3	62171	68.01	0
3	62262	68.11	0
3	62353	68.21	0
3	62444	68.31	0
3	62535	68.41	0
3	62626	68.51	0
3	62717	68.61	0
3	62808	68.71	0
3	62899	68.81	0
3	62990	68.91	0
3	63084	69.01	0
3	63175	69.11	0
3	63266	69.21	0
3	63357	69.31	0
3	63448	69.41	0
3	63539	69.51	0
3	63630	69.61	0
3	63721	69.71	0
3	63812	69.81	0
3	63903	69.91	0
3	63997	70.01	0
3	64088	70.11	0
3	64179	70.21	0
3	64270	70.31	0
3	64361	70.41	0
3	64452	70.51	0
3	64543	70.61	0
3	64634	70.71	0
3	64725	70.81	0
3	64816	70.91	0
3	64910	71.01	0
3	65001	71.11	0
3	65092	71.21	0
3	65183	71.31	0
3	65274	71.41	0
3	65365	71.51	0
3	65456	71.61	0
3	65547	71.71	0
3	65638	71.81	0
3	65729	71.91	0
3	65823	72.01	0
3	65914	72.11	0
3	66005	72.21	0
3	66096	72.31	0
3	66187	72.41	0
3	66278	72.51	0
3	66369	72.61	0
3	66460	72.71	0
3	66551	72.81	0
3	66642	72.91	0
3	66736	73.01	0
3	66827	73.11	0
3	66918	73.21	0
3	67009	73.31	0
3	67100	73.41	0
3	67191	73.51	0
3	67282	73.61	0
3	67373	73.71	0
3	67464	73.81	0
3	67555	73.91	0
3	67649	74.01	0
3	67740	74.11	0
3	67831	74.21	0
3	67922	74.31	0
3	68013	74.41	0
3	68104	74.51	0
3	68195	74.61	0
3	68286	74.71	0
3	68377	74.81	0
3	68468	74.91	0
3	68562	75.01	0
3	68653	75.11	0
3	68744	75.21	0
3	68835	75.31	0
3	68926	75.41	0
3	69017	75.51	0
3	69108	75.61	0
3	69199	75.71	0
3	69290	75.81	0
3	69381	75.91	0
3	69475	76.01	0
3	69566	76.11	0
3	69657	76.21	0
3	69748	76.31	0
3	69839	76.41	0
3	69930	76.51	0
3	70021	76.61	0
3	70112	76.71	0
3	70203	76.81	0
3	70294	76.91	0
3	70388	77.01	0
3	70479	77.11	0
3	70570	77.21	0
3	70661	77.31	0
3	70752	77.41	0
3	70843	77.51	0
3	70934	77.61	0
3	71025	77.71	0
3	71116	77.81	0
3	71207	77.91	0
3	71301	78.01	0
3	71392	78.11	0
3	71483	78.21	0
3	71574	78.31	0
3	71665	78.41	0
3	71756	78.51	0
3	71847	78.61	0
3	71938	78.71	0
3	72029	78.81	0
3	72120	78.91	0
3	72214	79.01	0
3	72305	79.11	0
3	72396	79.21	0
3	72487	79.31	0
3	72578	79.41	0
3	72669	79.51	0
3	72760	79.61	0
3	72851	79.71	0
3	72942	79.81	0
3	73033	79.91	0
3	73127	80.01	0
3	73218	80.11	0
3	73309	80.21	0
3	73400	80.31	0
3	73491	80.41	0
3	73582	80.51	0
3	73673	80.61	0
3	73764	80.71	0
3	73855	80.81	0
3	73946	80.91	0
3	74040	81.01	0
3	74131	81.11	0
3	74222	81.21	0
3	74313	81.31	0
3	74404	81.41	0
3	74495	81.51	0
3	74586	81.61	0
3	74677	81.71	0
3	74768	81.81	0
3	74859	81.91	0
3	74953	82.01	0
3	75044	82.11	0
3	75135	82.21	0
3	75226	82.31	0
3	75317	82.41	0
3	75408	82.51	0
3	75499	82.61	0
3	75590	82.71	0
3	75681	82.81	0
3	75772	82.91	0
3	75866	83.01	0
3	75957	83.11	0
3	76048	83.21	0
3	76139	83.31	0
3	76230	83.41	0
3	76321	83.51	0
3	76412	83.61	0
3	76503	83.71	0
3	76594	83.81	0
3	76685	83.91	0
3	76779	84.01	0
3	76870	84.11	0
3	76961	84.21	0
3	77052	84.31	0
3	77143	84.41	0
3	77234	84.51	0
3	77325	84.61	0
3	77416	84.71	0
3	77507	84.81	0
3	77598	84.91	0
3	77692	85.01	0
3	77783	85.11	0
3	77874	85.21	0
3	77965	85.31	0
3	78056	85.41	0
3	78147	85.51	0
3	78238	85.61	0
3	78329	85.71	0
3	78420	85.81	0
3	78511	85.91	0
3	78605	86.01	0
3	78696	86.11	0
3	78787	86.21	0
3	78878	86.31	0
3	78969	86.41	0
3	79060	86.51	0
3	79151	86.61	0
3	79242	86.71	0
3	79333	86.81	0
3	79424	86.91	0
3	79518	87.01	0
3	79609	87.11	0
3	79700	87.21	0
3	79791	87.31	0
3	79882	87.41	0
3	79973	87.51	0
3	80064	87.61	0
3	80155	87.71	0
3	80246	87.81	0
3	80337	87.91	0
3	80431	88.01	0
3	80522	88.11	0
3	80613	88.21	0
3	80704	88.31	0
3	80795	88.41	0
3	80886	88.51	0
3	80977	88.61	0
3	81068	88.71	0
3	81159	88.81	0
3	81250	88.91	0
3	81344	89.01	0
3	81435	89.11	0
3	81526	89.21	0
3	81617	89.31	0
3	81708	89.41	0
3	81799	89.51	0
3	81890	89.61	0
3	81981	89.71	0
3	82072	89.81	0
3	82163	89.91	0
3	82257	90.01	0
3	82348	90.11	0
3	82439	90.21	0
3	82530	90.31	0
3	82621	90.41	0
3	82712	90.51	0
3	82803	90.61	0
3	82894	90.71	0
3	82985	90.81	0
3	83076	90.91	0
3	83170	91.01	0
3	83261	91.11	0
3	83352	91.21	0
3	83443	91.31	0
3	83534	91.41	0
3	83625	91.51	0
3	83716	91.61	0
3	83807	91.71	0
3	83898	91.81	0
3	83989	91.91	0
3	84083	92.01	0
3	84174	92.11	0
3	84265	92.21	0
3	84356	92.31	0
3	84447	92.41	0
3	84538	92.51	0
3	84629	92.61	0
3	84720	92.71	0
3	84811	92.81	0
3	84902	92.91	0
3	84996	93.01	0
3	85087	93.11	0
3	85178	93.21	0
3	85269	93.31	0
3	85360	93.41	0
3	85451	93.51	0
3	85542	93.61	0
3	85633	93.71	0
3	85724	93.81	0
3	85815	93.91	0
3	85909	94.01	0
3	86000	94.11	0
3	86091	94.21	0
3	86182	94.31	0
3	86273	94.41	0
3	86364	94.51	0
3	86455	94.61	0
3	86546	94.71	0
3	86637	94.81	0
3	86728	94.91	0
3	86822	95.01	0
3	86913	95.11	0
3	87004	95.21	0
3	87095	95.31	0
3	87186	95.41	0
3	87277	95.51	0
3	87368	95.61	0
3	87459	95.71	0
3	87550	95.81	0
3	87641	95.91	0
3	87735	96.01	0
3	87826	96.11	0
3	87917	96.21	0
3	88008	96.31	0
3	88099	96.41	0
3	88190	96.51	0
3	88281	96.61	0
3	88372	96.71	0
3	88463	96.81	0
3	88554	96.91	0
3	88648	97.01	0
3	88739	97.11	0
3	88830	97.21	0
3	88921	97.31	0
3	89012	97.41	0
3	89103	97.51	0
3	89194	97.61	0
3	89285	97.71	0
3	89376	97.81	0
3	89467	97.91	0
3	89561	98.01	0
3	89652	98.11	0
3	89743	98.21	0
3	89834	98.31	0
3	89925	98.41	0
3	90016	98.51	0
3	90107	98.61	0
3	90198	98.71	0
3	90289	98.81	0
3	90380	98.91	0
3	90474	99.01	0
3	90565	99.11	0
3	90656	99.21	0
3	90747	99.31	0
3	90838	99.41	0
3	90929	99.51	0
3	91020	99.61	0
3	91111	99.71	0
3	91202	99.81	0
3	91293	99.91	0
4	113	1.11	0.00109259
4	204	1.21	0.00106709
4	295	1.31	0.00102704
4	386	1.41	0.000975759
4	477	1.51	0.00091619
4	568	1.61	0.000850891
4	659	1.71	0.000782061
4	750	1.81	0.00071157
4	841	1.91	0.00064098
4	935	2.01	0.000571575
4	1026	2.11	0.000504387
4	1117	2.21	0.000440223
4	1208	2.31	0.000379691
4	1299	2.41	0.000323223
4	1390	2.51	0.000271102
4	1481	2.61	0.000223482
4	1572	2.71	0.000180409
4	1663	2.81	0.000141839
4	1754	2.91	0.000107653
4	1848	3.01	7.76787e-05
4	1939	3.11	5.16957e-05
4	2030	3.21	2.94534e-05
4	2121	3.31	1.06787e-05
4	2212	3.41	-4.91459e-06
4	2303	3.51	-1.76184e-05
4	2394	3.61	-2.7724e-05
4	2485	3.71	-3.55168e-05
4	2576	3.81	-4.12726e-05
4	2667	3.91	-4.52541e-05
4	2761	4.01	-4.77086e-05
4	2852	4.11	-4.88665e-05
4	2943	4.21	-4.89399e-05
4	3034	4.31	-4.81224e-05
4	3125	4.41	-4.65886e-05
4	3216	4.51	-4.44947e-05
4	3307	4.61	-4.1979e-05
4	3398	4.71	-3.91623e-05
4	3489	4.81	-3.61492e-05
4	3580	4.91	-3.3029e-05
4	3674	5.01	-2.9877e-05
4	3765	5.11	-2.67554e-05
4	3856	5.21	-2.37147e-05
4	3947	5.31	-2.07949e-05
4	4038	5.41	-1.80267e-05
4	4129	5.51	-1.54325e-05
4	4220	5.61	-1.30275e-05
4	4311	5.71	-1.0821e-05
4	4402	5.81	-8.81673e-06
4	4493	5.91	-7.01443e-06
4	4587	6.01	-5.4101e-06
4	4678	6.11	-3.99696e-06
4	4769	6.21	-2.766e-06
4	4860	6.31	-1.70658e-06
4	4951	6.41	-8.06872e-07
4	5042	6.51	-5.43281e-08
4	5133	6.61	5.63994e-07
4	5224	6.71	1.06112e-06
4	5315	6.81	1.4499e-06
4	5406	6.91	1.74283e-06
4	5500	7.01	1.95188e-06
4	5591	7.11	2.08836e-06
4	5682	7.21	2.16287e-06
4	5773	7.31	2.1852e-06
4	5864	7.41	2.16432e-06
4	5955	7.51	2.10838e-06
4	6046	7.61	2.02467e-06
4	6137	7.71	1.91968e-06
4	6228	7.81	1.79913e-06
4	6319	7.91	1.66796e-06
4	6413	8.01	1.53044e-06
4	6504	8.11	1.39018e-06
4	6595	8.21	1.25018e-06
4	6686	8.31	1.11291e-06
4	6777	8.41	9.80339e-07
4	6868	8.51	8.54002e-07
4	6959	8.61	7.35044e-07
4	7050	8.71	6.24274e-07
4	7141	8.81	5.22206e-07
4	7232	8.91	4.2911e-07
4	7326	9.01	3.45041e-07
4	7417	9.11	2.69888e-07
4	7508	9.21	2.03394e-07
4	7599	9.31	1.45199e-07
4	7690	9.41	9.48539e-08
4	7781	9.51	5.18526e-08
4	7872	9.61	1.56462e-08
4	7963	9.71	-1.43366e-08
4	8054	9.81	-3.86756e-08
4	8145	9.91	-5.79483e-08
4	8268	10.01	-7.27191e-08
4	8361	10.11	-8.35328e-08
4	8454	10.21	-9.09047e-08
4	8547	10.31	-9.53222e-08
4	8640	10.41	-9.72364e-08
4	8733	10.51	-9.7063e-08
4	8826	10.61	-9.51793e-08
4	8919	10.71	-9.19272e-08
4	9012	10.81	-8.76099e-08
4	9105	10.91	-8.24976e-08
4	9201	11.01	-7.68239e-08
4	9294	11.11	-7.07914e-08
4	9387	11.21	-6.45734e-08
4	9480	11.31	-5.83135e-08
4	9573	11.41	-5.21325e-08
4	9666	11.51	-4.6127e-08
4	9759	11.61	-4.0373e-08
4	9852	11.71	-3.49289e-08
4	9945	11.81	-2.98357e-08
4	10038	11.91	-2.51227e-08
4	10134	12.01	-2.08054e-08
4	10227	12.11	-1.6891e-08
4	10320	12.21	-1.33767e-08
4	10413	12.31	-1.02538e-08
4	10506	12.41	-7.50759e-09
4	10599	12.51	-5.12017e-09
4	10692	12.61	-3.07026e-09
4	10785	12.71	-1.33298e-09
4	10878	12.81	1.15818e-10
4	10971	12.91	1.30242e-09
4	11067	13.01	2.25242e-09
4	11160	13.11	2.99138e-09
4	11253	13.21	3.54419e-09
4	11346	13.31	3.93356e-09
4	11439	13.41	4.18297e-09
4	11532	13.51	4.31157e-09
4	11625	13.61	4.34071e-09
4	11718	13.71	4.28599e-09
4	11811	13.81	4.16449e-09
4	11904	13.91	3.99041e-09
4	12000	14.01	3.77582e-09
4	12093	14.11	3.53211e-09
4	12186	14.21	3.2685e-09
4	12279	14.31	2.99423e-09
4	12372	14.41	2.71498e-09
4	12465	14.51	2.43716e-09
4	12558	14.61	2.16573e-09
4	12651	14.71	1.90425e-09
4	12744	14.81	1.65556e-09
4	12837	14.91	1.4218e-09
4	12933	15.01	1.20437e-09
4	13026	15.11	1.00471e-09
4	13119	15.21	8.22808e-10
4	13212	15.31	6.57963e-10
4	13305	15.41	5.11591e-10
4	13398	15.51	3.82272e-10
4	13491	15.61	2.69296e-10
4	13584	15.71	1.71951e-10
4	13677	15.81	8.88178e-11
4	13770	15.91	1.84741e-11
4	13866	16.01	-3.90799e-11
4	13959	16.11	-8.52651e-11
4	14052	16.21	-1.22213e-10
4	14145	16.31	-1.49925e-10
4	14238	16.41	-1.7053e-10
4	14331	16.51	-1.84031e-10
4	14424	16.61	-1.91847e-10
4	14517	16.71	-1.94689e-10
4	14610	16.81	-1.93268e-10
4	14703	16.91	-1.89004e-10
4	14799	17.01	-1.81899e-10
4	14892	17.11	-1.73372e-10
4	14985	17.21	-1.62714e-10
4	15078	17.31	-1.51346e-10
4	15171	17.41	-1.39266e-10
4	15264	17.51	-1.26477e-10
4	15357	17.61	-1.14397e-10
4	15450	17.71	-1.02318e-10
4	15543	17.81	-9.02389e-11
4	15636	17.91	-7.88702e-11
4	15732	18.01	-6.89226e-11
4	15825	18.11	-5.8975e-11
4	15918	18.21	-4.9738e-11
4	16011	18.31	-4.1922e-11
4	16104	18.41	-3.41061e-11
4	16197	18.51	-2.70006e-11
4	16290	18.61	-2.13163e-11
4	16383	18.71	-1.56319e-11
4	16476	18.81	-1.06581e-11
4	16569	18.91	-7.10543e-12
[...]
31	71567	78.254486023557	2
31	71658	78.354477422344	2
31	71749	78.454481821795	2
31	71840	78.554486221911	2
31	71931	78.654477622692	2
31	72022	78.754482024138	2
31	72113	78.854486426249	2
31	72204	78.954477829025	2
31	72292	79.054482232467	2
31	72383	79.154486636573	2
31	72474	79.254478041345	2
31	72565	79.354482446781	2
31	72656	79.454486852884	2
31	72747	79.554478259652	2
31	72838	79.654482667085	2
31	72929	79.754487075184	2
31	73020	79.854478483948	2
31	73111	79.954482893378	2
31	73205	80.054487303473	2
31	73296	80.154478714234	2
31	73387	80.254483125399	2
31	73478	80.354487537232	2
31	73569	80.454478949733	2
31	73660	80.554483362903	2
31	73751	80.654487776741	2
31	73842	80.754479191248	2
31	73933	80.854483606423	2
31	74024	80.954488022267	2
31	74118	81.054479438779	2
31	74209	81.15448385596	2
31	74300	81.25448827381	2
31	74391	81.354479692329	2
31	74482	81.454484111516	2
31	74573	81.554488531373	2
31	74664	81.654479951898	2
31	74755	81.754484373092	2
31	74846	81.854488794954	2
31	74937	81.954480217485	2
31	75031	82.054484640685	2
31	75122	82.154489064553	2
31	75213	82.254480489091	2
31	75304	82.354484914297	2
31	75395	82.454489340172	2
31	75486	82.554480766716	2
31	75577	82.654485193928	2
31	75668	82.754476621809	2
31	75759	82.854481050359	2
31	75850	82.954485479579	2
31	75944	83.054476909468	2
31	76035	83.154481340026	2
31	76126	83.254485771253	2
31	76217	83.354477203149	2
31	76308	83.454481635714	2
31	76399	83.554486068947	2
31	76490	83.654477502849	2
31	76581	83.75448193742	2
31	76672	83.854486372661	2
31	76763	83.954477808571	2
31	76857	84.05448224515	2
31	76948	84.154486682398	2
31	77039	84.254478120315	2
31	77130	84.354482558901	2
31	77221	84.454486998157	2
31	77312	84.554478438083	2
31	77403	84.654482878678	2
31	77494	84.754487319942	2
31	77585	84.854478761875	2
31	77676	84.954483204477	2
31	77770	85.054487647748	2
31	77861	85.154479091688	2
31	77952	85.254483536298	2
31	78043	85.354487981577	2
31	78134	85.454479427525	2
31	78225	85.554483874142	2
31	78316	85.654488321429	2
31	78407	85.754479769385	2
31	78498	85.854484218012	2
31	78589	85.954488667308	2
31	78683	86.054480117274	2
31	78774	86.154484567909	2
31	78865	86.254489019213	2
31	78956	86.354480471187	2
31	79047	86.454484923831	2
31	79138	86.554489377144	2
31	79229	86.654480831127	2
31	79320	86.754485285779	2
31	79411	86.854476741101	2
31	79502	86.954481197092	2
31	79596	87.054485653753	2
31	79687	87.154477111084	2
31	79778	87.254481569085	2
31	79869	87.354486027756	2
31	79960	87.454477487097	2
31	80051	87.554481947107	2
31	80142	87.654486407788	2
31	80233	87.754477869139	2
31	80324	87.854482331159	2
31	80415	87.954486793849	2
31	80509	88.054478257209	2
31	80600	88.154482721239	2
31	80691	88.254487185939	2
31	80782	88.354478651309	2
31	80873	88.454483117349	2
31	80964	88.554487584059	2
31	81055	88.65447905144	2
31	81146	88.754483519492	2
31	81237	88.854487988213	2
31	81328	88.954479457604	2
31	81422	89.054483927665	2
31	81513	89.154488398397	2
31	81604	89.2544798698	2
31	81695	89.354484341873	2
31	81786	89.454488814616	2
31	81877	89.554480288029	2
31	81968	89.654484762113	2
31	82059	89.754489236867	2
31	82150	89.854480712292	2
31	82241	89.954485188387	2
31	82335	90.054476665152	2
31	82426	90.154481142589	2
31	82517	90.254485620697	2
31	82608	90.354477099475	2
31	82699	90.454481578924	2
31	82790	90.554486059043	2
31	82881	90.654477539834	2
31	82972	90.754482021295	2
31	83063	90.854486503427	2
31	83154	90.954477986229	2
31	83248	91.054482469702	2
31	83339	91.154486953847	2
31	83430	91.254478438662	2
31	83521	91.354482924148	2
31	83612	91.454487410305	2
31	83703	91.554478897134	2
31	83794	91.654483384635	2
31	83885	91.754487872807	2
31	83976	91.85447936165	2
31	84067	91.954483851164	2
31	84161	92.05448834135	2
31	84252	92.154479832207	2
31	84343	92.254484323735	2
31	84434	92.354488815934	2
31	84525	92.454480308805	2
31	84616	92.554484802348	2
31	84707	92.654489296562	2
31	84798	92.754480791447	2
31	84889	92.854485287005	2
31	84980	92.954476783234	2
31	85074	93.054481280136	2
31	85165	93.154485777709	2
31	85256	93.254477275954	2
31	85347	93.354481774872	2
31	85438	93.454486274461	2
31	85529	93.554477774722	2
31	85620	93.654482275655	2
31	85711	93.754486777261	2
31	85802	93.854478279539	2
31	85893	93.954482782489	2
31	85987	94.054487286111	2
31	86078	94.154478790406	2
31	86169	94.254483295373	2
31	86260	94.354487801012	2
31	86351	94.454479307323	2
31	86442	94.554483814309	2
31	86533	94.654488321967	2
31	86624	94.754479830298	2
31	86715	94.854484339301	2
31	86806	94.954488848978	2
31	86900	95.054480359327	2
31	86991	95.154484870349	2
31	87082	95.254489382044	2
31	87173	95.354480894413	2
31	87264	95.454485407455	2
31	87355	95.55447692117	2
31	87446	95.654481435558	2
31	87537	95.75448595062	2
31	87628	95.854477466355	2
31	87719	95.954481982764	2
31	87813	96.054486499847	2
31	87904	96.154478017604	2
31	87995	96.254482536035	2
31	88086	96.354487055139	2
31	88177	96.454478574917	2
31	88268	96.55448309537	2
31	88359	96.654487616497	2
31	88450	96.754479138298	2
31	88541	96.854483660774	2
31	88632	96.954488183924	2
31	88726	97.054479707748	2
31	88817	97.154484232247	2
31	88908	97.254488757421	2
31	88999	97.35448028327	2
31	89090	97.454484809794	2
31	89181	97.554489336993	2
31	89272	97.654480864868	2
31	89363	97.754485393418	2
31	89454	97.854476922643	2
31	89545	97.954481452544	2
31	89639	98.05448598312	2
31	89730	98.154477514371	2
31	89821	98.254482046298	2
31	89912	98.354486578902	2
31	90003	98.454478112181	2
31	90094	98.554482646136	2
31	90185	98.654487180767	2
31	90276	98.754478716075	2
31	90367	98.85448325206	2
31	90458	98.954487788722	2
31	90552	99.054479326061	2
31	90643	99.154483864077	2
31	90734	99.25448840277	2
31	90825	99.35447994214	2
31	90916	99.454484482188	2
31	91007	99.554489022913	2
31	91098	99.654480564315	2
31	91189	99.754485106396	2
31	91280	99.854476649155	2
31	91371	99.954481192591	2
32	931	2	0
32	1844	3	0
32	2757	4	0
32	3670	5	0
32	4583	6	0
32	5496	7	0
32	6409	8	0
32	7322	9	0
32	8236	10	0
32	9195	11	0
32	10128	12	0
32	11061	13	0
32	11994	14	0
32	12927	15	0
32	13860	16	0
32	14793	17	0
32	15726	18	0
32	16659	19	0
32	17592	20	0
32	18525	21	0
32	19458	22	0
32	20391	23	0
32	21324	24	0
32	22257	25	0
32	23190	26	0
32	24123	27	0
32	25056	28	0
32	25989	29	0
32	26922	30	0
32	27855	31	0
32	28788	32	0
32	29721	33	0
32	30654	34	0
32	31587	35	0
32	32520	36	0
32	33453	37	0
32	34386	38	0
32	35319	39	0
32	36252	40	0
32	37185	41	0
32	38118	42	0
32	39051	43	0
32	39984	44	0
32	40917	45	0
32	41892	46	0
32	42815	47	0
32	43738	48	0
32	44661	49	0
32	45584	50	0
32	46507	51	0
32	47559	52	0
32	48472	53	0
32	49385	54	0
32	50298	55	0
32	51211	56	0
32	52124	57	0
32	53037	58	0
32	53950	59	0
32	54863	60	0
32	55776	61	0
32	56689	62	0
32	57602	63	0
32	58515	64	0
32	59428	65	0
32	60341	66	0
32	61254	67	0
32	62167	68	0
32	63080	69	0
32	63993	70	0
32	64906	71	0
32	65819	72	0
32	66732	73	0
32	67645	74	0
32	68558	75	0
32	69471	76	0
32	70384	77	0
32	71297	78	0
32	72210	79	0
32	73123	80	0
32	74036	81	0
32	74949	82	0
32	75862	83	0
32	76775	84	0
32	77688	85	0
32	78601	86	0
32	79514	87	0
32	80427	88	0
32	81340	89	0
32	82253	90	0
32	83166	91	0
32	84079	92	0
32	84992	93	0
32	85905	94	0
32	86818	95	0
32	87731	96	0
32	88644	97	0
32	89557	98	0
32	90470	99	0
32	91383	100	0
33	931	2	0.008433
33	1844	3	0.00937
33	2757	4	0.00937
33	3670	5	0.00937
33	4583	6	0.00937
33	5496	7	0.00937
33	6409	8	0.00937
33	7322	9	0.00937
33	8236	10	0.00937
33	9195	11	0.009419
33	10128	12	0.00937
33	11061	13	0.00937
33	11994	14	0.00937
33	12927	15	0.00937
33	13860	16	0.00937
33	14793	17	0.00937
33	15726	18	0.00937
33	16659	19	0.00937
33	17592	20	0.00937
33	18525	21	0.00937
33	19458	22	0.00937
33	20391	23	0.00937
33	21324	24	0.00937
33	22257	25	0.00937
33	23190	26	0.00937
33	24123	27	0.00937
33	25056	28	0.00937
33	25989	29	0.00937
33	26922	30	0.00937
33	27855	31	0.00937
33	28788	32	0.00937
33	29721	33	0.00937
33	30654	34	0.00937
33	31587	35	0.00937
33	32520	36	0.00937
33	33453	37	0.00937
33	34386	38	0.00937
33	35319	39	0.00937
33	36252	40	0.00937
33	37185	41	0.00937
33	38118	42	0.00937
33	39051	43	0.00937
33	39984	44	0.00937
33	40917	45	0.00937
33	41892	46	0.009514
33	42815	47	0.00937
33	43738	48	0.00937
33	44661	49	0.00937
33	45584	50	0.00937
33	46507	51	0.00937
33	47559	52	0.009804379084
33	48472	53	0.00937
33	49385	54	0.00937
33	50298	55	0.00937
33	51211	56	0.00937
33	52124	57	0.00937
33	53037	58	0.00937
33	53950	59	0.00937
33	54863	60	0.00937
33	55776	61	0.00937
33	56689	62	0.00937
33	57602	63	0.00937
33	58515	64	0.00937
33	59428	65	0.00937
33	60341	66	0.00937
33	61254	67	0.00937
33	62167	68	0.00937
33	63080	69	0.00937
33	63993	70	0.00937
33	64906	71	0.00937
33	65819	72	0.00937
33	66732	73	0.00937
33	67645	74	0.00937
33	68558	75	0.00937
33	69471	76	0.00937
33	70384	77	0.00937
33	71297	78	0.00937
33	72210	79	0.00937
33	73123	80	0.00937
33	74036	81	0.00937
33	74949	82	0.00937
33	75862	83	0.00937
33	76775	84	0.00937
33	77688	85	0.00937
33	78601	86	0.00937
33	79514	87	0.00937
33	80427	88	0.00937
33	81340	89	0.00937
33	82253	90	0.00937
33	83166	91	0.00937
33	84079	92	0.00937
33	84992	93	0.00937
33	85905	94	0.00937
33	86818	95	0.00937
33	87731	96	0.00937
33	88644	97	0.00937
33	89557	98	0.00937
33	90470	99	0.00937
33	91383	100	0.00937
34	931	2	0
34	1844	3	0
34	2757	4	0
34	3670	5	0
34	4583	6	0
34	5496	7	0
34	6409	8	0
34	7322	9	0
34	8236	10	0
34	9195	11	0
34	10128	12	0
34	11061	13	0
34	11994	14	0
34	12927	15	0
34	13860	16	0
34	14793	17	0
34	15726	18	0
34	16659	19	0
34	17592	20	0
34	18525	21	0
34	19458	22	0
34	20391	23	0
34	21324	24	0
34	22257	25	0
34	23190	26	0
34	24123	27	0
34	25056	28	0
34	25989	29	0
34	26922	30	0
34	27855	31	0
34	28788	32	0
34	29721	33	0
34	30654	34	0
34	31587	35	0
34	32520	36	0
34	33453	37	0
34	34386	38	0
34	35319	39	0
34	36252	40	0
34	37185	41	0
34	38118	42	0
34	39051	43	0
34	39984	44	0
34	40917	45	0
34	41892	46	0
34	42815	47	0
34	43738	48	0
34	44661	49	0
34	45584	50	0
34	46507	51	0
34	47559	52	0
34	48472	53	0
34	49385	54	0
34	50298	55	0
34	51211	56	0
34	52124	57	0
34	53037	58	0
34	53950	59	0
34	54863	60	0
34	55776	61	0
34	56689	62	0
34	57602	63	0
34	58515	64	0
34	59428	65	0
34	60341	66	0
34	61254	67	0
34	62167	68	0
34	63080	69	0
34	63993	70	0
34	64906	71	0
34	65819	72	0
34	66732	73	0
34	67645	74	0
34	68558	75	0
34	69471	76	0
34	70384	77	0
34	71297	78	0
34	72210	79	0
34	73123	80	0
34	74036	81	0
34	74949	82	0
34	75862	83	0
34	76775	84	0
34	77688	85	0
34	78601	86	0
34	79514	87	0
34	80427	88	0
34	81340	89	0
34	82253	90	0
34	83166	91	0
34	84079	92	0
34	84992	93	0
34	85905	94	0
34	86818	95	0
34	87731	96	0
34	88644	97	0
34	89557	98	0
34	90470	99	0
34	91383	100	0
35	932	2	1
35	1845	3	1
35	2758	4	1
35	3671	5	1
35	4584	6	1
35	5497	7	1
35	6410	8	1
35	7323	9	1
35	8237	10	1
35	9196	11	1
35	10129	12	1
35	11062	13	1
35	11995	14	1
35	12928	15	1
35	13861	16	1
35	14794	17	1
35	15727	18	1
35	16660	19	1
35	17593	20	1
35	18526	21	1
35	19459	22	1
35	20392	23	1
35	21325	24	1
35	22258	25	1
35	23191	26	1
35	24124	27	1
35	25057	28	1
35	25990	29	1
35	26923	30	1
35	27856	31	1
35	28789	32	1
35	29722	33	1
35	30655	34	1
35	31588	35	1
35	32521	36	1
35	33454	37	1
35	34387	38	1
35	35320	39	1
35	36253	40	1
35	37186	41	1
35	38119	42	1
35	39052	43	1
35	39985	44	1
35	40918	45	1
35	41893	46	1
35	42816	47	1
35	43739	48	1
35	44662	49	1
35	45585	50	1
35	46508	51	1
35	47560	52	1
35	48473	53	1
35	49386	54	1
35	50299	55	1
35	51212	56	1
35	52125	57	1
35	53038	58	1
35	53951	59	1
35	54864	60	1
35	55777	61	1
35	56690	62	1
35	57603	63	1
35	58516	64	1
35	59429	65	1
35	60342	66	1
35	61255	67	1
35	62168	68	1
35	63081	69	1
35	63994	70	1
35	64907	71	1
35	65820	72	1
35	66733	73	1
35	67646	74	1
35	68559	75	1
35	69472	76	1
35	70385	77	1
35	71298	78	1
35	72211	79	1
35	73124	80	1
35	74037	81	1
35	74950	82	1
35	75863	83	1
35	76776	84	1
35	77689	85	1
35	78602	86	1
35	79515	87	1
35	80428	88	1
35	81341	89	1
35	82254	90	1
35	83167	91	1
35	84080	92	1
35	84993	93	1
35	85906	94	1
35	86819	95	1
35	87732	96	1
35	88645	97	1
35	89558	98	1
35	90471	99	1
35	91384	100	1
36	932	2	0.008433
36	1845	3	0.00937
36	2758	4	0.00937
36	3671	5	0.00937
36	4584	6	0.00937
36	5497	7	0.00937
36	6410	8	0.00937
36	7323	9	0.00937
36	8237	10	0.00937
36	9196	11	0.009418
36	10129	12	0.00937
36	11062	13	0.00937
36	11995	14	0.00937
36	12928	15	0.00937
36	13861	16	0.00937
36	14794	17	0.00937
36	15727	18	0.00937
36	16660	19	0.00937
36	17593	20	0.00937
36	18526	21	0.00937
36	19459	22	0.00937
36	20392	23	0.00937
36	21325	24	0.00937
36	22258	25	0.00937
36	23191	26	0.00937
36	24124	27	0.00937
36	25057	28	0.00937
36	25990	29	0.00937
36	26923	30	0.00937
36	27856	31	0.00937
36	28789	32	0.00937
36	29722	33	0.00937
36	30655	34	0.00937
36	31588	35	0.00937
36	32521	36	0.00937
36	33454	37	0.00937
36	34387	38	0.00937
36	35320	39	0.00937
36	36253	40	0.00937
36	37186	41	0.00937
36	38119	42	0.00937
36	39052	43	0.00937
36	39985	44	0.00937
36	40918	45	0.00937
36	41893	46	0.00951512609
36	42816	47	0.00937
36	43739	48	0.00937
36	44662	49	0.00937
36	45585	50	0.00937
36	46508	51	0.00937
36	47560	52	0.009738
36	48473	53	0.00937
36	49386	54	0.00937
36	50299	55	0.00937
36	51212	56	0.00937
36	52125	57	0.00937
36	53038	58	0.00937
36	53951	59	0.00937
36	54864	60	0.00937
36	55777	61	0.00937
36	56690	62	0.00937
36	57603	63	0.00937
36	58516	64	0.00937
36	59429	65	0.00937
36	60342	66	0.00937
36	61255	67	0.00937
36	62168	68	0.00937
36	63081	69	0.00937
36	63994	70	0.00937
36	64907	71	0.00937
36	65820	72	0.00937
36	66733	73	0.00937
36	67646	74	0.00937
36	68559	75	0.00937
36	69472	76	0.00937
36	70385	77	0.00937
36	71298	78	0.00937
36	72211	79	0.00937
36	73124	80	0.00937
36	74037	81	0.00937
36	74950	82	0.00937
36	75863	83	0.00937
36	76776	84	0.00937
36	77689	85	0.00937
36	78602	86	0.00937
36	79515	87	0.00937
36	80428	88	0.00937
36	81341	89	0.00937
36	82254	90	0.00937
36	83167	91	0.00937
36	84080	92	0.00937
36	84993	93	0.00937
36	85906	94	0.00937
36	86819	95	0.00937
36	87732	96	0.00937
36	88645	97	0.00937
36	89558	98	0.00937
36	90471	99	0.00937
36	91384	100	0.00937
37	932	2	0
37	1845	3	0
37	2758	4	0
37	3671	5	0
37	4584	6	0
37	5497	7	0
37	6410	8	0
37	7323	9	0
37	8237	10	0
37	9196	11	0
37	10129	12	0
37	11062	13	0
37	11995	14	0
37	12928	15	0
37	13861	16	0
37	14794	17	0
37	15727	18	0
37	16660	19	0
37	17593	20	0
37	18526	21	0
37	19459	22	0
37	20392	23	0
37	21325	24	0
37	22258	25	0
37	23191	26	0
37	24124	27	0
37	25057	28	0
37	25990	29	0
37	26923	30	0
37	27856	31	0
37	28789	32	0
37	29722	33	0
37	30655	34	0
37	31588	35	0
37	32521	36	0
37	33454	37	0
37	34387	38	0
37	35320	39	0
37	36253	40	0
37	37186	41	0
37	38119	42	0
37	39052	43	0
37	39985	44	0
37	40918	45	0
37	41893	46	0
37	42816	47	0
37	43739	48	0
37	44662	49	0
37	45585	50	0
37	46508	51	0
37	47560	52	0
37	48473	53	0
37	49386	54	0
37	50299	55	0
37	51212	56	0
37	52125	57	0
37	53038	58	0
37	53951	59	0
37	54864	60	0
37	55777	61	0
37	56690	62	0
37	57603	63	0
37	58516	64	0
37	59429	65	0
37	60342	66	0
37	61255	67	0
37	62168	68	0
37	63081	69	0
37	63994	70	0
37	64907	71	0
37	65820	72	0
37	66733	73	0
37	67646	74	0
37	68559	75	0
37	69472	76	0
37	70385	77	0
37	71298	78	0
37	72211	79	0
37	73124	80	0
37	74037	81	0
37	74950	82	0
37	75863	83	0
37	76776	84	0
37	77689	85	0
37	78602	86	0
37	79515	87	0
37	80428	88	0
37	81341	89	0
37	82254	90	0
37	83167	91	0
37	84080	92	0
37	84993	93	0
37	85906	94	0
37	86819	95	0
37	87732	96	0
37	88645	97	0
37	89558	98	0
37	90471	99	0
37	91384	100	0
38	933	2	2
38	1846	3	2
38	2759	4	2
38	3672	5	2
38	4585	6	2
38	5498	7	2
38	6411	8	2
38	7324	9	2
38	8238	10	2
38	9197	11	2
38	10130	12	2
38	11063	13	2
38	11996	14	2
38	12929	15	2
38	13862	16	2
38	14795	17	2
38	15728	18	2
38	16661	19	2
38	17594	20	2
38	18527	21	2
38	19460	22	2
38	20393	23	2
38	21326	24	2
38	22259	25	2
38	23192	26	2
38	24125	27	2
38	25058	28	2
38	25991	29	2
38	26924	30	2
38	27857	31	2
38	28790	32	2
38	29723	33	2
38	30656	34	2
38	31589	35	2
38	32522	36	2
38	33455	37	2
38	34388	38	2
38	35321	39	2
38	36254	40	2
38	37187	41	2
38	38120	42	2
38	39053	43	2
38	39986	44	2
38	40919	45	2
38	41894	46	2
38	42817	47	2
38	43740	48	2
38	44663	49	2
38	45586	50	2
38	46509	51	2
38	47561	52	2
38	48474	53	2
38	49387	54	2
38	50300	55	2
38	51213	56	2
38	52126	57	2
38	53039	58	2
38	53952	59	2
38	54865	60	2
38	55778	61	2
38	56691	62	2
38	57604	63	2
38	58517	64	2
38	59430	65	2
38	60343	66	2
38	61256	67	2
38	62169	68	2
38	63082	69	2
38	63995	70	2
38	64908	71	2
38	65821	72	2
38	66734	73	2
38	67647	74	2
38	68560	75	2
38	69473	76	2
38	70386	77	2
38	71299	78	2
38	72212	79	2
38	73125	80	2
38	74038	81	2
38	74951	82	2
38	75864	83	2
38	76777	84	2
38	77690	85	2
38	78603	86	2
38	79516	87	2
38	80429	88	2
38	81342	89	2
38	82255	90	2
38	83168	91	2
38	84081	92	2
38	84994	93	2
38	85907	94	2
38	86820	95	2
38	87733	96	2
38	88646	97	2
38	89559	98	2
38	90472	99	2
38	91385	100	2
39	933	2	0.008433
39	1846	3	0.00937
39	2759	4	0.00937
39	3672	5	0.00937
39	4585	6	0.00937
39	5498	7	0.00937
39	6411	8	0.00937
39	7324	9	0.00937
39	8238	10	0.00937
39	9197	11	0.009418
39	10130	12	0.00937
39	11063	13	0.00937
39	11996	14	0.00937
39	12929	15	0.00937
39	13862	16	0.00937
39	14795	17	0.00937
39	15728	18	0.00937
39	16661	19	0.00937
39	17594	20	0.00937
39	18527	21	0.00937
39	19460	22	0.00937
39	20393	23	0.00937
39	21326	24	0.00937
39	22259	25	0.00937
39	23192	26	0.00937
39	24125	27	0.00937
39	25058	28	0.00937
39	25991	29	0.00937
39	26924	30	0.00937
39	27857	31	0.00937
39	28790	32	0.00937
39	29723	33	0.00937
39	30656	34	0.00937
39	31589	35	0.00937
39	32522	36	0.00937
39	33455	37	0.00937
39	34388	38	0.00937
39	35321	39	0.00937
39	36254	40	0.00937
39	37187	41	0.00937
39	38120	42	0.00937
39	39053	43	0.00937
39	39986	44	0.00937
39	40919	45	0.00937
39	41894	46	0.009482
39	42817	47	0.00937
39	43740	48	0.00937
39	44663	49	0.00937
39	45586	50	0.00937
39	46509	51	0.00937
39	47561	52	0.009771252586
39	48474	53	0.00937
39	49387	54	0.00937
39	50300	55	0.00937
39	51213	56	0.00937
39	52126	57	0.00937
39	53039	58	0.00937
39	53952	59	0.00937
39	54865	60	0.00937
39	55778	61	0.00937
39	56691	62	0.00937
39	57604	63	0.00937
39	58517	64	0.00937
39	59430	65	0.00937
39	60343	66	0.00937
39	61256	67	0.00937
39	62169	68	0.00937
39	63082	69	0.00937
39	63995	70	0.00937
39	64908	71	0.00937
39	65821	72	0.00937
39	66734	73	0.00937
39	67647	74	0.00937
39	68560	75	0.00937
39	69473	76	0.00937
39	70386	77	0.00937
39	71299	78	0.00937
39	72212	79	0.00937
39	73125	80	0.00937
39	74038	81	0.00937
39	74951	82	0.00937
39	75864	83	0.00937
39	76777	84	0.00937
39	77690	85	0.00937
39	78603	86	0.00937
39	79516	87	0.00937
39	80429	88	0.00937
39	81342	89	0.00937
39	82255	90	0.00937
39	83168	91	0.00937
39	84081	92	0.00937
39	84994	93	0.00937
39	85907	94	0.00937
39	86820	95	0.00937
39	87733	96	0.00937
39	88646	97	0.00937
39	89559	98	0.00937
39	90472	99	0.00937
39	91385	100	0.00937
40	933	2	0
40	1846	3	0
40	2759	4	0
40	3672	5	0
40	4585	6	0
40	5498	7	0
40	6411	8	0
40	7324	9	0
40	8238	10	0
40	9197	11	0
40	10130	12	0
40	11063	13	0
40	11996	14	0
40	12929	15	0
40	13862	16	0
40	14795	17	0
40	15728	18	0
40	16661	19	0
40	17594	20	0
40	18527	21	0
40	19460	22	0
40	20393	23	0
40	21326	24	0
40	22259	25	0
40	23192	26	0
40	24125	27	0
40	25058	28	0
40	25991	29	0
40	26924	30	0
40	27857	31	0
40	28790	32	0
40	29723	33	0
40	30656	34	0
40	31589	35	0
40	32522	36	0
40	33455	37	0
40	34388	38	0
40	35321	39	0
40	36254	40	0
40	37187	41	0
40	38120	42	0
40	39053	43	0
40	39986	44	0
40	40919	45	0
40	41894	46	0
40	42817	47	0
40	43740	48	0
40	44663	49	0
40	45586	50	0
40	46509	51	0
40	47561	52	0
40	48474	53	0
40	49387	54	0
40	50300	55	0
40	51213	56	0
40	52126	57	0
40	53039	58	0
40	53952	59	0
40	54865	60	0
40	55778	61	0
40	56691	62	0
40	57604	63	0
40	58517	64	0
40	59430	65	0
40	60343	66	0
40	61256	67	0
40	62169	68	0
40	63082	69	0
40	63995	70	0
40	64908	71	0
40	65821	72	0
40	66734	73	0
40	67647	74	0
40	68560	75	0
40	69473	76	0
40	70386	77	0
40	71299	78	0
40	72212	79	0
40	73125	80	0
40	74038	81	0
40	74951	82	0
40	75864	83	0
40	76777	84	0
40	77690	85	0
40	78603	86	0
40	79516	87	0
40	80429	88	0
40	81342	89	0
40	82255	90	0
40	83168	91	0
40	84081	92	0
40	84994	93	0
40	85907	94	0
40	86820	95	0
40	87733	96	0
40	88646	97	0
40	89559	98	0
40	90472	99	0
40	91385	100	0

