file 1787223 1720715908                                         
version 3
run BreakRanksNoGui-1858-20240711-18:38:21-304120
attr configname BreakRanksNoGui
attr datetime 20240711-18:38:21
attr datetimef 20240711-183821
attr experiment BreakRanksNoGui
attr inifile omnetpp.ini
attr iterationvars "$nCars=6, $platoonSize=6, $nLanes=1, $ploegH=0.5, $controller=1, $headway=0.1, $leaderHeadway=1.2, $leaderSpeed=110, $breakRanksSafetyDistance=20, $minSpeed=100, $maxSpeed=120, $beaconInterval=0.1, $priority=4, $packetSize=200, $sController=\"CACC\", $0=2, $1=0"
attr iterationvarsd nCars=6/platoonSize=6/nLanes=1/ploegH=0.5/controller=1/headway=0.1/leaderHeadway=1.2/leaderSpeed=110/breakRanksSafetyDistance=20/minSpeed=100/maxSpeed=120/beaconInterval=0.1/priority=4/packetSize=200/sController=CACC/2/0
attr iterationvarsf nCars=6,platoonSize=6,nLanes=1,ploegH=0.5,controller=1,headway=0.1,leaderHeadway=1.2,leaderSpeed=110,breakRanksSafetyDistance=20,minSpeed=100,maxSpeed=120,beaconInterval=0.1,priority=4,packetSize=200,sController=CACC,2,0-
attr measurement "$nCars=6, $platoonSize=6, $nLanes=1, $ploegH=0.5, $controller=1, $headway=0.1, $leaderHeadway=1.2, $leaderSpeed=110, $breakRanksSafetyDistance=20, $minSpeed=100, $maxSpeed=120, $beaconInterval=0.1, $priority=4, $packetSize=200, $sController=\"CACC\", $0=2, $1=0"
attr network Highway
attr processid 304120
attr repetition 8
attr replication #8
attr resultdir results
attr runnumber 1858
attr seedset 8
itervar beaconInterval 0.1
itervar breakRanksSafetyDistance 20
itervar controller 1
itervar headway 0.1
itervar leaderHeadway 1.2
itervar leaderSpeed 110
itervar maxSpeed 120
itervar minSpeed 100
itervar nCars 6
itervar nLanes 1
itervar packetSize 200
itervar platoonSize 6
itervar ploegH 0.5
itervar priority 4
itervar sController "\"CACC\""
config image-path ../../../veins/images
config repeat 10
config extends BreakRanks
config *.manager.command "\"sumo\""
config *.manager.ignoreGuiCommands true
config output-vector-file "results/BreakRanks_1_0.1_110_20_6 /result_8.vec"
config output-scalar-file "results/BreakRanks_1_0.1_110_20_6 /result_8.sca"
config extends Platooning
config *.node[*].scenario_type "\"BreakRanksScenario\""
config *.manager.command "\"sumo-gui\""
config *.node[*].scenario_type "\"SimpleScenario\""
config cmdenv-express-mode true
config cmdenv-autoflush true
config cmdenv-status-frequency 15s
config num-rngs 6
config network Highway
config debug-on-errors true
config print-undisposed true
config *.playgroundSizeX 65000m
config *.playgroundSizeY 25000m
config *.playgroundSizeZ 50m
config sim-time-limit "100 s"
config *.annotations.draw false
config *.obstacles.debug false
config *.world.useTorus false
config *.world.use2D false
config *.manager.updateInterval 0.01s
config *.manager.host "\"localhost\""
config *.manager.moduleType "\"org.car2x.plexe.PlatoonCar\""
config *.manager.moduleName "\"node\""
config *.manager.moduleDisplayString "\"\""
config *.manager.autoShutdown true
config *.manager.margin 25
config *.connectionManager.sendDirect true
config *.connectionManager.maxInterfDist 2600m
config *.connectionManager.drawMaxIntfDist false
config *.**.nic.mac1609_4.useServiceChannel false
config *.**.nic.mac1609_4.txPower 100mW
config *.**.nic.mac1609_4.bitrate 6Mbps
config *.**.nic.mac1609_4.useAcks true
config *.**.nic.mac1609_4.ackErrorRate 0.0
config *.**.nic.mac1609_4.frameErrorRate 0.0
config *.**.nic.phy80211p.minPowerLevel -94dBm
config *.**.nic.phy80211p.maxTXPower 100mW
config *.**.nic.phy80211p.useNoiseFloor true
config *.**.nic.phy80211p.noiseFloor -95dBm
config *.**.nic.phy80211p.decider "xmldoc(\"config.xml\")"
config *.**.nic.phy80211p.analogueModels "xmldoc(\"config.xml\")"
config *.**.nic.phy80211p.usePropagationDelay true
config *.node[*].mobility.x 0
config *.node[*].mobility.y 0
config *.node[*].mobility.z 1.895
config seed-set 8
config **.seed 8
config *.node[*].prot.rng-0 2
config *.node[*].appl.rng-0 3
config *.node[*].scenario.rng-0 4
config **.traffic.rng-0 5
config *.manager.configFile "\"./sumocfg/freeway.sumo.cfg\""
config *.manager.launchConfig "xmldoc(\"./sumocfg/freeway.launchd.xml\")"
config **.numberOfCars 6
config **.numberOfCarsPerPlatoon 6
config **.numberOfLanes 1
config *.node[*].helper_type "\"PositionHelper\""
config *.node[*].scenario.caccC1 0.5
config *.node[*].scenario.caccXi 1
config *.node[*].scenario.caccOmegaN "0.2 Hz"
config *.node[*].scenario.caccSpacing "2 m"
config *.node[*].scenario.engineTau "0.5 s"
config *.node[*].scenario.ploegH 0.5s
config *.node[*].scenario.ploegKp 0.2
config *.node[*].scenario.ploegKd 0.7
config *.node[*].scenario.useRealisticEngine false
config *.node[*].scenario.useControllerAcceleration true
config *.node[*].scenario.nLanes 1
config **.numericController 1
config **.headway 0.1s
config *.node[*].scenario.accHeadway 0.1s
config *.node[*].scenario.leaderHeadway 1.2s
config *.node[*].scenario.leaderSpeed 110kmph
config *.node[*].appl_type "\"SimplePlatooningApp\""
config *.node[*].appl.*.scalar-recording true
config *.node[*].appl.*.vector-recording true
config *.node[0].appl.breakRanksSafetyDistance 20m
config *.node[*].appl.minSpeed 100kmph
config *.node[*].appl.maxSpeed 120kmph
config *.node[*].protocol_type "\"SimplePlatooningBeaconing\""
config *.node[*].prot.*.scalar-recording true
config *.node[*].prot.*.vector-recording true
config *.node[*].prot.beaconingInterval 0.1s
config *.node[*].prot.priority 4
config *.node[*].prot.packetSize 200
config **.traffic_type "\"PlatoonsTrafficManager\""
config **.traffic.platoonInsertTime "1 s"
config **.traffic.platoonInsertSpeed 110kmph
config **.traffic.nCars 6
config **.traffic.platoonSize 6
config **.traffic.nLanes 1
config **.traffic.platooningVType "\"vtypeauto\""
config **.traffic.controller "\"CACC\""
config **.traffic.platoonInsertDistance 2m
config **.traffic.platoonInsertHeadway 0s
config **.traffic.platoonLeaderHeadway 1.2s
config **.scalar-recording false
config **.vector-recording false

vector 0 Highway.node[0].appl distance ETV
vector 1 Highway.node[0].appl relativeSpeed ETV
vector 2 Highway.node[0].appl nodeId ETV
vector 3 Highway.node[0].appl acceleration ETV
vector 4 Highway.node[0].appl controllerAcceleration ETV
vector 5 Highway.node[0].appl speed ETV
vector 6 Highway.node[0].appl posx ETV
vector 7 Highway.node[0].appl posy ETV
vector 8 Highway.node[1].appl distance ETV
vector 9 Highway.node[1].appl relativeSpeed ETV
vector 10 Highway.node[1].appl nodeId ETV
vector 11 Highway.node[1].appl acceleration ETV
vector 12 Highway.node[1].appl controllerAcceleration ETV
vector 13 Highway.node[1].appl speed ETV
vector 14 Highway.node[1].appl posx ETV
vector 15 Highway.node[1].appl posy ETV
vector 16 Highway.node[2].appl distance ETV
vector 17 Highway.node[2].appl relativeSpeed ETV
vector 18 Highway.node[2].appl nodeId ETV
vector 19 Highway.node[2].appl acceleration ETV
vector 20 Highway.node[2].appl controllerAcceleration ETV
vector 21 Highway.node[2].appl speed ETV
vector 22 Highway.node[2].appl posx ETV
vector 23 Highway.node[2].appl posy ETV
vector 24 Highway.node[3].appl distance ETV
vector 25 Highway.node[3].appl relativeSpeed ETV
vector 26 Highway.node[3].appl nodeId ETV
vector 27 Highway.node[3].appl acceleration ETV
vector 28 Highway.node[3].appl controllerAcceleration ETV
vector 29 Highway.node[3].appl speed ETV
vector 30 Highway.node[3].appl posx ETV
vector 31 Highway.node[3].appl posy ETV
vector 32 Highway.node[4].appl distance ETV
vector 33 Highway.node[4].appl relativeSpeed ETV
vector 34 Highway.node[4].appl nodeId ETV
vector 35 Highway.node[4].appl acceleration ETV
vector 36 Highway.node[4].appl controllerAcceleration ETV
vector 37 Highway.node[4].appl speed ETV
vector 38 Highway.node[4].appl posx ETV
vector 39 Highway.node[4].appl posy ETV
vector 40 Highway.node[5].appl distance ETV
vector 41 Highway.node[5].appl relativeSpeed ETV
vector 42 Highway.node[5].appl nodeId ETV
vector 43 Highway.node[5].appl acceleration ETV
vector 44 Highway.node[5].appl controllerAcceleration ETV
vector 45 Highway.node[5].appl speed ETV
vector 46 Highway.node[5].appl posx ETV
vector 47 Highway.node[5].appl posy ETV
vector 48 Highway.node[4].prot frontDelay ETV
vector 49 Highway.node[4].prot frontDelayId ETV
vector 50 Highway.node[2].prot frontDelay ETV
vector 51 Highway.node[2].prot frontDelayId ETV
vector 52 Highway.node[3].prot frontDelay ETV
vector 53 Highway.node[3].prot frontDelayId ETV
vector 54 Highway.node[5].prot frontDelay ETV
vector 55 Highway.node[5].prot frontDelayId ETV
vector 56 Highway.node[1].prot leaderDelay ETV
vector 57 Highway.node[1].prot leaderDelayId ETV
vector 58 Highway.node[1].prot frontDelay ETV
vector 59 Highway.node[1].prot frontDelayId ETV
vector 60 Highway.node[2].prot leaderDelay ETV
vector 61 Highway.node[2].prot leaderDelayId ETV
vector 62 Highway.node[3].prot leaderDelay ETV
vector 63 Highway.node[3].prot leaderDelayId ETV
vector 64 Highway.node[4].prot leaderDelay ETV
vector 65 Highway.node[4].prot leaderDelayId ETV
vector 66 Highway.node[5].prot leaderDelay ETV
vector 67 Highway.node[5].prot leaderDelayId ETV
vector 68 Highway.node[0].prot nodeId ETV
vector 69 Highway.node[0].prot busyTime ETV
vector 70 Highway.node[0].prot collisions ETV
vector 71 Highway.node[1].prot nodeId ETV
vector 72 Highway.node[1].prot busyTime ETV
vector 73 Highway.node[1].prot collisions ETV
vector 74 Highway.node[2].prot nodeId ETV
vector 75 Highway.node[2].prot busyTime ETV
vector 76 Highway.node[2].prot collisions ETV
vector 77 Highway.node[3].prot nodeId ETV
vector 78 Highway.node[3].prot busyTime ETV
vector 79 Highway.node[3].prot collisions ETV
vector 80 Highway.node[4].prot nodeId ETV
vector 81 Highway.node[4].prot busyTime ETV
vector 82 Highway.node[4].prot collisions ETV
vector 83 Highway.node[5].prot nodeId ETV
vector 84 Highway.node[5].prot busyTime ETV
vector 85 Highway.node[5].prot collisions ETV
0	9823 17366 113 316165 1.11 99.91 989 -1 -1 -989 989
1	27189 16377 113 316165 1.11 99.91 989 0 0 0 0
2	43566 16377 113 316165 1.11 99.91 989 0 0 0 0
3	59943 18965 113 316165 1.11 99.91 989 -0.00283113 0.000125957 -0.043966303784312 9.6812896349407e-05
4	78908 26345 113 316165 1.11 99.91 989 -0.00437036 0.00019576 -0.042459310034081 0.00013890441444735
5	105253 22307 113 316165 1.11 99.91 989 30.5554 30.56 30219.5304 923377.16656332
6	127560 22206 113 316165 1.11 99.91 989 53.6804 3072.58 1545936.5679 3169144129.978
7	149766 21322 113 316165 1.11 99.91 989 242.45 242.45 239783.05 58135400.472499
8	171088 21593 114 316166 1.11 99.91 989 -1 77.5353 18283.93015 619163.9054096
9	192681 22948 114 316166 1.11 99.91 989 -0.0004354 3.72241 805.35198741663 2444.74540024
10	215629 17366 114 316166 1.11 99.91 989 1 1 989 989
11	232995 26366 114 316166 1.11 99.91 989 -1.46316 0.115816 -35.563403005773 48.902246899055
12	259361 26307 114 316166 1.11 99.91 989 -1.5 0.116767 -34.59148925953 57.422651907819
13	285668 22309 114 316166 1.11 99.91 989 26.8987 30.56 29032.6576 854543.24724138
14	307977 23216 114 316166 1.11 99.91 989 47.6804 2948.07 1511347.3122 3020183093.8872
15	331193 22311 114 316166 1.11 99.91 989 242.45 245.75 240202.15 58340005.0925
16	353504 23170 115 316167 1.11 99.91 989 1.99977 43.9868 22070.47155 669464.91124484
17	376674 25324 115 316167 1.11 99.91 989 -0.454148 1.13298 129.75569122088 151.04154969758
18	401998 17366 115 316167 1.11 99.91 989 2 2 1978 3956
19	419364 25978 115 316167 1.11 99.91 989 -0.846097 0.287276 0.28168331401899 19.584054189453
20	445342 25989 115 316167 1.11 99.91 989 -1.0776 0.444728 0.56851805439 22.878029442968
21	471331 23201 115 316167 1.11 99.91 989 28.0375 31.0097 29909.8063 905068.18073479
22	494532 23184 115 316167 1.11 99.91 989 41.6804 3029.6 1506760.0635 3033947195.6762
23	517716 22311 115 316167 1.11 99.91 989 242.45 242.45 239783.05 58135400.472499
24	540027 21679 116 316168 1.11 99.91 989 -1 19.9749 9194.91229 165391.94423916
25	561706 22823 116 316168 1.11 99.91 989 -3.43232e-05 0.956357 179.75022298429 117.53983000395
26	584529 17366 116 316168 1.11 99.91 989 3 3 2967 8901
27	601895 25988 116 316168 1.11 99.91 989 -1.01182 1.34156 24.426056835133 54.832005313153
28	627883 26005 116 316168 1.11 99.91 989 -1.25804 1.5 24.566850972752 66.343387574208
29	653888 22282 116 316168 1.11 99.91 989 27.1911 33.093 30380.4831 936130.46430119
30	676170 23211 116 316168 1.11 99.91 989 35.6804 3070.55 1496352.8259 3015414440.5473
31	699381 22311 116 316168 1.11 99.91 989 242.45 249.05 241244.95 58852236.372501
32	721692 23091 117 316169 1.11 99.91 989 -1 102.829 29582.66957 1743781.6214259
33	744783 24334 117 316169 1.11 99.91 989 -3.52457 3.09424 261.70730637474 1260.1197727748
34	769117 17366 117 316169 1.11 99.91 989 4 4 3956 15824
35	786483 25547 117 316169 1.11 99.91 989 -1.10688 1.42047 4.420546012875 87.61175905433
36	812030 25542 117 316169 1.11 99.91 989 -1.34374 1.5 4.3218698526634 103.11743174834
37	837572 22902 117 316169 1.11 99.91 989 26.5125 31.0984 29371.1889 873942.43173205
38	860474 23196 117 316169 1.11 99.91 989 29.6804 2963.72 1463918.677 2876184789.0871
39	883670 22311 117 316169 1.11 99.91 989 242.45 245.75 240769.75 58617107.4125
40	905981 22058 118 316170 1.11 99.91 989 -1 69.9809 13994.12118 485908.64606076
41	928039 23133 118 316170 1.11 99.91 989 -0.000175404 2.01315 363.00979519833 461.60320652643
42	951172 17366 118 316170 1.11 99.91 989 5 5 4945 24725
43	968538 25888 118 316170 1.11 99.91 989 -1.15492 0.301639 4.4219102748303 45.970756675688
44	994426 25897 118 316170 1.11 99.91 989 -1.38933 0.467907 4.7236688418161 51.092253449682
45	1020323 22131 118 316170 1.11 99.91 989 25.9682 31.0209 29449.6719 879202.73672385
46	1042454 23218 118 316170 1.11 99.91 989 23.6804 2965.57 1450688.0682 2839533114.9121
47	1065672 22311 118 316170 1.11 99.91 989 242.45 252.35 241928.05 59191366.812501
48	1087983 39855 466 316214 1.218686340236 99.918688427832 988 0.099987171621 0.100012710425 98.800001407818 9.8800002859325
49	1127838 27112 466 316214 1.218686340236 99.918688427832 988 4 4 3952 15808
50	1154950 39818 517 316259 1.224101380264 99.924103752538 988 0.099987160626 0.100012761878 98.800001692496 9.8800003429513
51	1194768 27108 517 316259 1.224101380264 99.924103752538 988 2 2 1976 3952
52	1221876 39825 568 316298 1.233897400278 99.933899889806 988 0.099987112751 0.10001285572 98.80000180975 9.8800003668562
53	1261701 27100 568 316298 1.233897400278 99.933899889806 988 3 3 2964 8892
54	1288801 39852 618 316348 1.236608440306 99.936610985149 988 0.099987120332 0.10001284011 98.800001865065 9.8800003779176
55	1328653 27121 618 316348 1.236608440306 99.936610985149 988 5 5 4940 24700
56	1355774 39857 665 316425 1.260288520361 99.960291751671 988 0.099987170882 0.100012713199 98.800002551532 9.8800005146764
57	1395631 27129 665 316425 1.260288520361 99.960291751671 988 1 1 988 988
58	1422760 39857 665 316425 1.260288520361 99.960291751671 988 0.099987170882 0.100012713199 98.800002551532 9.8800005146764
59	1462617 27129 665 316425 1.260288520361 99.960291751671 988 1 1 988 988
60	1489746 39820 671 316407 1.260288540375 99.960291479101 988 0.099987169598 0.100012713519 98.800002258948 9.8800004561596
61	1529566 27113 671 316407 1.260288540375 99.960291479101 988 2 2 1976 3952
62	1556679 39849 677 316401 1.260288560388 99.96029134847 988 0.099987168892 0.10001271383 98.800002108303 9.8800004260306
63	1596528 27121 677 316401 1.260288560388 99.96029134847 988 3 3 2964 8892
64	1623649 39826 683 316419 1.260288580402 99.960291698959 988 0.09998717029 0.100012714109 98.800002438779 9.8800004921258
65	1663475 27100 683 316419 1.260288580402 99.960291698959 988 4 4 3952 15808
66	1690575 39870 689 316413 1.260288600416 99.960291693304 988 0.099987169552 0.100012714346 98.80000241311 9.880000486992
67	1730445 27143 689 316413 1.260288600416 99.960291693304 988 5 5 4940 24700
68	1757588 1444 2956 316480 2 100 99 0 0 0 0
69	1759032 2051 2956 316480 2 100 99 0.016857 0.019601399416 1.853893399416 0.034720722453066
70	1761083 1444 2956 316480 2 100 99 0 0 0 0
71	1762527 1444 2957 316481 2 100 99 1 1 99 99
72	1763971 2051 2957 316481 2 100 99 0.016857 0.019434 1.853630159448 0.034710573425187
73	1766022 1444 2957 316481 2 100 99 0 0 0 0
74	1767466 1444 2958 316482 2 100 99 2 2 198 396
75	1768910 2051 2958 316482 2 100 99 0.016857 0.019434 1.853630319308 0.034710579459979
76	1770961 1444 2958 316482 2 100 99 0 0 0 0
77	1772405 1444 2959 316483 2 100 99 3 3 297 891
78	1773849 2051 2959 316483 2 100 99 0.016857 0.019434 1.853630479264 0.034710585498446
79	1775900 1444 2959 316483 2 100 99 0 0 0 0
80	1777344 1444 2960 316484 2 100 99 4 4 396 1584
81	1778788 2051 2960 316484 2 100 99 0.016857 0.019434 1.853630639272 0.034710591538927
82	1780839 1444 2960 316484 2 100 99 0 0 0 0
83	1782283 1444 2961 316485 2 100 99 5 5 495 2475
84	1783727 2051 2961 316485 2 100 99 0.016857 0.019467799284 1.853630799284 0.034710637597962
85	1785778 1444 2961 316485 2 100 99 0 0 0 0

