file 5082794 1720697388                                         
version 3
run BreakRanksNoGui-579-20240711-13:29:28-288818
attr configname BreakRanksNoGui
attr datetime 20240711-13:29:28
attr datetimef 20240711-132928
attr experiment BreakRanksNoGui
attr inifile omnetpp.ini
attr iterationvars "$nCars=16, $platoonSize=12, $nLanes=1, $ploegH=0.5, $controller=1, $headway=0.1, $leaderHeadway=1.2, $leaderSpeed=130, $breakRanksSafetyDistance=3, $minSpeed=120, $maxSpeed=140, $beaconInterval=0.1, $priority=4, $packetSize=200, $sController=\"CACC\", $0=2, $1=0"
attr iterationvarsd nCars=16/platoonSize=12/nLanes=1/ploegH=0.5/controller=1/headway=0.1/leaderHeadway=1.2/leaderSpeed=130/breakRanksSafetyDistance=3/minSpeed=120/maxSpeed=140/beaconInterval=0.1/priority=4/packetSize=200/sController=CACC/2/0
attr iterationvarsf nCars=16,platoonSize=12,nLanes=1,ploegH=0.5,controller=1,headway=0.1,leaderHeadway=1.2,leaderSpeed=130,breakRanksSafetyDistance=3,minSpeed=120,maxSpeed=140,beaconInterval=0.1,priority=4,packetSize=200,sController=CACC,2,0-
attr measurement "$nCars=16, $platoonSize=12, $nLanes=1, $ploegH=0.5, $controller=1, $headway=0.1, $leaderHeadway=1.2, $leaderSpeed=130, $breakRanksSafetyDistance=3, $minSpeed=120, $maxSpeed=140, $beaconInterval=0.1, $priority=4, $packetSize=200, $sController=\"CACC\", $0=2, $1=0"
attr network Highway
attr processid 288818
attr repetition 9
attr replication #9
attr resultdir results
attr runnumber 579
attr seedset 9
itervar beaconInterval 0.1
itervar breakRanksSafetyDistance 3
itervar controller 1
itervar headway 0.1
itervar leaderHeadway 1.2
itervar leaderSpeed 130
itervar maxSpeed 140
itervar minSpeed 120
itervar nCars 16
itervar nLanes 1
itervar packetSize 200
itervar platoonSize 12
itervar ploegH 0.5
itervar priority 4
itervar sController "\"CACC\""
config image-path ../../../veins/images
config repeat 10
config extends BreakRanks
config *.manager.command "\"sumo\""
config *.manager.ignoreGuiCommands true
config output-vector-file "results/BreakRanks_1_0.1_130_3_12 /result_9.vec"
config output-scalar-file "results/BreakRanks_1_0.1_130_3_12 /result_9.sca"
config extends Platooning
config *.node[*].scenario_type "\"BreakRanksScenario\""
config *.manager.command "\"sumo-gui\""
config *.node[*].scenario_type "\"SimpleScenario\""
config cmdenv-express-mode true
config cmdenv-autoflush true
config cmdenv-status-frequency 15s
config num-rngs 6
config network Highway
config debug-on-errors true
config print-undisposed true
config *.playgroundSizeX 65000m
config *.playgroundSizeY 25000m
config *.playgroundSizeZ 50m
config sim-time-limit "100 s"
config *.annotations.draw false
config *.obstacles.debug false
config *.world.useTorus false
config *.world.use2D false
config *.manager.updateInterval 0.01s
config *.manager.host "\"localhost\""
config *.manager.moduleType "\"org.car2x.plexe.PlatoonCar\""
config *.manager.moduleName "\"node\""
config *.manager.moduleDisplayString "\"\""
config *.manager.autoShutdown true
config *.manager.margin 25
config *.connectionManager.sendDirect true
config *.connectionManager.maxInterfDist 2600m
config *.connectionManager.drawMaxIntfDist false
config *.**.nic.mac1609_4.useServiceChannel false
config *.**.nic.mac1609_4.txPower 100mW
config *.**.nic.mac1609_4.bitrate 6Mbps
config *.**.nic.mac1609_4.useAcks true
config *.**.nic.mac1609_4.ackErrorRate 0.0
config *.**.nic.mac1609_4.frameErrorRate 0.0
config *.**.nic.phy80211p.minPowerLevel -94dBm
config *.**.nic.phy80211p.maxTXPower 100mW
config *.**.nic.phy80211p.useNoiseFloor true
config *.**.nic.phy80211p.noiseFloor -95dBm
config *.**.nic.phy80211p.decider "xmldoc(\"config.xml\")"
config *.**.nic.phy80211p.analogueModels "xmldoc(\"config.xml\")"
config *.**.nic.phy80211p.usePropagationDelay true
config *.node[*].mobility.x 0
config *.node[*].mobility.y 0
config *.node[*].mobility.z 1.895
config seed-set 9
config **.seed 9
config *.node[*].prot.rng-0 2
config *.node[*].appl.rng-0 3
config *.node[*].scenario.rng-0 4
config **.traffic.rng-0 5
config *.manager.configFile "\"./sumocfg/freeway.sumo.cfg\""
config *.manager.launchConfig "xmldoc(\"./sumocfg/freeway.launchd.xml\")"
config **.numberOfCars 16
config **.numberOfCarsPerPlatoon 12
config **.numberOfLanes 1
config *.node[*].helper_type "\"PositionHelper\""
config *.node[*].scenario.caccC1 0.5
config *.node[*].scenario.caccXi 1
config *.node[*].scenario.caccOmegaN "0.2 Hz"
config *.node[*].scenario.caccSpacing "2 m"
config *.node[*].scenario.engineTau "0.5 s"
config *.node[*].scenario.ploegH 0.5s
config *.node[*].scenario.ploegKp 0.2
config *.node[*].scenario.ploegKd 0.7
config *.node[*].scenario.useRealisticEngine false
config *.node[*].scenario.useControllerAcceleration true
config *.node[*].scenario.nLanes 1
config **.numericController 1
config **.headway 0.1s
config *.node[*].scenario.accHeadway 0.1s
config *.node[*].scenario.leaderHeadway 1.2s
config *.node[*].scenario.leaderSpeed 130kmph
config *.node[*].appl_type "\"SimplePlatooningApp\""
config *.node[*].appl.*.scalar-recording true
config *.node[*].appl.*.vector-recording true
config *.node[0].appl.breakRanksSafetyDistance 3m
config *.node[*].appl.minSpeed 120kmph
config *.node[*].appl.maxSpeed 140kmph
config *.node[*].protocol_type "\"SimplePlatooningBeaconing\""
config *.node[*].prot.*.scalar-recording true
config *.node[*].prot.*.vector-recording true
config *.node[*].prot.beaconingInterval 0.1s
config *.node[*].prot.priority 4
config *.node[*].prot.packetSize 200
config **.traffic_type "\"PlatoonsTrafficManager\""
config **.traffic.platoonInsertTime "1 s"
config **.traffic.platoonInsertSpeed 130kmph
config **.traffic.nCars 16
config **.traffic.platoonSize 12
config **.traffic.nLanes 1
config **.traffic.platooningVType "\"vtypeauto\""
config **.traffic.controller "\"CACC\""
config **.traffic.platoonInsertDistance 2m
config **.traffic.platoonInsertHeadway 0s
config **.traffic.platoonLeaderHeadway 1.2s
config **.scalar-recording false
config **.vector-recording false

vector 0 Highway.node[0].appl distance ETV
vector 1 Highway.node[0].appl relativeSpeed ETV
vector 2 Highway.node[0].appl nodeId ETV
vector 3 Highway.node[0].appl acceleration ETV
vector 4 Highway.node[0].appl controllerAcceleration ETV
vector 5 Highway.node[0].appl speed ETV
vector 6 Highway.node[0].appl posx ETV
vector 7 Highway.node[0].appl posy ETV
vector 8 Highway.node[1].appl distance ETV
vector 9 Highway.node[1].appl relativeSpeed ETV
vector 10 Highway.node[1].appl nodeId ETV
vector 11 Highway.node[1].appl acceleration ETV
vector 12 Highway.node[1].appl controllerAcceleration ETV
vector 13 Highway.node[1].appl speed ETV
vector 14 Highway.node[1].appl posx ETV
vector 15 Highway.node[1].appl posy ETV
vector 16 Highway.node[2].appl distance ETV
vector 17 Highway.node[2].appl relativeSpeed ETV
vector 18 Highway.node[2].appl nodeId ETV
vector 19 Highway.node[2].appl acceleration ETV
vector 20 Highway.node[2].appl controllerAcceleration ETV
vector 21 Highway.node[2].appl speed ETV
vector 22 Highway.node[2].appl posx ETV
vector 23 Highway.node[2].appl posy ETV
vector 24 Highway.node[3].appl distance ETV
vector 25 Highway.node[3].appl relativeSpeed ETV
vector 26 Highway.node[3].appl nodeId ETV
vector 27 Highway.node[3].appl acceleration ETV
vector 28 Highway.node[3].appl controllerAcceleration ETV
vector 29 Highway.node[3].appl speed ETV
vector 30 Highway.node[3].appl posx ETV
vector 31 Highway.node[3].appl posy ETV
vector 32 Highway.node[4].appl distance ETV
vector 33 Highway.node[4].appl relativeSpeed ETV
vector 34 Highway.node[4].appl nodeId ETV
vector 35 Highway.node[4].appl acceleration ETV
vector 36 Highway.node[4].appl controllerAcceleration ETV
vector 37 Highway.node[4].appl speed ETV
vector 38 Highway.node[4].appl posx ETV
vector 39 Highway.node[4].appl posy ETV
vector 40 Highway.node[5].appl distance ETV
vector 41 Highway.node[5].appl relativeSpeed ETV
vector 42 Highway.node[5].appl nodeId ETV
vector 43 Highway.node[5].appl acceleration ETV
vector 44 Highway.node[5].appl controllerAcceleration ETV
vector 45 Highway.node[5].appl speed ETV
vector 46 Highway.node[5].appl posx ETV
vector 47 Highway.node[5].appl posy ETV
vector 48 Highway.node[6].appl distance ETV
vector 49 Highway.node[6].appl relativeSpeed ETV
vector 50 Highway.node[6].appl nodeId ETV
vector 51 Highway.node[6].appl acceleration ETV
vector 52 Highway.node[6].appl controllerAcceleration ETV
vector 53 Highway.node[6].appl speed ETV
vector 54 Highway.node[6].appl posx ETV
vector 55 Highway.node[6].appl posy ETV
vector 56 Highway.node[7].appl distance ETV
vector 57 Highway.node[7].appl relativeSpeed ETV
vector 58 Highway.node[7].appl nodeId ETV
vector 59 Highway.node[7].appl acceleration ETV
vector 60 Highway.node[7].appl controllerAcceleration ETV
vector 61 Highway.node[7].appl speed ETV
vector 62 Highway.node[7].appl posx ETV
vector 63 Highway.node[7].appl posy ETV
vector 64 Highway.node[8].appl distance ETV
vector 65 Highway.node[8].appl relativeSpeed ETV
vector 66 Highway.node[8].appl nodeId ETV
vector 67 Highway.node[8].appl acceleration ETV
vector 68 Highway.node[8].appl controllerAcceleration ETV
vector 69 Highway.node[8].appl speed ETV
vector 70 Highway.node[8].appl posx ETV
vector 71 Highway.node[8].appl posy ETV
vector 72 Highway.node[9].appl distance ETV
vector 73 Highway.node[9].appl relativeSpeed ETV
vector 74 Highway.node[9].appl nodeId ETV
vector 75 Highway.node[9].appl acceleration ETV
vector 76 Highway.node[9].appl controllerAcceleration ETV
vector 77 Highway.node[9].appl speed ETV
vector 78 Highway.node[9].appl posx ETV
vector 79 Highway.node[9].appl posy ETV
vector 80 Highway.node[10].appl distance ETV
vector 81 Highway.node[10].appl relativeSpeed ETV
vector 82 Highway.node[10].appl nodeId ETV
vector 83 Highway.node[10].appl acceleration ETV
vector 84 Highway.node[10].appl controllerAcceleration ETV
vector 85 Highway.node[10].appl speed ETV
vector 86 Highway.node[10].appl posx ETV
vector 87 Highway.node[10].appl posy ETV
vector 88 Highway.node[11].appl distance ETV
vector 89 Highway.node[11].appl relativeSpeed ETV
vector 90 Highway.node[11].appl nodeId ETV
vector 91 Highway.node[11].appl acceleration ETV
vector 92 Highway.node[11].appl controllerAcceleration ETV
vector 93 Highway.node[11].appl speed ETV
vector 94 Highway.node[11].appl posx ETV
vector 95 Highway.node[11].appl posy ETV
vector 96 Highway.node[12].appl distance ETV
vector 97 Highway.node[12].appl relativeSpeed ETV
vector 98 Highway.node[12].appl nodeId ETV
vector 99 Highway.node[12].appl acceleration ETV
vector 100 Highway.node[12].appl controllerAcceleration ETV
vector 101 Highway.node[12].appl speed ETV
vector 102 Highway.node[12].appl posx ETV
vector 103 Highway.node[12].appl posy ETV
vector 104 Highway.node[13].appl distance ETV
vector 105 Highway.node[13].appl relativeSpeed ETV
vector 106 Highway.node[13].appl nodeId ETV
vector 107 Highway.node[13].appl acceleration ETV
vector 108 Highway.node[13].appl controllerAcceleration ETV
vector 109 Highway.node[13].appl speed ETV
vector 110 Highway.node[13].appl posx ETV
vector 111 Highway.node[13].appl posy ETV
vector 112 Highway.node[14].appl distance ETV
vector 113 Highway.node[14].appl relativeSpeed ETV
vector 114 Highway.node[14].appl nodeId ETV
vector 115 Highway.node[14].appl acceleration ETV
vector 116 Highway.node[14].appl controllerAcceleration ETV
vector 117 Highway.node[14].appl speed ETV
vector 118 Highway.node[14].appl posx ETV
vector 119 Highway.node[14].appl posy ETV
vector 120 Highway.node[15].appl distance ETV
vector 121 Highway.node[15].appl relativeSpeed ETV
vector 122 Highway.node[15].appl nodeId ETV
vector 123 Highway.node[15].appl acceleration ETV
vector 124 Highway.node[15].appl controllerAcceleration ETV
vector 125 Highway.node[15].appl speed ETV
vector 126 Highway.node[15].appl posx ETV
vector 127 Highway.node[15].appl posy ETV
vector 128 Highway.node[8].prot frontDelay ETV
vector 129 Highway.node[8].prot frontDelayId ETV
vector 130 Highway.node[2].prot frontDelay ETV
vector 131 Highway.node[2].prot frontDelayId ETV
vector 132 Highway.node[10].prot frontDelay ETV
vector 133 Highway.node[10].prot frontDelayId ETV
vector 134 Highway.node[7].prot frontDelay ETV
vector 135 Highway.node[7].prot frontDelayId ETV
vector 136 Highway.node[13].prot frontDelay ETV
vector 137 Highway.node[13].prot frontDelayId ETV
vector 138 Highway.node[12].prot frontDelay ETV
vector 139 Highway.node[12].prot frontDelayId ETV
vector 140 Highway.node[3].prot frontDelay ETV
vector 141 Highway.node[3].prot frontDelayId ETV
vector 142 Highway.node[9].prot frontDelay ETV
vector 143 Highway.node[9].prot frontDelayId ETV
vector 144 Highway.node[6].prot frontDelay ETV
vector 145 Highway.node[6].prot frontDelayId ETV
vector 146 Highway.node[15].prot frontDelay ETV
vector 147 Highway.node[15].prot frontDelayId ETV
vector 148 Highway.node[5].prot leaderDelay ETV
vector 149 Highway.node[5].prot leaderDelayId ETV
vector 150 Highway.node[5].prot frontDelay ETV
vector 151 Highway.node[5].prot frontDelayId ETV
vector 152 Highway.node[6].prot leaderDelay ETV
vector 153 Highway.node[6].prot leaderDelayId ETV
vector 154 Highway.node[7].prot leaderDelay ETV
vector 155 Highway.node[7].prot leaderDelayId ETV
vector 156 Highway.node[11].prot frontDelay ETV
vector 157 Highway.node[11].prot frontDelayId ETV
vector 158 Highway.node[14].prot frontDelay ETV
vector 159 Highway.node[14].prot frontDelayId ETV
vector 160 Highway.node[1].prot leaderDelay ETV
vector 161 Highway.node[1].prot leaderDelayId ETV
vector 162 Highway.node[1].prot frontDelay ETV
vector 163 Highway.node[1].prot frontDelayId ETV
vector 164 Highway.node[8].prot leaderDelay ETV
vector 165 Highway.node[8].prot leaderDelayId ETV
vector 166 Highway.node[9].prot leaderDelay ETV
vector 167 Highway.node[9].prot leaderDelayId ETV
vector 168 Highway.node[10].prot leaderDelay ETV
vector 169 Highway.node[10].prot leaderDelayId ETV
vector 170 Highway.node[11].prot leaderDelay ETV
vector 171 Highway.node[11].prot leaderDelayId ETV
vector 172 Highway.node[12].prot leaderDelay ETV
vector 173 Highway.node[12].prot leaderDelayId ETV
vector 174 Highway.node[13].prot leaderDelay ETV
vector 175 Highway.node[13].prot leaderDelayId ETV
vector 176 Highway.node[14].prot leaderDelay ETV
vector 177 Highway.node[14].prot leaderDelayId ETV
vector 178 Highway.node[15].prot leaderDelay ETV
vector 179 Highway.node[15].prot leaderDelayId ETV
vector 180 Highway.node[2].prot leaderDelay ETV
vector 181 Highway.node[2].prot leaderDelayId ETV
vector 182 Highway.node[3].prot leaderDelay ETV
vector 183 Highway.node[3].prot leaderDelayId ETV
vector 184 Highway.node[0].prot nodeId ETV
vector 185 Highway.node[0].prot busyTime ETV
vector 186 Highway.node[0].prot collisions ETV
vector 187 Highway.node[1].prot nodeId ETV
vector 188 Highway.node[1].prot busyTime ETV
vector 189 Highway.node[1].prot collisions ETV
vector 190 Highway.node[2].prot nodeId ETV
vector 191 Highway.node[2].prot busyTime ETV
vector 192 Highway.node[2].prot collisions ETV
vector 193 Highway.node[3].prot nodeId ETV
vector 194 Highway.node[3].prot busyTime ETV
vector 195 Highway.node[3].prot collisions ETV
vector 196 Highway.node[4].prot nodeId ETV
vector 197 Highway.node[4].prot busyTime ETV
vector 198 Highway.node[4].prot collisions ETV
vector 199 Highway.node[5].prot nodeId ETV
vector 200 Highway.node[5].prot busyTime ETV
vector 201 Highway.node[5].prot collisions ETV
vector 202 Highway.node[6].prot nodeId ETV
vector 203 Highway.node[6].prot busyTime ETV
vector 204 Highway.node[6].prot collisions ETV
vector 205 Highway.node[7].prot nodeId ETV
vector 206 Highway.node[7].prot busyTime ETV
vector 207 Highway.node[7].prot collisions ETV
vector 208 Highway.node[8].prot nodeId ETV
vector 209 Highway.node[8].prot busyTime ETV
vector 210 Highway.node[8].prot collisions ETV
vector 211 Highway.node[9].prot nodeId ETV
vector 212 Highway.node[9].prot busyTime ETV
vector 213 Highway.node[9].prot collisions ETV
vector 214 Highway.node[10].prot nodeId ETV
vector 215 Highway.node[10].prot busyTime ETV
vector 216 Highway.node[10].prot collisions ETV
vector 217 Highway.node[11].prot nodeId ETV
vector 218 Highway.node[11].prot busyTime ETV
vector 219 Highway.node[11].prot collisions ETV
vector 220 Highway.node[12].prot nodeId ETV
vector 221 Highway.node[12].prot busyTime ETV
vector 222 Highway.node[12].prot collisions ETV
vector 223 Highway.node[13].prot nodeId ETV
vector 224 Highway.node[13].prot busyTime ETV
vector 225 Highway.node[13].prot collisions ETV
vector 226 Highway.node[14].prot nodeId ETV
vector 227 Highway.node[14].prot busyTime ETV
vector 228 Highway.node[14].prot collisions ETV
vector 229 Highway.node[15].prot nodeId ETV
vector 230 Highway.node[15].prot busyTime ETV
vector 231 Highway.node[15].prot collisions ETV
0	16701 17933 113 1332468 1.11 99.91 989 -1 9263.17 100916.87 943870480.9379
1	34634 17010 113 1332468 1.11 99.91 989 -0.000160959 0 -0.00124511649 1.7023914112061e-07
2	51644 16889 113 1332468 1.11 99.91 989 0 0 0 0
3	68533 19177 113 1332468 1.11 99.91 989 -3.14892e-05 0.000707784 0.010991577126781 6.0508064149601e-06
4	87710 26835 113 1332468 1.11 99.91 989 -4.89399e-05 0.00109259 0.010614843047836 8.6815283230331e-06
5	114545 22816 113 1332468 1.11 99.91 989 36.11 36.1111 35713.866699999 1289666.6073546
6	137361 22767 113 1332468 1.11 99.91 989 91.7299 3659.51 1854985.4227 4530450217.5627
7	160128 21834 113 1332468 1.11 99.91 989 242.45 242.45 239783.05 58135400.472499
8	181962 21036 114 1332469 1.11 99.91 989 -1 2.99966 1409.61471 5181.2309085171
9	202998 22733 114 1332469 1.11 99.91 989 -2.49398e-05 0.079602 9.996594971558 0.52632358415767
10	225731 17878 114 1332469 1.11 99.91 989 1 1 989 989
11	243609 26817 114 1332469 1.11 99.91 989 -0.0824302 0.0064324 -1.0678937097745 0.092463247160356
12	270426 27598 114 1332469 1.11 99.91 989 -0.104555 0.00648528 -0.69060986689972 0.079997931690833
13	298024 22337 114 1332469 1.11 99.91 989 35.9943 36.1111 35666.5824 1286256.2756707
14	320361 23747 114 1332469 1.11 99.91 989 85.7299 3648.78 1847625.4926 4500638214.985
15	344108 22823 114 1332469 1.11 99.91 989 242.45 245.75 240911.65 58686382.9925
16	366931 23611 115 1332470 1.11 99.91 989 1.99999 89.2816 16299.82563 835416.14566044
17	390542 25421 115 1332470 1.11 99.91 989 -4.88165e-06 4.74004 933.73593978721 2854.1238671891
18	415963 18867 115 1332470 1.11 99.91 989 10 10 9890 98900
19	434830 26660 115 1332470 1.11 99.91 989 -2.76815 1.4158 -21.065659421458 210.86694957953
20	461490 26613 115 1332470 1.11 99.91 989 -3.51939 1.5 -20.926248042576 278.71136149612
21	488103 23053 115 1332470 1.11 99.91 989 29.1745 36.1111 34677.943 1217986.8500336
22	511156 23696 115 1332470 1.11 99.91 989 31.7299 3496.02 1770281.5267 4164695390.4056
23	534852 22823 115 1332470 1.11 99.91 989 242.45 249.05 241588.15 59021703.252501
24	557675 23221 116 1332471 1.11 99.91 989 1.99999 50.5788 16732.34273 721292.27471198
25	580896 26099 116 1332471 1.11 99.91 989 -0.446971 6.67455 187.52321719658 1094.542374997
26	606995 18867 116 1332471 1.11 99.91 989 11 11 10879 119669
27	625862 26579 116 1332471 1.11 99.91 989 -3.05702 1.49947 9.2853947442746 244.05190057199
28	652441 26422 116 1332471 1.11 99.91 989 -3.52312 1.5 10.619839068846 320.44880586297
29	678863 23725 116 1332471 1.11 99.91 989 30.3436 37.447 35672.2748 1287874.0529902
30	702588 23704 116 1332471 1.11 99.91 989 25.7299 3589.3 1779707.0461 4241732748.3864
31	726292 22823 116 1332471 1.11 99.91 989 242.45 249.05 241908.25 59179936.272501
32	749115 18867 117 1332472 1.11 99.91 989 -1 -1 -989 989
33	767982 17878 117 1332472 1.11 99.91 989 0 0 0 0
34	785860 18867 117 1332472 1.11 99.91 989 12 12 11868 142416
35	804727 20166 117 1332472 1.11 99.91 989 -3.14892e-05 0.000707784 0.010991577126781 6.0508064149601e-06
36	824893 27824 117 1332472 1.11 99.91 989 -4.89399e-05 0.00109259 0.010614843047836 8.6815283230331e-06
37	852717 23805 117 1332472 1.11 99.91 989 36.11 36.1111 35713.866699999 1289666.6073546
38	876522 23612 117 1332472 1.11 99.91 989 9376.9 12944.7 11038020.02 124244218340.68
39	900134 22823 117 1332472 1.11 99.91 989 242.45 242.45 239783.05 58135400.472499
40	922957 21621 118 1332473 1.11 99.91 989 -1 14.9837 5573.22139 79262.764167372
41	944578 22367 118 1332473 1.11 99.91 989 -2.00768e-05 1.03507 129.8383102835 88.991194520249
42	966945 18867 118 1332473 1.11 99.91 989 13 13 12857 167141
43	985812 26862 118 1332473 1.11 99.91 989 -0.713142 0.0836411 -11.061096858755 9.7066563542089
44	1012674 27059 118 1332473 1.11 99.91 989 -1.09701 0.0843284 -10.225170728522 12.698553079884
45	1039733 22112 118 1332473 1.11 99.91 989 34.9506 36.1111 35122.1478 1247530.4885714
46	1061845 23705 118 1332473 1.11 99.91 989 9370.9 12879.6 11012112.42 123635358267.12
47	1085550 22823 118 1332473 1.11 99.91 989 242.45 245.75 241185.55 58820100.9725
48	1108373 23690 119 1332474 1.11 99.91 989 2 46.2173 23767.11725 846963.9266777
49	1132063 25032 119 1332474 1.11 99.91 989 0 0.975189 252.39002058197 134.25697417147
50	1157095 18867 119 1332474 1.11 99.91 989 14 14 13846 193844
51	1175962 26385 119 1332474 1.11 99.91 989 -0.611588 0.129391 -1.0623756479533 14.611161757797
52	1202347 26424 119 1332474 1.11 99.91 989 -0.931387 0.130134 -0.28351970953813 17.860847197227
53	1228771 22973 119 1332474 1.11 99.91 989 34.292 36.1111 35331.6391 1262439.4182181
54	1251744 23649 119 1332474 1.11 99.91 989 9364.9 12894.5 11002048.5 123419832814.04
55	1275393 22823 119 1332474 1.11 99.91 989 242.45 242.45 239783.05 58135400.472499
56	1298216 23404 120 1332475 1.11 99.91 989 -1 131.193 33647.52808 2589399.6962343
57	1321620 23719 120 1332475 1.11 99.91 989 0 3.00085 1196.6194314069 3153.9125071424
58	1345339 18867 120 1332475 1.11 99.91 989 15 15 14835 222525
59	1364206 25637 120 1332475 1.11 99.91 989 -1.63056 0.154466 -31.050671594692 55.715128806255
60	1389843 26683 120 1332475 1.11 99.91 989 -2.51182 0.155204 -29.885026221537 71.84506365731
61	1416526 22174 120 1332475 1.11 99.91 989 32.8929 36.1111 34038.2081 1173258.6259268
62	1438700 23642 120 1332475 1.11 99.91 989 9358.9 12759.3 10963444.22 122496600768.56
63	1462342 22823 120 1332475 1.11 99.91 989 242.45 249.05 240113.05 58297595.4725
64	1485165 23655 121 1332476 1.11 99.91 989 2 58.0257 14587.85041 548251.1480426
65	1508820 25494 121 1332476 1.11 99.91 989 0 3.0269 490.81581257604 787.89300600434
66	1534314 17878 121 1332476 1.11 99.91 989 2 2 1978 3956
67	1552192 27065 121 1332476 1.11 99.91 989 -1.9139 0.334962 -11.046213861022 48.051721871951
68	1579257 27065 121 1332476 1.11 99.91 989 -2.9204 0.377803 -9.6984513678427 66.926783335872
69	1606322 22949 121 1332476 1.11 99.91 989 33.0842 36.1111 35213.0564 1254286.3200988
70	1629271 23724 121 1332476 1.11 99.91 989 79.7299 3597.48 1832102.0064 4419029501.6485
71	1652995 22823 121 1332476 1.11 99.91 989 242.45 242.45 239783.05 58135400.472499
72	1675818 23650 122 1332477 1.11 99.91 989 2 42.4132 12085.53293 371218.29861932
73	1699468 25761 122 1332477 1.11 99.91 989 -9.48091e-06 3.48689 404.21034142032 793.35986478454
74	1725229 17878 122 1332477 1.11 99.91 989 3 3 2967 8901
75	1743107 26410 122 1332477 1.11 99.91 989 -2.7965 0.649941 -12.610851125111 153.66375508541
76	1769517 26431 122 1332477 1.11 99.91 989 -3.52139 0.697875 -10.985547051892 186.15991258953
77	1795948 23695 122 1332477 1.11 99.91 989 29.8479 36.1111 34808.8441 1227321.8264069
78	1819643 23715 122 1332477 1.11 99.91 989 73.7299 3551.07 1816060.3933 4335287251.2509
79	1843358 22823 122 1332477 1.11 99.91 989 242.45 242.45 239783.05 58135400.472499
80	1866181 23648 123 1332478 1.11 99.91 989 2 42.1858 11592.57809 349376.53242976
81	1889829 25690 123 1332478 1.11 99.91 989 -2.2123e-05 3.42658 401.94748700734 779.61496710127
82	1915519 17878 123 1332478 1.11 99.91 989 4 4 3956 15824
83	1933397 26272 123 1332478 1.11 99.91 989 -3.07114 0.908087 -14.392976390582 261.23147269558
84	1959669 26284 123 1332478 1.11 99.91 989 -3.52459 0.955543 -12.67979027647 295.69400604974
85	1985953 23710 123 1332478 1.11 99.91 989 26.9634 36.1111 34406.8993 1201918.2729341
86	2009663 23704 123 1332478 1.11 99.91 989 67.7299 3504.88 1800511.7712 4255137947.2039
87	2033367 22823 123 1332478 1.11 99.91 989 242.45 242.45 239783.05 58135400.472499
88	2056190 23470 124 1332479 1.11 99.91 989 1.99964 53.6847 11680.17362 379394.40536829
89	2079660 25600 124 1332479 1.11 99.91 989 -0.000605577 3.37305 517.67866652783 977.05608436689
90	2105260 17878 124 1332479 1.11 99.91 989 5 5 4945 24725
91	2123138 26499 124 1332479 1.11 99.91 989 -3.13074 1.12353 -31.041789387092 357.02626158198
92	2149637 26514 124 1332479 1.11 99.91 989 -3.52444 1.16925 -29.494746471304 391.19290694718
93	2176151 23373 124 1332479 1.11 99.91 989 24.3881 36.1111 33889.2199 1170000.5947003
94	2199524 23582 124 1332479 1.11 99.91 989 61.7299 3447.2 1784876.0732 4174670200.1587
95	2223106 22823 124 1332479 1.11 99.91 989 242.45 242.45 239783.05 58135400.472499
96	2245929 23574 125 1332480 1.11 99.91 989 0.138505 81.7344 21277.838115 1531478.8821412
97	2269503 26259 125 1332480 1.11 99.91 989 -0.10375 10.3419 522.63719181432 3348.7952124488
98	2295762 17878 125 1332480 1.11 99.91 989 6 6 5934 35604
99	2313640 26491 125 1332480 1.11 99.91 989 -3.13739 1.5 -21.04564392029 521.24092698764
100	2340131 27243 125 1332480 1.11 99.91 989 -3.52424 1.5 -19.252127155475 559.0580144909
101	2367374 24223 125 1332480 1.11 99.91 989 22.0804 36.1111 33959.3027 1177352.5105594
102	2391597 24701 125 1332480 1.11 99.91 989 55.7299 3448.15 1776679.3414 4141724846.7909
103	2416298 23812 125 1332480 1.11 99.91 989 242.45 245.75 240674.05 58570386.6725
104	2440110 22879 126 1332481 1.11 99.91 989 -1 2.97521 1261.90026 4411.9122928054
105	2462989 24420 126 1332481 1.11 99.91 989 -0.000302724 0.0354057 9.7534486654059 0.24559851533998
106	2487409 18867 126 1332481 1.11 99.91 989 7 7 6923 48461
107	2506276 28011 126 1332481 1.11 99.91 989 -0.0667221 0.578327 8.9422336092041 4.2122824754251
108	2534287 28023 126 1332481 1.11 99.91 989 -0.0783022 0.899448 9.2584129876689 6.5365578495
109	2562310 23507 126 1332481 1.11 99.91 989 35.8109 37.0401 35939.2538 1306219.2090952
110	2585817 24363 126 1332481 1.11 99.91 989 49.7299 3640 1813278.3886 4384901420.7784
111	2610180 23812 126 1332481 1.11 99.91 989 242.45 249.05 242040.25 59244814.272501
112	2633992 24300 127 1332482 1.11 99.91 989 1.99891 111.055 27910.56143 2163696.0588651
113	2658292 25182 127 1332482 1.11 99.91 989 -0.00077189 2.08229 672.13062772217 1314.0790986028
114	2683474 18867 127 1332482 1.11 99.91 989 8 8 7912 63296
115	2702341 27793 127 1332482 1.11 99.91 989 -1.25123 0.0558032 -21.040379235773 20.468972253422
116	2730134 27949 127 1332482 1.11 99.91 989 -1.5 0.0866767 -19.914378160233 26.203713436619
117	2758083 23548 127 1332482 1.11 99.91 989 33.9133 36.1111 34935.0336 1234900.069376
118	2781631 24732 127 1332482 1.11 99.91 989 43.7299 3533.73 1790242.4021 4254916479.9196
119	2806363 23812 127 1332482 1.11 99.91 989 242.45 245.75 240911.65 58686382.9925
120	2830175 24524 128 1332483 1.11 99.91 989 0.435162 67.9395 17134.355172 833216.272605
121	2854699 25983 128 1332483 1.11 99.91 989 -1.18296 13.1113 827.57419831722 6937.2192874754
122	2880682 18867 128 1332483 1.11 99.91 989 9 9 8901 80109
123	2899549 27490 128 1332483 1.11 99.91 989 -2.90906 1.5 -31.014274500628 491.89142901152
124	2927039 27228 128 1332483 1.11 99.91 989 -2.96381 1.5 -29.225200438781 536.51024820826
125	2954267 24121 128 1332483 1.11 99.91 989 22.3228 36.1111 33898.0457 1171322.826362
126	2978388 24715 128 1332483 1.11 99.91 989 37.7299 3424.08 1759298.2941 4082156648.6032
127	3003103 23812 128 1332483 1.11 99.91 989 242.45 249.05 241627.75 59041928.952501
128	3026915 41383 1514 1332537 1.220822220845 99.920815063751 988 0.099990200831 0.100011706801 98.799996043737 9.8799992421097
129	3068298 28613 1514 1332537 1.220822220845 99.920815063751 988 2 2 1976 3952
130	3096911 41408 1603 1332632 1.221206380956 99.921264882046 988 0.099899200836 0.100095869538 98.799996701921 9.8800011232662
131	3138319 29636 1603 1332632 1.221206380956 99.921264882046 988 10 10 9880 98800
132	3167955 41357 1707 1332730 1.229312501039 99.929319220366 988 0.099990200831 0.100004899139 98.800009920158 9.8800020168257
133	3209312 28627 1707 1332730 1.229312501039 99.929319220366 988 4 4 3952 15808
134	3237939 41377 1790 1332813 1.230762180126 99.930765573837 988 0.09999239065 0.100012230129 98.800001553823 9.8800003272042
135	3279316 29597 1790 1332813 1.230762180126 99.930765573837 988 15 15 14820 222300
136	3308913 41380 1840 1332899 1.235858561081 99.935853050127 988 0.099990200831 0.100006481034 98.799997689877 9.8799995709043
137	3350293 28627 1840 1332899 1.235858561081 99.935853050127 988 7 7 6916 48412
138	3378920 41376 1938 1332949 1.237919581095 99.937913432788 988 0.099990200831 0.100011674623 98.799997052524 9.8799994438661
139	3420296 28609 1938 1332949 1.237919581095 99.937913432788 988 6 6 5928 35568
140	3448905 41376 2031 1333084 1.244322681164 99.944329897289 988 0.099990200831 0.100011656302 98.799997416956 9.879999516474
141	3490281 29635 2031 1333084 1.244322681164 99.944329897289 988 11 11 10868 119548
142	3519916 41374 2135 1333158 1.246409841275 99.946404079857 988 0.099990200831 0.100011688699 98.799997439413 9.8799995209372
143	3561290 28625 2135 1333158 1.246409841275 99.946404079857 988 3 3 2964 8892
144	3589915 41384 2218 1333229 1.25220620014 99.952209224646 988 0.099992392552 0.100012227711 98.800001184618 9.8800002533625
145	3631299 29617 2218 1333229 1.25220620014 99.952209224646 988 14 14 13832 193648
146	3660916 41380 2268 1333327 1.256725961358 99.956720504172 988 0.099990200831 0.100011706907 98.799997743645 9.8799995820921
147	3702296 28628 2268 1333327 1.256725961358 99.956720504172 988 9 9 8892 80028
148	3730924 41376 2380 1333403 1.27801230021 99.978016412255 988 0.099992393043 0.100012223261 98.800002272157 9.8800004707405
149	3772300 29614 2380 1333403 1.27801230021 99.978016412255 988 13 13 12844 166972
150	3801914 41376 2380 1333403 1.27801230021 99.978016412255 988 0.099992393043 0.100012223261 98.800002272157 9.8800004707405
151	3843290 29614 2380 1333403 1.27801230021 99.978016412255 988 13 13 12844 166972
152	3872904 41377 2386 1333397 1.278012320224 99.978016362045 988 0.099992392096 0.100012222928 98.800002201933 9.8800004566957
153	3914281 29616 2386 1333397 1.278012320224 99.978016362045 988 14 14 13832 193648
154	3943897 41375 2392 1333409 1.278012340238 99.978016813701 988 0.0999923921 0.100012223929 98.800002633575 9.8800005430241
155	3985272 29620 2392 1333409 1.278012340238 99.978016813701 988 15 15 14820 222300
156	4014892 41393 2438 1333473 1.291846041413 99.991840427746 988 0.099990200831 0.100011674773 98.799997587164 9.879999550793
157	4056285 28634 2438 1333473 1.291846041413 99.991840427746 988 5 5 4940 24700
158	4084919 41320 2635 1332338 1.306173261565 99.906176140747 987 0.099990200831 0.10000489871 98.700006080013 9.8700012487823
159	4126239 28603 2635 1332338 1.306173261565 99.906176140747 987 8 8 7896 63168
160	4154842 41345 2727 1332406 1.308754401662 99.908756892203 987 0.099990200831 0.100004897464 98.700005691372 9.8700011710466
161	4196187 28608 2727 1332406 1.308754401662 99.908756892203 987 1 1 987 987
162	4224795 41345 2727 1332406 1.308754401662 99.908756892203 987 0.099990200831 0.100004897464 98.700005691372 9.8700011710466
163	4266140 28608 2727 1332406 1.308754401662 99.908756892203 987 1 1 987 987
164	4294748 41334 2733 1332418 1.308754421676 99.908757061676 987 0.099990200831 0.1000048978 98.700005840831 9.8700012009383
165	4336082 28578 2733 1332418 1.308754421676 99.908757061676 987 2 2 1974 3948
166	4364660 41328 2739 1332430 1.30875444169 99.908757216493 987 0.099990200831 0.100004897852 98.700005975634 9.8700012278989
167	4405988 28600 2739 1332430 1.30875444169 99.908757216493 987 3 3 2961 8883
168	4434588 41334 2745 1332442 1.308754461703 99.908757370552 987 0.099990200831 0.100004897912 98.70000610968 9.8700012547081
169	4475922 28599 2745 1332442 1.308754461703 99.908757370552 987 4 4 3948 15792
170	4504521 41318 2751 1332460 1.308754481717 99.908757562968 987 0.099990200831 0.100004898467 98.700006282082 9.8700012891885
171	4545839 28594 2751 1332460 1.308754481717 99.908757562968 987 5 5 4935 24675
172	4574433 41334 2757 1332454 1.308754501731 99.908757559857 987 0.099990200831 0.100004898133 98.700006258957 9.8700012845635
173	4615767 28602 2757 1332454 1.308754501731 99.908757559857 987 6 6 5922 35532
174	4644369 41305 2763 1332412 1.308754521745 99.908756923469 987 0.099990200831 0.100004897148 98.700005602555 9.8700011532832
175	4685674 28571 2763 1332412 1.308754521745 99.908756923469 987 7 7 6909 48363
176	4714245 41326 2769 1332436 1.308754541759 99.908757274475 987 0.099990200831 0.100004898133 98.700005933547 9.8700012194816
177	4755571 28607 2769 1332436 1.308754541759 99.908757274475 987 8 8 7896 63168
178	4784178 41330 2775 1332466 1.308754561773 99.908757640387 987 0.099990200831 0.100004898466 98.700006279445 9.8700012886612
179	4825508 28590 2775 1332466 1.308754561773 99.908757640387 987 9 9 8883 79947
180	4854098 41315 2781 1332448 1.308754581786 99.908757400558 987 0.099990200831 0.100004898132 98.700006019603 9.8700012366927
181	4895413 29572 2781 1332448 1.308754581786 99.908757400558 987 10 10 9870 98700
182	4924985 41321 2787 1332424 1.3087546018 99.908757089993 987 0.099990200831 0.100004897124 98.700005689024 9.8700011705769
183	4966306 29564 2787 1332424 1.3087546018 99.908757089993 987 11 11 10857 119427
184	4995870 1595 11958 1333609 2 100 99 0 0 0 0
185	4997465 2207 11958 1333609 2 100 99 0.03308 0.039192076006 3.706411076006 0.13878478358266
186	4999672 1595 11958 1333609 2 100 99 0 0 0 0
187	5001267 1595 11959 1333610 2 100 99 1 1 99 99
188	5002862 2208 11959 1333610 2 100 99 0.033081 0.038826 3.705758046036 0.13873464792345
189	5005070 1595 11959 1333610 2 100 99 0 0 0 0
190	5006665 1694 11960 1333611 2 100 99 10 10 990 9900
191	5008359 2208 11960 1333611 2 100 99 0.033081 0.038826 3.705758464924 0.13873467941985
192	5010567 1595 11960 1333611 2 100 99 0 0 0 0
193	5012162 1694 11961 1333612 2 100 99 11 11 1089 11979
194	5013856 2208 11961 1333612 2 100 99 0.033081 0.038859511532 3.705758511532 0.13873476764151
195	5016064 1595 11961 1333612 2 100 99 0 0 0 0
196	5017659 1694 11962 1333613 2 100 99 12 12 1188 14256
197	5019353 2200 11962 1333613 2 100 99 0.011241 0.013069758928 1.236177758928 0.015437650512436
198	5021553 1595 11962 1333613 2 100 99 0 0 0 0
199	5023148 1694 11963 1333614 2 100 99 13 13 1287 16731
200	5024842 2198 11963 1333614 2 100 99 0.011241 0.01297 1.23604612609 0.01543424864031
201	5027040 1595 11963 1333614 2 100 99 0 0 0 0
202	5028635 1694 11964 1333615 2 100 99 14 14 1386 19404
203	5030329 2199 11964 1333615 2 100 99 0.011241 0.01297 1.236046252586 0.015434251836912
204	5032528 1595 11964 1333615 2 100 99 0 0 0 0
205	5034123 1694 11965 1333616 2 100 99 15 15 1485 22275
206	5035817 2200 11965 1333616 2 100 99 0.011241 0.013003379186 1.236046379186 0.015434279603255
207	5038017 1595 11965 1333616 2 100 99 0 0 0 0
208	5039612 1595 11966 1333617 2 100 99 2 2 198 396
209	5041207 2207 11966 1333617 2 100 99 0.033081 0.038826 3.70575809239 0.13873465140881
210	5043414 1595 11966 1333617 2 100 99 0 0 0 0
211	5045009 1595 11967 1333618 2 100 99 3 3 297 891
212	5046604 2208 11967 1333618 2 100 99 0.033081 0.038826 3.705758138866 0.13873465490335
213	5048812 1595 11967 1333618 2 100 99 0 0 0 0
214	5050407 1595 11968 1333619 2 100 99 4 4 396 1584
215	5052002 2207 11968 1333619 2 100 99 0.033081 0.038826 3.70575818539 0.13873465840151
216	5054209 1595 11968 1333619 2 100 99 0 0 0 0
217	5055804 1595 11969 1333620 2 100 99 5 5 495 2475
218	5057399 2208 11969 1333620 2 100 99 0.033081 0.038826 3.705758231948 0.13873466190222
219	5059607 1595 11969 1333620 2 100 99 0 0 0 0
220	5061202 1595 11970 1333621 2 100 99 6 6 594 3564
221	5062797 2208 11970 1333621 2 100 99 0.033081 0.038826 3.705758278524 0.1387346654043
222	5065005 1595 11970 1333621 2 100 99 0 0 0 0
223	5066600 1595 11971 1333622 2 100 99 7 7 693 4851
224	5068195 2207 11971 1333622 2 100 99 0.03308 0.038826 3.705757325104 0.13873460274568
225	5070402 1595 11971 1333622 2 100 99 0 0 0 0
226	5071997 1595 11972 1333623 2 100 99 8 8 792 6336
227	5073592 2208 11972 1333623 2 100 99 0.033081 0.038826 3.705758371708 0.13873467241086
228	5075800 1595 11972 1333623 2 100 99 0 0 0 0
229	5077395 1595 11973 1333624 2 100 99 9 9 891 8019
230	5078990 2208 11973 1333624 2 100 99 0.033081 0.038826 3.705758418308 0.13873467591475
231	5081198 1595 11973 1333624 2 100 99 0 0 0 0

