file 5078529 1720697305                                         
version 3
run BreakRanksNoGui-575-20240711-13:28:04-288797
attr configname BreakRanksNoGui
attr datetime 20240711-13:28:04
attr datetimef 20240711-132804
attr experiment BreakRanksNoGui
attr inifile omnetpp.ini
attr iterationvars "$nCars=16, $platoonSize=12, $nLanes=1, $ploegH=0.5, $controller=1, $headway=0.1, $leaderHeadway=1.2, $leaderSpeed=130, $breakRanksSafetyDistance=3, $minSpeed=120, $maxSpeed=140, $beaconInterval=0.1, $priority=4, $packetSize=200, $sController=\"CACC\", $0=2, $1=0"
attr iterationvarsd nCars=16/platoonSize=12/nLanes=1/ploegH=0.5/controller=1/headway=0.1/leaderHeadway=1.2/leaderSpeed=130/breakRanksSafetyDistance=3/minSpeed=120/maxSpeed=140/beaconInterval=0.1/priority=4/packetSize=200/sController=CACC/2/0
attr iterationvarsf nCars=16,platoonSize=12,nLanes=1,ploegH=0.5,controller=1,headway=0.1,leaderHeadway=1.2,leaderSpeed=130,breakRanksSafetyDistance=3,minSpeed=120,maxSpeed=140,beaconInterval=0.1,priority=4,packetSize=200,sController=CACC,2,0-
attr measurement "$nCars=16, $platoonSize=12, $nLanes=1, $ploegH=0.5, $controller=1, $headway=0.1, $leaderHeadway=1.2, $leaderSpeed=130, $breakRanksSafetyDistance=3, $minSpeed=120, $maxSpeed=140, $beaconInterval=0.1, $priority=4, $packetSize=200, $sController=\"CACC\", $0=2, $1=0"
attr network Highway
attr processid 288797
attr repetition 5
attr replication #5
attr resultdir results
attr runnumber 575
attr seedset 5
itervar beaconInterval 0.1
itervar breakRanksSafetyDistance 3
itervar controller 1
itervar headway 0.1
itervar leaderHeadway 1.2
itervar leaderSpeed 130
itervar maxSpeed 140
itervar minSpeed 120
itervar nCars 16
itervar nLanes 1
itervar packetSize 200
itervar platoonSize 12
itervar ploegH 0.5
itervar priority 4
itervar sController "\"CACC\""
config image-path ../../../veins/images
config repeat 10
config extends BreakRanks
config *.manager.command "\"sumo\""
config *.manager.ignoreGuiCommands true
config output-vector-file "results/BreakRanks_1_0.1_130_3_12 /result_5.vec"
config output-scalar-file "results/BreakRanks_1_0.1_130_3_12 /result_5.sca"
config extends Platooning
config *.node[*].scenario_type "\"BreakRanksScenario\""
config *.manager.command "\"sumo-gui\""
config *.node[*].scenario_type "\"SimpleScenario\""
config cmdenv-express-mode true
config cmdenv-autoflush true
config cmdenv-status-frequency 15s
config num-rngs 6
config network Highway
config debug-on-errors true
config print-undisposed true
config *.playgroundSizeX 65000m
config *.playgroundSizeY 25000m
config *.playgroundSizeZ 50m
config sim-time-limit "100 s"
config *.annotations.draw false
config *.obstacles.debug false
config *.world.useTorus false
config *.world.use2D false
config *.manager.updateInterval 0.01s
config *.manager.host "\"localhost\""
config *.manager.moduleType "\"org.car2x.plexe.PlatoonCar\""
config *.manager.moduleName "\"node\""
config *.manager.moduleDisplayString "\"\""
config *.manager.autoShutdown true
config *.manager.margin 25
config *.connectionManager.sendDirect true
config *.connectionManager.maxInterfDist 2600m
config *.connectionManager.drawMaxIntfDist false
config *.**.nic.mac1609_4.useServiceChannel false
config *.**.nic.mac1609_4.txPower 100mW
config *.**.nic.mac1609_4.bitrate 6Mbps
config *.**.nic.mac1609_4.useAcks true
config *.**.nic.mac1609_4.ackErrorRate 0.0
config *.**.nic.mac1609_4.frameErrorRate 0.0
config *.**.nic.phy80211p.minPowerLevel -94dBm
config *.**.nic.phy80211p.maxTXPower 100mW
config *.**.nic.phy80211p.useNoiseFloor true
config *.**.nic.phy80211p.noiseFloor -95dBm
config *.**.nic.phy80211p.decider "xmldoc(\"config.xml\")"
config *.**.nic.phy80211p.analogueModels "xmldoc(\"config.xml\")"
config *.**.nic.phy80211p.usePropagationDelay true
config *.node[*].mobility.x 0
config *.node[*].mobility.y 0
config *.node[*].mobility.z 1.895
config seed-set 5
config **.seed 5
config *.node[*].prot.rng-0 2
config *.node[*].appl.rng-0 3
config *.node[*].scenario.rng-0 4
config **.traffic.rng-0 5
config *.manager.configFile "\"./sumocfg/freeway.sumo.cfg\""
config *.manager.launchConfig "xmldoc(\"./sumocfg/freeway.launchd.xml\")"
config **.numberOfCars 16
config **.numberOfCarsPerPlatoon 12
config **.numberOfLanes 1
config *.node[*].helper_type "\"PositionHelper\""
config *.node[*].scenario.caccC1 0.5
config *.node[*].scenario.caccXi 1
config *.node[*].scenario.caccOmegaN "0.2 Hz"
config *.node[*].scenario.caccSpacing "2 m"
config *.node[*].scenario.engineTau "0.5 s"
config *.node[*].scenario.ploegH 0.5s
config *.node[*].scenario.ploegKp 0.2
config *.node[*].scenario.ploegKd 0.7
config *.node[*].scenario.useRealisticEngine false
config *.node[*].scenario.useControllerAcceleration true
config *.node[*].scenario.nLanes 1
config **.numericController 1
config **.headway 0.1s
config *.node[*].scenario.accHeadway 0.1s
config *.node[*].scenario.leaderHeadway 1.2s
config *.node[*].scenario.leaderSpeed 130kmph
config *.node[*].appl_type "\"SimplePlatooningApp\""
config *.node[*].appl.*.scalar-recording true
config *.node[*].appl.*.vector-recording true
config *.node[0].appl.breakRanksSafetyDistance 3m
config *.node[*].appl.minSpeed 120kmph
config *.node[*].appl.maxSpeed 140kmph
config *.node[*].protocol_type "\"SimplePlatooningBeaconing\""
config *.node[*].prot.*.scalar-recording true
config *.node[*].prot.*.vector-recording true
config *.node[*].prot.beaconingInterval 0.1s
config *.node[*].prot.priority 4
config *.node[*].prot.packetSize 200
config **.traffic_type "\"PlatoonsTrafficManager\""
config **.traffic.platoonInsertTime "1 s"
config **.traffic.platoonInsertSpeed 130kmph
config **.traffic.nCars 16
config **.traffic.platoonSize 12
config **.traffic.nLanes 1
config **.traffic.platooningVType "\"vtypeauto\""
config **.traffic.controller "\"CACC\""
config **.traffic.platoonInsertDistance 2m
config **.traffic.platoonInsertHeadway 0s
config **.traffic.platoonLeaderHeadway 1.2s
config **.scalar-recording false
config **.vector-recording false

vector 0 Highway.node[0].appl distance ETV
vector 1 Highway.node[0].appl relativeSpeed ETV
vector 2 Highway.node[0].appl nodeId ETV
vector 3 Highway.node[0].appl acceleration ETV
vector 4 Highway.node[0].appl controllerAcceleration ETV
vector 5 Highway.node[0].appl speed ETV
vector 6 Highway.node[0].appl posx ETV
vector 7 Highway.node[0].appl posy ETV
vector 8 Highway.node[1].appl distance ETV
vector 9 Highway.node[1].appl relativeSpeed ETV
vector 10 Highway.node[1].appl nodeId ETV
vector 11 Highway.node[1].appl acceleration ETV
vector 12 Highway.node[1].appl controllerAcceleration ETV
vector 13 Highway.node[1].appl speed ETV
vector 14 Highway.node[1].appl posx ETV
vector 15 Highway.node[1].appl posy ETV
vector 16 Highway.node[2].appl distance ETV
vector 17 Highway.node[2].appl relativeSpeed ETV
vector 18 Highway.node[2].appl nodeId ETV
vector 19 Highway.node[2].appl acceleration ETV
vector 20 Highway.node[2].appl controllerAcceleration ETV
vector 21 Highway.node[2].appl speed ETV
vector 22 Highway.node[2].appl posx ETV
vector 23 Highway.node[2].appl posy ETV
vector 24 Highway.node[3].appl distance ETV
vector 25 Highway.node[3].appl relativeSpeed ETV
vector 26 Highway.node[3].appl nodeId ETV
vector 27 Highway.node[3].appl acceleration ETV
vector 28 Highway.node[3].appl controllerAcceleration ETV
vector 29 Highway.node[3].appl speed ETV
vector 30 Highway.node[3].appl posx ETV
vector 31 Highway.node[3].appl posy ETV
vector 32 Highway.node[4].appl distance ETV
vector 33 Highway.node[4].appl relativeSpeed ETV
vector 34 Highway.node[4].appl nodeId ETV
vector 35 Highway.node[4].appl acceleration ETV
vector 36 Highway.node[4].appl controllerAcceleration ETV
vector 37 Highway.node[4].appl speed ETV
vector 38 Highway.node[4].appl posx ETV
vector 39 Highway.node[4].appl posy ETV
vector 40 Highway.node[5].appl distance ETV
vector 41 Highway.node[5].appl relativeSpeed ETV
vector 42 Highway.node[5].appl nodeId ETV
vector 43 Highway.node[5].appl acceleration ETV
vector 44 Highway.node[5].appl controllerAcceleration ETV
vector 45 Highway.node[5].appl speed ETV
vector 46 Highway.node[5].appl posx ETV
vector 47 Highway.node[5].appl posy ETV
vector 48 Highway.node[6].appl distance ETV
vector 49 Highway.node[6].appl relativeSpeed ETV
vector 50 Highway.node[6].appl nodeId ETV
vector 51 Highway.node[6].appl acceleration ETV
vector 52 Highway.node[6].appl controllerAcceleration ETV
vector 53 Highway.node[6].appl speed ETV
vector 54 Highway.node[6].appl posx ETV
vector 55 Highway.node[6].appl posy ETV
vector 56 Highway.node[7].appl distance ETV
vector 57 Highway.node[7].appl relativeSpeed ETV
vector 58 Highway.node[7].appl nodeId ETV
vector 59 Highway.node[7].appl acceleration ETV
vector 60 Highway.node[7].appl controllerAcceleration ETV
vector 61 Highway.node[7].appl speed ETV
vector 62 Highway.node[7].appl posx ETV
vector 63 Highway.node[7].appl posy ETV
vector 64 Highway.node[8].appl distance ETV
vector 65 Highway.node[8].appl relativeSpeed ETV
vector 66 Highway.node[8].appl nodeId ETV
vector 67 Highway.node[8].appl acceleration ETV
vector 68 Highway.node[8].appl controllerAcceleration ETV
vector 69 Highway.node[8].appl speed ETV
vector 70 Highway.node[8].appl posx ETV
vector 71 Highway.node[8].appl posy ETV
vector 72 Highway.node[9].appl distance ETV
vector 73 Highway.node[9].appl relativeSpeed ETV
vector 74 Highway.node[9].appl nodeId ETV
vector 75 Highway.node[9].appl acceleration ETV
vector 76 Highway.node[9].appl controllerAcceleration ETV
vector 77 Highway.node[9].appl speed ETV
vector 78 Highway.node[9].appl posx ETV
vector 79 Highway.node[9].appl posy ETV
vector 80 Highway.node[10].appl distance ETV
vector 81 Highway.node[10].appl relativeSpeed ETV
vector 82 Highway.node[10].appl nodeId ETV
vector 83 Highway.node[10].appl acceleration ETV
vector 84 Highway.node[10].appl controllerAcceleration ETV
vector 85 Highway.node[10].appl speed ETV
vector 86 Highway.node[10].appl posx ETV
vector 87 Highway.node[10].appl posy ETV
vector 88 Highway.node[11].appl distance ETV
vector 89 Highway.node[11].appl relativeSpeed ETV
vector 90 Highway.node[11].appl nodeId ETV
vector 91 Highway.node[11].appl acceleration ETV
vector 92 Highway.node[11].appl controllerAcceleration ETV
vector 93 Highway.node[11].appl speed ETV
vector 94 Highway.node[11].appl posx ETV
vector 95 Highway.node[11].appl posy ETV
vector 96 Highway.node[12].appl distance ETV
vector 97 Highway.node[12].appl relativeSpeed ETV
vector 98 Highway.node[12].appl nodeId ETV
vector 99 Highway.node[12].appl acceleration ETV
vector 100 Highway.node[12].appl controllerAcceleration ETV
vector 101 Highway.node[12].appl speed ETV
vector 102 Highway.node[12].appl posx ETV
vector 103 Highway.node[12].appl posy ETV
vector 104 Highway.node[13].appl distance ETV
vector 105 Highway.node[13].appl relativeSpeed ETV
vector 106 Highway.node[13].appl nodeId ETV
vector 107 Highway.node[13].appl acceleration ETV
vector 108 Highway.node[13].appl controllerAcceleration ETV
vector 109 Highway.node[13].appl speed ETV
vector 110 Highway.node[13].appl posx ETV
vector 111 Highway.node[13].appl posy ETV
vector 112 Highway.node[14].appl distance ETV
vector 113 Highway.node[14].appl relativeSpeed ETV
vector 114 Highway.node[14].appl nodeId ETV
vector 115 Highway.node[14].appl acceleration ETV
vector 116 Highway.node[14].appl controllerAcceleration ETV
vector 117 Highway.node[14].appl speed ETV
vector 118 Highway.node[14].appl posx ETV
vector 119 Highway.node[14].appl posy ETV
vector 120 Highway.node[15].appl distance ETV
vector 121 Highway.node[15].appl relativeSpeed ETV
vector 122 Highway.node[15].appl nodeId ETV
vector 123 Highway.node[15].appl acceleration ETV
vector 124 Highway.node[15].appl controllerAcceleration ETV
vector 125 Highway.node[15].appl speed ETV
vector 126 Highway.node[15].appl posx ETV
vector 127 Highway.node[15].appl posy ETV
vector 128 Highway.node[8].prot frontDelay ETV
vector 129 Highway.node[8].prot frontDelayId ETV
vector 130 Highway.node[13].prot frontDelay ETV
vector 131 Highway.node[13].prot frontDelayId ETV
vector 132 Highway.node[2].prot frontDelay ETV
vector 133 Highway.node[2].prot frontDelayId ETV
vector 134 Highway.node[6].prot frontDelay ETV
vector 135 Highway.node[6].prot frontDelayId ETV
vector 136 Highway.node[12].prot frontDelay ETV
vector 137 Highway.node[12].prot frontDelayId ETV
vector 138 Highway.node[3].prot frontDelay ETV
vector 139 Highway.node[3].prot frontDelayId ETV
vector 140 Highway.node[14].prot frontDelay ETV
vector 141 Highway.node[14].prot frontDelayId ETV
vector 142 Highway.node[5].prot leaderDelay ETV
vector 143 Highway.node[5].prot leaderDelayId ETV
vector 144 Highway.node[5].prot frontDelay ETV
vector 145 Highway.node[5].prot frontDelayId ETV
vector 146 Highway.node[6].prot leaderDelay ETV
vector 147 Highway.node[6].prot leaderDelayId ETV
vector 148 Highway.node[7].prot leaderDelay ETV
vector 149 Highway.node[7].prot leaderDelayId ETV
vector 150 Highway.node[10].prot frontDelay ETV
vector 151 Highway.node[10].prot frontDelayId ETV
vector 152 Highway.node[9].prot frontDelay ETV
vector 153 Highway.node[9].prot frontDelayId ETV
vector 154 Highway.node[11].prot frontDelay ETV
vector 155 Highway.node[11].prot frontDelayId ETV
vector 156 Highway.node[1].prot leaderDelay ETV
vector 157 Highway.node[1].prot leaderDelayId ETV
vector 158 Highway.node[1].prot frontDelay ETV
vector 159 Highway.node[1].prot frontDelayId ETV
vector 160 Highway.node[8].prot leaderDelay ETV
vector 161 Highway.node[8].prot leaderDelayId ETV
vector 162 Highway.node[9].prot leaderDelay ETV
vector 163 Highway.node[9].prot leaderDelayId ETV
vector 164 Highway.node[10].prot leaderDelay ETV
vector 165 Highway.node[10].prot leaderDelayId ETV
vector 166 Highway.node[11].prot leaderDelay ETV
vector 167 Highway.node[11].prot leaderDelayId ETV
vector 168 Highway.node[12].prot leaderDelay ETV
vector 169 Highway.node[12].prot leaderDelayId ETV
vector 170 Highway.node[13].prot leaderDelay ETV
vector 171 Highway.node[13].prot leaderDelayId ETV
vector 172 Highway.node[14].prot leaderDelay ETV
vector 173 Highway.node[14].prot leaderDelayId ETV
vector 174 Highway.node[15].prot leaderDelay ETV
vector 175 Highway.node[15].prot leaderDelayId ETV
vector 176 Highway.node[2].prot leaderDelay ETV
vector 177 Highway.node[2].prot leaderDelayId ETV
vector 178 Highway.node[3].prot leaderDelay ETV
vector 179 Highway.node[3].prot leaderDelayId ETV
vector 180 Highway.node[15].prot frontDelay ETV
vector 181 Highway.node[15].prot frontDelayId ETV
vector 182 Highway.node[7].prot frontDelay ETV
vector 183 Highway.node[7].prot frontDelayId ETV
vector 184 Highway.node[0].prot nodeId ETV
vector 185 Highway.node[0].prot busyTime ETV
vector 186 Highway.node[0].prot collisions ETV
vector 187 Highway.node[1].prot nodeId ETV
vector 188 Highway.node[1].prot busyTime ETV
vector 189 Highway.node[1].prot collisions ETV
vector 190 Highway.node[2].prot nodeId ETV
vector 191 Highway.node[2].prot busyTime ETV
vector 192 Highway.node[2].prot collisions ETV
vector 193 Highway.node[3].prot nodeId ETV
vector 194 Highway.node[3].prot busyTime ETV
vector 195 Highway.node[3].prot collisions ETV
vector 196 Highway.node[4].prot nodeId ETV
vector 197 Highway.node[4].prot busyTime ETV
vector 198 Highway.node[4].prot collisions ETV
vector 199 Highway.node[5].prot nodeId ETV
vector 200 Highway.node[5].prot busyTime ETV
vector 201 Highway.node[5].prot collisions ETV
vector 202 Highway.node[6].prot nodeId ETV
vector 203 Highway.node[6].prot busyTime ETV
vector 204 Highway.node[6].prot collisions ETV
vector 205 Highway.node[7].prot nodeId ETV
vector 206 Highway.node[7].prot busyTime ETV
vector 207 Highway.node[7].prot collisions ETV
vector 208 Highway.node[8].prot nodeId ETV
vector 209 Highway.node[8].prot busyTime ETV
vector 210 Highway.node[8].prot collisions ETV
vector 211 Highway.node[9].prot nodeId ETV
vector 212 Highway.node[9].prot busyTime ETV
vector 213 Highway.node[9].prot collisions ETV
vector 214 Highway.node[10].prot nodeId ETV
vector 215 Highway.node[10].prot busyTime ETV
vector 216 Highway.node[10].prot collisions ETV
vector 217 Highway.node[11].prot nodeId ETV
vector 218 Highway.node[11].prot busyTime ETV
vector 219 Highway.node[11].prot collisions ETV
vector 220 Highway.node[12].prot nodeId ETV
vector 221 Highway.node[12].prot busyTime ETV
vector 222 Highway.node[12].prot collisions ETV
vector 223 Highway.node[13].prot nodeId ETV
vector 224 Highway.node[13].prot busyTime ETV
vector 225 Highway.node[13].prot collisions ETV
vector 226 Highway.node[14].prot nodeId ETV
vector 227 Highway.node[14].prot busyTime ETV
vector 228 Highway.node[14].prot collisions ETV
vector 229 Highway.node[15].prot nodeId ETV
vector 230 Highway.node[15].prot busyTime ETV
vector 231 Highway.node[15].prot collisions ETV
0	16701 17948 113 1332468 1.11 99.91 989 -1 9263.17 128709.38 1201289433.2846
1	34649 17041 113 1332468 1.11 99.91 989 -0.000161013 0 -0.00170862399 2.41073598487e-07
2	51690 16889 113 1332468 1.11 99.91 989 0 0 0 0
3	68579 19177 113 1332468 1.11 99.91 989 -3.14892e-05 0.000707784 0.010991577126781 6.0508064149601e-06
4	87756 26835 113 1332468 1.11 99.91 989 -4.89399e-05 0.00109259 0.010614843047836 8.6815283230331e-06
5	114591 22816 113 1332468 1.11 99.91 989 36.11 36.1111 35713.866699999 1289666.6073546
6	137407 22714 113 1332468 1.11 99.91 989 82.4099 3650.19 1845767.9425 4495959196.1736
7	160121 21834 113 1332468 1.11 99.91 989 242.45 242.45 239783.05 58135400.472499
8	181955 21435 114 1332469 1.11 99.91 989 -1 40.1132 4472.57121 111376.17189546
9	203390 23237 114 1332469 1.11 99.91 989 -2.36679e-05 1.20972 105.28123476377 108.71442447002
10	226627 17878 114 1332469 1.11 99.91 989 1 1 989 989
11	244505 27387 114 1332469 1.11 99.91 989 -0.714684 0.0625892 -11.06270572435 6.3211705567997
12	271892 27377 114 1332469 1.11 99.91 989 -1.09782 0.0884389 -10.313186095804 8.7139825536132
13	299269 22871 114 1332469 1.11 99.91 989 34.9014 36.1111 35332.1796 1262513.1039894
14	322140 23734 114 1332469 1.11 99.91 989 76.4099 3606.07 1832869.9573 4430487586.0313
15	345874 22823 114 1332469 1.11 99.91 989 242.45 245.75 240634.45 58551053.9525
16	368697 23219 115 1332470 1.11 99.91 989 1.99999 42.9547 13240.73905 442542.10224562
17	391916 25694 115 1332470 1.11 99.91 989 -4.92179e-06 4.93631 307.15474371167 650.72943449667
18	417610 18867 115 1332470 1.11 99.91 989 10 10 9890 98900
19	436477 26253 115 1332470 1.11 99.91 989 -2.76815 1.42476 -12.31079070881 186.50162730936
20	462730 26199 115 1332470 1.11 99.91 989 -3.51939 1.5 -9.635335599189 250.99175864252
21	488929 23710 115 1332470 1.11 99.91 989 30.0161 36.1111 34913.9064 1233819.5321481
22	512639 23664 115 1332470 1.11 99.91 989 22.4099 3510.25 1764932.3694 4155861329.0638
23	536303 22823 115 1332470 1.11 99.91 989 242.45 245.75 240835.75 58649328.6125
24	559126 22984 116 1332471 1.11 99.91 989 -1 64.5899 15836.93516 741160.84269244
25	582110 24463 116 1332471 1.11 99.91 989 -2.78245e-06 4.9428 389.38679806099 756.44511288557
26	606573 18867 116 1332471 1.11 99.91 989 11 11 10879 119669
27	625440 26879 116 1332471 1.11 99.91 989 -3.05702 1.47821 -11.07627049573 178.3705883989
28	652319 26808 116 1332471 1.11 99.91 989 -3.52312 1.5 -7.9038543227896 252.62979367214
29	679127 22727 116 1332471 1.11 99.91 989 31.0512 36.1111 35122.6037 1247970.004981
30	701854 23723 116 1332471 1.11 99.91 989 16.4099 3525.11 1763377.6955 4162359767.947
31	725577 22823 116 1332471 1.11 99.91 989 242.45 249.05 241928.05 59189667.972501
32	748400 18867 117 1332472 1.11 99.91 989 -1 -1 -989 989
33	767267 17878 117 1332472 1.11 99.91 989 0 0 0 0
34	785145 18867 117 1332472 1.11 99.91 989 12 12 11868 142416
35	804012 20166 117 1332472 1.11 99.91 989 -3.14892e-05 0.000707784 0.010991577126781 6.0508064149601e-06
36	824178 27824 117 1332472 1.11 99.91 989 -4.89399e-05 0.00109259 0.010614843047836 8.6815283230331e-06
37	852002 23805 117 1332472 1.11 99.91 989 36.11 36.1111 35713.866699999 1289666.6073546
38	875807 23612 117 1332472 1.11 99.91 989 9367.58 12935.4 11028800.69 124038512918.88
39	899419 22823 117 1332472 1.11 99.91 989 242.45 242.45 239783.05 58135400.472499
40	922242 21618 118 1332473 1.11 99.91 989 -1 14.9837 5573.2185 79262.741071282
41	943860 22370 118 1332473 1.11 99.91 989 -1.82116e-05 1.03507 129.83829108654 88.991385230642
42	966230 18867 118 1332473 1.11 99.91 989 13 13 12857 167141
43	985097 25581 118 1332473 1.11 99.91 989 -0.393657 0.0836412 -1.0687515042043 3.6235578278665
44	1010678 27270 118 1332473 1.11 99.91 989 -0.518252 0.0843286 -0.57532137649064 4.2175400849014
45	1037948 21986 118 1332473 1.11 99.91 989 35.076 36.1111 35537.5983 1277030.2370867
46	1059934 23723 118 1332473 1.11 99.91 989 9361.58 12911.7 11011496.13 123643516162.62
47	1083657 22823 118 1332473 1.11 99.91 989 242.45 245.75 241185.55 58820100.9725
48	1106480 23700 119 1332474 1.11 99.91 989 2 161.602 46361.95409 4581744.3244419
49	1130180 24521 119 1332474 1.11 99.91 989 0 3.21027 1407.7412683266 4012.1008486291
50	1154701 18867 119 1332474 1.11 99.91 989 14 14 13846 193844
51	1173568 25759 119 1332474 1.11 99.91 989 -1.4333 0.129363 -31.058030342567 44.926380366399
52	1199327 26706 119 1332474 1.11 99.91 989 -1.5 0.130142 -30.081986094987 53.490199209617
53	1226033 22176 119 1332474 1.11 99.91 989 32.9008 36.1111 34176.2875 1182875.229883
54	1248209 23644 119 1332474 1.11 99.91 989 9355.58 12769.8 10970245.1 122655846267.49
55	1271853 22823 119 1332474 1.11 99.91 989 242.45 242.45 239783.05 58135400.472499
56	1294676 21880 120 1332475 1.11 99.91 989 -1 38.7595 7091.44223 141790.11275672
57	1316556 22610 120 1332475 1.11 99.91 989 -0.0023175 1.14023 178.01314167143 105.80161614766
58	1339166 18867 120 1332475 1.11 99.91 989 15 15 14835 222525
59	1358033 25992 120 1332475 1.11 99.91 989 -1.49579 1.37686 18.925628402287 56.438439055933
60	1384025 26558 120 1332475 1.11 99.91 989 -2.51498 1.5 20.569836919714 78.208009000418
61	1410583 22472 120 1332475 1.11 99.91 989 33.6774 38.0952 35926.6238 1306968.0836868
62	1433055 23704 120 1332475 1.11 99.91 989 9349.58 12938.5 10990055.8 123180476518.82
63	1456759 22823 120 1332475 1.11 99.91 989 242.45 252.35 242541.85 59492374.332502
64	1479582 23648 121 1332476 1.11 99.91 989 2 65.359 14463.72084 547480.6421164
65	1503230 25584 121 1332476 1.11 99.91 989 0 3.0269 649.75719864779 1319.6379468151
66	1528814 17878 121 1332476 1.11 99.91 989 2 2 1978 3956
67	1546692 27175 121 1332476 1.11 99.91 989 -1.9139 0.334962 -21.049416652423 46.553277159749
68	1573867 27185 121 1332476 1.11 99.91 989 -2.9204 0.377803 -19.677284578665 65.596371480878
69	1601052 23051 121 1332476 1.11 99.91 989 33.0842 36.1111 34958.83 1236758.6132076
70	1624103 23727 121 1332476 1.11 99.91 989 70.4099 3562.79 1819693.1373 4363988846.7384
71	1647830 22823 121 1332476 1.11 99.91 989 242.45 242.45 239783.05 58135400.472499
72	1670653 23678 122 1332477 1.11 99.91 989 2 41.2196 11794.14581 349885.29077585
73	1694331 25723 122 1332477 1.11 99.91 989 -0.0002301 3.48689 392.27250332277 748.92116481523
74	1720054 17878 122 1332477 1.11 99.91 989 3 3 2967 8901
75	1737932 26463 122 1332477 1.11 99.91 989 -2.79649 0.649864 -22.576568243083 148.57230050349
76	1764395 26467 122 1332477 1.11 99.91 989 -3.52139 0.697875 -20.970006386199 181.18233903465
77	1790862 23689 122 1332477 1.11 99.91 989 29.8479 36.1111 34566.5562 1210933.871977
78	1814551 23696 122 1332477 1.11 99.91 989 64.4099 3517.57 1803943.4532 4282638904.5141
79	1838247 22823 122 1332477 1.11 99.91 989 242.45 242.45 239783.05 58135400.472499
80	1861070 23647 123 1332478 1.11 99.91 989 1.99996 41.0026 11315.26018 329258.21786816
81	1884717 25714 123 1332478 1.11 99.91 989 -0.00021646 3.42656 390.11235586277 735.16182973308
82	1910431 17878 123 1332478 1.11 99.91 989 4 4 3956 15824
83	1928309 26279 123 1332478 1.11 99.91 989 -3.07114 0.903911 -24.306194029086 252.97936999889
84	1954588 26320 123 1332478 1.11 99.91 989 -3.52459 0.954453 -22.580789675141 287.54868169065
85	1980908 23710 123 1332478 1.11 99.91 989 26.9634 36.1111 34176.4439 1186621.7136579
86	2004618 23696 123 1332478 1.11 99.91 989 58.4099 3472.57 1788672.2703 4204743526.8847
87	2028314 22823 123 1332478 1.11 99.91 989 242.45 242.45 239783.05 58135400.472499
88	2051137 23504 124 1332479 1.11 99.91 989 2 40.7394 10839.44511 308888.90632925
89	2074641 25642 124 1332479 1.11 99.91 989 -4.86953e-06 3.37108 387.50539222225 723.17854706381
90	2100283 17878 124 1332479 1.11 99.91 989 5 5 4945 24725
91	2118161 26148 124 1332479 1.11 99.91 989 -3.13074 1.11233 -26.514012393294 347.87727343292
92	2144309 26179 124 1332479 1.11 99.91 989 -3.52444 1.16254 -24.567489745411 382.11701034381
93	2170488 23695 124 1332479 1.11 99.91 989 24.3881 36.1111 33788.9401 1163696.7436864
94	2194183 23710 124 1332479 1.11 99.91 989 52.4099 3427.83 1773876.6456 4130247034.6003
95	2217893 22823 124 1332479 1.11 99.91 989 242.45 242.45 239783.05 58135400.472499
96	2240716 23577 125 1332480 1.11 99.91 989 0.721085 51.9572 13831.720815 557486.10132856
97	2264293 25923 125 1332480 1.11 99.91 989 -0.769362 11.4167 509.48594354121 4255.5891625383
98	2290216 17878 125 1332480 1.11 99.91 989 6 6 5934 35604
99	2308094 26379 125 1332480 1.11 99.91 989 -3.13739 1.5 -11.166329151148 538.43265643775
100	2334473 27147 125 1332480 1.11 99.91 989 -3.52424 1.5 -9.7047897512625 576.56420752509
101	2361620 24696 125 1332480 1.11 99.91 989 22.0804 36.1111 34181.8033 1192418.8341631
102	2386316 24701 125 1332480 1.11 99.91 989 46.4099 3461.04 1769892.9759 4124226721.7343
103	2411017 23812 125 1332480 1.11 99.91 989 242.45 245.75 240687.25 58576830.9125
104	2434829 22488 126 1332481 1.11 99.91 989 -1 2.9752 1261.95233 4412.0688487363
105	2457317 24398 126 1332481 1.11 99.91 989 -1.71773e-06 0.0353874 9.7532834133082 0.24498667336826
106	2481715 18867 126 1332481 1.11 99.91 989 7 7 6923 48461
107	2500582 27410 126 1332481 1.11 99.91 989 -0.0908312 0.0130507 -1.0619475694419 0.2359192267846
108	2527992 28209 126 1332481 1.11 99.91 989 -0.0965712 0.013089 -0.59147559669881 0.21959191426471
109	2556201 23357 126 1332481 1.11 99.91 989 35.8111 36.1111 35607.0043 1281967.407648
110	2579558 24419 126 1332481 1.11 99.91 989 40.4099 3597.5 1798540.4596 4315726382.2063
111	2603977 23812 126 1332481 1.11 99.91 989 242.45 249.05 241914.85 59182766.352501
112	2627789 24199 127 1332482 1.11 99.91 989 -1 44.9533 14438.32158 570295.19102886
113	2651988 27186 127 1332482 1.11 99.91 989 -0.00135793 1.05854 49.194835819612 40.493247355832
114	2679174 18867 127 1332482 1.11 99.91 989 8 8 7912 63296
115	2698041 27989 127 1332482 1.11 99.91 989 -0.711017 0.0376384 -11.039144415013 6.3206776955204
116	2726030 27991 127 1332482 1.11 99.91 989 -1.08243 0.0567591 -9.9140410675064 8.2081985565775
117	2754021 23683 127 1332482 1.11 99.91 989 34.9415 36.1111 35263.5195 1257569.8968118
118	2777704 24721 127 1332482 1.11 99.91 989 34.4099 3557.21 1786454.7107 4255984080.9665
119	2802425 23812 127 1332482 1.11 99.91 989 242.45 245.75 240911.65 58686382.9925
120	2826237 23853 128 1332483 1.11 99.91 989 -1 57.4399 14546.484417 712372.25776432
121	2850090 26952 128 1332483 1.11 99.91 989 -1.18296 11.6088 135.04974141282 1696.7584458744
122	2877042 18867 128 1332483 1.11 99.91 989 9 9 8901 80109
123	2895909 27413 128 1332483 1.11 99.91 989 -2.90906 1.5 -11.061567278916 501.21308289277
124	2923322 27184 128 1332483 1.11 99.91 989 -2.96381 1.5 -10.787239226164 549.5657528025
125	2950506 24155 128 1332483 1.11 99.91 989 22.9302 36.1111 34389.8141 1203728.4784165
126	2974661 24713 128 1332483 1.11 99.91 989 28.4099 3463.84 1756288.3175 4088536186.8573
127	2999374 23812 128 1332483 1.11 99.91 989 242.45 252.35 241858.75 59157512.772501
128	3023186 41313 1510 1332527 1.217220980678 99.917225391817 988 0.099989960664 0.100011580525 98.799994371803 9.8799989063875
129	3064499 28624 1510 1332527 1.217220980678 99.917225391817 988 2 2 1976 3952
130	3093123 41334 1609 1332668 1.221323080747 99.921328186598 988 0.099989960664 0.100011580528 98.799995066515 9.8799990454122
131	3134457 28631 1609 1332668 1.221323080747 99.921328186598 988 7 7 6916 48412
132	3163088 41346 1702 1332737 1.239556140789 99.93956090096 988 0.099989960664 0.100011580534 98.799994720835 9.8799989760659
133	3204434 29624 1702 1332737 1.239556140789 99.93956090096 988 10 10 9880 98800
134	3234058 41340 1791 1332814 1.244022140098 99.94402245002 988 0.099993626245 0.100012101579 98.799998430006 9.8799997034516
135	3275398 29578 1791 1332814 1.244022140098 99.94402245002 988 14 14 13832 193648
136	3304976 41349 1841 1332852 1.246323220844 99.94632797955 988 0.099989960665 0.10000596067 98.80000771937 9.8800015754651
137	3346325 28631 1841 1332852 1.246323220844 99.94632797955 988 6 6 5928 35568
138	3374956 41321 1933 1332956 1.248215320913 99.948220194181 988 0.099989960665 0.10000596067 98.800007833932 9.8800015983786
139	3416277 29610 1933 1332956 1.248215320913 99.948220194181 988 11 11 10868 119548
140	3445887 41329 2136 1333159 1.256458420982 99.956463570653 988 0.099989960664 0.100011272347 98.800008110335 9.8800016538781
141	3487216 28628 2136 1333159 1.256458420982 99.956463570653 988 8 8 7904 63232
142	3515844 41342 2213 1333236 1.266272160112 99.966272135046 988 0.099993626244 0.100012103408 98.799998095018 9.8799996364557
143	3557186 29587 2213 1333236 1.266272160112 99.966272135046 988 13 13 12844 166972
144	3586773 41342 2213 1333236 1.266272160112 99.966272135046 988 0.099993626244 0.100012103408 98.799998095018 9.8799996364557
145	3628115 29587 2213 1333236 1.266272160112 99.966272135046 988 13 13 12844 166972
146	3657702 41370 2219 1333242 1.266272180126 99.966272608479 988 0.099993626255 0.100012104409 98.799998548437 9.8799997271394
147	3699072 29603 2219 1333242 1.266272180126 99.966272608479 988 14 14 13832 193648
148	3728675 41340 2225 1333230 1.26627220014 99.966272080072 988 0.099993626275 0.100012103441 98.799998000016 9.8799996174552
149	3770015 29599 2225 1333230 1.26627220014 99.966272080072 988 15 15 14820 222300
150	3799614 41286 2271 1333300 1.283765501037 99.983757853451 988 0.099989960664 0.10001148269 98.799995313078 9.8799990948444
151	3840900 28577 2271 1333300 1.283765501037 99.983757853451 988 4 4 3952 15808
152	3869477 41343 2369 1333404 1.284253521051 99.984246005046 988 0.099989960664 0.100011482689 98.799995444659 9.8799991211608
153	3910820 28637 2369 1333404 1.284253521051 99.984246005046 988 3 3 2964 8892
154	3939457 41321 2502 1333531 1.292125561079 99.992118304506 988 0.099989960664 0.100011337311 98.799995704091 9.8799991728914
155	3980778 28624 2502 1333531 1.292125561079 99.992118304506 988 5 5 4940 24700
156	4009402 41297 2594 1333611 1.296344641134 99.996350895894 988 0.099989960664 0.100011152708 98.799996215424 9.8799992748935
157	4050699 28592 2594 1333611 1.296344641134 99.996350895894 988 1 1 988 988
158	4079291 41297 2594 1333611 1.296344641134 99.996350895894 988 0.099989960664 0.100011152708 98.799996215424 9.8799992748935
159	4120588 28592 2594 1333611 1.296344641134 99.996350895894 988 1 1 988 988
160	4149180 41354 2600 1333623 1.296344661148 99.996351040578 988 0.099989960664 0.100011152713 98.799996340094 9.8799992998275
161	4190534 28646 2600 1333623 1.296344661148 99.996351040578 988 2 2 1976 3952
162	4219180 41338 2606 1333641 1.296344681162 99.99635119146 988 0.099989960664 0.10001115272 98.799996470962 9.8799993260011
163	4260518 28633 2606 1333641 1.296344681162 99.99635119146 988 3 3 2964 8892
164	4289151 41329 2612 1333653 1.296344701175 99.996351341625 988 0.099989960664 0.100011152727 98.799996601114 9.8799993520315
165	4330480 28627 2612 1333653 1.296344701175 99.996351341625 988 4 4 3952 15808
166	4359107 41315 2618 1333671 1.296344721189 99.996351490926 988 0.099989960664 0.100011152737 98.799996730401 9.8799993778889
167	4400422 28614 2618 1333671 1.296344721189 99.996351490926 988 5 5 4940 24700
168	4429036 41327 2624 1333665 1.296344741203 99.996351379786 988 0.099989960664 0.100011152747 98.799996599247 9.8799993516581
169	4470363 28617 2624 1333665 1.296344741203 99.996351379786 988 6 6 5928 35568
170	4498980 41338 2630 1333617 1.296344761217 99.996350924518 988 0.099989960664 0.100011152758 98.799996123965 9.8799992566017
171	4540318 28642 2630 1333617 1.296344761217 99.996350924518 988 7 7 6916 48412
172	4568960 41334 2636 1333629 1.296344781231 99.996351059089 988 0.099989960664 0.100011152769 98.799996238522 9.8799992795131
173	4610294 28627 2636 1333629 1.296344781231 99.996351059089 988 8 8 7904 63232
174	4638921 41349 2642 1333659 1.296344801245 99.996351370734 988 0.099989960664 0.100011152779 98.799996530153 9.8799993378393
175	4680270 28632 2642 1333659 1.296344801245 99.996351370734 988 9 9 8892 80028
176	4708902 41351 2648 1333647 1.296344821258 99.996351215687 988 0.099989960664 0.100011152789 98.799996355093 9.8799993028273
177	4750253 29628 2648 1333647 1.296344821258 99.996351215687 988 10 10 9880 98800
178	4779881 41325 2654 1333635 1.296344841272 99.99635116652 988 0.099989960664 0.100011152798 98.799996285912 9.8799992889911
179	4821206 29614 2654 1333635 1.296344841272 99.99635116652 988 11 11 10868 119548
180	4850820 41310 2699 1332420 1.303241801245 99.903243395673 987 0.099989960664 0.100011272151 98.700004555092 9.8700009428192
181	4892130 28603 2699 1332420 1.303241801245 99.903243395673 987 9 9 8883 79947
182	4920733 41305 2781 1332466 1.305923240168 99.9059250656 987 0.099993626243 0.100012104002 98.699999945516 9.8700000065526
183	4962038 29565 2781 1332466 1.305923240168 99.9059250656 987 15 15 14805 222075
184	4991603 1595 12022 1333673 2 100 99 0 0 0 0
185	4993198 2208 12022 1333673 2 100 99 0.033393 0.039192076002 3.706724076002 0.13880558963135
186	4995406 1595 12022 1333673 2 100 99 0 0 0 0
187	4997001 1595 12023 1333674 2 100 99 1 1 99 99
188	4998596 2208 12023 1333674 2 100 99 0.033393 0.038826 3.706070046036 0.13875538781145
189	5000804 1595 12023 1333674 2 100 99 0 0 0 0
190	5002399 1694 12024 1333675 2 100 99 10 10 990 9900
191	5004093 2208 12024 1333675 2 100 99 0.033393 0.038826 3.706070464924 0.13875541930785
192	5006301 1595 12024 1333675 2 100 99 0 0 0 0
193	5007896 1694 12025 1333676 2 100 99 11 11 1089 11979
194	5009590 2208 12025 1333676 2 100 99 0.033393 0.038859511532 3.706070511532 0.13875550752951
195	5011798 1595 12025 1333676 2 100 99 0 0 0 0
196	5013393 1694 12026 1333677 2 100 99 12 12 1188 14256
197	5015087 2200 12026 1333677 2 100 99 0.010929 0.013069758928 1.235865758928 0.015430733472436
198	5017287 1595 12026 1333677 2 100 99 0 0 0 0
199	5018882 1694 12027 1333678 2 100 99 13 13 1287 16731
200	5020576 2198 12027 1333678 2 100 99 0.010929 0.01297 1.23573412609 0.01542733160031
201	5022774 1595 12027 1333678 2 100 99 0 0 0 0
202	5024369 1694 12028 1333679 2 100 99 14 14 1386 19404
203	5026063 2199 12028 1333679 2 100 99 0.010928 0.01297 1.235733252586 0.015427312939912
204	5028262 1595 12028 1333679 2 100 99 0 0 0 0
205	5029857 1694 12029 1333680 2 100 99 15 15 1485 22275
206	5031551 2200 12029 1333680 2 100 99 0.010929 0.013003379186 1.235734379186 0.015427362563255
207	5033751 1595 12029 1333680 2 100 99 0 0 0 0
208	5035346 1595 12030 1333681 2 100 99 2 2 198 396
209	5036941 2207 12030 1333681 2 100 99 0.033393 0.038826 3.70607009239 0.13875539129681
210	5039148 1595 12030 1333681 2 100 99 0 0 0 0
211	5040743 1595 12031 1333682 2 100 99 3 3 297 891
212	5042338 2208 12031 1333682 2 100 99 0.033393 0.038826 3.706070138866 0.13875539479135
213	5044546 1595 12031 1333682 2 100 99 0 0 0 0
214	5046141 1595 12032 1333683 2 100 99 4 4 396 1584
215	5047736 2207 12032 1333683 2 100 99 0.033393 0.038826 3.70607018539 0.13875539828951
216	5049943 1595 12032 1333683 2 100 99 0 0 0 0
217	5051538 1595 12033 1333684 2 100 99 5 5 495 2475
218	5053133 2208 12033 1333684 2 100 99 0.033393 0.038826 3.706070231948 0.13875540179022
219	5055341 1595 12033 1333684 2 100 99 0 0 0 0
220	5056936 1595 12034 1333685 2 100 99 6 6 594 3564
221	5058531 2208 12034 1333685 2 100 99 0.033393 0.038826 3.706070278522 0.13875540529215
222	5060739 1595 12034 1333685 2 100 99 0 0 0 0
223	5062334 1595 12035 1333686 2 100 99 7 7 693 4851
224	5063929 2208 12035 1333686 2 100 99 0.033393 0.038826 3.706070325104 0.13875540879468
225	5066137 1595 12035 1333686 2 100 99 0 0 0 0
226	5067732 1595 12036 1333687 2 100 99 8 8 792 6336
227	5069327 2208 12036 1333687 2 100 99 0.033392 0.038826 3.706069371708 0.13875534551386
228	5071535 1595 12036 1333687 2 100 99 0 0 0 0
229	5073130 1595 12037 1333688 2 100 99 9 9 891 8019
230	5074725 2208 12037 1333688 2 100 99 0.033393 0.038826 3.706070418308 0.13875541580275
231	5076933 1595 12037 1333688 2 100 99 0 0 0 0

