version 3
run BreakRanksNoGui-1607-20240711-18:32:59-303854
attr configname BreakRanksNoGui
attr datetime 20240711-18:32:59
attr datetimef 20240711-183259
attr experiment BreakRanksNoGui
attr inifile omnetpp.ini
attr iterationvars "$nCars=6, $platoonSize=3, $nLanes=1, $ploegH=0.5, $controller=1, $headway=0.1, $leaderHeadway=1.2, $leaderSpeed=110, $breakRanksSafetyDistance=15, $minSpeed=100, $maxSpeed=120, $beaconInterval=0.1, $priority=4, $packetSize=200, $sController=\"CACC\", $0=2, $1=0"
attr iterationvarsd nCars=6/platoonSize=3/nLanes=1/ploegH=0.5/controller=1/headway=0.1/leaderHeadway=1.2/leaderSpeed=110/breakRanksSafetyDistance=15/minSpeed=100/maxSpeed=120/beaconInterval=0.1/priority=4/packetSize=200/sController=CACC/2/0
attr iterationvarsf nCars=6,platoonSize=3,nLanes=1,ploegH=0.5,controller=1,headway=0.1,leaderHeadway=1.2,leaderSpeed=110,breakRanksSafetyDistance=15,minSpeed=100,maxSpeed=120,beaconInterval=0.1,priority=4,packetSize=200,sController=CACC,2,0-
attr measurement "$nCars=6, $platoonSize=3, $nLanes=1, $ploegH=0.5, $controller=1, $headway=0.1, $leaderHeadway=1.2, $leaderSpeed=110, $breakRanksSafetyDistance=15, $minSpeed=100, $maxSpeed=120, $beaconInterval=0.1, $priority=4, $packetSize=200, $sController=\"CACC\", $0=2, $1=0"
attr network Highway
attr processid 303854
attr repetition 7
attr replication #7
attr resultdir results
attr runnumber 1607
attr seedset 7
itervar beaconInterval 0.1
itervar breakRanksSafetyDistance 15
itervar controller 1
itervar headway 0.1
itervar leaderHeadway 1.2
itervar leaderSpeed 110
itervar maxSpeed 120
itervar minSpeed 100
itervar nCars 6
itervar nLanes 1
itervar packetSize 200
itervar platoonSize 3
itervar ploegH 0.5
itervar priority 4
itervar sController "\"CACC\""
config image-path ../../../veins/images
config repeat 10
config extends BreakRanks
config *.manager.command "\"sumo\""
config *.manager.ignoreGuiCommands true
config output-vector-file "results/BreakRanks_1_0.1_110_15_3 /result_7.vec"
config output-scalar-file "results/BreakRanks_1_0.1_110_15_3 /result_7.sca"
config extends Platooning
config *.node[*].scenario_type "\"BreakRanksScenario\""
config *.manager.command "\"sumo-gui\""
config *.node[*].scenario_type "\"SimpleScenario\""
config cmdenv-express-mode true
config cmdenv-autoflush true
config cmdenv-status-frequency 15s
config num-rngs 6
config network Highway
config debug-on-errors true
config print-undisposed true
config *.playgroundSizeX 65000m
config *.playgroundSizeY 25000m
config *.playgroundSizeZ 50m
config sim-time-limit "100 s"
config *.annotations.draw false
config *.obstacles.debug false
config *.world.useTorus false
config *.world.use2D false
config *.manager.updateInterval 0.01s
config *.manager.host "\"localhost\""
config *.manager.moduleType "\"org.car2x.plexe.PlatoonCar\""
config *.manager.moduleName "\"node\""
config *.manager.moduleDisplayString "\"\""
config *.manager.autoShutdown true
config *.manager.margin 25
config *.connectionManager.sendDirect true
config *.connectionManager.maxInterfDist 2600m
config *.connectionManager.drawMaxIntfDist false
config *.**.nic.mac1609_4.useServiceChannel false
config *.**.nic.mac1609_4.txPower 100mW
config *.**.nic.mac1609_4.bitrate 6Mbps
config *.**.nic.mac1609_4.useAcks true
config *.**.nic.mac1609_4.ackErrorRate 0.0
config *.**.nic.mac1609_4.frameErrorRate 0.0
config *.**.nic.phy80211p.minPowerLevel -94dBm
config *.**.nic.phy80211p.maxTXPower 100mW
config *.**.nic.phy80211p.useNoiseFloor true
config *.**.nic.phy80211p.noiseFloor -95dBm
config *.**.nic.phy80211p.decider "xmldoc(\"config.xml\")"
config *.**.nic.phy80211p.analogueModels "xmldoc(\"config.xml\")"
config *.**.nic.phy80211p.usePropagationDelay true
config *.node[*].mobility.x 0
config *.node[*].mobility.y 0
config *.node[*].mobility.z 1.895
config seed-set 7
config **.seed 7
config *.node[*].prot.rng-0 2
config *.node[*].appl.rng-0 3
config *.node[*].scenario.rng-0 4
config **.traffic.rng-0 5
config *.manager.configFile "\"./sumocfg/freeway.sumo.cfg\""
config *.manager.launchConfig "xmldoc(\"./sumocfg/freeway.launchd.xml\")"
config **.numberOfCars 6
config **.numberOfCarsPerPlatoon 3
config **.numberOfLanes 1
config *.node[*].helper_type "\"PositionHelper\""
config *.node[*].scenario.caccC1 0.5
config *.node[*].scenario.caccXi 1
config *.node[*].scenario.caccOmegaN "0.2 Hz"
config *.node[*].scenario.caccSpacing "2 m"
config *.node[*].scenario.engineTau "0.5 s"
config *.node[*].scenario.ploegH 0.5s
config *.node[*].scenario.ploegKp 0.2
config *.node[*].scenario.ploegKd 0.7
config *.node[*].scenario.useRealisticEngine false
config *.node[*].scenario.useControllerAcceleration true
config *.node[*].scenario.nLanes 1
config **.numericController 1
config **.headway 0.1s
config *.node[*].scenario.accHeadway 0.1s
config *.node[*].scenario.leaderHeadway 1.2s
config *.node[*].scenario.leaderSpeed 110kmph
config *.node[*].appl_type "\"SimplePlatooningApp\""
config *.node[*].appl.*.scalar-recording true
config *.node[*].appl.*.vector-recording true
config *.node[0].appl.breakRanksSafetyDistance 15m
config *.node[*].appl.minSpeed 100kmph
config *.node[*].appl.maxSpeed 120kmph
config *.node[*].protocol_type "\"SimplePlatooningBeaconing\""
config *.node[*].prot.*.scalar-recording true
config *.node[*].prot.*.vector-recording true
config *.node[*].prot.beaconingInterval 0.1s
config *.node[*].prot.priority 4
config *.node[*].prot.packetSize 200
config **.traffic_type "\"PlatoonsTrafficManager\""
config **.traffic.platoonInsertTime "1 s"
config **.traffic.platoonInsertSpeed 110kmph
config **.traffic.nCars 6
config **.traffic.platoonSize 3
config **.traffic.nLanes 1
config **.traffic.platooningVType "\"vtypeauto\""
config **.traffic.controller "\"CACC\""
config **.traffic.platoonInsertDistance 2m
config **.traffic.platoonInsertHeadway 0s
config **.traffic.platoonLeaderHeadway 1.2s
config **.scalar-recording false
config **.vector-recording false

vector 0 Highway.node[0].appl distance ETV
vector 1 Highway.node[0].appl relativeSpeed ETV
vector 2 Highway.node[0].appl nodeId ETV
vector 3 Highway.node[0].appl acceleration ETV
vector 4 Highway.node[0].appl controllerAcceleration ETV
vector 5 Highway.node[0].appl speed ETV
vector 6 Highway.node[0].appl posx ETV
vector 7 Highway.node[0].appl posy ETV
vector 8 Highway.node[1].appl distance ETV
vector 9 Highway.node[1].appl relativeSpeed ETV
vector 10 Highway.node[1].appl nodeId ETV
vector 11 Highway.node[1].appl acceleration ETV
vector 12 Highway.node[1].appl controllerAcceleration ETV
vector 13 Highway.node[1].appl speed ETV
vector 14 Highway.node[1].appl posx ETV
vector 15 Highway.node[1].appl posy ETV
vector 16 Highway.node[2].appl distance ETV
vector 17 Highway.node[2].appl relativeSpeed ETV
vector 18 Highway.node[2].appl nodeId ETV
vector 19 Highway.node[2].appl acceleration ETV
vector 20 Highway.node[2].appl controllerAcceleration ETV
vector 21 Highway.node[2].appl speed ETV
vector 22 Highway.node[2].appl posx ETV
vector 23 Highway.node[2].appl posy ETV
vector 24 Highway.node[3].appl distance ETV
vector 25 Highway.node[3].appl relativeSpeed ETV
vector 26 Highway.node[3].appl nodeId ETV
vector 27 Highway.node[3].appl acceleration ETV
vector 28 Highway.node[3].appl controllerAcceleration ETV
vector 29 Highway.node[3].appl speed ETV
vector 30 Highway.node[3].appl posx ETV
vector 31 Highway.node[3].appl posy ETV
vector 32 Highway.node[4].appl distance ETV
vector 33 Highway.node[4].appl relativeSpeed ETV
vector 34 Highway.node[4].appl nodeId ETV
vector 35 Highway.node[4].appl acceleration ETV
vector 36 Highway.node[4].appl controllerAcceleration ETV
vector 37 Highway.node[4].appl speed ETV
vector 38 Highway.node[4].appl posx ETV
vector 39 Highway.node[4].appl posy ETV
vector 40 Highway.node[5].appl distance ETV
vector 41 Highway.node[5].appl relativeSpeed ETV
vector 42 Highway.node[5].appl nodeId ETV
vector 43 Highway.node[5].appl acceleration ETV
vector 44 Highway.node[5].appl controllerAcceleration ETV
vector 45 Highway.node[5].appl speed ETV
vector 46 Highway.node[5].appl posx ETV
vector 47 Highway.node[5].appl posy ETV
vector 48 Highway.node[4].prot leaderDelay ETV
vector 49 Highway.node[4].prot leaderDelayId ETV
vector 50 Highway.node[4].prot frontDelay ETV
vector 51 Highway.node[4].prot frontDelayId ETV
vector 52 Highway.node[5].prot leaderDelay ETV
vector 53 Highway.node[5].prot leaderDelayId ETV
vector 54 Highway.node[2].prot frontDelay ETV
vector 55 Highway.node[2].prot frontDelayId ETV
vector 56 Highway.node[5].prot frontDelay ETV
vector 57 Highway.node[5].prot frontDelayId ETV
vector 58 Highway.node[1].prot leaderDelay ETV
vector 59 Highway.node[1].prot leaderDelayId ETV
vector 60 Highway.node[1].prot frontDelay ETV
vector 61 Highway.node[1].prot frontDelayId ETV
vector 62 Highway.node[2].prot leaderDelay ETV
vector 63 Highway.node[2].prot leaderDelayId ETV
vector 64 Highway.node[0].prot nodeId ETV
vector 65 Highway.node[0].prot busyTime ETV
vector 66 Highway.node[0].prot collisions ETV
vector 67 Highway.node[1].prot nodeId ETV
vector 68 Highway.node[1].prot busyTime ETV
vector 69 Highway.node[1].prot collisions ETV
vector 70 Highway.node[2].prot nodeId ETV
vector 71 Highway.node[2].prot busyTime ETV
vector 72 Highway.node[2].prot collisions ETV
vector 73 Highway.node[3].prot nodeId ETV
vector 74 Highway.node[3].prot busyTime ETV
vector 75 Highway.node[3].prot collisions ETV
vector 76 Highway.node[4].prot nodeId ETV
vector 77 Highway.node[4].prot busyTime ETV
vector 78 Highway.node[4].prot collisions ETV
vector 79 Highway.node[5].prot nodeId ETV
vector 80 Highway.node[5].prot busyTime ETV
vector 81 Highway.node[5].prot collisions ETV
0	113	1.11	-1
0	429	1.21	-1
0	745	1.31	-1
0	1061	1.41	-1
0	1377	1.51	-1
0	1693	1.61	-1
0	2009	1.71	-1
0	2325	1.81	-1
0	2641	1.91	-1
0	2963	2.01	-1
0	3279	2.11	-1
0	3595	2.21	-1
0	3911	2.31	-1
0	4227	2.41	-1
0	4543	2.51	-1
0	4859	2.61	-1
0	5175	2.71	-1
0	5491	2.81	-1
0	5807	2.91	-1
0	6129	3.01	-1
0	6445	3.11	-1
0	6761	3.21	-1
0	7077	3.31	-1
0	7393	3.41	-1
0	7709	3.51	-1
0	8025	3.61	-1
0	8341	3.71	-1
0	8657	3.81	-1
0	8973	3.91	-1
0	9295	4.01	-1
0	9611	4.11	-1
0	9927	4.21	-1
0	10243	4.31	-1
0	10559	4.41	-1
0	10875	4.51	-1
0	11191	4.61	-1
0	11507	4.71	-1
0	11823	4.81	-1
0	12139	4.91	-1
0	12461	5.01	-1
0	12777	5.11	-1
0	13093	5.21	-1
0	13409	5.31	-1
0	13725	5.41	-1
0	14041	5.51	-1
0	14357	5.61	-1
0	14673	5.71	-1
0	14989	5.81	-1
0	15305	5.91	-1
0	15627	6.01	-1
0	15943	6.11	-1
0	16259	6.21	-1
0	16575	6.31	-1
0	16891	6.41	-1
0	17207	6.51	-1
0	17523	6.61	-1
0	17839	6.71	-1
0	18155	6.81	-1
0	18471	6.91	-1
0	18793	7.01	-1
0	19109	7.11	-1
0	19425	7.21	-1
0	19741	7.31	-1
0	20057	7.41	-1
0	20373	7.51	-1
0	20689	7.61	-1
0	21005	7.71	-1
0	21321	7.81	-1
0	21637	7.91	-1
0	21959	8.01	-1
0	22275	8.11	-1
0	22591	8.21	-1
0	22907	8.31	-1
0	23223	8.41	-1
0	23539	8.51	-1
0	23855	8.61	-1
0	24171	8.71	-1
0	24487	8.81	-1
0	24803	8.91	-1
0	25125	9.01	-1
0	25441	9.11	-1
0	25757	9.21	-1
0	26073	9.31	-1
0	26389	9.41	-1
0	26705	9.51	-1
0	27021	9.61	-1
0	27337	9.71	-1
0	27653	9.81	-1
0	27969	9.91	-1
0	28373	10.01	-1
0	28693	10.11	-1
0	29013	10.21	-1
0	29333	10.31	-1
0	29653	10.41	-1
0	29973	10.51	-1
0	30293	10.61	-1
0	30613	10.71	-1
0	30933	10.81	-1
0	31253	10.91	-1
0	31579	11.01	-1
0	31899	11.11	-1
0	32219	11.21	-1
0	32539	11.31	-1
0	32859	11.41	-1
0	33179	11.51	-1
0	33499	11.61	-1
0	33819	11.71	-1
0	34139	11.81	-1
0	34459	11.91	-1
0	34785	12.01	-1
0	35105	12.11	-1
0	35425	12.21	-1
0	35745	12.31	-1
0	36065	12.41	-1
0	36385	12.51	-1
0	36705	12.61	-1
0	37025	12.71	-1
0	37345	12.81	-1
0	37665	12.91	-1
0	37991	13.01	-1
0	38311	13.11	-1
0	38631	13.21	-1
0	38951	13.31	-1
0	39271	13.41	-1
0	39591	13.51	-1
0	39911	13.61	-1
0	40231	13.71	-1
0	40551	13.81	-1
0	40871	13.91	-1
0	41197	14.01	-1
0	41517	14.11	-1
0	41837	14.21	-1
0	42157	14.31	-1
0	42477	14.41	-1
0	42797	14.51	-1
0	43117	14.61	-1
0	43437	14.71	-1
0	43757	14.81	-1
0	44077	14.91	-1
0	44403	15.01	-1
0	44723	15.11	-1
0	45043	15.21	-1
0	45363	15.31	-1
0	45683	15.41	-1
0	46003	15.51	-1
0	46323	15.61	-1
0	46643	15.71	-1
0	46963	15.81	-1
0	47283	15.91	-1
0	47609	16.01	-1
0	47929	16.11	-1
0	48249	16.21	-1
0	48569	16.31	-1
0	48889	16.41	-1
0	49209	16.51	-1
0	49529	16.61	-1
0	49849	16.71	-1
0	50169	16.81	-1
0	50489	16.91	-1
0	50815	17.01	-1
0	51135	17.11	-1
0	51455	17.21	-1
0	51775	17.31	-1
0	52095	17.41	-1
0	52415	17.51	-1
0	52735	17.61	-1
0	53055	17.71	-1
0	53375	17.81	-1
0	53695	17.91	-1
0	54021	18.01	-1
0	54341	18.11	-1
0	54661	18.21	-1
0	54981	18.31	-1
0	55301	18.41	-1
0	55621	18.51	-1
0	55941	18.61	-1
0	56261	18.71	-1
0	56581	18.81	-1
0	56901	18.91	-1
0	57227	19.01	-1
0	57547	19.11	-1
0	57867	19.21	-1
0	58187	19.31	-1
0	58507	19.41	-1
0	58827	19.51	-1
0	59147	19.61	-1
0	59467	19.71	-1
0	59787	19.81	-1
0	60107	19.91	-1
0	60433	20.01	-1
0	60753	20.11	-1
0	61073	20.21	-1
0	61393	20.31	-1
0	61713	20.41	-1
0	62033	20.51	-1
0	62353	20.61	-1
0	62673	20.71	-1
0	62993	20.81	-1
0	63313	20.91	-1
0	63639	21.01	-1
0	63959	21.11	-1
0	64279	21.21	-1
0	64599	21.31	-1
0	64919	21.41	-1
0	65239	21.51	-1
0	65559	21.61	-1
0	65879	21.71	-1
0	66199	21.81	-1
0	66519	21.91	-1
0	66845	22.01	-1
0	67165	22.11	-1
0	67485	22.21	-1
0	67805	22.31	-1
0	68125	22.41	-1
0	68445	22.51	-1
0	68765	22.61	-1
0	69085	22.71	-1
0	69405	22.81	-1
0	69725	22.91	-1
0	70051	23.01	-1
0	70371	23.11	-1
0	70691	23.21	-1
0	71011	23.31	-1
0	71331	23.41	-1
0	71651	23.51	-1
0	71971	23.61	-1
0	72291	23.71	-1
0	72611	23.81	-1
0	72931	23.91	-1
0	73257	24.01	-1
0	73577	24.11	-1
0	73897	24.21	-1
0	74217	24.31	-1
0	74537	24.41	-1
0	74857	24.51	-1
0	75177	24.61	-1
0	75497	24.71	-1
0	75817	24.81	-1
0	76137	24.91	-1
0	76463	25.01	-1
0	76783	25.11	-1
0	77103	25.21	-1
0	77423	25.31	-1
0	77743	25.41	-1
0	78063	25.51	-1
0	78383	25.61	-1
0	78703	25.71	-1
0	79023	25.81	-1
0	79343	25.91	-1
0	79669	26.01	-1
0	79989	26.11	-1
0	80309	26.21	-1
0	80629	26.31	-1
0	80949	26.41	-1
0	81269	26.51	-1
0	81589	26.61	-1
0	81909	26.71	-1
0	82229	26.81	-1
0	82549	26.91	-1
0	82875	27.01	-1
0	83195	27.11	-1
0	83515	27.21	-1
0	83835	27.31	-1
0	84155	27.41	-1
0	84475	27.51	-1
0	84795	27.61	-1
0	85115	27.71	-1
0	85435	27.81	-1
0	85755	27.91	-1
0	86081	28.01	-1
0	86401	28.11	-1
0	86721	28.21	-1
0	87041	28.31	-1
0	87361	28.41	-1
0	87681	28.51	-1
0	88001	28.61	-1
0	88321	28.71	-1
0	88641	28.81	-1
0	88961	28.91	-1
0	89287	29.01	-1
0	89607	29.11	-1
0	89927	29.21	-1
0	90247	29.31	-1
0	90567	29.41	-1
0	90887	29.51	-1
0	91207	29.61	-1
0	91527	29.71	-1
0	91847	29.81	-1
0	92167	29.91	-1
0	92493	30.01	-1
0	92813	30.11	-1
0	93133	30.21	-1
0	93453	30.31	-1
0	93773	30.41	-1
0	94093	30.51	-1
0	94413	30.61	-1
0	94733	30.71	-1
0	95053	30.81	-1
0	95373	30.91	-1
0	95699	31.01	-1
0	96019	31.11	-1
0	96339	31.21	-1
0	96659	31.31	-1
0	96979	31.41	-1
0	97299	31.51	-1
0	97619	31.61	-1
0	97939	31.71	-1
0	98259	31.81	-1
0	98579	31.91	-1
0	98905	32.01	-1
0	99225	32.11	-1
0	99545	32.21	-1
0	99865	32.31	-1
0	100185	32.41	-1
0	100505	32.51	-1
0	100825	32.61	-1
0	101145	32.71	-1
0	101465	32.81	-1
0	101785	32.91	-1
0	102111	33.01	-1
0	102431	33.11	-1
0	102751	33.21	-1
0	103071	33.31	-1
0	103391	33.41	-1
0	103711	33.51	-1
0	104031	33.61	-1
0	104351	33.71	-1
0	104671	33.81	-1
0	104991	33.91	-1
0	105317	34.01	-1
0	105637	34.11	-1
0	105957	34.21	-1
0	106277	34.31	-1
0	106597	34.41	-1
0	106917	34.51	-1
0	107237	34.61	-1
0	107557	34.71	-1
0	107877	34.81	-1
0	108197	34.91	-1
0	108523	35.01	-1
0	108843	35.11	-1
0	109163	35.21	-1
0	109483	35.31	-1
0	109803	35.41	-1
0	110123	35.51	-1
0	110443	35.61	-1
0	110763	35.71	-1
0	111083	35.81	-1
0	111403	35.91	-1
0	111729	36.01	-1
0	112049	36.11	-1
0	112369	36.21	-1
0	112689	36.31	-1
0	113009	36.41	-1
0	113329	36.51	-1
0	113649	36.61	-1
0	113969	36.71	-1
0	114289	36.81	-1
0	114609	36.91	-1
0	114935	37.01	-1
0	115255	37.11	-1
0	115575	37.21	-1
0	115895	37.31	-1
0	116215	37.41	-1
0	116535	37.51	-1
0	116855	37.61	-1
0	117175	37.71	-1
0	117495	37.81	-1
0	117815	37.91	-1
0	118141	38.01	-1
0	118461	38.11	-1
0	118781	38.21	-1
0	119101	38.31	-1
0	119421	38.41	-1
0	119741	38.51	-1
0	120061	38.61	-1
0	120381	38.71	-1
0	120701	38.81	-1
0	121021	38.91	-1
0	121347	39.01	-1
0	121667	39.11	-1
0	121987	39.21	-1
0	122307	39.31	-1
0	122627	39.41	-1
0	122947	39.51	-1
0	123267	39.61	-1
0	123587	39.71	-1
0	123907	39.81	-1
0	124227	39.91	-1
0	124553	40.01	-1
0	124873	40.11	-1
0	125193	40.21	-1
0	125513	40.31	-1
0	125833	40.41	-1
0	126153	40.51	-1
0	126473	40.61	-1
0	126793	40.71	-1
0	127113	40.81	-1
0	127433	40.91	-1
0	127759	41.01	-1
0	128079	41.11	-1
0	128399	41.21	-1
0	128719	41.31	-1
0	129039	41.41	-1
0	129359	41.51	-1
0	129679	41.61	-1
0	129999	41.71	-1
0	130319	41.81	-1
0	130639	41.91	-1
0	130965	42.01	-1
0	131285	42.11	-1
0	131605	42.21	-1
0	131925	42.31	-1
0	132245	42.41	-1
0	132565	42.51	-1
0	132885	42.61	-1
0	133205	42.71	-1
0	133525	42.81	-1
0	133845	42.91	-1
0	134171	43.01	-1
0	134491	43.11	-1
0	134811	43.21	-1
0	135131	43.31	-1
0	135451	43.41	-1
0	135771	43.51	-1
0	136091	43.61	-1
0	136411	43.71	-1
0	136731	43.81	-1
0	137051	43.91	-1
0	137377	44.01	-1
0	137697	44.11	-1
0	138017	44.21	-1
0	138337	44.31	-1
0	138657	44.41	-1
0	138977	44.51	-1
0	139297	44.61	-1
0	139617	44.71	-1
0	139937	44.81	-1
0	140257	44.91	-1
0	140583	45.01	-1
0	140903	45.11	-1
0	141223	45.21	-1
0	141543	45.31	-1
0	141863	45.41	-1
0	142183	45.51	-1
0	142503	45.61	-1
0	142823	45.71	-1
0	143216	45.81	-1
0	143535	45.91	-1
0	143860	46.01	-1
0	144179	46.11	-1
0	144498	46.21	-1
0	144890	46.31	-1
0	145208	46.41	-1
0	145526	46.51	-1
0	145844	46.61	-1
0	146162	46.71	-1
0	146480	46.81	-1
0	146798	46.91	-1
0	147122	47.01	-1
0	147440	47.11	-1
0	147758	47.21	-1
0	148076	47.31	-1
0	148394	47.41	-1
0	148712	47.51	-1
0	149030	47.61	-1
0	149348	47.71	-1
0	149666	47.81	-1
0	149984	47.91	-1
0	150308	48.01	-1
0	150626	48.11	-1
0	150944	48.21	-1
0	151262	48.31	-1
0	151580	48.41	-1
0	151898	48.51	-1
0	152216	48.61	-1
0	152534	48.71	-1
0	152852	48.81	-1
0	153170	48.91	-1
0	153494	49.01	-1
0	153812	49.11	-1
0	154130	49.21	-1
0	154448	49.31	-1
0	154766	49.41	-1
0	155084	49.51	-1
0	155402	49.61	-1
0	155720	49.71	-1
0	156038	49.81	-1
0	156356	49.91	-1
0	156680	50.01	-1
0	156998	50.11	-1
0	157316	50.21	-1
0	157634	50.31	-1
0	157952	50.41	-1
0	158270	50.51	-1
0	158588	50.61	-1
0	158906	50.71	-1
0	159224	50.81	-1
0	159542	50.91	-1
0	159866	51.01	-1
0	160184	51.11	-1
0	160502	51.21	-1
0	160820	51.31	-1
0	161138	51.41	-1
0	161456	51.51	-1
0	161774	51.61	-1
0	162092	51.71	-1
0	162410	51.81	-1
0	162947	51.91	-1
0	163270	52.01	-1
0	163587	52.11	-1
0	163904	52.21	-1
0	164440	52.31	-1
0	164756	52.41	-1
0	165072	52.51	-1
0	165388	52.61	-1
0	165704	52.71	-1
0	166020	52.81	-1
0	166336	52.91	-1
0	166658	53.01	-1
0	166974	53.11	-1
0	167290	53.21	-1
0	167606	53.31	-1
0	167922	53.41	-1
0	168238	53.51	-1
0	168554	53.61	-1
0	168870	53.71	-1
0	169186	53.81	-1
0	169502	53.91	-1
0	169824	54.01	-1
0	170140	54.11	-1
0	170456	54.21	-1
0	170772	54.31	-1
0	171088	54.41	-1
0	171404	54.51	-1
0	171720	54.61	-1
0	172036	54.71	-1
0	172352	54.81	-1
0	172668	54.91	-1
0	172990	55.01	-1
0	173306	55.11	-1
0	173622	55.21	-1
0	173938	55.31	-1
0	174254	55.41	-1
0	174570	55.51	-1
0	174886	55.61	-1
0	175202	55.71	-1
0	175518	55.81	-1
0	175834	55.91	-1
0	176156	56.01	-1
0	176472	56.11	-1
0	176788	56.21	-1
0	177104	56.31	-1
0	177420	56.41	-1
0	177736	56.51	-1
0	178052	56.61	-1
0	178368	56.71	-1
0	178684	56.81	-1
0	179000	56.91	-1
0	179322	57.01	-1
0	179638	57.11	-1
0	179954	57.21	-1
0	180270	57.31	-1
0	180586	57.41	-1
0	180902	57.51	-1
0	181218	57.61	-1
0	181534	57.71	-1
0	181850	57.81	-1
0	182166	57.91	-1
0	182488	58.01	-1
0	182804	58.11	-1
0	183120	58.21	-1
0	183436	58.31	-1
0	183752	58.41	-1
0	184068	58.51	-1
0	184384	58.61	-1
0	184700	58.71	-1
0	185016	58.81	-1
0	185332	58.91	-1
0	185654	59.01	-1
0	185970	59.11	-1
0	186286	59.21	-1
0	186602	59.31	-1
0	186918	59.41	-1
0	187234	59.51	-1
0	187550	59.61	-1
0	187866	59.71	-1
0	188182	59.81	-1
0	188498	59.91	-1
0	188820	60.01	-1
0	189136	60.11	-1
0	189452	60.21	-1
0	189768	60.31	-1
0	190084	60.41	-1
0	190400	60.51	-1
0	190716	60.61	-1
0	191032	60.71	-1
0	191348	60.81	-1
0	191664	60.91	-1
0	191986	61.01	-1
0	192302	61.11	-1
0	192618	61.21	-1
0	192934	61.31	-1
0	193250	61.41	-1
0	193566	61.51	-1
0	193882	61.61	-1
0	194198	61.71	-1
0	194514	61.81	-1
0	194830	61.91	-1
0	195152	62.01	-1
0	195468	62.11	-1
0	195784	62.21	-1
0	196100	62.31	-1
0	196416	62.41	-1
0	196732	62.51	-1
0	197048	62.61	-1
0	197364	62.71	-1
0	197680	62.81	-1
0	197996	62.91	-1
0	198318	63.01	-1
0	198634	63.11	-1
0	198950	63.21	-1
0	199266	63.31	-1
0	199582	63.41	-1
0	199898	63.51	-1
0	200214	63.61	-1
0	200530	63.71	-1
0	200846	63.81	-1
0	201162	63.91	-1
0	201484	64.01	-1
0	201800	64.11	-1
0	202116	64.21	-1
0	202432	64.31	-1
0	202748	64.41	-1
0	203064	64.51	-1
0	203380	64.61	-1
0	203696	64.71	-1
0	204012	64.81	-1
0	204328	64.91	-1
0	204650	65.01	-1
0	204966	65.11	-1
0	205282	65.21	-1
0	205598	65.31	-1
0	205914	65.41	-1
0	206230	65.51	-1
0	206546	65.61	-1
0	206862	65.71	-1
0	207178	65.81	-1
0	207494	65.91	-1
0	207816	66.01	-1
0	208132	66.11	-1
0	208448	66.21	-1
0	208764	66.31	-1
0	209080	66.41	-1
0	209396	66.51	-1
0	209712	66.61	-1
0	210028	66.71	-1
0	210344	66.81	-1
0	210660	66.91	-1
0	210982	67.01	-1
0	211298	67.11	-1
0	211614	67.21	-1
0	211930	67.31	-1
0	212246	67.41	-1
0	212562	67.51	-1
0	212878	67.61	-1
0	213194	67.71	-1
0	213510	67.81	-1
0	213826	67.91	-1
0	214148	68.01	-1
0	214464	68.11	-1
0	214780	68.21	-1
0	215096	68.31	-1
0	215412	68.41	-1
0	215728	68.51	-1
0	216044	68.61	-1
0	216360	68.71	-1
0	216676	68.81	-1
0	216992	68.91	-1
0	217314	69.01	-1
0	217630	69.11	-1
0	217946	69.21	-1
0	218262	69.31	-1
0	218578	69.41	-1
0	218894	69.51	-1
0	219210	69.61	-1
0	219526	69.71	-1
0	219842	69.81	-1
0	220158	69.91	-1
0	220480	70.01	-1
0	220796	70.11	-1
0	221112	70.21	-1
0	221428	70.31	-1
0	221744	70.41	-1
0	222060	70.51	-1
0	222376	70.61	-1
0	222692	70.71	-1
0	223008	70.81	-1
0	223324	70.91	-1
0	223646	71.01	-1
0	223962	71.11	-1
0	224278	71.21	-1
0	224594	71.31	-1
0	224910	71.41	-1
0	225226	71.51	-1
0	225542	71.61	-1
0	225858	71.71	-1
0	226174	71.81	-1
0	226490	71.91	-1
0	226812	72.01	-1
0	227128	72.11	-1
0	227444	72.21	-1
0	227760	72.31	-1
0	228076	72.41	-1
0	228392	72.51	-1
0	228708	72.61	-1
0	229024	72.71	-1
0	229340	72.81	-1
0	229656	72.91	-1
0	229978	73.01	-1
0	230294	73.11	-1
0	230610	73.21	-1
0	230926	73.31	-1
0	231242	73.41	-1
0	231558	73.51	-1
0	231874	73.61	-1
0	232190	73.71	-1
0	232506	73.81	-1
0	232822	73.91	-1
0	233144	74.01	-1
0	233460	74.11	-1
0	233776	74.21	-1
0	234092	74.31	-1
0	234408	74.41	-1
0	234724	74.51	-1
0	235040	74.61	-1
0	235356	74.71	-1
0	235672	74.81	-1
0	235988	74.91	-1
0	236310	75.01	-1
0	236626	75.11	-1
0	236942	75.21	-1
0	237258	75.31	-1
0	237574	75.41	-1
0	237890	75.51	-1
0	238206	75.61	-1
0	238522	75.71	-1
0	238838	75.81	-1
0	239154	75.91	-1
0	239476	76.01	-1
0	239792	76.11	-1
0	240108	76.21	-1
0	240424	76.31	-1
0	240740	76.41	-1
0	241056	76.51	-1
0	241372	76.61	-1
0	241688	76.71	-1
0	242004	76.81	-1
0	242320	76.91	-1
0	242642	77.01	-1
0	242958	77.11	-1
0	243274	77.21	-1
0	243590	77.31	-1
0	243906	77.41	-1
0	244222	77.51	-1
0	244538	77.61	-1
0	244854	77.71	-1
0	245170	77.81	-1
0	245486	77.91	-1
0	245808	78.01	-1
0	246124	78.11	-1
0	246440	78.21	-1
0	246756	78.31	-1
0	247072	78.41	-1
0	247388	78.51	-1
0	247704	78.61	-1
0	248020	78.71	-1
0	248336	78.81	-1
0	248652	78.91	-1
0	248974	79.01	-1
0	249290	79.11	-1
0	249606	79.21	-1
0	249922	79.31	-1
0	250238	79.41	-1
0	250554	79.51	-1
0	250870	79.61	-1
0	251186	79.71	-1
0	251502	79.81	-1
0	251818	79.91	-1
0	252140	80.01	-1
0	252456	80.11	-1
0	252772	80.21	-1
0	253088	80.31	-1
0	253404	80.41	-1
0	253720	80.51	-1
0	254036	80.61	-1
0	254352	80.71	-1
0	254668	80.81	-1
0	254984	80.91	-1
0	255306	81.01	-1
0	255622	81.11	-1
0	255938	81.21	-1
0	256254	81.31	-1
0	256570	81.41	-1
0	256886	81.51	-1
0	257202	81.61	-1
0	257518	81.71	-1
0	257834	81.81	-1
0	258150	81.91	-1
0	258472	82.01	-1
0	258788	82.11	-1
0	259104	82.21	-1
0	259420	82.31	-1
0	259736	82.41	-1
0	260052	82.51	-1
0	260368	82.61	-1
0	260684	82.71	-1
0	261000	82.81	-1
0	261316	82.91	-1
0	261638	83.01	-1
0	261954	83.11	-1
0	262270	83.21	-1
0	262586	83.31	-1
0	262902	83.41	-1
0	263218	83.51	-1
0	263534	83.61	-1
0	263850	83.71	-1
0	264166	83.81	-1
0	264482	83.91	-1
0	264804	84.01	-1
0	265120	84.11	-1
0	265436	84.21	-1
0	265752	84.31	-1
0	266068	84.41	-1
0	266384	84.51	-1
0	266700	84.61	-1
0	267016	84.71	-1
0	267332	84.81	-1
0	267648	84.91	-1
0	267970	85.01	-1
0	268286	85.11	-1
0	268602	85.21	-1
0	268918	85.31	-1
0	269234	85.41	-1
0	269550	85.51	-1
0	269866	85.61	-1
0	270182	85.71	-1
0	270498	85.81	-1
0	270814	85.91	-1
0	271136	86.01	-1
0	271452	86.11	-1
0	271768	86.21	-1
0	272084	86.31	-1
0	272400	86.41	-1
0	272716	86.51	25.5378
0	273032	86.61	25.6822
0	273348	86.71	25.8267
0	273664	86.81	25.9711
0	273980	86.91	26.1156
0	274302	87.01	26.26
0	274618	87.11	26.4044
0	274934	87.21	26.5489
0	275250	87.31	26.6933
0	275566	87.41	26.8378
0	275882	87.51	26.9822
0	276198	87.61	27.1266
0	276514	87.71	27.2711
0	276830	87.81	27.4155
0	277146	87.91	27.56
0	277468	88.01	27.7044
0	277784	88.11	27.8488
0	278100	88.21	27.9933
0	278416	88.31	28.1377
0	278732	88.41	28.2822
0	279048	88.51	28.4266
0	279364	88.61	28.571
0	279680	88.71	28.7155
0	279996	88.81	28.8599
0	280312	88.91	29.0044
0	280634	89.01	29.1488
0	280950	89.11	29.2932
0	281266	89.21	29.4377
0	281582	89.31	29.5821
0	281898	89.41	29.7266
0	282214	89.51	29.871
0	282530	89.61	30.0154
0	282846	89.71	30.1599
0	283162	89.81	30.3043
0	283478	89.91	30.4488
0	283800	90.01	30.5932
0	284116	90.11	30.7376
0	284432	90.21	30.8821
0	284748	90.31	31.0265
0	285064	90.41	31.171
0	285380	90.51	31.3154
0	285696	90.61	31.4598
0	286012	90.71	31.6043
0	286328	90.81	31.7487
0	286644	90.91	31.8932
0	286966	91.01	32.0376
0	287282	91.11	32.182
0	287598	91.21	32.3265
0	287914	91.31	32.4709
0	288230	91.41	32.6154
0	288546	91.51	32.7598
0	288862	91.61	32.9042
0	289178	91.71	33.0487
0	289494	91.81	33.1931
0	289810	91.91	33.3376
0	290132	92.01	33.482
0	290448	92.11	33.6264
0	290764	92.21	33.7709
0	291080	92.31	33.9153
0	291396	92.41	34.0598
0	291712	92.51	34.2042
0	292028	92.61	34.3486
0	292344	92.71	34.4931
0	292660	92.81	34.6375
0	292976	92.91	34.782
0	293298	93.01	34.9264
0	293614	93.11	35.0708
0	293930	93.21	35.2153
0	294246	93.31	35.3597
0	294562	93.41	35.5042
0	294878	93.51	35.6486
0	295194	93.61	35.793
0	295510	93.71	35.9375
0	295826	93.81	36.0819
0	296142	93.91	36.2264
0	296464	94.01	36.3708
0	296780	94.11	36.5152
0	297096	94.21	36.6597
0	297412	94.31	36.8041
0	297728	94.41	36.9486
0	298044	94.51	37.093
0	298360	94.61	37.2374
0	298676	94.71	37.3819
0	298992	94.81	37.5263
0	299308	94.91	37.6708
0	299630	95.01	37.8152
0	299946	95.11	37.9596
0	300262	95.21	38.1041
0	300578	95.31	38.2485
0	300894	95.41	38.393
0	301210	95.51	38.5374
0	301526	95.61	38.6818
0	301842	95.71	38.8263
0	302158	95.81	38.9707
0	302474	95.91	39.1152
0	302796	96.01	39.2596
0	303112	96.11	39.404
0	303428	96.21	39.5485
0	303744	96.31	39.6929
0	304060	96.41	39.8374
0	304376	96.51	39.9818
0	304692	96.61	40.1262
0	305008	96.71	40.2707
0	305324	96.81	40.4151
0	305640	96.91	40.5596
0	305962	97.01	40.704
0	306278	97.11	40.8484
0	306594	97.21	40.9929
0	306910	97.31	41.1373
0	307226	97.41	41.2818
0	307542	97.51	41.4262
0	307858	97.61	41.5706
0	308174	97.71	41.7151
0	308490	97.81	41.8595
0	308806	97.91	42.004
0	309128	98.01	42.1484
0	309444	98.11	42.2928
0	309760	98.21	42.4373
0	310076	98.31	42.5817
0	310392	98.41	42.7262
0	310708	98.51	42.8706
0	311024	98.61	43.015
0	311340	98.71	43.1595
0	311656	98.81	43.3039
0	311972	98.91	43.4484
0	312294	99.01	43.5928
0	312610	99.11	43.7372
0	312926	99.21	43.8817
0	313242	99.31	44.0261
0	313558	99.41	44.1706
0	313874	99.51	44.315
0	314190	99.61	44.4594
0	314506	99.71	44.6039
0	314822	99.81	44.7483
0	315138	99.91	44.8928
1	113	1.11	0
1	429	1.21	0
1	745	1.31	0
1	1061	1.41	0
1	1377	1.51	0
1	1693	1.61	0
1	2009	1.71	0
1	2325	1.81	0
1	2641	1.91	0
1	2963	2.01	0
1	3279	2.11	0
1	3595	2.21	0
1	3911	2.31	0
1	4227	2.41	0
1	4543	2.51	0
1	4859	2.61	0
1	5175	2.71	0
1	5491	2.81	0
1	5807	2.91	0
1	6129	3.01	0
1	6445	3.11	0
1	6761	3.21	0
1	7077	3.31	0
1	7393	3.41	0
1	7709	3.51	0
1	8025	3.61	0
1	8341	3.71	0
1	8657	3.81	0
1	8973	3.91	0
1	9295	4.01	0
1	9611	4.11	0
1	9927	4.21	0
1	10243	4.31	0
1	10559	4.41	0
1	10875	4.51	0
1	11191	4.61	0
1	11507	4.71	0
1	11823	4.81	0
1	12139	4.91	0
1	12461	5.01	0
1	12777	5.11	0
1	13093	5.21	0
1	13409	5.31	0
1	13725	5.41	0
1	14041	5.51	0
1	14357	5.61	0
1	14673	5.71	0
1	14989	5.81	0
1	15305	5.91	0
1	15627	6.01	0
1	15943	6.11	0
1	16259	6.21	0
1	16575	6.31	0
1	16891	6.41	0
1	17207	6.51	0
1	17523	6.61	0
1	17839	6.71	0
1	18155	6.81	0
1	18471	6.91	0
1	18793	7.01	0
1	19109	7.11	0
1	19425	7.21	0
1	19741	7.31	0
1	20057	7.41	0
1	20373	7.51	0
1	20689	7.61	0
1	21005	7.71	0
1	21321	7.81	0
1	21637	7.91	0
1	21959	8.01	0
1	22275	8.11	0
1	22591	8.21	0
1	22907	8.31	0
1	23223	8.41	0
1	23539	8.51	0
1	23855	8.61	0
1	24171	8.71	0
1	24487	8.81	0
1	24803	8.91	0
1	25125	9.01	0
1	25441	9.11	0
1	25757	9.21	0
1	26073	9.31	0
1	26389	9.41	0
1	26705	9.51	0
1	27021	9.61	0
1	27337	9.71	0
1	27653	9.81	0
1	27969	9.91	0
1	28373	10.01	0
1	28693	10.11	0
1	29013	10.21	0
1	29333	10.31	0
1	29653	10.41	0
1	29973	10.51	0
1	30293	10.61	0
1	30613	10.71	0
1	30933	10.81	0
1	31253	10.91	0
1	31579	11.01	0
1	31899	11.11	0
1	32219	11.21	0
1	32539	11.31	0
1	32859	11.41	0
1	33179	11.51	0
1	33499	11.61	0
1	33819	11.71	0
1	34139	11.81	0
1	34459	11.91	0
1	34785	12.01	0
1	35105	12.11	0
1	35425	12.21	0
1	35745	12.31	0
1	36065	12.41	0
1	36385	12.51	0
1	36705	12.61	0
1	37025	12.71	0
1	37345	12.81	0
1	37665	12.91	0
1	37991	13.01	0
1	38311	13.11	0
1	38631	13.21	0
1	38951	13.31	0
1	39271	13.41	0
1	39591	13.51	0
1	39911	13.61	0
1	40231	13.71	0
1	40551	13.81	0
1	40871	13.91	0
1	41197	14.01	0
1	41517	14.11	0
1	41837	14.21	0
1	42157	14.31	0
1	42477	14.41	0
1	42797	14.51	0
1	43117	14.61	0
1	43437	14.71	0
1	43757	14.81	0
1	44077	14.91	0
1	44403	15.01	0
1	44723	15.11	0
1	45043	15.21	0
1	45363	15.31	0
1	45683	15.41	0
1	46003	15.51	0
1	46323	15.61	0
1	46643	15.71	0
1	46963	15.81	0
1	47283	15.91	0
1	47609	16.01	0
1	47929	16.11	0
1	48249	16.21	0
1	48569	16.31	0
1	48889	16.41	0
1	49209	16.51	0
1	49529	16.61	0
1	49849	16.71	0
1	50169	16.81	0
1	50489	16.91	0
1	50815	17.01	0
1	51135	17.11	0
1	51455	17.21	0
1	51775	17.31	0
1	52095	17.41	0
1	52415	17.51	0
1	52735	17.61	0
1	53055	17.71	0
1	53375	17.81	0
1	53695	17.91	0
1	54021	18.01	0
1	54341	18.11	0
1	54661	18.21	0
1	54981	18.31	0
1	55301	18.41	0
1	55621	18.51	0
1	55941	18.61	0
1	56261	18.71	0
1	56581	18.81	0
1	56901	18.91	0
1	57227	19.01	0
1	57547	19.11	0
1	57867	19.21	0
1	58187	19.31	0
1	58507	19.41	0
1	58827	19.51	0
1	59147	19.61	0
1	59467	19.71	0
1	59787	19.81	0
1	60107	19.91	0
1	60433	20.01	0
1	60753	20.11	0
1	61073	20.21	0
1	61393	20.31	0
1	61713	20.41	0
1	62033	20.51	0
1	62353	20.61	0
1	62673	20.71	0
1	62993	20.81	0
1	63313	20.91	0
1	63639	21.01	0
1	63959	21.11	0
1	64279	21.21	0
1	64599	21.31	0
1	64919	21.41	0
1	65239	21.51	0
1	65559	21.61	0
1	65879	21.71	0
1	66199	21.81	0
1	66519	21.91	0
1	66845	22.01	0
1	67165	22.11	0
1	67485	22.21	0
1	67805	22.31	0
1	68125	22.41	0
1	68445	22.51	0
1	68765	22.61	0
1	69085	22.71	0
1	69405	22.81	0
1	69725	22.91	0
1	70051	23.01	0
1	70371	23.11	0
1	70691	23.21	0
1	71011	23.31	0
1	71331	23.41	0
1	71651	23.51	0
1	71971	23.61	0
1	72291	23.71	0
1	72611	23.81	0
1	72931	23.91	0
1	73257	24.01	0
1	73577	24.11	0
1	73897	24.21	0
1	74217	24.31	0
1	74537	24.41	0
1	74857	24.51	0
1	75177	24.61	0
1	75497	24.71	0
1	75817	24.81	0
1	76137	24.91	0
1	76463	25.01	0
1	76783	25.11	0
1	77103	25.21	0
1	77423	25.31	0
1	77743	25.41	0
1	78063	25.51	0
1	78383	25.61	0
1	78703	25.71	0
1	79023	25.81	0
1	79343	25.91	0
1	79669	26.01	0
1	79989	26.11	0
1	80309	26.21	0
1	80629	26.31	0
1	80949	26.41	0
1	81269	26.51	0
1	81589	26.61	0
1	81909	26.71	0
1	82229	26.81	0
1	82549	26.91	0
1	82875	27.01	0
1	83195	27.11	0
1	83515	27.21	0
1	83835	27.31	0
1	84155	27.41	0
1	84475	27.51	0
1	84795	27.61	0
1	85115	27.71	0
1	85435	27.81	0
1	85755	27.91	0
1	86081	28.01	0
1	86401	28.11	0
1	86721	28.21	0
1	87041	28.31	0
1	87361	28.41	0
1	87681	28.51	0
1	88001	28.61	0
1	88321	28.71	0
1	88641	28.81	0
1	88961	28.91	0
1	89287	29.01	0
1	89607	29.11	0
1	89927	29.21	0
1	90247	29.31	0
1	90567	29.41	0
1	90887	29.51	0
1	91207	29.61	0
1	91527	29.71	0
1	91847	29.81	0
1	92167	29.91	0
1	92493	30.01	0
1	92813	30.11	0
1	93133	30.21	0
1	93453	30.31	0
1	93773	30.41	0
1	94093	30.51	0
1	94413	30.61	0
1	94733	30.71	0
1	95053	30.81	0
1	95373	30.91	0
1	95699	31.01	0
1	96019	31.11	0
1	96339	31.21	0
1	96659	31.31	0
1	96979	31.41	0
1	97299	31.51	0
1	97619	31.61	0
1	97939	31.71	0
1	98259	31.81	0
1	98579	31.91	0
1	98905	32.01	0
1	99225	32.11	0
1	99545	32.21	0
1	99865	32.31	0
1	100185	32.41	0
1	100505	32.51	0
1	100825	32.61	0
1	101145	32.71	0
1	101465	32.81	0
1	101785	32.91	0
1	102111	33.01	0
1	102431	33.11	0
1	102751	33.21	0
1	103071	33.31	0
1	103391	33.41	0
1	103711	33.51	0
1	104031	33.61	0
1	104351	33.71	0
1	104671	33.81	0
1	104991	33.91	0
1	105317	34.01	0
1	105637	34.11	0
1	105957	34.21	0
1	106277	34.31	0
1	106597	34.41	0
1	106917	34.51	0
1	107237	34.61	0
1	107557	34.71	0
1	107877	34.81	0
1	108197	34.91	0
1	108523	35.01	0
1	108843	35.11	0
1	109163	35.21	0
1	109483	35.31	0
1	109803	35.41	0
1	110123	35.51	0
1	110443	35.61	0
1	110763	35.71	0
1	111083	35.81	0
1	111403	35.91	0
1	111729	36.01	0
1	112049	36.11	0
1	112369	36.21	0
1	112689	36.31	0
1	113009	36.41	0
1	113329	36.51	0
1	113649	36.61	0
1	113969	36.71	0
1	114289	36.81	0
1	114609	36.91	0
1	114935	37.01	0
1	115255	37.11	0
1	115575	37.21	0
1	115895	37.31	0
1	116215	37.41	0
1	116535	37.51	0
1	116855	37.61	0
1	117175	37.71	0
1	117495	37.81	0
1	117815	37.91	0
1	118141	38.01	0
1	118461	38.11	0
1	118781	38.21	0
1	119101	38.31	0
1	119421	38.41	0
1	119741	38.51	0
1	120061	38.61	0
1	120381	38.71	0
1	120701	38.81	0
1	121021	38.91	0
1	121347	39.01	0
1	121667	39.11	0
1	121987	39.21	0
1	122307	39.31	0
1	122627	39.41	0
1	122947	39.51	0
1	123267	39.61	0
1	123587	39.71	0
1	123907	39.81	0
1	124227	39.91	0
1	124553	40.01	0
1	124873	40.11	0
1	125193	40.21	0
1	125513	40.31	0
1	125833	40.41	0
1	126153	40.51	0
1	126473	40.61	0
1	126793	40.71	0
1	127113	40.81	0
1	127433	40.91	0
1	127759	41.01	0
1	128079	41.11	0
1	128399	41.21	0
1	128719	41.31	0
1	129039	41.41	0
1	129359	41.51	0
1	129679	41.61	0
1	129999	41.71	0
1	130319	41.81	0
1	130639	41.91	0
1	130965	42.01	0
1	131285	42.11	0
1	131605	42.21	0
1	131925	42.31	0
1	132245	42.41	0
1	132565	42.51	0
1	132885	42.61	0
1	133205	42.71	0
1	133525	42.81	0
1	133845	42.91	0
1	134171	43.01	0
1	134491	43.11	0
1	134811	43.21	0
1	135131	43.31	0
1	135451	43.41	0
1	135771	43.51	0
1	136091	43.61	0
1	136411	43.71	0
1	136731	43.81	0
1	137051	43.91	0
1	137377	44.01	0
1	137697	44.11	0
1	138017	44.21	0
1	138337	44.31	0
1	138657	44.41	0
1	138977	44.51	0
1	139297	44.61	0
1	139617	44.71	0
1	139937	44.81	0
1	140257	44.91	0
1	140583	45.01	0
1	140903	45.11	0
1	141223	45.21	0
1	141543	45.31	0
1	141863	45.41	0
1	142183	45.51	0
1	142503	45.61	0
1	142823	45.71	0
1	143216	45.81	0
1	143535	45.91	0
1	143860	46.01	0
1	144179	46.11	0
1	144498	46.21	0
1	144890	46.31	0
1	145208	46.41	0
1	145526	46.51	0
1	145844	46.61	0
1	146162	46.71	0
1	146480	46.81	0
1	146798	46.91	0
1	147122	47.01	0
1	147440	47.11	0
1	147758	47.21	0
1	148076	47.31	0
1	148394	47.41	0
1	148712	47.51	0
1	149030	47.61	0
1	149348	47.71	0
1	149666	47.81	0
1	149984	47.91	0
1	150308	48.01	0
1	150626	48.11	0
1	150944	48.21	0
1	151262	48.31	0
1	151580	48.41	0
1	151898	48.51	0
1	152216	48.61	0
1	152534	48.71	0
1	152852	48.81	0
1	153170	48.91	0
1	153494	49.01	0
1	153812	49.11	0
1	154130	49.21	0
1	154448	49.31	0
1	154766	49.41	0
1	155084	49.51	0
1	155402	49.61	0
1	155720	49.71	0
1	156038	49.81	0
1	156356	49.91	0
1	156680	50.01	0
1	156998	50.11	0
1	157316	50.21	0
1	157634	50.31	0
1	157952	50.41	0
1	158270	50.51	0
1	158588	50.61	0
1	158906	50.71	0
1	159224	50.81	0
1	159542	50.91	0
1	159866	51.01	0
1	160184	51.11	0
1	160502	51.21	0
1	160820	51.31	0
1	161138	51.41	0
1	161456	51.51	0
1	161774	51.61	0
1	162092	51.71	0
1	162410	51.81	0
1	162947	51.91	0
1	163270	52.01	0
1	163587	52.11	0
1	163904	52.21	0
1	164440	52.31	0
1	164756	52.41	0
1	165072	52.51	0
1	165388	52.61	0
1	165704	52.71	0
1	166020	52.81	0
1	166336	52.91	0
1	166658	53.01	0
1	166974	53.11	0
1	167290	53.21	0
1	167606	53.31	0
1	167922	53.41	0
1	168238	53.51	0
1	168554	53.61	0
1	168870	53.71	0
1	169186	53.81	0
1	169502	53.91	0
1	169824	54.01	0
1	170140	54.11	0
1	170456	54.21	0
1	170772	54.31	0
1	171088	54.41	0
1	171404	54.51	0
1	171720	54.61	0
1	172036	54.71	0
1	172352	54.81	0
1	172668	54.91	0
1	172990	55.01	0
1	173306	55.11	0
1	173622	55.21	0
1	173938	55.31	0
1	174254	55.41	0
1	174570	55.51	0
1	174886	55.61	0
1	175202	55.71	0
1	175518	55.81	0
1	175834	55.91	0
1	176156	56.01	0
1	176472	56.11	0
1	176788	56.21	0
1	177104	56.31	0
1	177420	56.41	0
1	177736	56.51	0
1	178052	56.61	0
1	178368	56.71	0
1	178684	56.81	0
1	179000	56.91	0
1	179322	57.01	0
1	179638	57.11	0
1	179954	57.21	0
1	180270	57.31	0
1	180586	57.41	0
1	180902	57.51	0
1	181218	57.61	0
1	181534	57.71	0
1	181850	57.81	0
1	182166	57.91	0
1	182488	58.01	0
1	182804	58.11	0
1	183120	58.21	0
1	183436	58.31	0
1	183752	58.41	0
1	184068	58.51	0
1	184384	58.61	0
1	184700	58.71	0
1	185016	58.81	0
1	185332	58.91	0
1	185654	59.01	0
1	185970	59.11	0
1	186286	59.21	0
1	186602	59.31	0
1	186918	59.41	0
1	187234	59.51	0
1	187550	59.61	0
1	187866	59.71	0
1	188182	59.81	0
1	188498	59.91	0
1	188820	60.01	0
1	189136	60.11	0
1	189452	60.21	0
1	189768	60.31	0
1	190084	60.41	0
1	190400	60.51	0
1	190716	60.61	0
1	191032	60.71	0
1	191348	60.81	0
1	191664	60.91	0
1	191986	61.01	0
1	192302	61.11	0
1	192618	61.21	0
1	192934	61.31	0
1	193250	61.41	0
1	193566	61.51	0
1	193882	61.61	0
1	194198	61.71	0
1	194514	61.81	0
1	194830	61.91	0
1	195152	62.01	0
1	195468	62.11	0
1	195784	62.21	0
1	196100	62.31	0
1	196416	62.41	0
1	196732	62.51	0
1	197048	62.61	0
1	197364	62.71	0
1	197680	62.81	0
1	197996	62.91	0
1	198318	63.01	0
1	198634	63.11	0
1	198950	63.21	0
1	199266	63.31	0
1	199582	63.41	0
1	199898	63.51	0
1	200214	63.61	0
1	200530	63.71	0
1	200846	63.81	0
1	201162	63.91	0
1	201484	64.01	0
1	201800	64.11	0
1	202116	64.21	0
1	202432	64.31	0
1	202748	64.41	0
1	203064	64.51	0
1	203380	64.61	0
1	203696	64.71	0
1	204012	64.81	0
1	204328	64.91	0
1	204650	65.01	0
1	204966	65.11	0
1	205282	65.21	0
1	205598	65.31	0
1	205914	65.41	0
1	206230	65.51	0
1	206546	65.61	0
1	206862	65.71	0
1	207178	65.81	0
1	207494	65.91	0
1	207816	66.01	0
1	208132	66.11	0
1	208448	66.21	0
1	208764	66.31	0
1	209080	66.41	0
1	209396	66.51	0
1	209712	66.61	0
1	210028	66.71	0
1	210344	66.81	0
1	210660	66.91	0
1	210982	67.01	0
1	211298	67.11	0
1	211614	67.21	0
1	211930	67.31	0
1	212246	67.41	0
1	212562	67.51	0
1	212878	67.61	0
1	213194	67.71	0
1	213510	67.81	0
1	213826	67.91	0
1	214148	68.01	0
1	214464	68.11	0
1	214780	68.21	0
1	215096	68.31	0
1	215412	68.41	0
1	215728	68.51	0
1	216044	68.61	0
1	216360	68.71	0
1	216676	68.81	0
1	216992	68.91	0
1	217314	69.01	0
1	217630	69.11	0
1	217946	69.21	0
1	218262	69.31	0
1	218578	69.41	0
1	218894	69.51	0
1	219210	69.61	0
1	219526	69.71	0
1	219842	69.81	0
1	220158	69.91	0
1	220480	70.01	0
1	220796	70.11	0
1	221112	70.21	0
1	221428	70.31	0
1	221744	70.41	0
1	222060	70.51	0
1	222376	70.61	0
1	222692	70.71	0
1	223008	70.81	0
1	223324	70.91	0
1	223646	71.01	0
1	223962	71.11	0
1	224278	71.21	0
1	224594	71.31	0
1	224910	71.41	0
1	225226	71.51	0
1	225542	71.61	0
1	225858	71.71	0
1	226174	71.81	0
1	226490	71.91	0
1	226812	72.01	0
1	227128	72.11	0
1	227444	72.21	0
1	227760	72.31	0
1	228076	72.41	0
1	228392	72.51	0
1	228708	72.61	0
1	229024	72.71	0
1	229340	72.81	0
1	229656	72.91	0
1	229978	73.01	0
1	230294	73.11	0
1	230610	73.21	0
1	230926	73.31	0
1	231242	73.41	0
1	231558	73.51	0
1	231874	73.61	0
1	232190	73.71	0
1	232506	73.81	0
1	232822	73.91	0
1	233144	74.01	0
1	233460	74.11	0
1	233776	74.21	0
1	234092	74.31	0
1	234408	74.41	0
1	234724	74.51	0
1	235040	74.61	0
1	235356	74.71	0
1	235672	74.81	0
1	235988	74.91	0
1	236310	75.01	0
1	236626	75.11	0
1	236942	75.21	0
1	237258	75.31	0
1	237574	75.41	0
1	237890	75.51	0
1	238206	75.61	0
1	238522	75.71	0
1	238838	75.81	0
1	239154	75.91	0
1	239476	76.01	0
1	239792	76.11	0
1	240108	76.21	0
1	240424	76.31	0
1	240740	76.41	0
1	241056	76.51	0
1	241372	76.61	0
1	241688	76.71	0
1	242004	76.81	0
1	242320	76.91	0
1	242642	77.01	0
1	242958	77.11	0
1	243274	77.21	0
1	243590	77.31	0
1	243906	77.41	0
1	244222	77.51	0
1	244538	77.61	0
1	244854	77.71	0
1	245170	77.81	0
1	245486	77.91	0
1	245808	78.01	0
1	246124	78.11	0
1	246440	78.21	0
1	246756	78.31	0
1	247072	78.41	0
1	247388	78.51	0
1	247704	78.61	0
1	248020	78.71	0
1	248336	78.81	0
1	248652	78.91	0
1	248974	79.01	0
1	249290	79.11	0
1	249606	79.21	0
1	249922	79.31	0
1	250238	79.41	0
1	250554	79.51	0
1	250870	79.61	0
1	251186	79.71	0
1	251502	79.81	0
1	251818	79.91	0
1	252140	80.01	0
1	252456	80.11	0
1	252772	80.21	0
1	253088	80.31	0
1	253404	80.41	0
1	253720	80.51	0
1	254036	80.61	0
1	254352	80.71	0
1	254668	80.81	0
1	254984	80.91	0
1	255306	81.01	0
1	255622	81.11	0
1	255938	81.21	0
1	256254	81.31	0
1	256570	81.41	0
1	256886	81.51	0
1	257202	81.61	0
1	257518	81.71	0
1	257834	81.81	0
1	258150	81.91	0
1	258472	82.01	0
1	258788	82.11	0
1	259104	82.21	0
1	259420	82.31	0
1	259736	82.41	0
1	260052	82.51	0
1	260368	82.61	0
1	260684	82.71	0
1	261000	82.81	0
1	261316	82.91	0
1	261638	83.01	0
1	261954	83.11	0
1	262270	83.21	0
1	262586	83.31	0
1	262902	83.41	0
1	263218	83.51	0
1	263534	83.61	0
1	263850	83.71	0
1	264166	83.81	0
1	264482	83.91	0
1	264804	84.01	0
1	265120	84.11	0
1	265436	84.21	0
1	265752	84.31	0
1	266068	84.41	0
1	266384	84.51	0
1	266700	84.61	0
1	267016	84.71	0
1	267332	84.81	0
1	267648	84.91	0
1	267970	85.01	0
1	268286	85.11	0
1	268602	85.21	0
1	268918	85.31	0
1	269234	85.41	0
1	269550	85.51	0
1	269866	85.61	0
1	270182	85.71	0
1	270498	85.81	0
1	270814	85.91	0
1	271136	86.01	0
1	271452	86.11	0
1	271768	86.21	0
1	272084	86.31	0
1	272400	86.41	0
1	272716	86.51	1.4444
1	273032	86.61	1.4444
1	273348	86.71	1.4444
1	273664	86.81	1.4444
1	273980	86.91	1.4444
1	274302	87.01	1.4444
1	274618	87.11	1.4444
1	274934	87.21	1.4444
1	275250	87.31	1.4444
1	275566	87.41	1.4444
1	275882	87.51	1.4444
1	276198	87.61	1.4444
1	276514	87.71	1.4444
1	276830	87.81	1.4444
1	277146	87.91	1.4444
1	277468	88.01	1.4444
1	277784	88.11	1.4444
1	278100	88.21	1.4444
1	278416	88.31	1.4444
1	278732	88.41	1.4444
1	279048	88.51	1.4444
1	279364	88.61	1.4444
1	279680	88.71	1.4444
1	279996	88.81	1.4444
1	280312	88.91	1.4444
1	280634	89.01	1.4444
1	280950	89.11	1.4444
1	281266	89.21	1.4444
1	281582	89.31	1.4444
1	281898	89.41	1.4444
1	282214	89.51	1.4444
1	282530	89.61	1.4444
1	282846	89.71	1.4444
1	283162	89.81	1.4444
1	283478	89.91	1.4444
1	283800	90.01	1.4444
1	284116	90.11	1.4444
1	284432	90.21	1.4444
1	284748	90.31	1.4444
1	285064	90.41	1.4444
1	285380	90.51	1.4444
1	285696	90.61	1.4444
1	286012	90.71	1.4444
1	286328	90.81	1.4444
1	286644	90.91	1.4444
1	286966	91.01	1.4444
1	287282	91.11	1.4444
1	287598	91.21	1.4444
1	287914	91.31	1.4444
1	288230	91.41	1.4444
1	288546	91.51	1.4444
1	288862	91.61	1.4444
1	289178	91.71	1.4444
1	289494	91.81	1.4444
1	289810	91.91	1.4444
1	290132	92.01	1.4444
1	290448	92.11	1.4444
1	290764	92.21	1.4444
1	291080	92.31	1.4444
1	291396	92.41	1.4444
1	291712	92.51	1.4444
1	292028	92.61	1.4444
1	292344	92.71	1.4444
1	292660	92.81	1.4444
1	292976	92.91	1.4444
1	293298	93.01	1.4444
1	293614	93.11	1.4444
1	293930	93.21	1.4444
1	294246	93.31	1.4444
1	294562	93.41	1.4444
1	294878	93.51	1.4444
1	295194	93.61	1.4444
1	295510	93.71	1.4444
1	295826	93.81	1.4444
1	296142	93.91	1.4444
1	296464	94.01	1.4444
1	296780	94.11	1.4444
1	297096	94.21	1.4444
1	297412	94.31	1.4444
1	297728	94.41	1.4444
1	298044	94.51	1.4444
1	298360	94.61	1.4444
1	298676	94.71	1.4444
1	298992	94.81	1.4444
1	299308	94.91	1.4444
1	299630	95.01	1.4444
1	299946	95.11	1.4444
1	300262	95.21	1.4444
1	300578	95.31	1.4444
1	300894	95.41	1.4444
1	301210	95.51	1.4444
1	301526	95.61	1.4444
1	301842	95.71	1.4444
1	302158	95.81	1.4444
1	302474	95.91	1.4444
1	302796	96.01	1.4444
1	303112	96.11	1.4444
1	303428	96.21	1.4444
1	303744	96.31	1.4444
1	304060	96.41	1.4444
1	304376	96.51	1.4444
1	304692	96.61	1.4444
1	305008	96.71	1.4444
1	305324	96.81	1.4444
1	305640	96.91	1.4444
1	305962	97.01	1.4444
1	306278	97.11	1.4444
1	306594	97.21	1.4444
1	306910	97.31	1.4444
1	307226	97.41	1.4444
1	307542	97.51	1.4444
1	307858	97.61	1.4444
1	308174	97.71	1.4444
1	308490	97.81	1.4444
1	308806	97.91	1.4444
1	309128	98.01	1.4444
1	309444	98.11	1.4444
1	309760	98.21	1.4444
1	310076	98.31	1.4444
1	310392	98.41	1.4444
1	310708	98.51	1.4444
1	311024	98.61	1.4444
1	311340	98.71	1.4444
1	311656	98.81	1.4444
1	311972	98.91	1.4444
1	312294	99.01	1.4444
1	312610	99.11	1.4444
1	312926	99.21	1.4444
1	313242	99.31	1.4444
1	313558	99.41	1.4444
1	313874	99.51	1.4444
1	314190	99.61	1.4444
1	314506	99.71	1.4444
1	314822	99.81	1.4444
1	315138	99.91	1.4444
2	113	1.11	0
2	429	1.21	0
2	745	1.31	0
2	1061	1.41	0
2	1377	1.51	0
2	1693	1.61	0
2	2009	1.71	0
2	2325	1.81	0
2	2641	1.91	0
2	2963	2.01	0
2	3279	2.11	0
2	3595	2.21	0
2	3911	2.31	0
2	4227	2.41	0
2	4543	2.51	0
2	4859	2.61	0
2	5175	2.71	0
2	5491	2.81	0
2	5807	2.91	0
2	6129	3.01	0
2	6445	3.11	0
2	6761	3.21	0
2	7077	3.31	0
2	7393	3.41	0
2	7709	3.51	0
2	8025	3.61	0
2	8341	3.71	0
2	8657	3.81	0
2	8973	3.91	0
2	9295	4.01	0
2	9611	4.11	0
2	9927	4.21	0
2	10243	4.31	0
2	10559	4.41	0
2	10875	4.51	0
2	11191	4.61	0
2	11507	4.71	0
2	11823	4.81	0
2	12139	4.91	0
2	12461	5.01	0
2	12777	5.11	0
2	13093	5.21	0
2	13409	5.31	0
2	13725	5.41	0
2	14041	5.51	0
2	14357	5.61	0
2	14673	5.71	0
2	14989	5.81	0
2	15305	5.91	0
2	15627	6.01	0
2	15943	6.11	0
2	16259	6.21	0
2	16575	6.31	0
2	16891	6.41	0
2	17207	6.51	0
2	17523	6.61	0
2	17839	6.71	0
2	18155	6.81	0
2	18471	6.91	0
2	18793	7.01	0
2	19109	7.11	0
2	19425	7.21	0
2	19741	7.31	0
2	20057	7.41	0
2	20373	7.51	0
2	20689	7.61	0
2	21005	7.71	0
2	21321	7.81	0
2	21637	7.91	0
2	21959	8.01	0
2	22275	8.11	0
2	22591	8.21	0
2	22907	8.31	0
2	23223	8.41	0
2	23539	8.51	0
2	23855	8.61	0
2	24171	8.71	0
2	24487	8.81	0
2	24803	8.91	0
2	25125	9.01	0
2	25441	9.11	0
2	25757	9.21	0
2	26073	9.31	0
2	26389	9.41	0
2	26705	9.51	0
2	27021	9.61	0
2	27337	9.71	0
2	27653	9.81	0
2	27969	9.91	0
2	28373	10.01	0
2	28693	10.11	0
2	29013	10.21	0
2	29333	10.31	0
2	29653	10.41	0
2	29973	10.51	0
2	30293	10.61	0
2	30613	10.71	0
2	30933	10.81	0
2	31253	10.91	0
2	31579	11.01	0
2	31899	11.11	0
2	32219	11.21	0
2	32539	11.31	0
2	32859	11.41	0
2	33179	11.51	0
2	33499	11.61	0
2	33819	11.71	0
2	34139	11.81	0
2	34459	11.91	0
2	34785	12.01	0
2	35105	12.11	0
2	35425	12.21	0
2	35745	12.31	0
2	36065	12.41	0
2	36385	12.51	0
2	36705	12.61	0
2	37025	12.71	0
2	37345	12.81	0
2	37665	12.91	0
2	37991	13.01	0
2	38311	13.11	0
2	38631	13.21	0
2	38951	13.31	0
2	39271	13.41	0
2	39591	13.51	0
2	39911	13.61	0
2	40231	13.71	0
2	40551	13.81	0
2	40871	13.91	0
2	41197	14.01	0
2	41517	14.11	0
2	41837	14.21	0
2	42157	14.31	0
2	42477	14.41	0
2	42797	14.51	0
2	43117	14.61	0
2	43437	14.71	0
2	43757	14.81	0
2	44077	14.91	0
2	44403	15.01	0
2	44723	15.11	0
2	45043	15.21	0
2	45363	15.31	0
2	45683	15.41	0
2	46003	15.51	0
2	46323	15.61	0
2	46643	15.71	0
2	46963	15.81	0
2	47283	15.91	0
2	47609	16.01	0
2	47929	16.11	0
2	48249	16.21	0
2	48569	16.31	0
2	48889	16.41	0
2	49209	16.51	0
2	49529	16.61	0
2	49849	16.71	0
2	50169	16.81	0
2	50489	16.91	0
2	50815	17.01	0
2	51135	17.11	0
2	51455	17.21	0
2	51775	17.31	0
2	52095	17.41	0
2	52415	17.51	0
2	52735	17.61	0
2	53055	17.71	0
2	53375	17.81	0
2	53695	17.91	0
2	54021	18.01	0
2	54341	18.11	0
2	54661	18.21	0
2	54981	18.31	0
2	55301	18.41	0
2	55621	18.51	0
2	55941	18.61	0
2	56261	18.71	0
2	56581	18.81	0
2	56901	18.91	0
2	57227	19.01	0
2	57547	19.11	0
2	57867	19.21	0
2	58187	19.31	0
2	58507	19.41	0
2	58827	19.51	0
2	59147	19.61	0
2	59467	19.71	0
2	59787	19.81	0
2	60107	19.91	0
2	60433	20.01	0
2	60753	20.11	0
2	61073	20.21	0
2	61393	20.31	0
2	61713	20.41	0
2	62033	20.51	0
2	62353	20.61	0
2	62673	20.71	0
2	62993	20.81	0
2	63313	20.91	0
2	63639	21.01	0
2	63959	21.11	0
2	64279	21.21	0
2	64599	21.31	0
2	64919	21.41	0
2	65239	21.51	0
2	65559	21.61	0
2	65879	21.71	0
2	66199	21.81	0
2	66519	21.91	0
2	66845	22.01	0
2	67165	22.11	0
2	67485	22.21	0
2	67805	22.31	0
2	68125	22.41	0
2	68445	22.51	0
2	68765	22.61	0
2	69085	22.71	0
2	69405	22.81	0
2	69725	22.91	0
2	70051	23.01	0
2	70371	23.11	0
2	70691	23.21	0
2	71011	23.31	0
2	71331	23.41	0
2	71651	23.51	0
2	71971	23.61	0
2	72291	23.71	0
2	72611	23.81	0
2	72931	23.91	0
2	73257	24.01	0
2	73577	24.11	0
2	73897	24.21	0
2	74217	24.31	0
2	74537	24.41	0
2	74857	24.51	0
2	75177	24.61	0
2	75497	24.71	0
2	75817	24.81	0
2	76137	24.91	0
2	76463	25.01	0
2	76783	25.11	0
2	77103	25.21	0
2	77423	25.31	0
2	77743	25.41	0
2	78063	25.51	0
2	78383	25.61	0
2	78703	25.71	0
2	79023	25.81	0
2	79343	25.91	0
2	79669	26.01	0
2	79989	26.11	0
2	80309	26.21	0
2	80629	26.31	0
2	80949	26.41	0
2	81269	26.51	0
2	81589	26.61	0
2	81909	26.71	0
2	82229	26.81	0
2	82549	26.91	0
2	82875	27.01	0
2	83195	27.11	0
2	83515	27.21	0
2	83835	27.31	0
2	84155	27.41	0
2	84475	27.51	0
2	84795	27.61	0
2	85115	27.71	0
2	85435	27.81	0
2	85755	27.91	0
2	86081	28.01	0
2	86401	28.11	0
2	86721	28.21	0
2	87041	28.31	0
2	87361	28.41	0
2	87681	28.51	0
2	88001	28.61	0
2	88321	28.71	0
2	88641	28.81	0
2	88961	28.91	0
2	89287	29.01	0
2	89607	29.11	0
2	89927	29.21	0
2	90247	29.31	0
2	90567	29.41	0
2	90887	29.51	0
2	91207	29.61	0
2	91527	29.71	0
2	91847	29.81	0
2	92167	29.91	0
2	92493	30.01	0
2	92813	30.11	0
2	93133	30.21	0
2	93453	30.31	0
2	93773	30.41	0
2	94093	30.51	0
2	94413	30.61	0
2	94733	30.71	0
2	95053	30.81	0
2	95373	30.91	0
2	95699	31.01	0
2	96019	31.11	0
2	96339	31.21	0
2	96659	31.31	0
2	96979	31.41	0
2	97299	31.51	0
2	97619	31.61	0
2	97939	31.71	0
2	98259	31.81	0
2	98579	31.91	0
2	98905	32.01	0
2	99225	32.11	0
2	99545	32.21	0
2	99865	32.31	0
2	100185	32.41	0
2	100505	32.51	0
2	100825	32.61	0
2	101145	32.71	0
2	101465	32.81	0
2	101785	32.91	0
2	102111	33.01	0
2	102431	33.11	0
2	102751	33.21	0
2	103071	33.31	0
2	103391	33.41	0
2	103711	33.51	0
2	104031	33.61	0
2	104351	33.71	0
2	104671	33.81	0
2	104991	33.91	0
2	105317	34.01	0
2	105637	34.11	0
2	105957	34.21	0
2	106277	34.31	0
2	106597	34.41	0
2	106917	34.51	0
2	107237	34.61	0
2	107557	34.71	0
2	107877	34.81	0
2	108197	34.91	0
2	108523	35.01	0
2	108843	35.11	0
2	109163	35.21	0
2	109483	35.31	0
2	109803	35.41	0
2	110123	35.51	0
2	110443	35.61	0
2	110763	35.71	0
2	111083	35.81	0
2	111403	35.91	0
2	111729	36.01	0
2	112049	36.11	0
2	112369	36.21	0
2	112689	36.31	0
2	113009	36.41	0
2	113329	36.51	0
2	113649	36.61	0
2	113969	36.71	0
2	114289	36.81	0
2	114609	36.91	0
2	114935	37.01	0
2	115255	37.11	0
2	115575	37.21	0
2	115895	37.31	0
2	116215	37.41	0
2	116535	37.51	0
2	116855	37.61	0
2	117175	37.71	0
2	117495	37.81	0
2	117815	37.91	0
2	118141	38.01	0
2	118461	38.11	0
2	118781	38.21	0
2	119101	38.31	0
2	119421	38.41	0
2	119741	38.51	0
2	120061	38.61	0
2	120381	38.71	0
2	120701	38.81	0
2	121021	38.91	0
2	121347	39.01	0
2	121667	39.11	0
2	121987	39.21	0
2	122307	39.31	0
2	122627	39.41	0
2	122947	39.51	0
2	123267	39.61	0
2	123587	39.71	0
2	123907	39.81	0
2	124227	39.91	0
2	124553	40.01	0
2	124873	40.11	0
2	125193	40.21	0
2	125513	40.31	0
2	125833	40.41	0
2	126153	40.51	0
2	126473	40.61	0
2	126793	40.71	0
2	127113	40.81	0
2	127433	40.91	0
2	127759	41.01	0
2	128079	41.11	0
2	128399	41.21	0
2	128719	41.31	0
2	129039	41.41	0
2	129359	41.51	0
2	129679	41.61	0
2	129999	41.71	0
2	130319	41.81	0
2	130639	41.91	0
2	130965	42.01	0
2	131285	42.11	0
2	131605	42.21	0
2	131925	42.31	0
2	132245	42.41	0
2	132565	42.51	0
2	132885	42.61	0
2	133205	42.71	0
2	133525	42.81	0
2	133845	42.91	0
2	134171	43.01	0
2	134491	43.11	0
2	134811	43.21	0
2	135131	43.31	0
2	135451	43.41	0
2	135771	43.51	0
2	136091	43.61	0
2	136411	43.71	0
2	136731	43.81	0
2	137051	43.91	0
2	137377	44.01	0
2	137697	44.11	0
2	138017	44.21	0
2	138337	44.31	0
2	138657	44.41	0
2	138977	44.51	0
2	139297	44.61	0
2	139617	44.71	0
2	139937	44.81	0
2	140257	44.91	0
2	140583	45.01	0
2	140903	45.11	0
2	141223	45.21	0
2	141543	45.31	0
2	141863	45.41	0
2	142183	45.51	0
2	142503	45.61	0
2	142823	45.71	0
2	143216	45.81	0
2	143535	45.91	0
2	143860	46.01	0
2	144179	46.11	0
2	144498	46.21	0
2	144890	46.31	0
2	145208	46.41	0
2	145526	46.51	0
2	145844	46.61	0
2	146162	46.71	0
2	146480	46.81	0
2	146798	46.91	0
2	147122	47.01	0
2	147440	47.11	0
2	147758	47.21	0
2	148076	47.31	0
2	148394	47.41	0
2	148712	47.51	0
2	149030	47.61	0
2	149348	47.71	0
2	149666	47.81	0
2	149984	47.91	0
2	150308	48.01	0
2	150626	48.11	0
2	150944	48.21	0
2	151262	48.31	0
2	151580	48.41	0
2	151898	48.51	0
2	152216	48.61	0
2	152534	48.71	0
2	152852	48.81	0
2	153170	48.91	0
2	153494	49.01	0
2	153812	49.11	0
2	154130	49.21	0
2	154448	49.31	0
2	154766	49.41	0
2	155084	49.51	0
2	155402	49.61	0
2	155720	49.71	0
2	156038	49.81	0
2	156356	49.91	0
2	156680	50.01	0
2	156998	50.11	0
2	157316	50.21	0
2	157634	50.31	0
2	157952	50.41	0
2	158270	50.51	0
2	158588	50.61	0
2	158906	50.71	0
2	159224	50.81	0
2	159542	50.91	0
2	159866	51.01	0
2	160184	51.11	0
2	160502	51.21	0
2	160820	51.31	0
2	161138	51.41	0
2	161456	51.51	0
2	161774	51.61	0
2	162092	51.71	0
2	162410	51.81	0
2	162947	51.91	0
2	163270	52.01	0
2	163587	52.11	0
2	163904	52.21	0
2	164440	52.31	0
2	164756	52.41	0
2	165072	52.51	0
2	165388	52.61	0
2	165704	52.71	0
2	166020	52.81	0
2	166336	52.91	0
2	166658	53.01	0
2	166974	53.11	0
2	167290	53.21	0
2	167606	53.31	0
2	167922	53.41	0
2	168238	53.51	0
2	168554	53.61	0
2	168870	53.71	0
2	169186	53.81	0
2	169502	53.91	0
2	169824	54.01	0
2	170140	54.11	0
2	170456	54.21	0
2	170772	54.31	0
2	171088	54.41	0
2	171404	54.51	0
2	171720	54.61	0
2	172036	54.71	0
2	172352	54.81	0
2	172668	54.91	0
2	172990	55.01	0
2	173306	55.11	0
2	173622	55.21	0
2	173938	55.31	0
2	174254	55.41	0
2	174570	55.51	0
2	174886	55.61	0
2	175202	55.71	0
2	175518	55.81	0
2	175834	55.91	0
2	176156	56.01	0
2	176472	56.11	0
2	176788	56.21	0
2	177104	56.31	0
2	177420	56.41	0
2	177736	56.51	0
2	178052	56.61	0
2	178368	56.71	0
2	178684	56.81	0
2	179000	56.91	0
2	179322	57.01	0
2	179638	57.11	0
2	179954	57.21	0
2	180270	57.31	0
2	180586	57.41	0
2	180902	57.51	0
2	181218	57.61	0
2	181534	57.71	0
2	181850	57.81	0
2	182166	57.91	0
2	182488	58.01	0
2	182804	58.11	0
2	183120	58.21	0
2	183436	58.31	0
2	183752	58.41	0
2	184068	58.51	0
2	184384	58.61	0
2	184700	58.71	0
2	185016	58.81	0
2	185332	58.91	0
2	185654	59.01	0
2	185970	59.11	0
2	186286	59.21	0
2	186602	59.31	0
2	186918	59.41	0
2	187234	59.51	0
2	187550	59.61	0
2	187866	59.71	0
2	188182	59.81	0
2	188498	59.91	0
2	188820	60.01	0
2	189136	60.11	0
2	189452	60.21	0
2	189768	60.31	0
2	190084	60.41	0
2	190400	60.51	0
2	190716	60.61	0
2	191032	60.71	0
2	191348	60.81	0
2	191664	60.91	0
2	191986	61.01	0
2	192302	61.11	0
2	192618	61.21	0
2	192934	61.31	0
2	193250	61.41	0
2	193566	61.51	0
2	193882	61.61	0
2	194198	61.71	0
2	194514	61.81	0
2	194830	61.91	0
2	195152	62.01	0
2	195468	62.11	0
2	195784	62.21	0
2	196100	62.31	0
2	196416	62.41	0
2	196732	62.51	0
2	197048	62.61	0
2	197364	62.71	0
2	197680	62.81	0
2	197996	62.91	0
2	198318	63.01	0
2	198634	63.11	0
2	198950	63.21	0
2	199266	63.31	0
2	199582	63.41	0
2	199898	63.51	0
2	200214	63.61	0
2	200530	63.71	0
2	200846	63.81	0
2	201162	63.91	0
2	201484	64.01	0
2	201800	64.11	0
2	202116	64.21	0
2	202432	64.31	0
2	202748	64.41	0
2	203064	64.51	0
2	203380	64.61	0
2	203696	64.71	0
2	204012	64.81	0
2	204328	64.91	0
2	204650	65.01	0
2	204966	65.11	0
2	205282	65.21	0
2	205598	65.31	0
2	205914	65.41	0
2	206230	65.51	0
2	206546	65.61	0
2	206862	65.71	0
2	207178	65.81	0
2	207494	65.91	0
2	207816	66.01	0
2	208132	66.11	0
2	208448	66.21	0
2	208764	66.31	0
2	209080	66.41	0
2	209396	66.51	0
2	209712	66.61	0
2	210028	66.71	0
2	210344	66.81	0
2	210660	66.91	0
2	210982	67.01	0
2	211298	67.11	0
2	211614	67.21	0
2	211930	67.31	0
2	212246	67.41	0
2	212562	67.51	0
2	212878	67.61	0
2	213194	67.71	0
2	213510	67.81	0
2	213826	67.91	0
2	214148	68.01	0
2	214464	68.11	0
2	214780	68.21	0
2	215096	68.31	0
2	215412	68.41	0
2	215728	68.51	0
2	216044	68.61	0
2	216360	68.71	0
2	216676	68.81	0
2	216992	68.91	0
2	217314	69.01	0
2	217630	69.11	0
2	217946	69.21	0
2	218262	69.31	0
2	218578	69.41	0
2	218894	69.51	0
2	219210	69.61	0
2	219526	69.71	0
2	219842	69.81	0
2	220158	69.91	0
2	220480	70.01	0
2	220796	70.11	0
2	221112	70.21	0
2	221428	70.31	0
2	221744	70.41	0
2	222060	70.51	0
2	222376	70.61	0
2	222692	70.71	0
2	223008	70.81	0
2	223324	70.91	0
2	223646	71.01	0
2	223962	71.11	0
2	224278	71.21	0
2	224594	71.31	0
2	224910	71.41	0
2	225226	71.51	0
2	225542	71.61	0
2	225858	71.71	0
2	226174	71.81	0
2	226490	71.91	0
2	226812	72.01	0
2	227128	72.11	0
2	227444	72.21	0
2	227760	72.31	0
2	228076	72.41	0
2	228392	72.51	0
2	228708	72.61	0
2	229024	72.71	0
2	229340	72.81	0
2	229656	72.91	0
2	229978	73.01	0
2	230294	73.11	0
2	230610	73.21	0
2	230926	73.31	0
2	231242	73.41	0
2	231558	73.51	0
2	231874	73.61	0
2	232190	73.71	0
2	232506	73.81	0
2	232822	73.91	0
2	233144	74.01	0
2	233460	74.11	0
2	233776	74.21	0
2	234092	74.31	0
2	234408	74.41	0
2	234724	74.51	0
2	235040	74.61	0
2	235356	74.71	0
2	235672	74.81	0
2	235988	74.91	0
2	236310	75.01	0
2	236626	75.11	0
2	236942	75.21	0
2	237258	75.31	0
2	237574	75.41	0
2	237890	75.51	0
2	238206	75.61	0
2	238522	75.71	0
2	238838	75.81	0
2	239154	75.91	0
2	239476	76.01	0
2	239792	76.11	0
2	240108	76.21	0
2	240424	76.31	0
2	240740	76.41	0
2	241056	76.51	0
2	241372	76.61	0
2	241688	76.71	0
2	242004	76.81	0
2	242320	76.91	0
2	242642	77.01	0
2	242958	77.11	0
2	243274	77.21	0
2	243590	77.31	0
2	243906	77.41	0
2	244222	77.51	0
2	244538	77.61	0
2	244854	77.71	0
2	245170	77.81	0
2	245486	77.91	0
2	245808	78.01	0
2	246124	78.11	0
2	246440	78.21	0
2	246756	78.31	0
2	247072	78.41	0
2	247388	78.51	0
2	247704	78.61	0
2	248020	78.71	0
2	248336	78.81	0
2	248652	78.91	0
2	248974	79.01	0
2	249290	79.11	0
2	249606	79.21	0
2	249922	79.31	0
2	250238	79.41	0
2	250554	79.51	0
2	250870	79.61	0
2	251186	79.71	0
2	251502	79.81	0
2	251818	79.91	0
2	252140	80.01	0
2	252456	80.11	0
2	252772	80.21	0
2	253088	80.31	0
2	253404	80.41	0
2	253720	80.51	0
2	254036	80.61	0
2	254352	80.71	0
2	254668	80.81	0
2	254984	80.91	0
2	255306	81.01	0
2	255622	81.11	0
2	255938	81.21	0
2	256254	81.31	0
2	256570	81.41	0
2	256886	81.51	0
2	257202	81.61	0
2	257518	81.71	0
2	257834	81.81	0
2	258150	81.91	0
2	258472	82.01	0
2	258788	82.11	0
2	259104	82.21	0
2	259420	82.31	0
2	259736	82.41	0
2	260052	82.51	0
2	260368	82.61	0
2	260684	82.71	0
2	261000	82.81	0
2	261316	82.91	0
2	261638	83.01	0
2	261954	83.11	0
2	262270	83.21	0
2	262586	83.31	0
2	262902	83.41	0
2	263218	83.51	0
2	263534	83.61	0
2	263850	83.71	0
2	264166	83.81	0
2	264482	83.91	0
2	264804	84.01	0
2	265120	84.11	0
2	265436	84.21	0
2	265752	84.31	0
2	266068	84.41	0
2	266384	84.51	0
2	266700	84.61	0
2	267016	84.71	0
2	267332	84.81	0
2	267648	84.91	0
2	267970	85.01	0
2	268286	85.11	0
2	268602	85.21	0
2	268918	85.31	0
2	269234	85.41	0
2	269550	85.51	0
2	269866	85.61	0
2	270182	85.71	0
2	270498	85.81	0
2	270814	85.91	0
2	271136	86.01	0
2	271452	86.11	0
2	271768	86.21	0
2	272084	86.31	0
2	272400	86.41	0
2	272716	86.51	0
2	273032	86.61	0
2	273348	86.71	0
2	273664	86.81	0
2	273980	86.91	0
2	274302	87.01	0
2	274618	87.11	0
2	274934	87.21	0
2	275250	87.31	0
2	275566	87.41	0
2	275882	87.51	0
2	276198	87.61	0
2	276514	87.71	0
2	276830	87.81	0
2	277146	87.91	0
2	277468	88.01	0
2	277784	88.11	0
2	278100	88.21	0
2	278416	88.31	0
2	278732	88.41	0
2	279048	88.51	0
2	279364	88.61	0
2	279680	88.71	0
2	279996	88.81	0
2	280312	88.91	0
2	280634	89.01	0
2	280950	89.11	0
2	281266	89.21	0
2	281582	89.31	0
2	281898	89.41	0
2	282214	89.51	0
2	282530	89.61	0
2	282846	89.71	0
2	283162	89.81	0
2	283478	89.91	0
2	283800	90.01	0
2	284116	90.11	0
2	284432	90.21	0
2	284748	90.31	0
2	285064	90.41	0
2	285380	90.51	0
2	285696	90.61	0
2	286012	90.71	0
2	286328	90.81	0
2	286644	90.91	0
2	286966	91.01	0
2	287282	91.11	0
2	287598	91.21	0
2	287914	91.31	0
2	288230	91.41	0
2	288546	91.51	0
2	288862	91.61	0
2	289178	91.71	0
2	289494	91.81	0
2	289810	91.91	0
2	290132	92.01	0
2	290448	92.11	0
2	290764	92.21	0
2	291080	92.31	0
2	291396	92.41	0
2	291712	92.51	0
2	292028	92.61	0
2	292344	92.71	0
2	292660	92.81	0
2	292976	92.91	0
2	293298	93.01	0
2	293614	93.11	0
2	293930	93.21	0
2	294246	93.31	0
2	294562	93.41	0
2	294878	93.51	0
2	295194	93.61	0
2	295510	93.71	0
2	295826	93.81	0
2	296142	93.91	0
2	296464	94.01	0
2	296780	94.11	0
2	297096	94.21	0
2	297412	94.31	0
2	297728	94.41	0
2	298044	94.51	0
2	298360	94.61	0
2	298676	94.71	0
2	298992	94.81	0
2	299308	94.91	0
2	299630	95.01	0
2	299946	95.11	0
2	300262	95.21	0
2	300578	95.31	0
2	300894	95.41	0
2	301210	95.51	0
2	301526	95.61	0
2	301842	95.71	0
2	302158	95.81	0
2	302474	95.91	0
2	302796	96.01	0
2	303112	96.11	0
2	303428	96.21	0
2	303744	96.31	0
2	304060	96.41	0
2	304376	96.51	0
2	304692	96.61	0
2	305008	96.71	0
2	305324	96.81	0
2	305640	96.91	0
2	305962	97.01	0
2	306278	97.11	0
2	306594	97.21	0
2	306910	97.31	0
2	307226	97.41	0
2	307542	97.51	0
2	307858	97.61	0
2	308174	97.71	0
2	308490	97.81	0
2	308806	97.91	0
2	309128	98.01	0
2	309444	98.11	0
2	309760	98.21	0
2	310076	98.31	0
2	310392	98.41	0
2	310708	98.51	0
2	311024	98.61	0
2	311340	98.71	0
2	311656	98.81	0
2	311972	98.91	0
2	312294	99.01	0
2	312610	99.11	0
2	312926	99.21	0
2	313242	99.31	0
2	313558	99.41	0
2	313874	99.51	0
2	314190	99.61	0
2	314506	99.71	0
2	314822	99.81	0
2	315138	99.91	0
3	113	1.11	-0.000716383
3	429	1.21	-0.00136341
3	745	1.31	-0.00186974
3	1061	1.41	-0.00225157
3	1377	1.51	-0.00252443
3	1693	1.61	-0.00270298
3	2009	1.71	-0.00280098
3	2325	1.81	-0.00283113
3	2641	1.91	-0.00280509
3	2963	2.01	-0.00273342
3	3279	2.11	-0.00262559
3	3595	2.21	-0.00249005
3	3911	2.31	-0.00233419
3	4227	2.41	-0.00216447
3	4543	2.51	-0.00198642
3	4859	2.61	-0.00180472
3	5175	2.71	-0.0016233
3	5491	2.81	-0.00144536
3	5807	2.91	-0.00127346
3	6129	3.01	-0.0011096
3	6445	3.11	-0.000955278
3	6761	3.21	-0.000811546
3	7077	3.31	-0.00067908
3	7393	3.41	-0.000558232
3	7709	3.51	-0.000449082
3	8025	3.61	-0.000351487
3	8341	3.71	-0.00026512
3	8657	3.81	-0.000189514
3	8973	3.91	-0.000124092
3	9295	4.01	-6.81972e-05
3	9611	4.11	-2.11209e-05
3	9927	4.21	1.78769e-05
3	10243	4.31	4.9548e-05
3	10559	4.41	7.46407e-05
3	10875	4.51	9.38867e-05
3	11191	4.61	0.000107991
3	11507	4.71	0.000117625
3	11823	4.81	0.000123418
3	12139	4.91	0.000125957
3	12461	5.01	0.000125781
3	12777	5.11	0.00012338
3	13093	5.21	0.000119198
3	13409	5.31	0.000113629
3	13725	5.41	0.000107022
3	14041	5.51	9.96832e-05
3	14357	5.61	9.18747e-05
3	14673	5.71	8.38211e-05
3	14989	5.81	7.57109e-05
3	15305	5.91	6.76999e-05
3	15627	6.01	5.99137e-05
3	15943	6.11	5.24518e-05
3	16259	6.21	4.53896e-05
3	16575	6.31	3.87821e-05
3	16891	6.41	3.2666e-05
3	17207	6.51	2.70628e-05
3	17523	6.61	2.19809e-05
3	17839	6.71	1.74176e-05
3	18155	6.81	1.33618e-05
3	18471	6.91	9.79494e-06
3	18793	7.01	6.6932e-06
3	19109	7.11	4.02864e-06
3	19425	7.21	1.77051e-06
3	19741	7.31	-1.13691e-07
3	20057	7.41	-1.65736e-06
3	20373	7.51	-2.89397e-06
3	20689	7.61	-3.85652e-06
3	21005	7.71	-4.57698e-06
3	21321	7.81	-5.08591e-06
3	21637	7.91	-5.41219e-06
3	21959	8.01	-5.58279e-06
3	22275	8.11	-5.6226e-06
3	22591	8.21	-5.55442e-06
3	22907	8.31	-5.39886e-06
3	23223	8.41	-5.17441e-06
3	23539	8.51	-4.89748e-06
3	23855	8.61	-4.58246e-06
3	24171	8.71	-4.24184e-06
3	24487	8.81	-3.88634e-06
3	24803	8.91	-3.52499e-06
3	25125	9.01	-3.16534e-06
3	25441	9.11	-2.81353e-06
3	25757	9.21	-2.47446e-06
3	26073	9.31	-2.15192e-06
3	26389	9.41	-1.84873e-06
3	26705	9.51	-1.56685e-06
3	27021	9.61	-1.30751e-06
3	27337	9.71	-1.0713e-06
3	27653	9.81	-8.58321e-07
3	27969	9.91	-6.68206e-07
3	28373	10.01	-5.0026e-07
3	28693	10.11	-3.53514e-07
3	29013	10.21	-2.2679e-07
3	29333	10.31	-1.18765e-07
3	29653	10.41	-2.80163e-08
3	29973	10.51	4.6931e-08
3	30293	10.61	1.07573e-07
3	30613	10.71	1.55391e-07
3	30933	10.81	1.91831e-07
3	31253	10.91	2.18284e-07
3	31579	11.01	2.3607e-07
3	31899	11.11	2.46427e-07
3	32219	11.21	2.50502e-07
3	32539	11.31	2.49353e-07
3	32859	11.41	2.43938e-07
3	33179	11.51	2.3512e-07
3	33499	11.61	2.23669e-07
3	33819	11.71	2.10264e-07
3	34139	11.81	1.95496e-07
3	34459	11.91	1.79874e-07
3	34785	12.01	1.63833e-07
3	35105	12.11	1.47736e-07
3	35425	12.21	1.3188e-07
3	35745	12.31	1.16508e-07
3	36065	12.41	1.01807e-07
3	36385	12.51	8.79222e-08
3	36705	12.61	7.49541e-08
3	37025	12.71	6.29711e-08
3	37345	12.81	5.20114e-08
3	37665	12.91	4.20883e-08
3	37991	13.01	3.3193e-08
3	38311	13.11	2.53003e-08
3	38631	13.21	1.83718e-08
3	38951	13.31	1.23581e-08
3	39271	13.41	7.20348e-09
3	39591	13.51	2.84537e-09
3	39911	13.61	-7.80886e-10
3	40231	13.71	-3.74136e-09
3	40551	13.81	-6.10285e-09
3	40871	13.91	-7.93072e-09
3	41197	14.01	-9.28821e-09
3	41517	14.11	-1.0235e-08
3	41837	14.21	-1.08283e-08
3	42157	14.31	-1.11211e-08
3	42477	14.41	-1.11612e-08
3	42797	14.51	-1.09946e-08
3	43117	14.61	-1.06599e-08
3	43437	14.71	-1.01945e-08
3	43757	14.81	-9.62999e-09
3	44077	14.91	-8.99405e-09
3	44403	15.01	-8.31086e-09
3	44723	15.11	-7.60103e-09
3	45043	15.21	-6.88338e-09
3	45363	15.31	-6.17071e-09
3	45683	15.41	-5.47544e-09
3	46003	15.51	-4.80682e-09
3	46323	15.61	-4.17266e-09
3	46643	15.71	-3.57687e-09
3	46963	15.81	-3.02443e-09
3	47283	15.91	-2.51674e-09
3	47609	16.01	-2.05489e-09
3	47929	16.11	-1.63958e-09
3	48249	16.21	-1.26903e-09
3	48569	16.31	-9.42535e-10
3	48889	16.41	-6.57963e-10
3	49209	16.51	-4.1247e-10
3	49529	16.61	-2.04636e-10
3	49849	16.71	-2.91323e-11
3	50169	16.81	1.14753e-10
3	50489	16.91	2.30926e-10
3	50815	17.01	3.22231e-10
3	51135	17.11	3.91154e-10
3	51455	17.21	4.40892e-10
3	51775	17.31	4.73577e-10
3	52095	17.41	4.92051e-10
3	52415	17.51	4.98446e-10
3	52735	17.61	4.94893e-10
3	53055	17.71	4.82814e-10
3	53375	17.81	4.6434e-10
3	53695	17.91	4.40892e-10
3	54021	18.01	4.13536e-10
3	54341	18.11	3.83693e-10
3	54661	18.21	3.51719e-10
3	54981	18.31	3.19744e-10
3	55301	18.41	2.8777e-10
3	55621	18.51	2.55795e-10
3	55941	18.61	2.25953e-10
3	56261	18.71	1.97531e-10
3	56581	18.81	1.6982e-10
3	56901	18.91	1.44951e-10
3	57227	19.01	1.21503e-10
3	57547	19.11	1.00187e-10
3	57867	19.21	8.10019e-11
3	58187	19.31	6.32383e-11
3	58507	19.41	4.86722e-11
3	58827	19.51	3.44613e-11
3	59147	19.61	2.34479e-11
3	59467	19.71	1.27898e-11
3	59787	19.81	4.9738e-12
3	60107	19.91	-2.13163e-12
3	60433	20.01	-8.17124e-12
3	60753	20.11	-1.1724e-11
3	61073	20.21	-1.52767e-11
3	61393	20.31	-1.88294e-11
3	61713	20.41	-2.02505e-11
3	62033	20.51	-2.02505e-11
3	62353	20.61	-2.02505e-11
3	62673	20.71	-2.02505e-11
3	62993	20.81	-2.02505e-11
3	63313	20.91	-2.02505e-11
3	63639	21.01	-2.02505e-11
3	63959	21.11	-2.02505e-11
3	64279	21.21	-2.02505e-11
3	64599	21.31	-1.88294e-11
3	64919	21.41	-1.7053e-11
3	65239	21.51	-1.52767e-11
3	65559	21.61	-1.38556e-11
3	65879	21.71	-1.24345e-11
3	66199	21.81	-1.13687e-11
3	66519	21.91	-1.03029e-11
3	66845	22.01	-9.23706e-12
3	67165	22.11	-8.52651e-12
3	67485	22.21	-7.4607e-12
3	67805	22.31	-6.75016e-12
3	68125	22.41	-6.03961e-12
3	68445	22.51	-5.68434e-12
3	68765	22.61	-4.9738e-12
3	69085	22.71	-4.61853e-12
3	69405	22.81	-4.26326e-12
3	69725	22.91	-3.90799e-12
3	70051	23.01	-3.55271e-12
3	70371	23.11	-3.19744e-12
3	70691	23.21	-2.84217e-12
3	71011	23.31	-2.4869e-12
3	71331	23.41	-2.13163e-12
3	71651	23.51	-2.13163e-12
3	71971	23.61	-1.77636e-12
3	72291	23.71	-1.77636e-12
3	72611	23.81	-1.42109e-12
3	72931	23.91	-1.42109e-12
3	73257	24.01	-1.06581e-12
3	73577	24.11	-1.06581e-12
3	73897	24.21	-1.06581e-12
3	74217	24.31	-1.06581e-12
3	74537	24.41	-7.10543e-13
3	74857	24.51	-7.10543e-13
3	75177	24.61	-7.10543e-13
3	75497	24.71	-7.10543e-13
3	75817	24.81	-7.10543e-13
3	76137	24.91	-3.55271e-13
3	76463	25.01	-3.55271e-13
3	76783	25.11	-3.55271e-13
3	77103	25.21	-3.55271e-13
3	77423	25.31	-3.55271e-13
3	77743	25.41	-3.55271e-13
3	78063	25.51	-3.55271e-13
3	78383	25.61	-3.55271e-13
3	78703	25.71	-3.55271e-13
3	79023	25.81	-3.55271e-13
3	79343	25.91	0
3	79669	26.01	0
3	79989	26.11	0
3	80309	26.21	0
3	80629	26.31	0
3	80949	26.41	0
3	81269	26.51	0
3	81589	26.61	0
3	81909	26.71	0
3	82229	26.81	0
3	82549	26.91	0
3	82875	27.01	0
3	83195	27.11	0
3	83515	27.21	0
3	83835	27.31	0
3	84155	27.41	0
3	84475	27.51	0
3	84795	27.61	0
3	85115	27.71	0
3	85435	27.81	0
3	85755	27.91	0
3	86081	28.01	0
3	86401	28.11	0
3	86721	28.21	0
3	87041	28.31	0
3	87361	28.41	0
3	87681	28.51	0
3	88001	28.61	0
3	88321	28.71	0
3	88641	28.81	0
3	88961	28.91	0
3	89287	29.01	0
3	89607	29.11	0
3	89927	29.21	0
3	90247	29.31	0
3	90567	29.41	0
3	90887	29.51	0
3	91207	29.61	0
3	91527	29.71	0
3	91847	29.81	0
3	92167	29.91	0
3	92493	30.01	0
3	92813	30.11	0
3	93133	30.21	0
3	93453	30.31	0
3	93773	30.41	0
3	94093	30.51	0
3	94413	30.61	0
3	94733	30.71	0
3	95053	30.81	0
3	95373	30.91	0
3	95699	31.01	0
3	96019	31.11	0
3	96339	31.21	0
3	96659	31.31	0
3	96979	31.41	0
3	97299	31.51	0
3	97619	31.61	0
3	97939	31.71	0
3	98259	31.81	0
3	98579	31.91	0
3	98905	32.01	0
3	99225	32.11	0
3	99545	32.21	0
3	99865	32.31	0
3	100185	32.41	0
3	100505	32.51	0
3	100825	32.61	0
3	101145	32.71	0
3	101465	32.81	0
3	101785	32.91	0
3	102111	33.01	0
3	102431	33.11	0
3	102751	33.21	0
3	103071	33.31	0
3	103391	33.41	0
3	103711	33.51	0
3	104031	33.61	0
3	104351	33.71	0
3	104671	33.81	0
3	104991	33.91	0
3	105317	34.01	0
3	105637	34.11	0
3	105957	34.21	0
3	106277	34.31	0
3	106597	34.41	0
3	106917	34.51	0
3	107237	34.61	0
3	107557	34.71	0
3	107877	34.81	0
3	108197	34.91	0
3	108523	35.01	0
3	108843	35.11	0
3	109163	35.21	0
3	109483	35.31	0
3	109803	35.41	0
3	110123	35.51	0
3	110443	35.61	0
3	110763	35.71	0
3	111083	35.81	0
3	111403	35.91	0
3	111729	36.01	0
3	112049	36.11	0
3	112369	36.21	0
3	112689	36.31	0
3	113009	36.41	0
3	113329	36.51	0
3	113649	36.61	0
3	113969	36.71	0
3	114289	36.81	0
3	114609	36.91	0
3	114935	37.01	0
3	115255	37.11	0
3	115575	37.21	0
3	115895	37.31	0
3	116215	37.41	0
3	116535	37.51	0
3	116855	37.61	0
3	117175	37.71	0
3	117495	37.81	0
3	117815	37.91	0
3	118141	38.01	0
3	118461	38.11	0
3	118781	38.21	0
3	119101	38.31	0
3	119421	38.41	0
3	119741	38.51	0
3	120061	38.61	0
3	120381	38.71	0
3	120701	38.81	0
3	121021	38.91	0
3	121347	39.01	0
3	121667	39.11	0
3	121987	39.21	0
3	122307	39.31	0
3	122627	39.41	0
3	122947	39.51	0
3	123267	39.61	0
3	123587	39.71	0
3	123907	39.81	0
3	124227	39.91	0
3	124553	40.01	0
3	124873	40.11	0
3	125193	40.21	0
3	125513	40.31	0
3	125833	40.41	0
3	126153	40.51	0
3	126473	40.61	0
3	126793	40.71	0
3	127113	40.81	0
3	127433	40.91	0
3	127759	41.01	0
3	128079	41.11	0
3	128399	41.21	0
3	128719	41.31	0
3	129039	41.41	0
3	129359	41.51	0
3	129679	41.61	0
3	129999	41.71	0
3	130319	41.81	0
3	130639	41.91	0
3	130965	42.01	0
3	131285	42.11	0
3	131605	42.21	0
3	131925	42.31	0
3	132245	42.41	0
3	132565	42.51	0
3	132885	42.61	0
3	133205	42.71	0
3	133525	42.81	0
3	133845	42.91	0
3	134171	43.01	0
3	134491	43.11	0
3	134811	43.21	0
3	135131	43.31	0
3	135451	43.41	0
3	135771	43.51	0
3	136091	43.61	0
3	136411	43.71	0
3	136731	43.81	0
3	137051	43.91	0
3	137377	44.01	0
3	137697	44.11	0
3	138017	44.21	0
3	138337	44.31	0
3	138657	44.41	0
3	138977	44.51	0
3	139297	44.61	0
3	139617	44.71	0
3	139937	44.81	0
3	140257	44.91	0
3	140583	45.01	0
3	140903	45.11	0
3	141223	45.21	0
3	141543	45.31	0
3	141863	45.41	0
3	142183	45.51	0
3	142503	45.61	0
3	142823	45.71	0
3	143216	45.81	0
3	143535	45.91	0
3	143860	46.01	0
3	144179	46.11	0
3	144498	46.21	0
3	144890	46.31	0
3	145208	46.41	0
3	145526	46.51	0
3	145844	46.61	0
3	146162	46.71	0
3	146480	46.81	0
3	146798	46.91	0
3	147122	47.01	0
3	147440	47.11	0
3	147758	47.21	0
3	148076	47.31	0
3	148394	47.41	0
3	148712	47.51	0
3	149030	47.61	0
3	149348	47.71	0
3	149666	47.81	0
3	149984	47.91	0
3	150308	48.01	0
3	150626	48.11	0
3	150944	48.21	0
3	151262	48.31	0
3	151580	48.41	0
3	151898	48.51	0
3	152216	48.61	0
3	152534	48.71	0
3	152852	48.81	0
3	153170	48.91	0
3	153494	49.01	0
3	153812	49.11	0
3	154130	49.21	0
3	154448	49.31	0
3	154766	49.41	0
3	155084	49.51	0
3	155402	49.61	0
3	155720	49.71	0
3	156038	49.81	0
3	156356	49.91	0
3	156680	50.01	0
3	156998	50.11	0
3	157316	50.21	0
3	157634	50.31	0
3	157952	50.41	0
3	158270	50.51	0
3	158588	50.61	0
3	158906	50.71	0
3	159224	50.81	0
3	159542	50.91	0
3	159866	51.01	0
3	160184	51.11	0
3	160502	51.21	0
3	160820	51.31	0
3	161138	51.41	0
3	161456	51.51	0
3	161774	51.61	0
3	162092	51.71	0
3	162410	51.81	0
3	162947	51.91	0
3	163270	52.01	0
3	163587	52.11	0
3	163904	52.21	0
3	164440	52.31	0
3	164756	52.41	0
3	165072	52.51	0
3	165388	52.61	0
3	165704	52.71	0
3	166020	52.81	0
3	166336	52.91	0
3	166658	53.01	0
3	166974	53.11	0
3	167290	53.21	0
3	167606	53.31	0
3	167922	53.41	0
3	168238	53.51	0
3	168554	53.61	0
3	168870	53.71	0
3	169186	53.81	0
3	169502	53.91	0
3	169824	54.01	0
3	170140	54.11	0
3	170456	54.21	0
3	170772	54.31	0
3	171088	54.41	0
3	171404	54.51	0
3	171720	54.61	0
3	172036	54.71	0
3	172352	54.81	0
3	172668	54.91	0
3	172990	55.01	0
3	173306	55.11	0
3	173622	55.21	0
3	173938	55.31	0
3	174254	55.41	0
3	174570	55.51	0
3	174886	55.61	0
3	175202	55.71	0
3	175518	55.81	0
3	175834	55.91	0
3	176156	56.01	0
3	176472	56.11	0
3	176788	56.21	0
3	177104	56.31	0
3	177420	56.41	0
3	177736	56.51	0
3	178052	56.61	0
3	178368	56.71	0
3	178684	56.81	0
3	179000	56.91	0
3	179322	57.01	0
3	179638	57.11	0
3	179954	57.21	0
3	180270	57.31	0
3	180586	57.41	0
3	180902	57.51	0
3	181218	57.61	0
3	181534	57.71	0
3	181850	57.81	0
3	182166	57.91	0
3	182488	58.01	0
3	182804	58.11	0
3	183120	58.21	0
3	183436	58.31	0
3	183752	58.41	0
3	184068	58.51	0
3	184384	58.61	0
3	184700	58.71	0
3	185016	58.81	0
3	185332	58.91	0
3	185654	59.01	0
3	185970	59.11	0
3	186286	59.21	0
3	186602	59.31	0
3	186918	59.41	0
3	187234	59.51	0
3	187550	59.61	0
3	187866	59.71	0
3	188182	59.81	0
3	188498	59.91	0
3	188820	60.01	0
3	189136	60.11	0
3	189452	60.21	0
3	189768	60.31	0
3	190084	60.41	0
3	190400	60.51	0
3	190716	60.61	0
3	191032	60.71	0
3	191348	60.81	0
3	191664	60.91	0
3	191986	61.01	0
3	192302	61.11	0
3	192618	61.21	0
3	192934	61.31	0
3	193250	61.41	0
3	193566	61.51	0
3	193882	61.61	0
3	194198	61.71	0
3	194514	61.81	0
3	194830	61.91	0
3	195152	62.01	0
3	195468	62.11	0
3	195784	62.21	0
3	196100	62.31	0
3	196416	62.41	0
3	196732	62.51	0
3	197048	62.61	0
3	197364	62.71	0
3	197680	62.81	0
3	197996	62.91	0
3	198318	63.01	0
3	198634	63.11	0
3	198950	63.21	0
3	199266	63.31	0
3	199582	63.41	0
3	199898	63.51	0
3	200214	63.61	0
3	200530	63.71	0
3	200846	63.81	0
3	201162	63.91	0
3	201484	64.01	0
3	201800	64.11	0
3	202116	64.21	0
3	202432	64.31	0
3	202748	64.41	0
3	203064	64.51	0
3	203380	64.61	0
3	203696	64.71	0
3	204012	64.81	0
3	204328	64.91	0
3	204650	65.01	0
3	204966	65.11	0
3	205282	65.21	0
3	205598	65.31	0
3	205914	65.41	0
3	206230	65.51	0
3	206546	65.61	0
3	206862	65.71	0
3	207178	65.81	0
3	207494	65.91	0
3	207816	66.01	0
3	208132	66.11	0
3	208448	66.21	0
3	208764	66.31	0
3	209080	66.41	0
3	209396	66.51	0
3	209712	66.61	0
3	210028	66.71	0
3	210344	66.81	0
3	210660	66.91	0
3	210982	67.01	0
3	211298	67.11	0
3	211614	67.21	0
3	211930	67.31	0
3	212246	67.41	0
3	212562	67.51	0
3	212878	67.61	0
3	213194	67.71	0
3	213510	67.81	0
3	213826	67.91	0
3	214148	68.01	0
3	214464	68.11	0
3	214780	68.21	0
3	215096	68.31	0
3	215412	68.41	0
3	215728	68.51	0
3	216044	68.61	0
3	216360	68.71	0
3	216676	68.81	0
3	216992	68.91	0
3	217314	69.01	0
3	217630	69.11	0
3	217946	69.21	0
3	218262	69.31	0
3	218578	69.41	0
3	218894	69.51	0
3	219210	69.61	0
3	219526	69.71	0
3	219842	69.81	0
3	220158	69.91	0
3	220480	70.01	0
3	220796	70.11	0
3	221112	70.21	0
3	221428	70.31	0
3	221744	70.41	0
3	222060	70.51	0
3	222376	70.61	0
3	222692	70.71	0
3	223008	70.81	0
3	223324	70.91	0
3	223646	71.01	0
3	223962	71.11	0
3	224278	71.21	0
3	224594	71.31	0
3	224910	71.41	0
3	225226	71.51	0
3	225542	71.61	0
3	225858	71.71	0
3	226174	71.81	0
3	226490	71.91	0
3	226812	72.01	0
3	227128	72.11	0
3	227444	72.21	0
3	227760	72.31	0
3	228076	72.41	0
3	228392	72.51	0
3	228708	72.61	0
3	229024	72.71	0
3	229340	72.81	0
3	229656	72.91	0
3	229978	73.01	0
3	230294	73.11	0
3	230610	73.21	0
3	230926	73.31	0
3	231242	73.41	0
3	231558	73.51	0
3	231874	73.61	0
3	232190	73.71	0
3	232506	73.81	0
3	232822	73.91	0
3	233144	74.01	0
3	233460	74.11	0
3	233776	74.21	0
3	234092	74.31	0
3	234408	74.41	0
3	234724	74.51	0
3	235040	74.61	0
3	235356	74.71	0
3	235672	74.81	0
3	235988	74.91	0
3	236310	75.01	0
3	236626	75.11	0
3	236942	75.21	0
3	237258	75.31	0
3	237574	75.41	0
3	237890	75.51	0
3	238206	75.61	0
3	238522	75.71	0
3	238838	75.81	0
3	239154	75.91	0
3	239476	76.01	0
3	239792	76.11	0
3	240108	76.21	0
3	240424	76.31	0
3	240740	76.41	0
3	241056	76.51	0
3	241372	76.61	0
3	241688	76.71	0
3	242004	76.81	0
3	242320	76.91	0
3	242642	77.01	0
3	242958	77.11	0
3	243274	77.21	0
3	243590	77.31	0
3	243906	77.41	0
3	244222	77.51	0
3	244538	77.61	0
3	244854	77.71	0
3	245170	77.81	0
3	245486	77.91	0
3	245808	78.01	0
3	246124	78.11	0
3	246440	78.21	0
3	246756	78.31	0
3	247072	78.41	0
3	247388	78.51	0
3	247704	78.61	0
3	248020	78.71	0
3	248336	78.81	0
3	248652	78.91	0
3	248974	79.01	0
3	249290	79.11	0
3	249606	79.21	0
3	249922	79.31	0
3	250238	79.41	0
3	250554	79.51	0
3	250870	79.61	0
3	251186	79.71	0
3	251502	79.81	0
3	251818	79.91	0
3	252140	80.01	0
3	252456	80.11	0
3	252772	80.21	0
3	253088	80.31	0
3	253404	80.41	0
3	253720	80.51	0
3	254036	80.61	0
3	254352	80.71	0
3	254668	80.81	0
3	254984	80.91	0
3	255306	81.01	0
3	255622	81.11	0
3	255938	81.21	0
3	256254	81.31	0
3	256570	81.41	0
3	256886	81.51	0
3	257202	81.61	0
3	257518	81.71	0
3	257834	81.81	0
3	258150	81.91	0
3	258472	82.01	0
3	258788	82.11	0
3	259104	82.21	0
3	259420	82.31	0
3	259736	82.41	0
3	260052	82.51	0
3	260368	82.61	0
3	260684	82.71	0
3	261000	82.81	0
3	261316	82.91	0
3	261638	83.01	0
3	261954	83.11	0
3	262270	83.21	0
3	262586	83.31	0
3	262902	83.41	0
3	263218	83.51	0
3	263534	83.61	0
3	263850	83.71	0
3	264166	83.81	0
3	264482	83.91	0
3	264804	84.01	0
3	265120	84.11	0
3	265436	84.21	0
3	265752	84.31	0
3	266068	84.41	0
3	266384	84.51	0
3	266700	84.61	0
3	267016	84.71	0
3	267332	84.81	0
3	267648	84.91	0
3	267970	85.01	0
3	268286	85.11	0
3	268602	85.21	0
3	268918	85.31	0
3	269234	85.41	0
3	269550	85.51	0
3	269866	85.61	0
3	270182	85.71	0
3	270498	85.81	0
3	270814	85.91	0
3	271136	86.01	0
3	271452	86.11	0
3	271768	86.21	0
3	272084	86.31	0
3	272400	86.41	0
3	272716	86.51	0
3	273032	86.61	0
3	273348	86.71	0
3	273664	86.81	0
3	273980	86.91	0
3	274302	87.01	0
3	274618	87.11	0
3	274934	87.21	0
3	275250	87.31	0
3	275566	87.41	0
3	275882	87.51	0
3	276198	87.61	0
3	276514	87.71	0
3	276830	87.81	0
3	277146	87.91	0
3	277468	88.01	0
3	277784	88.11	0
3	278100	88.21	0
3	278416	88.31	0
3	278732	88.41	0
3	279048	88.51	0
3	279364	88.61	0
3	279680	88.71	0
3	279996	88.81	0
3	280312	88.91	0
3	280634	89.01	0
3	280950	89.11	0
3	281266	89.21	0
3	281582	89.31	0
3	281898	89.41	0
3	282214	89.51	0
3	282530	89.61	0
3	282846	89.71	0
3	283162	89.81	0
3	283478	89.91	0
3	283800	90.01	0
3	284116	90.11	0
3	284432	90.21	0
3	284748	90.31	0
3	285064	90.41	0
3	285380	90.51	0
3	285696	90.61	0
3	286012	90.71	0
3	286328	90.81	0
3	286644	90.91	0
3	286966	91.01	0
3	287282	91.11	0
3	287598	91.21	0
3	287914	91.31	0
3	288230	91.41	0
3	288546	91.51	0
3	288862	91.61	0
3	289178	91.71	0
3	289494	91.81	0
3	289810	91.91	0
3	290132	92.01	0
3	290448	92.11	0
3	290764	92.21	0
3	291080	92.31	0
3	291396	92.41	0
3	291712	92.51	0
3	292028	92.61	0
3	292344	92.71	0
3	292660	92.81	0
3	292976	92.91	0
3	293298	93.01	0
3	293614	93.11	0
3	293930	93.21	0
3	294246	93.31	0
3	294562	93.41	0
3	294878	93.51	0
3	295194	93.61	0
3	295510	93.71	0
3	295826	93.81	0
3	296142	93.91	0
3	296464	94.01	0
3	296780	94.11	0
3	297096	94.21	0
3	297412	94.31	0
3	297728	94.41	0
3	298044	94.51	0
3	298360	94.61	0
3	298676	94.71	0
3	298992	94.81	0
3	299308	94.91	0
3	299630	95.01	0
3	299946	95.11	0
3	300262	95.21	0
3	300578	95.31	0
3	300894	95.41	0
3	301210	95.51	0
3	301526	95.61	0
3	301842	95.71	0
3	302158	95.81	0
3	302474	95.91	0
3	302796	96.01	0
3	303112	96.11	0
3	303428	96.21	0
3	303744	96.31	0
3	304060	96.41	0
3	304376	96.51	0
3	304692	96.61	0
3	305008	96.71	0
3	305324	96.81	0
3	305640	96.91	0
3	305962	97.01	0
3	306278	97.11	0
3	306594	97.21	0
3	306910	97.31	0
3	307226	97.41	0
3	307542	97.51	0
3	307858	97.61	0
3	308174	97.71	0
3	308490	97.81	0
3	308806	97.91	0
3	309128	98.01	0
3	309444	98.11	0
3	309760	98.21	0
3	310076	98.31	0
3	310392	98.41	0
3	310708	98.51	0
3	311024	98.61	0
3	311340	98.71	0
3	311656	98.81	0
3	311972	98.91	0
3	312294	99.01	0
3	312610	99.11	0
3	312926	99.21	0
3	313242	99.31	0
3	313558	99.41	0
3	313874	99.51	0
3	314190	99.61	0
[...]
69	274296	87	0
69	277462	88	0
69	280628	89	0
69	283794	90	0
69	286960	91	0
69	290126	92	0
69	293292	93	0
69	296458	94	0
69	299624	95	0
69	302790	96	0
69	305956	97	0
69	309122	98	0
69	312288	99	0
69	315454	100	0
70	2958	2	2
70	6124	3	2
70	9290	4	2
70	12456	5	2
70	15622	6	2
70	18788	7	2
70	21954	8	2
70	25120	9	2
70	28288	10	2
70	31570	11	2
70	34776	12	2
70	37982	13	2
70	41188	14	2
70	44394	15	2
70	47600	16	2
70	50806	17	2
70	54012	18	2
70	57218	19	2
70	60424	20	2
70	63630	21	2
70	66836	22	2
70	70042	23	2
70	73248	24	2
70	76454	25	2
70	79660	26	2
70	82866	27	2
70	86072	28	2
70	89278	29	2
70	92484	30	2
70	95690	31	2
70	98896	32	2
70	102102	33	2
70	105308	34	2
70	108514	35	2
70	111720	36	2
70	114926	37	2
70	118132	38	2
70	121338	39	2
70	124544	40	2
70	127750	41	2
70	130956	42	2
70	134162	43	2
70	137368	44	2
70	140574	45	2
70	143852	46	2
70	147115	47	2
70	150301	48	2
70	153487	49	2
70	156673	50	2
70	159859	51	2
70	163264	52	2
70	166653	53	2
70	169819	54	2
70	172985	55	2
70	176151	56	2
70	179317	57	2
70	182483	58	2
70	185649	59	2
70	188815	60	2
70	191981	61	2
70	195147	62	2
70	198313	63	2
70	201479	64	2
70	204645	65	2
70	207811	66	2
70	210977	67	2
70	214143	68	2
70	217309	69	2
70	220475	70	2
70	223641	71	2
70	226807	72	2
70	229973	73	2
70	233139	74	2
70	236305	75	2
70	239471	76	2
70	242637	77	2
70	245803	78	2
70	248969	79	2
70	252135	80	2
70	255301	81	2
70	258467	82	2
70	261633	83	2
70	264799	84	2
70	267965	85	2
70	271131	86	2
70	274297	87	2
70	277463	88	2
70	280629	89	2
70	283795	90	2
70	286961	91	2
70	290127	92	2
70	293293	93	2
70	296459	94	2
70	299625	95	2
70	302791	96	2
70	305957	97	2
70	309123	98	2
70	312289	99	2
70	315455	100	2
71	2958	2	0.016857
71	6124	3	0.01873
71	9290	4	0.01873
71	12456	5	0.01873
71	15622	6	0.01873
71	18788	7	0.01873
71	21954	8	0.01873
71	25120	9	0.01873
71	28288	10	0.01873
71	31570	11	0.018778278521
71	34776	12	0.01873
71	37982	13	0.01873
71	41188	14	0.01873
71	44394	15	0.01873
71	47600	16	0.01873
71	50806	17	0.01873
71	54012	18	0.01873
71	57218	19	0.01873
71	60424	20	0.01873
71	63630	21	0.01873
71	66836	22	0.01873
71	70042	23	0.01873
71	73248	24	0.01873
71	76454	25	0.01873
71	79660	26	0.01873
71	82866	27	0.01873
71	86072	28	0.01873
71	89278	29	0.01873
71	92484	30	0.01873
71	95690	31	0.01873
71	98896	32	0.01873
71	102102	33	0.01873
71	105308	34	0.01873
71	108514	35	0.01873
71	111720	36	0.01873
71	114926	37	0.01873
71	118132	38	0.01873
71	121338	39	0.01873
71	124544	40	0.01873
71	127750	41	0.01873
71	130956	42	0.01873
71	134162	43	0.01873
71	137368	44	0.01873
71	140574	45	0.01873
71	143852	46	0.018842
71	147115	47	0.018842
71	150301	48	0.01873
71	153487	49	0.01873
71	156673	50	0.01873
71	159859	51	0.01873
71	163264	52	0.019131252586
71	166653	53	0.019066
71	169819	54	0.01873
71	172985	55	0.01873
71	176151	56	0.01873
71	179317	57	0.01873
71	182483	58	0.01873
71	185649	59	0.01873
71	188815	60	0.01873
71	191981	61	0.01873
71	195147	62	0.01873
71	198313	63	0.01873
71	201479	64	0.01873
71	204645	65	0.01873
71	207811	66	0.01873
71	210977	67	0.01873
71	214143	68	0.01873
71	217309	69	0.01873
71	220475	70	0.01873
71	223641	71	0.01873
71	226807	72	0.01873
71	229973	73	0.01873
71	233139	74	0.01873
71	236305	75	0.01873
71	239471	76	0.01873
71	242637	77	0.01873
71	245803	78	0.01873
71	248969	79	0.01873
71	252135	80	0.01873
71	255301	81	0.01873
71	258467	82	0.01873
71	261633	83	0.01873
71	264799	84	0.01873
71	267965	85	0.01873
71	271131	86	0.01873
71	274297	87	0.01873
71	277463	88	0.01873
71	280629	89	0.01873
71	283795	90	0.01873
71	286961	91	0.01873
71	290127	92	0.01873
71	293293	93	0.01873
71	296459	94	0.01873
71	299625	95	0.01873
71	302791	96	0.01873
71	305957	97	0.01873
71	309123	98	0.01873
71	312289	99	0.01873
71	315455	100	0.01873
72	2958	2	0
72	6124	3	0
72	9290	4	0
72	12456	5	0
72	15622	6	0
72	18788	7	0
72	21954	8	0
72	25120	9	0
72	28288	10	0
72	31570	11	0
72	34776	12	0
72	37982	13	0
72	41188	14	0
72	44394	15	0
72	47600	16	0
72	50806	17	0
72	54012	18	0
72	57218	19	0
72	60424	20	0
72	63630	21	0
72	66836	22	0
72	70042	23	0
72	73248	24	0
72	76454	25	0
72	79660	26	0
72	82866	27	0
72	86072	28	0
72	89278	29	0
72	92484	30	0
72	95690	31	0
72	98896	32	0
72	102102	33	0
72	105308	34	0
72	108514	35	0
72	111720	36	0
72	114926	37	0
72	118132	38	0
72	121338	39	0
72	124544	40	0
72	127750	41	0
72	130956	42	0
72	134162	43	0
72	137368	44	0
72	140574	45	0
72	143852	46	0
72	147115	47	0
72	150301	48	0
72	153487	49	0
72	156673	50	0
72	159859	51	0
72	163264	52	0
72	166653	53	0
72	169819	54	0
72	172985	55	0
72	176151	56	0
72	179317	57	0
72	182483	58	0
72	185649	59	0
72	188815	60	0
72	191981	61	0
72	195147	62	0
72	198313	63	0
72	201479	64	0
72	204645	65	0
72	207811	66	0
72	210977	67	0
72	214143	68	0
72	217309	69	0
72	220475	70	0
72	223641	71	0
72	226807	72	0
72	229973	73	0
72	233139	74	0
72	236305	75	0
72	239471	76	0
72	242637	77	0
72	245803	78	0
72	248969	79	0
72	252135	80	0
72	255301	81	0
72	258467	82	0
72	261633	83	0
72	264799	84	0
72	267965	85	0
72	271131	86	0
72	274297	87	0
72	277463	88	0
72	280629	89	0
72	283795	90	0
72	286961	91	0
72	290127	92	0
72	293293	93	0
72	296459	94	0
72	299625	95	0
72	302791	96	0
72	305957	97	0
72	309123	98	0
72	312289	99	0
72	315455	100	0
73	2959	2	3
73	6125	3	3
73	9291	4	3
73	12457	5	3
73	15623	6	3
73	18789	7	3
73	21955	8	3
73	25121	9	3
73	28289	10	3
73	31571	11	3
73	34777	12	3
73	37983	13	3
73	41189	14	3
73	44395	15	3
73	47601	16	3
73	50807	17	3
73	54013	18	3
73	57219	19	3
73	60425	20	3
73	63631	21	3
73	66837	22	3
73	70043	23	3
73	73249	24	3
73	76455	25	3
73	79661	26	3
73	82867	27	3
73	86073	28	3
73	89279	29	3
73	92485	30	3
73	95691	31	3
73	98897	32	3
73	102103	33	3
73	105309	34	3
73	108515	35	3
73	111721	36	3
73	114927	37	3
73	118133	38	3
73	121339	39	3
73	124545	40	3
73	127751	41	3
73	130957	42	3
73	134163	43	3
73	137369	44	3
73	140575	45	3
73	143853	46	3
73	147116	47	3
73	150302	48	3
73	153488	49	3
73	156674	50	3
73	159860	51	3
73	163265	52	3
73	166654	53	3
73	169820	54	3
73	172986	55	3
73	176152	56	3
73	179318	57	3
73	182484	58	3
73	185650	59	3
73	188816	60	3
73	191982	61	3
73	195148	62	3
73	198314	63	3
73	201480	64	3
73	204646	65	3
73	207812	66	3
73	210978	67	3
73	214144	68	3
73	217310	69	3
73	220476	70	3
73	223642	71	3
73	226808	72	3
73	229974	73	3
73	233140	74	3
73	236306	75	3
73	239472	76	3
73	242638	77	3
73	245804	78	3
73	248970	79	3
73	252136	80	3
73	255302	81	3
73	258468	82	3
73	261634	83	3
73	264800	84	3
73	267966	85	3
73	271132	86	3
73	274298	87	3
73	277464	88	3
73	280630	89	3
73	283796	90	3
73	286962	91	3
73	290128	92	3
73	293294	93	3
73	296460	94	3
73	299626	95	3
73	302792	96	3
73	305958	97	3
73	309124	98	3
73	312290	99	3
73	315456	100	3
74	2959	2	0.016857
74	6125	3	0.01873
74	9291	4	0.01873
74	12457	5	0.01873
74	15623	6	0.01873
74	18789	7	0.01873
74	21955	8	0.01873
74	25121	9	0.01873
74	28289	10	0.01873
74	31571	11	0.018779000003
74	34777	12	0.01873
74	37983	13	0.01873
74	41189	14	0.01873
74	44395	15	0.01873
74	47601	16	0.01873
74	50807	17	0.01873
74	54013	18	0.01873
74	57219	19	0.01873
74	60425	20	0.01873
74	63631	21	0.01873
74	66837	22	0.01873
74	70043	23	0.01873
74	73249	24	0.01873
74	76455	25	0.01873
74	79661	26	0.01873
74	82867	27	0.01873
74	86073	28	0.01873
74	89279	29	0.01873
74	92485	30	0.01873
74	95691	31	0.01873
74	98897	32	0.01873
74	102103	33	0.01873
74	105309	34	0.01873
74	108515	35	0.01873
74	111721	36	0.01873
74	114927	37	0.01873
74	118133	38	0.01873
74	121339	39	0.01873
74	124545	40	0.01873
74	127751	41	0.01873
74	130957	42	0.01873
74	134163	43	0.01873
74	137369	44	0.01873
74	140575	45	0.01873
74	143853	46	0.018842
74	147116	47	0.018874
74	150302	48	0.01873
74	153488	49	0.01873
74	156674	50	0.01873
74	159860	51	0.01873
74	163265	52	0.019066
74	166654	53	0.019164379056
74	169820	54	0.01873
74	172986	55	0.01873
74	176152	56	0.01873
74	179318	57	0.01873
74	182484	58	0.01873
74	185650	59	0.01873
74	188816	60	0.01873
74	191982	61	0.01873
74	195148	62	0.01873
74	198314	63	0.01873
74	201480	64	0.01873
74	204646	65	0.01873
74	207812	66	0.01873
74	210978	67	0.01873
74	214144	68	0.01873
74	217310	69	0.01873
74	220476	70	0.01873
74	223642	71	0.01873
74	226808	72	0.01873
74	229974	73	0.01873
74	233140	74	0.01873
74	236306	75	0.01873
74	239472	76	0.01873
74	242638	77	0.01873
74	245804	78	0.01873
74	248970	79	0.01873
74	252136	80	0.01873
74	255302	81	0.01873
74	258468	82	0.01873
74	261634	83	0.01873
74	264800	84	0.01873
74	267966	85	0.01873
74	271132	86	0.01873
74	274298	87	0.01873
74	277464	88	0.01873
74	280630	89	0.01873
74	283796	90	0.01873
74	286962	91	0.01873
74	290128	92	0.01873
74	293294	93	0.01873
74	296460	94	0.01873
74	299626	95	0.01873
74	302792	96	0.01873
74	305958	97	0.01873
74	309124	98	0.01873
74	312290	99	0.01873
74	315456	100	0.01873
75	2959	2	0
75	6125	3	0
75	9291	4	0
75	12457	5	0
75	15623	6	0
75	18789	7	0
75	21955	8	0
75	25121	9	0
75	28289	10	0
75	31571	11	0
75	34777	12	0
75	37983	13	0
75	41189	14	0
75	44395	15	0
75	47601	16	0
75	50807	17	0
75	54013	18	0
75	57219	19	0
75	60425	20	0
75	63631	21	0
75	66837	22	0
75	70043	23	0
75	73249	24	0
75	76455	25	0
75	79661	26	0
75	82867	27	0
75	86073	28	0
75	89279	29	0
75	92485	30	0
75	95691	31	0
75	98897	32	0
75	102103	33	0
75	105309	34	0
75	108515	35	0
75	111721	36	0
75	114927	37	0
75	118133	38	0
75	121339	39	0
75	124545	40	0
75	127751	41	0
75	130957	42	0
75	134163	43	0
75	137369	44	0
75	140575	45	0
75	143853	46	0
75	147116	47	0
75	150302	48	0
75	153488	49	0
75	156674	50	0
75	159860	51	0
75	163265	52	0
75	166654	53	0
75	169820	54	0
75	172986	55	0
75	176152	56	0
75	179318	57	0
75	182484	58	0
75	185650	59	0
75	188816	60	0
75	191982	61	0
75	195148	62	0
75	198314	63	0
75	201480	64	0
75	204646	65	0
75	207812	66	0
75	210978	67	0
75	214144	68	0
75	217310	69	0
75	220476	70	0
75	223642	71	0
75	226808	72	0
75	229974	73	0
75	233140	74	0
75	236306	75	0
75	239472	76	0
75	242638	77	0
75	245804	78	0
75	248970	79	0
75	252136	80	0
75	255302	81	0
75	258468	82	0
75	261634	83	0
75	264800	84	0
75	267966	85	0
75	271132	86	0
75	274298	87	0
75	277464	88	0
75	280630	89	0
75	283796	90	0
75	286962	91	0
75	290128	92	0
75	293294	93	0
75	296460	94	0
75	299626	95	0
75	302792	96	0
75	305958	97	0
75	309124	98	0
75	312290	99	0
75	315456	100	0
76	2960	2	4
76	6126	3	4
76	9292	4	4
76	12458	5	4
76	15624	6	4
76	18790	7	4
76	21956	8	4
76	25122	9	4
76	28290	10	4
76	31572	11	4
76	34778	12	4
76	37984	13	4
76	41190	14	4
76	44396	15	4
76	47602	16	4
76	50808	17	4
76	54014	18	4
76	57220	19	4
76	60426	20	4
76	63632	21	4
76	66838	22	4
76	70044	23	4
76	73250	24	4
76	76456	25	4
76	79662	26	4
76	82868	27	4
76	86074	28	4
76	89280	29	4
76	92486	30	4
76	95692	31	4
76	98898	32	4
76	102104	33	4
76	105310	34	4
76	108516	35	4
76	111722	36	4
76	114928	37	4
76	118134	38	4
76	121340	39	4
76	124546	40	4
76	127752	41	4
76	130958	42	4
76	134164	43	4
76	137370	44	4
76	140576	45	4
76	143854	46	4
76	147117	47	4
76	150303	48	4
76	153489	49	4
76	156675	50	4
76	159861	51	4
76	163266	52	4
76	166655	53	4
76	169821	54	4
76	172987	55	4
76	176153	56	4
76	179319	57	4
76	182485	58	4
76	185651	59	4
76	188817	60	4
76	191983	61	4
76	195149	62	4
76	198315	63	4
76	201481	64	4
76	204647	65	4
76	207813	66	4
76	210979	67	4
76	214145	68	4
76	217311	69	4
76	220477	70	4
76	223643	71	4
76	226809	72	4
76	229975	73	4
76	233141	74	4
76	236307	75	4
76	239473	76	4
76	242639	77	4
76	245805	78	4
76	248971	79	4
76	252137	80	4
76	255303	81	4
76	258469	82	4
76	261635	83	4
76	264801	84	4
76	267967	85	4
76	271133	86	4
76	274299	87	4
76	277465	88	4
76	280631	89	4
76	283797	90	4
76	286963	91	4
76	290129	92	4
76	293295	93	4
76	296461	94	4
76	299627	95	4
76	302793	96	4
76	305959	97	4
76	309125	98	4
76	312291	99	4
76	315457	100	4
77	2960	2	0.016857
77	6126	3	0.01873
77	9292	4	0.01873
77	12458	5	0.01873
77	15624	6	0.01873
77	18790	7	0.01873
77	21956	8	0.01873
77	25122	9	0.01873
77	28290	10	0.01873
77	31572	11	0.018778000004
77	34778	12	0.01873
77	37984	13	0.01873
77	41190	14	0.01873
77	44396	15	0.01873
77	47602	16	0.01873
77	50808	17	0.01873
77	54014	18	0.01873
77	57220	19	0.01873
77	60426	20	0.01873
77	63632	21	0.01873
77	66838	22	0.01873
77	70044	23	0.01873
77	73250	24	0.01873
77	76456	25	0.01873
77	79662	26	0.01873
77	82868	27	0.01873
77	86074	28	0.01873
77	89280	29	0.01873
77	92486	30	0.01873
77	95692	31	0.01873
77	98898	32	0.01873
77	102104	33	0.01873
77	105310	34	0.01873
77	108516	35	0.01873
77	111722	36	0.01873
77	114928	37	0.01873
77	118134	38	0.01873
77	121340	39	0.01873
77	124546	40	0.01873
77	127752	41	0.01873
77	130958	42	0.01873
77	134164	43	0.01873
77	137370	44	0.01873
77	140576	45	0.01873
77	143854	46	0.018842
77	147117	47	0.018875126092
77	150303	48	0.01873
77	153489	49	0.01873
77	156675	50	0.01873
77	159861	51	0.01873
77	163266	52	0.019066
77	166655	53	0.019098
77	169821	54	0.01873
77	172987	55	0.01873
77	176153	56	0.01873
77	179319	57	0.01873
77	182485	58	0.01873
77	185651	59	0.01873
77	188817	60	0.01873
77	191983	61	0.01873
77	195149	62	0.01873
77	198315	63	0.01873
77	201481	64	0.01873
77	204647	65	0.01873
77	207813	66	0.01873
77	210979	67	0.01873
77	214145	68	0.01873
77	217311	69	0.01873
77	220477	70	0.01873
77	223643	71	0.01873
77	226809	72	0.01873
77	229975	73	0.01873
77	233141	74	0.01873
77	236307	75	0.01873
77	239473	76	0.01873
77	242639	77	0.01873
77	245805	78	0.01873
77	248971	79	0.01873
77	252137	80	0.01873
77	255303	81	0.01873
77	258469	82	0.01873
77	261635	83	0.01873
77	264801	84	0.01873
77	267967	85	0.01873
77	271133	86	0.01873
77	274299	87	0.01873
77	277465	88	0.01873
77	280631	89	0.01873
77	283797	90	0.01873
77	286963	91	0.01873
77	290129	92	0.01873
77	293295	93	0.01873
77	296461	94	0.01873
77	299627	95	0.01873
77	302793	96	0.01873
77	305959	97	0.01873
77	309125	98	0.01873
77	312291	99	0.01873
77	315457	100	0.01873
78	2960	2	0
78	6126	3	0
78	9292	4	0
78	12458	5	0
78	15624	6	0
78	18790	7	0
78	21956	8	0
78	25122	9	0
78	28290	10	0
78	31572	11	0
78	34778	12	0
78	37984	13	0
78	41190	14	0
78	44396	15	0
78	47602	16	0
78	50808	17	0
78	54014	18	0
78	57220	19	0
78	60426	20	0
78	63632	21	0
78	66838	22	0
78	70044	23	0
78	73250	24	0
78	76456	25	0
78	79662	26	0
78	82868	27	0
78	86074	28	0
78	89280	29	0
78	92486	30	0
78	95692	31	0
78	98898	32	0
78	102104	33	0
78	105310	34	0
78	108516	35	0
78	111722	36	0
78	114928	37	0
78	118134	38	0
78	121340	39	0
78	124546	40	0
78	127752	41	0
78	130958	42	0
78	134164	43	0
78	137370	44	0
78	140576	45	0
78	143854	46	0
78	147117	47	0
78	150303	48	0
78	153489	49	0
78	156675	50	0
78	159861	51	0
78	163266	52	0
78	166655	53	0
78	169821	54	0
78	172987	55	0
78	176153	56	0
78	179319	57	0
78	182485	58	0
78	185651	59	0
78	188817	60	0
78	191983	61	0
78	195149	62	0
78	198315	63	0
78	201481	64	0
78	204647	65	0
78	207813	66	0
78	210979	67	0
78	214145	68	0
78	217311	69	0
78	220477	70	0
78	223643	71	0
78	226809	72	0
78	229975	73	0
78	233141	74	0
78	236307	75	0
78	239473	76	0
78	242639	77	0
78	245805	78	0
78	248971	79	0
78	252137	80	0
78	255303	81	0
78	258469	82	0
78	261635	83	0
78	264801	84	0
78	267967	85	0
78	271133	86	0
78	274299	87	0
78	277465	88	0
78	280631	89	0
78	283797	90	0
78	286963	91	0
78	290129	92	0
78	293295	93	0
78	296461	94	0
78	299627	95	0
78	302793	96	0
78	305959	97	0
78	309125	98	0
78	312291	99	0
78	315457	100	0
79	2961	2	5
79	6127	3	5
79	9293	4	5
79	12459	5	5
79	15625	6	5
79	18791	7	5
79	21957	8	5
79	25123	9	5
79	28291	10	5
79	31573	11	5
79	34779	12	5
79	37985	13	5
79	41191	14	5
79	44397	15	5
79	47603	16	5
79	50809	17	5
79	54015	18	5
79	57221	19	5
79	60427	20	5
79	63633	21	5
79	66839	22	5
79	70045	23	5
79	73251	24	5
79	76457	25	5
79	79663	26	5
79	82869	27	5
79	86075	28	5
79	89281	29	5
79	92487	30	5
79	95693	31	5
79	98899	32	5
79	102105	33	5
79	105311	34	5
79	108517	35	5
79	111723	36	5
79	114929	37	5
79	118135	38	5
79	121341	39	5
79	124547	40	5
79	127753	41	5
79	130959	42	5
79	134165	43	5
79	137371	44	5
79	140577	45	5
79	143855	46	5
79	147118	47	5
79	150304	48	5
79	153490	49	5
79	156676	50	5
79	159862	51	5
79	163267	52	5
79	166656	53	5
79	169822	54	5
79	172988	55	5
79	176154	56	5
79	179320	57	5
79	182486	58	5
79	185652	59	5
79	188818	60	5
79	191984	61	5
79	195150	62	5
79	198316	63	5
79	201482	64	5
79	204648	65	5
79	207814	66	5
79	210980	67	5
79	214146	68	5
79	217312	69	5
79	220478	70	5
79	223644	71	5
79	226810	72	5
79	229976	73	5
79	233142	74	5
79	236308	75	5
79	239474	76	5
79	242640	77	5
79	245806	78	5
79	248972	79	5
79	252138	80	5
79	255304	81	5
79	258470	82	5
79	261636	83	5
79	264802	84	5
79	267968	85	5
79	271134	86	5
79	274300	87	5
79	277466	88	5
79	280632	89	5
79	283798	90	5
79	286964	91	5
79	290130	92	5
79	293296	93	5
79	296462	94	5
79	299628	95	5
79	302794	96	5
79	305960	97	5
79	309126	98	5
79	312292	99	5
79	315458	100	5
80	2961	2	0.016857
80	6127	3	0.01873
80	9293	4	0.01873
80	12459	5	0.01873
80	15625	6	0.01873
80	18791	7	0.01873
80	21957	8	0.01873
80	25123	9	0.01873
80	28291	10	0.01873
80	31573	11	0.018778000004
80	34779	12	0.01873
80	37985	13	0.01873
80	41191	14	0.01873
80	44397	15	0.01873
80	47603	16	0.01873
80	50809	17	0.01873
80	54015	18	0.01873
80	57221	19	0.01873
80	60427	20	0.01873
80	63633	21	0.01873
80	66839	22	0.01873
80	70045	23	0.01873
80	73251	24	0.01873
80	76457	25	0.01873
80	79663	26	0.01873
80	82869	27	0.01873
80	86075	28	0.01873
80	89281	29	0.01873
80	92487	30	0.01873
80	95693	31	0.01873
80	98899	32	0.01873
80	102105	33	0.01873
80	105311	34	0.01873
80	108517	35	0.01873
80	111723	36	0.01873
80	114929	37	0.01873
80	118135	38	0.01873
80	121341	39	0.01873
80	124547	40	0.01873
80	127753	41	0.01873
80	130959	42	0.01873
80	134165	43	0.01873
80	137371	44	0.01873
80	140577	45	0.01873
80	143855	46	0.018842
80	147118	47	0.018842
80	150304	48	0.01873
80	153490	49	0.01873
80	156676	50	0.01873
80	159862	51	0.01873
80	163267	52	0.019066
80	166656	53	0.019131252572
80	169822	54	0.01873
80	172988	55	0.01873
80	176154	56	0.01873
80	179320	57	0.01873
80	182486	58	0.01873
80	185652	59	0.01873
80	188818	60	0.01873
80	191984	61	0.01873
80	195150	62	0.01873
80	198316	63	0.01873
80	201482	64	0.01873
80	204648	65	0.01873
80	207814	66	0.01873
80	210980	67	0.01873
80	214146	68	0.01873
80	217312	69	0.01873
80	220478	70	0.01873
80	223644	71	0.01873
80	226810	72	0.01873
80	229976	73	0.01873
80	233142	74	0.01873
80	236308	75	0.01873
80	239474	76	0.01873
80	242640	77	0.01873
80	245806	78	0.01873
80	248972	79	0.01873
80	252138	80	0.01873
80	255304	81	0.01873
80	258470	82	0.01873
80	261636	83	0.01873
80	264802	84	0.01873
80	267968	85	0.01873
80	271134	86	0.01873
80	274300	87	0.01873
80	277466	88	0.01873
80	280632	89	0.01873
80	283798	90	0.01873
80	286964	91	0.01873
80	290130	92	0.01873
80	293296	93	0.01873
80	296462	94	0.01873
80	299628	95	0.01873
80	302794	96	0.01873
80	305960	97	0.01873
80	309126	98	0.01873
80	312292	99	0.01873
80	315458	100	0.01873
81	2961	2	0
81	6127	3	0
81	9293	4	0
81	12459	5	0
81	15625	6	0
81	18791	7	0
81	21957	8	0
81	25123	9	0
81	28291	10	0
81	31573	11	0
81	34779	12	0
81	37985	13	0
81	41191	14	0
81	44397	15	0
81	47603	16	0
81	50809	17	0
81	54015	18	0
81	57221	19	0
81	60427	20	0
81	63633	21	0
81	66839	22	0
81	70045	23	0
81	73251	24	0
81	76457	25	0
81	79663	26	0
81	82869	27	0
81	86075	28	0
81	89281	29	0
81	92487	30	0
81	95693	31	0
81	98899	32	0
81	102105	33	0
81	105311	34	0
81	108517	35	0
81	111723	36	0
81	114929	37	0
81	118135	38	0
81	121341	39	0
81	124547	40	0
81	127753	41	0
81	130959	42	0
81	134165	43	0
81	137371	44	0
81	140577	45	0
81	143855	46	0
81	147118	47	0
81	150304	48	0
81	153490	49	0
81	156676	50	0
81	159862	51	0
81	163267	52	0
81	166656	53	0
81	169822	54	0
81	172988	55	0
81	176154	56	0
81	179320	57	0
81	182486	58	0
81	185652	59	0
81	188818	60	0
81	191984	61	0
81	195150	62	0
81	198316	63	0
81	201482	64	0
81	204648	65	0
81	207814	66	0
81	210980	67	0
81	214146	68	0
81	217312	69	0
81	220478	70	0
81	223644	71	0
81	226810	72	0
81	229976	73	0
81	233142	74	0
81	236308	75	0
81	239474	76	0
81	242640	77	0
81	245806	78	0
81	248972	79	0
81	252138	80	0
81	255304	81	0
81	258470	82	0
81	261636	83	0
81	264802	84	0
81	267968	85	0
81	271134	86	0
81	274300	87	0
81	277466	88	0
81	280632	89	0
81	283798	90	0
81	286964	91	0
81	290130	92	0
81	293296	93	0
81	296462	94	0
81	299628	95	0
81	302794	96	0
81	305960	97	0
81	309126	98	0
81	312292	99	0
81	315458	100	0

