file 2394817 1720453133                                         
version 3
run BreakRanksNoGui-25-20240708-17:38:40-154620
attr configname BreakRanksNoGui
attr datetime 20240708-17:38:40
attr datetimef 20240708-173840
attr experiment BreakRanksNoGui
attr inifile omnetpp.ini
attr iterationvars "$nCars=8, $platoonSize=8, $nLanes=1, $ploegH=0.5, $controller=1, $headway=0.1, $leaderHeadway=1.2, $leaderSpeed=110, $breakRanksSafetyDistance=2, $minSpeed=100, $maxSpeed=120, $beaconInterval=0.1, $priority=4, $packetSize=200, $sController=\"CACC\", $0=2, $1=0"
attr iterationvarsd nCars=8/platoonSize=8/nLanes=1/ploegH=0.5/controller=1/headway=0.1/leaderHeadway=1.2/leaderSpeed=110/breakRanksSafetyDistance=2/minSpeed=100/maxSpeed=120/beaconInterval=0.1/priority=4/packetSize=200/sController=CACC/2/0
attr iterationvarsf nCars=8,platoonSize=8,nLanes=1,ploegH=0.5,controller=1,headway=0.1,leaderHeadway=1.2,leaderSpeed=110,breakRanksSafetyDistance=2,minSpeed=100,maxSpeed=120,beaconInterval=0.1,priority=4,packetSize=200,sController=CACC,2,0-
attr measurement "$nCars=8, $platoonSize=8, $nLanes=1, $ploegH=0.5, $controller=1, $headway=0.1, $leaderHeadway=1.2, $leaderSpeed=110, $breakRanksSafetyDistance=2, $minSpeed=100, $maxSpeed=120, $beaconInterval=0.1, $priority=4, $packetSize=200, $sController=\"CACC\", $0=2, $1=0"
attr network Highway
attr processid 154620
attr repetition 5
attr replication #5
attr resultdir results
attr runnumber 25
attr seedset 5
itervar beaconInterval 0.1
itervar breakRanksSafetyDistance 2
itervar controller 1
itervar headway 0.1
itervar leaderHeadway 1.2
itervar leaderSpeed 110
itervar maxSpeed 120
itervar minSpeed 100
itervar nCars 8
itervar nLanes 1
itervar packetSize 200
itervar platoonSize 8
itervar ploegH 0.5
itervar priority 4
itervar sController "\"CACC\""
config image-path ../../../veins/images
config repeat 10
config extends BreakRanks
config *.manager.command "\"sumo\""
config *.manager.ignoreGuiCommands true
config output-vector-file results/BreakRanks_1_0.1_110_2/result_5.vec
config output-scalar-file results/BreakRanks_1_0.1_110_2/result_5.sca
config extends Platooning
config *.node[*].scenario_type "\"BreakRanksScenario\""
config *.manager.command "\"sumo-gui\""
config *.node[*].scenario_type "\"SimpleScenario\""
config cmdenv-express-mode true
config cmdenv-autoflush true
config cmdenv-status-frequency 15s
config num-rngs 6
config network Highway
config debug-on-errors true
config print-undisposed true
config *.playgroundSizeX 65000m
config *.playgroundSizeY 25000m
config *.playgroundSizeZ 50m
config sim-time-limit "100 s"
config *.annotations.draw false
config *.obstacles.debug false
config *.world.useTorus false
config *.world.use2D false
config *.manager.updateInterval 0.01s
config *.manager.host "\"localhost\""
config *.manager.moduleType "\"org.car2x.plexe.PlatoonCar\""
config *.manager.moduleName "\"node\""
config *.manager.moduleDisplayString "\"\""
config *.manager.autoShutdown true
config *.manager.margin 25
config *.connectionManager.sendDirect true
config *.connectionManager.maxInterfDist 2600m
config *.connectionManager.drawMaxIntfDist false
config *.**.nic.mac1609_4.useServiceChannel false
config *.**.nic.mac1609_4.txPower 100mW
config *.**.nic.mac1609_4.bitrate 6Mbps
config *.**.nic.mac1609_4.useAcks true
config *.**.nic.mac1609_4.ackErrorRate 0.0
config *.**.nic.mac1609_4.frameErrorRate 0.0
config *.**.nic.phy80211p.minPowerLevel -94dBm
config *.**.nic.phy80211p.maxTXPower 100mW
config *.**.nic.phy80211p.useNoiseFloor true
config *.**.nic.phy80211p.noiseFloor -95dBm
config *.**.nic.phy80211p.decider "xmldoc(\"config.xml\")"
config *.**.nic.phy80211p.analogueModels "xmldoc(\"config.xml\")"
config *.**.nic.phy80211p.usePropagationDelay true
config *.node[*].mobility.x 0
config *.node[*].mobility.y 0
config *.node[*].mobility.z 1.895
config seed-set 5
config **.seed 5
config *.node[*].prot.rng-0 2
config *.node[*].appl.rng-0 3
config *.node[*].scenario.rng-0 4
config **.traffic.rng-0 5
config *.manager.configFile "\"./sumocfg/freeway.sumo.cfg\""
config *.manager.launchConfig "xmldoc(\"./sumocfg/freeway.launchd.xml\")"
config **.numberOfCars 8
config **.numberOfCarsPerPlatoon 8
config **.numberOfLanes 1
config *.node[*].helper_type "\"PositionHelper\""
config *.node[*].scenario.caccC1 0.5
config *.node[*].scenario.caccXi 1
config *.node[*].scenario.caccOmegaN "0.2 Hz"
config *.node[*].scenario.caccSpacing "2 m"
config *.node[*].scenario.engineTau "0.5 s"
config *.node[*].scenario.ploegH 0.5s
config *.node[*].scenario.ploegKp 0.2
config *.node[*].scenario.ploegKd 0.7
config *.node[*].scenario.useRealisticEngine false
config *.node[*].scenario.useControllerAcceleration true
config *.node[*].scenario.nLanes 1
config **.numericController 1
config **.headway 0.1s
config *.node[*].scenario.accHeadway 0.1s
config *.node[*].scenario.leaderHeadway 1.2s
config *.node[*].scenario.leaderSpeed 110kmph
config *.node[*].appl_type "\"SimplePlatooningApp\""
config *.node[*].appl.*.scalar-recording true
config *.node[*].appl.*.vector-recording true
config *.node[0].appl.breakRanksSafetyDistance 2m
config *.node[*].appl.minSpeed 100kmph
config *.node[*].appl.maxSpeed 120kmph
config *.node[*].protocol_type "\"SimplePlatooningBeaconing\""
config *.node[*].prot.*.scalar-recording true
config *.node[*].prot.*.vector-recording true
config *.node[*].prot.beaconingInterval 0.1s
config *.node[*].prot.priority 4
config *.node[*].prot.packetSize 200
config **.traffic_type "\"PlatoonsTrafficManager\""
config **.traffic.platoonInsertTime "1 s"
config **.traffic.platoonInsertSpeed 110kmph
config **.traffic.nCars 8
config **.traffic.platoonSize 8
config **.traffic.nLanes 1
config **.traffic.platooningVType "\"vtypeauto\""
config **.traffic.controller "\"CACC\""
config **.traffic.platoonInsertDistance 2m
config **.traffic.platoonInsertHeadway 0s
config **.traffic.platoonLeaderHeadway 1.2s
config **.scalar-recording false
config **.vector-recording false
config output-vector-file results/BreakRanksNoGui_1_0.1_110_2/result_5.vec
config output-scalar-file results/BreakRanksNoGui_1_0.1_110_2/result_5.sca

vector 0 Highway.node[0].appl distance ETV
vector 1 Highway.node[0].appl relativeSpeed ETV
vector 2 Highway.node[0].appl nodeId ETV
vector 3 Highway.node[0].appl acceleration ETV
vector 4 Highway.node[0].appl controllerAcceleration ETV
vector 5 Highway.node[0].appl speed ETV
vector 6 Highway.node[0].appl posx ETV
vector 7 Highway.node[0].appl posy ETV
vector 8 Highway.node[1].appl distance ETV
vector 9 Highway.node[1].appl relativeSpeed ETV
vector 10 Highway.node[1].appl nodeId ETV
vector 11 Highway.node[1].appl acceleration ETV
vector 12 Highway.node[1].appl controllerAcceleration ETV
vector 13 Highway.node[1].appl speed ETV
vector 14 Highway.node[1].appl posx ETV
vector 15 Highway.node[1].appl posy ETV
vector 16 Highway.node[2].appl distance ETV
vector 17 Highway.node[2].appl relativeSpeed ETV
vector 18 Highway.node[2].appl nodeId ETV
vector 19 Highway.node[2].appl acceleration ETV
vector 20 Highway.node[2].appl controllerAcceleration ETV
vector 21 Highway.node[2].appl speed ETV
vector 22 Highway.node[2].appl posx ETV
vector 23 Highway.node[2].appl posy ETV
vector 24 Highway.node[3].appl distance ETV
vector 25 Highway.node[3].appl relativeSpeed ETV
vector 26 Highway.node[3].appl nodeId ETV
vector 27 Highway.node[3].appl acceleration ETV
vector 28 Highway.node[3].appl controllerAcceleration ETV
vector 29 Highway.node[3].appl speed ETV
vector 30 Highway.node[3].appl posx ETV
vector 31 Highway.node[3].appl posy ETV
vector 32 Highway.node[4].appl distance ETV
vector 33 Highway.node[4].appl relativeSpeed ETV
vector 34 Highway.node[4].appl nodeId ETV
vector 35 Highway.node[4].appl acceleration ETV
vector 36 Highway.node[4].appl controllerAcceleration ETV
vector 37 Highway.node[4].appl speed ETV
vector 38 Highway.node[4].appl posx ETV
vector 39 Highway.node[4].appl posy ETV
vector 40 Highway.node[5].appl distance ETV
vector 41 Highway.node[5].appl relativeSpeed ETV
vector 42 Highway.node[5].appl nodeId ETV
vector 43 Highway.node[5].appl acceleration ETV
vector 44 Highway.node[5].appl controllerAcceleration ETV
vector 45 Highway.node[5].appl speed ETV
vector 46 Highway.node[5].appl posx ETV
vector 47 Highway.node[5].appl posy ETV
vector 48 Highway.node[6].appl distance ETV
vector 49 Highway.node[6].appl relativeSpeed ETV
vector 50 Highway.node[6].appl nodeId ETV
vector 51 Highway.node[6].appl acceleration ETV
vector 52 Highway.node[6].appl controllerAcceleration ETV
vector 53 Highway.node[6].appl speed ETV
vector 54 Highway.node[6].appl posx ETV
vector 55 Highway.node[6].appl posy ETV
vector 56 Highway.node[7].appl distance ETV
vector 57 Highway.node[7].appl relativeSpeed ETV
vector 58 Highway.node[7].appl nodeId ETV
vector 59 Highway.node[7].appl acceleration ETV
vector 60 Highway.node[7].appl controllerAcceleration ETV
vector 61 Highway.node[7].appl speed ETV
vector 62 Highway.node[7].appl posx ETV
vector 63 Highway.node[7].appl posy ETV
vector 64 Highway.node[2].prot frontDelay ETV
vector 65 Highway.node[2].prot frontDelayId ETV
vector 66 Highway.node[6].prot frontDelay ETV
vector 67 Highway.node[6].prot frontDelayId ETV
vector 68 Highway.node[3].prot frontDelay ETV
vector 69 Highway.node[3].prot frontDelayId ETV
vector 70 Highway.node[4].prot frontDelay ETV
vector 71 Highway.node[4].prot frontDelayId ETV
vector 72 Highway.node[5].prot frontDelay ETV
vector 73 Highway.node[5].prot frontDelayId ETV
vector 74 Highway.node[1].prot leaderDelay ETV
vector 75 Highway.node[1].prot leaderDelayId ETV
vector 76 Highway.node[1].prot frontDelay ETV
vector 77 Highway.node[1].prot frontDelayId ETV
vector 78 Highway.node[2].prot leaderDelay ETV
vector 79 Highway.node[2].prot leaderDelayId ETV
vector 80 Highway.node[3].prot leaderDelay ETV
vector 81 Highway.node[3].prot leaderDelayId ETV
vector 82 Highway.node[4].prot leaderDelay ETV
vector 83 Highway.node[4].prot leaderDelayId ETV
vector 84 Highway.node[5].prot leaderDelay ETV
vector 85 Highway.node[5].prot leaderDelayId ETV
vector 86 Highway.node[6].prot leaderDelay ETV
vector 87 Highway.node[6].prot leaderDelayId ETV
vector 88 Highway.node[7].prot leaderDelay ETV
vector 89 Highway.node[7].prot leaderDelayId ETV
vector 90 Highway.node[7].prot frontDelay ETV
vector 91 Highway.node[7].prot frontDelayId ETV
vector 92 Highway.node[0].prot nodeId ETV
vector 93 Highway.node[0].prot busyTime ETV
vector 94 Highway.node[0].prot collisions ETV
vector 95 Highway.node[1].prot nodeId ETV
vector 96 Highway.node[1].prot busyTime ETV
vector 97 Highway.node[1].prot collisions ETV
vector 98 Highway.node[2].prot nodeId ETV
vector 99 Highway.node[2].prot busyTime ETV
vector 100 Highway.node[2].prot collisions ETV
vector 101 Highway.node[3].prot nodeId ETV
vector 102 Highway.node[3].prot busyTime ETV
vector 103 Highway.node[3].prot collisions ETV
vector 104 Highway.node[4].prot nodeId ETV
vector 105 Highway.node[4].prot busyTime ETV
vector 106 Highway.node[4].prot collisions ETV
vector 107 Highway.node[5].prot nodeId ETV
vector 108 Highway.node[5].prot busyTime ETV
vector 109 Highway.node[5].prot collisions ETV
vector 110 Highway.node[6].prot nodeId ETV
vector 111 Highway.node[6].prot busyTime ETV
vector 112 Highway.node[6].prot collisions ETV
vector 113 Highway.node[7].prot nodeId ETV
vector 114 Highway.node[7].prot busyTime ETV
vector 115 Highway.node[7].prot collisions ETV
0	11335 20669 113 542290 1.11 99.91 989 -1 118.37 45953.1019 3796300.2382687
1	32004 19738 113 542290 1.11 99.91 989 0 1.4444 928.74919999999 1341.48534448
2	51742 16523 113 542290 1.11 99.91 989 0 0 0 0
3	68265 19111 113 542290 1.11 99.91 989 -0.00283113 0.000125957 -0.043966303784312 9.6812896349407e-05
4	87376 26491 113 542290 1.11 99.91 989 -0.00437036 0.00019576 -0.042459310034081 0.00013890441444735
5	113867 22453 113 542290 1.11 99.91 989 30.5554 30.56 30219.5304 923377.16656332
6	136320 22379 113 542290 1.11 99.91 989 57.9104 3076.81 1550120.0359 3182240445.4135
7	158699 21468 113 542290 1.11 99.91 989 242.45 242.45 239783.05 58135400.472499
8	180167 17947 114 542291 1.11 99.91 989 -1 2 -719.07603 1258.6959518355
9	198114 17457 114 542291 1.11 99.91 989 -0.000537994 8.96149e-05 -0.007714065607 4.4778253756342e-06
10	215571 17512 114 542291 1.11 99.91 989 1 1 989 989
11	233083 21514 114 542291 1.11 99.91 989 -0.0413954 0.929621 14.415445158946 10.447687877203
12	254597 27985 114 542291 1.11 99.91 989 -0.0643907 1.43973 14.199511525559 15.418286291995
13	282582 19452 114 542291 1.11 99.91 989 30.5555 32.0644 31503.9521 1003719.7707465
14	302034 23427 114 542291 1.11 99.91 989 51.9104 3199.18 1601295.8504 3416034991.6809
15	325461 22457 114 542291 1.11 99.91 989 242.45 245.75 240627.85 58547831.832499
16	347918 23373 115 542292 1.11 99.91 989 1.99968 118.905 51658.41305 3699719.0120954
17	371291 20725 115 542292 1.11 99.91 989 -6.49554e-05 2.67823 1849.4681125236 4015.8525664404
18	392016 17512 115 542292 1.11 99.91 989 2 2 1978 3956
19	409528 22521 115 542292 1.11 99.91 989 -1.66118 0.0788835 -25.554253567518 33.273602409579
20	432049 27365 115 542292 1.11 99.91 989 -2.53478 0.122664 -24.415467874674 46.989451619799
21	459414 19778 115 542292 1.11 99.91 989 27.8774 30.56 27945.4895 790204.64483719
22	479192 23425 115 542292 1.11 99.91 989 45.9104 2837.53 1437099.5528 2723502622.176
23	502617 22457 115 542292 1.11 99.91 989 242.45 242.45 239783.05 58135400.472499
24	525074 23295 116 542293 1.11 99.91 989 1.99968 35.5945 28163.32248 931579.85539531
25	548369 25423 116 542293 1.11 99.91 989 -0.0115959 2.84148 335.94515656427 518.43353767651
26	573792 17512 116 542293 1.11 99.91 989 3 3 2967 8901
27	591304 26243 116 542293 1.11 99.91 989 -2.42344 0.359979 -25.55593069323 106.85482374008
28	617547 26229 116 542293 1.11 99.91 989 -3.05019 0.403563 -24.2303105795 130.61311844949
29	643776 23325 116 542293 1.11 99.91 989 25.0829 30.56 27609.5417 771905.48665231
30	667101 23331 116 542293 1.11 99.91 989 39.9104 2797.94 1404978.2861 2616838756.206
31	690432 22457 116 542293 1.11 99.91 989 242.45 242.45 239783.05 58135400.472499
32	712889 23349 117 542294 1.11 99.91 989 1.99979 100.041 53431.25066 3781013.3814133
33	736238 20460 117 542294 1.11 99.91 989 -3.18333e-05 8.02871 1153.3848639565 2437.9523873404
34	756698 17512 117 542294 1.11 99.91 989 4 4 3956 15824
35	774210 22834 117 542294 1.11 99.91 989 -2.66052 1.49845 -15.54406891182 248.2481423805
36	797044 26945 117 542294 1.11 99.91 989 -3.05303 1.5 -14.093367011748 278.7794419063
37	823989 20049 117 542294 1.11 99.91 989 22.5867 30.56 28452.8746 820633.23336146
38	844038 23373 117 542294 1.11 99.91 989 33.9104 2876.22 1432403.1786 2741438352.8993
39	867411 22457 117 542294 1.11 99.91 989 242.45 249.05 242538.55 59482704.6725
40	889868 19158 118 542295 1.11 99.91 989 -1 51.378 1640.55473 109278.28421254
41	909026 18624 118 542295 1.11 99.91 989 -3.69745e-05 3.80229 67.8446023861 131.59621301629
42	927650 17512 118 542295 1.11 99.91 989 5 5 4945 24725
43	945162 21632 118 542295 1.11 99.91 989 -2.60961 1.42672 4.4473142428541 85.715327578574
44	966794 27805 118 542295 1.11 99.91 989 -3.05304 1.5 4.7831970392245 150.17563545695
45	994599 19580 118 542295 1.11 99.91 989 27.9706 31.0987 30546.6752 943645.97262414
46	1014179 22347 118 542295 1.11 99.91 989 27.9104 3079.5 1532037.1436 3145282875.713
47	1036526 22457 118 542295 1.11 99.91 989 242.45 249.05 243356.95 59884425.5525
48	1058983 23269 119 542296 1.11 99.91 989 1.99986 92.5469 59383.3095 4242868.6238511
49	1082252 23095 119 542296 1.11 99.91 989 -0.106459 5.83494 901.85740384865 1665.6783660092
50	1105347 17512 119 542296 1.11 99.91 989 6 6 5934 35604
51	1122859 23342 119 542296 1.11 99.91 989 -2.61023 1.4732 -5.5787207117192 142.36965248824
52	1146201 27128 119 542296 1.11 99.91 989 -3.05303 1.5 -2.6719816430931 200.64594183338
53	1173329 20057 119 542296 1.11 99.91 989 26.1696 30.56 29613.7835 887060.03906975
54	1193386 23430 119 542296 1.11 99.91 989 21.9104 2980.26 1482818.1055 2946073144.1353
55	1216816 22457 119 542296 1.11 99.91 989 242.45 245.75 240756.55 58610663.172499
56	1239273 21776 120 542297 1.11 99.91 989 -1 90.1107 35531.36401 2338922.7356718
57	1261049 18479 120 542297 1.11 99.91 989 -2.95214e-05 1 585.99859067842 586.00000002927
58	1279528 17512 120 542297 1.11 99.91 989 7 7 6923 48461
59	1297040 22243 120 542297 1.11 99.91 989 -0.35777 0.0159719 -5.5692099356228 1.5492584962322
60	1319283 27425 120 542297 1.11 99.91 989 -0.546883 0.0248291 -5.0980330730723 2.0491223744181
61	1346708 19346 120 542297 1.11 99.91 989 29.9752 30.56 29725.0685 893433.98064597
62	1366054 23428 120 542297 1.11 99.91 989 15.9104 2985.39 1486580.0904 2960776006.3081
63	1389482 22457 120 542297 1.11 99.91 989 242.45 252.35 244449.25 60429055.5725
64	1411939 39971 702 542357 1.21723162043 99.917221944092 988 0.099987600393 0.100003318514 98.799990924078 9.8799982044143
65	1451910 27255 702 542357 1.21723162043 99.917221944092 988 2 2 1976 3952
66	1479165 39975 771 542408 1.244031700485 99.944034468366 988 0.099987600391 0.100003320884 98.800003368297 9.8800006931638
67	1519140 27257 771 542408 1.244031700485 99.944034468366 988 6 6 5928 35568
68	1546397 39986 837 542468 1.248211760527 99.948215076693 988 0.099987600389 0.100003321552 98.799990916582 9.8799982029221
69	1586383 27262 837 542468 1.248211760527 99.948215076693 988 3 3 2964 8892
70	1613645 40001 904 542535 1.253002780541 99.953006337984 988 0.09998760039 0.100003321886 98.800004157859 9.880000851061
71	1653646 27278 904 542535 1.253002780541 99.953006337984 988 4 4 3952 15808
72	1680924 39993 971 542626 1.266282800555 99.966274016542 988 0.099987600391 0.100003319514 98.799991816403 9.8799983828802
73	1720917 27267 971 542626 1.266282800555 99.966274016542 988 5 5 4940 24700
74	1748184 39951 1100 542749 1.296353000694 99.996344416402 988 0.099987600391 0.100003319846 98.799992016124 9.8799984228152
75	1788135 27247 1100 542749 1.296353000694 99.996344416402 988 1 1 988 988
76	1815382 39951 1100 542749 1.296353000694 99.996344416402 988 0.099987600391 0.100003319846 98.799992016124 9.8799984228152
77	1855333 27247 1100 542749 1.296353000694 99.996344416402 988 1 1 988 988
78	1882580 40001 1106 542761 1.296353020708 99.996344806694 988 0.099987600391 0.100003320217 98.799992386402 9.8799984968707
79	1922581 27279 1106 542761 1.296353020708 99.996344806694 988 2 2 1976 3952
80	1949860 39993 1112 542767 1.296353040721 99.996344938767 988 0.099987600391 0.100003320218 98.799992498461 9.8799985192825
81	1989853 27267 1112 542767 1.296353040721 99.996344938767 988 3 3 2964 8892
82	2017120 40000 1118 542755 1.296353060735 99.996344677342 988 0.099987600391 0.100003319884 98.799992217023 9.8799984629949
83	2057120 27285 1118 542755 1.296353060735 99.996344677342 988 4 4 3952 15808
84	2084405 39991 1124 542731 1.296353080749 99.996344022077 988 0.099987600391 0.100003319458 98.799991541744 9.8799983279392
85	2124396 27273 1124 542731 1.296353080749 99.996344022077 988 5 5 4940 24700
86	2151669 39991 1130 542743 1.296353100763 99.996344329999 988 0.099987600391 0.10000331955 98.799991829652 9.8799983855208
87	2191660 27273 1130 542743 1.296353100763 99.996344329999 988 6 6 5928 35568
88	2218933 39982 1136 542737 1.296353120777 99.996344313091 988 0.099987600391 0.100003319551 98.79999179273 9.8799983781363
89	2258915 27272 1136 542737 1.296353120777 99.996344313091 988 7 7 6916 48412
90	2286187 39959 1173 542252 1.305928120777 99.90592902775 987 0.09998760039 0.10000331955 98.700001507389 9.8700003209479
91	2326146 27256 1173 542252 1.305928120777 99.90592902775 987 7 7 6909 48363
92	2353402 1459 4960 542769 2 100 99 0 0 0 0
93	2354861 2061 4960 542769 2 100 99 0.022161 0.027187480942 2.471438480942 0.061709856340972
94	2356922 1459 4960 542769 2 100 99 0 0 0 0
95	2358381 1459 4961 542770 2 100 99 1 1 99 99
96	2359840 2061 4961 542770 2 100 99 0.022161 0.026890600393 2.471141600393 0.061693801610496
97	2361901 1459 4961 542770 2 100 99 0 0 0 0
98	2363360 1459 4962 542771 2 100 99 2 2 198 396
99	2364819 2060 4962 542771 2 100 99 0.022161 0.02695052034 2.47120152034 0.061697027767597
100	2366879 1558 4962 542771 2 100 99 0 0 0 0
101	2368437 1558 4963 542772 2 100 99 3 3 297 891
102	2369995 2160 4963 542772 2 100 99 0.022161 0.026950480314 2.471201480314 0.061697025610155
103	2372155 1558 4963 542772 2 100 99 0 0 0 0
104	2373713 1558 4964 542773 2 100 99 4 4 396 1584
105	2375271 2160 4964 542773 2 100 99 0.022161 0.026890440288 2.471141440288 0.061693792999882
106	2377431 1558 4964 542773 2 100 99 0 0 0 0
107	2378989 1558 4965 542774 2 100 99 5 5 495 2475
108	2380547 2160 4965 542774 2 100 99 0.022161 0.026976640419 2.471227640419 0.061698436349296
109	2382707 1558 4965 542774 2 100 99 0 0 0 0
110	2384265 1558 4966 542775 2 100 99 6 6 594 3564
111	2385823 2159 4966 542775 2 100 99 0.02216 0.027009640411 2.471259640411 0.061700173575131
112	2387982 1558 4966 542775 2 100 99 0 0 0 0
113	2389540 1558 4967 542776 2 100 99 7 7 693 4851
114	2391098 2160 4967 542776 2 100 99 0.022161 0.027042800512 2.471293800512 0.061702010280532
115	2393258 1558 4967 542776 2 100 99 0 0 0 0

