version 3
run BreakRanksNoGui-27-20240708-17:39:06-154647
attr configname BreakRanksNoGui
attr datetime 20240708-17:39:06
attr datetimef 20240708-173906
attr experiment BreakRanksNoGui
attr inifile omnetpp.ini
attr iterationvars "$nCars=8, $platoonSize=8, $nLanes=1, $ploegH=0.5, $controller=1, $headway=0.1, $leaderHeadway=1.2, $leaderSpeed=110, $breakRanksSafetyDistance=2, $minSpeed=100, $maxSpeed=120, $beaconInterval=0.1, $priority=4, $packetSize=200, $sController=\"CACC\", $0=2, $1=0"
attr iterationvarsd nCars=8/platoonSize=8/nLanes=1/ploegH=0.5/controller=1/headway=0.1/leaderHeadway=1.2/leaderSpeed=110/breakRanksSafetyDistance=2/minSpeed=100/maxSpeed=120/beaconInterval=0.1/priority=4/packetSize=200/sController=CACC/2/0
attr iterationvarsf nCars=8,platoonSize=8,nLanes=1,ploegH=0.5,controller=1,headway=0.1,leaderHeadway=1.2,leaderSpeed=110,breakRanksSafetyDistance=2,minSpeed=100,maxSpeed=120,beaconInterval=0.1,priority=4,packetSize=200,sController=CACC,2,0-
attr measurement "$nCars=8, $platoonSize=8, $nLanes=1, $ploegH=0.5, $controller=1, $headway=0.1, $leaderHeadway=1.2, $leaderSpeed=110, $breakRanksSafetyDistance=2, $minSpeed=100, $maxSpeed=120, $beaconInterval=0.1, $priority=4, $packetSize=200, $sController=\"CACC\", $0=2, $1=0"
attr network Highway
attr processid 154647
attr repetition 7
attr replication #7
attr resultdir results
attr runnumber 27
attr seedset 7
itervar beaconInterval 0.1
itervar breakRanksSafetyDistance 2
itervar controller 1
itervar headway 0.1
itervar leaderHeadway 1.2
itervar leaderSpeed 110
itervar maxSpeed 120
itervar minSpeed 100
itervar nCars 8
itervar nLanes 1
itervar packetSize 200
itervar platoonSize 8
itervar ploegH 0.5
itervar priority 4
itervar sController "\"CACC\""
config image-path ../../../veins/images
config repeat 10
config extends BreakRanks
config *.manager.command "\"sumo\""
config *.manager.ignoreGuiCommands true
config output-vector-file results/BreakRanks_1_0.1_110_2/result_7.vec
config output-scalar-file results/BreakRanks_1_0.1_110_2/result_7.sca
config extends Platooning
config *.node[*].scenario_type "\"BreakRanksScenario\""
config *.manager.command "\"sumo-gui\""
config *.node[*].scenario_type "\"SimpleScenario\""
config cmdenv-express-mode true
config cmdenv-autoflush true
config cmdenv-status-frequency 15s
config num-rngs 6
config network Highway
config debug-on-errors true
config print-undisposed true
config *.playgroundSizeX 65000m
config *.playgroundSizeY 25000m
config *.playgroundSizeZ 50m
config sim-time-limit "100 s"
config *.annotations.draw false
config *.obstacles.debug false
config *.world.useTorus false
config *.world.use2D false
config *.manager.updateInterval 0.01s
config *.manager.host "\"localhost\""
config *.manager.moduleType "\"org.car2x.plexe.PlatoonCar\""
config *.manager.moduleName "\"node\""
config *.manager.moduleDisplayString "\"\""
config *.manager.autoShutdown true
config *.manager.margin 25
config *.connectionManager.sendDirect true
config *.connectionManager.maxInterfDist 2600m
config *.connectionManager.drawMaxIntfDist false
config *.**.nic.mac1609_4.useServiceChannel false
config *.**.nic.mac1609_4.txPower 100mW
config *.**.nic.mac1609_4.bitrate 6Mbps
config *.**.nic.mac1609_4.useAcks true
config *.**.nic.mac1609_4.ackErrorRate 0.0
config *.**.nic.mac1609_4.frameErrorRate 0.0
config *.**.nic.phy80211p.minPowerLevel -94dBm
config *.**.nic.phy80211p.maxTXPower 100mW
config *.**.nic.phy80211p.useNoiseFloor true
config *.**.nic.phy80211p.noiseFloor -95dBm
config *.**.nic.phy80211p.decider "xmldoc(\"config.xml\")"
config *.**.nic.phy80211p.analogueModels "xmldoc(\"config.xml\")"
config *.**.nic.phy80211p.usePropagationDelay true
config *.node[*].mobility.x 0
config *.node[*].mobility.y 0
config *.node[*].mobility.z 1.895
config seed-set 7
config **.seed 7
config *.node[*].prot.rng-0 2
config *.node[*].appl.rng-0 3
config *.node[*].scenario.rng-0 4
config **.traffic.rng-0 5
config *.manager.configFile "\"./sumocfg/freeway.sumo.cfg\""
config *.manager.launchConfig "xmldoc(\"./sumocfg/freeway.launchd.xml\")"
config **.numberOfCars 8
config **.numberOfCarsPerPlatoon 8
config **.numberOfLanes 1
config *.node[*].helper_type "\"PositionHelper\""
config *.node[*].scenario.caccC1 0.5
config *.node[*].scenario.caccXi 1
config *.node[*].scenario.caccOmegaN "0.2 Hz"
config *.node[*].scenario.caccSpacing "2 m"
config *.node[*].scenario.engineTau "0.5 s"
config *.node[*].scenario.ploegH 0.5s
config *.node[*].scenario.ploegKp 0.2
config *.node[*].scenario.ploegKd 0.7
config *.node[*].scenario.useRealisticEngine false
config *.node[*].scenario.useControllerAcceleration true
config *.node[*].scenario.nLanes 1
config **.numericController 1
config **.headway 0.1s
config *.node[*].scenario.accHeadway 0.1s
config *.node[*].scenario.leaderHeadway 1.2s
config *.node[*].scenario.leaderSpeed 110kmph
config *.node[*].appl_type "\"SimplePlatooningApp\""
config *.node[*].appl.*.scalar-recording true
config *.node[*].appl.*.vector-recording true
config *.node[0].appl.breakRanksSafetyDistance 2m
config *.node[*].appl.minSpeed 100kmph
config *.node[*].appl.maxSpeed 120kmph
config *.node[*].protocol_type "\"SimplePlatooningBeaconing\""
config *.node[*].prot.*.scalar-recording true
config *.node[*].prot.*.vector-recording true
config *.node[*].prot.beaconingInterval 0.1s
config *.node[*].prot.priority 4
config *.node[*].prot.packetSize 200
config **.traffic_type "\"PlatoonsTrafficManager\""
config **.traffic.platoonInsertTime "1 s"
config **.traffic.platoonInsertSpeed 110kmph
config **.traffic.nCars 8
config **.traffic.platoonSize 8
config **.traffic.nLanes 1
config **.traffic.platooningVType "\"vtypeauto\""
config **.traffic.controller "\"CACC\""
config **.traffic.platoonInsertDistance 2m
config **.traffic.platoonInsertHeadway 0s
config **.traffic.platoonLeaderHeadway 1.2s
config **.scalar-recording false
config **.vector-recording false
config output-vector-file results/BreakRanksNoGui_1_0.1_110_2/result_7.vec
config output-scalar-file results/BreakRanksNoGui_1_0.1_110_2/result_7.sca

vector 0 Highway.node[0].appl distance ETV
vector 1 Highway.node[0].appl relativeSpeed ETV
vector 2 Highway.node[0].appl nodeId ETV
vector 3 Highway.node[0].appl acceleration ETV
vector 4 Highway.node[0].appl controllerAcceleration ETV
vector 5 Highway.node[0].appl speed ETV
vector 6 Highway.node[0].appl posx ETV
vector 7 Highway.node[0].appl posy ETV
vector 8 Highway.node[1].appl distance ETV
vector 9 Highway.node[1].appl relativeSpeed ETV
vector 10 Highway.node[1].appl nodeId ETV
vector 11 Highway.node[1].appl acceleration ETV
vector 12 Highway.node[1].appl controllerAcceleration ETV
vector 13 Highway.node[1].appl speed ETV
vector 14 Highway.node[1].appl posx ETV
vector 15 Highway.node[1].appl posy ETV
vector 16 Highway.node[2].appl distance ETV
vector 17 Highway.node[2].appl relativeSpeed ETV
vector 18 Highway.node[2].appl nodeId ETV
vector 19 Highway.node[2].appl acceleration ETV
vector 20 Highway.node[2].appl controllerAcceleration ETV
vector 21 Highway.node[2].appl speed ETV
vector 22 Highway.node[2].appl posx ETV
vector 23 Highway.node[2].appl posy ETV
vector 24 Highway.node[3].appl distance ETV
vector 25 Highway.node[3].appl relativeSpeed ETV
vector 26 Highway.node[3].appl nodeId ETV
vector 27 Highway.node[3].appl acceleration ETV
vector 28 Highway.node[3].appl controllerAcceleration ETV
vector 29 Highway.node[3].appl speed ETV
vector 30 Highway.node[3].appl posx ETV
vector 31 Highway.node[3].appl posy ETV
vector 32 Highway.node[4].appl distance ETV
vector 33 Highway.node[4].appl relativeSpeed ETV
vector 34 Highway.node[4].appl nodeId ETV
vector 35 Highway.node[4].appl acceleration ETV
vector 36 Highway.node[4].appl controllerAcceleration ETV
vector 37 Highway.node[4].appl speed ETV
vector 38 Highway.node[4].appl posx ETV
vector 39 Highway.node[4].appl posy ETV
vector 40 Highway.node[5].appl distance ETV
vector 41 Highway.node[5].appl relativeSpeed ETV
vector 42 Highway.node[5].appl nodeId ETV
vector 43 Highway.node[5].appl acceleration ETV
vector 44 Highway.node[5].appl controllerAcceleration ETV
vector 45 Highway.node[5].appl speed ETV
vector 46 Highway.node[5].appl posx ETV
vector 47 Highway.node[5].appl posy ETV
vector 48 Highway.node[6].appl distance ETV
vector 49 Highway.node[6].appl relativeSpeed ETV
vector 50 Highway.node[6].appl nodeId ETV
vector 51 Highway.node[6].appl acceleration ETV
vector 52 Highway.node[6].appl controllerAcceleration ETV
vector 53 Highway.node[6].appl speed ETV
vector 54 Highway.node[6].appl posx ETV
vector 55 Highway.node[6].appl posy ETV
vector 56 Highway.node[7].appl distance ETV
vector 57 Highway.node[7].appl relativeSpeed ETV
vector 58 Highway.node[7].appl nodeId ETV
vector 59 Highway.node[7].appl acceleration ETV
vector 60 Highway.node[7].appl controllerAcceleration ETV
vector 61 Highway.node[7].appl speed ETV
vector 62 Highway.node[7].appl posx ETV
vector 63 Highway.node[7].appl posy ETV
vector 64 Highway.node[4].prot frontDelay ETV
vector 65 Highway.node[4].prot frontDelayId ETV
vector 66 Highway.node[3].prot frontDelay ETV
vector 67 Highway.node[3].prot frontDelayId ETV
vector 68 Highway.node[7].prot frontDelay ETV
vector 69 Highway.node[7].prot frontDelayId ETV
vector 70 Highway.node[2].prot frontDelay ETV
vector 71 Highway.node[2].prot frontDelayId ETV
vector 72 Highway.node[6].prot frontDelay ETV
vector 73 Highway.node[6].prot frontDelayId ETV
vector 74 Highway.node[5].prot frontDelay ETV
vector 75 Highway.node[5].prot frontDelayId ETV
vector 76 Highway.node[1].prot leaderDelay ETV
vector 77 Highway.node[1].prot leaderDelayId ETV
vector 78 Highway.node[1].prot frontDelay ETV
vector 79 Highway.node[1].prot frontDelayId ETV
vector 80 Highway.node[2].prot leaderDelay ETV
vector 81 Highway.node[2].prot leaderDelayId ETV
vector 82 Highway.node[3].prot leaderDelay ETV
vector 83 Highway.node[3].prot leaderDelayId ETV
vector 84 Highway.node[4].prot leaderDelay ETV
vector 85 Highway.node[4].prot leaderDelayId ETV
vector 86 Highway.node[5].prot leaderDelay ETV
vector 87 Highway.node[5].prot leaderDelayId ETV
vector 88 Highway.node[6].prot leaderDelay ETV
vector 89 Highway.node[6].prot leaderDelayId ETV
vector 90 Highway.node[7].prot leaderDelay ETV
vector 91 Highway.node[7].prot leaderDelayId ETV
vector 92 Highway.node[0].prot nodeId ETV
vector 93 Highway.node[0].prot busyTime ETV
vector 94 Highway.node[0].prot collisions ETV
vector 95 Highway.node[1].prot nodeId ETV
vector 96 Highway.node[1].prot busyTime ETV
vector 97 Highway.node[1].prot collisions ETV
vector 98 Highway.node[2].prot nodeId ETV
vector 99 Highway.node[2].prot busyTime ETV
vector 100 Highway.node[2].prot collisions ETV
vector 101 Highway.node[3].prot nodeId ETV
vector 102 Highway.node[3].prot busyTime ETV
vector 103 Highway.node[3].prot collisions ETV
vector 104 Highway.node[4].prot nodeId ETV
vector 105 Highway.node[4].prot busyTime ETV
vector 106 Highway.node[4].prot collisions ETV
vector 107 Highway.node[5].prot nodeId ETV
vector 108 Highway.node[5].prot busyTime ETV
vector 109 Highway.node[5].prot collisions ETV
vector 110 Highway.node[6].prot nodeId ETV
vector 111 Highway.node[6].prot busyTime ETV
vector 112 Highway.node[6].prot collisions ETV
vector 113 Highway.node[7].prot nodeId ETV
vector 114 Highway.node[7].prot busyTime ETV
vector 115 Highway.node[7].prot collisions ETV
0	113	1.11	-1
0	659	1.21	-1
0	1205	1.31	-1
0	1751	1.41	-1
0	2297	1.51	-1
0	2843	1.61	-1
0	3389	1.71	-1
0	3935	1.81	-1
0	4481	1.91	-1
0	5035	2.01	-1
0	5581	2.11	-1
0	6127	2.21	-1
0	6673	2.31	-1
0	7219	2.41	-1
0	7765	2.51	-1
0	8311	2.61	-1
0	8857	2.71	-1
0	9403	2.81	-1
0	9949	2.91	-1
0	10503	3.01	-1
0	11049	3.11	-1
0	11595	3.21	-1
0	12141	3.31	-1
0	12687	3.41	-1
0	13233	3.51	-1
0	13779	3.61	-1
0	14325	3.71	-1
0	14871	3.81	-1
0	15417	3.91	-1
0	15971	4.01	-1
0	16517	4.11	-1
0	17063	4.21	-1
0	17609	4.31	-1
0	18155	4.41	-1
0	18701	4.51	-1
0	19247	4.61	-1
0	19793	4.71	-1
0	20339	4.81	-1
0	20885	4.91	-1
0	21439	5.01	-1
0	21985	5.11	-1
0	22531	5.21	-1
0	23077	5.31	-1
0	23623	5.41	-1
0	24169	5.51	-1
0	24715	5.61	-1
0	25261	5.71	-1
0	25807	5.81	-1
0	26353	5.91	-1
0	26907	6.01	-1
0	27453	6.11	-1
0	27999	6.21	-1
0	28545	6.31	-1
0	29091	6.41	-1
0	29637	6.51	-1
0	30183	6.61	-1
0	30729	6.71	-1
0	31275	6.81	-1
0	31821	6.91	-1
0	32375	7.01	-1
0	32921	7.11	-1
0	33467	7.21	-1
0	34013	7.31	-1
0	34559	7.41	-1
0	35105	7.51	-1
0	35651	7.61	-1
0	36197	7.71	-1
0	36743	7.81	-1
0	37289	7.91	-1
0	37843	8.01	-1
0	38389	8.11	-1
0	38935	8.21	-1
0	39481	8.31	-1
0	40027	8.41	-1
0	40573	8.51	-1
0	41119	8.61	-1
0	41665	8.71	-1
0	42211	8.81	-1
0	42757	8.91	-1
0	43311	9.01	-1
0	43857	9.11	-1
0	44403	9.21	-1
0	44949	9.31	-1
0	45495	9.41	-1
0	46041	9.51	-1
0	46587	9.61	-1
0	47133	9.71	-1
0	47679	9.81	-1
0	48225	9.91	-1
0	50523	10.01	-1
0	51069	10.11	-1
0	51615	10.21	-1
0	52161	10.31	-1
0	52707	10.41	-1
0	53253	10.51	-1
0	53799	10.61	-1
0	54345	10.71	-1
0	54891	10.81	-1
0	55437	10.91	-1
0	55991	11.01	-1
0	56537	11.11	-1
0	57083	11.21	-1
0	57629	11.31	-1
0	58175	11.41	-1
0	58721	11.51	-1
0	59267	11.61	-1
0	59813	11.71	-1
0	60359	11.81	-1
0	60905	11.91	-1
0	61459	12.01	-1
0	62005	12.11	-1
0	62551	12.21	-1
0	63097	12.31	-1
0	63643	12.41	-1
0	64189	12.51	-1
0	64735	12.61	-1
0	65281	12.71	-1
0	65827	12.81	-1
0	66373	12.91	-1
0	66927	13.01	-1
0	67473	13.11	-1
0	68019	13.21	-1
0	68565	13.31	-1
0	69111	13.41	-1
0	69657	13.51	-1
0	70203	13.61	-1
0	70749	13.71	-1
0	71295	13.81	-1
0	71841	13.91	-1
0	72395	14.01	-1
0	72941	14.11	-1
0	73487	14.21	-1
0	74033	14.31	-1
0	74579	14.41	-1
0	75125	14.51	-1
0	75671	14.61	-1
0	76217	14.71	-1
0	76763	14.81	-1
0	77309	14.91	-1
0	77863	15.01	-1
0	78409	15.11	-1
0	78955	15.21	-1
0	79501	15.31	-1
0	80047	15.41	-1
0	80593	15.51	-1
0	81139	15.61	-1
0	81685	15.71	-1
0	82231	15.81	-1
0	82777	15.91	-1
0	83331	16.01	-1
0	83877	16.11	-1
0	84423	16.21	-1
0	84969	16.31	-1
0	85515	16.41	-1
0	86061	16.51	-1
0	86607	16.61	-1
0	87153	16.71	-1
0	87699	16.81	-1
0	88245	16.91	-1
0	88799	17.01	-1
0	89345	17.11	-1
0	89891	17.21	-1
0	90437	17.31	-1
0	90983	17.41	-1
0	91529	17.51	-1
0	92075	17.61	-1
0	92621	17.71	-1
0	93167	17.81	-1
0	93713	17.91	-1
0	94267	18.01	-1
0	94813	18.11	-1
0	95359	18.21	-1
0	95905	18.31	-1
0	96451	18.41	-1
0	96997	18.51	-1
0	97543	18.61	-1
0	98089	18.71	-1
0	98635	18.81	-1
0	99181	18.91	-1
0	99735	19.01	-1
0	100281	19.11	-1
0	100827	19.21	-1
0	101373	19.31	-1
0	101919	19.41	-1
0	102465	19.51	-1
0	103011	19.61	-1
0	103557	19.71	-1
0	104103	19.81	-1
0	104649	19.91	-1
0	105203	20.01	-1
0	105749	20.11	-1
0	106295	20.21	-1
0	106841	20.31	-1
0	107387	20.41	-1
0	107933	20.51	-1
0	108479	20.61	-1
0	109025	20.71	-1
0	109571	20.81	-1
0	110117	20.91	-1
0	110671	21.01	-1
0	111217	21.11	-1
0	111763	21.21	-1
0	112309	21.31	-1
0	112855	21.41	-1
0	113401	21.51	-1
0	113947	21.61	-1
0	114493	21.71	-1
0	115039	21.81	-1
0	115585	21.91	-1
0	116139	22.01	-1
0	116685	22.11	-1
0	117231	22.21	-1
0	117777	22.31	-1
0	118323	22.41	-1
0	118869	22.51	-1
0	119415	22.61	-1
0	119961	22.71	-1
0	120507	22.81	-1
0	121053	22.91	-1
0	121607	23.01	-1
0	122153	23.11	-1
0	122699	23.21	-1
0	123245	23.31	-1
0	123791	23.41	-1
0	124337	23.51	-1
0	124883	23.61	-1
0	125429	23.71	-1
0	125975	23.81	-1
0	126521	23.91	-1
0	127075	24.01	-1
0	127621	24.11	-1
0	128167	24.21	-1
0	128713	24.31	-1
0	129259	24.41	-1
0	129805	24.51	-1
0	130351	24.61	-1
0	130897	24.71	-1
0	131443	24.81	-1
0	131989	24.91	-1
0	132543	25.01	-1
0	133089	25.11	-1
0	133635	25.21	-1
0	134181	25.31	-1
0	134727	25.41	-1
0	135273	25.51	-1
0	135819	25.61	-1
0	136365	25.71	-1
0	136911	25.81	-1
0	137457	25.91	-1
0	138011	26.01	-1
0	138557	26.11	-1
0	139103	26.21	-1
0	139649	26.31	-1
0	140195	26.41	-1
0	140741	26.51	-1
0	141287	26.61	-1
0	141833	26.71	-1
0	142379	26.81	-1
0	142925	26.91	-1
0	143479	27.01	-1
0	144025	27.11	-1
0	144571	27.21	-1
0	145117	27.31	-1
0	145663	27.41	-1
0	146209	27.51	-1
0	146755	27.61	-1
0	147301	27.71	-1
0	147847	27.81	-1
0	148393	27.91	-1
0	148947	28.01	-1
0	149493	28.11	-1
0	150039	28.21	-1
0	150585	28.31	-1
0	151131	28.41	-1
0	151677	28.51	-1
0	152223	28.61	-1
0	152769	28.71	-1
0	153315	28.81	-1
0	153861	28.91	-1
0	154415	29.01	-1
0	154961	29.11	-1
0	155507	29.21	-1
0	156053	29.31	-1
0	156599	29.41	-1
0	157145	29.51	-1
0	157691	29.61	-1
0	158237	29.71	-1
0	158783	29.81	-1
0	159329	29.91	-1
0	159883	30.01	-1
0	160429	30.11	-1
0	160975	30.21	-1
0	161521	30.31	-1
0	162067	30.41	-1
0	162613	30.51	-1
0	163159	30.61	-1
0	163705	30.71	-1
0	164251	30.81	-1
0	164797	30.91	-1
0	165351	31.01	-1
0	165897	31.11	-1
0	166443	31.21	-1
0	166989	31.31	-1
0	167535	31.41	-1
0	168081	31.51	-1
0	168627	31.61	-1
0	169173	31.71	-1
0	169719	31.81	-1
0	170265	31.91	-1
0	170819	32.01	-1
0	171365	32.11	-1
0	171911	32.21	-1
0	172457	32.31	-1
0	173003	32.41	-1
0	173549	32.51	-1
0	174095	32.61	-1
0	174641	32.71	-1
0	175187	32.81	-1
0	175733	32.91	-1
0	176287	33.01	-1
0	176833	33.11	-1
0	177379	33.21	-1
0	177925	33.31	-1
0	178471	33.41	-1
0	179017	33.51	-1
0	179563	33.61	-1
0	180109	33.71	-1
0	180655	33.81	-1
0	181201	33.91	-1
0	181755	34.01	-1
0	182301	34.11	-1
0	182847	34.21	-1
0	183393	34.31	-1
0	183939	34.41	-1
0	184485	34.51	-1
0	185031	34.61	-1
0	185577	34.71	-1
0	186123	34.81	-1
0	186669	34.91	-1
0	187223	35.01	-1
0	187769	35.11	-1
0	188315	35.21	-1
0	188861	35.31	-1
0	189407	35.41	-1
0	189953	35.51	-1
0	190499	35.61	-1
0	191045	35.71	-1
0	191591	35.81	-1
0	192137	35.91	-1
0	192691	36.01	-1
0	193237	36.11	-1
0	193783	36.21	-1
0	194329	36.31	-1
0	194875	36.41	-1
0	195421	36.51	-1
0	195967	36.61	-1
0	196513	36.71	-1
0	197059	36.81	-1
0	197605	36.91	-1
0	198159	37.01	-1
0	198705	37.11	-1
0	199251	37.21	-1
0	199797	37.31	-1
0	200343	37.41	-1
0	200889	37.51	-1
0	201435	37.61	-1
0	201981	37.71	-1
0	202527	37.81	-1
0	203073	37.91	-1
0	203627	38.01	-1
0	204173	38.11	-1
0	204719	38.21	-1
0	205265	38.31	-1
0	205811	38.41	-1
0	206357	38.51	-1
0	206903	38.61	-1
0	207449	38.71	-1
0	207995	38.81	-1
0	208541	38.91	-1
0	209095	39.01	-1
0	209641	39.11	-1
0	210187	39.21	-1
0	210733	39.31	-1
0	211279	39.41	-1
0	211825	39.51	-1
0	212371	39.61	-1
0	212917	39.71	-1
0	213463	39.81	-1
0	214009	39.91	-1
0	214563	40.01	-1
0	215109	40.11	-1
0	215655	40.21	-1
0	216201	40.31	-1
0	216747	40.41	-1
0	217293	40.51	-1
0	217839	40.61	-1
0	218385	40.71	-1
0	218931	40.81	-1
0	219477	40.91	-1
0	220031	41.01	-1
0	220577	41.11	-1
0	221123	41.21	-1
0	221669	41.31	-1
0	222215	41.41	-1
0	222761	41.51	-1
0	223307	41.61	-1
0	223853	41.71	-1
0	224399	41.81	-1
0	224945	41.91	-1
0	225499	42.01	-1
0	226045	42.11	-1
0	226591	42.21	-1
0	227137	42.31	-1
0	227683	42.41	-1
0	228229	42.51	-1
0	228775	42.61	-1
0	229321	42.71	-1
0	229867	42.81	-1
0	230413	42.91	-1
0	230967	43.01	-1
0	231513	43.11	-1
0	232059	43.21	-1
0	232605	43.31	-1
0	233151	43.41	-1
0	233697	43.51	-1
0	234243	43.61	-1
0	234789	43.71	-1
0	235335	43.81	-1
0	235881	43.91	-1
0	236435	44.01	-1
0	236981	44.11	-1
0	237527	44.21	-1
0	238073	44.31	-1
0	238619	44.41	-1
0	239165	44.51	-1
0	239711	44.61	-1
0	240257	44.71	-1
0	240803	44.81	-1
0	241349	44.91	-1
0	241903	45.01	-1
0	242449	45.11	-1
0	242995	45.21	-1
0	243541	45.31	-1
0	244087	45.41	-1
0	244633	45.51	-1
0	245179	45.61	-1
0	245725	45.71	-1
0	246271	45.81	-1
0	246817	45.91	-1
0	247371	46.01	-1
0	247917	46.11	-1
0	248463	46.21	-1
0	249009	46.31	-1
0	249555	46.41	-1
0	250101	46.51	-1
0	250647	46.61	-1
0	251193	46.71	-1
0	251739	46.81	-1
0	252285	46.91	-1
0	252839	47.01	-1
0	253385	47.11	-1
0	253931	47.21	-1
0	254477	47.31	-1
0	255023	47.41	-1
0	255569	47.51	-1
0	256115	47.61	-1
0	256661	47.71	-1
0	257207	47.81	-1
0	257753	47.91	-1
0	258307	48.01	-1
0	258853	48.11	-1
0	259399	48.21	-1
0	259945	48.31	-1
0	260491	48.41	-1
0	261037	48.51	-1
0	261583	48.61	-1
0	262129	48.71	-1
0	262675	48.81	-1
0	263221	48.91	-1
0	263775	49.01	-1
0	264321	49.11	-1
0	264867	49.21	-1
0	265413	49.31	-1
0	265959	49.41	-1
0	266505	49.51	-1
0	267051	49.61	-1
0	267597	49.71	-1
0	268143	49.81	-1
0	268689	49.91	-1
0	269243	50.01	-1
0	269789	50.11	-1
0	270335	50.21	-1
0	270881	50.31	-1
0	271427	50.41	-1
0	271973	50.51	-1
0	272519	50.61	-1
0	273065	50.71	-1
0	273611	50.81	-1
0	274157	50.91	46.11
0	274711	51.01	46.3545
0	275257	51.11	46.5989
0	275803	51.21	46.8434
0	276349	51.31	47.0878
0	276895	51.41	47.3322
0	277441	51.51	47.5767
0	277987	51.61	47.8211
0	278533	51.71	48.0656
0	279079	51.81	48.31
0	279625	51.91	48.5544
0	280179	52.01	48.7989
0	280725	52.11	49.0433
0	281271	52.21	49.2878
0	281817	52.31	49.5322
0	282363	52.41	49.7766
0	282909	52.51	50.0211
0	283455	52.61	50.2655
0	284001	52.71	50.51
0	284547	52.81	50.7544
0	285093	52.91	50.9988
0	285647	53.01	51.2433
0	286193	53.11	51.4877
0	286739	53.21	51.7322
0	287285	53.31	51.9766
0	287831	53.41	52.221
0	288377	53.51	52.4655
0	288923	53.61	52.7099
0	289469	53.71	52.9544
0	290015	53.81	53.1988
0	290561	53.91	53.4432
0	291115	54.01	53.6877
0	291661	54.11	53.9321
0	292207	54.21	54.1766
0	292753	54.31	54.421
0	293299	54.41	54.6654
0	293845	54.51	54.9099
0	294391	54.61	55.1543
0	294937	54.71	55.3988
0	295483	54.81	55.6432
0	296029	54.91	55.8876
0	296583	55.01	56.1321
0	297129	55.11	56.3765
0	297675	55.21	56.621
0	298221	55.31	56.8654
0	298767	55.41	57.1098
0	299313	55.51	57.3543
0	299859	55.61	57.5987
0	300405	55.71	57.8432
0	300951	55.81	58.0876
0	301497	55.91	58.332
0	302051	56.01	58.5765
0	302597	56.11	58.8209
0	303143	56.21	59.0654
0	303689	56.31	59.3098
0	304235	56.41	59.5542
0	304781	56.51	59.7987
0	305327	56.61	60.0431
0	305873	56.71	60.2876
0	306419	56.81	60.532
0	306965	56.91	60.7764
0	307519	57.01	61.0209
0	308065	57.11	61.2653
0	308611	57.21	61.5098
0	309157	57.31	61.7542
0	309703	57.41	61.9986
0	310249	57.51	62.2431
0	310795	57.61	62.4875
0	311341	57.71	62.732
0	311887	57.81	62.9764
0	312433	57.91	63.2208
0	312987	58.01	63.4653
0	313533	58.11	63.7097
0	314079	58.21	63.9542
0	314625	58.31	64.1986
0	315171	58.41	64.443
0	315717	58.51	64.6875
0	316263	58.61	64.9319
0	316809	58.71	65.1764
0	317355	58.81	65.4208
0	317901	58.91	65.6652
0	318455	59.01	65.9097
0	319001	59.11	66.1541
0	319547	59.21	66.3986
0	320093	59.31	66.643
0	320639	59.41	66.8874
0	321185	59.51	67.1319
0	321731	59.61	67.3763
0	322277	59.71	67.6208
0	322823	59.81	67.8652
0	323369	59.91	68.1096
0	323923	60.01	68.3541
0	324469	60.11	68.5985
0	325015	60.21	68.843
0	325561	60.31	69.0874
0	326107	60.41	69.3318
0	326653	60.51	69.5763
0	327199	60.61	69.8207
0	327745	60.71	70.0652
0	328291	60.81	70.3096
0	328837	60.91	70.554
0	329391	61.01	70.7985
0	329937	61.11	71.0429
0	330483	61.21	71.2874
0	331029	61.31	71.5318
0	331575	61.41	71.7762
0	332121	61.51	72.0207
0	332667	61.61	72.2651
0	333213	61.71	72.5096
0	333759	61.81	72.754
0	334305	61.91	72.9984
0	334859	62.01	73.2429
0	335405	62.11	73.4873
0	335951	62.21	73.7318
0	336497	62.31	73.9762
0	337043	62.41	74.2206
0	337589	62.51	74.4651
0	338135	62.61	74.7095
0	338681	62.71	74.954
0	339227	62.81	75.1984
0	339773	62.91	75.4428
0	340327	63.01	75.6873
0	340873	63.11	75.9317
0	341419	63.21	76.1762
0	341965	63.31	76.4206
0	342511	63.41	76.665
0	343057	63.51	76.9095
0	343603	63.61	77.1539
0	344149	63.71	77.3984
0	344695	63.81	77.6428
0	345241	63.91	77.8872
0	345795	64.01	78.1317
0	346341	64.11	78.3761
0	346887	64.21	78.6206
0	347433	64.31	78.865
0	347979	64.41	79.1094
0	348525	64.51	79.3539
0	349071	64.61	79.5983
0	349617	64.71	79.8428
0	350163	64.81	80.0872
0	350709	64.91	80.3316
0	351263	65.01	80.5761
0	351809	65.11	80.8205
0	352355	65.21	81.065
0	352901	65.31	81.3094
0	353447	65.41	81.5538
0	353993	65.51	81.7983
0	354539	65.61	82.0427
0	355085	65.71	82.2872
0	355631	65.81	82.5316
0	356177	65.91	82.776
0	356731	66.01	83.0205
0	357277	66.11	83.2649
0	357823	66.21	83.5094
0	358369	66.31	83.7538
0	358915	66.41	83.9982
0	359461	66.51	84.2427
0	360007	66.61	84.4871
0	360553	66.71	84.7316
0	361099	66.81	84.976
0	361645	66.91	85.2204
0	362199	67.01	85.4649
0	362745	67.11	85.7093
0	363291	67.21	85.9538
0	363837	67.31	86.1982
0	364383	67.41	86.4426
0	364929	67.51	86.6871
0	365475	67.61	86.9315
0	366021	67.71	87.176
0	366567	67.81	87.4204
0	367113	67.91	87.6648
0	367667	68.01	87.9093
0	368213	68.11	88.1537
0	368759	68.21	88.3982
0	369305	68.31	88.6426
0	369851	68.41	88.887
0	370397	68.51	89.1315
0	370943	68.61	89.3759
0	371489	68.71	89.6204
0	372035	68.81	89.8648
0	372581	68.91	90.1092
0	373135	69.01	90.3537
0	373681	69.11	90.5981
0	374227	69.21	90.8426
0	374773	69.31	91.087
0	375319	69.41	91.3314
0	375865	69.51	91.5759
0	376411	69.61	91.8203
0	376957	69.71	92.0648
0	377503	69.81	92.3092
0	378049	69.91	92.5536
0	378603	70.01	92.7981
0	379149	70.11	93.0425
0	379695	70.21	93.287
0	380241	70.31	93.5314
0	380787	70.41	93.7758
0	381333	70.51	94.0203
0	381879	70.61	94.2647
0	382425	70.71	94.5092
0	382971	70.81	94.7536
0	383517	70.91	94.998
0	384071	71.01	95.2425
0	384617	71.11	95.4869
0	385163	71.21	95.7314
0	385709	71.31	95.9758
0	386255	71.41	96.2202
0	386801	71.51	96.4647
0	387347	71.61	96.7091
0	387893	71.71	96.9536
0	388439	71.81	97.198
0	388985	71.91	97.4424
0	389539	72.01	97.6869
0	390085	72.11	97.9313
0	390631	72.21	98.1758
0	391177	72.31	98.4202
0	391723	72.41	98.6646
0	392269	72.51	98.9091
0	392815	72.61	99.1535
0	393361	72.71	99.398
0	393907	72.81	99.6424
0	394453	72.91	99.8868
0	395007	73.01	100.131
0	395553	73.11	100.376
0	396099	73.21	100.62
0	396645	73.31	56.127
0	397191	73.41	56.3714
0	397737	73.51	56.6156
0	398283	73.61	56.8595
0	398829	73.71	57.103
0	399375	73.81	57.3462
0	399921	73.91	57.5889
0	400475	74.01	57.8311
0	401021	74.11	58.0729
0	401567	74.21	58.3143
0	402113	74.31	58.5551
0	402659	74.41	58.7956
0	403205	74.51	59.0356
0	403751	74.61	59.2752
0	404297	74.71	59.5144
0	404843	74.81	59.7533
0	405389	74.91	59.9919
0	405943	75.01	60.2303
0	406489	75.11	60.4683
0	407035	75.21	60.7062
0	407581	75.31	60.9438
0	408127	75.41	61.1813
0	408673	75.51	61.4187
0	409219	75.61	61.656
0	409765	75.71	61.8932
0	410311	75.81	62.1303
0	410857	75.91	62.3674
0	411411	76.01	62.6044
0	411957	76.11	62.8415
0	412503	76.21	63.0785
0	413049	76.31	63.3156
0	413595	76.41	63.5527
0	414141	76.51	63.7899
0	414687	76.61	64.0271
0	415233	76.71	64.2644
0	415779	76.81	64.5017
0	416325	76.91	64.7391
0	416879	77.01	64.9766
0	417425	77.11	65.2141
0	417971	77.21	65.4518
0	418517	77.31	65.6895
0	419063	77.41	65.9273
0	419609	77.51	66.1652
0	420155	77.61	66.4031
0	420701	77.71	66.6412
0	421247	77.81	66.8793
0	421793	77.91	67.1175
0	422347	78.01	67.3558
0	422893	78.11	67.5941
0	423439	78.21	67.8325
0	423985	78.31	68.071
0	424531	78.41	68.3096
0	425077	78.51	68.5483
0	425623	78.61	68.787
0	426169	78.71	69.0258
0	426715	78.81	69.2646
0	427261	78.91	69.5035
0	427815	79.01	69.7425
0	428361	79.11	69.9815
0	428907	79.21	70.2206
0	429453	79.31	70.4598
0	429999	79.41	70.699
0	430545	79.51	70.9382
0	431091	79.61	71.1776
0	431637	79.71	71.4169
0	432183	79.81	71.6564
0	432729	79.91	71.8958
0	433283	80.01	72.1354
0	433829	80.11	72.3749
0	434375	80.21	72.6146
0	434921	80.31	72.8542
0	435467	80.41	73.0939
0	436013	80.51	73.3337
0	436559	80.61	73.5735
0	437105	80.71	73.8134
0	437651	80.81	74.0533
0	438197	80.91	74.2932
0	438751	81.01	74.5332
0	439297	81.11	74.7732
0	439843	81.21	75.0133
0	440389	81.31	75.2534
0	440935	81.41	75.4936
0	441481	81.51	75.7338
0	442027	81.61	75.974
0	442573	81.71	76.2143
0	443119	81.81	76.4546
0	443665	81.91	76.695
0	444219	82.01	76.9354
0	444765	82.11	77.1759
0	445311	82.21	77.4163
0	445857	82.31	77.6569
0	446403	82.41	77.8974
0	446949	82.51	78.138
0	447495	82.61	78.3787
0	448041	82.71	78.6193
0	448587	82.81	78.86
0	449133	82.91	79.1008
0	449687	83.01	79.3416
0	450233	83.11	79.5824
0	450779	83.21	79.8233
0	451325	83.31	80.0641
0	451871	83.41	80.3051
0	452417	83.51	80.546
0	452963	83.61	80.787
0	453509	83.71	81.0281
0	454055	83.81	81.2691
0	454601	83.91	81.5102
0	455155	84.01	81.7513
0	455701	84.11	81.9925
0	456247	84.21	82.2337
0	456793	84.31	82.4749
0	457339	84.41	82.7162
0	457885	84.51	82.9575
0	458431	84.61	83.1988
0	458977	84.71	83.4401
0	459523	84.81	83.6815
0	460069	84.91	83.9229
0	460623	85.01	84.1644
0	461169	85.11	84.4058
0	461715	85.21	84.6474
0	462261	85.31	84.8889
0	462807	85.41	85.1304
0	463353	85.51	85.372
0	463899	85.61	85.6136
0	464445	85.71	85.8553
0	464991	85.81	86.097
0	465537	85.91	86.3387
0	466091	86.01	86.5804
0	466637	86.11	86.8221
0	467183	86.21	87.0639
0	467729	86.31	87.3057
0	468275	86.41	87.5476
0	468821	86.51	87.7894
0	469367	86.61	88.0313
0	469913	86.71	88.2732
0	470459	86.81	88.5151
0	471005	86.91	88.7571
0	471559	87.01	88.9991
0	472105	87.11	89.2411
0	472651	87.21	89.4831
0	473197	87.31	89.7252
0	473743	87.41	89.9672
0	474289	87.51	90.2093
0	474835	87.61	90.4515
0	475381	87.71	90.6936
0	475927	87.81	90.9358
0	476473	87.91	91.178
0	477027	88.01	91.4202
0	477573	88.11	91.6624
0	478119	88.21	91.9047
0	478665	88.31	92.147
0	479211	88.41	92.3893
0	479757	88.51	92.6316
0	480303	88.61	92.8739
0	480849	88.71	93.1163
0	481395	88.81	93.3587
0	481941	88.91	93.6011
0	482495	89.01	93.8435
0	483041	89.11	94.086
0	483587	89.21	94.3284
0	484133	89.31	94.5709
0	484679	89.41	94.8134
0	485225	89.51	95.0559
0	485771	89.61	95.2985
0	486317	89.71	95.541
0	486863	89.81	95.7836
0	487409	89.91	96.0262
0	487963	90.01	96.2688
0	488509	90.11	96.5115
0	489055	90.21	96.7541
0	489601	90.31	96.9968
0	490147	90.41	97.2395
0	490693	90.51	97.4822
0	491239	90.61	97.7249
0	491785	90.71	97.9676
0	492331	90.81	98.2104
0	492877	90.91	98.4532
0	493431	91.01	98.696
0	493977	91.11	98.9388
0	494523	91.21	99.1816
0	495069	91.31	99.4244
0	495615	91.41	99.6673
0	496161	91.51	99.9101
0	496707	91.61	100.153
0	497253	91.71	100.396
0	497799	91.81	100.639
0	498345	91.91	100.882
0	498899	92.01	101.125
0	499445	92.11	101.368
0	499991	92.21	101.611
0	500537	92.31	101.854
0	501083	92.41	102.097
0	501629	92.51	102.34
0	502175	92.61	102.583
0	502721	92.71	102.826
0	503267	92.81	103.069
0	503813	92.91	103.312
0	504367	93.01	103.555
0	504913	93.11	103.798
0	505459	93.21	104.041
0	506005	93.31	104.284
0	506551	93.41	104.527
0	507097	93.51	104.771
0	507643	93.61	105.014
0	508189	93.71	105.257
0	508735	93.81	105.5
0	509281	93.91	105.743
0	509835	94.01	105.987
0	510381	94.11	106.23
0	510927	94.21	106.473
0	511473	94.31	106.716
0	512019	94.41	106.959
0	512565	94.51	107.203
0	513111	94.61	107.446
0	513657	94.71	107.689
0	514203	94.81	107.933
0	514749	94.91	108.176
0	515303	95.01	108.419
0	515849	95.11	108.663
0	516395	95.21	108.906
0	516941	95.31	109.149
0	517487	95.41	109.393
0	518033	95.51	109.636
0	518579	95.61	109.88
0	519125	95.71	110.123
0	519671	95.81	110.366
0	520217	95.91	110.61
0	520771	96.01	110.853
0	521317	96.11	111.097
0	521863	96.21	111.34
0	522409	96.31	111.584
0	522955	96.41	111.827
0	523501	96.51	112.071
0	524047	96.61	112.314
0	524593	96.71	112.557
0	525139	96.81	112.801
0	525685	96.91	113.045
0	526239	97.01	113.288
0	526785	97.11	113.532
0	527331	97.21	113.775
0	527877	97.31	114.019
0	528423	97.41	114.262
0	528969	97.51	114.506
0	529515	97.61	114.749
0	530061	97.71	114.993
0	530607	97.81	115.237
0	531153	97.91	115.48
0	531707	98.01	115.724
0	532253	98.11	115.967
0	532799	98.21	116.211
0	533345	98.31	116.455
0	533891	98.41	116.698
0	534437	98.51	116.942
0	534983	98.61	117.186
0	535529	98.71	117.429
0	536075	98.81	117.673
0	536621	98.91	117.917
0	537175	99.01	29.0752
0	537721	99.11	29.1204
0	538267	99.21	29.1668
0	538813	99.31	29.2151
0	539359	99.41	29.2655
0	539905	99.51	29.3183
0	540451	99.61	29.3737
0	540997	99.71	29.4317
0	541543	99.81	29.4924
0	542089	99.91	29.5557
1	113	1.11	0
1	659	1.21	0
1	1205	1.31	0
1	1751	1.41	0
1	2297	1.51	0
1	2843	1.61	0
1	3389	1.71	0
1	3935	1.81	0
1	4481	1.91	0
1	5035	2.01	0
1	5581	2.11	0
1	6127	2.21	0
1	6673	2.31	0
1	7219	2.41	0
1	7765	2.51	0
1	8311	2.61	0
1	8857	2.71	0
1	9403	2.81	0
1	9949	2.91	0
1	10503	3.01	0
1	11049	3.11	0
1	11595	3.21	0
1	12141	3.31	0
1	12687	3.41	0
1	13233	3.51	0
1	13779	3.61	0
1	14325	3.71	0
1	14871	3.81	0
1	15417	3.91	0
1	15971	4.01	0
1	16517	4.11	0
1	17063	4.21	0
1	17609	4.31	0
1	18155	4.41	0
1	18701	4.51	0
1	19247	4.61	0
1	19793	4.71	0
1	20339	4.81	0
1	20885	4.91	0
1	21439	5.01	0
1	21985	5.11	0
1	22531	5.21	0
1	23077	5.31	0
1	23623	5.41	0
1	24169	5.51	0
1	24715	5.61	0
1	25261	5.71	0
1	25807	5.81	0
1	26353	5.91	0
1	26907	6.01	0
1	27453	6.11	0
1	27999	6.21	0
1	28545	6.31	0
1	29091	6.41	0
1	29637	6.51	0
1	30183	6.61	0
1	30729	6.71	0
1	31275	6.81	0
1	31821	6.91	0
1	32375	7.01	0
1	32921	7.11	0
1	33467	7.21	0
1	34013	7.31	0
1	34559	7.41	0
1	35105	7.51	0
1	35651	7.61	0
1	36197	7.71	0
1	36743	7.81	0
1	37289	7.91	0
1	37843	8.01	0
1	38389	8.11	0
1	38935	8.21	0
1	39481	8.31	0
1	40027	8.41	0
1	40573	8.51	0
1	41119	8.61	0
1	41665	8.71	0
1	42211	8.81	0
1	42757	8.91	0
1	43311	9.01	0
1	43857	9.11	0
1	44403	9.21	0
1	44949	9.31	0
1	45495	9.41	0
1	46041	9.51	0
1	46587	9.61	0
1	47133	9.71	0
1	47679	9.81	0
1	48225	9.91	0
1	50523	10.01	0
1	51069	10.11	0
1	51615	10.21	0
1	52161	10.31	0
1	52707	10.41	0
1	53253	10.51	0
1	53799	10.61	0
1	54345	10.71	0
1	54891	10.81	0
1	55437	10.91	0
1	55991	11.01	0
1	56537	11.11	0
1	57083	11.21	0
1	57629	11.31	0
1	58175	11.41	0
1	58721	11.51	0
1	59267	11.61	0
1	59813	11.71	0
1	60359	11.81	0
1	60905	11.91	0
1	61459	12.01	0
1	62005	12.11	0
1	62551	12.21	0
1	63097	12.31	0
1	63643	12.41	0
1	64189	12.51	0
1	64735	12.61	0
1	65281	12.71	0
1	65827	12.81	0
1	66373	12.91	0
1	66927	13.01	0
1	67473	13.11	0
1	68019	13.21	0
1	68565	13.31	0
1	69111	13.41	0
1	69657	13.51	0
1	70203	13.61	0
1	70749	13.71	0
1	71295	13.81	0
1	71841	13.91	0
1	72395	14.01	0
1	72941	14.11	0
1	73487	14.21	0
1	74033	14.31	0
1	74579	14.41	0
1	75125	14.51	0
1	75671	14.61	0
1	76217	14.71	0
1	76763	14.81	0
1	77309	14.91	0
1	77863	15.01	0
1	78409	15.11	0
1	78955	15.21	0
1	79501	15.31	0
1	80047	15.41	0
1	80593	15.51	0
1	81139	15.61	0
1	81685	15.71	0
1	82231	15.81	0
1	82777	15.91	0
1	83331	16.01	0
1	83877	16.11	0
1	84423	16.21	0
1	84969	16.31	0
1	85515	16.41	0
1	86061	16.51	0
1	86607	16.61	0
1	87153	16.71	0
1	87699	16.81	0
1	88245	16.91	0
1	88799	17.01	0
1	89345	17.11	0
1	89891	17.21	0
1	90437	17.31	0
1	90983	17.41	0
1	91529	17.51	0
1	92075	17.61	0
1	92621	17.71	0
1	93167	17.81	0
1	93713	17.91	0
1	94267	18.01	0
1	94813	18.11	0
1	95359	18.21	0
1	95905	18.31	0
1	96451	18.41	0
1	96997	18.51	0
1	97543	18.61	0
1	98089	18.71	0
1	98635	18.81	0
1	99181	18.91	0
1	99735	19.01	0
1	100281	19.11	0
1	100827	19.21	0
1	101373	19.31	0
1	101919	19.41	0
1	102465	19.51	0
1	103011	19.61	0
1	103557	19.71	0
1	104103	19.81	0
1	104649	19.91	0
1	105203	20.01	0
1	105749	20.11	0
1	106295	20.21	0
1	106841	20.31	0
1	107387	20.41	0
1	107933	20.51	0
1	108479	20.61	0
1	109025	20.71	0
1	109571	20.81	0
1	110117	20.91	0
1	110671	21.01	0
1	111217	21.11	0
1	111763	21.21	0
1	112309	21.31	0
1	112855	21.41	0
1	113401	21.51	0
1	113947	21.61	0
1	114493	21.71	0
1	115039	21.81	0
1	115585	21.91	0
1	116139	22.01	0
1	116685	22.11	0
1	117231	22.21	0
1	117777	22.31	0
1	118323	22.41	0
1	118869	22.51	0
1	119415	22.61	0
1	119961	22.71	0
1	120507	22.81	0
1	121053	22.91	0
1	121607	23.01	0
1	122153	23.11	0
1	122699	23.21	0
1	123245	23.31	0
1	123791	23.41	0
1	124337	23.51	0
1	124883	23.61	0
1	125429	23.71	0
1	125975	23.81	0
1	126521	23.91	0
1	127075	24.01	0
1	127621	24.11	0
1	128167	24.21	0
1	128713	24.31	0
1	129259	24.41	0
1	129805	24.51	0
1	130351	24.61	0
1	130897	24.71	0
1	131443	24.81	0
1	131989	24.91	0
1	132543	25.01	0
1	133089	25.11	0
1	133635	25.21	0
1	134181	25.31	0
1	134727	25.41	0
1	135273	25.51	0
1	135819	25.61	0
1	136365	25.71	0
1	136911	25.81	0
1	137457	25.91	0
1	138011	26.01	0
1	138557	26.11	0
1	139103	26.21	0
1	139649	26.31	0
1	140195	26.41	0
1	140741	26.51	0
1	141287	26.61	0
1	141833	26.71	0
1	142379	26.81	0
1	142925	26.91	0
1	143479	27.01	0
1	144025	27.11	0
1	144571	27.21	0
1	145117	27.31	0
1	145663	27.41	0
1	146209	27.51	0
1	146755	27.61	0
1	147301	27.71	0
1	147847	27.81	0
1	148393	27.91	0
1	148947	28.01	0
1	149493	28.11	0
1	150039	28.21	0
1	150585	28.31	0
1	151131	28.41	0
1	151677	28.51	0
1	152223	28.61	0
1	152769	28.71	0
1	153315	28.81	0
1	153861	28.91	0
1	154415	29.01	0
1	154961	29.11	0
1	155507	29.21	0
1	156053	29.31	0
1	156599	29.41	0
1	157145	29.51	0
1	157691	29.61	0
1	158237	29.71	0
1	158783	29.81	0
1	159329	29.91	0
1	159883	30.01	0
1	160429	30.11	0
1	160975	30.21	0
1	161521	30.31	0
1	162067	30.41	0
1	162613	30.51	0
1	163159	30.61	0
1	163705	30.71	0
1	164251	30.81	0
1	164797	30.91	0
1	165351	31.01	0
1	165897	31.11	0
1	166443	31.21	0
1	166989	31.31	0
1	167535	31.41	0
1	168081	31.51	0
1	168627	31.61	0
1	169173	31.71	0
1	169719	31.81	0
1	170265	31.91	0
1	170819	32.01	0
1	171365	32.11	0
1	171911	32.21	0
1	172457	32.31	0
1	173003	32.41	0
1	173549	32.51	0
1	174095	32.61	0
1	174641	32.71	0
1	175187	32.81	0
1	175733	32.91	0
1	176287	33.01	0
1	176833	33.11	0
1	177379	33.21	0
1	177925	33.31	0
1	178471	33.41	0
1	179017	33.51	0
1	179563	33.61	0
1	180109	33.71	0
1	180655	33.81	0
1	181201	33.91	0
1	181755	34.01	0
1	182301	34.11	0
1	182847	34.21	0
1	183393	34.31	0
1	183939	34.41	0
1	184485	34.51	0
1	185031	34.61	0
1	185577	34.71	0
1	186123	34.81	0
1	186669	34.91	0
1	187223	35.01	0
1	187769	35.11	0
1	188315	35.21	0
1	188861	35.31	0
1	189407	35.41	0
1	189953	35.51	0
1	190499	35.61	0
1	191045	35.71	0
1	191591	35.81	0
1	192137	35.91	0
1	192691	36.01	0
1	193237	36.11	0
1	193783	36.21	0
1	194329	36.31	0
1	194875	36.41	0
1	195421	36.51	0
1	195967	36.61	0
1	196513	36.71	0
1	197059	36.81	0
1	197605	36.91	0
1	198159	37.01	0
1	198705	37.11	0
1	199251	37.21	0
1	199797	37.31	0
1	200343	37.41	0
1	200889	37.51	0
1	201435	37.61	0
1	201981	37.71	0
1	202527	37.81	0
1	203073	37.91	0
1	203627	38.01	0
1	204173	38.11	0
1	204719	38.21	0
1	205265	38.31	0
1	205811	38.41	0
1	206357	38.51	0
1	206903	38.61	0
1	207449	38.71	0
1	207995	38.81	0
1	208541	38.91	0
1	209095	39.01	0
1	209641	39.11	0
1	210187	39.21	0
1	210733	39.31	0
1	211279	39.41	0
1	211825	39.51	0
1	212371	39.61	0
1	212917	39.71	0
1	213463	39.81	0
1	214009	39.91	0
1	214563	40.01	0
1	215109	40.11	0
1	215655	40.21	0
1	216201	40.31	0
1	216747	40.41	0
1	217293	40.51	0
1	217839	40.61	0
1	218385	40.71	0
1	218931	40.81	0
1	219477	40.91	0
1	220031	41.01	0
1	220577	41.11	0
1	221123	41.21	0
1	221669	41.31	0
1	222215	41.41	0
1	222761	41.51	0
1	223307	41.61	0
1	223853	41.71	0
1	224399	41.81	0
1	224945	41.91	0
1	225499	42.01	0
1	226045	42.11	0
1	226591	42.21	0
1	227137	42.31	0
1	227683	42.41	0
1	228229	42.51	0
1	228775	42.61	0
1	229321	42.71	0
1	229867	42.81	0
1	230413	42.91	0
1	230967	43.01	0
1	231513	43.11	0
1	232059	43.21	0
1	232605	43.31	0
1	233151	43.41	0
1	233697	43.51	0
1	234243	43.61	0
1	234789	43.71	0
1	235335	43.81	0
1	235881	43.91	0
1	236435	44.01	0
1	236981	44.11	0
1	237527	44.21	0
1	238073	44.31	0
1	238619	44.41	0
1	239165	44.51	0
1	239711	44.61	0
1	240257	44.71	0
1	240803	44.81	0
1	241349	44.91	0
1	241903	45.01	0
1	242449	45.11	0
1	242995	45.21	0
1	243541	45.31	0
1	244087	45.41	0
1	244633	45.51	0
1	245179	45.61	0
1	245725	45.71	0
1	246271	45.81	0
1	246817	45.91	0
1	247371	46.01	0
1	247917	46.11	0
1	248463	46.21	0
1	249009	46.31	0
1	249555	46.41	0
1	250101	46.51	0
1	250647	46.61	0
1	251193	46.71	0
1	251739	46.81	0
1	252285	46.91	0
1	252839	47.01	0
1	253385	47.11	0
1	253931	47.21	0
1	254477	47.31	0
1	255023	47.41	0
1	255569	47.51	0
1	256115	47.61	0
1	256661	47.71	0
1	257207	47.81	0
1	257753	47.91	0
1	258307	48.01	0
1	258853	48.11	0
1	259399	48.21	0
1	259945	48.31	0
1	260491	48.41	0
1	261037	48.51	0
1	261583	48.61	0
1	262129	48.71	0
1	262675	48.81	0
1	263221	48.91	0
1	263775	49.01	0
1	264321	49.11	0
1	264867	49.21	0
1	265413	49.31	0
1	265959	49.41	0
1	266505	49.51	0
1	267051	49.61	0
1	267597	49.71	0
1	268143	49.81	0
1	268689	49.91	0
1	269243	50.01	0
1	269789	50.11	0
1	270335	50.21	0
1	270881	50.31	0
1	271427	50.41	0
1	271973	50.51	0
1	272519	50.61	0
1	273065	50.71	0
1	273611	50.81	0
1	274157	50.91	2.4444
1	274711	51.01	2.4444
1	275257	51.11	2.4444
1	275803	51.21	2.4444
1	276349	51.31	2.4444
1	276895	51.41	2.4444
1	277441	51.51	2.4444
1	277987	51.61	2.4444
1	278533	51.71	2.4444
1	279079	51.81	2.4444
1	279625	51.91	2.4444
1	280179	52.01	2.4444
1	280725	52.11	2.4444
1	281271	52.21	2.4444
1	281817	52.31	2.4444
1	282363	52.41	2.4444
1	282909	52.51	2.4444
1	283455	52.61	2.4444
1	284001	52.71	2.4444
1	284547	52.81	2.4444
1	285093	52.91	2.4444
1	285647	53.01	2.4444
1	286193	53.11	2.4444
1	286739	53.21	2.4444
1	287285	53.31	2.4444
1	287831	53.41	2.4444
1	288377	53.51	2.4444
1	288923	53.61	2.4444
1	289469	53.71	2.4444
1	290015	53.81	2.4444
1	290561	53.91	2.4444
1	291115	54.01	2.4444
1	291661	54.11	2.4444
1	292207	54.21	2.4444
1	292753	54.31	2.4444
1	293299	54.41	2.4444
1	293845	54.51	2.4444
1	294391	54.61	2.4444
1	294937	54.71	2.4444
1	295483	54.81	2.4444
1	296029	54.91	2.4444
1	296583	55.01	2.4444
1	297129	55.11	2.4444
1	297675	55.21	2.4444
1	298221	55.31	2.4444
1	298767	55.41	2.4444
1	299313	55.51	2.4444
1	299859	55.61	2.4444
1	300405	55.71	2.4444
1	300951	55.81	2.4444
1	301497	55.91	2.4444
1	302051	56.01	2.4444
1	302597	56.11	2.4444
1	303143	56.21	2.4444
1	303689	56.31	2.4444
1	304235	56.41	2.4444
1	304781	56.51	2.4444
1	305327	56.61	2.4444
1	305873	56.71	2.4444
1	306419	56.81	2.4444
1	306965	56.91	2.4444
1	307519	57.01	2.4444
1	308065	57.11	2.4444
1	308611	57.21	2.4444
1	309157	57.31	2.4444
1	309703	57.41	2.4444
1	310249	57.51	2.4444
1	310795	57.61	2.4444
1	311341	57.71	2.4444
1	311887	57.81	2.4444
1	312433	57.91	2.4444
1	312987	58.01	2.4444
1	313533	58.11	2.4444
1	314079	58.21	2.4444
1	314625	58.31	2.4444
1	315171	58.41	2.4444
1	315717	58.51	2.4444
1	316263	58.61	2.4444
1	316809	58.71	2.4444
1	317355	58.81	2.4444
1	317901	58.91	2.4444
1	318455	59.01	2.4444
1	319001	59.11	2.4444
1	319547	59.21	2.4444
1	320093	59.31	2.4444
1	320639	59.41	2.4444
1	321185	59.51	2.4444
1	321731	59.61	2.4444
1	322277	59.71	2.4444
1	322823	59.81	2.4444
1	323369	59.91	2.4444
1	323923	60.01	2.4444
1	324469	60.11	2.4444
1	325015	60.21	2.4444
1	325561	60.31	2.4444
1	326107	60.41	2.4444
1	326653	60.51	2.4444
1	327199	60.61	2.4444
1	327745	60.71	2.4444
1	328291	60.81	2.4444
1	328837	60.91	2.4444
1	329391	61.01	2.4444
1	329937	61.11	2.4444
1	330483	61.21	2.4444
1	331029	61.31	2.4444
1	331575	61.41	2.4444
1	332121	61.51	2.4444
1	332667	61.61	2.4444
1	333213	61.71	2.4444
1	333759	61.81	2.4444
1	334305	61.91	2.4444
1	334859	62.01	2.4444
1	335405	62.11	2.4444
1	335951	62.21	2.4444
1	336497	62.31	2.4444
1	337043	62.41	2.4444
1	337589	62.51	2.4444
1	338135	62.61	2.4444
1	338681	62.71	2.4444
1	339227	62.81	2.4444
1	339773	62.91	2.4444
1	340327	63.01	2.4444
1	340873	63.11	2.4444
1	341419	63.21	2.4444
1	341965	63.31	2.4444
1	342511	63.41	2.4444
1	343057	63.51	2.4444
1	343603	63.61	2.4444
1	344149	63.71	2.4444
1	344695	63.81	2.4444
1	345241	63.91	2.4444
1	345795	64.01	2.4444
1	346341	64.11	2.4444
1	346887	64.21	2.4444
1	347433	64.31	2.4444
1	347979	64.41	2.4444
1	348525	64.51	2.4444
1	349071	64.61	2.4444
1	349617	64.71	2.4444
1	350163	64.81	2.4444
1	350709	64.91	2.4444
1	351263	65.01	2.4444
1	351809	65.11	2.4444
1	352355	65.21	2.4444
1	352901	65.31	2.4444
1	353447	65.41	2.4444
1	353993	65.51	2.4444
1	354539	65.61	2.4444
1	355085	65.71	2.4444
1	355631	65.81	2.4444
1	356177	65.91	2.4444
1	356731	66.01	2.4444
1	357277	66.11	2.4444
1	357823	66.21	2.4444
1	358369	66.31	2.4444
1	358915	66.41	2.4444
1	359461	66.51	2.4444
1	360007	66.61	2.4444
1	360553	66.71	2.4444
1	361099	66.81	2.4444
1	361645	66.91	2.4444
1	362199	67.01	2.4444
1	362745	67.11	2.4444
1	363291	67.21	2.4444
1	363837	67.31	2.4444
1	364383	67.41	2.4444
1	364929	67.51	2.4444
1	365475	67.61	2.4444
1	366021	67.71	2.4444
1	366567	67.81	2.4444
1	367113	67.91	2.4444
1	367667	68.01	2.4444
1	368213	68.11	2.4444
1	368759	68.21	2.4444
1	369305	68.31	2.4444
1	369851	68.41	2.4444
1	370397	68.51	2.4444
1	370943	68.61	2.4444
1	371489	68.71	2.4444
1	372035	68.81	2.4444
1	372581	68.91	2.4444
1	373135	69.01	2.4444
1	373681	69.11	2.4444
1	374227	69.21	2.4444
1	374773	69.31	2.4444
1	375319	69.41	2.4444
1	375865	69.51	2.4444
1	376411	69.61	2.4444
1	376957	69.71	2.4444
1	377503	69.81	2.4444
1	378049	69.91	2.4444
1	378603	70.01	2.4444
1	379149	70.11	2.4444
1	379695	70.21	2.4444
1	380241	70.31	2.4444
1	380787	70.41	2.4444
1	381333	70.51	2.4444
1	381879	70.61	2.4444
1	382425	70.71	2.4444
1	382971	70.81	2.4444
1	383517	70.91	2.4444
1	384071	71.01	2.4444
1	384617	71.11	2.4444
1	385163	71.21	2.4444
1	385709	71.31	2.4444
1	386255	71.41	2.4444
1	386801	71.51	2.4444
1	387347	71.61	2.4444
1	387893	71.71	2.4444
1	388439	71.81	2.4444
1	388985	71.91	2.4444
1	389539	72.01	2.4444
1	390085	72.11	2.4444
1	390631	72.21	2.4444
1	391177	72.31	2.4444
1	391723	72.41	2.4444
1	392269	72.51	2.4444
1	392815	72.61	2.4444
1	393361	72.71	2.4444
1	393907	72.81	2.4444
1	394453	72.91	2.4444
1	395007	73.01	2.4444
1	395553	73.11	2.4444
1	396099	73.21	2.4444
1	396645	73.31	2.44419
1	397191	73.41	2.44286
1	397737	73.51	2.4405
1	398283	73.61	2.43734
1	398829	73.71	2.43358
1	399375	73.81	2.42939
1	399921	73.91	2.42492
1	400475	74.01	2.4203
1	401021	74.11	2.41563
1	401567	74.21	2.41101
1	402113	74.31	2.40651
1	402659	74.41	2.40218
1	403205	74.51	2.39808
1	403751	74.61	2.39425
1	404297	74.71	2.39069
1	404843	74.81	2.38744
1	405389	74.91	2.38449
1	405943	75.01	2.38186
1	406489	75.11	2.37954
1	407035	75.21	2.37751
1	407581	75.31	2.37578
1	408127	75.41	2.37433
1	408673	75.51	2.37314
1	409219	75.61	2.3722
1	409765	75.71	2.37149
1	410311	75.81	2.37098
1	410857	75.91	2.37067
1	411411	76.01	2.37053
1	411957	76.11	2.37055
1	412503	76.21	2.3707
1	413049	76.31	2.37098
1	413595	76.41	2.37136
1	414141	76.51	2.37184
1	414687	76.61	2.37239
1	415233	76.71	2.37301
1	415779	76.81	2.37369
1	416325	76.91	2.37441
1	416879	77.01	2.37516
1	417425	77.11	2.37594
1	417971	77.21	2.37674
1	418517	77.31	2.37754
1	419063	77.41	2.37836
1	419609	77.51	2.37918
1	420155	77.61	2.37999
1	420701	77.71	2.3808
1	421247	77.81	2.3816
1	421793	77.91	2.38239
1	422347	78.01	2.38316
1	422893	78.11	2.38393
1	423439	78.21	2.38467
1	423985	78.31	2.3854
1	424531	78.41	2.38611
1	425077	78.51	2.38681
1	425623	78.61	2.38749
1	426169	78.71	2.38815
1	426715	78.81	2.38879
1	427261	78.91	2.38942
1	427815	79.01	2.39004
1	428361	79.11	2.39064
1	428907	79.21	2.39122
1	429453	79.31	2.3918
1	429999	79.41	2.39236
1	430545	79.51	2.39291
1	431091	79.61	2.39344
1	431637	79.71	2.39397
1	432183	79.81	2.39449
1	432729	79.91	2.395
1	433283	80.01	2.39549
1	433829	80.11	2.39598
1	434375	80.21	2.39647
1	434921	80.31	2.39694
1	435467	80.41	2.39741
1	436013	80.51	2.39788
1	436559	80.61	2.39833
1	437105	80.71	2.39879
1	437651	80.81	2.39923
1	438197	80.91	2.39967
1	438751	81.01	2.40011
1	439297	81.11	2.40054
1	439843	81.21	2.40097
1	440389	81.31	2.40139
1	440935	81.41	2.40181
1	441481	81.51	2.40223
1	442027	81.61	2.40264
1	442573	81.71	2.40305
1	443119	81.81	2.40345
1	443665	81.91	2.40385
1	444219	82.01	2.40425
1	444765	82.11	2.40464
1	445311	82.21	2.40503
1	445857	82.31	2.40541
1	446403	82.41	2.4058
1	446949	82.51	2.40617
1	447495	82.61	2.40655
1	448041	82.71	2.40692
1	448587	82.81	2.40729
1	449133	82.91	2.40766
1	449687	83.01	2.40802
1	450233	83.11	2.40838
1	450779	83.21	2.40873
1	451325	83.31	2.40908
1	451871	83.41	2.40943
1	452417	83.51	2.40978
1	452963	83.61	2.41012
1	453509	83.71	2.41046
1	454055	83.81	2.41079
1	454601	83.91	2.41112
1	455155	84.01	2.41145
1	455701	84.11	2.41178
1	456247	84.21	2.4121
1	456793	84.31	2.41242
1	457339	84.41	2.41274
1	457885	84.51	2.41305
1	458431	84.61	2.41336
1	458977	84.71	2.41367
1	459523	84.81	2.41397
1	460069	84.91	2.41427
1	460623	85.01	2.41457
1	461169	85.11	2.41487
1	461715	85.21	2.41516
1	462261	85.31	2.41545
1	462807	85.41	2.41573
1	463353	85.51	2.41602
1	463899	85.61	2.4163
1	464445	85.71	2.41657
1	464991	85.81	2.41685
1	465537	85.91	2.41712
1	466091	86.01	2.41739
1	466637	86.11	2.41766
1	467183	86.21	2.41792
1	467729	86.31	2.41819
1	468275	86.41	2.41844
1	468821	86.51	2.4187
1	469367	86.61	2.41895
1	469913	86.71	2.41921
1	470459	86.81	2.41946
1	471005	86.91	2.4197
1	471559	87.01	2.41995
1	472105	87.11	2.42019
1	472651	87.21	2.42043
1	473197	87.31	2.42066
1	473743	87.41	2.4209
1	474289	87.51	2.42113
1	474835	87.61	2.42136
1	475381	87.71	2.42159
1	475927	87.81	2.42181
1	476473	87.91	2.42204
1	477027	88.01	2.42226
1	477573	88.11	2.42248
1	478119	88.21	2.42269
1	478665	88.31	2.42291
1	479211	88.41	2.42312
1	479757	88.51	2.42333
1	480303	88.61	2.42354
1	480849	88.71	2.42375
1	481395	88.81	2.42395
1	481941	88.91	2.42415
1	482495	89.01	2.42435
1	483041	89.11	2.42455
1	483587	89.21	2.42475
1	484133	89.31	2.42494
1	484679	89.41	2.42513
1	485225	89.51	2.42532
1	485771	89.61	2.42551
1	486317	89.71	2.4257
1	486863	89.81	2.42588
1	487409	89.91	2.42607
1	487963	90.01	2.42625
1	488509	90.11	2.42643
1	489055	90.21	2.4266
1	489601	90.31	2.42678
1	490147	90.41	2.42695
1	490693	90.51	2.42713
1	491239	90.61	2.4273
1	491785	90.71	2.42747
1	492331	90.81	2.42763
1	492877	90.91	2.4278
1	493431	91.01	2.42796
1	493977	91.11	2.42813
1	494523	91.21	2.42829
1	495069	91.31	2.42845
1	495615	91.41	2.4286
1	496161	91.51	2.42876
1	496707	91.61	2.42891
1	497253	91.71	2.42907
1	497799	91.81	2.42922
1	498345	91.91	2.42937
1	498899	92.01	2.42952
1	499445	92.11	2.42966
1	499991	92.21	2.42981
1	500537	92.31	2.42995
1	501083	92.41	2.4301
1	501629	92.51	2.43024
1	502175	92.61	2.43038
1	502721	92.71	2.43052
1	503267	92.81	2.43065
1	503813	92.91	2.43079
1	504367	93.01	2.43092
1	504913	93.11	2.43106
1	505459	93.21	2.43119
1	506005	93.31	2.43132
1	506551	93.41	2.43145
1	507097	93.51	2.43158
1	507643	93.61	2.4317
1	508189	93.71	2.43183
1	508735	93.81	2.43195
1	509281	93.91	2.43208
1	509835	94.01	2.4322
1	510381	94.11	2.43232
1	510927	94.21	2.43244
1	511473	94.31	2.43256
1	512019	94.41	2.43267
1	512565	94.51	2.43279
1	513111	94.61	2.4329
1	513657	94.71	2.43302
1	514203	94.81	2.43313
1	514749	94.91	2.43324
1	515303	95.01	2.43335
1	515849	95.11	2.43346
1	516395	95.21	2.43357
1	516941	95.31	2.43368
1	517487	95.41	2.43378
1	518033	95.51	2.43389
1	518579	95.61	2.43399
1	519125	95.71	2.43409
1	519671	95.81	2.4342
1	520217	95.91	2.4343
1	520771	96.01	2.4344
1	521317	96.11	2.4345
1	521863	96.21	2.43459
1	522409	96.31	2.43469
1	522955	96.41	2.43479
1	523501	96.51	2.43488
1	524047	96.61	2.43498
1	524593	96.71	2.43507
1	525139	96.81	2.43516
1	525685	96.91	2.43525
1	526239	97.01	2.43534
1	526785	97.11	2.43543
1	527331	97.21	2.43552
1	527877	97.31	2.43561
1	528423	97.41	2.4357
1	528969	97.51	2.43578
1	529515	97.61	2.43587
1	530061	97.71	2.43595
1	530607	97.81	2.43603
1	531153	97.91	2.43612
1	531707	98.01	2.4362
1	532253	98.11	2.43628
1	532799	98.21	2.43636
1	533345	98.31	2.43644
1	533891	98.41	2.43652
1	534437	98.51	2.4366
1	534983	98.61	2.43667
1	535529	98.71	2.43675
1	536075	98.81	2.43683
1	536621	98.91	2.4369
1	537175	99.01	0.447304
1	537721	99.11	0.457261
1	538267	99.21	0.472839
1	538813	99.31	0.492699
1	539359	99.41	0.515666
1	539905	99.51	0.540723
1	540451	99.61	0.566995
1	540997	99.71	0.593742
1	541543	99.81	0.620343
1	542089	99.91	0.646289
2	113	1.11	0
2	659	1.21	0
2	1205	1.31	0
2	1751	1.41	0
2	2297	1.51	0
2	2843	1.61	0
2	3389	1.71	0
2	3935	1.81	0
2	4481	1.91	0
2	5035	2.01	0
2	5581	2.11	0
2	6127	2.21	0
2	6673	2.31	0
2	7219	2.41	0
2	7765	2.51	0
2	8311	2.61	0
2	8857	2.71	0
2	9403	2.81	0
2	9949	2.91	0
2	10503	3.01	0
2	11049	3.11	0
2	11595	3.21	0
2	12141	3.31	0
2	12687	3.41	0
2	13233	3.51	0
2	13779	3.61	0
2	14325	3.71	0
2	14871	3.81	0
2	15417	3.91	0
2	15971	4.01	0
2	16517	4.11	0
2	17063	4.21	0
2	17609	4.31	0
2	18155	4.41	0
2	18701	4.51	0
2	19247	4.61	0
2	19793	4.71	0
2	20339	4.81	0
2	20885	4.91	0
2	21439	5.01	0
2	21985	5.11	0
2	22531	5.21	0
2	23077	5.31	0
2	23623	5.41	0
2	24169	5.51	0
2	24715	5.61	0
2	25261	5.71	0
2	25807	5.81	0
2	26353	5.91	0
2	26907	6.01	0
2	27453	6.11	0
2	27999	6.21	0
2	28545	6.31	0
2	29091	6.41	0
2	29637	6.51	0
2	30183	6.61	0
2	30729	6.71	0
2	31275	6.81	0
2	31821	6.91	0
2	32375	7.01	0
2	32921	7.11	0
2	33467	7.21	0
2	34013	7.31	0
2	34559	7.41	0
2	35105	7.51	0
2	35651	7.61	0
2	36197	7.71	0
2	36743	7.81	0
2	37289	7.91	0
2	37843	8.01	0
2	38389	8.11	0
2	38935	8.21	0
2	39481	8.31	0
2	40027	8.41	0
2	40573	8.51	0
2	41119	8.61	0
2	41665	8.71	0
2	42211	8.81	0
2	42757	8.91	0
2	43311	9.01	0
2	43857	9.11	0
2	44403	9.21	0
2	44949	9.31	0
2	45495	9.41	0
2	46041	9.51	0
2	46587	9.61	0
2	47133	9.71	0
2	47679	9.81	0
2	48225	9.91	0
2	50523	10.01	0
2	51069	10.11	0
2	51615	10.21	0
2	52161	10.31	0
2	52707	10.41	0
2	53253	10.51	0
2	53799	10.61	0
2	54345	10.71	0
2	54891	10.81	0
2	55437	10.91	0
2	55991	11.01	0
2	56537	11.11	0
2	57083	11.21	0
2	57629	11.31	0
2	58175	11.41	0
2	58721	11.51	0
2	59267	11.61	0
2	59813	11.71	0
2	60359	11.81	0
2	60905	11.91	0
2	61459	12.01	0
2	62005	12.11	0
2	62551	12.21	0
2	63097	12.31	0
2	63643	12.41	0
2	64189	12.51	0
2	64735	12.61	0
2	65281	12.71	0
2	65827	12.81	0
2	66373	12.91	0
2	66927	13.01	0
2	67473	13.11	0
2	68019	13.21	0
2	68565	13.31	0
2	69111	13.41	0
2	69657	13.51	0
2	70203	13.61	0
2	70749	13.71	0
2	71295	13.81	0
2	71841	13.91	0
2	72395	14.01	0
2	72941	14.11	0
2	73487	14.21	0
2	74033	14.31	0
2	74579	14.41	0
2	75125	14.51	0
2	75671	14.61	0
2	76217	14.71	0
2	76763	14.81	0
2	77309	14.91	0
2	77863	15.01	0
2	78409	15.11	0
2	78955	15.21	0
2	79501	15.31	0
2	80047	15.41	0
2	80593	15.51	0
2	81139	15.61	0
2	81685	15.71	0
2	82231	15.81	0
2	82777	15.91	0
2	83331	16.01	0
2	83877	16.11	0
2	84423	16.21	0
2	84969	16.31	0
2	85515	16.41	0
2	86061	16.51	0
2	86607	16.61	0
2	87153	16.71	0
2	87699	16.81	0
2	88245	16.91	0
2	88799	17.01	0
2	89345	17.11	0
2	89891	17.21	0
2	90437	17.31	0
2	90983	17.41	0
2	91529	17.51	0
2	92075	17.61	0
2	92621	17.71	0
2	93167	17.81	0
2	93713	17.91	0
2	94267	18.01	0
2	94813	18.11	0
2	95359	18.21	0
2	95905	18.31	0
2	96451	18.41	0
2	96997	18.51	0
2	97543	18.61	0
2	98089	18.71	0
2	98635	18.81	0
2	99181	18.91	0
2	99735	19.01	0
2	100281	19.11	0
2	100827	19.21	0
2	101373	19.31	0
2	101919	19.41	0
2	102465	19.51	0
2	103011	19.61	0
2	103557	19.71	0
2	104103	19.81	0
2	104649	19.91	0
2	105203	20.01	0
2	105749	20.11	0
2	106295	20.21	0
2	106841	20.31	0
2	107387	20.41	0
2	107933	20.51	0
2	108479	20.61	0
2	109025	20.71	0
2	109571	20.81	0
2	110117	20.91	0
2	110671	21.01	0
2	111217	21.11	0
2	111763	21.21	0
2	112309	21.31	0
2	112855	21.41	0
2	113401	21.51	0
2	113947	21.61	0
2	114493	21.71	0
2	115039	21.81	0
2	115585	21.91	0
2	116139	22.01	0
2	116685	22.11	0
2	117231	22.21	0
2	117777	22.31	0
2	118323	22.41	0
2	118869	22.51	0
2	119415	22.61	0
2	119961	22.71	0
2	120507	22.81	0
2	121053	22.91	0
2	121607	23.01	0
2	122153	23.11	0
2	122699	23.21	0
2	123245	23.31	0
2	123791	23.41	0
2	124337	23.51	0
2	124883	23.61	0
2	125429	23.71	0
2	125975	23.81	0
2	126521	23.91	0
2	127075	24.01	0
2	127621	24.11	0
2	128167	24.21	0
2	128713	24.31	0
2	129259	24.41	0
2	129805	24.51	0
2	130351	24.61	0
2	130897	24.71	0
2	131443	24.81	0
2	131989	24.91	0
2	132543	25.01	0
2	133089	25.11	0
2	133635	25.21	0
2	134181	25.31	0
2	134727	25.41	0
2	135273	25.51	0
2	135819	25.61	0
2	136365	25.71	0
2	136911	25.81	0
2	137457	25.91	0
2	138011	26.01	0
2	138557	26.11	0
2	139103	26.21	0
2	139649	26.31	0
2	140195	26.41	0
2	140741	26.51	0
2	141287	26.61	0
2	141833	26.71	0
2	142379	26.81	0
2	142925	26.91	0
2	143479	27.01	0
2	144025	27.11	0
2	144571	27.21	0
2	145117	27.31	0
2	145663	27.41	0
2	146209	27.51	0
2	146755	27.61	0
2	147301	27.71	0
2	147847	27.81	0
2	148393	27.91	0
2	148947	28.01	0
2	149493	28.11	0
2	150039	28.21	0
2	150585	28.31	0
2	151131	28.41	0
2	151677	28.51	0
2	152223	28.61	0
2	152769	28.71	0
2	153315	28.81	0
2	153861	28.91	0
2	154415	29.01	0
2	154961	29.11	0
2	155507	29.21	0
2	156053	29.31	0
2	156599	29.41	0
2	157145	29.51	0
2	157691	29.61	0
2	158237	29.71	0
2	158783	29.81	0
2	159329	29.91	0
2	159883	30.01	0
2	160429	30.11	0
2	160975	30.21	0
2	161521	30.31	0
2	162067	30.41	0
2	162613	30.51	0
2	163159	30.61	0
2	163705	30.71	0
2	164251	30.81	0
2	164797	30.91	0
2	165351	31.01	0
2	165897	31.11	0
2	166443	31.21	0
2	166989	31.31	0
2	167535	31.41	0
2	168081	31.51	0
2	168627	31.61	0
2	169173	31.71	0
2	169719	31.81	0
2	170265	31.91	0
2	170819	32.01	0
2	171365	32.11	0
2	171911	32.21	0
2	172457	32.31	0
2	173003	32.41	0
2	173549	32.51	0
2	174095	32.61	0
2	174641	32.71	0
2	175187	32.81	0
2	175733	32.91	0
2	176287	33.01	0
2	176833	33.11	0
2	177379	33.21	0
2	177925	33.31	0
2	178471	33.41	0
2	179017	33.51	0
2	179563	33.61	0
2	180109	33.71	0
2	180655	33.81	0
2	181201	33.91	0
2	181755	34.01	0
2	182301	34.11	0
2	182847	34.21	0
2	183393	34.31	0
2	183939	34.41	0
2	184485	34.51	0
2	185031	34.61	0
2	185577	34.71	0
2	186123	34.81	0
2	186669	34.91	0
2	187223	35.01	0
2	187769	35.11	0
2	188315	35.21	0
2	188861	35.31	0
2	189407	35.41	0
2	189953	35.51	0
2	190499	35.61	0
2	191045	35.71	0
2	191591	35.81	0
2	192137	35.91	0
2	192691	36.01	0
2	193237	36.11	0
2	193783	36.21	0
2	194329	36.31	0
2	194875	36.41	0
2	195421	36.51	0
2	195967	36.61	0
2	196513	36.71	0
2	197059	36.81	0
2	197605	36.91	0
2	198159	37.01	0
2	198705	37.11	0
2	199251	37.21	0
2	199797	37.31	0
2	200343	37.41	0
2	200889	37.51	0
2	201435	37.61	0
2	201981	37.71	0
2	202527	37.81	0
2	203073	37.91	0
2	203627	38.01	0
2	204173	38.11	0
2	204719	38.21	0
2	205265	38.31	0
2	205811	38.41	0
2	206357	38.51	0
2	206903	38.61	0
2	207449	38.71	0
2	207995	38.81	0
2	208541	38.91	0
2	209095	39.01	0
2	209641	39.11	0
2	210187	39.21	0
2	210733	39.31	0
2	211279	39.41	0
2	211825	39.51	0
2	212371	39.61	0
2	212917	39.71	0
2	213463	39.81	0
2	214009	39.91	0
2	214563	40.01	0
2	215109	40.11	0
2	215655	40.21	0
2	216201	40.31	0
2	216747	40.41	0
2	217293	40.51	0
2	217839	40.61	0
2	218385	40.71	0
2	218931	40.81	0
2	219477	40.91	0
2	220031	41.01	0
2	220577	41.11	0
2	221123	41.21	0
2	221669	41.31	0
2	222215	41.41	0
2	222761	41.51	0
2	223307	41.61	0
2	223853	41.71	0
2	224399	41.81	0
2	224945	41.91	0
2	225499	42.01	0
2	226045	42.11	0
2	226591	42.21	0
2	227137	42.31	0
2	227683	42.41	0
2	228229	42.51	0
2	228775	42.61	0
2	229321	42.71	0
2	229867	42.81	0
2	230413	42.91	0
2	230967	43.01	0
2	231513	43.11	0
2	232059	43.21	0
2	232605	43.31	0
2	233151	43.41	0
2	233697	43.51	0
2	234243	43.61	0
2	234789	43.71	0
2	235335	43.81	0
2	235881	43.91	0
2	236435	44.01	0
2	236981	44.11	0
2	237527	44.21	0
2	238073	44.31	0
2	238619	44.41	0
2	239165	44.51	0
2	239711	44.61	0
2	240257	44.71	0
2	240803	44.81	0
2	241349	44.91	0
2	241903	45.01	0
2	242449	45.11	0
2	242995	45.21	0
2	243541	45.31	0
2	244087	45.41	0
2	244633	45.51	0
2	245179	45.61	0
2	245725	45.71	0
2	246271	45.81	0
2	246817	45.91	0
2	247371	46.01	0
2	247917	46.11	0
2	248463	46.21	0
2	249009	46.31	0
2	249555	46.41	0
2	250101	46.51	0
2	250647	46.61	0
2	251193	46.71	0
2	251739	46.81	0
2	252285	46.91	0
2	252839	47.01	0
2	253385	47.11	0
2	253931	47.21	0
2	254477	47.31	0
2	255023	47.41	0
2	255569	47.51	0
2	256115	47.61	0
2	256661	47.71	0
2	257207	47.81	0
2	257753	47.91	0
2	258307	48.01	0
2	258853	48.11	0
2	259399	48.21	0
2	259945	48.31	0
2	260491	48.41	0
2	261037	48.51	0
2	261583	48.61	0
2	262129	48.71	0
2	262675	48.81	0
2	263221	48.91	0
2	263775	49.01	0
2	264321	49.11	0
2	264867	49.21	0
2	265413	49.31	0
2	265959	49.41	0
2	266505	49.51	0
2	267051	49.61	0
2	267597	49.71	0
2	268143	49.81	0
2	268689	49.91	0
2	269243	50.01	0
2	269789	50.11	0
2	270335	50.21	0
2	270881	50.31	0
2	271427	50.41	0
2	271973	50.51	0
2	272519	50.61	0
2	273065	50.71	0
2	273611	50.81	0
2	274157	50.91	0
2	274711	51.01	0
2	275257	51.11	0
2	275803	51.21	0
2	276349	51.31	0
2	276895	51.41	0
2	277441	51.51	0
2	277987	51.61	0
2	278533	51.71	0
2	279079	51.81	0
2	279625	51.91	0
2	280179	52.01	0
2	280725	52.11	0
2	281271	52.21	0
2	281817	52.31	0
2	282363	52.41	0
2	282909	52.51	0
2	283455	52.61	0
2	284001	52.71	0
2	284547	52.81	0
2	285093	52.91	0
2	285647	53.01	0
2	286193	53.11	0
2	286739	53.21	0
2	287285	53.31	0
2	287831	53.41	0
2	288377	53.51	0
2	288923	53.61	0
2	289469	53.71	0
2	290015	53.81	0
2	290561	53.91	0
2	291115	54.01	0
2	291661	54.11	0
2	292207	54.21	0
2	292753	54.31	0
2	293299	54.41	0
2	293845	54.51	0
2	294391	54.61	0
2	294937	54.71	0
2	295483	54.81	0
2	296029	54.91	0
2	296583	55.01	0
2	297129	55.11	0
2	297675	55.21	0
2	298221	55.31	0
2	298767	55.41	0
2	299313	55.51	0
2	299859	55.61	0
2	300405	55.71	0
2	300951	55.81	0
2	301497	55.91	0
2	302051	56.01	0
2	302597	56.11	0
2	303143	56.21	0
2	303689	56.31	0
2	304235	56.41	0
2	304781	56.51	0
2	305327	56.61	0
2	305873	56.71	0
2	306419	56.81	0
2	306965	56.91	0
2	307519	57.01	0
2	308065	57.11	0
2	308611	57.21	0
2	309157	57.31	0
2	309703	57.41	0
2	310249	57.51	0
2	310795	57.61	0
2	311341	57.71	0
2	311887	57.81	0
2	312433	57.91	0
2	312987	58.01	0
2	313533	58.11	0
2	314079	58.21	0
2	314625	58.31	0
2	315171	58.41	0
2	315717	58.51	0
2	316263	58.61	0
2	316809	58.71	0
2	317355	58.81	0
2	317901	58.91	0
2	318455	59.01	0
2	319001	59.11	0
2	319547	59.21	0
2	320093	59.31	0
2	320639	59.41	0
2	321185	59.51	0
2	321731	59.61	0
2	322277	59.71	0
2	322823	59.81	0
2	323369	59.91	0
2	323923	60.01	0
2	324469	60.11	0
2	325015	60.21	0
2	325561	60.31	0
2	326107	60.41	0
2	326653	60.51	0
2	327199	60.61	0
2	327745	60.71	0
2	328291	60.81	0
2	328837	60.91	0
2	329391	61.01	0
2	329937	61.11	0
2	330483	61.21	0
2	331029	61.31	0
2	331575	61.41	0
2	332121	61.51	0
2	332667	61.61	0
2	333213	61.71	0
2	333759	61.81	0
2	334305	61.91	0
2	334859	62.01	0
2	335405	62.11	0
2	335951	62.21	0
2	336497	62.31	0
2	337043	62.41	0
2	337589	62.51	0
2	338135	62.61	0
2	338681	62.71	0
2	339227	62.81	0
2	339773	62.91	0
2	340327	63.01	0
2	340873	63.11	0
2	341419	63.21	0
2	341965	63.31	0
2	342511	63.41	0
2	343057	63.51	0
2	343603	63.61	0
2	344149	63.71	0
2	344695	63.81	0
2	345241	63.91	0
2	345795	64.01	0
2	346341	64.11	0
2	346887	64.21	0
2	347433	64.31	0
2	347979	64.41	0
2	348525	64.51	0
2	349071	64.61	0
2	349617	64.71	0
2	350163	64.81	0
2	350709	64.91	0
2	351263	65.01	0
2	351809	65.11	0
2	352355	65.21	0
2	352901	65.31	0
2	353447	65.41	0
2	353993	65.51	0
2	354539	65.61	0
2	355085	65.71	0
2	355631	65.81	0
2	356177	65.91	0
2	356731	66.01	0
2	357277	66.11	0
2	357823	66.21	0
2	358369	66.31	0
2	358915	66.41	0
2	359461	66.51	0
2	360007	66.61	0
2	360553	66.71	0
2	361099	66.81	0
2	361645	66.91	0
2	362199	67.01	0
2	362745	67.11	0
2	363291	67.21	0
2	363837	67.31	0
2	364383	67.41	0
2	364929	67.51	0
2	365475	67.61	0
2	366021	67.71	0
2	366567	67.81	0
2	367113	67.91	0
2	367667	68.01	0
2	368213	68.11	0
2	368759	68.21	0
2	369305	68.31	0
2	369851	68.41	0
2	370397	68.51	0
2	370943	68.61	0
2	371489	68.71	0
2	372035	68.81	0
2	372581	68.91	0
2	373135	69.01	0
2	373681	69.11	0
2	374227	69.21	0
2	374773	69.31	0
2	375319	69.41	0
2	375865	69.51	0
2	376411	69.61	0
2	376957	69.71	0
2	377503	69.81	0
2	378049	69.91	0
2	378603	70.01	0
2	379149	70.11	0
2	379695	70.21	0
2	380241	70.31	0
2	380787	70.41	0
2	381333	70.51	0
2	381879	70.61	0
2	382425	70.71	0
2	382971	70.81	0
2	383517	70.91	0
2	384071	71.01	0
2	384617	71.11	0
2	385163	71.21	0
2	385709	71.31	0
2	386255	71.41	0
2	386801	71.51	0
2	387347	71.61	0
2	387893	71.71	0
2	388439	71.81	0
2	388985	71.91	0
2	389539	72.01	0
2	390085	72.11	0
2	390631	72.21	0
2	391177	72.31	0
2	391723	72.41	0
2	392269	72.51	0
2	392815	72.61	0
2	393361	72.71	0
2	393907	72.81	0
2	394453	72.91	0
2	395007	73.01	0
2	395553	73.11	0
2	396099	73.21	0
2	396645	73.31	0
2	397191	73.41	0
2	397737	73.51	0
2	398283	73.61	0
2	398829	73.71	0
2	399375	73.81	0
2	399921	73.91	0
2	400475	74.01	0
2	401021	74.11	0
2	401567	74.21	0
2	402113	74.31	0
2	402659	74.41	0
2	403205	74.51	0
2	403751	74.61	0
2	404297	74.71	0
2	404843	74.81	0
2	405389	74.91	0
2	405943	75.01	0
2	406489	75.11	0
2	407035	75.21	0
2	407581	75.31	0
2	408127	75.41	0
2	408673	75.51	0
2	409219	75.61	0
2	409765	75.71	0
2	410311	75.81	0
2	410857	75.91	0
2	411411	76.01	0
2	411957	76.11	0
2	412503	76.21	0
2	413049	76.31	0
2	413595	76.41	0
2	414141	76.51	0
2	414687	76.61	0
2	415233	76.71	0
2	415779	76.81	0
2	416325	76.91	0
2	416879	77.01	0
2	417425	77.11	0
2	417971	77.21	0
2	418517	77.31	0
2	419063	77.41	0
2	419609	77.51	0
2	420155	77.61	0
2	420701	77.71	0
2	421247	77.81	0
2	421793	77.91	0
2	422347	78.01	0
2	422893	78.11	0
2	423439	78.21	0
2	423985	78.31	0
2	424531	78.41	0
2	425077	78.51	0
2	425623	78.61	0
2	426169	78.71	0
2	426715	78.81	0
2	427261	78.91	0
2	427815	79.01	0
2	428361	79.11	0
2	428907	79.21	0
2	429453	79.31	0
2	429999	79.41	0
2	430545	79.51	0
2	431091	79.61	0
2	431637	79.71	0
2	432183	79.81	0
2	432729	79.91	0
2	433283	80.01	0
2	433829	80.11	0
2	434375	80.21	0
2	434921	80.31	0
2	435467	80.41	0
2	436013	80.51	0
2	436559	80.61	0
2	437105	80.71	0
2	437651	80.81	0
2	438197	80.91	0
2	438751	81.01	0
2	439297	81.11	0
2	439843	81.21	0
2	440389	81.31	0
2	440935	81.41	0
2	441481	81.51	0
2	442027	81.61	0
2	442573	81.71	0
2	443119	81.81	0
2	443665	81.91	0
2	444219	82.01	0
2	444765	82.11	0
2	445311	82.21	0
2	445857	82.31	0
2	446403	82.41	0
2	446949	82.51	0
2	447495	82.61	0
2	448041	82.71	0
2	448587	82.81	0
2	449133	82.91	0
2	449687	83.01	0
2	450233	83.11	0
2	450779	83.21	0
2	451325	83.31	0
2	451871	83.41	0
2	452417	83.51	0
2	452963	83.61	0
2	453509	83.71	0
2	454055	83.81	0
2	454601	83.91	0
2	455155	84.01	0
2	455701	84.11	0
2	456247	84.21	0
2	456793	84.31	0
2	457339	84.41	0
2	457885	84.51	0
2	458431	84.61	0
2	458977	84.71	0
2	459523	84.81	0
2	460069	84.91	0
2	460623	85.01	0
2	461169	85.11	0
2	461715	85.21	0
2	462261	85.31	0
2	462807	85.41	0
2	463353	85.51	0
2	463899	85.61	0
2	464445	85.71	0
2	464991	85.81	0
2	465537	85.91	0
2	466091	86.01	0
2	466637	86.11	0
2	467183	86.21	0
2	467729	86.31	0
2	468275	86.41	0
2	468821	86.51	0
2	469367	86.61	0
2	469913	86.71	0
2	470459	86.81	0
2	471005	86.91	0
2	471559	87.01	0
2	472105	87.11	0
2	472651	87.21	0
2	473197	87.31	0
2	473743	87.41	0
2	474289	87.51	0
2	474835	87.61	0
2	475381	87.71	0
2	475927	87.81	0
2	476473	87.91	0
2	477027	88.01	0
2	477573	88.11	0
2	478119	88.21	0
2	478665	88.31	0
2	479211	88.41	0
2	479757	88.51	0
2	480303	88.61	0
2	480849	88.71	0
2	481395	88.81	0
2	481941	88.91	0
2	482495	89.01	0
2	483041	89.11	0
2	483587	89.21	0
2	484133	89.31	0
2	484679	89.41	0
2	485225	89.51	0
2	485771	89.61	0
2	486317	89.71	0
2	486863	89.81	0
2	487409	89.91	0
2	487963	90.01	0
2	488509	90.11	0
2	489055	90.21	0
2	489601	90.31	0
2	490147	90.41	0
2	490693	90.51	0
2	491239	90.61	0
2	491785	90.71	0
2	492331	90.81	0
2	492877	90.91	0
2	493431	91.01	0
2	493977	91.11	0
2	494523	91.21	0
2	495069	91.31	0
2	495615	91.41	0
2	496161	91.51	0
2	496707	91.61	0
2	497253	91.71	0
2	497799	91.81	0
2	498345	91.91	0
2	498899	92.01	0
2	499445	92.11	0
2	499991	92.21	0
2	500537	92.31	0
2	501083	92.41	0
2	501629	92.51	0
2	502175	92.61	0
2	502721	92.71	0
2	503267	92.81	0
2	503813	92.91	0
2	504367	93.01	0
2	504913	93.11	0
2	505459	93.21	0
2	506005	93.31	0
2	506551	93.41	0
2	507097	93.51	0
2	507643	93.61	0
2	508189	93.71	0
2	508735	93.81	0
2	509281	93.91	0
2	509835	94.01	0
2	510381	94.11	0
2	510927	94.21	0
2	511473	94.31	0
2	512019	94.41	0
2	512565	94.51	0
2	513111	94.61	0
2	513657	94.71	0
2	514203	94.81	0
2	514749	94.91	0
2	515303	95.01	0
2	515849	95.11	0
2	516395	95.21	0
2	516941	95.31	0
2	517487	95.41	0
2	518033	95.51	0
2	518579	95.61	0
2	519125	95.71	0
2	519671	95.81	0
2	520217	95.91	0
2	520771	96.01	0
2	521317	96.11	0
2	521863	96.21	0
2	522409	96.31	0
2	522955	96.41	0
2	523501	96.51	0
2	524047	96.61	0
2	524593	96.71	0
2	525139	96.81	0
2	525685	96.91	0
2	526239	97.01	0
2	526785	97.11	0
2	527331	97.21	0
2	527877	97.31	0
2	528423	97.41	0
2	528969	97.51	0
2	529515	97.61	0
2	530061	97.71	0
2	530607	97.81	0
2	531153	97.91	0
2	531707	98.01	0
2	532253	98.11	0
2	532799	98.21	0
2	533345	98.31	0
2	533891	98.41	0
2	534437	98.51	0
2	534983	98.61	0
2	535529	98.71	0
2	536075	98.81	0
2	536621	98.91	0
2	537175	99.01	0
2	537721	99.11	0
2	538267	99.21	0
2	538813	99.31	0
2	539359	99.41	0
2	539905	99.51	0
2	540451	99.61	0
2	540997	99.71	0
2	541543	99.81	0
2	542089	99.91	0
3	113	1.11	-0.000716383
3	659	1.21	-0.00136341
3	1205	1.31	-0.00186974
3	1751	1.41	-0.00225157
3	2297	1.51	-0.00252443
3	2843	1.61	-0.00270298
3	3389	1.71	-0.00280098
3	3935	1.81	-0.00283113
3	4481	1.91	-0.00280509
3	5035	2.01	-0.00273342
3	5581	2.11	-0.00262559
3	6127	2.21	-0.00249005
3	6673	2.31	-0.00233419
3	7219	2.41	-0.00216447
3	7765	2.51	-0.00198642
3	8311	2.61	-0.00180472
3	8857	2.71	-0.0016233
3	9403	2.81	-0.00144536
3	9949	2.91	-0.00127346
3	10503	3.01	-0.0011096
3	11049	3.11	-0.000955278
3	11595	3.21	-0.000811546
3	12141	3.31	-0.00067908
3	12687	3.41	-0.000558232
3	13233	3.51	-0.000449082
3	13779	3.61	-0.000351487
3	14325	3.71	-0.00026512
3	14871	3.81	-0.000189514
3	15417	3.91	-0.000124092
3	15971	4.01	-6.81972e-05
3	16517	4.11	-2.11209e-05
3	17063	4.21	1.78769e-05
3	17609	4.31	4.9548e-05
3	18155	4.41	7.46407e-05
3	18701	4.51	9.38867e-05
3	19247	4.61	0.000107991
3	19793	4.71	0.000117625
3	20339	4.81	0.000123418
3	20885	4.91	0.000125957
3	21439	5.01	0.000125781
3	21985	5.11	0.00012338
3	22531	5.21	0.000119198
3	23077	5.31	0.000113629
3	23623	5.41	0.000107022
3	24169	5.51	9.96832e-05
3	24715	5.61	9.18747e-05
3	25261	5.71	8.38211e-05
3	25807	5.81	7.57109e-05
3	26353	5.91	6.76999e-05
3	26907	6.01	5.99137e-05
3	27453	6.11	5.24518e-05
3	27999	6.21	4.53896e-05
3	28545	6.31	3.87821e-05
3	29091	6.41	3.2666e-05
3	29637	6.51	2.70628e-05
3	30183	6.61	2.19809e-05
3	30729	6.71	1.74176e-05
3	31275	6.81	1.33618e-05
3	31821	6.91	9.79494e-06
3	32375	7.01	6.6932e-06
3	32921	7.11	4.02864e-06
3	33467	7.21	1.77051e-06
3	34013	7.31	-1.13691e-07
3	34559	7.41	-1.65736e-06
3	35105	7.51	-2.89397e-06
3	35651	7.61	-3.85652e-06
3	36197	7.71	-4.57698e-06
3	36743	7.81	-5.08591e-06
3	37289	7.91	-5.41219e-06
3	37843	8.01	-5.58279e-06
3	38389	8.11	-5.6226e-06
3	38935	8.21	-5.55442e-06
3	39481	8.31	-5.39886e-06
3	40027	8.41	-5.17441e-06
3	40573	8.51	-4.89748e-06
3	41119	8.61	-4.58246e-06
3	41665	8.71	-4.24184e-06
3	42211	8.81	-3.88634e-06
3	42757	8.91	-3.52499e-06
3	43311	9.01	-3.16534e-06
3	43857	9.11	-2.81353e-06
3	44403	9.21	-2.47446e-06
3	44949	9.31	-2.15192e-06
3	45495	9.41	-1.84873e-06
3	46041	9.51	-1.56685e-06
3	46587	9.61	-1.30751e-06
3	47133	9.71	-1.0713e-06
3	47679	9.81	-8.58321e-07
3	48225	9.91	-6.68206e-07
3	50523	10.01	-5.0026e-07
3	51069	10.11	-3.53514e-07
3	51615	10.21	-2.2679e-07
3	52161	10.31	-1.18765e-07
3	52707	10.41	-2.80163e-08
3	53253	10.51	4.6931e-08
3	53799	10.61	1.07573e-07
3	54345	10.71	1.55391e-07
3	54891	10.81	1.91831e-07
3	55437	10.91	2.18284e-07
3	55991	11.01	2.3607e-07
3	56537	11.11	2.46427e-07
3	57083	11.21	2.50502e-07
3	57629	11.31	2.49353e-07
3	58175	11.41	2.43938e-07
3	58721	11.51	2.3512e-07
3	59267	11.61	2.23669e-07
3	59813	11.71	2.10264e-07
3	60359	11.81	1.95496e-07
3	60905	11.91	1.79874e-07
3	61459	12.01	1.63833e-07
3	62005	12.11	1.47736e-07
3	62551	12.21	1.3188e-07
3	63097	12.31	1.16508e-07
3	63643	12.41	1.01807e-07
3	64189	12.51	8.79222e-08
3	64735	12.61	7.49541e-08
3	65281	12.71	6.29711e-08
3	65827	12.81	5.20114e-08
3	66373	12.91	4.20883e-08
3	66927	13.01	3.3193e-08
3	67473	13.11	2.53003e-08
3	68019	13.21	1.83718e-08
3	68565	13.31	1.23581e-08
3	69111	13.41	7.20348e-09
3	69657	13.51	2.84537e-09
3	70203	13.61	-7.80886e-10
3	70749	13.71	-3.74136e-09
3	71295	13.81	-6.10285e-09
3	71841	13.91	-7.93072e-09
3	72395	14.01	-9.28821e-09
3	72941	14.11	-1.0235e-08
3	73487	14.21	-1.08283e-08
3	74033	14.31	-1.11211e-08
3	74579	14.41	-1.11612e-08
3	75125	14.51	-1.09946e-08
3	75671	14.61	-1.06599e-08
3	76217	14.71	-1.01945e-08
3	76763	14.81	-9.62999e-09
3	77309	14.91	-8.99405e-09
3	77863	15.01	-8.31086e-09
3	78409	15.11	-7.60103e-09
3	78955	15.21	-6.88338e-09
3	79501	15.31	-6.17071e-09
3	80047	15.41	-5.47544e-09
3	80593	15.51	-4.80682e-09
3	81139	15.61	-4.17266e-09
3	81685	15.71	-3.57687e-09
3	82231	15.81	-3.02443e-09
3	82777	15.91	-2.51674e-09
3	83331	16.01	-2.05489e-09
3	83877	16.11	-1.63958e-09
3	84423	16.21	-1.26903e-09
3	84969	16.31	-9.42535e-10
3	85515	16.41	-6.57963e-10
3	86061	16.51	-4.1247e-10
3	86607	16.61	-2.04636e-10
3	87153	16.71	-2.91323e-11
3	87699	16.81	1.14753e-10
3	88245	16.91	2.30926e-10
3	88799	17.01	3.22231e-10
3	89345	17.11	3.91154e-10
3	89891	17.21	4.40892e-10
3	90437	17.31	4.73577e-10
3	90983	17.41	4.92051e-10
3	91529	17.51	4.98446e-10
3	92075	17.61	4.94893e-10
3	92621	17.71	4.82814e-10
3	93167	17.81	4.6434e-10
3	93713	17.91	4.40892e-10
3	94267	18.01	4.13536e-10
3	94813	18.11	3.83693e-10
3	95359	18.21	3.51719e-10
3	95905	18.31	3.19744e-10
3	96451	18.41	2.8777e-10
3	96997	18.51	2.55795e-10
3	97543	18.61	2.25953e-10
3	98089	18.71	1.97531e-10
3	98635	18.81	1.6982e-10
3	99181	18.91	1.44951e-10
3	99735	19.01	1.21503e-10
3	100281	19.11	1.00187e-10
3	100827	19.21	8.10019e-11
3	101373	19.31	6.32383e-11
3	101919	19.41	4.86722e-11
3	102465	19.51	3.44613e-11
3	103011	19.61	2.34479e-11
3	103557	19.71	1.27898e-11
3	104103	19.81	4.9738e-12
3	104649	19.91	-2.13163e-12
3	105203	20.01	-8.17124e-12
3	105749	20.11	-1.1724e-11
3	106295	20.21	-1.52767e-11
3	106841	20.31	-1.88294e-11
3	107387	20.41	-2.02505e-11
3	107933	20.51	-2.02505e-11
3	108479	20.61	-2.02505e-11
3	109025	20.71	-2.02505e-11
3	109571	20.81	-2.02505e-11
3	110117	20.91	-2.02505e-11
3	110671	21.01	-2.02505e-11
3	111217	21.11	-2.02505e-11
3	111763	21.21	-2.02505e-11
3	112309	21.31	-1.88294e-11
3	112855	21.41	-1.7053e-11
3	113401	21.51	-1.52767e-11
3	113947	21.61	-1.38556e-11
3	114493	21.71	-1.24345e-11
3	115039	21.81	-1.13687e-11
3	115585	21.91	-1.03029e-11
3	116139	22.01	-9.23706e-12
3	116685	22.11	-8.52651e-12
3	117231	22.21	-7.4607e-12
3	117777	22.31	-6.75016e-12
3	118323	22.41	-6.03961e-12
3	118869	22.51	-5.68434e-12
3	119415	22.61	-4.9738e-12
3	119961	22.71	-4.61853e-12
3	120507	22.81	-4.26326e-12
3	121053	22.91	-3.90799e-12
3	121607	23.01	-3.55271e-12
3	122153	23.11	-3.19744e-12
3	122699	23.21	-2.84217e-12
3	123245	23.31	-2.4869e-12
3	123791	23.41	-2.13163e-12
3	124337	23.51	-2.13163e-12
3	124883	23.61	-1.77636e-12
3	125429	23.71	-1.77636e-12
3	125975	23.81	-1.42109e-12
3	126521	23.91	-1.42109e-12
3	127075	24.01	-1.06581e-12
3	127621	24.11	-1.06581e-12
3	128167	24.21	-1.06581e-12
3	128713	24.31	-1.06581e-12
3	129259	24.41	-7.10543e-13
3	129805	24.51	-7.10543e-13
3	130351	24.61	-7.10543e-13
3	130897	24.71	-7.10543e-13
3	131443	24.81	-7.10543e-13
3	131989	24.91	-3.55271e-13
3	132543	25.01	-3.55271e-13
3	133089	25.11	-3.55271e-13
3	133635	25.21	-3.55271e-13
3	134181	25.31	-3.55271e-13
3	134727	25.41	-3.55271e-13
3	135273	25.51	-3.55271e-13
3	135819	25.61	-3.55271e-13
3	136365	25.71	-3.55271e-13
3	136911	25.81	-3.55271e-13
3	137457	25.91	0
3	138011	26.01	0
3	138557	26.11	0
3	139103	26.21	0
3	139649	26.31	0
3	140195	26.41	0
3	140741	26.51	0
3	141287	26.61	0
3	141833	26.71	0
3	142379	26.81	0
3	142925	26.91	0
3	143479	27.01	0
3	144025	27.11	0
3	144571	27.21	0
3	145117	27.31	0
3	145663	27.41	0
3	146209	27.51	0
3	146755	27.61	0
3	147301	27.71	0
3	147847	27.81	0
3	148393	27.91	0
3	148947	28.01	0
3	149493	28.11	0
3	150039	28.21	0
3	150585	28.31	0
3	151131	28.41	0
3	151677	28.51	0
3	152223	28.61	0
3	152769	28.71	0
3	153315	28.81	0
3	153861	28.91	0
3	154415	29.01	0
3	154961	29.11	0
3	155507	29.21	0
3	156053	29.31	0
3	156599	29.41	0
3	157145	29.51	0
3	157691	29.61	0
3	158237	29.71	0
3	158783	29.81	0
3	159329	29.91	0
3	159883	30.01	0
3	160429	30.11	0
3	160975	30.21	0
3	161521	30.31	0
3	162067	30.41	0
3	162613	30.51	0
3	163159	30.61	0
3	163705	30.71	0
3	164251	30.81	0
3	164797	30.91	0
3	165351	31.01	0
3	165897	31.11	0
3	166443	31.21	0
3	166989	31.31	0
3	167535	31.41	0
3	168081	31.51	0
3	168627	31.61	0
3	169173	31.71	0
3	169719	31.81	0
3	170265	31.91	0
3	170819	32.01	0
3	171365	32.11	0
3	171911	32.21	0
3	172457	32.31	0
3	173003	32.41	0
3	173549	32.51	0
3	174095	32.61	0
3	174641	32.71	0
3	175187	32.81	0
3	175733	32.91	0
3	176287	33.01	0
3	176833	33.11	0
3	177379	33.21	0
3	177925	33.31	0
3	178471	33.41	0
3	179017	33.51	0
3	179563	33.61	0
3	180109	33.71	0
3	180655	33.81	0
3	181201	33.91	0
3	181755	34.01	0
3	182301	34.11	0
3	182847	34.21	0
3	183393	34.31	0
3	183939	34.41	0
3	184485	34.51	0
3	185031	34.61	0
3	185577	34.71	0
3	186123	34.81	0
3	186669	34.91	0
3	187223	35.01	0
3	187769	35.11	0
3	188315	35.21	0
3	188861	35.31	0
3	189407	35.41	0
3	189953	35.51	0
3	190499	35.61	0
3	191045	35.71	0
3	191591	35.81	0
3	192137	35.91	0
3	192691	36.01	0
3	193237	36.11	0
3	193783	36.21	0
3	194329	36.31	0
3	194875	36.41	0
3	195421	36.51	0
3	195967	36.61	0
3	196513	36.71	0
3	197059	36.81	0
3	197605	36.91	0
3	198159	37.01	0
3	198705	37.11	0
3	199251	37.21	0
3	199797	37.31	0
3	200343	37.41	0
3	200889	37.51	0
3	201435	37.61	0
3	201981	37.71	0
3	202527	37.81	0
3	203073	37.91	0
3	203627	38.01	0
3	204173	38.11	0
3	204719	38.21	0
3	205265	38.31	0
3	205811	38.41	0
3	206357	38.51	0
3	206903	38.61	0
3	207449	38.71	0
3	207995	38.81	0
3	208541	38.91	0
3	209095	39.01	0
3	209641	39.11	0
3	210187	39.21	0
3	210733	39.31	0
3	211279	39.41	0
3	211825	39.51	0
3	212371	39.61	0
3	212917	39.71	0
3	213463	39.81	0
3	214009	39.91	0
3	214563	40.01	0
3	215109	40.11	0
3	215655	40.21	0
3	216201	40.31	0
3	216747	40.41	0
3	217293	40.51	0
3	217839	40.61	0
3	218385	40.71	0
3	218931	40.81	0
3	219477	40.91	0
3	220031	41.01	0
3	220577	41.11	0
3	221123	41.21	0
3	221669	41.31	0
3	222215	41.41	0
3	222761	41.51	0
3	223307	41.61	0
3	223853	41.71	0
3	224399	41.81	0
3	224945	41.91	0
3	225499	42.01	0
3	226045	42.11	0
3	226591	42.21	0
3	227137	42.31	0
3	227683	42.41	0
3	228229	42.51	0
3	228775	42.61	0
3	229321	42.71	0
3	229867	42.81	0
3	230413	42.91	0
3	230967	43.01	0
3	231513	43.11	0
3	232059	43.21	0
3	232605	43.31	0
3	233151	43.41	0
3	233697	43.51	0
3	234243	43.61	0
3	234789	43.71	0
3	235335	43.81	0
3	235881	43.91	0
3	236435	44.01	0
3	236981	44.11	0
3	237527	44.21	0
3	238073	44.31	0
3	238619	44.41	0
3	239165	44.51	0
3	239711	44.61	0
3	240257	44.71	0
3	240803	44.81	0
3	241349	44.91	0
3	241903	45.01	0
3	242449	45.11	0
3	242995	45.21	0
3	243541	45.31	0
3	244087	45.41	0
3	244633	45.51	0
3	245179	45.61	0
3	245725	45.71	0
3	246271	45.81	0
3	246817	45.91	0
3	247371	46.01	0
3	247917	46.11	0
3	248463	46.21	0
3	249009	46.31	0
3	249555	46.41	0
3	250101	46.51	0
3	250647	46.61	0
3	251193	46.71	0
3	251739	46.81	0
3	252285	46.91	0
3	252839	47.01	0
3	253385	47.11	0
3	253931	47.21	0
3	254477	47.31	0
3	255023	47.41	0
3	255569	47.51	0
3	256115	47.61	0
3	256661	47.71	0
3	257207	47.81	0
3	257753	47.91	0
3	258307	48.01	0
3	258853	48.11	0
3	259399	48.21	0
3	259945	48.31	0
3	260491	48.41	0
3	261037	48.51	0
3	261583	48.61	0
3	262129	48.71	0
3	262675	48.81	0
3	263221	48.91	0
3	263775	49.01	0
3	264321	49.11	0
3	264867	49.21	0
3	265413	49.31	0
3	265959	49.41	0
3	266505	49.51	0
3	267051	49.61	0
3	267597	49.71	0
3	268143	49.81	0
3	268689	49.91	0
3	269243	50.01	0
3	269789	50.11	0
3	270335	50.21	0
3	270881	50.31	0
3	271427	50.41	0
3	271973	50.51	0
3	272519	50.61	0
3	273065	50.71	0
3	273611	50.81	0
3	274157	50.91	0
3	274711	51.01	0
3	275257	51.11	0
3	275803	51.21	0
3	276349	51.31	0
3	276895	51.41	0
3	277441	51.51	0
3	277987	51.61	0
3	278533	51.71	0
3	279079	51.81	0
3	279625	51.91	0
3	280179	52.01	0
3	280725	52.11	0
3	281271	52.21	0
3	281817	52.31	0
3	282363	52.41	0
3	282909	52.51	0
3	283455	52.61	0
3	284001	52.71	0
3	284547	52.81	0
3	285093	52.91	0
3	285647	53.01	0
3	286193	53.11	0
3	286739	53.21	0
3	287285	53.31	0
3	287831	53.41	0
3	288377	53.51	0
3	288923	53.61	0
3	289469	53.71	0
3	290015	53.81	0
3	290561	53.91	0
3	291115	54.01	0
3	291661	54.11	0
3	292207	54.21	0
3	292753	54.31	0
3	293299	54.41	0
3	293845	54.51	0
3	294391	54.61	0
3	294937	54.71	0
3	295483	54.81	0
3	296029	54.91	0
3	296583	55.01	0
3	297129	55.11	0
3	297675	55.21	0
3	298221	55.31	0
3	298767	55.41	0
3	299313	55.51	0
3	299859	55.61	0
3	300405	55.71	0
3	300951	55.81	0
3	301497	55.91	0
3	302051	56.01	0
3	302597	56.11	0
3	303143	56.21	0
3	303689	56.31	0
3	304235	56.41	0
3	304781	56.51	0
3	305327	56.61	0
3	305873	56.71	0
3	306419	56.81	0
3	306965	56.91	0
3	307519	57.01	0
3	308065	57.11	0
3	308611	57.21	0
3	309157	57.31	0
3	309703	57.41	0
3	310249	57.51	0
3	310795	57.61	0
3	311341	57.71	0
3	311887	57.81	0
3	312433	57.91	0
3	312987	58.01	0
3	313533	58.11	0
3	314079	58.21	0
3	314625	58.31	0
3	315171	58.41	0
3	315717	58.51	0
3	316263	58.61	0
3	316809	58.71	0
3	317355	58.81	0
3	317901	58.91	0
3	318455	59.01	0
3	319001	59.11	0
3	319547	59.21	0
3	320093	59.31	0
3	320639	59.41	0
3	321185	59.51	0
3	321731	59.61	0
3	322277	59.71	0
3	322823	59.81	0
3	323369	59.91	0
3	323923	60.01	0
3	324469	60.11	0
3	325015	60.21	0
3	325561	60.31	0
3	326107	60.41	0
3	326653	60.51	0
3	327199	60.61	0
3	327745	60.71	0
3	328291	60.81	0
3	328837	60.91	0
3	329391	61.01	0
3	329937	61.11	0
3	330483	61.21	0
3	331029	61.31	0
3	331575	61.41	0
3	332121	61.51	0
3	332667	61.61	0
3	333213	61.71	0
3	333759	61.81	0
3	334305	61.91	0
3	334859	62.01	0
3	335405	62.11	0
3	335951	62.21	0
3	336497	62.31	0
3	337043	62.41	0
3	337589	62.51	0
3	338135	62.61	0
3	338681	62.71	0
3	339227	62.81	0
3	339773	62.91	0
3	340327	63.01	0
3	340873	63.11	0
3	341419	63.21	0
3	341965	63.31	0
3	342511	63.41	0
3	343057	63.51	0
3	343603	63.61	0
3	344149	63.71	0
3	344695	63.81	0
3	345241	63.91	0
3	345795	64.01	0
[...]
104	395002	73	4
104	400470	74	4
104	405938	75	4
104	411406	76	4
104	416874	77	4
104	422342	78	4
104	427810	79	4
104	433278	80	4
104	438746	81	4
104	444214	82	4
104	449682	83	4
104	455150	84	4
104	460618	85	4
104	466086	86	4
104	471554	87	4
104	477022	88	4
104	482490	89	4
104	487958	90	4
104	493426	91	4
104	498894	92	4
104	504362	93	4
104	509830	94	4
104	515298	95	4
104	520766	96	4
104	526234	97	4
104	531702	98	4
104	537170	99	4
104	542638	100	4
105	5030	2	0.022473
105	10498	3	0.02497
105	15966	4	0.02497
105	21434	5	0.02497
105	26902	6	0.02497
105	32370	7	0.02497
105	37838	8	0.02497
105	43306	9	0.02497
105	48775	10	0.02497
105	55986	11	0.026860360223
105	61454	12	0.02497
105	66922	13	0.02497
105	72390	14	0.02497
105	77858	15	0.02497
105	83326	16	0.02497
105	88794	17	0.02497
105	94262	18	0.02497
105	99730	19	0.02497
105	105198	20	0.02497
105	110666	21	0.02497
105	116134	22	0.02497
105	121602	23	0.02497
105	127070	24	0.02497
105	132538	25	0.02497
105	138006	26	0.02497
105	143474	27	0.02497
105	148942	28	0.02497
105	154410	29	0.02497
105	159878	30	0.02497
105	165346	31	0.02497
105	170814	32	0.02497
105	176282	33	0.02497
105	181750	34	0.02497
105	187218	35	0.02497
105	192686	36	0.02497
105	198154	37	0.02497
105	203622	38	0.02497
105	209090	39	0.02497
105	214558	40	0.02497
105	220026	41	0.02497
105	225494	42	0.02497
105	230962	43	0.02497
105	236430	44	0.02497
105	241898	45	0.02497
105	247366	46	0.02497
105	252834	47	0.02497
105	258302	48	0.02497
105	263770	49	0.02497
105	269238	50	0.02497
105	274706	51	0.02497
105	280174	52	0.02497
105	285642	53	0.02497
105	291110	54	0.02497
105	296578	55	0.02497
105	302046	56	0.02497
105	307514	57	0.02497
105	312982	58	0.02497
105	318450	59	0.02497
105	323918	60	0.02497
105	329386	61	0.02497
105	334854	62	0.02497
105	340322	63	0.02497
105	345790	64	0.02497
105	351258	65	0.02497
105	356726	66	0.02497
105	362194	67	0.02497
105	367662	68	0.02497
105	373130	69	0.02497
105	378598	70	0.02497
105	384066	71	0.02497
105	389534	72	0.02497
105	395002	73	0.02497
105	400470	74	0.02497
105	405938	75	0.02497
105	411406	76	0.02497
105	416874	77	0.02497
105	422342	78	0.02497
105	427810	79	0.02497
105	433278	80	0.02497
105	438746	81	0.02497
105	444214	82	0.02497
105	449682	83	0.02497
105	455150	84	0.02497
105	460618	85	0.02497
105	466086	86	0.02497
105	471554	87	0.02497
105	477022	88	0.02497
105	482490	89	0.02497
105	487958	90	0.02497
105	493426	91	0.02497
105	498894	92	0.02497
105	504362	93	0.02497
105	509830	94	0.02497
105	515298	95	0.02497
105	520766	96	0.02497
105	526234	97	0.02497
105	531702	98	0.02497
105	537170	99	0.02497
105	542638	100	0.02497
106	5030	2	0
106	10498	3	0
106	15966	4	0
106	21434	5	0
106	26902	6	0
106	32370	7	0
106	37838	8	0
106	43306	9	0
106	48775	10	0
106	55986	11	0
106	61454	12	0
106	66922	13	0
106	72390	14	0
106	77858	15	0
106	83326	16	0
106	88794	17	0
106	94262	18	0
106	99730	19	0
106	105198	20	0
106	110666	21	0
106	116134	22	0
106	121602	23	0
106	127070	24	0
106	132538	25	0
106	138006	26	0
106	143474	27	0
106	148942	28	0
106	154410	29	0
106	159878	30	0
106	165346	31	0
106	170814	32	0
106	176282	33	0
106	181750	34	0
106	187218	35	0
106	192686	36	0
106	198154	37	0
106	203622	38	0
106	209090	39	0
106	214558	40	0
106	220026	41	0
106	225494	42	0
106	230962	43	0
106	236430	44	0
106	241898	45	0
106	247366	46	0
106	252834	47	0
106	258302	48	0
106	263770	49	0
106	269238	50	0
106	274706	51	0
106	280174	52	0
106	285642	53	0
106	291110	54	0
106	296578	55	0
106	302046	56	0
106	307514	57	0
106	312982	58	0
106	318450	59	0
106	323918	60	0
106	329386	61	0
106	334854	62	0
106	340322	63	0
106	345790	64	0
106	351258	65	0
106	356726	66	0
106	362194	67	0
106	367662	68	0
106	373130	69	0
106	378598	70	0
106	384066	71	0
106	389534	72	0
106	395002	73	0
106	400470	74	0
106	405938	75	0
106	411406	76	0
106	416874	77	0
106	422342	78	0
106	427810	79	0
106	433278	80	0
106	438746	81	0
106	444214	82	0
106	449682	83	0
106	455150	84	0
106	460618	85	0
106	466086	86	0
106	471554	87	0
106	477022	88	0
106	482490	89	0
106	487958	90	0
106	493426	91	0
106	498894	92	0
106	504362	93	0
106	509830	94	0
106	515298	95	0
106	520766	96	0
106	526234	97	0
106	531702	98	0
106	537170	99	0
106	542638	100	0
107	5031	2	5
107	10499	3	5
107	15967	4	5
107	21435	5	5
107	26903	6	5
107	32371	7	5
107	37839	8	5
107	43307	9	5
107	48776	10	5
107	55987	11	5
107	61455	12	5
107	66923	13	5
107	72391	14	5
107	77859	15	5
107	83327	16	5
107	88795	17	5
107	94263	18	5
107	99731	19	5
107	105199	20	5
107	110667	21	5
107	116135	22	5
107	121603	23	5
107	127071	24	5
107	132539	25	5
107	138007	26	5
107	143475	27	5
107	148943	28	5
107	154411	29	5
107	159879	30	5
107	165347	31	5
107	170815	32	5
107	176283	33	5
107	181751	34	5
107	187219	35	5
107	192687	36	5
107	198155	37	5
107	203623	38	5
107	209091	39	5
107	214559	40	5
107	220027	41	5
107	225495	42	5
107	230963	43	5
107	236431	44	5
107	241899	45	5
107	247367	46	5
107	252835	47	5
107	258303	48	5
107	263771	49	5
107	269239	50	5
107	274707	51	5
107	280175	52	5
107	285643	53	5
107	291111	54	5
107	296579	55	5
107	302047	56	5
107	307515	57	5
107	312983	58	5
107	318451	59	5
107	323919	60	5
107	329387	61	5
107	334855	62	5
107	340323	63	5
107	345791	64	5
107	351259	65	5
107	356727	66	5
107	362195	67	5
107	367663	68	5
107	373131	69	5
107	378599	70	5
107	384067	71	5
107	389535	72	5
107	395003	73	5
107	400471	74	5
107	405939	75	5
107	411407	76	5
107	416875	77	5
107	422343	78	5
107	427811	79	5
107	433279	80	5
107	438747	81	5
107	444215	82	5
107	449683	83	5
107	455151	84	5
107	460619	85	5
107	466087	86	5
107	471555	87	5
107	477023	88	5
107	482491	89	5
107	487959	90	5
107	493427	91	5
107	498895	92	5
107	504363	93	5
107	509831	94	5
107	515299	95	5
107	520767	96	5
107	526235	97	5
107	531703	98	5
107	537171	99	5
107	542639	100	5
108	5031	2	0.022473
108	10499	3	0.02497
108	15967	4	0.02497
108	21435	5	0.02497
108	26903	6	0.02497
108	32371	7	0.02497
108	37839	8	0.02497
108	43307	9	0.02497
108	48776	10	0.02497
108	55987	11	0.026794240152
108	61455	12	0.02497
108	66923	13	0.02497
108	72391	14	0.02497
108	77859	15	0.02497
108	83327	16	0.02497
108	88795	17	0.02497
108	94263	18	0.02497
108	99731	19	0.02497
108	105199	20	0.02497
108	110667	21	0.02497
108	116135	22	0.02497
108	121603	23	0.02497
108	127071	24	0.02497
108	132539	25	0.02497
108	138007	26	0.02497
108	143475	27	0.02497
108	148943	28	0.02497
108	154411	29	0.02497
108	159879	30	0.02497
108	165347	31	0.02497
108	170815	32	0.02497
108	176283	33	0.02497
108	181751	34	0.02497
108	187219	35	0.02497
108	192687	36	0.02497
108	198155	37	0.02497
108	203623	38	0.02497
108	209091	39	0.02497
108	214559	40	0.02497
108	220027	41	0.02497
108	225495	42	0.02497
108	230963	43	0.02497
108	236431	44	0.02497
108	241899	45	0.02497
108	247367	46	0.02497
108	252835	47	0.02497
108	258303	48	0.02497
108	263771	49	0.02497
108	269239	50	0.02497
108	274707	51	0.02497
108	280175	52	0.02497
108	285643	53	0.02497
108	291111	54	0.02497
108	296579	55	0.02497
108	302047	56	0.02497
108	307515	57	0.02497
108	312983	58	0.02497
108	318451	59	0.02497
108	323919	60	0.02497
108	329387	61	0.02497
108	334855	62	0.02497
108	340323	63	0.02497
108	345791	64	0.02497
108	351259	65	0.02497
108	356727	66	0.02497
108	362195	67	0.02497
108	367663	68	0.02497
108	373131	69	0.02497
108	378599	70	0.02497
108	384067	71	0.02497
108	389535	72	0.02497
108	395003	73	0.02497
108	400471	74	0.02497
108	405939	75	0.02497
108	411407	76	0.02497
108	416875	77	0.02497
108	422343	78	0.02497
108	427811	79	0.02497
108	433279	80	0.02497
108	438747	81	0.02497
108	444215	82	0.02497
108	449683	83	0.02497
108	455151	84	0.02497
108	460619	85	0.02497
108	466087	86	0.02497
108	471555	87	0.02497
108	477023	88	0.02497
108	482491	89	0.02497
108	487959	90	0.02497
108	493427	91	0.02497
108	498895	92	0.02497
108	504363	93	0.02497
108	509831	94	0.02497
108	515299	95	0.02497
108	520767	96	0.02497
108	526235	97	0.02497
108	531703	98	0.02497
108	537171	99	0.02497
108	542639	100	0.02497
109	5031	2	0
109	10499	3	0
109	15967	4	0
109	21435	5	0
109	26903	6	0
109	32371	7	0
109	37839	8	0
109	43307	9	0
109	48776	10	0
109	55987	11	0
109	61455	12	0
109	66923	13	0
109	72391	14	0
109	77859	15	0
109	83327	16	0
109	88795	17	0
109	94263	18	0
109	99731	19	0
109	105199	20	0
109	110667	21	0
109	116135	22	0
109	121603	23	0
109	127071	24	0
109	132539	25	0
109	138007	26	0
109	143475	27	0
109	148943	28	0
109	154411	29	0
109	159879	30	0
109	165347	31	0
109	170815	32	0
109	176283	33	0
109	181751	34	0
109	187219	35	0
109	192687	36	0
109	198155	37	0
109	203623	38	0
109	209091	39	0
109	214559	40	0
109	220027	41	0
109	225495	42	0
109	230963	43	0
109	236431	44	0
109	241899	45	0
109	247367	46	0
109	252835	47	0
109	258303	48	0
109	263771	49	0
109	269239	50	0
109	274707	51	0
109	280175	52	0
109	285643	53	0
109	291111	54	0
109	296579	55	0
109	302047	56	0
109	307515	57	0
109	312983	58	0
109	318451	59	0
109	323919	60	0
109	329387	61	0
109	334855	62	0
109	340323	63	0
109	345791	64	0
109	351259	65	0
109	356727	66	0
109	362195	67	0
109	367663	68	0
109	373131	69	0
109	378599	70	0
109	384067	71	0
109	389535	72	0
109	395003	73	0
109	400471	74	0
109	405939	75	0
109	411407	76	0
109	416875	77	0
109	422343	78	0
109	427811	79	0
109	433279	80	0
109	438747	81	0
109	444215	82	0
109	449683	83	0
109	455151	84	0
109	460619	85	0
109	466087	86	0
109	471555	87	0
109	477023	88	0
109	482491	89	0
109	487959	90	0
109	493427	91	0
109	498895	92	0
109	504363	93	0
109	509831	94	0
109	515299	95	0
109	520767	96	0
109	526235	97	0
109	531703	98	0
109	537171	99	0
109	542639	100	0
110	5032	2	6
110	10500	3	6
110	15968	4	6
110	21436	5	6
110	26904	6	6
110	32372	7	6
110	37840	8	6
110	43308	9	6
110	48777	10	6
110	55988	11	6
110	61456	12	6
110	66924	13	6
110	72392	14	6
110	77860	15	6
110	83328	16	6
110	88796	17	6
110	94264	18	6
110	99732	19	6
110	105200	20	6
110	110668	21	6
110	116136	22	6
110	121604	23	6
110	127072	24	6
110	132540	25	6
110	138008	26	6
110	143476	27	6
110	148944	28	6
110	154412	29	6
110	159880	30	6
110	165348	31	6
110	170816	32	6
110	176284	33	6
110	181752	34	6
110	187220	35	6
110	192688	36	6
110	198156	37	6
110	203624	38	6
110	209092	39	6
110	214560	40	6
110	220028	41	6
110	225496	42	6
110	230964	43	6
110	236432	44	6
110	241900	45	6
110	247368	46	6
110	252836	47	6
110	258304	48	6
110	263772	49	6
110	269240	50	6
110	274708	51	6
110	280176	52	6
110	285644	53	6
110	291112	54	6
110	296580	55	6
110	302048	56	6
110	307516	57	6
110	312984	58	6
110	318452	59	6
110	323920	60	6
110	329388	61	6
110	334856	62	6
110	340324	63	6
110	345792	64	6
110	351260	65	6
110	356728	66	6
110	362196	67	6
110	367664	68	6
110	373132	69	6
110	378600	70	6
110	384068	71	6
110	389536	72	6
110	395004	73	6
110	400472	74	6
110	405940	75	6
110	411408	76	6
110	416876	77	6
110	422344	78	6
110	427812	79	6
110	433280	80	6
110	438748	81	6
110	444216	82	6
110	449684	83	6
110	455152	84	6
110	460620	85	6
110	466088	86	6
110	471556	87	6
110	477024	88	6
110	482492	89	6
110	487960	90	6
110	493428	91	6
110	498896	92	6
110	504364	93	6
110	509832	94	6
110	515300	95	6
110	520768	96	6
110	526236	97	6
110	531704	98	6
110	537172	99	6
110	542640	100	6
111	5032	2	0.022473
111	10500	3	0.02497
111	15968	4	0.02497
111	21436	5	0.02497
111	26904	6	0.02497
111	32372	7	0.02497
111	37840	8	0.02497
111	43308	9	0.02497
111	48777	10	0.02497
111	55988	11	0.026827360228
111	61456	12	0.02497
111	66924	13	0.02497
111	72392	14	0.02497
111	77860	15	0.02497
111	83328	16	0.02497
111	88796	17	0.02497
111	94264	18	0.02497
111	99732	19	0.02497
111	105200	20	0.02497
111	110668	21	0.02497
111	116136	22	0.02497
111	121604	23	0.02497
111	127072	24	0.02497
111	132540	25	0.02497
111	138008	26	0.02497
111	143476	27	0.02497
111	148944	28	0.02497
111	154412	29	0.02497
111	159880	30	0.02497
111	165348	31	0.02497
111	170816	32	0.02497
111	176284	33	0.02497
111	181752	34	0.02497
111	187220	35	0.02497
111	192688	36	0.02497
111	198156	37	0.02497
111	203624	38	0.02497
111	209092	39	0.02497
111	214560	40	0.02497
111	220028	41	0.02497
111	225496	42	0.02497
111	230964	43	0.02497
111	236432	44	0.02497
111	241900	45	0.02497
111	247368	46	0.02497
111	252836	47	0.02497
111	258304	48	0.02497
111	263772	49	0.02497
111	269240	50	0.02497
111	274708	51	0.02497
111	280176	52	0.02497
111	285644	53	0.02497
111	291112	54	0.02497
111	296580	55	0.02497
111	302048	56	0.02497
111	307516	57	0.02497
111	312984	58	0.02497
111	318452	59	0.02497
111	323920	60	0.02497
111	329388	61	0.02497
111	334856	62	0.02497
111	340324	63	0.02497
111	345792	64	0.02497
111	351260	65	0.02497
111	356728	66	0.02497
111	362196	67	0.02497
111	367664	68	0.02497
111	373132	69	0.02497
111	378600	70	0.02497
111	384068	71	0.02497
111	389536	72	0.02497
111	395004	73	0.02497
111	400472	74	0.02497
111	405940	75	0.02497
111	411408	76	0.02497
111	416876	77	0.02497
111	422344	78	0.02497
111	427812	79	0.02497
111	433280	80	0.02497
111	438748	81	0.02497
111	444216	82	0.02497
111	449684	83	0.02497
111	455152	84	0.02497
111	460620	85	0.02497
111	466088	86	0.02497
111	471556	87	0.02497
111	477024	88	0.02497
111	482492	89	0.02497
111	487960	90	0.02497
111	493428	91	0.02497
111	498896	92	0.02497
111	504364	93	0.02497
111	509832	94	0.02497
111	515300	95	0.02497
111	520768	96	0.02497
111	526236	97	0.02497
111	531704	98	0.02497
111	537172	99	0.02497
111	542640	100	0.02497
112	5032	2	0
112	10500	3	0
112	15968	4	0
112	21436	5	0
112	26904	6	0
112	32372	7	0
112	37840	8	0
112	43308	9	0
112	48777	10	0
112	55988	11	0
112	61456	12	0
112	66924	13	0
112	72392	14	0
112	77860	15	0
112	83328	16	0
112	88796	17	0
112	94264	18	0
112	99732	19	0
112	105200	20	0
112	110668	21	0
112	116136	22	0
112	121604	23	0
112	127072	24	0
112	132540	25	0
112	138008	26	0
112	143476	27	0
112	148944	28	0
112	154412	29	0
112	159880	30	0
112	165348	31	0
112	170816	32	0
112	176284	33	0
112	181752	34	0
112	187220	35	0
112	192688	36	0
112	198156	37	0
112	203624	38	0
112	209092	39	0
112	214560	40	0
112	220028	41	0
112	225496	42	0
112	230964	43	0
112	236432	44	0
112	241900	45	0
112	247368	46	0
112	252836	47	0
112	258304	48	0
112	263772	49	0
112	269240	50	0
112	274708	51	0
112	280176	52	0
112	285644	53	0
112	291112	54	0
112	296580	55	0
112	302048	56	0
112	307516	57	0
112	312984	58	0
112	318452	59	0
112	323920	60	0
112	329388	61	0
112	334856	62	0
112	340324	63	0
112	345792	64	0
112	351260	65	0
112	356728	66	0
112	362196	67	0
112	367664	68	0
112	373132	69	0
112	378600	70	0
112	384068	71	0
112	389536	72	0
112	395004	73	0
112	400472	74	0
112	405940	75	0
112	411408	76	0
112	416876	77	0
112	422344	78	0
112	427812	79	0
112	433280	80	0
112	438748	81	0
112	444216	82	0
112	449684	83	0
112	455152	84	0
112	460620	85	0
112	466088	86	0
112	471556	87	0
112	477024	88	0
112	482492	89	0
112	487960	90	0
112	493428	91	0
112	498896	92	0
112	504364	93	0
112	509832	94	0
112	515300	95	0
112	520768	96	0
112	526236	97	0
112	531704	98	0
112	537172	99	0
112	542640	100	0
113	5033	2	7
113	10501	3	7
113	15969	4	7
113	21437	5	7
113	26905	6	7
113	32373	7	7
113	37841	8	7
113	43309	9	7
113	48778	10	7
113	55989	11	7
113	61457	12	7
113	66925	13	7
113	72393	14	7
113	77861	15	7
113	83329	16	7
113	88797	17	7
113	94265	18	7
113	99733	19	7
113	105201	20	7
113	110669	21	7
113	116137	22	7
113	121605	23	7
113	127073	24	7
113	132541	25	7
113	138009	26	7
113	143477	27	7
113	148945	28	7
113	154413	29	7
113	159881	30	7
113	165349	31	7
113	170817	32	7
113	176285	33	7
113	181753	34	7
113	187221	35	7
113	192689	36	7
113	198157	37	7
113	203625	38	7
113	209093	39	7
113	214561	40	7
113	220029	41	7
113	225497	42	7
113	230965	43	7
113	236433	44	7
113	241901	45	7
113	247369	46	7
113	252837	47	7
113	258305	48	7
113	263773	49	7
113	269241	50	7
113	274709	51	7
113	280177	52	7
113	285645	53	7
113	291113	54	7
113	296581	55	7
113	302049	56	7
113	307517	57	7
113	312985	58	7
113	318453	59	7
113	323921	60	7
113	329389	61	7
113	334857	62	7
113	340325	63	7
113	345793	64	7
113	351261	65	7
113	356729	66	7
113	362197	67	7
113	367665	68	7
113	373133	69	7
113	378601	70	7
113	384069	71	7
113	389537	72	7
113	395005	73	7
113	400473	74	7
113	405941	75	7
113	411409	76	7
113	416877	77	7
113	422345	78	7
113	427813	79	7
113	433281	80	7
113	438749	81	7
113	444217	82	7
113	449685	83	7
113	455153	84	7
113	460621	85	7
113	466089	86	7
113	471557	87	7
113	477025	88	7
113	482493	89	7
113	487961	90	7
113	493429	91	7
113	498897	92	7
113	504365	93	7
113	509833	94	7
113	515301	95	7
113	520769	96	7
113	526237	97	7
113	531705	98	7
113	537173	99	7
113	542641	100	7
114	5033	2	0.022473
114	10501	3	0.02497
114	15969	4	0.02497
114	21437	5	0.02497
114	26905	6	0.02497
114	32373	7	0.02497
114	37841	8	0.02497
114	43309	9	0.02497
114	48778	10	0.02497
114	55989	11	0.02679428018
114	61457	12	0.02497
114	66925	13	0.02497
114	72393	14	0.02497
114	77861	15	0.02497
114	83329	16	0.02497
114	88797	17	0.02497
114	94265	18	0.02497
114	99733	19	0.02497
114	105201	20	0.02497
114	110669	21	0.02497
114	116137	22	0.02497
114	121605	23	0.02497
114	127073	24	0.02497
114	132541	25	0.02497
114	138009	26	0.02497
114	143477	27	0.02497
114	148945	28	0.02497
114	154413	29	0.02497
114	159881	30	0.02497
114	165349	31	0.02497
114	170817	32	0.02497
114	176285	33	0.02497
114	181753	34	0.02497
114	187221	35	0.02497
114	192689	36	0.02497
114	198157	37	0.02497
114	203625	38	0.02497
114	209093	39	0.02497
114	214561	40	0.02497
114	220029	41	0.02497
114	225497	42	0.02497
114	230965	43	0.02497
114	236433	44	0.02497
114	241901	45	0.02497
114	247369	46	0.02497
114	252837	47	0.02497
114	258305	48	0.02497
114	263773	49	0.02497
114	269241	50	0.02497
114	274709	51	0.02497
114	280177	52	0.02497
114	285645	53	0.02497
114	291113	54	0.02497
114	296581	55	0.02497
114	302049	56	0.02497
114	307517	57	0.02497
114	312985	58	0.02497
114	318453	59	0.02497
114	323921	60	0.02497
114	329389	61	0.02497
114	334857	62	0.02497
114	340325	63	0.02497
114	345793	64	0.02497
114	351261	65	0.02497
114	356729	66	0.02497
114	362197	67	0.02497
114	367665	68	0.02497
114	373133	69	0.02497
114	378601	70	0.02497
114	384069	71	0.02497
114	389537	72	0.02497
114	395005	73	0.02497
114	400473	74	0.02497
114	405941	75	0.02497
114	411409	76	0.02497
114	416877	77	0.02497
114	422345	78	0.02497
114	427813	79	0.02497
114	433281	80	0.02497
114	438749	81	0.02497
114	444217	82	0.02497
114	449685	83	0.02497
114	455153	84	0.02497
114	460621	85	0.02497
114	466089	86	0.02497
114	471557	87	0.02497
114	477025	88	0.02497
114	482493	89	0.02497
114	487961	90	0.02497
114	493429	91	0.02497
114	498897	92	0.02497
114	504365	93	0.02497
114	509833	94	0.02497
114	515301	95	0.02497
114	520769	96	0.02497
114	526237	97	0.02497
114	531705	98	0.02497
114	537173	99	0.02497
114	542641	100	0.02497
115	5033	2	0
115	10501	3	0
115	15969	4	0
115	21437	5	0
115	26905	6	0
115	32373	7	0
115	37841	8	0
115	43309	9	0
115	48778	10	0
115	55989	11	0
115	61457	12	0
115	66925	13	0
115	72393	14	0
115	77861	15	0
115	83329	16	0
115	88797	17	0
115	94265	18	0
115	99733	19	0
115	105201	20	0
115	110669	21	0
115	116137	22	0
115	121605	23	0
115	127073	24	0
115	132541	25	0
115	138009	26	0
115	143477	27	0
115	148945	28	0
115	154413	29	0
115	159881	30	0
115	165349	31	0
115	170817	32	0
115	176285	33	0
115	181753	34	0
115	187221	35	0
115	192689	36	0
115	198157	37	0
115	203625	38	0
115	209093	39	0
115	214561	40	0
115	220029	41	0
115	225497	42	0
115	230965	43	0
115	236433	44	0
115	241901	45	0
115	247369	46	0
115	252837	47	0
115	258305	48	0
115	263773	49	0
115	269241	50	0
115	274709	51	0
115	280177	52	0
115	285645	53	0
115	291113	54	0
115	296581	55	0
115	302049	56	0
115	307517	57	0
115	312985	58	0
115	318453	59	0
115	323921	60	0
115	329389	61	0
115	334857	62	0
115	340325	63	0
115	345793	64	0
115	351261	65	0
115	356729	66	0
115	362197	67	0
115	367665	68	0
115	373133	69	0
115	378601	70	0
115	384069	71	0
115	389537	72	0
115	395005	73	0
115	400473	74	0
115	405941	75	0
115	411409	76	0
115	416877	77	0
115	422345	78	0
115	427813	79	0
115	433281	80	0
115	438749	81	0
115	444217	82	0
115	449685	83	0
115	455153	84	0
115	460621	85	0
115	466089	86	0
115	471557	87	0
115	477025	88	0
115	482493	89	0
115	487961	90	0
115	493429	91	0
115	498897	92	0
115	504365	93	0
115	509833	94	0
115	515301	95	0
115	520769	96	0
115	526237	97	0
115	531705	98	0
115	537173	99	0
115	542641	100	0

