file 2404908 1720453145                                         
version 3
run BreakRanksNoGui-26-20240708-17:38:54-154633
attr configname BreakRanksNoGui
attr datetime 20240708-17:38:54
attr datetimef 20240708-173854
attr experiment BreakRanksNoGui
attr inifile omnetpp.ini
attr iterationvars "$nCars=8, $platoonSize=8, $nLanes=1, $ploegH=0.5, $controller=1, $headway=0.1, $leaderHeadway=1.2, $leaderSpeed=110, $breakRanksSafetyDistance=2, $minSpeed=100, $maxSpeed=120, $beaconInterval=0.1, $priority=4, $packetSize=200, $sController=\"CACC\", $0=2, $1=0"
attr iterationvarsd nCars=8/platoonSize=8/nLanes=1/ploegH=0.5/controller=1/headway=0.1/leaderHeadway=1.2/leaderSpeed=110/breakRanksSafetyDistance=2/minSpeed=100/maxSpeed=120/beaconInterval=0.1/priority=4/packetSize=200/sController=CACC/2/0
attr iterationvarsf nCars=8,platoonSize=8,nLanes=1,ploegH=0.5,controller=1,headway=0.1,leaderHeadway=1.2,leaderSpeed=110,breakRanksSafetyDistance=2,minSpeed=100,maxSpeed=120,beaconInterval=0.1,priority=4,packetSize=200,sController=CACC,2,0-
attr measurement "$nCars=8, $platoonSize=8, $nLanes=1, $ploegH=0.5, $controller=1, $headway=0.1, $leaderHeadway=1.2, $leaderSpeed=110, $breakRanksSafetyDistance=2, $minSpeed=100, $maxSpeed=120, $beaconInterval=0.1, $priority=4, $packetSize=200, $sController=\"CACC\", $0=2, $1=0"
attr network Highway
attr processid 154633
attr repetition 6
attr replication #6
attr resultdir results
attr runnumber 26
attr seedset 6
itervar beaconInterval 0.1
itervar breakRanksSafetyDistance 2
itervar controller 1
itervar headway 0.1
itervar leaderHeadway 1.2
itervar leaderSpeed 110
itervar maxSpeed 120
itervar minSpeed 100
itervar nCars 8
itervar nLanes 1
itervar packetSize 200
itervar platoonSize 8
itervar ploegH 0.5
itervar priority 4
itervar sController "\"CACC\""
config image-path ../../../veins/images
config repeat 10
config extends BreakRanks
config *.manager.command "\"sumo\""
config *.manager.ignoreGuiCommands true
config output-vector-file results/BreakRanks_1_0.1_110_2/result_6.vec
config output-scalar-file results/BreakRanks_1_0.1_110_2/result_6.sca
config extends Platooning
config *.node[*].scenario_type "\"BreakRanksScenario\""
config *.manager.command "\"sumo-gui\""
config *.node[*].scenario_type "\"SimpleScenario\""
config cmdenv-express-mode true
config cmdenv-autoflush true
config cmdenv-status-frequency 15s
config num-rngs 6
config network Highway
config debug-on-errors true
config print-undisposed true
config *.playgroundSizeX 65000m
config *.playgroundSizeY 25000m
config *.playgroundSizeZ 50m
config sim-time-limit "100 s"
config *.annotations.draw false
config *.obstacles.debug false
config *.world.useTorus false
config *.world.use2D false
config *.manager.updateInterval 0.01s
config *.manager.host "\"localhost\""
config *.manager.moduleType "\"org.car2x.plexe.PlatoonCar\""
config *.manager.moduleName "\"node\""
config *.manager.moduleDisplayString "\"\""
config *.manager.autoShutdown true
config *.manager.margin 25
config *.connectionManager.sendDirect true
config *.connectionManager.maxInterfDist 2600m
config *.connectionManager.drawMaxIntfDist false
config *.**.nic.mac1609_4.useServiceChannel false
config *.**.nic.mac1609_4.txPower 100mW
config *.**.nic.mac1609_4.bitrate 6Mbps
config *.**.nic.mac1609_4.useAcks true
config *.**.nic.mac1609_4.ackErrorRate 0.0
config *.**.nic.mac1609_4.frameErrorRate 0.0
config *.**.nic.phy80211p.minPowerLevel -94dBm
config *.**.nic.phy80211p.maxTXPower 100mW
config *.**.nic.phy80211p.useNoiseFloor true
config *.**.nic.phy80211p.noiseFloor -95dBm
config *.**.nic.phy80211p.decider "xmldoc(\"config.xml\")"
config *.**.nic.phy80211p.analogueModels "xmldoc(\"config.xml\")"
config *.**.nic.phy80211p.usePropagationDelay true
config *.node[*].mobility.x 0
config *.node[*].mobility.y 0
config *.node[*].mobility.z 1.895
config seed-set 6
config **.seed 6
config *.node[*].prot.rng-0 2
config *.node[*].appl.rng-0 3
config *.node[*].scenario.rng-0 4
config **.traffic.rng-0 5
config *.manager.configFile "\"./sumocfg/freeway.sumo.cfg\""
config *.manager.launchConfig "xmldoc(\"./sumocfg/freeway.launchd.xml\")"
config **.numberOfCars 8
config **.numberOfCarsPerPlatoon 8
config **.numberOfLanes 1
config *.node[*].helper_type "\"PositionHelper\""
config *.node[*].scenario.caccC1 0.5
config *.node[*].scenario.caccXi 1
config *.node[*].scenario.caccOmegaN "0.2 Hz"
config *.node[*].scenario.caccSpacing "2 m"
config *.node[*].scenario.engineTau "0.5 s"
config *.node[*].scenario.ploegH 0.5s
config *.node[*].scenario.ploegKp 0.2
config *.node[*].scenario.ploegKd 0.7
config *.node[*].scenario.useRealisticEngine false
config *.node[*].scenario.useControllerAcceleration true
config *.node[*].scenario.nLanes 1
config **.numericController 1
config **.headway 0.1s
config *.node[*].scenario.accHeadway 0.1s
config *.node[*].scenario.leaderHeadway 1.2s
config *.node[*].scenario.leaderSpeed 110kmph
config *.node[*].appl_type "\"SimplePlatooningApp\""
config *.node[*].appl.*.scalar-recording true
config *.node[*].appl.*.vector-recording true
config *.node[0].appl.breakRanksSafetyDistance 2m
config *.node[*].appl.minSpeed 100kmph
config *.node[*].appl.maxSpeed 120kmph
config *.node[*].protocol_type "\"SimplePlatooningBeaconing\""
config *.node[*].prot.*.scalar-recording true
config *.node[*].prot.*.vector-recording true
config *.node[*].prot.beaconingInterval 0.1s
config *.node[*].prot.priority 4
config *.node[*].prot.packetSize 200
config **.traffic_type "\"PlatoonsTrafficManager\""
config **.traffic.platoonInsertTime "1 s"
config **.traffic.platoonInsertSpeed 110kmph
config **.traffic.nCars 8
config **.traffic.platoonSize 8
config **.traffic.nLanes 1
config **.traffic.platooningVType "\"vtypeauto\""
config **.traffic.controller "\"CACC\""
config **.traffic.platoonInsertDistance 2m
config **.traffic.platoonInsertHeadway 0s
config **.traffic.platoonLeaderHeadway 1.2s
config **.scalar-recording false
config **.vector-recording false
config output-vector-file results/BreakRanksNoGui_1_0.1_110_2/result_6.vec
config output-scalar-file results/BreakRanksNoGui_1_0.1_110_2/result_6.sca

vector 0 Highway.node[0].appl distance ETV
vector 1 Highway.node[0].appl relativeSpeed ETV
vector 2 Highway.node[0].appl nodeId ETV
vector 3 Highway.node[0].appl acceleration ETV
vector 4 Highway.node[0].appl controllerAcceleration ETV
vector 5 Highway.node[0].appl speed ETV
vector 6 Highway.node[0].appl posx ETV
vector 7 Highway.node[0].appl posy ETV
vector 8 Highway.node[1].appl distance ETV
vector 9 Highway.node[1].appl relativeSpeed ETV
vector 10 Highway.node[1].appl nodeId ETV
vector 11 Highway.node[1].appl acceleration ETV
vector 12 Highway.node[1].appl controllerAcceleration ETV
vector 13 Highway.node[1].appl speed ETV
vector 14 Highway.node[1].appl posx ETV
vector 15 Highway.node[1].appl posy ETV
vector 16 Highway.node[2].appl distance ETV
vector 17 Highway.node[2].appl relativeSpeed ETV
vector 18 Highway.node[2].appl nodeId ETV
vector 19 Highway.node[2].appl acceleration ETV
vector 20 Highway.node[2].appl controllerAcceleration ETV
vector 21 Highway.node[2].appl speed ETV
vector 22 Highway.node[2].appl posx ETV
vector 23 Highway.node[2].appl posy ETV
vector 24 Highway.node[3].appl distance ETV
vector 25 Highway.node[3].appl relativeSpeed ETV
vector 26 Highway.node[3].appl nodeId ETV
vector 27 Highway.node[3].appl acceleration ETV
vector 28 Highway.node[3].appl controllerAcceleration ETV
vector 29 Highway.node[3].appl speed ETV
vector 30 Highway.node[3].appl posx ETV
vector 31 Highway.node[3].appl posy ETV
vector 32 Highway.node[4].appl distance ETV
vector 33 Highway.node[4].appl relativeSpeed ETV
vector 34 Highway.node[4].appl nodeId ETV
vector 35 Highway.node[4].appl acceleration ETV
vector 36 Highway.node[4].appl controllerAcceleration ETV
vector 37 Highway.node[4].appl speed ETV
vector 38 Highway.node[4].appl posx ETV
vector 39 Highway.node[4].appl posy ETV
vector 40 Highway.node[5].appl distance ETV
vector 41 Highway.node[5].appl relativeSpeed ETV
vector 42 Highway.node[5].appl nodeId ETV
vector 43 Highway.node[5].appl acceleration ETV
vector 44 Highway.node[5].appl controllerAcceleration ETV
vector 45 Highway.node[5].appl speed ETV
vector 46 Highway.node[5].appl posx ETV
vector 47 Highway.node[5].appl posy ETV
vector 48 Highway.node[6].appl distance ETV
vector 49 Highway.node[6].appl relativeSpeed ETV
vector 50 Highway.node[6].appl nodeId ETV
vector 51 Highway.node[6].appl acceleration ETV
vector 52 Highway.node[6].appl controllerAcceleration ETV
vector 53 Highway.node[6].appl speed ETV
vector 54 Highway.node[6].appl posx ETV
vector 55 Highway.node[6].appl posy ETV
vector 56 Highway.node[7].appl distance ETV
vector 57 Highway.node[7].appl relativeSpeed ETV
vector 58 Highway.node[7].appl nodeId ETV
vector 59 Highway.node[7].appl acceleration ETV
vector 60 Highway.node[7].appl controllerAcceleration ETV
vector 61 Highway.node[7].appl speed ETV
vector 62 Highway.node[7].appl posx ETV
vector 63 Highway.node[7].appl posy ETV
vector 64 Highway.node[1].prot leaderDelay ETV
vector 65 Highway.node[1].prot leaderDelayId ETV
vector 66 Highway.node[1].prot frontDelay ETV
vector 67 Highway.node[1].prot frontDelayId ETV
vector 68 Highway.node[2].prot leaderDelay ETV
vector 69 Highway.node[2].prot leaderDelayId ETV
vector 70 Highway.node[3].prot leaderDelay ETV
vector 71 Highway.node[3].prot leaderDelayId ETV
vector 72 Highway.node[4].prot leaderDelay ETV
vector 73 Highway.node[4].prot leaderDelayId ETV
vector 74 Highway.node[5].prot leaderDelay ETV
vector 75 Highway.node[5].prot leaderDelayId ETV
vector 76 Highway.node[6].prot leaderDelay ETV
vector 77 Highway.node[6].prot leaderDelayId ETV
vector 78 Highway.node[7].prot leaderDelay ETV
vector 79 Highway.node[7].prot leaderDelayId ETV
vector 80 Highway.node[7].prot frontDelay ETV
vector 81 Highway.node[7].prot frontDelayId ETV
vector 82 Highway.node[3].prot frontDelay ETV
vector 83 Highway.node[3].prot frontDelayId ETV
vector 84 Highway.node[6].prot frontDelay ETV
vector 85 Highway.node[6].prot frontDelayId ETV
vector 86 Highway.node[2].prot frontDelay ETV
vector 87 Highway.node[2].prot frontDelayId ETV
vector 88 Highway.node[4].prot frontDelay ETV
vector 89 Highway.node[4].prot frontDelayId ETV
vector 90 Highway.node[5].prot frontDelay ETV
vector 91 Highway.node[5].prot frontDelayId ETV
vector 92 Highway.node[0].prot nodeId ETV
vector 93 Highway.node[0].prot busyTime ETV
vector 94 Highway.node[0].prot collisions ETV
vector 95 Highway.node[1].prot nodeId ETV
vector 96 Highway.node[1].prot busyTime ETV
vector 97 Highway.node[1].prot collisions ETV
vector 98 Highway.node[2].prot nodeId ETV
vector 99 Highway.node[2].prot busyTime ETV
vector 100 Highway.node[2].prot collisions ETV
vector 101 Highway.node[3].prot nodeId ETV
vector 102 Highway.node[3].prot busyTime ETV
vector 103 Highway.node[3].prot collisions ETV
vector 104 Highway.node[4].prot nodeId ETV
vector 105 Highway.node[4].prot busyTime ETV
vector 106 Highway.node[4].prot collisions ETV
vector 107 Highway.node[5].prot nodeId ETV
vector 108 Highway.node[5].prot busyTime ETV
vector 109 Highway.node[5].prot collisions ETV
vector 110 Highway.node[6].prot nodeId ETV
vector 111 Highway.node[6].prot busyTime ETV
vector 112 Highway.node[6].prot collisions ETV
vector 113 Highway.node[7].prot nodeId ETV
vector 114 Highway.node[7].prot busyTime ETV
vector 115 Highway.node[7].prot collisions ETV
0	11335 19428 113 542208 1.11 99.91 989 -1 82.3316 20660.9454 1253669.9454885
1	30763 18493 113 542208 1.11 99.91 989 0 1.4444 569.09359999999 821.99879584
2	49256 16523 113 542208 1.11 99.91 989 0 0 0 0
3	65779 19111 113 542208 1.11 99.91 989 -0.00283113 0.000125957 -0.043966303784312 9.6812896349407e-05
4	84890 26491 113 542208 1.11 99.91 989 -0.00437036 0.00019576 -0.042459310034081 0.00013890441444735
5	111381 22453 113 542208 1.11 99.91 989 30.5554 30.56 30219.5304 923377.16656332
6	133834 22275 113 542208 1.11 99.91 989 53.7704 3072.67 1546025.5779 3169422406.5712
7	156109 21468 113 542208 1.11 99.91 989 242.45 242.45 239783.05 58135400.472499
8	177577 21718 114 542209 1.11 99.91 989 -1 249.479 88897.17959 13770203.239381
9	199295 20680 114 542209 1.11 99.91 989 -0.000377192 5 3166.7471937795 13272.956585136
10	219975 17512 114 542209 1.11 99.91 989 1 1 989 989
11	237487 21591 114 542209 1.11 99.91 989 -1.46271 0.065202 -35.562029275473 42.086566704296
12	259078 27259 114 542209 1.11 99.91 989 -1.5 0.101256 -34.763769946889 49.228841970367
13	286337 19517 114 542209 1.11 99.91 989 26.8987 30.56 27078.93 742564.5848583
14	305854 23428 114 542209 1.11 99.91 989 47.7704 2752.79 1401385.2647 2578387027.2908
15	329282 22457 114 542209 1.11 99.91 989 242.45 245.75 242749.75 59583743.4125
16	351739 21395 115 542210 1.11 99.91 989 -1 39.8672 16049.93488 561033.13304979
17	373134 21875 115 542210 1.11 99.91 989 -0.000184926 2.62711 341.52598082846 471.51788270049
18	395009 17512 115 542210 1.11 99.91 989 2 2 1978 3956
19	412521 26237 115 542210 1.11 99.91 989 -1.66118 0.721533 24.454742762226 49.356516896112
20	438758 26244 115 542210 1.11 99.91 989 -2.53478 1.05225 26.043960196948 69.371571714803
21	465002 21902 115 542210 1.11 99.91 989 27.9285 33.0469 31148.1088 983205.4225994
22	486904 22969 115 542210 1.11 99.91 989 41.7704 3153.4 1542544.5462 3207993729.0474
23	509873 22457 115 542210 1.11 99.91 989 242.45 245.75 241809.25 59124591.3125
24	532330 22924 116 542211 1.11 99.91 989 1.99957 276.74 106671.1816 18450997.965124
25	555254 20640 116 542211 1.11 99.91 989 -0.000132606 4.00043 3205.2172846875 11915.545964616
26	575894 17512 116 542211 1.11 99.91 989 3 3 2967 8901
27	593406 22196 116 542211 1.11 99.91 989 -2.42344 0.563527 -35.550111781775 110.32932500538
28	615602 27757 116 542211 1.11 99.91 989 -3.05019 0.605095 -34.224944114833 134.92603698693
29	643359 19701 116 542211 1.11 99.91 989 25.1259 30.56 26991.7821 737896.90556601
30	663060 23417 116 542211 1.11 99.91 989 35.7704 2732.07 1381991.0801 2521230936.8269
31	686477 22457 116 542211 1.11 99.91 989 242.45 242.45 239783.05 58135400.472499
32	708934 22876 117 542212 1.11 99.91 989 -1 82.2101 45921.46797 3003806.1162755
33	731810 23605 117 542212 1.11 99.91 989 -0.444828 4.09457 26.595830076839 757.76346351908
34	755415 17512 117 542212 1.11 99.91 989 4 4 3956 15824
35	772927 23163 117 542212 1.11 99.91 989 -2.66053 1.48132 4.4630039736041 240.67647520414
36	796090 27046 117 542212 1.11 99.91 989 -3.05304 1.5 5.4944506079317 278.53185689695
37	823136 20603 117 542212 1.11 99.91 989 22.6281 31.0131 29861.1784 905015.2509696
38	843739 23418 117 542212 1.11 99.91 989 29.7704 3012.81 1477897.0709 2951717748.5909
39	867157 22457 117 542212 1.11 99.91 989 242.45 249.05 241261.45000001 58861446.012499
40	889614 22426 118 542213 1.11 99.91 989 -1 65.112 28830.60307 1281978.0488517
41	912040 23730 118 542213 1.11 99.91 989 -0.000111127 6.26756 300.23724293768 478.41116466199
42	935770 17512 118 542213 1.11 99.91 989 5 5 4945 24725
43	953282 26214 118 542213 1.11 99.91 989 -2.71202 1.5 4.3648248620035 367.17624448476
44	979496 25957 118 542213 1.11 99.91 989 -3.05302 1.5 6.1890324344158 408.68967271701
45	1005453 22747 118 542213 1.11 99.91 989 20.6663 31.1037 29855.712 905839.72856866
46	1028200 23349 118 542213 1.11 99.91 989 23.7704 3006.26 1472413.7139 2935947595.9416
47	1051549 22457 118 542213 1.11 99.91 989 242.45 252.35 244416.25 60415362.5525
48	1074006 21556 119 542214 1.11 99.91 989 -1 100.01 27148.34529 1754122.6908109
49	1095562 19995 119 542214 1.11 99.91 989 -0.118236 5.64153 1000.3871227341 2233.8973526218
50	1115557 17512 119 542214 1.11 99.91 989 6 6 5934 35604
51	1133069 22175 119 542214 1.11 99.91 989 -2.47737 1.4589 4.4515316211458 101.56475674088
52	1155244 26984 119 542214 1.11 99.91 989 -3.05303 1.5 7.1495104057201 144.23639350041
53	1182228 19963 119 542214 1.11 99.91 989 26.3685 31.0077 30347.0052 931984.79495098
54	1202191 23425 119 542214 1.11 99.91 989 17.7704 3049.39 1505191.892 3055290558.9627
55	1225616 22457 119 542214 1.11 99.91 989 242.45 252.35 244551.55 60477648.0725
56	1248073 18895 120 542215 1.11 99.91 989 -1 2.00004 -719.00325 1258.9870004625
57	1266968 18461 120 542215 1.11 99.91 989 -4.03328e-05 3.13765e-05 -0.001581532029 6.6759393568092e-08
58	1285429 17512 120 542215 1.11 99.91 989 7 7 6923 48461
59	1302941 21524 120 542215 1.11 99.91 989 -0.0414969 0.929032 14.439149166598 10.471553689901
60	1324465 27991 120 542215 1.11 99.91 989 -0.0645008 1.44516 14.598968817338 16.00940928649
61	1352456 19449 120 542215 1.11 99.91 989 30.5556 32.0645 31503.5688 1003695.7832996
62	1371905 22463 120 542215 1.11 99.91 989 11.7704 3159 1561562.1232 3288953119.767
63	1394368 22457 120 542215 1.11 99.91 989 242.45 249.05 241898.35 59171052.012499
64	1416825 39980 699 542278 1.249406540374 99.949406665507 988 0.099987520333 0.100003538807 98.800000645493 9.8800001465739
65	1456805 27262 699 542278 1.249406540374 99.949406665507 988 1 1 988 988
66	1484067 39980 699 542278 1.249406540374 99.949406665507 988 0.099987520333 0.100003538807 98.800000645493 9.8800001465739
67	1524047 27262 699 542278 1.249406540374 99.949406665507 988 1 1 988 988
68	1551309 39993 705 542266 1.249406560388 99.949405867818 988 0.099987520334 0.100003538436 98.79999982779 9.8799999830333
69	1591302 27263 705 542266 1.249406560388 99.949405867818 988 2 2 1976 3952
70	1618565 39996 711 542284 1.249406580401 99.949406734547 988 0.099987520333 0.100003538807 98.800000674505 9.8800001523763
71	1658561 27265 711 542284 1.249406580401 99.949406734547 988 3 3 2964 8892
72	1685826 39976 717 542254 1.249406600415 99.949405797567 988 0.099987520333 0.100003537473 98.799999717512 9.8799999609778
73	1725802 27275 717 542254 1.249406600415 99.949405797567 988 4 4 3952 15808
74	1753077 39975 723 542260 1.249406620429 99.949405819677 988 0.099987520333 0.100003537476 98.799999719608 9.879999961397
75	1793052 27264 723 542260 1.249406620429 99.949405819677 988 5 5 4940 24700
76	1820316 39957 729 542248 1.249406640443 99.949405676317 988 0.099987520333 0.100003537474 98.799999556234 9.8799999287221
77	1860273 27242 729 542248 1.249406640443 99.949405676317 988 6 6 5928 35568
78	1887515 39976 735 542272 1.249406660457 99.949405886127 988 0.099987520333 0.100003538103 98.79999974603 9.8799999666813
79	1927491 27268 735 542272 1.249406660457 99.949405886127 988 7 7 6916 48412
80	1954759 39982 841 542408 1.280893700485 99.980893618107 988 0.099987520333 0.100003538769 98.800000437982 9.8800001050727
81	1994741 27255 841 542408 1.280893700485 99.980893618107 988 7 7 6916 48412
82	2021996 39997 908 542487 1.29643578054 99.996437006801 988 0.099987520333 0.100003545777 98.800001746621 9.8800003668654
83	2061993 27260 908 542487 1.29643578054 99.996437006801 988 3 3 2964 8892
84	2089253 39971 978 541981 1.300069840582 99.900066690366 987 0.099987520333 0.100003535105 98.699997370144 9.8699994915085
85	2129224 27265 978 541981 1.300069840582 99.900066690366 987 6 6 5922 35532
86	2156489 39937 1041 542068 1.300453920637 99.900491728201 986 0.099898595155 0.199958257091 98.699986327924 9.8899906481739
87	2196426 27212 1041 542068 1.300453920637 99.900491728201 986 2 2 1972 3944
88	2223638 39978 1107 542116 1.301721960665 99.9017203983 987 0.099640135042 0.100357120707 98.699998957995 9.8700000661213
89	2263616 27259 1107 542116 1.301721960665 99.9017203983 987 4 4 3948 15792
90	2290875 39972 1173 542170 1.304796980679 99.904795422754 987 0.099987520331 0.100009721717 98.699998962435 9.8699998102407
91	2330847 27242 1173 542170 1.304796980679 99.904795422754 987 5 5 4935 24675
92	2358089 1459 4785 542512 2 100 99 0 0 0 0
93	2359548 2738 4785 542512 2 100 99 0.02146343686 0.027137853627 2.470696088299 0.061676972182494
94	2362286 1459 4785 542512 2 100 99 0 0 0 0
95	2363745 1459 4786 542513 2 100 99 1 1 99 99
96	2365204 2737 4786 542513 2 100 99 0.021462456873 0.026840533135 2.47039714239 0.061660849002387
97	2367941 1459 4786 542513 2 100 99 0 0 0 0
98	2369400 1459 4787 542514 2 100 99 2 2 198 396
99	2370859 2737 4787 542514 2 100 99 0.021463476887 0.026841574493 2.470399537721 0.061660965367672
100	2373596 1558 4787 542514 2 100 99 0 0 0 0
101	2375154 1558 4788 542515 2 100 99 3 3 297 891
102	2376712 2832 4788 542515 2 100 99 0.0214624969 0.026840614955 2.470397153276 0.061660849571323
103	2379544 1558 4788 542515 2 100 99 0 0 0 0
104	2381102 1558 4789 542516 2 100 99 4 4 396 1584
105	2382660 2839 4789 542516 2 100 99 0.021462516914 0.026914695033 2.470472124749 0.061664876144373
106	2385499 1558 4789 542516 2 100 99 0 0 0 0
107	2387057 1558 4790 542517 2 100 99 5 5 495 2475
108	2388615 2831 4790 542517 2 100 99 0.021463536928 0.02691373506 2.47047218923 0.06166486847799
109	2391446 1558 4790 542517 2 100 99 0 0 0 0
110	2393004 1558 4791 542518 2 100 99 6 6 594 3564
111	2394562 2839 4791 542518 2 100 99 0.021463516914 0.026841732233 2.470400045365 0.061660991029382
112	2397401 1558 4791 542518 2 100 99 0 0 0 0
113	2398959 1558 4792 542519 2 100 99 7 7 693 4851
114	2400517 2832 4792 542519 2 100 99 0.0214634969 0.026842812017 2.470400759392 0.061661030871404
115	2403349 1558 4792 542519 2 100 99 0 0 0 0

