file 5012428 1720697013                                         
version 3
run BreakRanksNoGui-561-20240711-13:23:13-288724
attr configname BreakRanksNoGui
attr datetime 20240711-13:23:13
attr datetimef 20240711-132313
attr experiment BreakRanksNoGui
attr inifile omnetpp.ini
attr iterationvars "$nCars=16, $platoonSize=12, $nLanes=1, $ploegH=0.5, $controller=1, $headway=0.1, $leaderHeadway=1.2, $leaderSpeed=130, $breakRanksSafetyDistance=2, $minSpeed=120, $maxSpeed=140, $beaconInterval=0.1, $priority=4, $packetSize=200, $sController=\"CACC\", $0=2, $1=0"
attr iterationvarsd nCars=16/platoonSize=12/nLanes=1/ploegH=0.5/controller=1/headway=0.1/leaderHeadway=1.2/leaderSpeed=130/breakRanksSafetyDistance=2/minSpeed=120/maxSpeed=140/beaconInterval=0.1/priority=4/packetSize=200/sController=CACC/2/0
attr iterationvarsf nCars=16,platoonSize=12,nLanes=1,ploegH=0.5,controller=1,headway=0.1,leaderHeadway=1.2,leaderSpeed=130,breakRanksSafetyDistance=2,minSpeed=120,maxSpeed=140,beaconInterval=0.1,priority=4,packetSize=200,sController=CACC,2,0-
attr measurement "$nCars=16, $platoonSize=12, $nLanes=1, $ploegH=0.5, $controller=1, $headway=0.1, $leaderHeadway=1.2, $leaderSpeed=130, $breakRanksSafetyDistance=2, $minSpeed=120, $maxSpeed=140, $beaconInterval=0.1, $priority=4, $packetSize=200, $sController=\"CACC\", $0=2, $1=0"
attr network Highway
attr processid 288724
attr repetition 1
attr replication #1
attr resultdir results
attr runnumber 561
attr seedset 1
itervar beaconInterval 0.1
itervar breakRanksSafetyDistance 2
itervar controller 1
itervar headway 0.1
itervar leaderHeadway 1.2
itervar leaderSpeed 130
itervar maxSpeed 140
itervar minSpeed 120
itervar nCars 16
itervar nLanes 1
itervar packetSize 200
itervar platoonSize 12
itervar ploegH 0.5
itervar priority 4
itervar sController "\"CACC\""
config image-path ../../../veins/images
config repeat 10
config extends BreakRanks
config *.manager.command "\"sumo\""
config *.manager.ignoreGuiCommands true
config output-vector-file "results/BreakRanks_1_0.1_130_2_12 /result_1.vec"
config output-scalar-file "results/BreakRanks_1_0.1_130_2_12 /result_1.sca"
config extends Platooning
config *.node[*].scenario_type "\"BreakRanksScenario\""
config *.manager.command "\"sumo-gui\""
config *.node[*].scenario_type "\"SimpleScenario\""
config cmdenv-express-mode true
config cmdenv-autoflush true
config cmdenv-status-frequency 15s
config num-rngs 6
config network Highway
config debug-on-errors true
config print-undisposed true
config *.playgroundSizeX 65000m
config *.playgroundSizeY 25000m
config *.playgroundSizeZ 50m
config sim-time-limit "100 s"
config *.annotations.draw false
config *.obstacles.debug false
config *.world.useTorus false
config *.world.use2D false
config *.manager.updateInterval 0.01s
config *.manager.host "\"localhost\""
config *.manager.moduleType "\"org.car2x.plexe.PlatoonCar\""
config *.manager.moduleName "\"node\""
config *.manager.moduleDisplayString "\"\""
config *.manager.autoShutdown true
config *.manager.margin 25
config *.connectionManager.sendDirect true
config *.connectionManager.maxInterfDist 2600m
config *.connectionManager.drawMaxIntfDist false
config *.**.nic.mac1609_4.useServiceChannel false
config *.**.nic.mac1609_4.txPower 100mW
config *.**.nic.mac1609_4.bitrate 6Mbps
config *.**.nic.mac1609_4.useAcks true
config *.**.nic.mac1609_4.ackErrorRate 0.0
config *.**.nic.mac1609_4.frameErrorRate 0.0
config *.**.nic.phy80211p.minPowerLevel -94dBm
config *.**.nic.phy80211p.maxTXPower 100mW
config *.**.nic.phy80211p.useNoiseFloor true
config *.**.nic.phy80211p.noiseFloor -95dBm
config *.**.nic.phy80211p.decider "xmldoc(\"config.xml\")"
config *.**.nic.phy80211p.analogueModels "xmldoc(\"config.xml\")"
config *.**.nic.phy80211p.usePropagationDelay true
config *.node[*].mobility.x 0
config *.node[*].mobility.y 0
config *.node[*].mobility.z 1.895
config seed-set 1
config **.seed 1
config *.node[*].prot.rng-0 2
config *.node[*].appl.rng-0 3
config *.node[*].scenario.rng-0 4
config **.traffic.rng-0 5
config *.manager.configFile "\"./sumocfg/freeway.sumo.cfg\""
config *.manager.launchConfig "xmldoc(\"./sumocfg/freeway.launchd.xml\")"
config **.numberOfCars 16
config **.numberOfCarsPerPlatoon 12
config **.numberOfLanes 1
config *.node[*].helper_type "\"PositionHelper\""
config *.node[*].scenario.caccC1 0.5
config *.node[*].scenario.caccXi 1
config *.node[*].scenario.caccOmegaN "0.2 Hz"
config *.node[*].scenario.caccSpacing "2 m"
config *.node[*].scenario.engineTau "0.5 s"
config *.node[*].scenario.ploegH 0.5s
config *.node[*].scenario.ploegKp 0.2
config *.node[*].scenario.ploegKd 0.7
config *.node[*].scenario.useRealisticEngine false
config *.node[*].scenario.useControllerAcceleration true
config *.node[*].scenario.nLanes 1
config **.numericController 1
config **.headway 0.1s
config *.node[*].scenario.accHeadway 0.1s
config *.node[*].scenario.leaderHeadway 1.2s
config *.node[*].scenario.leaderSpeed 130kmph
config *.node[*].appl_type "\"SimplePlatooningApp\""
config *.node[*].appl.*.scalar-recording true
config *.node[*].appl.*.vector-recording true
config *.node[0].appl.breakRanksSafetyDistance 2m
config *.node[*].appl.minSpeed 120kmph
config *.node[*].appl.maxSpeed 140kmph
config *.node[*].protocol_type "\"SimplePlatooningBeaconing\""
config *.node[*].prot.*.scalar-recording true
config *.node[*].prot.*.vector-recording true
config *.node[*].prot.beaconingInterval 0.1s
config *.node[*].prot.priority 4
config *.node[*].prot.packetSize 200
config **.traffic_type "\"PlatoonsTrafficManager\""
config **.traffic.platoonInsertTime "1 s"
config **.traffic.platoonInsertSpeed 130kmph
config **.traffic.nCars 16
config **.traffic.platoonSize 12
config **.traffic.nLanes 1
config **.traffic.platooningVType "\"vtypeauto\""
config **.traffic.controller "\"CACC\""
config **.traffic.platoonInsertDistance 2m
config **.traffic.platoonInsertHeadway 0s
config **.traffic.platoonLeaderHeadway 1.2s
config **.scalar-recording false
config **.vector-recording false

vector 0 Highway.node[0].appl distance ETV
vector 1 Highway.node[0].appl relativeSpeed ETV
vector 2 Highway.node[0].appl nodeId ETV
vector 3 Highway.node[0].appl acceleration ETV
vector 4 Highway.node[0].appl controllerAcceleration ETV
vector 5 Highway.node[0].appl speed ETV
vector 6 Highway.node[0].appl posx ETV
vector 7 Highway.node[0].appl posy ETV
vector 8 Highway.node[1].appl distance ETV
vector 9 Highway.node[1].appl relativeSpeed ETV
vector 10 Highway.node[1].appl nodeId ETV
vector 11 Highway.node[1].appl acceleration ETV
vector 12 Highway.node[1].appl controllerAcceleration ETV
vector 13 Highway.node[1].appl speed ETV
vector 14 Highway.node[1].appl posx ETV
vector 15 Highway.node[1].appl posy ETV
vector 16 Highway.node[2].appl distance ETV
vector 17 Highway.node[2].appl relativeSpeed ETV
vector 18 Highway.node[2].appl nodeId ETV
vector 19 Highway.node[2].appl acceleration ETV
vector 20 Highway.node[2].appl controllerAcceleration ETV
vector 21 Highway.node[2].appl speed ETV
vector 22 Highway.node[2].appl posx ETV
vector 23 Highway.node[2].appl posy ETV
vector 24 Highway.node[3].appl distance ETV
vector 25 Highway.node[3].appl relativeSpeed ETV
vector 26 Highway.node[3].appl nodeId ETV
vector 27 Highway.node[3].appl acceleration ETV
vector 28 Highway.node[3].appl controllerAcceleration ETV
vector 29 Highway.node[3].appl speed ETV
vector 30 Highway.node[3].appl posx ETV
vector 31 Highway.node[3].appl posy ETV
vector 32 Highway.node[4].appl distance ETV
vector 33 Highway.node[4].appl relativeSpeed ETV
vector 34 Highway.node[4].appl nodeId ETV
vector 35 Highway.node[4].appl acceleration ETV
vector 36 Highway.node[4].appl controllerAcceleration ETV
vector 37 Highway.node[4].appl speed ETV
vector 38 Highway.node[4].appl posx ETV
vector 39 Highway.node[4].appl posy ETV
vector 40 Highway.node[5].appl distance ETV
vector 41 Highway.node[5].appl relativeSpeed ETV
vector 42 Highway.node[5].appl nodeId ETV
vector 43 Highway.node[5].appl acceleration ETV
vector 44 Highway.node[5].appl controllerAcceleration ETV
vector 45 Highway.node[5].appl speed ETV
vector 46 Highway.node[5].appl posx ETV
vector 47 Highway.node[5].appl posy ETV
vector 48 Highway.node[6].appl distance ETV
vector 49 Highway.node[6].appl relativeSpeed ETV
vector 50 Highway.node[6].appl nodeId ETV
vector 51 Highway.node[6].appl acceleration ETV
vector 52 Highway.node[6].appl controllerAcceleration ETV
vector 53 Highway.node[6].appl speed ETV
vector 54 Highway.node[6].appl posx ETV
vector 55 Highway.node[6].appl posy ETV
vector 56 Highway.node[7].appl distance ETV
vector 57 Highway.node[7].appl relativeSpeed ETV
vector 58 Highway.node[7].appl nodeId ETV
vector 59 Highway.node[7].appl acceleration ETV
vector 60 Highway.node[7].appl controllerAcceleration ETV
vector 61 Highway.node[7].appl speed ETV
vector 62 Highway.node[7].appl posx ETV
vector 63 Highway.node[7].appl posy ETV
vector 64 Highway.node[8].appl distance ETV
vector 65 Highway.node[8].appl relativeSpeed ETV
vector 66 Highway.node[8].appl nodeId ETV
vector 67 Highway.node[8].appl acceleration ETV
vector 68 Highway.node[8].appl controllerAcceleration ETV
vector 69 Highway.node[8].appl speed ETV
vector 70 Highway.node[8].appl posx ETV
vector 71 Highway.node[8].appl posy ETV
vector 72 Highway.node[9].appl distance ETV
vector 73 Highway.node[9].appl relativeSpeed ETV
vector 74 Highway.node[9].appl nodeId ETV
vector 75 Highway.node[9].appl acceleration ETV
vector 76 Highway.node[9].appl controllerAcceleration ETV
vector 77 Highway.node[9].appl speed ETV
vector 78 Highway.node[9].appl posx ETV
vector 79 Highway.node[9].appl posy ETV
vector 80 Highway.node[10].appl distance ETV
vector 81 Highway.node[10].appl relativeSpeed ETV
vector 82 Highway.node[10].appl nodeId ETV
vector 83 Highway.node[10].appl acceleration ETV
vector 84 Highway.node[10].appl controllerAcceleration ETV
vector 85 Highway.node[10].appl speed ETV
vector 86 Highway.node[10].appl posx ETV
vector 87 Highway.node[10].appl posy ETV
vector 88 Highway.node[11].appl distance ETV
vector 89 Highway.node[11].appl relativeSpeed ETV
vector 90 Highway.node[11].appl nodeId ETV
vector 91 Highway.node[11].appl acceleration ETV
vector 92 Highway.node[11].appl controllerAcceleration ETV
vector 93 Highway.node[11].appl speed ETV
vector 94 Highway.node[11].appl posx ETV
vector 95 Highway.node[11].appl posy ETV
vector 96 Highway.node[12].appl distance ETV
vector 97 Highway.node[12].appl relativeSpeed ETV
vector 98 Highway.node[12].appl nodeId ETV
vector 99 Highway.node[12].appl acceleration ETV
vector 100 Highway.node[12].appl controllerAcceleration ETV
vector 101 Highway.node[12].appl speed ETV
vector 102 Highway.node[12].appl posx ETV
vector 103 Highway.node[12].appl posy ETV
vector 104 Highway.node[13].appl distance ETV
vector 105 Highway.node[13].appl relativeSpeed ETV
vector 106 Highway.node[13].appl nodeId ETV
vector 107 Highway.node[13].appl acceleration ETV
vector 108 Highway.node[13].appl controllerAcceleration ETV
vector 109 Highway.node[13].appl speed ETV
vector 110 Highway.node[13].appl posx ETV
vector 111 Highway.node[13].appl posy ETV
vector 112 Highway.node[14].appl distance ETV
vector 113 Highway.node[14].appl relativeSpeed ETV
vector 114 Highway.node[14].appl nodeId ETV
vector 115 Highway.node[14].appl acceleration ETV
vector 116 Highway.node[14].appl controllerAcceleration ETV
vector 117 Highway.node[14].appl speed ETV
vector 118 Highway.node[14].appl posx ETV
vector 119 Highway.node[14].appl posy ETV
vector 120 Highway.node[15].appl distance ETV
vector 121 Highway.node[15].appl relativeSpeed ETV
vector 122 Highway.node[15].appl nodeId ETV
vector 123 Highway.node[15].appl acceleration ETV
vector 124 Highway.node[15].appl controllerAcceleration ETV
vector 125 Highway.node[15].appl speed ETV
vector 126 Highway.node[15].appl posx ETV
vector 127 Highway.node[15].appl posy ETV
vector 128 Highway.node[8].prot frontDelay ETV
vector 129 Highway.node[8].prot frontDelayId ETV
vector 130 Highway.node[11].prot frontDelay ETV
vector 131 Highway.node[11].prot frontDelayId ETV
vector 132 Highway.node[9].prot frontDelay ETV
vector 133 Highway.node[9].prot frontDelayId ETV
vector 134 Highway.node[6].prot frontDelay ETV
vector 135 Highway.node[6].prot frontDelayId ETV
vector 136 Highway.node[2].prot frontDelay ETV
vector 137 Highway.node[2].prot frontDelayId ETV
vector 138 Highway.node[15].prot frontDelay ETV
vector 139 Highway.node[15].prot frontDelayId ETV
vector 140 Highway.node[10].prot frontDelay ETV
vector 141 Highway.node[10].prot frontDelayId ETV
vector 142 Highway.node[13].prot frontDelay ETV
vector 143 Highway.node[13].prot frontDelayId ETV
vector 144 Highway.node[7].prot frontDelay ETV
vector 145 Highway.node[7].prot frontDelayId ETV
vector 146 Highway.node[12].prot frontDelay ETV
vector 147 Highway.node[12].prot frontDelayId ETV
vector 148 Highway.node[14].prot frontDelay ETV
vector 149 Highway.node[14].prot frontDelayId ETV
vector 150 Highway.node[5].prot leaderDelay ETV
vector 151 Highway.node[5].prot leaderDelayId ETV
vector 152 Highway.node[5].prot frontDelay ETV
vector 153 Highway.node[5].prot frontDelayId ETV
vector 154 Highway.node[6].prot leaderDelay ETV
vector 155 Highway.node[6].prot leaderDelayId ETV
vector 156 Highway.node[7].prot leaderDelay ETV
vector 157 Highway.node[7].prot leaderDelayId ETV
vector 158 Highway.node[1].prot leaderDelay ETV
vector 159 Highway.node[1].prot leaderDelayId ETV
vector 160 Highway.node[1].prot frontDelay ETV
vector 161 Highway.node[1].prot frontDelayId ETV
vector 162 Highway.node[8].prot leaderDelay ETV
vector 163 Highway.node[8].prot leaderDelayId ETV
vector 164 Highway.node[9].prot leaderDelay ETV
vector 165 Highway.node[9].prot leaderDelayId ETV
vector 166 Highway.node[10].prot leaderDelay ETV
vector 167 Highway.node[10].prot leaderDelayId ETV
vector 168 Highway.node[11].prot leaderDelay ETV
vector 169 Highway.node[11].prot leaderDelayId ETV
vector 170 Highway.node[12].prot leaderDelay ETV
vector 171 Highway.node[12].prot leaderDelayId ETV
vector 172 Highway.node[13].prot leaderDelay ETV
vector 173 Highway.node[13].prot leaderDelayId ETV
vector 174 Highway.node[14].prot leaderDelay ETV
vector 175 Highway.node[14].prot leaderDelayId ETV
vector 176 Highway.node[15].prot leaderDelay ETV
vector 177 Highway.node[15].prot leaderDelayId ETV
vector 178 Highway.node[2].prot leaderDelay ETV
vector 179 Highway.node[2].prot leaderDelayId ETV
vector 180 Highway.node[3].prot leaderDelay ETV
vector 181 Highway.node[3].prot leaderDelayId ETV
vector 182 Highway.node[3].prot frontDelay ETV
vector 183 Highway.node[3].prot frontDelayId ETV
vector 184 Highway.node[0].prot nodeId ETV
vector 185 Highway.node[0].prot busyTime ETV
vector 186 Highway.node[0].prot collisions ETV
vector 187 Highway.node[1].prot nodeId ETV
vector 188 Highway.node[1].prot busyTime ETV
vector 189 Highway.node[1].prot collisions ETV
vector 190 Highway.node[2].prot nodeId ETV
vector 191 Highway.node[2].prot busyTime ETV
vector 192 Highway.node[2].prot collisions ETV
vector 193 Highway.node[3].prot nodeId ETV
vector 194 Highway.node[3].prot busyTime ETV
vector 195 Highway.node[3].prot collisions ETV
vector 196 Highway.node[4].prot nodeId ETV
vector 197 Highway.node[4].prot busyTime ETV
vector 198 Highway.node[4].prot collisions ETV
vector 199 Highway.node[5].prot nodeId ETV
vector 200 Highway.node[5].prot busyTime ETV
vector 201 Highway.node[5].prot collisions ETV
vector 202 Highway.node[6].prot nodeId ETV
vector 203 Highway.node[6].prot busyTime ETV
vector 204 Highway.node[6].prot collisions ETV
vector 205 Highway.node[7].prot nodeId ETV
vector 206 Highway.node[7].prot busyTime ETV
vector 207 Highway.node[7].prot collisions ETV
vector 208 Highway.node[8].prot nodeId ETV
vector 209 Highway.node[8].prot busyTime ETV
vector 210 Highway.node[8].prot collisions ETV
vector 211 Highway.node[9].prot nodeId ETV
vector 212 Highway.node[9].prot busyTime ETV
vector 213 Highway.node[9].prot collisions ETV
vector 214 Highway.node[10].prot nodeId ETV
vector 215 Highway.node[10].prot busyTime ETV
vector 216 Highway.node[10].prot collisions ETV
vector 217 Highway.node[11].prot nodeId ETV
vector 218 Highway.node[11].prot busyTime ETV
vector 219 Highway.node[11].prot collisions ETV
vector 220 Highway.node[12].prot nodeId ETV
vector 221 Highway.node[12].prot busyTime ETV
vector 222 Highway.node[12].prot collisions ETV
vector 223 Highway.node[13].prot nodeId ETV
vector 224 Highway.node[13].prot busyTime ETV
vector 225 Highway.node[13].prot collisions ETV
vector 226 Highway.node[14].prot nodeId ETV
vector 227 Highway.node[14].prot busyTime ETV
vector 228 Highway.node[14].prot collisions ETV
vector 229 Highway.node[15].prot nodeId ETV
vector 230 Highway.node[15].prot busyTime ETV
vector 231 Highway.node[15].prot collisions ETV
0	16701 17956 113 1329874 1.11 99.91 989 -1 9263.16 147237.56 1372899103.9696
1	34657 17062 113 1329874 1.11 99.91 989 -0.00016216 0 -0.00199806509 2.8306876736293e-07
2	51719 16887 113 1329874 1.11 99.91 989 0 0 0 0
3	68606 19175 113 1329874 1.11 99.91 989 -3.14892e-05 0.000707784 0.010991577126781 6.0508064149601e-06
4	87781 26833 113 1329874 1.11 99.91 989 -4.89399e-05 0.00109259 0.010614843047836 8.6815283230331e-06
5	114614 22814 113 1329874 1.11 99.91 989 36.11 36.1111 35713.866699999 1289666.6073546
6	137428 22709 113 1329874 1.11 99.91 989 76.8599 3644.64 1840278.9945 4475501639.6751
7	160137 21832 113 1329874 1.11 99.91 989 242.45 242.45 239783.05 58135400.472499
8	181969 18288 114 1329875 1.11 99.91 989 -1 2.0003 -718.97853 1259.0858857771
9	200257 17808 114 1329875 1.11 99.91 989 -2.36679e-05 0.000135767 0.002572557769 2.8318437142419e-07
10	218065 17876 114 1329875 1.11 99.91 989 1 1 989 989
11	235941 21548 114 1329875 1.11 99.91 989 -0.083077 0.00370923 -1.0678233626731 0.071964913797578
12	257489 28428 114 1329875 1.11 99.91 989 -0.104496 0.00576375 -0.70025218562383 0.054861452154899
13	285917 19659 114 1329875 1.11 99.91 989 35.9942 36.1111 35614.6859 1282514.5463474
14	305576 23794 114 1329875 1.11 99.91 989 70.8599 3628.72 1829915.8113 4430754917.1815
15	329370 22821 114 1329875 1.11 99.91 989 242.45 245.75 242749.75 59583743.4125
16	352191 22160 115 1329876 1.11 99.91 989 -1 94.7396 38306.444589 2652553.0301357
17	374351 20749 115 1329876 1.11 99.91 989 -1.02735 10.6115 748.29683691635 2868.2240721223
18	395100 18865 115 1329876 1.11 99.91 989 10 10 9890 98900
19	413965 25529 115 1329876 1.11 99.91 989 -2.98818 1.5 8.9331574745841 540.23251647035
20	439494 26988 115 1329876 1.11 99.91 989 -3.04189 1.5 9.138900122094 599.88887015878
21	466482 20952 115 1329876 1.11 99.91 989 23.1304 37.1039 35407.7345 1276970.9005195
22	487434 23319 115 1329876 1.11 99.91 989 16.8599 3553.98 1725251.9767 4059989561.3759
23	510753 22821 115 1329876 1.11 99.91 989 242.45 252.35 246214.75 61305129.672502
24	533574 20340 116 1329877 1.11 99.91 989 -1 43.3122 9025.90732 351994.7608306
25	553914 20640 116 1329877 1.11 99.91 989 -9.85973e-06 5.52568 314.58539583163 810.51001622533
26	574554 18865 116 1329877 1.11 99.91 989 11 11 10879 119669
27	593419 23959 116 1329877 1.11 99.91 989 -2.8852 1.46145 18.964851966357 213.25400932345
28	617378 27177 116 1329877 1.11 99.91 989 -3.60476 1.5 19.399363819125 291.44255877945
29	644555 21225 116 1329877 1.11 99.91 989 30.38 38.0887 36455.6312 1346471.6226564
30	665780 23761 116 1329877 1.11 99.91 989 10.8599 3652.72 1776937.2929 4298165032.2666
31	689541 22821 116 1329877 1.11 99.91 989 242.45 249.05 244709.95 60554107.752502
32	712362 18865 117 1329878 1.11 99.91 989 -1 -1 -989 989
33	731227 17876 117 1329878 1.11 99.91 989 0 0 0 0
34	749103 18865 117 1329878 1.11 99.91 989 12 12 11868 142416
35	767968 20164 117 1329878 1.11 99.91 989 -3.14892e-05 0.000707784 0.010991577126781 6.0508064149601e-06
36	788132 27822 117 1329878 1.11 99.91 989 -4.89399e-05 0.00109259 0.010614843047836 8.6815283230331e-06
37	815954 23803 117 1329878 1.11 99.91 989 36.11 36.1111 35713.866699999 1289666.6073546
38	839757 23611 117 1329878 1.11 99.91 989 9362.02 12929.8 11023305.5 123915987195.91
39	863368 22821 117 1329878 1.11 99.91 989 242.45 242.45 239783.05 58135400.472499
40	886189 21587 118 1329879 1.11 99.91 989 -1 14.9837 5573.22682 79262.806019749
41	907776 22357 118 1329879 1.11 99.91 989 -2.36679e-05 1.03507 129.83833231787 88.990771642547
42	930133 18865 118 1329879 1.11 99.91 989 13 13 12857 167141
43	948998 25601 118 1329879 1.11 99.91 989 -0.393657 0.0836409 -1.0687527148434 3.6235579701881
44	974599 27267 118 1329879 1.11 99.91 989 -0.518252 0.0843282 -0.57532220537962 4.2175424580122
45	1001866 21981 118 1329879 1.11 99.91 989 35.076 36.1111 35537.5982 1277030.2289825
46	1023847 23555 118 1329879 1.11 99.91 989 9356.02 12906.2 11006020.13 123521661290.88
47	1047402 22821 118 1329879 1.11 99.91 989 242.45 245.75 241185.55 58820100.9725
48	1070223 23687 119 1329880 1.11 99.91 989 2 127.691 39027.2421 2957722.8945676
49	1093910 24633 119 1329880 1.11 99.91 989 0 4.04679 1493.8940092665 4623.7425528974
50	1118543 18865 119 1329880 1.11 99.91 989 14 14 13846 193844
51	1137408 25738 119 1329880 1.11 99.91 989 -1.4333 0.129362 -31.058027025433 44.926332214496
52	1163146 26724 119 1329880 1.11 99.91 989 -1.5 0.130141 -30.081981762798 53.490147867692
53	1189870 22173 119 1329880 1.11 99.91 989 32.9008 36.1111 34176.2876 1182875.2352338
54	1212043 23640 119 1329880 1.11 99.91 989 9350.02 12764.2 10964732.66 122533554460.46
55	1235683 22821 119 1329880 1.11 99.91 989 242.45 242.45 239783.05 58135400.472499
56	1258504 23650 120 1329881 1.11 99.91 989 2 67.1623 25334.09282 1050187.1800349
57	1282154 25280 120 1329881 1.11 99.91 989 -0.935689 1.14022 150.90365206559 201.4199319614
58	1307434 18865 120 1329881 1.11 99.91 989 15 15 14835 222525
59	1326299 26042 120 1329881 1.11 99.91 989 -1.4958 0.674928 8.9368562467853 33.796922064112
60	1352341 26042 120 1329881 1.11 99.91 989 -2.51499 1.0497 11.43678514933 52.060676466022
61	1378383 23648 120 1329881 1.11 99.91 989 33.6801 37.0468 35268.903 1258335.7997889
62	1402031 23626 120 1329881 1.11 99.91 989 9344.02 12867.3 10971223.86 122726531840.31
63	1425657 22821 120 1329881 1.11 99.91 989 242.45 245.75 240812.65 58638051.1925
64	1448478 23646 121 1329882 1.11 99.91 989 2 50.1535 37878.85179 1659274.7849261
65	1472124 23980 121 1329882 1.11 99.91 989 0 3.1981 421.5876016868 657.57395192484
66	1496104 17876 121 1329882 1.11 99.91 989 2 2 1978 3956
67	1513980 23931 121 1329882 1.11 99.91 989 -2.02228 0.353912 -1.0448635503075 54.295807339296
68	1537911 27257 121 1329882 1.11 99.91 989 -3.08596 0.399174 0.35015095551902 75.376319332026
69	1565168 21239 121 1329882 1.11 99.91 989 32.913 36.1111 35292.2776 1259876.0904019
70	1586407 23746 121 1329882 1.11 99.91 989 64.8599 3590.48 1797902.9963 4297067634.7834
71	1610153 22821 121 1329882 1.11 99.91 989 242.45 242.45 239783.05 58135400.472499
72	1632974 23639 122 1329883 1.11 99.91 989 2 45.1935 35601.51071 1497700.3280529
73	1656613 25620 122 1329883 1.11 99.91 989 0 3.57768 431.93513159613 850.72713652641
74	1682233 17876 122 1329883 1.11 99.91 989 3 3 2967 8901
75	1700109 26436 122 1329883 1.11 99.91 989 -2.88427 0.676211 -1.0475121130989 167.02547144408
76	1726545 26481 122 1329883 1.11 99.91 989 -3.60523 0.726201 0.51897105283262 201.3932707248
77	1753026 23709 122 1329883 1.11 99.91 989 29.6066 36.1111 34860.341 1230972.2447263
78	1776735 23653 122 1329883 1.11 99.91 989 58.8599 3541.29 1758346.6175 4131391222.2668
79	1800388 22821 122 1329883 1.11 99.91 989 242.45 242.45 239783.05 58135400.472499
80	1823209 23653 123 1329884 1.11 99.91 989 2 99.7639 50412.40167 3403691.7416757
81	1846862 24808 123 1329884 1.11 99.91 989 0 3.51461 978.13825917682 1383.6222558201
82	1871670 17876 123 1329884 1.11 99.91 989 4 4 3956 15824
83	1889546 23312 123 1329884 1.11 99.91 989 -3.14921 0.939775 -11.040986646335 280.10645023209
84	1912858 27030 123 1329884 1.11 99.91 989 -3.60808 0.988893 -9.4751713362555 316.29432748809
85	1939888 20901 123 1329884 1.11 99.91 989 26.6616 36.1111 33882.2041 1164813.1607255
86	1960789 23769 123 1329884 1.11 99.91 989 52.8599 3437.52 1703975.4609 3884513548.3726
87	1984558 22821 123 1329884 1.11 99.91 989 242.45 242.45 239783.05 58135400.472499
88	2007379 23646 124 1329885 1.11 99.91 989 2 64.6964 37781.94334 1767142.4817057
89	2031025 25731 124 1329885 1.11 99.91 989 -1.70508 4.85361 280.10457438284 1351.6052677332
90	2056756 17876 124 1329885 1.11 99.91 989 5 5 4945 24725
91	2074632 26367 124 1329885 1.11 99.91 989 -3.20588 1.49146 11.029232752609 452.05954927847
92	2100999 26307 124 1329885 1.11 99.91 989 -3.60808 1.5 13.571977043126 499.98370335307
93	2127306 22759 124 1329885 1.11 99.91 989 24.0331 38.0967 34583.0242 1222113.5216904
94	2150065 23737 124 1329885 1.11 99.91 989 46.8599 3501.5 1687473.2982 3864143833.4774
95	2173802 22821 124 1329885 1.11 99.91 989 242.45 252.35 244257.85 60341538.252501
96	2196623 23400 125 1329886 1.11 99.91 989 -1 127.825 76572.829660001 8062547.8063085
97	2220023 25844 125 1329886 1.11 99.91 989 -2.9416 12.2845 632.2547680902 5689.3496530999
98	2245867 17876 125 1329886 1.11 99.91 989 6 6 5934 35604
99	2263743 23757 125 1329886 1.11 99.91 989 -3.21206 1.5 -1.067723222858 595.64104311437
100	2287500 27810 125 1329886 1.11 99.91 989 -3.60808 1.5 -0.26332962821276 641.30678281176
101	2315310 22214 125 1329886 1.11 99.91 989 21.6804 36.1111 34104.5353 1188428.6446795
102	2337524 24748 125 1329886 1.11 99.91 989 40.8599 3447.71 1678779.1116 3818591950.2814
103	2362272 23810 125 1329886 1.11 99.91 989 242.45 249.05 243690.25 60050779.8725
104	2386082 21908 126 1329887 1.11 99.91 989 -1 85.4862 11279.56506 561524.08075012
105	2407990 22033 126 1329887 1.11 99.91 989 -3.23719e-07 13.8384 913.41066541809 6741.6612997254
106	2430023 18865 126 1329887 1.11 99.91 989 7 7 6923 48461
107	2448888 25362 126 1329887 1.11 99.91 989 -3.21239 1.5 18.950806555393 634.61884717651
108	2474250 27572 126 1329887 1.11 99.91 989 -3.60808 1.5 19.714339360639 689.97416415113
109	2501822 22493 126 1329887 1.11 99.91 989 20.4607 38.0601 35304.7439 1278010.8820028
110	2524315 24745 126 1329887 1.11 99.91 989 34.8599 3561.63 1708368.6597 3997059941.3818
111	2549060 23810 126 1329887 1.11 99.91 989 242.45 252.35 247775.65 62088483.672501
112	2572870 22831 127 1329888 1.11 99.91 989 -1 124.132 47373.8342 4080333.2545343
113	2595701 20858 127 1329888 1.11 99.91 989 -1.21601e-06 2.99868 1414.1330440311 3373.839506438
114	2616559 18865 127 1329888 1.11 99.91 989 8 8 7912 63296
115	2635424 22906 127 1329888 1.11 99.91 989 -1.43406 0.0638699 -31.057112089475 35.421468134924
116	2658330 28618 127 1329888 1.11 99.91 989 -1.5 0.099156 -30.208034822294 42.36270929962
117	2686948 20850 127 1329888 1.11 99.91 989 32.9008 36.1111 32960.9966 1099376.3680085
118	2707798 23936 127 1329888 1.11 99.91 989 28.8599 3321.5 1671005.1524 3706357209.1802
119	2731734 23810 127 1329888 1.11 99.91 989 242.45 249.05 242254.75000001 59348248.152499
120	2755544 24536 128 1329889 1.11 99.91 989 2 45.1998 40680.08934 1824963.9128197
121	2780080 27893 128 1329889 1.11 99.91 989 -1.02748e-06 0.0977953 11.99567426085 0.65066797747276
122	2807973 18865 128 1329889 1.11 99.91 989 9 9 8901 80109
123	2826838 28367 128 1329889 1.11 99.91 989 -0.178111 0.0125735 -1.0324940991033 0.21212896782866
124	2855205 28398 128 1329889 1.11 99.91 989 -0.102655 0.0139186 -0.100048262615 0.076642534305793
125	2883603 24208 128 1329889 1.11 99.91 989 35.8985 36.1111 35602.6921 1281651.6041999
126	2907811 24750 128 1329889 1.11 99.91 989 22.8599 3579.52 1781501.3089 4253321963.7575
127	2932561 23810 128 1329889 1.11 99.91 989 242.45 245.75 242749.75 59583743.4125
128	2956371 41370 1513 1329942 1.212424100764 99.912419318633 988 0.09999008075 0.100006713615 98.799998298619 9.8799996990335
129	2997741 28616 1513 1329942 1.212424100764 99.912419318633 988 2 2 1976 3952
130	3026357 41363 1608 1330031 1.212847160806 99.91280404309 988 0.099899686818 0.100097214636 98.799907963034 9.8799833249068
131	3067720 28597 1608 1330031 1.212847160806 99.91280404309 988 5 5 4940 24700
132	3096317 41358 1708 1330149 1.234356200834 99.934365502834 988 0.09999008075 0.100006717689 98.79999938275 9.8799999158908
133	3137675 28609 1708 1330149 1.234356200834 99.934365502834 988 3 3 2964 8892
134	3166284 41347 1889 1330318 1.248689140098 99.948699798513 988 0.099993501075 0.100012105566 98.800008778499 9.8800017733014
135	3207631 29596 1889 1330318 1.248689140098 99.948699798513 988 14 14 13832 193648
136	3237227 41348 1937 1330372 1.251114420987 99.95111087805 988 0.09999008075 0.100006718688 98.799999537813 9.8799999468777
137	3278575 29607 1937 1330372 1.251114420987 99.95111087805 988 10 10 9880 98800
138	3308182 41373 2038 1330491 1.251550441001 99.951509514757 988 0.09990133891 0.100097322633 98.800014154506 9.8800047707282
139	3349555 28642 2038 1330491 1.251550441001 99.951509514757 988 9 9 8892 80028
140	3378197 41366 2136 1330601 1.25313054107 99.953128733436 988 0.099990080751 0.100006717947 98.800001273116 9.8800002938864
141	3419563 28620 2136 1330601 1.25313054107 99.953128733436 988 4 4 3952 15808
142	3448183 41355 2234 1330675 1.253930601112 99.953942080465 988 0.09999008075 0.100006721686 98.800001560103 9.8800003513637
143	3489538 28614 2234 1330675 1.253930601112 99.953942080465 988 7 7 6916 48412
144	3518152 41349 2317 1330734 1.263880160112 99.96387814309 988 0.099993501095 0.100012100676 98.800009103062 9.8800018382097
145	3559501 29589 2317 1330734 1.263880160112 99.96387814309 988 15 15 14820 222300
146	3589090 41357 2368 1330797 1.271916621126 99.971915059492 988 0.09999008075 0.100006721824 98.800001519116 9.8800003431517
147	3630447 28619 2368 1330797 1.271916621126 99.971915059492 988 6 6 5928 35568
148	3659066 41359 2467 1330944 1.287159661154 99.987158883504 988 0.099990080751 0.100006719946 98.8000023031 9.8800004999066
149	3700425 28610 2467 1330944 1.287159661154 99.987158883504 988 8 8 7904 63232
150	3729035 41352 2578 1331001 1.297369240168 99.997367431028 988 0.09999239257 0.100012087967 98.799996310944 9.8799992795592
151	3770387 29597 2578 1331001 1.297369240168 99.997367431028 988 13 13 12844 166972
152	3799984 41352 2578 1331001 1.297369240168 99.997367431028 988 0.09999239257 0.100012087967 98.799996310944 9.8799992795592
153	3841336 29597 2578 1331001 1.297369240168 99.997367431028 988 13 13 12844 166972
154	3870933 41352 2584 1331013 1.297369260182 99.997367904761 988 0.099992391623 0.100012088967 98.799996764663 9.879999370303
155	3912285 29607 2584 1331013 1.297369260182 99.997367904761 988 14 14 13832 193648
156	3941892 41335 2590 1331007 1.297369280196 99.997367559784 988 0.099992391628 0.100012087633 98.799996399672 9.8799992973048
157	3983227 29603 2590 1331007 1.297369280196 99.997367559784 988 15 15 14820 222300
158	4012830 41387 2628 1331057 1.297787801251 99.997786413105 988 0.099990080751 0.100006717689 98.800001692604 9.8800003778025
159	4054217 28624 2628 1331057 1.297787801251 99.997786413105 988 1 1 988 988
160	4082841 41387 2628 1331057 1.297787801251 99.997786413105 988 0.099990080751 0.100006717689 98.800001692604 9.8800003778025
161	4124228 28624 2628 1331057 1.297787801251 99.997786413105 988 1 1 988 988
162	4152852 41367 2634 1331063 1.297787821265 99.997786539534 988 0.099990080751 0.10000671769 98.800001799019 9.8800003990855
163	4194219 28622 2634 1331063 1.297787821265 99.997786539534 988 2 2 1976 3952
164	4222841 41365 2640 1331087 1.297787841279 99.997786703626 988 0.099990080751 0.100006717691 98.800001943097 9.8800004279011
165	4264206 28612 2640 1331087 1.297787841279 99.997786703626 988 3 3 2964 8892
166	4292818 41359 2646 1331105 1.297787861292 99.997787050045 988 0.099990080751 0.100006718023 98.800002269503 9.8800004931823
167	4334177 28623 2646 1331105 1.297787861292 99.997787050045 988 4 4 3952 15808
168	4362800 41360 2652 1331093 1.297787881306 99.997786836504 988 0.099990080751 0.100006717288 98.800002035948 9.8800004464713
169	4404160 28620 2652 1331093 1.297787881306 99.997786836504 988 5 5 4940 24700
170	4432780 41362 2658 1331099 1.29778790132 99.99778701587 988 0.099990080751 0.10000671769 98.8000021953 9.8800004783417
171	4474142 28615 2658 1331099 1.29778790132 99.99778701587 988 6 6 5928 35568
172	4502757 41369 2664 1331075 1.297787921334 99.997786637145 988 0.099990080751 0.100006717027 98.800001796561 9.8800003985939
173	4544126 28626 2664 1331075 1.297787921334 99.997786637145 988 7 7 6916 48412
174	4572752 41375 2670 1331111 1.297787941348 99.997787437649 988 0.099990080751 0.10000671869 98.800002577051 9.8800005546919
175	4614127 28619 2670 1331111 1.297787941348 99.997787437649 988 8 8 7904 63232
176	4642746 41348 2676 1331069 1.297787961362 99.997786576368 988 0.099990080751 0.10000671769 98.800001695756 9.8800003784329
177	4684094 28612 2676 1331069 1.297787961362 99.997786576368 988 9 9 8892 80028
178	4712706 41386 2682 1331081 1.297787981375 99.9977866618 988 0.099990080751 0.100006717357 98.800001761175 9.8800003915167
179	4754092 29620 2682 1331081 1.297787981375 99.9977866618 988 10 10 9880 98800
180	4783712 41376 2688 1331051 1.297788001389 99.99778639411 988 0.099990080751 0.100006718138 98.800001473471 9.8800003339759
181	4825088 29620 2688 1331051 1.297788001389 99.99778639411 988 11 11 10868 119548
182	4854708 41334 2727 1329854 1.307207001389 99.907199270395 987 0.099990080751 0.100006710871 98.699995349756 9.8699991092118
183	4896042 29597 2727 1329854 1.307207001389 99.907199270395 987 11 11 10857 119427
184	4925639 1595 12056 1331113 2 100 99 0 0 0 0
185	4927234 2196 12056 1331113 2 100 99 0.033393 0.04101736236 3.70706036236 0.13884025896397
186	4929430 1595 12056 1331113 2 100 99 0 0 0 0
187	4931025 1595 12057 1331114 2 100 99 1 1 99 99
188	4932620 2197 12057 1331114 2 100 99 0.033393 0.040458960669 3.706501960669 0.13879476244742
189	4934817 1595 12057 1331114 2 100 99 0 0 0 0
190	4936412 1694 12058 1331115 2 100 99 10 10 990 9900
191	4938106 2197 12058 1331115 2 100 99 0.033392 0.040458640447 3.706500640447 0.13879466975082
192	4940303 1595 12058 1331115 2 100 99 0 0 0 0
193	4941898 1694 12059 1331116 2 100 99 11 11 1089 11979
194	4943592 2197 12059 1331116 2 100 99 0.033393 0.040586720503 3.706629720503 0.13880511683019
195	4945789 1595 12059 1331116 2 100 99 0 0 0 0
196	4947384 1694 12060 1331117 2 100 99 12 12 1188 14256
197	4949078 2200 12060 1331117 2 100 99 0.011241 0.013069758928 1.236177758928 0.015437650512436
198	4951278 1595 12060 1331117 2 100 99 0 0 0 0
199	4952873 1694 12061 1331118 2 100 99 13 13 1287 16731
200	4954567 2198 12061 1331118 2 100 99 0.011241 0.01297 1.23604612609 0.01543424864031
201	4956765 1595 12061 1331118 2 100 99 0 0 0 0
202	4958360 1694 12062 1331119 2 100 99 14 14 1386 19404
203	4960054 2199 12062 1331119 2 100 99 0.011241 0.01297 1.236046252586 0.015434251836912
204	4962253 1595 12062 1331119 2 100 99 0 0 0 0
205	4963848 1694 12063 1331120 2 100 99 15 15 1485 22275
206	4965542 2200 12063 1331120 2 100 99 0.011241 0.013003379186 1.236046379186 0.015434279603255
207	4967742 1595 12063 1331120 2 100 99 0 0 0 0
208	4969337 1595 12064 1331121 2 100 99 2 2 198 396
209	4970932 2195 12064 1331121 2 100 99 0.033393 0.0404587205 3.7065017205 0.1387947430135
210	4973127 1595 12064 1331121 2 100 99 0 0 0 0
211	4974722 1595 12065 1331122 2 100 99 3 3 297 891
212	4976317 2197 12065 1331122 2 100 99 0.033393 0.040458680472 3.706501680472 0.13879473977454
213	4978514 1595 12065 1331122 2 100 99 0 0 0 0
214	4980109 1595 12066 1331123 2 100 99 4 4 396 1584
215	4981704 2196 12066 1331123 2 100 99 0.033393 0.04051908075 3.70656208075 0.13879963085383
216	4983900 1595 12066 1331123 2 100 99 0 0 0 0
217	4985495 1595 12067 1331124 2 100 99 5 5 495 2475
218	4987090 2197 12067 1331124 2 100 99 0.033393 0.040592160805 3.706635160805 0.13880555846782
219	4989287 1595 12067 1331124 2 100 99 0 0 0 0
220	4990882 1595 12068 1331125 2 100 99 6 6 594 3564
221	4992477 2196 12068 1331125 2 100 99 0.033393 0.04065224086 3.70669524086 0.13881043963594
222	4994673 1595 12068 1331125 2 100 99 0 0 0 0
223	4996268 1595 12069 1331126 2 100 99 7 7 693 4851
224	4997863 2196 12069 1331126 2 100 99 0.033393 0.04067212078 3.70671512078 0.13881205635774
225	5000059 1595 12069 1331126 2 100 99 0 0 0 0
226	5001654 1595 12070 1331127 2 100 99 8 8 792 6336
227	5003249 2197 12070 1331127 2 100 99 0.033393 0.040673800559 3.706716800559 0.13881219300091
228	5005446 1595 12070 1331127 2 100 99 0 0 0 0
229	5007041 1595 12071 1331128 2 100 99 9 9 891 8019
230	5008636 2196 12071 1331128 2 100 99 0.033393 0.04061196067 3.70665496067 0.13880716629846
231	5010832 1595 12071 1331128 2 100 99 0 0 0 0

