version 3
run BreakRanksNoGui-413-20240711-15:03:39-293247
attr configname BreakRanksNoGui
attr datetime 20240711-15:03:39
attr datetimef 20240711-150339
attr experiment BreakRanksNoGui
attr inifile omnetpp.ini
attr iterationvars "$nCars=3, $platoonSize=3, $nLanes=1, $ploegH=0.5, $controller=1, $headway=0.1, $leaderHeadway=1.2, $leaderSpeed=130, $breakRanksSafetyDistance=20, $minSpeed=120, $maxSpeed=140, $beaconInterval=0.1, $priority=4, $packetSize=200, $sController=\"CACC\", $0=2, $1=0"
attr iterationvarsd nCars=3/platoonSize=3/nLanes=1/ploegH=0.5/controller=1/headway=0.1/leaderHeadway=1.2/leaderSpeed=130/breakRanksSafetyDistance=20/minSpeed=120/maxSpeed=140/beaconInterval=0.1/priority=4/packetSize=200/sController=CACC/2/0
attr iterationvarsf nCars=3,platoonSize=3,nLanes=1,ploegH=0.5,controller=1,headway=0.1,leaderHeadway=1.2,leaderSpeed=130,breakRanksSafetyDistance=20,minSpeed=120,maxSpeed=140,beaconInterval=0.1,priority=4,packetSize=200,sController=CACC,2,0-
attr measurement "$nCars=3, $platoonSize=3, $nLanes=1, $ploegH=0.5, $controller=1, $headway=0.1, $leaderHeadway=1.2, $leaderSpeed=130, $breakRanksSafetyDistance=20, $minSpeed=120, $maxSpeed=140, $beaconInterval=0.1, $priority=4, $packetSize=200, $sController=\"CACC\", $0=2, $1=0"
attr network Highway
attr processid 293247
attr repetition 3
attr replication #3
attr resultdir results
attr runnumber 413
attr seedset 3
itervar beaconInterval 0.1
itervar breakRanksSafetyDistance 20
itervar controller 1
itervar headway 0.1
itervar leaderHeadway 1.2
itervar leaderSpeed 130
itervar maxSpeed 140
itervar minSpeed 120
itervar nCars 3
itervar nLanes 1
itervar packetSize 200
itervar platoonSize 3
itervar ploegH 0.5
itervar priority 4
itervar sController "\"CACC\""
config image-path ../../../veins/images
config repeat 10
config extends BreakRanks
config *.manager.command "\"sumo\""
config *.manager.ignoreGuiCommands true
config output-vector-file "results/BreakRanks_1_0.1_130_20_3 /result_3.vec"
config output-scalar-file "results/BreakRanks_1_0.1_130_20_3 /result_3.sca"
config extends Platooning
config *.node[*].scenario_type "\"BreakRanksScenario\""
config *.manager.command "\"sumo-gui\""
config *.node[*].scenario_type "\"SimpleScenario\""
config cmdenv-express-mode true
config cmdenv-autoflush true
config cmdenv-status-frequency 15s
config num-rngs 6
config network Highway
config debug-on-errors true
config print-undisposed true
config *.playgroundSizeX 65000m
config *.playgroundSizeY 25000m
config *.playgroundSizeZ 50m
config sim-time-limit "100 s"
config *.annotations.draw false
config *.obstacles.debug false
config *.world.useTorus false
config *.world.use2D false
config *.manager.updateInterval 0.01s
config *.manager.host "\"localhost\""
config *.manager.moduleType "\"org.car2x.plexe.PlatoonCar\""
config *.manager.moduleName "\"node\""
config *.manager.moduleDisplayString "\"\""
config *.manager.autoShutdown true
config *.manager.margin 25
config *.connectionManager.sendDirect true
config *.connectionManager.maxInterfDist 2600m
config *.connectionManager.drawMaxIntfDist false
config *.**.nic.mac1609_4.useServiceChannel false
config *.**.nic.mac1609_4.txPower 100mW
config *.**.nic.mac1609_4.bitrate 6Mbps
config *.**.nic.mac1609_4.useAcks true
config *.**.nic.mac1609_4.ackErrorRate 0.0
config *.**.nic.mac1609_4.frameErrorRate 0.0
config *.**.nic.phy80211p.minPowerLevel -94dBm
config *.**.nic.phy80211p.maxTXPower 100mW
config *.**.nic.phy80211p.useNoiseFloor true
config *.**.nic.phy80211p.noiseFloor -95dBm
config *.**.nic.phy80211p.decider "xmldoc(\"config.xml\")"
config *.**.nic.phy80211p.analogueModels "xmldoc(\"config.xml\")"
config *.**.nic.phy80211p.usePropagationDelay true
config *.node[*].mobility.x 0
config *.node[*].mobility.y 0
config *.node[*].mobility.z 1.895
config seed-set 3
config **.seed 3
config *.node[*].prot.rng-0 2
config *.node[*].appl.rng-0 3
config *.node[*].scenario.rng-0 4
config **.traffic.rng-0 5
config *.manager.configFile "\"./sumocfg/freeway.sumo.cfg\""
config *.manager.launchConfig "xmldoc(\"./sumocfg/freeway.launchd.xml\")"
config **.numberOfCars 3
config **.numberOfCarsPerPlatoon 3
config **.numberOfLanes 1
config *.node[*].helper_type "\"PositionHelper\""
config *.node[*].scenario.caccC1 0.5
config *.node[*].scenario.caccXi 1
config *.node[*].scenario.caccOmegaN "0.2 Hz"
config *.node[*].scenario.caccSpacing "2 m"
config *.node[*].scenario.engineTau "0.5 s"
config *.node[*].scenario.ploegH 0.5s
config *.node[*].scenario.ploegKp 0.2
config *.node[*].scenario.ploegKd 0.7
config *.node[*].scenario.useRealisticEngine false
config *.node[*].scenario.useControllerAcceleration true
config *.node[*].scenario.nLanes 1
config **.numericController 1
config **.headway 0.1s
config *.node[*].scenario.accHeadway 0.1s
config *.node[*].scenario.leaderHeadway 1.2s
config *.node[*].scenario.leaderSpeed 130kmph
config *.node[*].appl_type "\"SimplePlatooningApp\""
config *.node[*].appl.*.scalar-recording true
config *.node[*].appl.*.vector-recording true
config *.node[0].appl.breakRanksSafetyDistance 20m
config *.node[*].appl.minSpeed 120kmph
config *.node[*].appl.maxSpeed 140kmph
config *.node[*].protocol_type "\"SimplePlatooningBeaconing\""
config *.node[*].prot.*.scalar-recording true
config *.node[*].prot.*.vector-recording true
config *.node[*].prot.beaconingInterval 0.1s
config *.node[*].prot.priority 4
config *.node[*].prot.packetSize 200
config **.traffic_type "\"PlatoonsTrafficManager\""
config **.traffic.platoonInsertTime "1 s"
config **.traffic.platoonInsertSpeed 130kmph
config **.traffic.nCars 3
config **.traffic.platoonSize 3
config **.traffic.nLanes 1
config **.traffic.platooningVType "\"vtypeauto\""
config **.traffic.controller "\"CACC\""
config **.traffic.platoonInsertDistance 2m
config **.traffic.platoonInsertHeadway 0s
config **.traffic.platoonLeaderHeadway 1.2s
config **.scalar-recording false
config **.vector-recording false

vector 0 Highway.node[0].appl distance ETV
vector 1 Highway.node[0].appl relativeSpeed ETV
vector 2 Highway.node[0].appl nodeId ETV
vector 3 Highway.node[0].appl acceleration ETV
vector 4 Highway.node[0].appl controllerAcceleration ETV
vector 5 Highway.node[0].appl speed ETV
vector 6 Highway.node[0].appl posx ETV
vector 7 Highway.node[0].appl posy ETV
vector 8 Highway.node[1].appl distance ETV
vector 9 Highway.node[1].appl relativeSpeed ETV
vector 10 Highway.node[1].appl nodeId ETV
vector 11 Highway.node[1].appl acceleration ETV
vector 12 Highway.node[1].appl controllerAcceleration ETV
vector 13 Highway.node[1].appl speed ETV
vector 14 Highway.node[1].appl posx ETV
vector 15 Highway.node[1].appl posy ETV
vector 16 Highway.node[2].appl distance ETV
vector 17 Highway.node[2].appl relativeSpeed ETV
vector 18 Highway.node[2].appl nodeId ETV
vector 19 Highway.node[2].appl acceleration ETV
vector 20 Highway.node[2].appl controllerAcceleration ETV
vector 21 Highway.node[2].appl speed ETV
vector 22 Highway.node[2].appl posx ETV
vector 23 Highway.node[2].appl posy ETV
vector 24 Highway.node[1].prot leaderDelay ETV
vector 25 Highway.node[1].prot leaderDelayId ETV
vector 26 Highway.node[1].prot frontDelay ETV
vector 27 Highway.node[1].prot frontDelayId ETV
vector 28 Highway.node[2].prot leaderDelay ETV
vector 29 Highway.node[2].prot leaderDelayId ETV
vector 30 Highway.node[2].prot frontDelay ETV
vector 31 Highway.node[2].prot frontDelayId ETV
vector 32 Highway.node[0].prot nodeId ETV
vector 33 Highway.node[0].prot busyTime ETV
vector 34 Highway.node[0].prot collisions ETV
vector 35 Highway.node[1].prot nodeId ETV
vector 36 Highway.node[1].prot busyTime ETV
vector 37 Highway.node[1].prot collisions ETV
vector 38 Highway.node[2].prot nodeId ETV
vector 39 Highway.node[2].prot busyTime ETV
vector 40 Highway.node[2].prot collisions ETV
0	113	1.11	-1
0	204	1.21	-1
0	295	1.31	-1
0	386	1.41	-1
0	477	1.51	-1
0	568	1.61	-1
0	659	1.71	-1
0	750	1.81	-1
0	841	1.91	-1
0	935	2.01	-1
0	1026	2.11	-1
0	1117	2.21	-1
0	1208	2.31	-1
0	1299	2.41	-1
0	1390	2.51	-1
0	1481	2.61	-1
0	1572	2.71	-1
0	1663	2.81	-1
0	1754	2.91	-1
0	1848	3.01	-1
0	1939	3.11	-1
0	2030	3.21	-1
0	2121	3.31	-1
0	2212	3.41	-1
0	2303	3.51	-1
0	2394	3.61	-1
0	2485	3.71	-1
0	2576	3.81	-1
0	2667	3.91	-1
0	2761	4.01	-1
0	2852	4.11	-1
0	2943	4.21	-1
0	3034	4.31	-1
0	3125	4.41	-1
0	3216	4.51	-1
0	3307	4.61	-1
0	3398	4.71	-1
0	3489	4.81	-1
0	3580	4.91	-1
0	3674	5.01	-1
0	3765	5.11	-1
0	3856	5.21	-1
0	3947	5.31	-1
0	4038	5.41	-1
0	4129	5.51	-1
0	4220	5.61	-1
0	4311	5.71	-1
0	4402	5.81	-1
0	4493	5.91	-1
0	4587	6.01	-1
0	4678	6.11	-1
0	4769	6.21	-1
0	4860	6.31	-1
0	4951	6.41	-1
0	5042	6.51	-1
0	5133	6.61	-1
0	5224	6.71	-1
0	5315	6.81	-1
0	5406	6.91	-1
0	5500	7.01	-1
0	5591	7.11	-1
0	5682	7.21	-1
0	5773	7.31	-1
0	5864	7.41	-1
0	5955	7.51	-1
0	6046	7.61	-1
0	6137	7.71	-1
0	6228	7.81	-1
0	6319	7.91	-1
0	6413	8.01	-1
0	6504	8.11	-1
0	6595	8.21	-1
0	6686	8.31	-1
0	6777	8.41	-1
0	6868	8.51	-1
0	6959	8.61	-1
0	7050	8.71	-1
0	7141	8.81	-1
0	7232	8.91	-1
0	7326	9.01	-1
0	7417	9.11	-1
0	7508	9.21	-1
0	7599	9.31	-1
0	7690	9.41	-1
0	7781	9.51	-1
0	7872	9.61	-1
0	7963	9.71	-1
0	8054	9.81	-1
0	8145	9.91	-1
0	8268	10.01	-1
0	8361	10.11	-1
0	8454	10.21	-1
0	8547	10.31	-1
0	8640	10.41	-1
0	8733	10.51	-1
0	8826	10.61	-1
0	8919	10.71	-1
0	9012	10.81	-1
0	9105	10.91	-1
0	9201	11.01	-1
0	9294	11.11	-1
0	9387	11.21	-1
0	9480	11.31	-1
0	9573	11.41	-1
0	9666	11.51	-1
0	9759	11.61	-1
0	9852	11.71	-1
0	9945	11.81	-1
0	10038	11.91	-1
0	10134	12.01	-1
0	10227	12.11	-1
0	10320	12.21	-1
0	10413	12.31	-1
0	10506	12.41	-1
0	10599	12.51	-1
0	10692	12.61	-1
0	10785	12.71	-1
0	10878	12.81	-1
0	10971	12.91	-1
0	11067	13.01	-1
0	11160	13.11	-1
0	11253	13.21	-1
0	11346	13.31	-1
0	11439	13.41	-1
0	11532	13.51	-1
0	11625	13.61	-1
0	11718	13.71	-1
0	11811	13.81	-1
0	11904	13.91	-1
0	12000	14.01	-1
0	12093	14.11	-1
0	12186	14.21	-1
0	12279	14.31	-1
0	12372	14.41	-1
0	12465	14.51	-1
0	12558	14.61	-1
0	12651	14.71	-1
0	12744	14.81	-1
0	12837	14.91	-1
0	12933	15.01	-1
0	13026	15.11	-1
0	13119	15.21	-1
0	13212	15.31	-1
0	13305	15.41	-1
0	13398	15.51	-1
0	13491	15.61	-1
0	13584	15.71	-1
0	13677	15.81	-1
0	13770	15.91	-1
0	13866	16.01	-1
0	13959	16.11	-1
0	14052	16.21	-1
0	14145	16.31	-1
0	14238	16.41	-1
0	14331	16.51	-1
0	14424	16.61	-1
0	14517	16.71	-1
0	14610	16.81	-1
0	14703	16.91	-1
0	14799	17.01	-1
0	14892	17.11	-1
0	14985	17.21	-1
0	15078	17.31	-1
0	15171	17.41	-1
0	15264	17.51	-1
0	15357	17.61	-1
0	15450	17.71	-1
0	15543	17.81	-1
0	15636	17.91	-1
0	15732	18.01	-1
0	15825	18.11	-1
0	15918	18.21	-1
0	16011	18.31	-1
0	16104	18.41	-1
0	16197	18.51	-1
0	16290	18.61	-1
0	16383	18.71	-1
0	16476	18.81	-1
0	16569	18.91	-1
0	16665	19.01	-1
0	16758	19.11	-1
0	16851	19.21	-1
0	16944	19.31	-1
0	17037	19.41	-1
0	17130	19.51	-1
0	17223	19.61	-1
0	17316	19.71	-1
0	17409	19.81	-1
0	17502	19.91	-1
0	17598	20.01	-1
0	17691	20.11	-1
0	17784	20.21	-1
0	17877	20.31	-1
0	17970	20.41	-1
0	18063	20.51	-1
0	18156	20.61	-1
0	18249	20.71	-1
0	18342	20.81	-1
0	18435	20.91	-1
0	18531	21.01	-1
0	18624	21.11	-1
0	18717	21.21	-1
0	18810	21.31	-1
0	18903	21.41	-1
0	18996	21.51	-1
0	19089	21.61	-1
0	19182	21.71	-1
0	19275	21.81	-1
0	19368	21.91	-1
0	19464	22.01	-1
0	19557	22.11	-1
0	19650	22.21	-1
0	19743	22.31	-1
0	19836	22.41	-1
0	19929	22.51	-1
0	20022	22.61	-1
0	20115	22.71	-1
0	20208	22.81	-1
0	20301	22.91	-1
0	20397	23.01	-1
0	20490	23.11	-1
0	20583	23.21	-1
0	20676	23.31	-1
0	20769	23.41	-1
0	20862	23.51	-1
0	20955	23.61	-1
0	21048	23.71	-1
0	21141	23.81	-1
0	21234	23.91	-1
0	21330	24.01	-1
0	21423	24.11	-1
0	21516	24.21	-1
0	21609	24.31	-1
0	21702	24.41	-1
0	21795	24.51	-1
0	21888	24.61	-1
0	21981	24.71	-1
0	22074	24.81	-1
0	22167	24.91	-1
0	22263	25.01	-1
0	22356	25.11	-1
0	22449	25.21	-1
0	22542	25.31	-1
0	22635	25.41	-1
0	22728	25.51	-1
0	22821	25.61	-1
0	22914	25.71	-1
0	23007	25.81	-1
0	23100	25.91	-1
0	23196	26.01	-1
0	23289	26.11	-1
0	23382	26.21	-1
0	23475	26.31	-1
0	23568	26.41	-1
0	23661	26.51	-1
0	23754	26.61	-1
0	23847	26.71	-1
0	23940	26.81	-1
0	24033	26.91	-1
0	24129	27.01	-1
0	24222	27.11	-1
0	24315	27.21	-1
0	24408	27.31	-1
0	24501	27.41	-1
0	24594	27.51	-1
0	24687	27.61	-1
0	24780	27.71	-1
0	24873	27.81	-1
0	24966	27.91	-1
0	25062	28.01	-1
0	25155	28.11	-1
0	25248	28.21	-1
0	25341	28.31	-1
0	25434	28.41	-1
0	25527	28.51	-1
0	25620	28.61	-1
0	25713	28.71	-1
0	25806	28.81	-1
0	25899	28.91	-1
0	25995	29.01	-1
0	26088	29.11	-1
0	26181	29.21	-1
0	26274	29.31	-1
0	26367	29.41	-1
0	26460	29.51	-1
0	26553	29.61	-1
0	26646	29.71	-1
0	26739	29.81	-1
0	26832	29.91	-1
0	26928	30.01	-1
0	27021	30.11	-1
0	27114	30.21	-1
0	27207	30.31	-1
0	27300	30.41	-1
0	27393	30.51	-1
0	27486	30.61	-1
0	27579	30.71	-1
0	27672	30.81	-1
0	27765	30.91	-1
0	27861	31.01	-1
0	27954	31.11	-1
0	28047	31.21	-1
0	28140	31.31	-1
0	28233	31.41	-1
0	28326	31.51	-1
0	28419	31.61	-1
0	28512	31.71	-1
0	28605	31.81	-1
0	28698	31.91	-1
0	28794	32.01	-1
0	28887	32.11	-1
0	28980	32.21	-1
0	29073	32.31	-1
0	29166	32.41	-1
0	29259	32.51	-1
0	29352	32.61	-1
0	29445	32.71	-1
0	29538	32.81	-1
0	29631	32.91	-1
0	29727	33.01	-1
0	29820	33.11	-1
0	29913	33.21	-1
0	30006	33.31	-1
0	30099	33.41	-1
0	30192	33.51	-1
0	30285	33.61	-1
0	30378	33.71	-1
0	30471	33.81	-1
0	30564	33.91	-1
0	30660	34.01	-1
0	30753	34.11	-1
0	30846	34.21	-1
0	30939	34.31	-1
0	31032	34.41	-1
0	31125	34.51	-1
0	31218	34.61	-1
0	31311	34.71	-1
0	31404	34.81	-1
0	31497	34.91	-1
0	31593	35.01	-1
0	31686	35.11	-1
0	31779	35.21	-1
0	31872	35.31	-1
0	31965	35.41	-1
0	32058	35.51	-1
0	32151	35.61	-1
0	32244	35.71	-1
0	32337	35.81	-1
0	32430	35.91	-1
0	32526	36.01	-1
0	32619	36.11	-1
0	32712	36.21	-1
0	32805	36.31	-1
0	32898	36.41	-1
0	32991	36.51	-1
0	33084	36.61	-1
0	33177	36.71	-1
0	33270	36.81	-1
0	33363	36.91	-1
0	33459	37.01	-1
0	33552	37.11	-1
0	33645	37.21	-1
0	33738	37.31	-1
0	33831	37.41	-1
0	33924	37.51	-1
0	34017	37.61	-1
0	34110	37.71	-1
0	34203	37.81	-1
0	34296	37.91	-1
0	34392	38.01	-1
0	34485	38.11	-1
0	34578	38.21	-1
0	34671	38.31	-1
0	34764	38.41	-1
0	34857	38.51	-1
0	34950	38.61	-1
0	35043	38.71	-1
0	35136	38.81	-1
0	35229	38.91	-1
0	35325	39.01	-1
0	35418	39.11	-1
0	35511	39.21	-1
0	35604	39.31	-1
0	35697	39.41	-1
0	35790	39.51	-1
0	35883	39.61	-1
0	35976	39.71	-1
0	36069	39.81	-1
0	36162	39.91	-1
0	36258	40.01	-1
0	36351	40.11	-1
0	36444	40.21	-1
0	36537	40.31	-1
0	36630	40.41	-1
0	36723	40.51	-1
0	36816	40.61	-1
0	36909	40.71	-1
0	37002	40.81	-1
0	37095	40.91	-1
0	37191	41.01	-1
0	37284	41.11	-1
0	37377	41.21	-1
0	37470	41.31	-1
0	37563	41.41	-1
0	37656	41.51	-1
0	37749	41.61	-1
0	37842	41.71	-1
0	37935	41.81	-1
0	38028	41.91	-1
0	38124	42.01	-1
0	38217	42.11	-1
0	38310	42.21	-1
0	38403	42.31	-1
0	38496	42.41	-1
0	38589	42.51	-1
0	38682	42.61	-1
0	38775	42.71	-1
0	38868	42.81	-1
0	38961	42.91	-1
0	39057	43.01	-1
0	39150	43.11	-1
0	39243	43.21	-1
0	39336	43.31	-1
0	39429	43.41	-1
0	39522	43.51	-1
0	39615	43.61	-1
0	39708	43.71	-1
0	39801	43.81	-1
0	39894	43.91	-1
0	39990	44.01	-1
0	40083	44.11	-1
0	40176	44.21	-1
0	40269	44.31	-1
0	40362	44.41	-1
0	40455	44.51	-1
0	40548	44.61	-1
0	40641	44.71	-1
0	40734	44.81	-1
0	40827	44.91	-1
0	40923	45.01	-1
0	41016	45.11	-1
0	41109	45.21	-1
0	41202	45.31	-1
0	41295	45.41	-1
0	41388	45.51	-1
0	41481	45.61	-1
0	41574	45.71	-1
0	41667	45.81	-1
0	41760	45.91	-1
0	41856	46.01	-1
0	41949	46.11	-1
0	42042	46.21	-1
0	42135	46.31	-1
0	42228	46.41	-1
0	42321	46.51	-1
0	42414	46.61	-1
0	42507	46.71	-1
0	42600	46.81	-1
0	42693	46.91	-1
0	42789	47.01	-1
0	42882	47.11	-1
0	42975	47.21	-1
0	43068	47.31	-1
0	43161	47.41	-1
0	43254	47.51	-1
0	43347	47.61	-1
0	43440	47.71	-1
0	43533	47.81	-1
0	43669	47.91	-1
0	43764	48.01	-1
0	43856	48.11	-1
0	43948	48.21	-1
0	44040	48.31	-1
0	44132	48.41	-1
0	44224	48.51	-1
0	44316	48.61	-1
0	44408	48.71	-1
0	44500	48.81	-1
0	44592	48.91	-1
0	44687	49.01	-1
0	44779	49.11	-1
0	44871	49.21	-1
0	44963	49.31	-1
0	45055	49.41	-1
0	45147	49.51	-1
0	45239	49.61	-1
0	45331	49.71	-1
0	45423	49.81	-1
0	45515	49.91	-1
0	45610	50.01	-1
0	45702	50.11	-1
0	45794	50.21	-1
0	45886	50.31	-1
0	45978	50.41	-1
0	46070	50.51	-1
0	46162	50.61	-1
0	46254	50.71	-1
0	46346	50.81	-1
0	46438	50.91	-1
0	46533	51.01	-1
0	46625	51.11	-1
0	46717	51.21	-1
0	46809	51.31	-1
0	46901	51.41	-1
0	46993	51.51	-1
0	47085	51.61	-1
0	47177	51.71	-1
0	47269	51.81	-1
0	47361	51.91	-1
0	47456	52.01	-1
0	47548	52.11	-1
0	47640	52.21	-1
0	47732	52.31	-1
0	47824	52.41	-1
0	47916	52.51	-1
0	48008	52.61	-1
0	48100	52.71	-1
0	48192	52.81	-1
0	48284	52.91	-1
0	48379	53.01	-1
0	48471	53.11	-1
0	48563	53.21	-1
0	48655	53.31	-1
0	48747	53.41	-1
0	48839	53.51	-1
0	48931	53.61	-1
0	49023	53.71	-1
0	49115	53.81	-1
0	49207	53.91	-1
0	49302	54.01	-1
0	49394	54.11	-1
0	49615	54.21	-1
0	49706	54.31	-1
0	49797	54.41	-1
0	49888	54.51	-1
0	49979	54.61	-1
0	50070	54.71	-1
0	50161	54.81	-1
0	50252	54.91	-1
0	50346	55.01	-1
0	50437	55.11	-1
0	50528	55.21	-1
0	50619	55.31	-1
0	50710	55.41	-1
0	50801	55.51	-1
0	50892	55.61	-1
0	50983	55.71	-1
0	51074	55.81	-1
0	51165	55.91	-1
0	51259	56.01	-1
0	51350	56.11	-1
0	51441	56.21	-1
0	51532	56.31	-1
0	51623	56.41	-1
0	51714	56.51	-1
0	51805	56.61	-1
0	51896	56.71	-1
0	51987	56.81	-1
0	52078	56.91	-1
0	52172	57.01	-1
0	52263	57.11	-1
0	52354	57.21	-1
0	52445	57.31	-1
0	52536	57.41	-1
0	52627	57.51	-1
0	52718	57.61	-1
0	52809	57.71	-1
0	52900	57.81	-1
0	52991	57.91	-1
0	53085	58.01	-1
0	53176	58.11	-1
0	53267	58.21	-1
0	53358	58.31	-1
0	53449	58.41	-1
0	53540	58.51	-1
0	53631	58.61	-1
0	53722	58.71	-1
0	53813	58.81	-1
0	53904	58.91	-1
0	53998	59.01	-1
0	54089	59.11	-1
0	54180	59.21	-1
0	54271	59.31	-1
0	54362	59.41	-1
0	54453	59.51	-1
0	54544	59.61	-1
0	54635	59.71	-1
0	54726	59.81	-1
0	54817	59.91	-1
0	54911	60.01	-1
0	55002	60.11	-1
0	55093	60.21	-1
0	55184	60.31	-1
0	55275	60.41	-1
0	55366	60.51	-1
0	55457	60.61	-1
0	55548	60.71	-1
0	55639	60.81	-1
0	55730	60.91	-1
0	55824	61.01	-1
0	55915	61.11	-1
0	56006	61.21	-1
0	56097	61.31	-1
0	56188	61.41	-1
0	56279	61.51	-1
0	56370	61.61	-1
0	56461	61.71	-1
0	56552	61.81	-1
0	56643	61.91	-1
0	56737	62.01	-1
0	56828	62.11	-1
0	56919	62.21	-1
0	57010	62.31	-1
0	57101	62.41	-1
0	57192	62.51	-1
0	57283	62.61	-1
0	57374	62.71	-1
0	57465	62.81	-1
0	57556	62.91	-1
0	57650	63.01	-1
0	57741	63.11	-1
0	57832	63.21	-1
0	57923	63.31	-1
0	58014	63.41	-1
0	58105	63.51	-1
0	58196	63.61	-1
0	58287	63.71	-1
0	58378	63.81	-1
0	58469	63.91	-1
0	58563	64.01	-1
0	58654	64.11	-1
0	58745	64.21	-1
0	58836	64.31	-1
0	58927	64.41	-1
0	59018	64.51	-1
0	59109	64.61	-1
0	59200	64.71	-1
0	59291	64.81	-1
0	59382	64.91	-1
0	59476	65.01	-1
0	59567	65.11	-1
0	59658	65.21	-1
0	59749	65.31	-1
0	59840	65.41	-1
0	59931	65.51	-1
0	60022	65.61	-1
0	60113	65.71	-1
0	60204	65.81	-1
0	60295	65.91	-1
0	60389	66.01	-1
0	60480	66.11	-1
0	60571	66.21	-1
0	60662	66.31	-1
0	60753	66.41	-1
0	60844	66.51	-1
0	60935	66.61	-1
0	61026	66.71	-1
0	61117	66.81	-1
0	61208	66.91	-1
0	61302	67.01	-1
0	61393	67.11	-1
0	61484	67.21	-1
0	61575	67.31	-1
0	61666	67.41	-1
0	61757	67.51	-1
0	61848	67.61	-1
0	61939	67.71	-1
0	62030	67.81	-1
0	62121	67.91	-1
0	62215	68.01	-1
0	62306	68.11	-1
0	62397	68.21	-1
0	62488	68.31	-1
0	62579	68.41	-1
0	62670	68.51	-1
0	62761	68.61	-1
0	62852	68.71	-1
0	62943	68.81	-1
0	63034	68.91	-1
0	63128	69.01	-1
0	63219	69.11	-1
0	63310	69.21	-1
0	63401	69.31	-1
0	63492	69.41	-1
0	63583	69.51	-1
0	63674	69.61	-1
0	63765	69.71	-1
0	63856	69.81	-1
0	63947	69.91	-1
0	64041	70.01	-1
0	64132	70.11	-1
0	64223	70.21	-1
0	64314	70.31	-1
0	64405	70.41	-1
0	64496	70.51	-1
0	64587	70.61	-1
0	64678	70.71	-1
0	64769	70.81	-1
0	64860	70.91	-1
0	64954	71.01	-1
0	65045	71.11	-1
0	65136	71.21	-1
0	65227	71.31	-1
0	65318	71.41	-1
0	65409	71.51	-1
0	65500	71.61	-1
0	65591	71.71	-1
0	65682	71.81	-1
0	65773	71.91	-1
0	65867	72.01	-1
0	65958	72.11	-1
0	66049	72.21	-1
0	66140	72.31	-1
0	66231	72.41	-1
0	66322	72.51	-1
0	66413	72.61	-1
0	66504	72.71	-1
0	66595	72.81	-1
0	66686	72.91	-1
0	66780	73.01	-1
0	66871	73.11	-1
0	66962	73.21	-1
0	67053	73.31	-1
0	67144	73.41	-1
0	67235	73.51	-1
0	67326	73.61	-1
0	67417	73.71	-1
0	67508	73.81	-1
0	67599	73.91	-1
0	67693	74.01	-1
0	67784	74.11	-1
0	67875	74.21	-1
0	67966	74.31	-1
0	68057	74.41	-1
0	68148	74.51	-1
0	68239	74.61	-1
0	68330	74.71	-1
0	68421	74.81	-1
0	68512	74.91	-1
0	68606	75.01	-1
0	68697	75.11	-1
0	68788	75.21	-1
0	68879	75.31	-1
0	68970	75.41	-1
0	69061	75.51	-1
0	69152	75.61	-1
0	69243	75.71	-1
0	69334	75.81	-1
0	69425	75.91	-1
0	69519	76.01	-1
0	69610	76.11	-1
0	69701	76.21	-1
0	69792	76.31	-1
0	69883	76.41	-1
0	69974	76.51	-1
0	70065	76.61	-1
0	70156	76.71	-1
0	70247	76.81	-1
0	70338	76.91	-1
0	70432	77.01	-1
0	70523	77.11	-1
0	70614	77.21	-1
0	70705	77.31	-1
0	70796	77.41	-1
0	70887	77.51	-1
0	70978	77.61	-1
0	71069	77.71	-1
0	71160	77.81	-1
0	71251	77.91	-1
0	71345	78.01	-1
0	71436	78.11	-1
0	71527	78.21	-1
0	71618	78.31	-1
0	71709	78.41	-1
0	71800	78.51	-1
0	71891	78.61	-1
0	71982	78.71	-1
0	72073	78.81	-1
0	72164	78.91	-1
0	72258	79.01	-1
0	72349	79.11	-1
0	72440	79.21	-1
0	72531	79.31	-1
0	72622	79.41	-1
0	72713	79.51	-1
0	72804	79.61	-1
0	72895	79.71	-1
0	72986	79.81	-1
0	73077	79.91	-1
0	73171	80.01	-1
0	73262	80.11	-1
0	73353	80.21	-1
0	73444	80.31	-1
0	73535	80.41	-1
0	73626	80.51	-1
0	73717	80.61	-1
0	73808	80.71	-1
0	73899	80.81	-1
0	73990	80.91	-1
0	74084	81.01	-1
0	74175	81.11	-1
0	74266	81.21	-1
0	74357	81.31	-1
0	74448	81.41	-1
0	74539	81.51	-1
0	74630	81.61	-1
0	74721	81.71	-1
0	74812	81.81	-1
0	74903	81.91	-1
0	74997	82.01	-1
0	75088	82.11	-1
0	75179	82.21	-1
0	75270	82.31	-1
0	75361	82.41	-1
0	75452	82.51	-1
0	75543	82.61	-1
0	75634	82.71	-1
0	75725	82.81	-1
0	75816	82.91	-1
0	75910	83.01	-1
0	76001	83.11	-1
0	76092	83.21	-1
0	76183	83.31	-1
0	76274	83.41	-1
0	76365	83.51	-1
0	76456	83.61	-1
0	76547	83.71	-1
0	76638	83.81	-1
0	76729	83.91	-1
0	76823	84.01	-1
0	76914	84.11	-1
0	77005	84.21	-1
0	77096	84.31	-1
0	77187	84.41	-1
0	77278	84.51	-1
0	77369	84.61	-1
0	77460	84.71	-1
0	77551	84.81	-1
0	77642	84.91	-1
0	77736	85.01	-1
0	77827	85.11	-1
0	77918	85.21	28.5071
0	78009	85.31	28.6959
0	78100	85.41	28.8848
0	78191	85.51	29.0737
0	78282	85.61	29.2626
0	78373	85.71	29.4515
0	78464	85.81	29.6404
0	78555	85.91	29.8293
0	78649	86.01	30.0182
0	78740	86.11	30.2071
0	78831	86.21	30.396
0	78922	86.31	30.5848
0	79013	86.41	30.7737
0	79104	86.51	30.9626
0	79195	86.61	31.1515
0	79286	86.71	31.3404
0	79377	86.81	31.5293
0	79468	86.91	31.7182
0	79562	87.01	31.9071
0	79653	87.11	32.096
0	79744	87.21	32.2849
0	79835	87.31	32.4737
0	79926	87.41	32.6626
0	80017	87.51	32.8515
0	80108	87.61	33.0404
0	80199	87.71	33.2293
0	80290	87.81	33.4182
0	80381	87.91	33.6071
0	80475	88.01	33.796
0	80566	88.11	33.9849
0	80657	88.21	34.1738
0	80748	88.31	34.3626
0	80839	88.41	34.5515
0	80930	88.51	34.7404
0	81021	88.61	34.9293
0	81112	88.71	35.1182
0	81203	88.81	35.3071
0	81294	88.91	35.496
0	81388	89.01	35.6849
0	81479	89.11	35.8738
0	81570	89.21	36.0627
0	81661	89.31	36.2515
0	81752	89.41	36.4404
0	81843	89.51	36.6293
0	81934	89.61	36.8182
0	82025	89.71	37.0071
0	82116	89.81	37.196
0	82207	89.91	37.3849
0	82301	90.01	37.5738
0	82392	90.11	37.7627
0	82483	90.21	37.9516
0	82574	90.31	38.1404
0	82665	90.41	38.3293
0	82756	90.51	38.5182
0	82847	90.61	38.7071
0	82938	90.71	38.896
0	83029	90.81	39.0849
0	83120	90.91	39.2738
0	83214	91.01	39.4627
0	83305	91.11	39.6516
0	83396	91.21	39.8405
0	83487	91.31	40.0293
0	83578	91.41	40.2182
0	83669	91.51	40.4071
0	83760	91.61	40.596
0	83851	91.71	40.7849
0	83942	91.81	40.9738
0	84033	91.91	41.1627
0	84127	92.01	41.3516
0	84218	92.11	41.5405
0	84309	92.21	41.7294
0	84400	92.31	41.9182
0	84491	92.41	42.1071
0	84582	92.51	42.296
0	84673	92.61	42.4849
0	84764	92.71	42.6738
0	84855	92.81	42.8627
0	84946	92.91	43.0516
0	85040	93.01	43.2405
0	85131	93.11	43.4294
0	85222	93.21	43.6183
0	85313	93.31	43.8071
0	85404	93.41	43.996
0	85495	93.51	44.1849
0	85586	93.61	44.3738
0	85677	93.71	44.5627
0	85768	93.81	44.7516
0	85859	93.91	44.9405
0	85953	94.01	45.1294
0	86044	94.11	45.3183
0	86135	94.21	45.5072
0	86226	94.31	45.696
0	86317	94.41	45.8849
0	86408	94.51	46.0738
0	86499	94.61	46.2627
0	86590	94.71	46.4516
0	86681	94.81	46.6405
0	86772	94.91	46.8294
0	86866	95.01	47.0183
0	86957	95.11	47.2072
0	87048	95.21	47.3961
0	87139	95.31	47.5849
0	87230	95.41	47.7738
0	87321	95.51	47.9627
0	87412	95.61	48.1516
0	87503	95.71	48.3405
0	87594	95.81	48.5294
0	87685	95.91	48.7183
0	87779	96.01	48.9072
0	87870	96.11	49.0961
0	87961	96.21	49.285
0	88052	96.31	49.4738
0	88143	96.41	49.6627
0	88234	96.51	49.8516
0	88325	96.61	50.0405
0	88416	96.71	50.2294
0	88507	96.81	50.4183
0	88598	96.91	50.6072
0	88692	97.01	50.7961
0	88783	97.11	50.985
0	88874	97.21	51.1739
0	88965	97.31	51.3627
0	89056	97.41	51.5516
0	89147	97.51	51.7405
0	89238	97.61	51.9294
0	89329	97.71	52.1183
0	89420	97.81	52.3072
0	89511	97.91	52.4961
0	89605	98.01	52.685
0	89696	98.11	52.8739
0	89787	98.21	53.0628
0	89878	98.31	53.2516
0	89969	98.41	53.4405
0	90060	98.51	53.6294
0	90151	98.61	53.8183
0	90242	98.71	54.0072
0	90333	98.81	54.1961
0	90424	98.91	54.385
0	90518	99.01	54.5739
0	90609	99.11	54.7628
0	90700	99.21	54.9517
0	90791	99.31	55.1405
0	90882	99.41	55.3294
0	90973	99.51	55.5183
0	91064	99.61	55.7072
0	91155	99.71	55.8961
0	91246	99.81	56.085
0	91337	99.91	56.2739
1	113	1.11	0
1	204	1.21	0
1	295	1.31	0
1	386	1.41	0
1	477	1.51	0
1	568	1.61	0
1	659	1.71	0
1	750	1.81	0
1	841	1.91	0
1	935	2.01	0
1	1026	2.11	0
1	1117	2.21	0
1	1208	2.31	0
1	1299	2.41	0
1	1390	2.51	0
1	1481	2.61	0
1	1572	2.71	0
1	1663	2.81	0
1	1754	2.91	0
1	1848	3.01	0
1	1939	3.11	0
1	2030	3.21	0
1	2121	3.31	0
1	2212	3.41	0
1	2303	3.51	0
1	2394	3.61	0
1	2485	3.71	0
1	2576	3.81	0
1	2667	3.91	0
1	2761	4.01	0
1	2852	4.11	0
1	2943	4.21	0
1	3034	4.31	0
1	3125	4.41	0
1	3216	4.51	0
1	3307	4.61	0
1	3398	4.71	0
1	3489	4.81	0
1	3580	4.91	0
1	3674	5.01	0
1	3765	5.11	0
1	3856	5.21	0
1	3947	5.31	0
1	4038	5.41	0
1	4129	5.51	0
1	4220	5.61	0
1	4311	5.71	0
1	4402	5.81	0
1	4493	5.91	0
1	4587	6.01	0
1	4678	6.11	0
1	4769	6.21	0
1	4860	6.31	0
1	4951	6.41	0
1	5042	6.51	0
1	5133	6.61	0
1	5224	6.71	0
1	5315	6.81	0
1	5406	6.91	0
1	5500	7.01	0
1	5591	7.11	0
1	5682	7.21	0
1	5773	7.31	0
1	5864	7.41	0
1	5955	7.51	0
1	6046	7.61	0
1	6137	7.71	0
1	6228	7.81	0
1	6319	7.91	0
1	6413	8.01	0
1	6504	8.11	0
1	6595	8.21	0
1	6686	8.31	0
1	6777	8.41	0
1	6868	8.51	0
1	6959	8.61	0
1	7050	8.71	0
1	7141	8.81	0
1	7232	8.91	0
1	7326	9.01	0
1	7417	9.11	0
1	7508	9.21	0
1	7599	9.31	0
1	7690	9.41	0
1	7781	9.51	0
1	7872	9.61	0
1	7963	9.71	0
1	8054	9.81	0
1	8145	9.91	0
1	8268	10.01	0
1	8361	10.11	0
1	8454	10.21	0
1	8547	10.31	0
1	8640	10.41	0
1	8733	10.51	0
1	8826	10.61	0
1	8919	10.71	0
1	9012	10.81	0
1	9105	10.91	0
1	9201	11.01	0
1	9294	11.11	0
1	9387	11.21	0
1	9480	11.31	0
1	9573	11.41	0
1	9666	11.51	0
1	9759	11.61	0
1	9852	11.71	0
1	9945	11.81	0
1	10038	11.91	0
1	10134	12.01	0
1	10227	12.11	0
1	10320	12.21	0
1	10413	12.31	0
1	10506	12.41	0
1	10599	12.51	0
1	10692	12.61	0
1	10785	12.71	0
1	10878	12.81	0
1	10971	12.91	0
1	11067	13.01	0
1	11160	13.11	0
1	11253	13.21	0
1	11346	13.31	0
1	11439	13.41	0
1	11532	13.51	0
1	11625	13.61	0
1	11718	13.71	0
1	11811	13.81	0
1	11904	13.91	0
1	12000	14.01	0
1	12093	14.11	0
1	12186	14.21	0
1	12279	14.31	0
1	12372	14.41	0
1	12465	14.51	0
1	12558	14.61	0
1	12651	14.71	0
1	12744	14.81	0
1	12837	14.91	0
1	12933	15.01	0
1	13026	15.11	0
1	13119	15.21	0
1	13212	15.31	0
1	13305	15.41	0
1	13398	15.51	0
1	13491	15.61	0
1	13584	15.71	0
1	13677	15.81	0
1	13770	15.91	0
1	13866	16.01	0
1	13959	16.11	0
1	14052	16.21	0
1	14145	16.31	0
1	14238	16.41	0
1	14331	16.51	0
1	14424	16.61	0
1	14517	16.71	0
1	14610	16.81	0
1	14703	16.91	0
1	14799	17.01	0
1	14892	17.11	0
1	14985	17.21	0
1	15078	17.31	0
1	15171	17.41	0
1	15264	17.51	0
1	15357	17.61	0
1	15450	17.71	0
1	15543	17.81	0
1	15636	17.91	0
1	15732	18.01	0
1	15825	18.11	0
1	15918	18.21	0
1	16011	18.31	0
1	16104	18.41	0
1	16197	18.51	0
1	16290	18.61	0
1	16383	18.71	0
1	16476	18.81	0
1	16569	18.91	0
1	16665	19.01	0
1	16758	19.11	0
1	16851	19.21	0
1	16944	19.31	0
1	17037	19.41	0
1	17130	19.51	0
1	17223	19.61	0
1	17316	19.71	0
1	17409	19.81	0
1	17502	19.91	0
1	17598	20.01	0
1	17691	20.11	0
1	17784	20.21	0
1	17877	20.31	0
1	17970	20.41	0
1	18063	20.51	0
1	18156	20.61	0
1	18249	20.71	0
1	18342	20.81	0
1	18435	20.91	0
1	18531	21.01	0
1	18624	21.11	0
1	18717	21.21	0
1	18810	21.31	0
1	18903	21.41	0
1	18996	21.51	0
1	19089	21.61	0
1	19182	21.71	0
1	19275	21.81	0
1	19368	21.91	0
1	19464	22.01	0
1	19557	22.11	0
1	19650	22.21	0
1	19743	22.31	0
1	19836	22.41	0
1	19929	22.51	0
1	20022	22.61	0
1	20115	22.71	0
1	20208	22.81	0
1	20301	22.91	0
1	20397	23.01	0
1	20490	23.11	0
1	20583	23.21	0
1	20676	23.31	0
1	20769	23.41	0
1	20862	23.51	0
1	20955	23.61	0
1	21048	23.71	0
1	21141	23.81	0
1	21234	23.91	0
1	21330	24.01	0
1	21423	24.11	0
1	21516	24.21	0
1	21609	24.31	0
1	21702	24.41	0
1	21795	24.51	0
1	21888	24.61	0
1	21981	24.71	0
1	22074	24.81	0
1	22167	24.91	0
1	22263	25.01	0
1	22356	25.11	0
1	22449	25.21	0
1	22542	25.31	0
1	22635	25.41	0
1	22728	25.51	0
1	22821	25.61	0
1	22914	25.71	0
1	23007	25.81	0
1	23100	25.91	0
1	23196	26.01	0
1	23289	26.11	0
1	23382	26.21	0
1	23475	26.31	0
1	23568	26.41	0
1	23661	26.51	0
1	23754	26.61	0
1	23847	26.71	0
1	23940	26.81	0
1	24033	26.91	0
1	24129	27.01	0
1	24222	27.11	0
1	24315	27.21	0
1	24408	27.31	0
1	24501	27.41	0
1	24594	27.51	0
1	24687	27.61	0
1	24780	27.71	0
1	24873	27.81	0
1	24966	27.91	0
1	25062	28.01	0
1	25155	28.11	0
1	25248	28.21	0
1	25341	28.31	0
1	25434	28.41	0
1	25527	28.51	0
1	25620	28.61	0
1	25713	28.71	0
1	25806	28.81	0
1	25899	28.91	0
1	25995	29.01	0
1	26088	29.11	0
1	26181	29.21	0
1	26274	29.31	0
1	26367	29.41	0
1	26460	29.51	0
1	26553	29.61	0
1	26646	29.71	0
1	26739	29.81	0
1	26832	29.91	0
1	26928	30.01	0
1	27021	30.11	0
1	27114	30.21	0
1	27207	30.31	0
1	27300	30.41	0
1	27393	30.51	0
1	27486	30.61	0
1	27579	30.71	0
1	27672	30.81	0
1	27765	30.91	0
1	27861	31.01	0
1	27954	31.11	0
1	28047	31.21	0
1	28140	31.31	0
1	28233	31.41	0
1	28326	31.51	0
1	28419	31.61	0
1	28512	31.71	0
1	28605	31.81	0
1	28698	31.91	0
1	28794	32.01	0
1	28887	32.11	0
1	28980	32.21	0
1	29073	32.31	0
1	29166	32.41	0
1	29259	32.51	0
1	29352	32.61	0
1	29445	32.71	0
1	29538	32.81	0
1	29631	32.91	0
1	29727	33.01	0
1	29820	33.11	0
1	29913	33.21	0
1	30006	33.31	0
1	30099	33.41	0
1	30192	33.51	0
1	30285	33.61	0
1	30378	33.71	0
1	30471	33.81	0
1	30564	33.91	0
1	30660	34.01	0
1	30753	34.11	0
1	30846	34.21	0
1	30939	34.31	0
1	31032	34.41	0
1	31125	34.51	0
1	31218	34.61	0
1	31311	34.71	0
1	31404	34.81	0
1	31497	34.91	0
1	31593	35.01	0
1	31686	35.11	0
1	31779	35.21	0
1	31872	35.31	0
1	31965	35.41	0
1	32058	35.51	0
1	32151	35.61	0
1	32244	35.71	0
1	32337	35.81	0
1	32430	35.91	0
1	32526	36.01	0
1	32619	36.11	0
1	32712	36.21	0
1	32805	36.31	0
1	32898	36.41	0
1	32991	36.51	0
1	33084	36.61	0
1	33177	36.71	0
1	33270	36.81	0
1	33363	36.91	0
1	33459	37.01	0
1	33552	37.11	0
1	33645	37.21	0
1	33738	37.31	0
1	33831	37.41	0
1	33924	37.51	0
1	34017	37.61	0
1	34110	37.71	0
1	34203	37.81	0
1	34296	37.91	0
1	34392	38.01	0
1	34485	38.11	0
1	34578	38.21	0
1	34671	38.31	0
1	34764	38.41	0
1	34857	38.51	0
1	34950	38.61	0
1	35043	38.71	0
1	35136	38.81	0
1	35229	38.91	0
1	35325	39.01	0
1	35418	39.11	0
1	35511	39.21	0
1	35604	39.31	0
1	35697	39.41	0
1	35790	39.51	0
1	35883	39.61	0
1	35976	39.71	0
1	36069	39.81	0
1	36162	39.91	0
1	36258	40.01	0
1	36351	40.11	0
1	36444	40.21	0
1	36537	40.31	0
1	36630	40.41	0
1	36723	40.51	0
1	36816	40.61	0
1	36909	40.71	0
1	37002	40.81	0
1	37095	40.91	0
1	37191	41.01	0
1	37284	41.11	0
1	37377	41.21	0
1	37470	41.31	0
1	37563	41.41	0
1	37656	41.51	0
1	37749	41.61	0
1	37842	41.71	0
1	37935	41.81	0
1	38028	41.91	0
1	38124	42.01	0
1	38217	42.11	0
1	38310	42.21	0
1	38403	42.31	0
1	38496	42.41	0
1	38589	42.51	0
1	38682	42.61	0
1	38775	42.71	0
1	38868	42.81	0
1	38961	42.91	0
1	39057	43.01	0
1	39150	43.11	0
1	39243	43.21	0
1	39336	43.31	0
1	39429	43.41	0
1	39522	43.51	0
1	39615	43.61	0
1	39708	43.71	0
1	39801	43.81	0
1	39894	43.91	0
1	39990	44.01	0
1	40083	44.11	0
1	40176	44.21	0
1	40269	44.31	0
1	40362	44.41	0
1	40455	44.51	0
1	40548	44.61	0
1	40641	44.71	0
1	40734	44.81	0
1	40827	44.91	0
1	40923	45.01	0
1	41016	45.11	0
1	41109	45.21	0
1	41202	45.31	0
1	41295	45.41	0
1	41388	45.51	0
1	41481	45.61	0
1	41574	45.71	0
1	41667	45.81	0
1	41760	45.91	0
1	41856	46.01	0
1	41949	46.11	0
1	42042	46.21	0
1	42135	46.31	0
1	42228	46.41	0
1	42321	46.51	0
1	42414	46.61	0
1	42507	46.71	0
1	42600	46.81	0
1	42693	46.91	0
1	42789	47.01	0
1	42882	47.11	0
1	42975	47.21	0
1	43068	47.31	0
1	43161	47.41	0
1	43254	47.51	0
1	43347	47.61	0
1	43440	47.71	0
1	43533	47.81	0
1	43669	47.91	0
1	43764	48.01	0
1	43856	48.11	0
1	43948	48.21	0
1	44040	48.31	0
1	44132	48.41	0
1	44224	48.51	0
1	44316	48.61	0
1	44408	48.71	0
1	44500	48.81	0
1	44592	48.91	0
1	44687	49.01	0
1	44779	49.11	0
1	44871	49.21	0
1	44963	49.31	0
1	45055	49.41	0
1	45147	49.51	0
1	45239	49.61	0
1	45331	49.71	0
1	45423	49.81	0
1	45515	49.91	0
1	45610	50.01	0
1	45702	50.11	0
1	45794	50.21	0
1	45886	50.31	0
1	45978	50.41	0
1	46070	50.51	0
1	46162	50.61	0
1	46254	50.71	0
1	46346	50.81	0
1	46438	50.91	0
1	46533	51.01	0
1	46625	51.11	0
1	46717	51.21	0
1	46809	51.31	0
1	46901	51.41	0
1	46993	51.51	0
1	47085	51.61	0
1	47177	51.71	0
1	47269	51.81	0
1	47361	51.91	0
1	47456	52.01	0
1	47548	52.11	0
1	47640	52.21	0
1	47732	52.31	0
1	47824	52.41	0
1	47916	52.51	0
1	48008	52.61	0
1	48100	52.71	0
1	48192	52.81	0
1	48284	52.91	0
1	48379	53.01	0
1	48471	53.11	0
1	48563	53.21	0
1	48655	53.31	0
1	48747	53.41	0
1	48839	53.51	0
1	48931	53.61	0
1	49023	53.71	0
1	49115	53.81	0
1	49207	53.91	0
1	49302	54.01	0
1	49394	54.11	0
1	49615	54.21	0
1	49706	54.31	0
1	49797	54.41	0
1	49888	54.51	0
1	49979	54.61	0
1	50070	54.71	0
1	50161	54.81	0
1	50252	54.91	0
1	50346	55.01	0
1	50437	55.11	0
1	50528	55.21	0
1	50619	55.31	0
1	50710	55.41	0
1	50801	55.51	0
1	50892	55.61	0
1	50983	55.71	0
1	51074	55.81	0
1	51165	55.91	0
1	51259	56.01	0
1	51350	56.11	0
1	51441	56.21	0
1	51532	56.31	0
1	51623	56.41	0
1	51714	56.51	0
1	51805	56.61	0
1	51896	56.71	0
1	51987	56.81	0
1	52078	56.91	0
1	52172	57.01	0
1	52263	57.11	0
1	52354	57.21	0
1	52445	57.31	0
1	52536	57.41	0
1	52627	57.51	0
1	52718	57.61	0
1	52809	57.71	0
1	52900	57.81	0
1	52991	57.91	0
1	53085	58.01	0
1	53176	58.11	0
1	53267	58.21	0
1	53358	58.31	0
1	53449	58.41	0
1	53540	58.51	0
1	53631	58.61	0
1	53722	58.71	0
1	53813	58.81	0
1	53904	58.91	0
1	53998	59.01	0
1	54089	59.11	0
1	54180	59.21	0
1	54271	59.31	0
1	54362	59.41	0
1	54453	59.51	0
1	54544	59.61	0
1	54635	59.71	0
1	54726	59.81	0
1	54817	59.91	0
1	54911	60.01	0
1	55002	60.11	0
1	55093	60.21	0
1	55184	60.31	0
1	55275	60.41	0
1	55366	60.51	0
1	55457	60.61	0
1	55548	60.71	0
1	55639	60.81	0
1	55730	60.91	0
1	55824	61.01	0
1	55915	61.11	0
1	56006	61.21	0
1	56097	61.31	0
1	56188	61.41	0
1	56279	61.51	0
1	56370	61.61	0
1	56461	61.71	0
1	56552	61.81	0
1	56643	61.91	0
1	56737	62.01	0
1	56828	62.11	0
1	56919	62.21	0
1	57010	62.31	0
1	57101	62.41	0
1	57192	62.51	0
1	57283	62.61	0
1	57374	62.71	0
1	57465	62.81	0
1	57556	62.91	0
1	57650	63.01	0
1	57741	63.11	0
1	57832	63.21	0
1	57923	63.31	0
1	58014	63.41	0
1	58105	63.51	0
1	58196	63.61	0
1	58287	63.71	0
1	58378	63.81	0
1	58469	63.91	0
1	58563	64.01	0
1	58654	64.11	0
1	58745	64.21	0
1	58836	64.31	0
1	58927	64.41	0
1	59018	64.51	0
1	59109	64.61	0
1	59200	64.71	0
1	59291	64.81	0
1	59382	64.91	0
1	59476	65.01	0
1	59567	65.11	0
1	59658	65.21	0
1	59749	65.31	0
1	59840	65.41	0
1	59931	65.51	0
1	60022	65.61	0
1	60113	65.71	0
1	60204	65.81	0
1	60295	65.91	0
1	60389	66.01	0
1	60480	66.11	0
1	60571	66.21	0
1	60662	66.31	0
1	60753	66.41	0
1	60844	66.51	0
1	60935	66.61	0
1	61026	66.71	0
1	61117	66.81	0
1	61208	66.91	0
1	61302	67.01	0
1	61393	67.11	0
1	61484	67.21	0
1	61575	67.31	0
1	61666	67.41	0
1	61757	67.51	0
1	61848	67.61	0
1	61939	67.71	0
1	62030	67.81	0
1	62121	67.91	0
1	62215	68.01	0
1	62306	68.11	0
1	62397	68.21	0
1	62488	68.31	0
1	62579	68.41	0
1	62670	68.51	0
1	62761	68.61	0
1	62852	68.71	0
1	62943	68.81	0
1	63034	68.91	0
1	63128	69.01	0
1	63219	69.11	0
1	63310	69.21	0
1	63401	69.31	0
1	63492	69.41	0
1	63583	69.51	0
1	63674	69.61	0
1	63765	69.71	0
1	63856	69.81	0
1	63947	69.91	0
1	64041	70.01	0
1	64132	70.11	0
1	64223	70.21	0
1	64314	70.31	0
1	64405	70.41	0
1	64496	70.51	0
1	64587	70.61	0
1	64678	70.71	0
1	64769	70.81	0
1	64860	70.91	0
1	64954	71.01	0
1	65045	71.11	0
1	65136	71.21	0
1	65227	71.31	0
1	65318	71.41	0
1	65409	71.51	0
1	65500	71.61	0
1	65591	71.71	0
1	65682	71.81	0
1	65773	71.91	0
1	65867	72.01	0
1	65958	72.11	0
1	66049	72.21	0
1	66140	72.31	0
1	66231	72.41	0
1	66322	72.51	0
1	66413	72.61	0
1	66504	72.71	0
1	66595	72.81	0
1	66686	72.91	0
1	66780	73.01	0
1	66871	73.11	0
1	66962	73.21	0
1	67053	73.31	0
1	67144	73.41	0
1	67235	73.51	0
1	67326	73.61	0
1	67417	73.71	0
1	67508	73.81	0
1	67599	73.91	0
1	67693	74.01	0
1	67784	74.11	0
1	67875	74.21	0
1	67966	74.31	0
1	68057	74.41	0
1	68148	74.51	0
1	68239	74.61	0
1	68330	74.71	0
1	68421	74.81	0
1	68512	74.91	0
1	68606	75.01	0
1	68697	75.11	0
1	68788	75.21	0
1	68879	75.31	0
1	68970	75.41	0
1	69061	75.51	0
1	69152	75.61	0
1	69243	75.71	0
1	69334	75.81	0
1	69425	75.91	0
1	69519	76.01	0
1	69610	76.11	0
1	69701	76.21	0
1	69792	76.31	0
1	69883	76.41	0
1	69974	76.51	0
1	70065	76.61	0
1	70156	76.71	0
1	70247	76.81	0
1	70338	76.91	0
1	70432	77.01	0
1	70523	77.11	0
1	70614	77.21	0
1	70705	77.31	0
1	70796	77.41	0
1	70887	77.51	0
1	70978	77.61	0
1	71069	77.71	0
1	71160	77.81	0
1	71251	77.91	0
1	71345	78.01	0
1	71436	78.11	0
1	71527	78.21	0
1	71618	78.31	0
1	71709	78.41	0
1	71800	78.51	0
1	71891	78.61	0
1	71982	78.71	0
1	72073	78.81	0
1	72164	78.91	0
1	72258	79.01	0
1	72349	79.11	0
1	72440	79.21	0
1	72531	79.31	0
1	72622	79.41	0
1	72713	79.51	0
1	72804	79.61	0
1	72895	79.71	0
1	72986	79.81	0
1	73077	79.91	0
1	73171	80.01	0
1	73262	80.11	0
1	73353	80.21	0
1	73444	80.31	0
1	73535	80.41	0
1	73626	80.51	0
1	73717	80.61	0
1	73808	80.71	0
1	73899	80.81	0
1	73990	80.91	0
1	74084	81.01	0
1	74175	81.11	0
1	74266	81.21	0
1	74357	81.31	0
1	74448	81.41	0
1	74539	81.51	0
1	74630	81.61	0
1	74721	81.71	0
1	74812	81.81	0
1	74903	81.91	0
1	74997	82.01	0
1	75088	82.11	0
1	75179	82.21	0
1	75270	82.31	0
1	75361	82.41	0
1	75452	82.51	0
1	75543	82.61	0
1	75634	82.71	0
1	75725	82.81	0
1	75816	82.91	0
1	75910	83.01	0
1	76001	83.11	0
1	76092	83.21	0
1	76183	83.31	0
1	76274	83.41	0
1	76365	83.51	0
1	76456	83.61	0
1	76547	83.71	0
1	76638	83.81	0
1	76729	83.91	0
1	76823	84.01	0
1	76914	84.11	0
1	77005	84.21	0
1	77096	84.31	0
1	77187	84.41	0
1	77278	84.51	0
1	77369	84.61	0
1	77460	84.71	0
1	77551	84.81	0
1	77642	84.91	0
1	77736	85.01	0
1	77827	85.11	0
1	77918	85.21	1.8889
1	78009	85.31	1.8889
1	78100	85.41	1.8889
1	78191	85.51	1.8889
1	78282	85.61	1.8889
1	78373	85.71	1.8889
1	78464	85.81	1.8889
1	78555	85.91	1.8889
1	78649	86.01	1.8889
1	78740	86.11	1.8889
1	78831	86.21	1.8889
1	78922	86.31	1.8889
1	79013	86.41	1.8889
1	79104	86.51	1.8889
1	79195	86.61	1.8889
1	79286	86.71	1.8889
1	79377	86.81	1.8889
1	79468	86.91	1.8889
1	79562	87.01	1.8889
1	79653	87.11	1.8889
1	79744	87.21	1.8889
1	79835	87.31	1.8889
1	79926	87.41	1.8889
1	80017	87.51	1.8889
1	80108	87.61	1.8889
1	80199	87.71	1.8889
1	80290	87.81	1.8889
1	80381	87.91	1.8889
1	80475	88.01	1.8889
1	80566	88.11	1.8889
1	80657	88.21	1.8889
1	80748	88.31	1.8889
1	80839	88.41	1.8889
1	80930	88.51	1.8889
1	81021	88.61	1.8889
1	81112	88.71	1.8889
1	81203	88.81	1.8889
1	81294	88.91	1.8889
1	81388	89.01	1.8889
1	81479	89.11	1.8889
1	81570	89.21	1.8889
1	81661	89.31	1.8889
1	81752	89.41	1.8889
1	81843	89.51	1.8889
1	81934	89.61	1.8889
1	82025	89.71	1.8889
1	82116	89.81	1.8889
1	82207	89.91	1.8889
1	82301	90.01	1.8889
1	82392	90.11	1.8889
1	82483	90.21	1.8889
1	82574	90.31	1.8889
1	82665	90.41	1.8889
1	82756	90.51	1.8889
1	82847	90.61	1.8889
1	82938	90.71	1.8889
1	83029	90.81	1.8889
1	83120	90.91	1.8889
1	83214	91.01	1.8889
1	83305	91.11	1.8889
1	83396	91.21	1.8889
1	83487	91.31	1.8889
1	83578	91.41	1.8889
1	83669	91.51	1.8889
1	83760	91.61	1.8889
1	83851	91.71	1.8889
1	83942	91.81	1.8889
1	84033	91.91	1.8889
1	84127	92.01	1.8889
1	84218	92.11	1.8889
1	84309	92.21	1.8889
1	84400	92.31	1.8889
1	84491	92.41	1.8889
1	84582	92.51	1.8889
1	84673	92.61	1.8889
1	84764	92.71	1.8889
1	84855	92.81	1.8889
1	84946	92.91	1.8889
1	85040	93.01	1.8889
1	85131	93.11	1.8889
1	85222	93.21	1.8889
1	85313	93.31	1.8889
1	85404	93.41	1.8889
1	85495	93.51	1.8889
1	85586	93.61	1.8889
1	85677	93.71	1.8889
1	85768	93.81	1.8889
1	85859	93.91	1.8889
1	85953	94.01	1.8889
1	86044	94.11	1.8889
1	86135	94.21	1.8889
1	86226	94.31	1.8889
1	86317	94.41	1.8889
1	86408	94.51	1.8889
1	86499	94.61	1.8889
1	86590	94.71	1.8889
1	86681	94.81	1.8889
1	86772	94.91	1.8889
1	86866	95.01	1.8889
1	86957	95.11	1.8889
1	87048	95.21	1.8889
1	87139	95.31	1.8889
1	87230	95.41	1.8889
1	87321	95.51	1.8889
1	87412	95.61	1.8889
1	87503	95.71	1.8889
1	87594	95.81	1.8889
1	87685	95.91	1.8889
1	87779	96.01	1.8889
1	87870	96.11	1.8889
1	87961	96.21	1.8889
1	88052	96.31	1.8889
1	88143	96.41	1.8889
1	88234	96.51	1.8889
1	88325	96.61	1.8889
1	88416	96.71	1.8889
1	88507	96.81	1.8889
1	88598	96.91	1.8889
1	88692	97.01	1.8889
1	88783	97.11	1.8889
1	88874	97.21	1.8889
1	88965	97.31	1.8889
1	89056	97.41	1.8889
1	89147	97.51	1.8889
1	89238	97.61	1.8889
1	89329	97.71	1.8889
1	89420	97.81	1.8889
1	89511	97.91	1.8889
1	89605	98.01	1.8889
1	89696	98.11	1.8889
1	89787	98.21	1.8889
1	89878	98.31	1.8889
1	89969	98.41	1.8889
1	90060	98.51	1.8889
1	90151	98.61	1.8889
1	90242	98.71	1.8889
1	90333	98.81	1.8889
1	90424	98.91	1.8889
1	90518	99.01	1.8889
1	90609	99.11	1.8889
1	90700	99.21	1.8889
1	90791	99.31	1.8889
1	90882	99.41	1.8889
1	90973	99.51	1.8889
1	91064	99.61	1.8889
1	91155	99.71	1.8889
1	91246	99.81	1.8889
1	91337	99.91	1.8889
2	113	1.11	0
2	204	1.21	0
2	295	1.31	0
2	386	1.41	0
2	477	1.51	0
2	568	1.61	0
2	659	1.71	0
2	750	1.81	0
2	841	1.91	0
2	935	2.01	0
2	1026	2.11	0
2	1117	2.21	0
2	1208	2.31	0
2	1299	2.41	0
2	1390	2.51	0
2	1481	2.61	0
2	1572	2.71	0
2	1663	2.81	0
2	1754	2.91	0
2	1848	3.01	0
2	1939	3.11	0
2	2030	3.21	0
2	2121	3.31	0
2	2212	3.41	0
2	2303	3.51	0
2	2394	3.61	0
2	2485	3.71	0
2	2576	3.81	0
2	2667	3.91	0
2	2761	4.01	0
2	2852	4.11	0
2	2943	4.21	0
2	3034	4.31	0
2	3125	4.41	0
2	3216	4.51	0
2	3307	4.61	0
2	3398	4.71	0
2	3489	4.81	0
2	3580	4.91	0
2	3674	5.01	0
2	3765	5.11	0
2	3856	5.21	0
2	3947	5.31	0
2	4038	5.41	0
2	4129	5.51	0
2	4220	5.61	0
2	4311	5.71	0
2	4402	5.81	0
2	4493	5.91	0
2	4587	6.01	0
2	4678	6.11	0
2	4769	6.21	0
2	4860	6.31	0
2	4951	6.41	0
2	5042	6.51	0
2	5133	6.61	0
2	5224	6.71	0
2	5315	6.81	0
2	5406	6.91	0
2	5500	7.01	0
2	5591	7.11	0
2	5682	7.21	0
2	5773	7.31	0
2	5864	7.41	0
2	5955	7.51	0
2	6046	7.61	0
2	6137	7.71	0
2	6228	7.81	0
2	6319	7.91	0
2	6413	8.01	0
2	6504	8.11	0
2	6595	8.21	0
2	6686	8.31	0
2	6777	8.41	0
2	6868	8.51	0
2	6959	8.61	0
2	7050	8.71	0
2	7141	8.81	0
2	7232	8.91	0
2	7326	9.01	0
2	7417	9.11	0
2	7508	9.21	0
2	7599	9.31	0
2	7690	9.41	0
2	7781	9.51	0
2	7872	9.61	0
2	7963	9.71	0
2	8054	9.81	0
2	8145	9.91	0
2	8268	10.01	0
2	8361	10.11	0
2	8454	10.21	0
2	8547	10.31	0
2	8640	10.41	0
2	8733	10.51	0
2	8826	10.61	0
2	8919	10.71	0
2	9012	10.81	0
2	9105	10.91	0
2	9201	11.01	0
2	9294	11.11	0
2	9387	11.21	0
2	9480	11.31	0
2	9573	11.41	0
2	9666	11.51	0
2	9759	11.61	0
2	9852	11.71	0
2	9945	11.81	0
2	10038	11.91	0
2	10134	12.01	0
2	10227	12.11	0
2	10320	12.21	0
2	10413	12.31	0
2	10506	12.41	0
2	10599	12.51	0
2	10692	12.61	0
2	10785	12.71	0
2	10878	12.81	0
2	10971	12.91	0
2	11067	13.01	0
2	11160	13.11	0
2	11253	13.21	0
2	11346	13.31	0
2	11439	13.41	0
2	11532	13.51	0
2	11625	13.61	0
2	11718	13.71	0
2	11811	13.81	0
2	11904	13.91	0
2	12000	14.01	0
2	12093	14.11	0
2	12186	14.21	0
2	12279	14.31	0
2	12372	14.41	0
2	12465	14.51	0
2	12558	14.61	0
2	12651	14.71	0
2	12744	14.81	0
2	12837	14.91	0
2	12933	15.01	0
2	13026	15.11	0
2	13119	15.21	0
2	13212	15.31	0
2	13305	15.41	0
2	13398	15.51	0
2	13491	15.61	0
2	13584	15.71	0
2	13677	15.81	0
2	13770	15.91	0
2	13866	16.01	0
2	13959	16.11	0
2	14052	16.21	0
2	14145	16.31	0
2	14238	16.41	0
2	14331	16.51	0
2	14424	16.61	0
2	14517	16.71	0
2	14610	16.81	0
2	14703	16.91	0
2	14799	17.01	0
2	14892	17.11	0
2	14985	17.21	0
2	15078	17.31	0
2	15171	17.41	0
2	15264	17.51	0
2	15357	17.61	0
2	15450	17.71	0
2	15543	17.81	0
2	15636	17.91	0
2	15732	18.01	0
2	15825	18.11	0
2	15918	18.21	0
2	16011	18.31	0
2	16104	18.41	0
2	16197	18.51	0
2	16290	18.61	0
2	16383	18.71	0
2	16476	18.81	0
2	16569	18.91	0
2	16665	19.01	0
2	16758	19.11	0
2	16851	19.21	0
2	16944	19.31	0
2	17037	19.41	0
2	17130	19.51	0
2	17223	19.61	0
2	17316	19.71	0
2	17409	19.81	0
2	17502	19.91	0
2	17598	20.01	0
2	17691	20.11	0
2	17784	20.21	0
2	17877	20.31	0
2	17970	20.41	0
2	18063	20.51	0
2	18156	20.61	0
2	18249	20.71	0
2	18342	20.81	0
2	18435	20.91	0
2	18531	21.01	0
2	18624	21.11	0
2	18717	21.21	0
2	18810	21.31	0
2	18903	21.41	0
2	18996	21.51	0
2	19089	21.61	0
2	19182	21.71	0
2	19275	21.81	0
2	19368	21.91	0
2	19464	22.01	0
2	19557	22.11	0
2	19650	22.21	0
2	19743	22.31	0
2	19836	22.41	0
2	19929	22.51	0
2	20022	22.61	0
2	20115	22.71	0
2	20208	22.81	0
2	20301	22.91	0
2	20397	23.01	0
2	20490	23.11	0
2	20583	23.21	0
2	20676	23.31	0
2	20769	23.41	0
2	20862	23.51	0
2	20955	23.61	0
2	21048	23.71	0
2	21141	23.81	0
2	21234	23.91	0
2	21330	24.01	0
2	21423	24.11	0
2	21516	24.21	0
2	21609	24.31	0
2	21702	24.41	0
2	21795	24.51	0
2	21888	24.61	0
2	21981	24.71	0
2	22074	24.81	0
2	22167	24.91	0
2	22263	25.01	0
2	22356	25.11	0
2	22449	25.21	0
2	22542	25.31	0
2	22635	25.41	0
2	22728	25.51	0
2	22821	25.61	0
2	22914	25.71	0
2	23007	25.81	0
2	23100	25.91	0
2	23196	26.01	0
2	23289	26.11	0
2	23382	26.21	0
2	23475	26.31	0
2	23568	26.41	0
2	23661	26.51	0
2	23754	26.61	0
2	23847	26.71	0
2	23940	26.81	0
2	24033	26.91	0
2	24129	27.01	0
2	24222	27.11	0
2	24315	27.21	0
2	24408	27.31	0
2	24501	27.41	0
2	24594	27.51	0
2	24687	27.61	0
2	24780	27.71	0
2	24873	27.81	0
2	24966	27.91	0
2	25062	28.01	0
2	25155	28.11	0
2	25248	28.21	0
2	25341	28.31	0
2	25434	28.41	0
2	25527	28.51	0
2	25620	28.61	0
2	25713	28.71	0
2	25806	28.81	0
2	25899	28.91	0
2	25995	29.01	0
2	26088	29.11	0
2	26181	29.21	0
2	26274	29.31	0
2	26367	29.41	0
2	26460	29.51	0
2	26553	29.61	0
2	26646	29.71	0
2	26739	29.81	0
2	26832	29.91	0
2	26928	30.01	0
2	27021	30.11	0
2	27114	30.21	0
2	27207	30.31	0
2	27300	30.41	0
2	27393	30.51	0
2	27486	30.61	0
2	27579	30.71	0
2	27672	30.81	0
2	27765	30.91	0
2	27861	31.01	0
2	27954	31.11	0
2	28047	31.21	0
2	28140	31.31	0
2	28233	31.41	0
2	28326	31.51	0
2	28419	31.61	0
2	28512	31.71	0
2	28605	31.81	0
2	28698	31.91	0
2	28794	32.01	0
2	28887	32.11	0
2	28980	32.21	0
2	29073	32.31	0
2	29166	32.41	0
2	29259	32.51	0
2	29352	32.61	0
2	29445	32.71	0
2	29538	32.81	0
2	29631	32.91	0
2	29727	33.01	0
2	29820	33.11	0
2	29913	33.21	0
2	30006	33.31	0
2	30099	33.41	0
2	30192	33.51	0
2	30285	33.61	0
2	30378	33.71	0
2	30471	33.81	0
2	30564	33.91	0
2	30660	34.01	0
2	30753	34.11	0
2	30846	34.21	0
2	30939	34.31	0
2	31032	34.41	0
2	31125	34.51	0
2	31218	34.61	0
2	31311	34.71	0
2	31404	34.81	0
2	31497	34.91	0
2	31593	35.01	0
2	31686	35.11	0
2	31779	35.21	0
2	31872	35.31	0
2	31965	35.41	0
2	32058	35.51	0
2	32151	35.61	0
2	32244	35.71	0
2	32337	35.81	0
2	32430	35.91	0
2	32526	36.01	0
2	32619	36.11	0
2	32712	36.21	0
2	32805	36.31	0
2	32898	36.41	0
2	32991	36.51	0
2	33084	36.61	0
2	33177	36.71	0
2	33270	36.81	0
2	33363	36.91	0
2	33459	37.01	0
2	33552	37.11	0
2	33645	37.21	0
2	33738	37.31	0
2	33831	37.41	0
2	33924	37.51	0
2	34017	37.61	0
2	34110	37.71	0
2	34203	37.81	0
2	34296	37.91	0
2	34392	38.01	0
2	34485	38.11	0
2	34578	38.21	0
2	34671	38.31	0
2	34764	38.41	0
2	34857	38.51	0
2	34950	38.61	0
2	35043	38.71	0
2	35136	38.81	0
2	35229	38.91	0
2	35325	39.01	0
2	35418	39.11	0
2	35511	39.21	0
2	35604	39.31	0
2	35697	39.41	0
2	35790	39.51	0
2	35883	39.61	0
2	35976	39.71	0
2	36069	39.81	0
2	36162	39.91	0
2	36258	40.01	0
2	36351	40.11	0
2	36444	40.21	0
2	36537	40.31	0
2	36630	40.41	0
2	36723	40.51	0
2	36816	40.61	0
2	36909	40.71	0
2	37002	40.81	0
2	37095	40.91	0
2	37191	41.01	0
2	37284	41.11	0
2	37377	41.21	0
2	37470	41.31	0
2	37563	41.41	0
2	37656	41.51	0
2	37749	41.61	0
2	37842	41.71	0
2	37935	41.81	0
2	38028	41.91	0
2	38124	42.01	0
2	38217	42.11	0
2	38310	42.21	0
2	38403	42.31	0
2	38496	42.41	0
2	38589	42.51	0
2	38682	42.61	0
2	38775	42.71	0
2	38868	42.81	0
2	38961	42.91	0
2	39057	43.01	0
2	39150	43.11	0
2	39243	43.21	0
2	39336	43.31	0
2	39429	43.41	0
2	39522	43.51	0
2	39615	43.61	0
2	39708	43.71	0
2	39801	43.81	0
2	39894	43.91	0
2	39990	44.01	0
2	40083	44.11	0
2	40176	44.21	0
2	40269	44.31	0
2	40362	44.41	0
2	40455	44.51	0
2	40548	44.61	0
2	40641	44.71	0
2	40734	44.81	0
2	40827	44.91	0
2	40923	45.01	0
2	41016	45.11	0
2	41109	45.21	0
2	41202	45.31	0
2	41295	45.41	0
2	41388	45.51	0
2	41481	45.61	0
2	41574	45.71	0
2	41667	45.81	0
2	41760	45.91	0
2	41856	46.01	0
2	41949	46.11	0
2	42042	46.21	0
2	42135	46.31	0
2	42228	46.41	0
2	42321	46.51	0
2	42414	46.61	0
2	42507	46.71	0
2	42600	46.81	0
2	42693	46.91	0
2	42789	47.01	0
2	42882	47.11	0
2	42975	47.21	0
2	43068	47.31	0
2	43161	47.41	0
2	43254	47.51	0
2	43347	47.61	0
2	43440	47.71	0
2	43533	47.81	0
2	43669	47.91	0
2	43764	48.01	0
2	43856	48.11	0
2	43948	48.21	0
2	44040	48.31	0
2	44132	48.41	0
2	44224	48.51	0
2	44316	48.61	0
2	44408	48.71	0
2	44500	48.81	0
2	44592	48.91	0
2	44687	49.01	0
2	44779	49.11	0
2	44871	49.21	0
2	44963	49.31	0
2	45055	49.41	0
2	45147	49.51	0
2	45239	49.61	0
2	45331	49.71	0
2	45423	49.81	0
2	45515	49.91	0
2	45610	50.01	0
2	45702	50.11	0
2	45794	50.21	0
2	45886	50.31	0
2	45978	50.41	0
2	46070	50.51	0
2	46162	50.61	0
2	46254	50.71	0
2	46346	50.81	0
2	46438	50.91	0
2	46533	51.01	0
2	46625	51.11	0
2	46717	51.21	0
2	46809	51.31	0
2	46901	51.41	0
2	46993	51.51	0
2	47085	51.61	0
2	47177	51.71	0
2	47269	51.81	0
2	47361	51.91	0
2	47456	52.01	0
2	47548	52.11	0
2	47640	52.21	0
2	47732	52.31	0
2	47824	52.41	0
2	47916	52.51	0
2	48008	52.61	0
2	48100	52.71	0
2	48192	52.81	0
2	48284	52.91	0
2	48379	53.01	0
2	48471	53.11	0
2	48563	53.21	0
2	48655	53.31	0
2	48747	53.41	0
2	48839	53.51	0
2	48931	53.61	0
2	49023	53.71	0
2	49115	53.81	0
2	49207	53.91	0
2	49302	54.01	0
2	49394	54.11	0
2	49615	54.21	0
2	49706	54.31	0
2	49797	54.41	0
2	49888	54.51	0
2	49979	54.61	0
2	50070	54.71	0
2	50161	54.81	0
2	50252	54.91	0
2	50346	55.01	0
2	50437	55.11	0
2	50528	55.21	0
2	50619	55.31	0
2	50710	55.41	0
2	50801	55.51	0
2	50892	55.61	0
2	50983	55.71	0
2	51074	55.81	0
2	51165	55.91	0
2	51259	56.01	0
2	51350	56.11	0
2	51441	56.21	0
2	51532	56.31	0
2	51623	56.41	0
2	51714	56.51	0
2	51805	56.61	0
2	51896	56.71	0
2	51987	56.81	0
2	52078	56.91	0
2	52172	57.01	0
2	52263	57.11	0
2	52354	57.21	0
2	52445	57.31	0
2	52536	57.41	0
2	52627	57.51	0
2	52718	57.61	0
2	52809	57.71	0
2	52900	57.81	0
2	52991	57.91	0
2	53085	58.01	0
2	53176	58.11	0
2	53267	58.21	0
2	53358	58.31	0
2	53449	58.41	0
2	53540	58.51	0
2	53631	58.61	0
2	53722	58.71	0
2	53813	58.81	0
2	53904	58.91	0
2	53998	59.01	0
2	54089	59.11	0
2	54180	59.21	0
2	54271	59.31	0
2	54362	59.41	0
2	54453	59.51	0
2	54544	59.61	0
2	54635	59.71	0
2	54726	59.81	0
2	54817	59.91	0
2	54911	60.01	0
2	55002	60.11	0
2	55093	60.21	0
2	55184	60.31	0
2	55275	60.41	0
2	55366	60.51	0
2	55457	60.61	0
2	55548	60.71	0
2	55639	60.81	0
2	55730	60.91	0
2	55824	61.01	0
2	55915	61.11	0
2	56006	61.21	0
2	56097	61.31	0
2	56188	61.41	0
2	56279	61.51	0
2	56370	61.61	0
2	56461	61.71	0
2	56552	61.81	0
2	56643	61.91	0
2	56737	62.01	0
2	56828	62.11	0
2	56919	62.21	0
2	57010	62.31	0
2	57101	62.41	0
2	57192	62.51	0
2	57283	62.61	0
2	57374	62.71	0
2	57465	62.81	0
2	57556	62.91	0
2	57650	63.01	0
2	57741	63.11	0
2	57832	63.21	0
2	57923	63.31	0
2	58014	63.41	0
2	58105	63.51	0
2	58196	63.61	0
2	58287	63.71	0
2	58378	63.81	0
2	58469	63.91	0
2	58563	64.01	0
2	58654	64.11	0
2	58745	64.21	0
2	58836	64.31	0
2	58927	64.41	0
2	59018	64.51	0
2	59109	64.61	0
2	59200	64.71	0
2	59291	64.81	0
2	59382	64.91	0
2	59476	65.01	0
2	59567	65.11	0
2	59658	65.21	0
2	59749	65.31	0
2	59840	65.41	0
2	59931	65.51	0
2	60022	65.61	0
2	60113	65.71	0
2	60204	65.81	0
2	60295	65.91	0
2	60389	66.01	0
2	60480	66.11	0
2	60571	66.21	0
2	60662	66.31	0
2	60753	66.41	0
2	60844	66.51	0
2	60935	66.61	0
2	61026	66.71	0
2	61117	66.81	0
2	61208	66.91	0
2	61302	67.01	0
2	61393	67.11	0
2	61484	67.21	0
2	61575	67.31	0
2	61666	67.41	0
2	61757	67.51	0
2	61848	67.61	0
2	61939	67.71	0
2	62030	67.81	0
2	62121	67.91	0
2	62215	68.01	0
2	62306	68.11	0
2	62397	68.21	0
2	62488	68.31	0
2	62579	68.41	0
2	62670	68.51	0
2	62761	68.61	0
2	62852	68.71	0
2	62943	68.81	0
2	63034	68.91	0
2	63128	69.01	0
2	63219	69.11	0
2	63310	69.21	0
2	63401	69.31	0
2	63492	69.41	0
2	63583	69.51	0
2	63674	69.61	0
2	63765	69.71	0
2	63856	69.81	0
2	63947	69.91	0
2	64041	70.01	0
2	64132	70.11	0
2	64223	70.21	0
2	64314	70.31	0
2	64405	70.41	0
2	64496	70.51	0
2	64587	70.61	0
2	64678	70.71	0
2	64769	70.81	0
2	64860	70.91	0
2	64954	71.01	0
2	65045	71.11	0
2	65136	71.21	0
2	65227	71.31	0
2	65318	71.41	0
2	65409	71.51	0
2	65500	71.61	0
2	65591	71.71	0
2	65682	71.81	0
2	65773	71.91	0
2	65867	72.01	0
2	65958	72.11	0
2	66049	72.21	0
2	66140	72.31	0
2	66231	72.41	0
2	66322	72.51	0
2	66413	72.61	0
2	66504	72.71	0
2	66595	72.81	0
2	66686	72.91	0
2	66780	73.01	0
2	66871	73.11	0
2	66962	73.21	0
2	67053	73.31	0
2	67144	73.41	0
2	67235	73.51	0
2	67326	73.61	0
2	67417	73.71	0
2	67508	73.81	0
2	67599	73.91	0
2	67693	74.01	0
2	67784	74.11	0
2	67875	74.21	0
2	67966	74.31	0
2	68057	74.41	0
2	68148	74.51	0
2	68239	74.61	0
2	68330	74.71	0
2	68421	74.81	0
2	68512	74.91	0
2	68606	75.01	0
2	68697	75.11	0
2	68788	75.21	0
2	68879	75.31	0
2	68970	75.41	0
2	69061	75.51	0
2	69152	75.61	0
2	69243	75.71	0
2	69334	75.81	0
2	69425	75.91	0
2	69519	76.01	0
2	69610	76.11	0
2	69701	76.21	0
2	69792	76.31	0
2	69883	76.41	0
2	69974	76.51	0
2	70065	76.61	0
2	70156	76.71	0
2	70247	76.81	0
2	70338	76.91	0
2	70432	77.01	0
2	70523	77.11	0
2	70614	77.21	0
2	70705	77.31	0
2	70796	77.41	0
2	70887	77.51	0
2	70978	77.61	0
2	71069	77.71	0
2	71160	77.81	0
2	71251	77.91	0
2	71345	78.01	0
2	71436	78.11	0
2	71527	78.21	0
2	71618	78.31	0
2	71709	78.41	0
2	71800	78.51	0
2	71891	78.61	0
2	71982	78.71	0
2	72073	78.81	0
2	72164	78.91	0
2	72258	79.01	0
2	72349	79.11	0
2	72440	79.21	0
2	72531	79.31	0
2	72622	79.41	0
2	72713	79.51	0
2	72804	79.61	0
2	72895	79.71	0
2	72986	79.81	0
2	73077	79.91	0
2	73171	80.01	0
2	73262	80.11	0
2	73353	80.21	0
2	73444	80.31	0
2	73535	80.41	0
2	73626	80.51	0
2	73717	80.61	0
2	73808	80.71	0
2	73899	80.81	0
2	73990	80.91	0
2	74084	81.01	0
2	74175	81.11	0
2	74266	81.21	0
2	74357	81.31	0
2	74448	81.41	0
2	74539	81.51	0
2	74630	81.61	0
2	74721	81.71	0
2	74812	81.81	0
2	74903	81.91	0
2	74997	82.01	0
2	75088	82.11	0
2	75179	82.21	0
2	75270	82.31	0
2	75361	82.41	0
2	75452	82.51	0
2	75543	82.61	0
2	75634	82.71	0
2	75725	82.81	0
2	75816	82.91	0
2	75910	83.01	0
2	76001	83.11	0
2	76092	83.21	0
2	76183	83.31	0
2	76274	83.41	0
2	76365	83.51	0
2	76456	83.61	0
2	76547	83.71	0
2	76638	83.81	0
2	76729	83.91	0
2	76823	84.01	0
2	76914	84.11	0
2	77005	84.21	0
2	77096	84.31	0
2	77187	84.41	0
2	77278	84.51	0
2	77369	84.61	0
2	77460	84.71	0
2	77551	84.81	0
2	77642	84.91	0
2	77736	85.01	0
2	77827	85.11	0
2	77918	85.21	0
2	78009	85.31	0
2	78100	85.41	0
2	78191	85.51	0
2	78282	85.61	0
2	78373	85.71	0
2	78464	85.81	0
2	78555	85.91	0
2	78649	86.01	0
2	78740	86.11	0
2	78831	86.21	0
2	78922	86.31	0
2	79013	86.41	0
2	79104	86.51	0
2	79195	86.61	0
2	79286	86.71	0
2	79377	86.81	0
2	79468	86.91	0
2	79562	87.01	0
2	79653	87.11	0
2	79744	87.21	0
2	79835	87.31	0
2	79926	87.41	0
2	80017	87.51	0
2	80108	87.61	0
2	80199	87.71	0
2	80290	87.81	0
2	80381	87.91	0
2	80475	88.01	0
2	80566	88.11	0
2	80657	88.21	0
2	80748	88.31	0
2	80839	88.41	0
2	80930	88.51	0
2	81021	88.61	0
2	81112	88.71	0
2	81203	88.81	0
2	81294	88.91	0
2	81388	89.01	0
2	81479	89.11	0
2	81570	89.21	0
2	81661	89.31	0
2	81752	89.41	0
2	81843	89.51	0
2	81934	89.61	0
2	82025	89.71	0
2	82116	89.81	0
2	82207	89.91	0
2	82301	90.01	0
2	82392	90.11	0
2	82483	90.21	0
2	82574	90.31	0
2	82665	90.41	0
2	82756	90.51	0
2	82847	90.61	0
2	82938	90.71	0
2	83029	90.81	0
2	83120	90.91	0
2	83214	91.01	0
2	83305	91.11	0
2	83396	91.21	0
2	83487	91.31	0
2	83578	91.41	0
2	83669	91.51	0
2	83760	91.61	0
2	83851	91.71	0
2	83942	91.81	0
2	84033	91.91	0
2	84127	92.01	0
2	84218	92.11	0
2	84309	92.21	0
2	84400	92.31	0
2	84491	92.41	0
2	84582	92.51	0
2	84673	92.61	0
2	84764	92.71	0
2	84855	92.81	0
2	84946	92.91	0
2	85040	93.01	0
2	85131	93.11	0
2	85222	93.21	0
2	85313	93.31	0
2	85404	93.41	0
2	85495	93.51	0
2	85586	93.61	0
2	85677	93.71	0
2	85768	93.81	0
2	85859	93.91	0
2	85953	94.01	0
2	86044	94.11	0
2	86135	94.21	0
2	86226	94.31	0
2	86317	94.41	0
2	86408	94.51	0
2	86499	94.61	0
2	86590	94.71	0
2	86681	94.81	0
2	86772	94.91	0
2	86866	95.01	0
2	86957	95.11	0
2	87048	95.21	0
2	87139	95.31	0
2	87230	95.41	0
2	87321	95.51	0
2	87412	95.61	0
2	87503	95.71	0
2	87594	95.81	0
2	87685	95.91	0
2	87779	96.01	0
2	87870	96.11	0
2	87961	96.21	0
2	88052	96.31	0
2	88143	96.41	0
2	88234	96.51	0
2	88325	96.61	0
2	88416	96.71	0
2	88507	96.81	0
2	88598	96.91	0
2	88692	97.01	0
2	88783	97.11	0
2	88874	97.21	0
2	88965	97.31	0
2	89056	97.41	0
2	89147	97.51	0
2	89238	97.61	0
2	89329	97.71	0
2	89420	97.81	0
2	89511	97.91	0
2	89605	98.01	0
2	89696	98.11	0
2	89787	98.21	0
2	89878	98.31	0
2	89969	98.41	0
2	90060	98.51	0
2	90151	98.61	0
2	90242	98.71	0
2	90333	98.81	0
2	90424	98.91	0
2	90518	99.01	0
2	90609	99.11	0
2	90700	99.21	0
2	90791	99.31	0
2	90882	99.41	0
2	90973	99.51	0
2	91064	99.61	0
2	91155	99.71	0
2	91246	99.81	0
2	91337	99.91	0
3	113	1.11	0.000179096
3	204	1.21	0.000340852
3	295	1.31	0.000467435
3	386	1.41	0.000562893
3	477	1.51	0.000631106
3	568	1.61	0.000675745
3	659	1.71	0.000700245
3	750	1.81	0.000707784
3	841	1.91	0.000701273
3	935	2.01	0.000683354
3	1026	2.11	0.000656398
3	1117	2.21	0.000622512
3	1208	2.31	0.000583548
3	1299	2.41	0.000541117
3	1390	2.51	0.000496604
3	1481	2.61	0.000451181
3	1572	2.71	0.000405825
3	1663	2.81	0.00036134
3	1754	2.91	0.000318365
3	1848	3.01	0.0002774
3	1939	3.11	0.00023882
3	2030	3.21	0.000202887
3	2121	3.31	0.00016977
3	2212	3.41	0.000139558
3	2303	3.51	0.000112271
3	2394	3.61	8.78717e-05
3	2485	3.71	6.628e-05
3	2576	3.81	4.73785e-05
3	2667	3.91	3.1023e-05
3	2761	4.01	1.70493e-05
3	2852	4.11	5.28023e-06
3	2943	4.21	-4.46922e-06
3	3034	4.31	-1.2387e-05
3	3125	4.41	-1.86602e-05
3	3216	4.51	-2.34717e-05
3	3307	4.61	-2.69978e-05
3	3398	4.71	-2.94062e-05
3	3489	4.81	-3.08545e-05
3	3580	4.91	-3.14892e-05
3	3674	5.01	-3.14451e-05
3	3765	5.11	-3.0845e-05
3	3856	5.21	-2.97994e-05
3	3947	5.31	-2.84072e-05
3	4038	5.41	-2.67556e-05
3	4129	5.51	-2.49208e-05
3	4220	5.61	-2.29687e-05
3	4311	5.71	-2.09553e-05
3	4402	5.81	-1.89277e-05
3	4493	5.91	-1.6925e-05
3	4587	6.01	-1.49784e-05
3	4678	6.11	-1.31129e-05
3	4769	6.21	-1.13474e-05
3	4860	6.31	-9.69553e-06
3	4951	6.41	-8.16651e-06
3	5042	6.51	-6.76571e-06
3	5133	6.61	-5.49522e-06
3	5224	6.71	-4.35441e-06
3	5315	6.81	-3.34045e-06
3	5406	6.91	-2.44874e-06
3	5500	7.01	-1.6733e-06
3	5591	7.11	-1.00716e-06
3	5682	7.21	-4.42628e-07
3	5773	7.31	2.84224e-08
3	5864	7.41	4.14339e-07
3	5955	7.51	7.23492e-07
3	6046	7.61	9.6413e-07
3	6137	7.71	1.14424e-06
3	6228	7.81	1.27148e-06
3	6319	7.91	1.35305e-06
3	6413	8.01	1.3957e-06
3	6504	8.11	1.40565e-06
3	6595	8.21	1.3886e-06
3	6686	8.31	1.34971e-06
3	6777	8.41	1.2936e-06
3	6868	8.51	1.22437e-06
3	6959	8.61	1.14561e-06
3	7050	8.71	1.06046e-06
3	7141	8.81	9.71582e-07
3	7232	8.91	8.81246e-07
3	7326	9.01	7.91334e-07
3	7417	9.11	7.03381e-07
3	7508	9.21	6.18613e-07
3	7599	9.31	5.37979e-07
3	7690	9.41	4.62183e-07
3	7781	9.51	3.91714e-07
3	7872	9.61	3.26878e-07
3	7963	9.71	2.67827e-07
3	8054	9.81	2.14581e-07
3	8145	9.91	1.67052e-07
3	8268	10.01	1.25066e-07
3	8361	10.11	8.83794e-08
3	8454	10.21	5.66978e-08
3	8547	10.31	2.96922e-08
3	8640	10.41	7.00453e-09
3	8733	10.51	-1.17325e-08
3	8826	10.61	-2.68933e-08
3	8919	10.71	-3.88482e-08
3	9012	10.81	-4.79581e-08
3	9105	10.91	-5.45704e-08
3	9201	11.01	-5.90177e-08
3	9294	11.11	-6.16069e-08
3	9387	11.21	-6.26265e-08
3	9480	11.31	-6.23395e-08
3	9573	11.41	-6.09859e-08
3	9666	11.51	-5.87811e-08
3	9759	11.61	-5.59183e-08
3	9852	11.71	-5.25674e-08
3	9945	11.81	-4.88761e-08
3	10038	11.91	-4.4971e-08
3	10134	12.01	-4.09599e-08
3	10227	12.11	-3.69354e-08
3	10320	12.21	-3.29713e-08
3	10413	12.31	-2.9128e-08
3	10506	12.41	-2.54531e-08
3	10599	12.51	-2.19821e-08
3	10692	12.61	-1.87399e-08
3	10785	12.71	-1.57428e-08
3	10878	12.81	-1.30029e-08
3	10971	12.91	-1.05217e-08
3	11067	13.01	-8.29772e-09
3	11160	13.11	-6.32454e-09
3	11253	13.21	-4.59224e-09
3	11346	13.31	-3.08802e-09
3	11439	13.41	-1.79838e-09
3	11532	13.51	-7.08411e-10
3	11625	13.61	1.98241e-10
3	11718	13.71	9.37916e-10
3	11811	13.81	1.52767e-09
3	11904	13.91	1.98384e-09
3	12000	14.01	2.32276e-09
3	12093	14.11	2.55937e-09
3	12186	14.21	2.70788e-09
3	12279	14.31	2.78249e-09
3	12372	14.41	2.79243e-09
3	12465	14.51	2.7498e-09
3	12558	14.61	2.66525e-09
3	12651	14.71	2.54872e-09
3	12744	14.81	2.40803e-09
3	12837	14.91	2.24887e-09
3	12933	15.01	2.07763e-09
3	13026	15.11	1.89999e-09
3	13119	15.21	1.72236e-09
3	13212	15.31	1.54472e-09
3	13305	15.41	1.37064e-09
3	13398	15.51	1.20295e-09
3	13491	15.61	1.04379e-09
3	13584	15.71	8.94573e-10
3	13677	15.81	7.56017e-10
3	13770	15.91	6.29541e-10
3	13866	16.01	5.13012e-10
3	13959	16.11	4.09273e-10
3	14052	16.21	3.16902e-10
3	14145	16.31	2.3519e-10
3	14238	16.41	1.63425e-10
3	14331	16.51	1.02318e-10
3	14424	16.61	4.9738e-11
3	14517	16.71	5.68434e-12
3	14610	16.81	-3.05533e-11
3	14703	16.91	-5.8975e-11
3	14799	17.01	-8.10019e-11
3	14892	17.11	-9.80549e-11
3	14985	17.21	-1.11555e-10
3	15078	17.31	-1.18661e-10
3	15171	17.41	-1.23634e-10
3	15264	17.51	-1.23634e-10
3	15357	17.61	-1.23634e-10
3	15450	17.71	-1.21503e-10
3	15543	17.81	-1.14397e-10
3	15636	17.91	-1.07292e-10
3	15732	18.01	-1.00187e-10
3	15825	18.11	-9.30811e-11
3	15918	18.21	-8.59757e-11
3	16011	18.31	-7.88702e-11
3	16104	18.41	-7.17648e-11
3	16197	18.51	-6.46594e-11
3	16290	18.61	-5.7554e-11
3	16383	18.71	-5.04485e-11
3	16476	18.81	-4.33431e-11
3	16569	18.91	-3.62377e-11
3	16665	19.01	-2.91323e-11
3	16758	19.11	-2.20268e-11
3	16851	19.21	-1.7053e-11
3	16944	19.31	-1.49214e-11
3	17037	19.41	-1.35003e-11
3	17130	19.51	-1.27898e-11
3	17223	19.61	-1.13687e-11
3	17316	19.71	-9.9476e-12
3	17409	19.81	-9.23706e-12
3	17502	19.91	-8.52651e-12
3	17598	20.01	-7.81597e-12
3	17691	20.11	-7.10543e-12
3	17784	20.21	-6.39488e-12
3	17877	20.31	-5.68434e-12
3	17970	20.41	-4.9738e-12
3	18063	20.51	-4.26326e-12
3	18156	20.61	-4.26326e-12
3	18249	20.71	-3.55271e-12
3	18342	20.81	-3.55271e-12
3	18435	20.91	-2.84217e-12
3	18531	21.01	-2.84217e-12
3	18624	21.11	-2.84217e-12
3	18717	21.21	-2.13163e-12
3	18810	21.31	-2.13163e-12
3	18903	21.41	-2.13163e-12
3	18996	21.51	-1.42109e-12
3	19089	21.61	-1.42109e-12
3	19182	21.71	-1.42109e-12
3	19275	21.81	-1.42109e-12
3	19368	21.91	-1.42109e-12
3	19464	22.01	-7.10543e-13
3	19557	22.11	-7.10543e-13
3	19650	22.21	-7.10543e-13
3	19743	22.31	-7.10543e-13
3	19836	22.41	-7.10543e-13
3	19929	22.51	-7.10543e-13
3	20022	22.61	-7.10543e-13
3	20115	22.71	-7.10543e-13
3	20208	22.81	-7.10543e-13
3	20301	22.91	-7.10543e-13
3	20397	23.01	0
3	20490	23.11	0
3	20583	23.21	0
3	20676	23.31	0
3	20769	23.41	0
3	20862	23.51	0
3	20955	23.61	0
3	21048	23.71	0
3	21141	23.81	0
3	21234	23.91	0
3	21330	24.01	0
3	21423	24.11	0
3	21516	24.21	0
3	21609	24.31	0
3	21702	24.41	0
3	21795	24.51	0
3	21888	24.61	0
3	21981	24.71	0
3	22074	24.81	0
3	22167	24.91	0
3	22263	25.01	0
3	22356	25.11	0
3	22449	25.21	0
3	22542	25.31	0
3	22635	25.41	0
3	22728	25.51	0
3	22821	25.61	0
3	22914	25.71	0
3	23007	25.81	0
3	23100	25.91	0
3	23196	26.01	0
3	23289	26.11	0
3	23382	26.21	0
3	23475	26.31	0
3	23568	26.41	0
3	23661	26.51	0
3	23754	26.61	0
3	23847	26.71	0
3	23940	26.81	0
3	24033	26.91	0
3	24129	27.01	0
3	24222	27.11	0
3	24315	27.21	0
3	24408	27.31	0
3	24501	27.41	0
3	24594	27.51	0
3	24687	27.61	0
3	24780	27.71	0
3	24873	27.81	0
3	24966	27.91	0
3	25062	28.01	0
3	25155	28.11	0
3	25248	28.21	0
3	25341	28.31	0
3	25434	28.41	0
3	25527	28.51	0
3	25620	28.61	0
3	25713	28.71	0
3	25806	28.81	0
3	25899	28.91	0
3	25995	29.01	0
3	26088	29.11	0
3	26181	29.21	0
3	26274	29.31	0
3	26367	29.41	0
3	26460	29.51	0
3	26553	29.61	0
3	26646	29.71	0
3	26739	29.81	0
3	26832	29.91	0
3	26928	30.01	0
3	27021	30.11	0
3	27114	30.21	0
3	27207	30.31	0
3	27300	30.41	0
3	27393	30.51	0
3	27486	30.61	0
3	27579	30.71	0
3	27672	30.81	0
3	27765	30.91	0
3	27861	31.01	0
3	27954	31.11	0
3	28047	31.21	0
3	28140	31.31	0
3	28233	31.41	0
3	28326	31.51	0
3	28419	31.61	0
3	28512	31.71	0
3	28605	31.81	0
3	28698	31.91	0
3	28794	32.01	0
3	28887	32.11	0
3	28980	32.21	0
3	29073	32.31	0
3	29166	32.41	0
3	29259	32.51	0
3	29352	32.61	0
3	29445	32.71	0
3	29538	32.81	0
3	29631	32.91	0
3	29727	33.01	0
3	29820	33.11	0
3	29913	33.21	0
3	30006	33.31	0
3	30099	33.41	0
3	30192	33.51	0
3	30285	33.61	0
3	30378	33.71	0
3	30471	33.81	0
3	30564	33.91	0
3	30660	34.01	0
3	30753	34.11	0
3	30846	34.21	0
3	30939	34.31	0
3	31032	34.41	0
3	31125	34.51	0
3	31218	34.61	0
3	31311	34.71	0
3	31404	34.81	0
3	31497	34.91	0
3	31593	35.01	0
3	31686	35.11	0
3	31779	35.21	0
3	31872	35.31	0
3	31965	35.41	0
3	32058	35.51	0
3	32151	35.61	0
3	32244	35.71	0
3	32337	35.81	0
3	32430	35.91	0
3	32526	36.01	0
3	32619	36.11	0
3	32712	36.21	0
3	32805	36.31	0
3	32898	36.41	0
3	32991	36.51	0
3	33084	36.61	0
3	33177	36.71	0
3	33270	36.81	0
3	33363	36.91	0
3	33459	37.01	0
3	33552	37.11	0
3	33645	37.21	0
3	33738	37.31	0
3	33831	37.41	0
3	33924	37.51	0
3	34017	37.61	0
3	34110	37.71	0
3	34203	37.81	0
3	34296	37.91	0
3	34392	38.01	0
3	34485	38.11	0
3	34578	38.21	0
3	34671	38.31	0
3	34764	38.41	0
3	34857	38.51	0
3	34950	38.61	0
3	35043	38.71	0
3	35136	38.81	0
3	35229	38.91	0
3	35325	39.01	0
3	35418	39.11	0
3	35511	39.21	0
3	35604	39.31	0
3	35697	39.41	0
3	35790	39.51	0
3	35883	39.61	0
3	35976	39.71	0
3	36069	39.81	0
3	36162	39.91	0
3	36258	40.01	0
3	36351	40.11	0
3	36444	40.21	0
3	36537	40.31	0
3	36630	40.41	0
3	36723	40.51	0
3	36816	40.61	0
3	36909	40.71	0
3	37002	40.81	0
3	37095	40.91	0
3	37191	41.01	0
3	37284	41.11	0
3	37377	41.21	0
3	37470	41.31	0
3	37563	41.41	0
3	37656	41.51	0
3	37749	41.61	0
3	37842	41.71	0
3	37935	41.81	0
3	38028	41.91	0
3	38124	42.01	0
3	38217	42.11	0
3	38310	42.21	0
3	38403	42.31	0
3	38496	42.41	0
3	38589	42.51	0
3	38682	42.61	0
3	38775	42.71	0
3	38868	42.81	0
3	38961	42.91	0
3	39057	43.01	0
3	39150	43.11	0
3	39243	43.21	0
3	39336	43.31	0
3	39429	43.41	0
3	39522	43.51	0
3	39615	43.61	0
3	39708	43.71	0
3	39801	43.81	0
3	39894	43.91	0
3	39990	44.01	0
3	40083	44.11	0
3	40176	44.21	0
3	40269	44.31	0
3	40362	44.41	0
3	40455	44.51	0
3	40548	44.61	0
3	40641	44.71	0
3	40734	44.81	0
3	40827	44.91	0
3	40923	45.01	0
3	41016	45.11	0
3	41109	45.21	0
3	41202	45.31	0
3	41295	45.41	0
3	41388	45.51	0
3	41481	45.61	0
3	41574	45.71	0
3	41667	45.81	0
3	41760	45.91	0
3	41856	46.01	0
3	41949	46.11	0
3	42042	46.21	0
3	42135	46.31	0
3	42228	46.41	0
3	42321	46.51	0
3	42414	46.61	0
3	42507	46.71	0
3	42600	46.81	0
3	42693	46.91	0
3	42789	47.01	0
3	42882	47.11	0
3	42975	47.21	0
3	43068	47.31	0
3	43161	47.41	0
3	43254	47.51	0
3	43347	47.61	0
3	43440	47.71	0
3	43533	47.81	0
3	43669	47.91	0
3	43764	48.01	0
3	43856	48.11	0
3	43948	48.21	0
3	44040	48.31	0
3	44132	48.41	0
3	44224	48.51	0
3	44316	48.61	0
3	44408	48.71	0
3	44500	48.81	0
3	44592	48.91	0
3	44687	49.01	0
3	44779	49.11	0
3	44871	49.21	0
3	44963	49.31	0
3	45055	49.41	0
3	45147	49.51	0
3	45239	49.61	0
3	45331	49.71	0
3	45423	49.81	0
3	45515	49.91	0
3	45610	50.01	0
3	45702	50.11	0
3	45794	50.21	0
3	45886	50.31	0
3	45978	50.41	0
3	46070	50.51	0
3	46162	50.61	0
3	46254	50.71	0
3	46346	50.81	0
3	46438	50.91	0
3	46533	51.01	0
3	46625	51.11	0
3	46717	51.21	0
3	46809	51.31	0
3	46901	51.41	0
3	46993	51.51	0
3	47085	51.61	0
3	47177	51.71	0
3	47269	51.81	0
3	47361	51.91	0
3	47456	52.01	0
3	47548	52.11	0
3	47640	52.21	0
3	47732	52.31	0
3	47824	52.41	0
3	47916	52.51	0
3	48008	52.61	0
3	48100	52.71	0
3	48192	52.81	0
3	48284	52.91	0
3	48379	53.01	0
3	48471	53.11	0
3	48563	53.21	0
3	48655	53.31	0
3	48747	53.41	0
3	48839	53.51	0
3	48931	53.61	0
3	49023	53.71	0
3	49115	53.81	0
3	49207	53.91	0
3	49302	54.01	0
3	49394	54.11	0
3	49615	54.21	0
3	49706	54.31	0
3	49797	54.41	0
3	49888	54.51	0
3	49979	54.61	0
3	50070	54.71	0
3	50161	54.81	0
3	50252	54.91	0
3	50346	55.01	0
3	50437	55.11	0
3	50528	55.21	0
3	50619	55.31	0
3	50710	55.41	0
3	50801	55.51	0
3	50892	55.61	0
3	50983	55.71	0
3	51074	55.81	0
3	51165	55.91	0
3	51259	56.01	0
3	51350	56.11	0
3	51441	56.21	0
3	51532	56.31	0
3	51623	56.41	0
3	51714	56.51	0
3	51805	56.61	0
3	51896	56.71	0
3	51987	56.81	0
3	52078	56.91	0
3	52172	57.01	0
3	52263	57.11	0
3	52354	57.21	0
3	52445	57.31	0
3	52536	57.41	0
3	52627	57.51	0
3	52718	57.61	0
3	52809	57.71	0
3	52900	57.81	0
3	52991	57.91	0
3	53085	58.01	0
3	53176	58.11	0
3	53267	58.21	0
3	53358	58.31	0
3	53449	58.41	0
3	53540	58.51	0
3	53631	58.61	0
3	53722	58.71	0
3	53813	58.81	0
3	53904	58.91	0
3	53998	59.01	0
3	54089	59.11	0
3	54180	59.21	0
3	54271	59.31	0
3	54362	59.41	0
3	54453	59.51	0
3	54544	59.61	0
3	54635	59.71	0
3	54726	59.81	0
3	54817	59.91	0
3	54911	60.01	0
3	55002	60.11	0
3	55093	60.21	0
3	55184	60.31	0
3	55275	60.41	0
3	55366	60.51	0
3	55457	60.61	0
3	55548	60.71	0
3	55639	60.81	0
3	55730	60.91	0
3	55824	61.01	0
3	55915	61.11	0
3	56006	61.21	0
3	56097	61.31	0
3	56188	61.41	0
3	56279	61.51	0
3	56370	61.61	0
3	56461	61.71	0
3	56552	61.81	0
3	56643	61.91	0
3	56737	62.01	0
3	56828	62.11	0
3	56919	62.21	0
3	57010	62.31	0
3	57101	62.41	0
3	57192	62.51	0
3	57283	62.61	0
3	57374	62.71	0
3	57465	62.81	0
3	57556	62.91	0
3	57650	63.01	0
3	57741	63.11	0
3	57832	63.21	0
3	57923	63.31	0
3	58014	63.41	0
3	58105	63.51	0
3	58196	63.61	0
3	58287	63.71	0
3	58378	63.81	0
3	58469	63.91	0
3	58563	64.01	0
3	58654	64.11	0
3	58745	64.21	0
3	58836	64.31	0
3	58927	64.41	0
3	59018	64.51	0
3	59109	64.61	0
3	59200	64.71	0
3	59291	64.81	0
3	59382	64.91	0
3	59476	65.01	0
3	59567	65.11	0
3	59658	65.21	0
3	59749	65.31	0
3	59840	65.41	0
3	59931	65.51	0
3	60022	65.61	0
3	60113	65.71	0
3	60204	65.81	0
3	60295	65.91	0
3	60389	66.01	0
3	60480	66.11	0
3	60571	66.21	0
3	60662	66.31	0
3	60753	66.41	0
3	60844	66.51	0
3	60935	66.61	0
3	61026	66.71	0
3	61117	66.81	0
3	61208	66.91	0
3	61302	67.01	0
3	61393	67.11	0
3	61484	67.21	0
3	61575	67.31	0
3	61666	67.41	0
3	61757	67.51	0
3	61848	67.61	0
3	61939	67.71	0
3	62030	67.81	0
3	62121	67.91	0
3	62215	68.01	0
3	62306	68.11	0
3	62397	68.21	0
3	62488	68.31	0
3	62579	68.41	0
3	62670	68.51	0
3	62761	68.61	0
3	62852	68.71	0
3	62943	68.81	0
3	63034	68.91	0
3	63128	69.01	0
3	63219	69.11	0
3	63310	69.21	0
3	63401	69.31	0
3	63492	69.41	0
3	63583	69.51	0
3	63674	69.61	0
3	63765	69.71	0
3	63856	69.81	0
3	63947	69.91	0
3	64041	70.01	0
3	64132	70.11	0
3	64223	70.21	0
3	64314	70.31	0
3	64405	70.41	0
3	64496	70.51	0
3	64587	70.61	0
3	64678	70.71	0
3	64769	70.81	0
3	64860	70.91	0
3	64954	71.01	0
3	65045	71.11	0
3	65136	71.21	0
3	65227	71.31	0
3	65318	71.41	0
3	65409	71.51	0
3	65500	71.61	0
3	65591	71.71	0
3	65682	71.81	0
3	65773	71.91	0
3	65867	72.01	0
3	65958	72.11	0
3	66049	72.21	0
3	66140	72.31	0
3	66231	72.41	0
3	66322	72.51	0
3	66413	72.61	0
3	66504	72.71	0
3	66595	72.81	0
3	66686	72.91	0
3	66780	73.01	0
3	66871	73.11	0
3	66962	73.21	0
3	67053	73.31	0
3	67144	73.41	0
3	67235	73.51	0
3	67326	73.61	0
3	67417	73.71	0
3	67508	73.81	0
3	67599	73.91	0
3	67693	74.01	0
3	67784	74.11	0
3	67875	74.21	0
3	67966	74.31	0
3	68057	74.41	0
3	68148	74.51	0
3	68239	74.61	0
3	68330	74.71	0
3	68421	74.81	0
3	68512	74.91	0
3	68606	75.01	0
3	68697	75.11	0
3	68788	75.21	0
3	68879	75.31	0
3	68970	75.41	0
3	69061	75.51	0
3	69152	75.61	0
3	69243	75.71	0
3	69334	75.81	0
3	69425	75.91	0
3	69519	76.01	0
3	69610	76.11	0
3	69701	76.21	0
3	69792	76.31	0
3	69883	76.41	0
3	69974	76.51	0
3	70065	76.61	0
3	70156	76.71	0
3	70247	76.81	0
3	70338	76.91	0
3	70432	77.01	0
3	70523	77.11	0
3	70614	77.21	0
3	70705	77.31	0
3	70796	77.41	0
3	70887	77.51	0
3	70978	77.61	0
3	71069	77.71	0
3	71160	77.81	0
3	71251	77.91	0
3	71345	78.01	0
3	71436	78.11	0
3	71527	78.21	0
3	71618	78.31	0
3	71709	78.41	0
3	71800	78.51	0
3	71891	78.61	0
3	71982	78.71	0
3	72073	78.81	0
3	72164	78.91	0
3	72258	79.01	0
3	72349	79.11	0
3	72440	79.21	0
3	72531	79.31	0
3	72622	79.41	0
3	72713	79.51	0
3	72804	79.61	0
3	72895	79.71	0
3	72986	79.81	0
3	73077	79.91	0
3	73171	80.01	0
3	73262	80.11	0
3	73353	80.21	0
3	73444	80.31	0
3	73535	80.41	0
3	73626	80.51	0
3	73717	80.61	0
3	73808	80.71	0
3	73899	80.81	0
3	73990	80.91	0
3	74084	81.01	0
3	74175	81.11	0
3	74266	81.21	0
3	74357	81.31	0
3	74448	81.41	0
3	74539	81.51	0
3	74630	81.61	0
3	74721	81.71	0
3	74812	81.81	0
3	74903	81.91	0
3	74997	82.01	0
3	75088	82.11	0
3	75179	82.21	0
3	75270	82.31	0
3	75361	82.41	0
3	75452	82.51	0
3	75543	82.61	0
3	75634	82.71	0
3	75725	82.81	0
3	75816	82.91	0
3	75910	83.01	0
3	76001	83.11	0
3	76092	83.21	0
3	76183	83.31	0
3	76274	83.41	0
3	76365	83.51	0
3	76456	83.61	0
3	76547	83.71	0
3	76638	83.81	0
3	76729	83.91	0
3	76823	84.01	0
3	76914	84.11	0
3	77005	84.21	0
3	77096	84.31	0
3	77187	84.41	0
3	77278	84.51	0
3	77369	84.61	0
3	77460	84.71	0
3	77551	84.81	0
3	77642	84.91	0
3	77736	85.01	0
3	77827	85.11	0
3	77918	85.21	0
3	78009	85.31	0
3	78100	85.41	0
3	78191	85.51	0
3	78282	85.61	0
3	78373	85.71	0
3	78464	85.81	0
3	78555	85.91	0
3	78649	86.01	0
3	78740	86.11	0
3	78831	86.21	0
3	78922	86.31	0
3	79013	86.41	0
3	79104	86.51	0
3	79195	86.61	0
3	79286	86.71	0
3	79377	86.81	0
3	79468	86.91	0
3	79562	87.01	0
3	79653	87.11	0
3	79744	87.21	0
3	79835	87.31	0
3	79926	87.41	0
3	80017	87.51	0
3	80108	87.61	0
3	80199	87.71	0
3	80290	87.81	0
3	80381	87.91	0
3	80475	88.01	0
3	80566	88.11	0
3	80657	88.21	0
3	80748	88.31	0
3	80839	88.41	0
3	80930	88.51	0
3	81021	88.61	0
3	81112	88.71	0
3	81203	88.81	0
3	81294	88.91	0
3	81388	89.01	0
3	81479	89.11	0
3	81570	89.21	0
3	81661	89.31	0
3	81752	89.41	0
3	81843	89.51	0
3	81934	89.61	0
3	82025	89.71	0
3	82116	89.81	0
3	82207	89.91	0
3	82301	90.01	0
3	82392	90.11	0
3	82483	90.21	0
3	82574	90.31	0
3	82665	90.41	0
3	82756	90.51	0
3	82847	90.61	0
3	82938	90.71	0
3	83029	90.81	0
3	83120	90.91	0
3	83214	91.01	0
3	83305	91.11	0
3	83396	91.21	0
3	83487	91.31	0
3	83578	91.41	0
3	83669	91.51	0
3	83760	91.61	0
3	83851	91.71	0
3	83942	91.81	0
3	84033	91.91	0
3	84127	92.01	0
3	84218	92.11	0
3	84309	92.21	0
3	84400	92.31	0
3	84491	92.41	0
3	84582	92.51	0
3	84673	92.61	0
3	84764	92.71	0
3	84855	92.81	0
3	84946	92.91	0
3	85040	93.01	0
3	85131	93.11	0
3	85222	93.21	0
3	85313	93.31	0
3	85404	93.41	0
3	85495	93.51	0
3	85586	93.61	0
3	85677	93.71	0
3	85768	93.81	0
3	85859	93.91	0
3	85953	94.01	0
3	86044	94.11	0
3	86135	94.21	0
3	86226	94.31	0
3	86317	94.41	0
3	86408	94.51	0
3	86499	94.61	0
3	86590	94.71	0
3	86681	94.81	0
3	86772	94.91	0
3	86866	95.01	0
3	86957	95.11	0
3	87048	95.21	0
3	87139	95.31	0
3	87230	95.41	0
3	87321	95.51	0
3	87412	95.61	0
3	87503	95.71	0
3	87594	95.81	0
3	87685	95.91	0
3	87779	96.01	0
3	87870	96.11	0
3	87961	96.21	0
3	88052	96.31	0
3	88143	96.41	0
3	88234	96.51	0
3	88325	96.61	0
3	88416	96.71	0
3	88507	96.81	0
3	88598	96.91	0
3	88692	97.01	0
3	88783	97.11	0
3	88874	97.21	0
3	88965	97.31	0
3	89056	97.41	0
3	89147	97.51	0
3	89238	97.61	0
3	89329	97.71	0
3	89420	97.81	0
3	89511	97.91	0
3	89605	98.01	0
3	89696	98.11	0
3	89787	98.21	0
3	89878	98.31	0
3	89969	98.41	0
3	90060	98.51	0
3	90151	98.61	0
3	90242	98.71	0
3	90333	98.81	0
3	90424	98.91	0
3	90518	99.01	0
3	90609	99.11	0
3	90700	99.21	0
3	90791	99.31	0
3	90882	99.41	0
3	90973	99.51	0
3	91064	99.61	0
3	91155	99.71	0
3	91246	99.81	0
3	91337	99.91	0
4	113	1.11	0.00109259
4	204	1.21	0.00106709
4	295	1.31	0.00102704
4	386	1.41	0.000975759
4	477	1.51	0.00091619
4	568	1.61	0.000850891
4	659	1.71	0.000782061
4	750	1.81	0.00071157
4	841	1.91	0.00064098
4	935	2.01	0.000571575
4	1026	2.11	0.000504387
4	1117	2.21	0.000440223
4	1208	2.31	0.000379691
4	1299	2.41	0.000323223
4	1390	2.51	0.000271102
4	1481	2.61	0.000223482
4	1572	2.71	0.000180409
4	1663	2.81	0.000141839
4	1754	2.91	0.000107653
4	1848	3.01	7.76787e-05
4	1939	3.11	5.16957e-05
4	2030	3.21	2.94534e-05
4	2121	3.31	1.06787e-05
4	2212	3.41	-4.91459e-06
4	2303	3.51	-1.76184e-05
4	2394	3.61	-2.7724e-05
4	2485	3.71	-3.55168e-05
4	2576	3.81	-4.12726e-05
4	2667	3.91	-4.52541e-05
4	2761	4.01	-4.77086e-05
4	2852	4.11	-4.88665e-05
4	2943	4.21	-4.89399e-05
4	3034	4.31	-4.81224e-05
4	3125	4.41	-4.65886e-05
4	3216	4.51	-4.44947e-05
4	3307	4.61	-4.1979e-05
4	3398	4.71	-3.91623e-05
4	3489	4.81	-3.61492e-05
4	3580	4.91	-3.3029e-05
4	3674	5.01	-2.9877e-05
4	3765	5.11	-2.67554e-05
4	3856	5.21	-2.37147e-05
4	3947	5.31	-2.07949e-05
4	4038	5.41	-1.80267e-05
4	4129	5.51	-1.54325e-05
4	4220	5.61	-1.30275e-05
4	4311	5.71	-1.0821e-05
4	4402	5.81	-8.81673e-06
4	4493	5.91	-7.01443e-06
4	4587	6.01	-5.4101e-06
4	4678	6.11	-3.99696e-06
4	4769	6.21	-2.766e-06
4	4860	6.31	-1.70658e-06
4	4951	6.41	-8.06872e-07
4	5042	6.51	-5.43281e-08
4	5133	6.61	5.63994e-07
4	5224	6.71	1.06112e-06
4	5315	6.81	1.4499e-06
4	5406	6.91	1.74283e-06
4	5500	7.01	1.95188e-06
4	5591	7.11	2.08836e-06
4	5682	7.21	2.16287e-06
4	5773	7.31	2.1852e-06
4	5864	7.41	2.16432e-06
4	5955	7.51	2.10838e-06
4	6046	7.61	2.02467e-06
4	6137	7.71	1.91968e-06
4	6228	7.81	1.79913e-06
4	6319	7.91	1.66796e-06
4	6413	8.01	1.53044e-06
4	6504	8.11	1.39018e-06
4	6595	8.21	1.25018e-06
4	6686	8.31	1.11291e-06
4	6777	8.41	9.80339e-07
4	6868	8.51	8.54002e-07
4	6959	8.61	7.35044e-07
4	7050	8.71	6.24274e-07
4	7141	8.81	5.22206e-07
4	7232	8.91	4.2911e-07
4	7326	9.01	3.45041e-07
4	7417	9.11	2.69888e-07
4	7508	9.21	2.03394e-07
4	7599	9.31	1.45199e-07
4	7690	9.41	9.48539e-08
4	7781	9.51	5.18526e-08
4	7872	9.61	1.56462e-08
4	7963	9.71	-1.43366e-08
4	8054	9.81	-3.86756e-08
4	8145	9.91	-5.79483e-08
4	8268	10.01	-7.27191e-08
4	8361	10.11	-8.35328e-08
4	8454	10.21	-9.09047e-08
4	8547	10.31	-9.53222e-08
4	8640	10.41	-9.72364e-08
4	8733	10.51	-9.7063e-08
4	8826	10.61	-9.51793e-08
4	8919	10.71	-9.19272e-08
4	9012	10.81	-8.76099e-08
4	9105	10.91	-8.24976e-08
4	9201	11.01	-7.68239e-08
4	9294	11.11	-7.07914e-08
4	9387	11.21	-6.45734e-08
4	9480	11.31	-5.83135e-08
4	9573	11.41	-5.21325e-08
4	9666	11.51	-4.6127e-08
4	9759	11.61	-4.0373e-08
4	9852	11.71	-3.49289e-08
4	9945	11.81	-2.98357e-08
4	10038	11.91	-2.51227e-08
4	10134	12.01	-2.08054e-08
4	10227	12.11	-1.6891e-08
4	10320	12.21	-1.33767e-08
4	10413	12.31	-1.02538e-08
4	10506	12.41	-7.50759e-09
4	10599	12.51	-5.12017e-09
4	10692	12.61	-3.07026e-09
4	10785	12.71	-1.33298e-09
4	10878	12.81	1.15818e-10
4	10971	12.91	1.30242e-09
4	11067	13.01	2.25242e-09
4	11160	13.11	2.99138e-09
4	11253	13.21	3.54419e-09
4	11346	13.31	3.93356e-09
4	11439	13.41	4.18297e-09
4	11532	13.51	4.31157e-09
4	11625	13.61	4.34071e-09
4	11718	13.71	4.28599e-09
4	11811	13.81	4.16449e-09
4	11904	13.91	3.99041e-09
4	12000	14.01	3.77582e-09
4	12093	14.11	3.53211e-09
4	12186	14.21	3.2685e-09
4	12279	14.31	2.99423e-09
4	12372	14.41	2.71498e-09
4	12465	14.51	2.43716e-09
4	12558	14.61	2.16573e-09
4	12651	14.71	1.90425e-09
4	12744	14.81	1.65556e-09
4	12837	14.91	1.4218e-09
4	12933	15.01	1.20437e-09
4	13026	15.11	1.00471e-09
4	13119	15.21	8.22808e-10
4	13212	15.31	6.57963e-10
4	13305	15.41	5.11591e-10
4	13398	15.51	3.82272e-10
4	13491	15.61	2.69296e-10
4	13584	15.71	1.71951e-10
4	13677	15.81	8.88178e-11
4	13770	15.91	1.84741e-11
4	13866	16.01	-3.90799e-11
4	13959	16.11	-8.52651e-11
4	14052	16.21	-1.22213e-10
4	14145	16.31	-1.49925e-10
4	14238	16.41	-1.7053e-10
4	14331	16.51	-1.84031e-10
4	14424	16.61	-1.91847e-10
4	14517	16.71	-1.94689e-10
4	14610	16.81	-1.93268e-10
4	14703	16.91	-1.89004e-10
4	14799	17.01	-1.81899e-10
4	14892	17.11	-1.73372e-10
4	14985	17.21	-1.62714e-10
4	15078	17.31	-1.51346e-10
4	15171	17.41	-1.39266e-10
4	15264	17.51	-1.26477e-10
4	15357	17.61	-1.14397e-10
4	15450	17.71	-1.02318e-10
4	15543	17.81	-9.02389e-11
4	15636	17.91	-7.88702e-11
4	15732	18.01	-6.89226e-11
4	15825	18.11	-5.8975e-11
4	15918	18.21	-4.9738e-11
4	16011	18.31	-4.1922e-11
4	16104	18.41	-3.41061e-11
4	16197	18.51	-2.70006e-11
4	16290	18.61	-2.13163e-11
4	16383	18.71	-1.56319e-11
4	16476	18.81	-1.06581e-11
4	16569	18.91	-7.10543e-12
4	16665	19.01	-3.55271e-12
4	16758	19.11	-7.10543e-13
4	16851	19.21	7.10543e-13
4	16944	19.31	2.84217e-12
4	17037	19.41	4.26326e-12
4	17130	19.51	4.9738e-12
4	17223	19.61	6.39488e-12
4	17316	19.71	7.81597e-12
4	17409	19.81	8.52651e-12
4	17502	19.91	9.23706e-12
4	17598	20.01	9.9476e-12
4	17691	20.11	1.06581e-11
4	17784	20.21	1.13687e-11
4	17877	20.31	1.20792e-11
4	17970	20.41	1.27898e-11
4	18063	20.51	1.35003e-11
4	18156	20.61	1.35003e-11
4	18249	20.71	1.42109e-11
4	18342	20.81	1.42109e-11
[...]
31	78344	85.699171866366	2
31	78435	85.799177034109	2
31	78526	85.899169205188	2
31	78617	85.999174379603	2
31	78711	86.099179557353	2
31	78802	86.199171738439	2
31	78893	86.299176922861	2
31	78984	86.399169110619	2
31	79075	86.499174301712	2
31	79166	86.599179496141	2
31	79257	86.699171693906	2
31	79348	86.799176895006	2
31	79439	86.899169099441	2
31	79530	86.999174307212	2
31	79624	87.099179518319	2
31	79715	87.199171732762	2
31	79806	87.299176950539	2
31	79897	87.399169171652	2
31	79988	87.499174396101	2
31	80079	87.599179623886	2
31	80170	87.699171855007	2
31	80261	87.799177089464	2
31	80352	87.899169327256	2
31	80443	87.999174568384	2
31	80537	88.099179812847	2
31	80628	88.199172060646	2
31	80719	88.299177311781	2
31	80810	88.399169566252	2
31	80901	88.499174824057	2
31	80992	88.599180085198	2
31	81083	88.699172349675	2
31	81174	88.799177617488	2
31	81265	88.899169888636	2
31	81356	88.999175163119	2
31	81450	89.099167440939	2
31	81541	89.199172722095	2
31	81632	89.299178006586	2
31	81723	89.399170294413	2
31	81814	89.499175585576	2
31	81905	89.599167880074	2
31	81996	89.699173177907	2
31	82087	89.799178479076	2
31	82178	89.899170783581	2
31	82269	89.999176091422	2
31	82363	90.099168402597	2
31	82454	90.199173717108	2
31	82545	90.299179034955	2
31	82636	90.399171356138	2
31	82727	90.499176680656	2
31	82818	90.599169008511	2
31	82909	90.699174339701	2
31	83000	90.799179674227	2
31	83091	90.899172012088	2
31	83182	90.999177353285	2
31	83276	91.099169697818	2
31	83367	91.199175045686	2
31	83458	91.29918039689	2
31	83549	91.399172751429	2
31	83640	91.499178109304	2
31	83731	91.599170470515	2
31	83822	91.699175835062	2
31	83913	91.799168202943	2
31	84004	91.89917357416	2
31	84095	91.999178948714	2
31	84189	92.099171326604	2
31	84280	92.199176707829	2
31	84371	92.29916909239	2
31	84462	92.399174480286	2
31	84553	92.499179871518	2
31	84644	92.599172266085	2
31	84735	92.699177663988	2
31	84826	92.799170065227	2
31	84917	92.899175469801	2
31	85008	92.99916787771	2
31	85102	93.099173288955	2
31	85193	93.199178703536	2
31	85284	93.299171121453	2
31	85375	93.399176542705	2
31	85466	93.499168967293	2
31	85557	93.599174395217	2
31	85648	93.699179826477	2
31	85739	93.799172261072	2
31	85830	93.899177699003	2
31	85921	93.999170140269	2
31	86015	94.099175584871	2
31	86106	94.199168032808	2
31	86197	94.299173484081	2
31	86288	94.39917893869	2
31	86379	94.499171396635	2
31	86470	94.599176857914	2
31	86561	94.699169322529	2
31	86652	94.79917479048	2
31	86743	94.899180261768	2
31	86834	94.999172736391	2
31	86928	95.099178214349	2
31	87019	95.199170695643	2
31	87110	95.299176180273	2
31	87201	95.399168668238	2
31	87292	95.499174159539	2
31	87383	95.599179654176	2
31	87474	95.699172152148	2
31	87565	95.799177653455	2
31	87656	95.899170158098	2
31	87747	95.999175666077	2
31	87841	96.099168177392	2
31	87932	96.199173692042	2
31	88023	96.299179210028	2
31	88114	96.39917173135	2
31	88205	96.499177256008	2
31	88296	96.599169784001	2
31	88387	96.69917531533	2
31	88478	96.799167849994	2
31	88569	96.899173387994	2
31	88660	96.999178929329	2
31	88754	97.099171474	2
31	88845	97.199177022007	2
31	88936	97.29916957335	2
31	89027	97.399175128027	2
31	89118	97.49916768604	2
31	89209	97.599173247389	2
31	89300	97.699178812074	2
31	89391	97.799171380095	2
31	89482	97.899176951451	2
31	89573	97.999169526143	2
31	89667	98.099175104171	2
31	89758	98.199167685534	2
31	89849	98.299173270233	2
31	89940	98.399178858268	2
31	90031	98.499171449638	2
31	90122	98.599177044343	2
31	90213	98.699169642384	2
31	90304	98.799175243761	2
31	90395	98.899167848474	2
31	90486	98.999173456521	2
31	90580	99.099179067904	2
31	90671	99.199171682624	2
31	90762	99.29917730068	2
31	90853	99.399169922071	2
31	90944	99.499175546798	2
31	91035	99.59916817486	2
31	91126	99.699173806258	2
31	91217	99.799179440991	2
31	91308	99.89917207906	2
31	91399	99.999177720465	2
32	915	2	0
32	1828	3	0
32	2741	4	0
32	3654	5	0
32	4567	6	0
32	5480	7	0
32	6393	8	0
32	7306	9	0
32	8220	10	0
32	9179	11	0
32	10112	12	0
32	11045	13	0
32	11978	14	0
32	12911	15	0
32	13844	16	0
32	14777	17	0
32	15710	18	0
32	16643	19	0
32	17576	20	0
32	18509	21	0
32	19442	22	0
32	20375	23	0
32	21308	24	0
32	22241	25	0
32	23174	26	0
32	24107	27	0
32	25040	28	0
32	25973	29	0
32	26906	30	0
32	27839	31	0
32	28772	32	0
32	29705	33	0
32	30638	34	0
32	31571	35	0
32	32504	36	0
32	33437	37	0
32	34370	38	0
32	35303	39	0
32	36236	40	0
32	37169	41	0
32	38102	42	0
32	39035	43	0
32	39968	44	0
32	40901	45	0
32	41834	46	0
32	42767	47	0
32	43743	48	0
32	44666	49	0
32	45589	50	0
32	46512	51	0
32	47435	52	0
32	48358	53	0
32	49281	54	0
32	50326	55	0
32	51239	56	0
32	52152	57	0
32	53065	58	0
32	53978	59	0
32	54891	60	0
32	55804	61	0
32	56717	62	0
32	57630	63	0
32	58543	64	0
32	59456	65	0
32	60369	66	0
32	61282	67	0
32	62195	68	0
32	63108	69	0
32	64021	70	0
32	64934	71	0
32	65847	72	0
32	66760	73	0
32	67673	74	0
32	68586	75	0
32	69499	76	0
32	70412	77	0
32	71325	78	0
32	72238	79	0
32	73151	80	0
32	74064	81	0
32	74977	82	0
32	75890	83	0
32	76803	84	0
32	77716	85	0
32	78629	86	0
32	79542	87	0
32	80455	88	0
32	81368	89	0
32	82281	90	0
32	83194	91	0
32	84107	92	0
32	85020	93	0
32	85933	94	0
32	86846	95	0
32	87759	96	0
32	88672	97	0
32	89585	98	0
32	90498	99	0
32	91411	100	0
33	915	2	0.008241279496
33	1828	3	0.00936819944
33	2741	4	0.009368199434
33	3654	5	0.00936819942
33	4567	6	0.00936819942
33	5480	7	0.00938119942
33	6393	8	0.00936819942
33	7306	9	0.00936819942
33	8220	10	0.00936819942
33	9179	11	0.009414195212
33	10112	12	0.009381155182
33	11045	13	0.009368063645
33	11978	14	0.009367933129
33	12911	15	0.009367779076
33	13844	16	0.009367613852
33	14777	17	0.00936744637
33	15710	18	0.00938028272
33	16643	19	0.009367126869
33	17576	20	0.009366981189
33	18509	21	0.009366846936
33	19442	22	0.00937972457
33	20375	23	0.009366614008
33	21308	24	0.009366514802
33	22241	25	0.009366426298
33	23174	26	0.009379347707
33	24107	27	0.009366278194
33	25040	28	0.009366216907
33	25973	29	0.009366163014
33	26906	30	0.009379115739
33	27839	31	0.009366074344
33	28772	32	0.009366038161
33	29705	33	0.009379006578
33	30638	34	0.009365979039
33	31571	35	0.009365955053
33	32504	36	0.009378934185
33	33437	37	0.009365916035
33	34370	38	0.009365900267
33	35303	39	0.009378886567
33	36236	40	0.009365874684
33	37169	41	0.009365864373
33	38102	42	0.009378855428
33	39035	43	0.009365847677
33	39968	44	0.00936584096
33	40901	45	0.009365835141
33	41834	46	0.009378830098
33	42767	47	0.009365825733
33	43743	48	0.009514821953
33	44666	49	0.009365818683
33	45589	50	0.009378815853
33	46512	51	0.009365813404
33	47435	52	0.009365811283
33	48358	53	0.009378809449
33	49281	54	0.009365807866
33	50326	55	0.009801791083
33	51239	56	0.00937873873
33	52152	57	0.009365604755
33	53065	58	0.009365409527
33	53978	59	0.009378196548
33	54891	60	0.009364984595
33	55804	61	0.009364775208
33	56717	62	0.009377566297
33	57630	63	0.009364356666
33	58543	64	0.009377145791
33	59456	65	0.009363933
33	60369	66	0.009376716672
33	61282	67	0.009363492763
33	62195	68	0.009376251809
33	63108	69	0.009362980718
33	64021	70	0.009375679881
33	64934	71	0.009362362496
33	65847	72	0.009375037779
33	66760	73	0.009374709638
33	67673	74	0.009361379706
33	68586	75	0.009374048737
33	69499	76	0.009373717115
33	70412	77	0.009360385065
33	71325	78	0.009373052706
33	72238	79	0.009372720132
33	73151	80	0.009372387397
33	74064	81	0.009372054532
33	74977	82	0.00935872157
33	75890	83	0.009371388526
33	76803	84	0.009371055421
33	77716	85	0.009370722259
33	78629	86	0.009370394911
33	79542	87	0.009370062013
33	80455	88	0.009369728451
33	81368	89	0.009369394887
33	82281	90	0.00936906132
33	83194	91	0.009368727759
33	84107	92	0.009381394193
33	85020	93	0.009368060627
33	85933	94	0.009367727063
33	86846	95	0.009367393501
33	87759	96	0.009367059936
33	88672	97	0.009379726371
33	89585	98	0.009366392808
33	90498	99	0.009366059245
33	91411	100	0.009365725678
34	915	2	0
34	1828	3	0
34	2741	4	0
34	3654	5	0
34	4567	6	0
34	5480	7	0
34	6393	8	0
34	7306	9	0
34	8220	10	0
34	9179	11	0
34	10112	12	0
34	11045	13	0
34	11978	14	0
34	12911	15	0
34	13844	16	0
34	14777	17	0
34	15710	18	0
34	16643	19	0
34	17576	20	0
34	18509	21	0
34	19442	22	0
34	20375	23	0
34	21308	24	0
34	22241	25	0
34	23174	26	0
34	24107	27	0
34	25040	28	0
34	25973	29	0
34	26906	30	0
34	27839	31	0
34	28772	32	0
34	29705	33	0
34	30638	34	0
34	31571	35	0
34	32504	36	0
34	33437	37	0
34	34370	38	0
34	35303	39	0
34	36236	40	0
34	37169	41	0
34	38102	42	0
34	39035	43	0
34	39968	44	0
34	40901	45	0
34	41834	46	0
34	42767	47	0
34	43743	48	0
34	44666	49	0
34	45589	50	0
34	46512	51	0
34	47435	52	0
34	48358	53	0
34	49281	54	0
34	50326	55	0
34	51239	56	0
34	52152	57	0
34	53065	58	0
34	53978	59	0
34	54891	60	0
34	55804	61	0
34	56717	62	0
34	57630	63	0
34	58543	64	0
34	59456	65	0
34	60369	66	0
34	61282	67	0
34	62195	68	0
34	63108	69	0
34	64021	70	0
34	64934	71	0
34	65847	72	0
34	66760	73	0
34	67673	74	0
34	68586	75	0
34	69499	76	0
34	70412	77	0
34	71325	78	0
34	72238	79	0
34	73151	80	0
34	74064	81	0
34	74977	82	0
34	75890	83	0
34	76803	84	0
34	77716	85	0
34	78629	86	0
34	79542	87	0
34	80455	88	0
34	81368	89	0
34	82281	90	0
34	83194	91	0
34	84107	92	0
34	85020	93	0
34	85933	94	0
34	86846	95	0
34	87759	96	0
34	88672	97	0
34	89585	98	0
34	90498	99	0
34	91411	100	0
35	916	2	1
35	1829	3	1
35	2742	4	1
35	3655	5	1
35	4568	6	1
35	5481	7	1
35	6394	8	1
35	7307	9	1
35	8221	10	1
35	9180	11	1
35	10113	12	1
35	11046	13	1
35	11979	14	1
35	12912	15	1
35	13845	16	1
35	14778	17	1
35	15711	18	1
35	16644	19	1
35	17577	20	1
35	18510	21	1
35	19443	22	1
35	20376	23	1
35	21309	24	1
35	22242	25	1
35	23175	26	1
35	24108	27	1
35	25041	28	1
35	25974	29	1
35	26907	30	1
35	27840	31	1
35	28773	32	1
35	29706	33	1
35	30639	34	1
35	31572	35	1
35	32505	36	1
35	33438	37	1
35	34371	38	1
35	35304	39	1
35	36237	40	1
35	37170	41	1
35	38103	42	1
35	39036	43	1
35	39969	44	1
35	40902	45	1
35	41835	46	1
35	42768	47	1
35	43744	48	1
35	44667	49	1
35	45590	50	1
35	46513	51	1
35	47436	52	1
35	48359	53	1
35	49282	54	1
35	50327	55	1
35	51240	56	1
35	52153	57	1
35	53066	58	1
35	53979	59	1
35	54892	60	1
35	55805	61	1
35	56718	62	1
35	57631	63	1
35	58544	64	1
35	59457	65	1
35	60370	66	1
35	61283	67	1
35	62196	68	1
35	63109	69	1
35	64022	70	1
35	64935	71	1
35	65848	72	1
35	66761	73	1
35	67674	74	1
35	68587	75	1
35	69500	76	1
35	70413	77	1
35	71326	78	1
35	72239	79	1
35	73152	80	1
35	74065	81	1
35	74978	82	1
35	75891	83	1
35	76804	84	1
35	77717	85	1
35	78630	86	1
35	79543	87	1
35	80456	88	1
35	81369	89	1
35	82282	90	1
35	83195	91	1
35	84108	92	1
35	85021	93	1
35	85934	94	1
35	86847	95	1
35	87760	96	1
35	88673	97	1
35	89586	98	1
35	90499	99	1
35	91412	100	1
36	916	2	0.00824129951
36	1829	3	0.00936819944
36	2742	4	0.009368199435
36	3655	5	0.00936819942
36	4568	6	0.00936819942
36	5481	7	0.00938119942
36	6394	8	0.00936819942
36	7307	9	0.00936819942
36	8221	10	0.00936819942
36	9180	11	0.009413195704
36	10113	12	0.009381157327
36	11046	13	0.009368067207
36	11979	14	0.009367937514
36	12912	15	0.009367783807
36	13845	16	0.009367618597
36	14778	17	0.009367450928
36	15711	18	0.009380286973
36	16644	19	0.009367130759
36	17577	20	0.009366984695
36	18510	21	0.009366850062
36	19443	22	0.009379727334
36	20376	23	0.009366616437
36	21309	24	0.009366516925
36	22242	25	0.009366428147
36	23175	26	0.009379349311
36	24108	27	0.009366279581
36	25041	28	0.009366218107
36	25974	29	0.009366164048
36	26907	30	0.00937911663
36	27840	31	0.009366075109
36	28773	32	0.009366038819
36	29706	33	0.009379007143
36	30639	34	0.009365979524
36	31572	35	0.009365955469
36	32505	36	0.009378934541
36	33438	37	0.009365916341
36	34371	38	0.009365900527
36	35304	39	0.009378886792
36	36237	40	0.009365874876
36	37170	41	0.009365864537
36	38103	42	0.009378855569
36	39036	43	0.009365847797
36	39969	44	0.009365841063
36	40902	45	0.00936583523
36	41835	46	0.009378830173
36	42768	47	0.009365825797
36	43744	48	0.009515981457
36	44667	49	0.00936581873
36	45590	50	0.009378815893
36	46513	51	0.009365813439
36	47436	52	0.009365811313
36	48359	53	0.009378809473
36	49282	54	0.009365807889
36	50327	55	0.009735310649
36	51240	56	0.00937873511
36	52153	57	0.009365598827
36	53066	58	0.009365403059
36	53979	59	0.009378190172
36	54892	60	0.00936497832
36	55805	61	0.009364768957
36	56718	62	0.009377560035
36	57631	63	0.009364350393
36	58544	64	0.009377139512
36	59457	65	0.009363926718
36	60370	66	0.009376710388
36	61283	67	0.009363486477
36	62196	68	0.009376245521
36	63109	69	0.00936297443
36	64022	70	0.00937567359
36	64935	71	0.009362356205
36	65848	72	0.009375031486
36	66761	73	0.009374703346
36	67674	74	0.009361373411
36	68587	75	0.009374042444
36	69500	76	0.009373710819
36	70413	77	0.009360378771
36	71326	78	0.009373046409
36	72239	79	0.009372713837
36	73152	80	0.0093723811
36	74065	81	0.009372048236
36	74978	82	0.009358715273
36	75891	83	0.009371382229
36	76804	84	0.009371049123
36	77717	85	0.009370715962
36	78630	86	0.009370388716
36	79543	87	0.009370055713
36	80456	88	0.00936972215
36	81369	89	0.009369388587
36	82282	90	0.009369055018
36	83195	91	0.009368721459
36	84108	92	0.009381387893
36	85021	93	0.009368054326
36	85934	94	0.009367720763
36	86847	95	0.009367387199
36	87760	96	0.009367053636
36	88673	97	0.00937972007
36	89586	98	0.009366386508
36	90499	99	0.009366052944
36	91412	100	0.009365719377
37	916	2	0
37	1829	3	0
37	2742	4	0
37	3655	5	0
37	4568	6	0
37	5481	7	0
37	6394	8	0
37	7307	9	0
37	8221	10	0
37	9180	11	0
37	10113	12	0
37	11046	13	0
37	11979	14	0
37	12912	15	0
37	13845	16	0
37	14778	17	0
37	15711	18	0
37	16644	19	0
37	17577	20	0
37	18510	21	0
37	19443	22	0
37	20376	23	0
37	21309	24	0
37	22242	25	0
37	23175	26	0
37	24108	27	0
37	25041	28	0
37	25974	29	0
37	26907	30	0
37	27840	31	0
37	28773	32	0
37	29706	33	0
37	30639	34	0
37	31572	35	0
37	32505	36	0
37	33438	37	0
37	34371	38	0
37	35304	39	0
37	36237	40	0
37	37170	41	0
37	38103	42	0
37	39036	43	0
37	39969	44	0
37	40902	45	0
37	41835	46	0
37	42768	47	0
37	43744	48	0
37	44667	49	0
37	45590	50	0
37	46513	51	0
37	47436	52	0
37	48359	53	0
37	49282	54	0
37	50327	55	0
37	51240	56	0
37	52153	57	0
37	53066	58	0
37	53979	59	0
37	54892	60	0
37	55805	61	0
37	56718	62	0
37	57631	63	0
37	58544	64	0
37	59457	65	0
37	60370	66	0
37	61283	67	0
37	62196	68	0
37	63109	69	0
37	64022	70	0
37	64935	71	0
37	65848	72	0
37	66761	73	0
37	67674	74	0
37	68587	75	0
37	69500	76	0
37	70413	77	0
37	71326	78	0
37	72239	79	0
37	73152	80	0
37	74065	81	0
37	74978	82	0
37	75891	83	0
37	76804	84	0
37	77717	85	0
37	78630	86	0
37	79543	87	0
37	80456	88	0
37	81369	89	0
37	82282	90	0
37	83195	91	0
37	84108	92	0
37	85021	93	0
37	85934	94	0
37	86847	95	0
37	87760	96	0
37	88673	97	0
37	89586	98	0
37	90499	99	0
37	91412	100	0
38	917	2	2
38	1830	3	2
38	2743	4	2
38	3656	5	2
38	4569	6	2
38	5482	7	2
38	6395	8	2
38	7308	9	2
38	8222	10	2
38	9181	11	2
38	10114	12	2
38	11047	13	2
38	11980	14	2
38	12913	15	2
38	13846	16	2
38	14779	17	2
38	15712	18	2
38	16645	19	2
38	17578	20	2
38	18511	21	2
38	19444	22	2
38	20377	23	2
38	21310	24	2
38	22243	25	2
38	23176	26	2
38	24109	27	2
38	25042	28	2
38	25975	29	2
38	26908	30	2
38	27841	31	2
38	28774	32	2
38	29707	33	2
38	30640	34	2
38	31573	35	2
38	32506	36	2
38	33439	37	2
38	34372	38	2
38	35305	39	2
38	36238	40	2
38	37171	41	2
38	38104	42	2
38	39037	43	2
38	39970	44	2
38	40903	45	2
38	41836	46	2
38	42769	47	2
38	43745	48	2
38	44668	49	2
38	45591	50	2
38	46514	51	2
38	47437	52	2
38	48360	53	2
38	49283	54	2
38	50328	55	2
38	51241	56	2
38	52154	57	2
38	53067	58	2
38	53980	59	2
38	54893	60	2
38	55806	61	2
38	56719	62	2
38	57632	63	2
38	58545	64	2
38	59458	65	2
38	60371	66	2
38	61284	67	2
38	62197	68	2
38	63110	69	2
38	64023	70	2
38	64936	71	2
38	65849	72	2
38	66762	73	2
38	67675	74	2
38	68588	75	2
38	69501	76	2
38	70414	77	2
38	71327	78	2
38	72240	79	2
38	73153	80	2
38	74066	81	2
38	74979	82	2
38	75892	83	2
38	76805	84	2
38	77718	85	2
38	78631	86	2
38	79544	87	2
38	80457	88	2
38	81370	89	2
38	82283	90	2
38	83196	91	2
38	84109	92	2
38	85022	93	2
38	85935	94	2
38	86848	95	2
38	87761	96	2
38	88674	97	2
38	89587	98	2
38	90500	99	2
38	91413	100	2
39	917	2	0.008241319524
39	1830	3	0.00936819944
39	2743	4	0.009368199435
39	3656	5	0.00936819942
39	4569	6	0.00936819942
39	5482	7	0.00938119942
39	6395	8	0.00936819942
39	7308	9	0.00936819942
39	8222	10	0.00936819942
39	9181	11	0.009413195903
39	10114	12	0.009381158414
39	11047	13	0.009368069251
39	11980	14	0.00936794031
39	12913	15	0.009367787121
39	13846	16	0.009367622223
39	14779	17	0.009367454695
39	15712	18	0.009380290748
39	16645	19	0.009367134441
39	17578	20	0.009366988217
39	18511	21	0.009366853377
39	19444	22	0.009379730415
39	20377	23	0.009366619271
39	21310	24	0.009366519511
39	22243	25	0.00936643049
39	23176	26	0.009379351422
39	24109	27	0.009366281474
39	25042	28	0.009366219796
39	25975	29	0.009366165551
39	26908	30	0.009379117963
39	27841	31	0.009366076289
39	28774	32	0.00936603986
39	29707	33	0.009379008061
39	30640	34	0.009365980331
39	31573	35	0.009365956178
39	32506	36	0.009378935163
39	33439	37	0.009365916886
39	34372	38	0.009365901005
39	35305	39	0.009378887209
39	36238	40	0.009365875241
39	37171	41	0.009365864855
39	38104	42	0.009378855847
39	39037	43	0.00936584804
39	39970	44	0.009365841274
39	40903	45	0.009365835414
39	41836	46	0.009378830334
39	42769	47	0.009365825937
39	43745	48	0.00948282213
39	44668	49	0.009365818836
39	45591	50	0.009378815985
39	46514	51	0.009365813519
39	47437	52	0.009365811382
39	48360	53	0.009378809534
39	49283	54	0.009365807941
39	50328	55	0.009768631878
39	51241	56	0.009378742989
39	52154	57	0.009365613227
39	53067	58	0.009365419962
39	53980	59	0.009378207212
39	54893	60	0.009364995079
39	55806	61	0.009364785589
39	56719	62	0.009377576662
39	57632	63	0.009364367037
39	58545	64	0.009377156168
39	59458	65	0.009363943378
39	60371	66	0.00937672705
39	61284	67	0.009363503141
39	62197	68	0.009376262186
39	63110	69	0.009362991096
39	64023	70	0.009375690258
39	64936	71	0.009362372874
39	65849	72	0.009375048156
39	66762	73	0.009374720016
39	67675	74	0.009361390083
39	68588	75	0.009374059115
39	69501	76	0.009373727492
39	70414	77	0.009360395443
39	71327	78	0.009373063083
39	72240	79	0.00937273051
39	73153	80	0.009372397774
39	74066	81	0.00937206491
39	74979	82	0.009358731947
39	75892	83	0.009371398904
39	76805	84	0.009371065798
39	77718	85	0.009370732637
39	78631	86	0.009370405288
39	79544	87	0.009370072391
39	80457	88	0.009369738828
39	81370	89	0.009369405265
39	82283	90	0.009369071697
39	83196	91	0.009368738137
39	84109	92	0.009381404571
39	85022	93	0.009368071004
39	85935	94	0.009367737441
39	86848	95	0.009367403878
39	87761	96	0.009367070314
39	88674	97	0.009379736748
39	89587	98	0.009366403186
39	90500	99	0.009366069622
39	91413	100	0.009365736056
40	917	2	0
40	1830	3	0
40	2743	4	0
40	3656	5	0
40	4569	6	0
40	5482	7	0
40	6395	8	0
40	7308	9	0
40	8222	10	0
40	9181	11	0
40	10114	12	0
40	11047	13	0
40	11980	14	0
40	12913	15	0
40	13846	16	0
40	14779	17	0
40	15712	18	0
40	16645	19	0
40	17578	20	0
40	18511	21	0
40	19444	22	0
40	20377	23	0
40	21310	24	0
40	22243	25	0
40	23176	26	0
40	24109	27	0
40	25042	28	0
40	25975	29	0
40	26908	30	0
40	27841	31	0
40	28774	32	0
40	29707	33	0
40	30640	34	0
40	31573	35	0
40	32506	36	0
40	33439	37	0
40	34372	38	0
40	35305	39	0
40	36238	40	0
40	37171	41	0
40	38104	42	0
40	39037	43	0
40	39970	44	0
40	40903	45	0
40	41836	46	0
40	42769	47	0
40	43745	48	0
40	44668	49	0
40	45591	50	0
40	46514	51	0
40	47437	52	0
40	48360	53	0
40	49283	54	0
40	50328	55	0
40	51241	56	0
40	52154	57	0
40	53067	58	0
40	53980	59	0
40	54893	60	0
40	55806	61	0
40	56719	62	0
40	57632	63	0
40	58545	64	0
40	59458	65	0
40	60371	66	0
40	61284	67	0
40	62197	68	0
40	63110	69	0
40	64023	70	0
40	64936	71	0
40	65849	72	0
40	66762	73	0
40	67675	74	0
40	68588	75	0
40	69501	76	0
40	70414	77	0
40	71327	78	0
40	72240	79	0
40	73153	80	0
40	74066	81	0
40	74979	82	0
40	75892	83	0
40	76805	84	0
40	77718	85	0
40	78631	86	0
40	79544	87	0
40	80457	88	0
40	81370	89	0
40	82283	90	0
40	83196	91	0
40	84109	92	0
40	85022	93	0
40	85935	94	0
40	86848	95	0
40	87761	96	0
40	88674	97	0
40	89587	98	0
40	90500	99	0
40	91413	100	0

