version 3
run BreakRanksNoGui-585-20240711-12:41:14-287116
attr configname BreakRanksNoGui
attr datetime 20240711-12:41:14
attr datetimef 20240711-124114
attr experiment BreakRanksNoGui
attr inifile omnetpp.ini
attr iterationvars "$nCars=9, $platoonSize=8, $nLanes=1, $ploegH=0.5, $controller=1, $headway=0.1, $leaderHeadway=1.2, $leaderSpeed=110, $breakRanksSafetyDistance=5, $minSpeed=100, $maxSpeed=120, $beaconInterval=0.1, $priority=4, $packetSize=200, $sController=\"CACC\", $0=2, $1=0"
attr iterationvarsd nCars=9/platoonSize=8/nLanes=1/ploegH=0.5/controller=1/headway=0.1/leaderHeadway=1.2/leaderSpeed=110/breakRanksSafetyDistance=5/minSpeed=100/maxSpeed=120/beaconInterval=0.1/priority=4/packetSize=200/sController=CACC/2/0
attr iterationvarsf nCars=9,platoonSize=8,nLanes=1,ploegH=0.5,controller=1,headway=0.1,leaderHeadway=1.2,leaderSpeed=110,breakRanksSafetyDistance=5,minSpeed=100,maxSpeed=120,beaconInterval=0.1,priority=4,packetSize=200,sController=CACC,2,0-
attr measurement "$nCars=9, $platoonSize=8, $nLanes=1, $ploegH=0.5, $controller=1, $headway=0.1, $leaderHeadway=1.2, $leaderSpeed=110, $breakRanksSafetyDistance=5, $minSpeed=100, $maxSpeed=120, $beaconInterval=0.1, $priority=4, $packetSize=200, $sController=\"CACC\", $0=2, $1=0"
attr network Highway
attr processid 287116
attr repetition 5
attr replication #5
attr resultdir results
attr runnumber 585
attr seedset 5
itervar beaconInterval 0.1
itervar breakRanksSafetyDistance 5
itervar controller 1
itervar headway 0.1
itervar leaderHeadway 1.2
itervar leaderSpeed 110
itervar maxSpeed 120
itervar minSpeed 100
itervar nCars 9
itervar nLanes 1
itervar packetSize 200
itervar platoonSize 8
itervar ploegH 0.5
itervar priority 4
itervar sController "\"CACC\""
config image-path ../../../veins/images
config repeat 10
config extends BreakRanks
config *.manager.command "\"sumo\""
config *.manager.ignoreGuiCommands true
config output-vector-file "results/BreakRanks_1_0.1_110_5_8 /result_5.vec"
config output-scalar-file "results/BreakRanks_1_0.1_110_5_8 /result_5.sca"
config extends Platooning
config *.node[*].scenario_type "\"BreakRanksScenario\""
config *.manager.command "\"sumo-gui\""
config *.node[*].scenario_type "\"SimpleScenario\""
config cmdenv-express-mode true
config cmdenv-autoflush true
config cmdenv-status-frequency 15s
config num-rngs 6
config network Highway
config debug-on-errors true
config print-undisposed true
config *.playgroundSizeX 65000m
config *.playgroundSizeY 25000m
config *.playgroundSizeZ 50m
config sim-time-limit "100 s"
config *.annotations.draw false
config *.obstacles.debug false
config *.world.useTorus false
config *.world.use2D false
config *.manager.updateInterval 0.01s
config *.manager.host "\"localhost\""
config *.manager.moduleType "\"org.car2x.plexe.PlatoonCar\""
config *.manager.moduleName "\"node\""
config *.manager.moduleDisplayString "\"\""
config *.manager.autoShutdown true
config *.manager.margin 25
config *.connectionManager.sendDirect true
config *.connectionManager.maxInterfDist 2600m
config *.connectionManager.drawMaxIntfDist false
config *.**.nic.mac1609_4.useServiceChannel false
config *.**.nic.mac1609_4.txPower 100mW
config *.**.nic.mac1609_4.bitrate 6Mbps
config *.**.nic.mac1609_4.useAcks true
config *.**.nic.mac1609_4.ackErrorRate 0.0
config *.**.nic.mac1609_4.frameErrorRate 0.0
config *.**.nic.phy80211p.minPowerLevel -94dBm
config *.**.nic.phy80211p.maxTXPower 100mW
config *.**.nic.phy80211p.useNoiseFloor true
config *.**.nic.phy80211p.noiseFloor -95dBm
config *.**.nic.phy80211p.decider "xmldoc(\"config.xml\")"
config *.**.nic.phy80211p.analogueModels "xmldoc(\"config.xml\")"
config *.**.nic.phy80211p.usePropagationDelay true
config *.node[*].mobility.x 0
config *.node[*].mobility.y 0
config *.node[*].mobility.z 1.895
config seed-set 5
config **.seed 5
config *.node[*].prot.rng-0 2
config *.node[*].appl.rng-0 3
config *.node[*].scenario.rng-0 4
config **.traffic.rng-0 5
config *.manager.configFile "\"./sumocfg/freeway.sumo.cfg\""
config *.manager.launchConfig "xmldoc(\"./sumocfg/freeway.launchd.xml\")"
config **.numberOfCars 9
config **.numberOfCarsPerPlatoon 8
config **.numberOfLanes 1
config *.node[*].helper_type "\"PositionHelper\""
config *.node[*].scenario.caccC1 0.5
config *.node[*].scenario.caccXi 1
config *.node[*].scenario.caccOmegaN "0.2 Hz"
config *.node[*].scenario.caccSpacing "2 m"
config *.node[*].scenario.engineTau "0.5 s"
config *.node[*].scenario.ploegH 0.5s
config *.node[*].scenario.ploegKp 0.2
config *.node[*].scenario.ploegKd 0.7
config *.node[*].scenario.useRealisticEngine false
config *.node[*].scenario.useControllerAcceleration true
config *.node[*].scenario.nLanes 1
config **.numericController 1
config **.headway 0.1s
config *.node[*].scenario.accHeadway 0.1s
config *.node[*].scenario.leaderHeadway 1.2s
config *.node[*].scenario.leaderSpeed 110kmph
config *.node[*].appl_type "\"SimplePlatooningApp\""
config *.node[*].appl.*.scalar-recording true
config *.node[*].appl.*.vector-recording true
config *.node[0].appl.breakRanksSafetyDistance 5m
config *.node[*].appl.minSpeed 100kmph
config *.node[*].appl.maxSpeed 120kmph
config *.node[*].protocol_type "\"SimplePlatooningBeaconing\""
config *.node[*].prot.*.scalar-recording true
config *.node[*].prot.*.vector-recording true
config *.node[*].prot.beaconingInterval 0.1s
config *.node[*].prot.priority 4
config *.node[*].prot.packetSize 200
config **.traffic_type "\"PlatoonsTrafficManager\""
config **.traffic.platoonInsertTime "1 s"
config **.traffic.platoonInsertSpeed 110kmph
config **.traffic.nCars 9
config **.traffic.platoonSize 8
config **.traffic.nLanes 1
config **.traffic.platooningVType "\"vtypeauto\""
config **.traffic.controller "\"CACC\""
config **.traffic.platoonInsertDistance 2m
config **.traffic.platoonInsertHeadway 0s
config **.traffic.platoonLeaderHeadway 1.2s
config **.scalar-recording false
config **.vector-recording false

vector 0 Highway.node[0].appl distance ETV
vector 1 Highway.node[0].appl relativeSpeed ETV
vector 2 Highway.node[0].appl nodeId ETV
vector 3 Highway.node[0].appl acceleration ETV
vector 4 Highway.node[0].appl controllerAcceleration ETV
vector 5 Highway.node[0].appl speed ETV
vector 6 Highway.node[0].appl posx ETV
vector 7 Highway.node[0].appl posy ETV
vector 8 Highway.node[1].appl distance ETV
vector 9 Highway.node[1].appl relativeSpeed ETV
vector 10 Highway.node[1].appl nodeId ETV
vector 11 Highway.node[1].appl acceleration ETV
vector 12 Highway.node[1].appl controllerAcceleration ETV
vector 13 Highway.node[1].appl speed ETV
vector 14 Highway.node[1].appl posx ETV
vector 15 Highway.node[1].appl posy ETV
vector 16 Highway.node[2].appl distance ETV
vector 17 Highway.node[2].appl relativeSpeed ETV
vector 18 Highway.node[2].appl nodeId ETV
vector 19 Highway.node[2].appl acceleration ETV
vector 20 Highway.node[2].appl controllerAcceleration ETV
vector 21 Highway.node[2].appl speed ETV
vector 22 Highway.node[2].appl posx ETV
vector 23 Highway.node[2].appl posy ETV
vector 24 Highway.node[3].appl distance ETV
vector 25 Highway.node[3].appl relativeSpeed ETV
vector 26 Highway.node[3].appl nodeId ETV
vector 27 Highway.node[3].appl acceleration ETV
vector 28 Highway.node[3].appl controllerAcceleration ETV
vector 29 Highway.node[3].appl speed ETV
vector 30 Highway.node[3].appl posx ETV
vector 31 Highway.node[3].appl posy ETV
vector 32 Highway.node[4].appl distance ETV
vector 33 Highway.node[4].appl relativeSpeed ETV
vector 34 Highway.node[4].appl nodeId ETV
vector 35 Highway.node[4].appl acceleration ETV
vector 36 Highway.node[4].appl controllerAcceleration ETV
vector 37 Highway.node[4].appl speed ETV
vector 38 Highway.node[4].appl posx ETV
vector 39 Highway.node[4].appl posy ETV
vector 40 Highway.node[5].appl distance ETV
vector 41 Highway.node[5].appl relativeSpeed ETV
vector 42 Highway.node[5].appl nodeId ETV
vector 43 Highway.node[5].appl acceleration ETV
vector 44 Highway.node[5].appl controllerAcceleration ETV
vector 45 Highway.node[5].appl speed ETV
vector 46 Highway.node[5].appl posx ETV
vector 47 Highway.node[5].appl posy ETV
vector 48 Highway.node[6].appl distance ETV
vector 49 Highway.node[6].appl relativeSpeed ETV
vector 50 Highway.node[6].appl nodeId ETV
vector 51 Highway.node[6].appl acceleration ETV
vector 52 Highway.node[6].appl controllerAcceleration ETV
vector 53 Highway.node[6].appl speed ETV
vector 54 Highway.node[6].appl posx ETV
vector 55 Highway.node[6].appl posy ETV
vector 56 Highway.node[7].appl distance ETV
vector 57 Highway.node[7].appl relativeSpeed ETV
vector 58 Highway.node[7].appl nodeId ETV
vector 59 Highway.node[7].appl acceleration ETV
vector 60 Highway.node[7].appl controllerAcceleration ETV
vector 61 Highway.node[7].appl speed ETV
vector 62 Highway.node[7].appl posx ETV
vector 63 Highway.node[7].appl posy ETV
vector 64 Highway.node[8].appl distance ETV
vector 65 Highway.node[8].appl relativeSpeed ETV
vector 66 Highway.node[8].appl nodeId ETV
vector 67 Highway.node[8].appl acceleration ETV
vector 68 Highway.node[8].appl controllerAcceleration ETV
vector 69 Highway.node[8].appl speed ETV
vector 70 Highway.node[8].appl posx ETV
vector 71 Highway.node[8].appl posy ETV
vector 72 Highway.node[2].prot frontDelay ETV
vector 73 Highway.node[2].prot frontDelayId ETV
vector 74 Highway.node[6].prot frontDelay ETV
vector 75 Highway.node[6].prot frontDelayId ETV
vector 76 Highway.node[3].prot frontDelay ETV
vector 77 Highway.node[3].prot frontDelayId ETV
vector 78 Highway.node[4].prot frontDelay ETV
vector 79 Highway.node[4].prot frontDelayId ETV
vector 80 Highway.node[5].prot frontDelay ETV
vector 81 Highway.node[5].prot frontDelayId ETV
vector 82 Highway.node[1].prot leaderDelay ETV
vector 83 Highway.node[1].prot leaderDelayId ETV
vector 84 Highway.node[1].prot frontDelay ETV
vector 85 Highway.node[1].prot frontDelayId ETV
vector 86 Highway.node[2].prot leaderDelay ETV
vector 87 Highway.node[2].prot leaderDelayId ETV
vector 88 Highway.node[3].prot leaderDelay ETV
vector 89 Highway.node[3].prot leaderDelayId ETV
vector 90 Highway.node[4].prot leaderDelay ETV
vector 91 Highway.node[4].prot leaderDelayId ETV
vector 92 Highway.node[5].prot leaderDelay ETV
vector 93 Highway.node[5].prot leaderDelayId ETV
vector 94 Highway.node[6].prot leaderDelay ETV
vector 95 Highway.node[6].prot leaderDelayId ETV
vector 96 Highway.node[7].prot leaderDelay ETV
vector 97 Highway.node[7].prot leaderDelayId ETV
vector 98 Highway.node[7].prot frontDelay ETV
vector 99 Highway.node[7].prot frontDelayId ETV
vector 100 Highway.node[0].prot nodeId ETV
vector 101 Highway.node[0].prot busyTime ETV
vector 102 Highway.node[0].prot collisions ETV
vector 103 Highway.node[1].prot nodeId ETV
vector 104 Highway.node[1].prot busyTime ETV
vector 105 Highway.node[1].prot collisions ETV
vector 106 Highway.node[2].prot nodeId ETV
vector 107 Highway.node[2].prot busyTime ETV
vector 108 Highway.node[2].prot collisions ETV
vector 109 Highway.node[3].prot nodeId ETV
vector 110 Highway.node[3].prot busyTime ETV
vector 111 Highway.node[3].prot collisions ETV
vector 112 Highway.node[4].prot nodeId ETV
vector 113 Highway.node[4].prot busyTime ETV
vector 114 Highway.node[4].prot collisions ETV
vector 115 Highway.node[5].prot nodeId ETV
vector 116 Highway.node[5].prot busyTime ETV
vector 117 Highway.node[5].prot collisions ETV
vector 118 Highway.node[6].prot nodeId ETV
vector 119 Highway.node[6].prot busyTime ETV
vector 120 Highway.node[6].prot collisions ETV
vector 121 Highway.node[7].prot nodeId ETV
vector 122 Highway.node[7].prot busyTime ETV
vector 123 Highway.node[7].prot collisions ETV
vector 124 Highway.node[8].prot nodeId ETV
vector 125 Highway.node[8].prot busyTime ETV
vector 126 Highway.node[8].prot collisions ETV
0	113	1.11	9311.83
0	670	1.21	9311.83
0	1227	1.31	9311.83
0	1784	1.41	9311.83
0	2341	1.51	9311.83
0	2898	1.61	9311.83
0	3455	1.71	9311.83
0	4012	1.81	9311.83
0	4569	1.91	9311.83
0	5135	2.01	-1
0	5692	2.11	-1
0	6249	2.21	-1
0	6806	2.31	-1
0	7363	2.41	-1
0	7920	2.51	-1
0	8477	2.61	-1
0	9034	2.71	-1
0	9591	2.81	-1
0	10148	2.91	-1
0	10714	3.01	-1
0	11271	3.11	-1
0	11828	3.21	-1
0	12385	3.31	-1
0	12942	3.41	-1
0	13499	3.51	-1
0	14056	3.61	-1
0	14613	3.71	-1
0	15170	3.81	-1
0	15727	3.91	-1
0	16293	4.01	-1
0	16850	4.11	-1
0	17407	4.21	-1
0	17964	4.31	-1
0	18521	4.41	-1
0	19078	4.51	-1
0	19635	4.61	-1
0	20192	4.71	-1
0	20749	4.81	-1
0	21306	4.91	-1
0	21872	5.01	-1
0	22429	5.11	-1
0	22986	5.21	-1
0	23543	5.31	-1
0	24100	5.41	-1
0	24657	5.51	-1
0	25214	5.61	-1
0	25771	5.71	-1
0	26328	5.81	-1
0	26885	5.91	-1
0	27451	6.01	-1
0	28008	6.11	-1
0	28565	6.21	-1
0	29122	6.31	-1
0	29679	6.41	-1
0	30236	6.51	-1
0	30793	6.61	-1
0	31350	6.71	-1
0	31907	6.81	-1
0	32464	6.91	-1
0	33030	7.01	-1
0	33587	7.11	-1
0	34144	7.21	-1
0	34701	7.31	-1
0	35258	7.41	-1
0	35815	7.51	-1
0	36372	7.61	-1
0	36929	7.71	-1
0	37486	7.81	-1
0	38043	7.91	-1
0	38609	8.01	-1
0	39166	8.11	-1
0	39723	8.21	-1
0	40280	8.31	-1
0	40837	8.41	-1
0	41394	8.51	-1
0	41951	8.61	-1
0	42508	8.71	-1
0	43065	8.81	-1
0	43622	8.91	-1
0	44188	9.01	-1
0	44745	9.11	-1
0	45302	9.21	-1
0	45859	9.31	-1
0	46416	9.41	-1
0	46973	9.51	-1
0	47530	9.61	-1
0	48087	9.71	-1
0	48644	9.81	-1
0	49201	9.91	-1
0	49852	10.01	-1
0	50416	10.11	-1
0	50980	10.21	-1
0	51544	10.31	-1
0	52108	10.41	-1
0	52672	10.51	-1
0	53236	10.61	-1
0	53800	10.71	-1
0	54364	10.81	-1
0	54928	10.91	-1
0	55501	11.01	-1
0	56065	11.11	-1
0	56629	11.21	-1
0	57193	11.31	-1
0	57757	11.41	-1
0	58321	11.51	-1
0	58885	11.61	-1
0	59449	11.71	-1
0	60013	11.81	-1
0	60577	11.91	-1
0	61150	12.01	-1
0	61714	12.11	-1
0	62278	12.21	-1
0	62842	12.31	-1
0	63406	12.41	-1
0	63970	12.51	-1
0	64534	12.61	-1
0	65098	12.71	-1
0	65662	12.81	-1
0	66226	12.91	-1
0	66799	13.01	-1
0	67363	13.11	-1
0	67927	13.21	-1
0	68491	13.31	-1
0	69055	13.41	-1
0	69619	13.51	-1
0	70183	13.61	-1
0	70747	13.71	-1
0	71311	13.81	-1
0	71875	13.91	-1
0	72448	14.01	-1
0	73012	14.11	-1
0	73576	14.21	-1
0	74140	14.31	-1
0	74704	14.41	-1
0	75268	14.51	-1
0	75832	14.61	-1
0	76396	14.71	-1
0	76960	14.81	-1
0	77524	14.91	-1
0	78097	15.01	-1
0	78661	15.11	-1
0	79225	15.21	-1
0	79789	15.31	-1
0	80353	15.41	-1
0	80917	15.51	-1
0	81481	15.61	-1
0	82045	15.71	-1
0	82609	15.81	-1
0	83173	15.91	-1
0	83746	16.01	-1
0	84310	16.11	-1
0	84874	16.21	-1
0	85438	16.31	-1
0	86002	16.41	-1
0	86566	16.51	-1
0	87130	16.61	-1
0	87694	16.71	-1
0	88258	16.81	-1
0	88822	16.91	-1
0	89395	17.01	-1
0	89959	17.11	-1
0	90523	17.21	-1
0	91087	17.31	-1
0	91651	17.41	-1
0	92215	17.51	-1
0	92779	17.61	-1
0	93343	17.71	-1
0	93907	17.81	-1
0	94471	17.91	-1
0	95044	18.01	-1
0	95608	18.11	-1
0	96172	18.21	-1
0	96736	18.31	-1
0	97300	18.41	-1
0	97864	18.51	-1
0	98428	18.61	-1
0	98992	18.71	-1
0	99556	18.81	-1
0	100120	18.91	-1
0	100693	19.01	-1
0	101257	19.11	-1
0	101821	19.21	-1
0	102385	19.31	-1
0	102949	19.41	-1
0	103513	19.51	-1
0	104077	19.61	-1
0	104641	19.71	-1
0	105205	19.81	-1
0	105769	19.91	-1
0	106342	20.01	-1
0	106906	20.11	-1
0	107470	20.21	-1
0	108034	20.31	-1
0	108598	20.41	-1
0	109162	20.51	-1
0	109726	20.61	-1
0	110290	20.71	-1
0	110854	20.81	-1
0	111418	20.91	-1
0	111991	21.01	-1
0	112555	21.11	-1
0	113119	21.21	-1
0	113683	21.31	-1
0	114247	21.41	-1
0	114811	21.51	-1
0	115375	21.61	-1
0	115939	21.71	-1
0	116503	21.81	-1
0	117067	21.91	-1
0	117640	22.01	-1
0	118204	22.11	-1
0	118768	22.21	-1
0	119332	22.31	-1
0	119896	22.41	-1
0	120460	22.51	-1
0	121024	22.61	-1
0	121588	22.71	-1
0	122152	22.81	-1
0	122716	22.91	-1
0	123289	23.01	-1
0	123853	23.11	-1
0	124417	23.21	-1
0	124981	23.31	-1
0	125545	23.41	-1
0	126109	23.51	-1
0	126673	23.61	-1
0	127237	23.71	-1
0	127801	23.81	-1
0	128365	23.91	-1
0	128938	24.01	-1
0	129502	24.11	-1
0	130066	24.21	-1
0	130630	24.31	-1
0	131194	24.41	-1
0	131758	24.51	-1
0	132322	24.61	-1
0	132886	24.71	-1
0	133450	24.81	-1
0	134014	24.91	-1
0	134587	25.01	-1
0	135151	25.11	-1
0	135715	25.21	-1
0	136279	25.31	-1
0	136843	25.41	-1
0	137407	25.51	-1
0	137971	25.61	-1
0	138535	25.71	-1
0	139099	25.81	-1
0	139663	25.91	-1
0	140236	26.01	-1
0	140800	26.11	-1
0	141364	26.21	-1
0	141928	26.31	-1
0	142492	26.41	-1
0	143056	26.51	-1
0	143620	26.61	-1
0	144184	26.71	-1
0	144748	26.81	-1
0	145312	26.91	-1
0	145885	27.01	-1
0	146449	27.11	-1
0	147013	27.21	-1
0	147577	27.31	-1
0	148141	27.41	-1
0	148705	27.51	-1
0	149269	27.61	-1
0	149833	27.71	-1
0	150397	27.81	-1
0	150961	27.91	-1
0	151534	28.01	-1
0	152098	28.11	-1
0	152662	28.21	-1
0	153226	28.31	-1
0	153790	28.41	-1
0	154354	28.51	-1
0	154918	28.61	-1
0	155482	28.71	-1
0	156046	28.81	-1
0	156610	28.91	-1
0	157183	29.01	-1
0	157747	29.11	-1
0	158311	29.21	-1
0	158875	29.31	-1
0	159439	29.41	-1
0	160003	29.51	-1
0	160567	29.61	-1
0	161131	29.71	-1
0	161695	29.81	-1
0	162259	29.91	-1
0	162832	30.01	-1
0	163396	30.11	-1
0	163960	30.21	-1
0	164524	30.31	-1
0	165088	30.41	-1
0	165652	30.51	-1
0	166216	30.61	-1
0	166780	30.71	-1
0	167344	30.81	-1
0	167908	30.91	-1
0	168481	31.01	-1
0	169045	31.11	-1
0	169609	31.21	-1
0	170173	31.31	-1
0	170737	31.41	-1
0	171301	31.51	-1
0	171865	31.61	-1
0	172429	31.71	-1
0	172993	31.81	-1
0	173557	31.91	-1
0	174130	32.01	-1
0	174694	32.11	-1
0	175258	32.21	-1
0	175822	32.31	-1
0	176386	32.41	-1
0	176950	32.51	-1
0	177514	32.61	-1
0	178078	32.71	-1
0	178642	32.81	-1
0	179206	32.91	-1
0	179779	33.01	-1
0	180343	33.11	-1
0	180907	33.21	-1
0	181471	33.31	-1
0	182035	33.41	-1
0	182599	33.51	-1
0	183163	33.61	-1
0	183727	33.71	-1
0	184291	33.81	-1
0	184855	33.91	-1
0	185428	34.01	-1
0	185992	34.11	-1
0	186556	34.21	-1
0	187120	34.31	-1
0	187684	34.41	-1
0	188248	34.51	-1
0	188812	34.61	-1
0	189376	34.71	-1
0	189940	34.81	-1
0	190504	34.91	-1
0	191077	35.01	-1
0	191641	35.11	-1
0	192205	35.21	-1
0	192769	35.31	-1
0	193333	35.41	-1
0	193897	35.51	-1
0	194461	35.61	-1
0	195025	35.71	-1
0	195589	35.81	-1
0	196153	35.91	-1
0	196726	36.01	-1
0	197290	36.11	-1
0	197854	36.21	-1
0	198418	36.31	-1
0	199075	36.41	-1
0	199638	36.51	-1
0	200201	36.61	-1
0	200764	36.71	-1
0	201327	36.81	-1
0	201890	36.91	-1
0	202462	37.01	-1
0	203025	37.11	-1
0	203588	37.21	-1
0	204151	37.31	-1
0	204714	37.41	-1
0	205277	37.51	-1
0	205840	37.61	-1
0	206403	37.71	-1
0	206966	37.81	-1
0	207529	37.91	-1
0	208101	38.01	-1
0	208664	38.11	-1
0	209227	38.21	-1
0	209790	38.31	-1
0	210353	38.41	-1
0	210916	38.51	-1
0	211479	38.61	-1
0	212042	38.71	-1
0	212605	38.81	-1
0	213168	38.91	-1
0	213740	39.01	-1
0	214303	39.11	-1
0	214866	39.21	-1
0	215429	39.31	-1
0	215992	39.41	-1
0	216555	39.51	-1
0	217118	39.61	-1
0	217681	39.71	-1
0	218244	39.81	-1
0	218807	39.91	-1
0	219379	40.01	-1
0	219942	40.11	-1
0	220505	40.21	-1
0	221068	40.31	-1
0	221631	40.41	-1
0	222194	40.51	-1
0	222757	40.61	-1
0	223320	40.71	-1
0	223883	40.81	-1
0	224446	40.91	-1
0	225018	41.01	-1
0	225581	41.11	-1
0	226144	41.21	-1
0	226707	41.31	-1
0	227270	41.41	-1
0	227926	41.51	-1
0	228488	41.61	-1
0	229050	41.71	-1
0	229612	41.81	-1
0	230174	41.91	-1
0	230745	42.01	-1
0	231307	42.11	-1
0	231869	42.21	-1
0	232431	42.31	-1
0	232993	42.41	-1
0	233555	42.51	-1
0	234117	42.61	-1
0	234679	42.71	-1
0	235241	42.81	-1
0	235803	42.91	-1
0	236374	43.01	-1
0	236936	43.11	-1
0	237498	43.21	-1
0	238060	43.31	-1
0	238622	43.41	-1
0	239184	43.51	-1
0	239746	43.61	-1
0	240308	43.71	-1
0	240870	43.81	-1
0	241432	43.91	-1
0	242003	44.01	-1
0	242565	44.11	-1
0	243127	44.21	-1
0	243689	44.31	-1
0	244251	44.41	-1
0	244813	44.51	-1
0	245375	44.61	-1
0	245937	44.71	-1
0	246499	44.81	-1
0	247061	44.91	-1
0	247632	45.01	-1
0	248194	45.11	-1
0	248756	45.21	-1
0	249318	45.31	-1
0	249880	45.41	-1
0	250442	45.51	-1
0	251004	45.61	-1
0	251566	45.71	-1
0	252128	45.81	-1
0	252690	45.91	-1
0	253261	46.01	-1
0	253823	46.11	-1
0	254478	46.21	-1
0	255039	46.31	-1
0	255600	46.41	-1
0	256161	46.51	-1
0	256722	46.61	-1
0	257283	46.71	-1
0	257844	46.81	-1
0	258405	46.91	-1
0	258975	47.01	-1
0	259536	47.11	-1
0	260097	47.21	-1
0	260658	47.31	-1
0	261219	47.41	-1
0	261780	47.51	-1
0	262341	47.61	-1
0	262902	47.71	-1
0	263463	47.81	-1
0	264024	47.91	-1
0	264594	48.01	-1
0	265155	48.11	-1
0	265716	48.21	-1
0	266277	48.31	-1
0	266838	48.41	-1
0	267399	48.51	-1
0	267960	48.61	-1
0	268521	48.71	-1
0	269082	48.81	-1
0	269643	48.91	-1
0	270213	49.01	-1
0	270774	49.11	-1
0	271335	49.21	-1
0	271896	49.31	-1
0	272457	49.41	-1
0	273018	49.51	-1
0	273579	49.61	-1
0	274140	49.71	-1
0	274701	49.81	-1
0	275262	49.91	-1
0	275832	50.01	-1
0	276393	50.11	-1
0	276954	50.21	-1
0	277515	50.31	-1
0	278076	50.41	-1
0	278637	50.51	-1
0	279291	50.61	-1
0	279851	50.71	-1
0	280411	50.81	-1
0	280971	50.91	-1
0	281540	51.01	-1
0	282100	51.11	-1
0	282660	51.21	-1
0	283220	51.31	-1
0	283780	51.41	-1
0	284340	51.51	-1
0	284900	51.61	-1
0	285460	51.71	-1
0	286020	51.81	-1
0	286580	51.91	-1
0	287149	52.01	-1
0	287709	52.11	-1
0	288269	52.21	-1
0	288829	52.31	-1
0	289389	52.41	-1
0	289949	52.51	-1
0	290509	52.61	-1
0	291069	52.71	-1
0	291629	52.81	-1
0	292189	52.91	-1
0	292758	53.01	-1
0	293318	53.11	-1
0	293878	53.21	-1
0	294438	53.31	-1
0	294998	53.41	-1
0	295558	53.51	-1
0	296118	53.61	-1
0	296678	53.71	-1
0	297238	53.81	-1
0	297798	53.91	-1
0	298367	54.01	-1
0	298927	54.11	-1
0	299487	54.21	-1
0	300047	54.31	-1
0	300607	54.41	-1
0	301167	54.51	-1
0	301727	54.61	-1
0	302287	54.71	-1
0	302847	54.81	-1
0	303500	54.91	-1
0	304068	55.01	-1
0	304627	55.11	-1
0	305186	55.21	-1
0	305745	55.31	-1
0	306304	55.41	-1
0	306863	55.51	-1
0	307422	55.61	-1
0	307981	55.71	-1
0	308540	55.81	-1
0	309099	55.91	-1
0	309667	56.01	-1
0	310226	56.11	-1
0	310785	56.21	-1
0	311344	56.31	-1
0	311903	56.41	-1
0	312462	56.51	-1
0	313021	56.61	-1
0	313580	56.71	-1
0	314139	56.81	-1
0	314698	56.91	-1
0	315266	57.01	-1
0	315825	57.11	-1
0	316384	57.21	-1
0	316943	57.31	-1
0	317502	57.41	-1
0	318061	57.51	-1
0	318620	57.61	-1
0	319179	57.71	-1
0	319738	57.81	-1
0	320297	57.91	-1
0	320865	58.01	-1
0	321424	58.11	-1
0	321983	58.21	-1
0	322542	58.31	-1
0	323101	58.41	-1
0	323660	58.51	-1
0	324219	58.61	-1
0	324778	58.71	-1
0	325337	58.81	-1
0	325896	58.91	-1
0	326557	59.01	-1
0	327115	59.11	-1
0	327673	59.21	-1
0	328231	59.31	-1
0	328789	59.41	-1
0	329347	59.51	-1
0	329905	59.61	-1
0	330463	59.71	-1
0	331021	59.81	-1
0	331579	59.91	-1
0	332146	60.01	-1
0	332704	60.11	-1
0	333262	60.21	-1
0	333820	60.31	-1
0	334378	60.41	-1
0	334936	60.51	-1
0	335494	60.61	-1
0	336052	60.71	-1
0	336610	60.81	-1
0	337168	60.91	-1
0	337735	61.01	-1
0	338293	61.11	-1
0	338851	61.21	-1
0	339409	61.31	-1
0	339967	61.41	-1
0	340525	61.51	-1
0	341083	61.61	-1
0	341641	61.71	-1
0	342199	61.81	-1
0	342757	61.91	-1
0	343324	62.01	-1
0	343882	62.11	-1
0	344440	62.21	-1
0	344998	62.31	-1
0	345556	62.41	-1
0	346114	62.51	-1
0	346672	62.61	-1
0	347230	62.71	-1
0	347788	62.81	-1
0	348346	62.91	-1
0	349657	63.01	-1
0	350214	63.11	-1
0	350771	63.21	-1
0	351328	63.31	-1
0	351885	63.41	-1
0	352442	63.51	-1
0	352999	63.61	-1
0	353556	63.71	-1
0	354113	63.81	-1
0	354670	63.91	-1
0	355236	64.01	-1
0	355793	64.11	-1
0	356350	64.21	-1
0	356907	64.31	-1
0	357464	64.41	-1
0	358021	64.51	-1
0	358578	64.61	-1
0	359135	64.71	-1
0	359692	64.81	-1
0	360249	64.91	-1
0	360815	65.01	-1
0	361372	65.11	-1
0	361929	65.21	-1
0	362486	65.31	-1
0	363043	65.41	-1
0	363600	65.51	-1
0	364157	65.61	-1
0	364714	65.71	-1
0	365271	65.81	-1
0	365828	65.91	-1
0	366394	66.01	-1
0	366951	66.11	-1
0	367508	66.21	-1
0	368065	66.31	-1
0	368622	66.41	-1
0	369179	66.51	-1
0	369736	66.61	-1
0	370293	66.71	-1
0	370850	66.81	-1
0	371407	66.91	-1
0	371973	67.01	-1
0	372530	67.11	-1
0	373087	67.21	-1
0	373644	67.31	-1
0	374201	67.41	-1
0	374758	67.51	-1
0	375315	67.61	-1
0	375872	67.71	-1
0	376429	67.81	-1
0	376986	67.91	-1
0	377552	68.01	-1
0	378109	68.11	-1
0	378666	68.21	-1
0	379223	68.31	-1
0	379780	68.41	-1
0	380337	68.51	-1
0	380894	68.61	-1
0	381451	68.71	-1
0	382008	68.81	-1
0	382565	68.91	-1
0	383131	69.01	-1
0	383688	69.11	-1
0	384245	69.21	-1
0	384802	69.31	-1
0	385359	69.41	-1
0	385916	69.51	-1
0	386473	69.61	-1
0	387030	69.71	-1
0	387587	69.81	-1
0	388144	69.91	-1
0	388710	70.01	-1
0	389267	70.11	-1
0	389824	70.21	-1
0	390381	70.31	-1
0	390938	70.41	-1
0	391495	70.51	-1
0	392052	70.61	-1
0	392609	70.71	-1
0	393166	70.81	-1
0	393723	70.91	-1
0	394289	71.01	-1
0	394846	71.11	-1
0	395403	71.21	-1
0	395960	71.31	-1
0	396517	71.41	-1
0	397074	71.51	-1
0	397631	71.61	-1
0	398188	71.71	-1
0	398745	71.81	-1
0	399302	71.91	-1
0	399868	72.01	-1
0	400425	72.11	-1
0	400982	72.21	-1
0	401539	72.31	-1
0	402096	72.41	-1
0	402653	72.51	-1
0	403210	72.61	-1
0	403767	72.71	-1
0	404324	72.81	-1
0	404881	72.91	-1
0	405447	73.01	-1
0	406004	73.11	-1
0	406561	73.21	-1
0	407118	73.31	-1
0	407675	73.41	-1
0	408232	73.51	-1
0	408789	73.61	-1
0	409346	73.71	-1
0	409903	73.81	-1
0	410460	73.91	-1
0	411026	74.01	-1
0	411583	74.11	-1
0	412140	74.21	-1
0	412697	74.31	-1
0	413254	74.41	-1
0	413811	74.51	-1
0	414368	74.61	-1
0	414925	74.71	-1
0	415482	74.81	-1
0	416039	74.91	-1
0	416605	75.01	-1
0	417162	75.11	-1
0	417719	75.21	-1
0	418276	75.31	-1
0	418833	75.41	-1
0	419390	75.51	-1
0	419947	75.61	-1
0	420504	75.71	-1
0	421061	75.81	-1
0	421618	75.91	-1
0	422184	76.01	-1
0	422741	76.11	-1
0	423298	76.21	-1
0	423855	76.31	-1
0	424412	76.41	-1
0	424969	76.51	-1
0	425526	76.61	-1
0	426083	76.71	-1
0	426640	76.81	-1
0	427197	76.91	-1
0	427763	77.01	-1
0	428320	77.11	-1
0	428877	77.21	-1
0	429434	77.31	-1
0	429991	77.41	-1
0	430548	77.51	-1
0	431105	77.61	-1
0	431662	77.71	-1
0	432219	77.81	-1
0	432776	77.91	-1
0	433342	78.01	-1
0	433899	78.11	-1
0	434456	78.21	-1
0	435013	78.31	-1
0	435570	78.41	-1
0	436127	78.51	-1
0	436684	78.61	-1
0	437241	78.71	-1
0	437798	78.81	-1
0	438355	78.91	-1
0	438921	79.01	-1
0	439478	79.11	-1
0	440035	79.21	-1
0	440592	79.31	-1
0	441149	79.41	-1
0	441706	79.51	-1
0	442263	79.61	-1
0	442820	79.71	-1
0	443377	79.81	-1
0	443934	79.91	-1
0	444500	80.01	-1
0	445057	80.11	-1
0	445614	80.21	-1
0	446171	80.31	-1
0	446728	80.41	-1
0	447285	80.51	-1
0	447842	80.61	-1
0	448399	80.71	-1
0	448956	80.81	-1
0	449513	80.91	-1
0	450079	81.01	-1
0	450636	81.11	-1
0	451193	81.21	-1
0	451750	81.31	-1
0	452307	81.41	-1
0	452864	81.51	-1
0	453421	81.61	-1
0	453978	81.71	-1
0	454535	81.81	-1
0	455092	81.91	-1
0	455658	82.01	-1
0	456215	82.11	-1
0	456772	82.21	-1
0	457329	82.31	-1
0	457886	82.41	-1
0	458443	82.51	-1
0	459000	82.61	-1
0	459557	82.71	-1
0	460114	82.81	-1
0	460671	82.91	-1
0	461237	83.01	-1
0	461794	83.11	-1
0	462351	83.21	-1
0	462908	83.31	-1
0	463465	83.41	-1
0	464022	83.51	-1
0	464579	83.61	-1
0	465136	83.71	-1
0	465693	83.81	-1
0	466250	83.91	-1
0	466816	84.01	-1
0	467373	84.11	-1
0	467930	84.21	-1
0	468487	84.31	-1
0	469044	84.41	-1
0	469601	84.51	-1
0	470158	84.61	-1
0	470715	84.71	-1
0	471272	84.81	-1
0	471829	84.91	-1
0	472395	85.01	-1
0	472952	85.11	-1
0	473509	85.21	-1
0	474066	85.31	-1
0	474623	85.41	-1
0	475180	85.51	-1
0	475737	85.61	-1
0	476294	85.71	-1
0	476851	85.81	-1
0	477408	85.91	-1
0	477974	86.01	-1
0	478531	86.11	-1
0	479088	86.21	-1
0	479645	86.31	-1
0	480202	86.41	-1
0	480759	86.51	-1
0	481316	86.61	-1
0	481873	86.71	-1
0	482430	86.81	-1
0	482987	86.91	-1
0	483553	87.01	-1
0	484110	87.11	-1
0	484667	87.21	-1
0	485224	87.31	-1
0	485781	87.41	-1
0	486338	87.51	-1
0	486895	87.61	-1
0	487452	87.71	-1
0	488009	87.81	-1
0	488566	87.91	-1
0	489132	88.01	-1
0	489689	88.11	-1
0	490246	88.21	-1
0	490803	88.31	-1
0	491360	88.41	-1
0	491917	88.51	-1
0	492474	88.61	-1
0	493031	88.71	-1
0	493588	88.81	-1
0	494145	88.91	-1
0	494711	89.01	-1
0	495268	89.11	-1
0	495825	89.21	-1
0	496382	89.31	-1
0	496939	89.41	-1
0	497496	89.51	-1
0	498053	89.61	-1
0	498610	89.71	-1
0	499167	89.81	-1
0	499724	89.91	-1
0	500290	90.01	-1
0	500847	90.11	-1
0	501404	90.21	-1
0	501961	90.31	-1
0	502518	90.41	-1
0	503075	90.51	-1
0	503632	90.61	-1
0	504189	90.71	-1
0	504746	90.81	-1
0	505303	90.91	-1
0	505869	91.01	-1
0	506426	91.11	-1
0	506983	91.21	-1
0	507540	91.31	-1
0	508097	91.41	-1
0	508654	91.51	-1
0	509211	91.61	-1
0	509768	91.71	-1
0	510325	91.81	-1
0	510882	91.91	-1
0	511448	92.01	-1
0	512005	92.11	-1
0	512562	92.21	-1
0	513119	92.31	-1
0	513676	92.41	-1
0	514233	92.51	-1
0	514790	92.61	-1
0	515347	92.71	-1
0	515904	92.81	-1
0	516461	92.91	-1
0	517027	93.01	-1
0	517584	93.11	-1
0	518141	93.21	-1
0	518698	93.31	-1
0	519255	93.41	-1
0	519812	93.51	-1
0	520369	93.61	-1
0	520926	93.71	-1
0	521483	93.81	-1
0	522040	93.91	-1
0	522606	94.01	-1
0	523163	94.11	-1
0	523720	94.21	-1
0	524277	94.31	-1
0	524834	94.41	-1
0	525391	94.51	-1
0	525948	94.61	-1
0	526505	94.71	-1
0	527062	94.81	-1
0	527619	94.91	-1
0	528185	95.01	-1
0	528742	95.11	-1
0	529299	95.21	-1
0	529856	95.31	-1
0	530413	95.41	-1
0	530970	95.51	-1
0	531527	95.61	-1
0	532084	95.71	-1
0	532641	95.81	-1
0	533198	95.91	-1
0	533764	96.01	-1
0	534321	96.11	-1
0	534878	96.21	-1
0	535435	96.31	-1
0	535992	96.41	-1
0	536549	96.51	-1
0	537106	96.61	-1
0	537663	96.71	-1
0	538220	96.81	-1
0	538777	96.91	-1
0	539343	97.01	-1
0	539900	97.11	-1
0	540457	97.21	-1
0	541014	97.31	-1
0	541571	97.41	-1
0	542128	97.51	-1
0	542685	97.61	-1
0	543242	97.71	-1
0	543799	97.81	-1
0	544356	97.91	-1
0	544922	98.01	-1
0	545479	98.11	-1
0	546036	98.21	-1
0	546593	98.31	-1
0	547150	98.41	-1
0	547707	98.51	-1
0	548264	98.61	-1
0	548821	98.71	-1
0	549378	98.81	-1
0	549935	98.91	-1
0	550501	99.01	-1
0	551058	99.11	-1
0	551615	99.21	-1
0	552172	99.31	-1
0	552729	99.41	-1
0	553286	99.51	-1
0	553843	99.61	-1
0	554400	99.71	-1
0	554957	99.81	-1
0	555514	99.91	-1
1	113	1.11	0
1	670	1.21	0
1	1227	1.31	0
1	1784	1.41	0
1	2341	1.51	0
1	2898	1.61	0
1	3455	1.71	0
1	4012	1.81	0
1	4569	1.91	0
1	5135	2.01	0
1	5692	2.11	0
1	6249	2.21	0
1	6806	2.31	0
1	7363	2.41	0
1	7920	2.51	0
1	8477	2.61	0
1	9034	2.71	0
1	9591	2.81	0
1	10148	2.91	0
1	10714	3.01	0
1	11271	3.11	0
1	11828	3.21	0
1	12385	3.31	0
1	12942	3.41	0
1	13499	3.51	0
1	14056	3.61	0
1	14613	3.71	0
1	15170	3.81	0
1	15727	3.91	0
1	16293	4.01	0
1	16850	4.11	0
1	17407	4.21	0
1	17964	4.31	0
1	18521	4.41	0
1	19078	4.51	0
1	19635	4.61	0
1	20192	4.71	0
1	20749	4.81	0
1	21306	4.91	0
1	21872	5.01	0
1	22429	5.11	0
1	22986	5.21	0
1	23543	5.31	0
1	24100	5.41	0
1	24657	5.51	0
1	25214	5.61	0
1	25771	5.71	0
1	26328	5.81	0
1	26885	5.91	0
1	27451	6.01	0
1	28008	6.11	0
1	28565	6.21	0
1	29122	6.31	0
1	29679	6.41	0
1	30236	6.51	0
1	30793	6.61	0
1	31350	6.71	0
1	31907	6.81	0
1	32464	6.91	0
1	33030	7.01	0
1	33587	7.11	0
1	34144	7.21	0
1	34701	7.31	0
1	35258	7.41	0
1	35815	7.51	0
1	36372	7.61	0
1	36929	7.71	0
1	37486	7.81	0
1	38043	7.91	0
1	38609	8.01	0
1	39166	8.11	0
1	39723	8.21	0
1	40280	8.31	0
1	40837	8.41	0
1	41394	8.51	0
1	41951	8.61	0
1	42508	8.71	0
1	43065	8.81	0
1	43622	8.91	0
1	44188	9.01	0
1	44745	9.11	0
1	45302	9.21	0
1	45859	9.31	0
1	46416	9.41	0
1	46973	9.51	0
1	47530	9.61	0
1	48087	9.71	0
1	48644	9.81	0
1	49201	9.91	0
1	49852	10.01	0
1	50416	10.11	0
1	50980	10.21	0
1	51544	10.31	0
1	52108	10.41	0
1	52672	10.51	0
1	53236	10.61	0
1	53800	10.71	0
1	54364	10.81	0
1	54928	10.91	0
1	55501	11.01	0
1	56065	11.11	0
1	56629	11.21	0
1	57193	11.31	0
1	57757	11.41	0
1	58321	11.51	0
1	58885	11.61	0
1	59449	11.71	0
1	60013	11.81	0
1	60577	11.91	0
1	61150	12.01	0
1	61714	12.11	0
1	62278	12.21	0
1	62842	12.31	0
1	63406	12.41	0
1	63970	12.51	0
1	64534	12.61	0
1	65098	12.71	0
1	65662	12.81	0
1	66226	12.91	0
1	66799	13.01	0
1	67363	13.11	0
1	67927	13.21	0
1	68491	13.31	0
1	69055	13.41	0
1	69619	13.51	0
1	70183	13.61	0
1	70747	13.71	0
1	71311	13.81	0
1	71875	13.91	0
1	72448	14.01	0
1	73012	14.11	0
1	73576	14.21	0
1	74140	14.31	0
1	74704	14.41	0
1	75268	14.51	0
1	75832	14.61	0
1	76396	14.71	0
1	76960	14.81	0
1	77524	14.91	0
1	78097	15.01	0
1	78661	15.11	0
1	79225	15.21	0
1	79789	15.31	0
1	80353	15.41	0
1	80917	15.51	0
1	81481	15.61	0
1	82045	15.71	0
1	82609	15.81	0
1	83173	15.91	0
1	83746	16.01	0
1	84310	16.11	0
1	84874	16.21	0
1	85438	16.31	0
1	86002	16.41	0
1	86566	16.51	0
1	87130	16.61	0
1	87694	16.71	0
1	88258	16.81	0
1	88822	16.91	0
1	89395	17.01	0
1	89959	17.11	0
1	90523	17.21	0
1	91087	17.31	0
1	91651	17.41	0
1	92215	17.51	0
1	92779	17.61	0
1	93343	17.71	0
1	93907	17.81	0
1	94471	17.91	0
1	95044	18.01	0
1	95608	18.11	0
1	96172	18.21	0
1	96736	18.31	0
1	97300	18.41	0
1	97864	18.51	0
1	98428	18.61	0
1	98992	18.71	0
1	99556	18.81	0
1	100120	18.91	0
1	100693	19.01	0
1	101257	19.11	0
1	101821	19.21	0
1	102385	19.31	0
1	102949	19.41	0
1	103513	19.51	0
1	104077	19.61	0
1	104641	19.71	0
1	105205	19.81	0
1	105769	19.91	0
1	106342	20.01	0
1	106906	20.11	0
1	107470	20.21	0
1	108034	20.31	0
1	108598	20.41	0
1	109162	20.51	0
1	109726	20.61	0
1	110290	20.71	0
1	110854	20.81	0
1	111418	20.91	0
1	111991	21.01	0
1	112555	21.11	0
1	113119	21.21	0
1	113683	21.31	0
1	114247	21.41	0
1	114811	21.51	0
1	115375	21.61	0
1	115939	21.71	0
1	116503	21.81	0
1	117067	21.91	0
1	117640	22.01	0
1	118204	22.11	0
1	118768	22.21	0
1	119332	22.31	0
1	119896	22.41	0
1	120460	22.51	0
1	121024	22.61	0
1	121588	22.71	0
1	122152	22.81	0
1	122716	22.91	0
1	123289	23.01	0
1	123853	23.11	0
1	124417	23.21	0
1	124981	23.31	0
1	125545	23.41	0
1	126109	23.51	0
1	126673	23.61	0
1	127237	23.71	0
1	127801	23.81	0
1	128365	23.91	0
1	128938	24.01	0
1	129502	24.11	0
1	130066	24.21	0
1	130630	24.31	0
1	131194	24.41	0
1	131758	24.51	0
1	132322	24.61	0
1	132886	24.71	0
1	133450	24.81	0
1	134014	24.91	0
1	134587	25.01	0
1	135151	25.11	0
1	135715	25.21	0
1	136279	25.31	0
1	136843	25.41	0
1	137407	25.51	0
1	137971	25.61	0
1	138535	25.71	0
1	139099	25.81	0
1	139663	25.91	0
1	140236	26.01	0
1	140800	26.11	0
1	141364	26.21	0
1	141928	26.31	0
1	142492	26.41	0
1	143056	26.51	0
1	143620	26.61	0
1	144184	26.71	0
1	144748	26.81	0
1	145312	26.91	0
1	145885	27.01	0
1	146449	27.11	0
1	147013	27.21	0
1	147577	27.31	0
1	148141	27.41	0
1	148705	27.51	0
1	149269	27.61	0
1	149833	27.71	0
1	150397	27.81	0
1	150961	27.91	0
1	151534	28.01	0
1	152098	28.11	0
1	152662	28.21	0
1	153226	28.31	0
1	153790	28.41	0
1	154354	28.51	0
1	154918	28.61	0
1	155482	28.71	0
1	156046	28.81	0
1	156610	28.91	0
1	157183	29.01	0
1	157747	29.11	0
1	158311	29.21	0
1	158875	29.31	0
1	159439	29.41	0
1	160003	29.51	0
1	160567	29.61	0
1	161131	29.71	0
1	161695	29.81	0
1	162259	29.91	0
1	162832	30.01	0
1	163396	30.11	0
1	163960	30.21	0
1	164524	30.31	0
1	165088	30.41	0
1	165652	30.51	0
1	166216	30.61	0
1	166780	30.71	0
1	167344	30.81	0
1	167908	30.91	0
1	168481	31.01	0
1	169045	31.11	0
1	169609	31.21	0
1	170173	31.31	0
1	170737	31.41	0
1	171301	31.51	0
1	171865	31.61	0
1	172429	31.71	0
1	172993	31.81	0
1	173557	31.91	0
1	174130	32.01	0
1	174694	32.11	0
1	175258	32.21	0
1	175822	32.31	0
1	176386	32.41	0
1	176950	32.51	0
1	177514	32.61	0
1	178078	32.71	0
1	178642	32.81	0
1	179206	32.91	0
1	179779	33.01	0
1	180343	33.11	0
1	180907	33.21	0
1	181471	33.31	0
1	182035	33.41	0
1	182599	33.51	0
1	183163	33.61	0
1	183727	33.71	0
1	184291	33.81	0
1	184855	33.91	0
1	185428	34.01	0
1	185992	34.11	0
1	186556	34.21	0
1	187120	34.31	0
1	187684	34.41	0
1	188248	34.51	0
1	188812	34.61	0
1	189376	34.71	0
1	189940	34.81	0
1	190504	34.91	0
1	191077	35.01	0
1	191641	35.11	0
1	192205	35.21	0
1	192769	35.31	0
1	193333	35.41	0
1	193897	35.51	0
1	194461	35.61	0
1	195025	35.71	0
1	195589	35.81	0
1	196153	35.91	0
1	196726	36.01	0
1	197290	36.11	0
1	197854	36.21	0
1	198418	36.31	0
1	199075	36.41	0
1	199638	36.51	0
1	200201	36.61	0
1	200764	36.71	0
1	201327	36.81	0
1	201890	36.91	0
1	202462	37.01	0
1	203025	37.11	0
1	203588	37.21	0
1	204151	37.31	0
1	204714	37.41	0
1	205277	37.51	0
1	205840	37.61	0
1	206403	37.71	0
1	206966	37.81	0
1	207529	37.91	0
1	208101	38.01	0
1	208664	38.11	0
1	209227	38.21	0
1	209790	38.31	0
1	210353	38.41	0
1	210916	38.51	0
1	211479	38.61	0
1	212042	38.71	0
1	212605	38.81	0
1	213168	38.91	0
1	213740	39.01	0
1	214303	39.11	0
1	214866	39.21	0
1	215429	39.31	0
1	215992	39.41	0
1	216555	39.51	0
1	217118	39.61	0
1	217681	39.71	0
1	218244	39.81	0
1	218807	39.91	0
1	219379	40.01	0
1	219942	40.11	0
1	220505	40.21	0
1	221068	40.31	0
1	221631	40.41	0
1	222194	40.51	0
1	222757	40.61	0
1	223320	40.71	0
1	223883	40.81	0
1	224446	40.91	0
1	225018	41.01	0
1	225581	41.11	0
1	226144	41.21	0
1	226707	41.31	0
1	227270	41.41	0
1	227926	41.51	0
1	228488	41.61	0
1	229050	41.71	0
1	229612	41.81	0
1	230174	41.91	0
1	230745	42.01	0
1	231307	42.11	0
1	231869	42.21	0
1	232431	42.31	0
1	232993	42.41	0
1	233555	42.51	0
1	234117	42.61	0
1	234679	42.71	0
1	235241	42.81	0
1	235803	42.91	0
1	236374	43.01	0
1	236936	43.11	0
1	237498	43.21	0
1	238060	43.31	0
1	238622	43.41	0
1	239184	43.51	0
1	239746	43.61	0
1	240308	43.71	0
1	240870	43.81	0
1	241432	43.91	0
1	242003	44.01	0
1	242565	44.11	0
1	243127	44.21	0
1	243689	44.31	0
1	244251	44.41	0
1	244813	44.51	0
1	245375	44.61	0
1	245937	44.71	0
1	246499	44.81	0
1	247061	44.91	0
1	247632	45.01	0
1	248194	45.11	0
1	248756	45.21	0
1	249318	45.31	0
1	249880	45.41	0
1	250442	45.51	0
1	251004	45.61	0
1	251566	45.71	0
1	252128	45.81	0
1	252690	45.91	0
1	253261	46.01	0
1	253823	46.11	0
1	254478	46.21	0
1	255039	46.31	0
1	255600	46.41	0
1	256161	46.51	0
1	256722	46.61	0
1	257283	46.71	0
1	257844	46.81	0
1	258405	46.91	0
1	258975	47.01	0
1	259536	47.11	0
1	260097	47.21	0
1	260658	47.31	0
1	261219	47.41	0
1	261780	47.51	0
1	262341	47.61	0
1	262902	47.71	0
1	263463	47.81	0
1	264024	47.91	0
1	264594	48.01	0
1	265155	48.11	0
1	265716	48.21	0
1	266277	48.31	0
1	266838	48.41	0
1	267399	48.51	0
1	267960	48.61	0
1	268521	48.71	0
1	269082	48.81	0
1	269643	48.91	0
1	270213	49.01	0
1	270774	49.11	0
1	271335	49.21	0
1	271896	49.31	0
1	272457	49.41	0
1	273018	49.51	0
1	273579	49.61	0
1	274140	49.71	0
1	274701	49.81	0
1	275262	49.91	0
1	275832	50.01	0
1	276393	50.11	0
1	276954	50.21	0
1	277515	50.31	0
1	278076	50.41	0
1	278637	50.51	0
1	279291	50.61	0
1	279851	50.71	0
1	280411	50.81	0
1	280971	50.91	0
1	281540	51.01	0
1	282100	51.11	0
1	282660	51.21	0
1	283220	51.31	0
1	283780	51.41	0
1	284340	51.51	0
1	284900	51.61	0
1	285460	51.71	0
1	286020	51.81	0
1	286580	51.91	0
1	287149	52.01	0
1	287709	52.11	0
1	288269	52.21	0
1	288829	52.31	0
1	289389	52.41	0
1	289949	52.51	0
1	290509	52.61	0
1	291069	52.71	0
1	291629	52.81	0
1	292189	52.91	0
1	292758	53.01	0
1	293318	53.11	0
1	293878	53.21	0
1	294438	53.31	0
1	294998	53.41	0
1	295558	53.51	0
1	296118	53.61	0
1	296678	53.71	0
1	297238	53.81	0
1	297798	53.91	0
1	298367	54.01	0
1	298927	54.11	0
1	299487	54.21	0
1	300047	54.31	0
1	300607	54.41	0
1	301167	54.51	0
1	301727	54.61	0
1	302287	54.71	0
1	302847	54.81	0
1	303500	54.91	0
1	304068	55.01	0
1	304627	55.11	0
1	305186	55.21	0
1	305745	55.31	0
1	306304	55.41	0
1	306863	55.51	0
1	307422	55.61	0
1	307981	55.71	0
1	308540	55.81	0
1	309099	55.91	0
1	309667	56.01	0
1	310226	56.11	0
1	310785	56.21	0
1	311344	56.31	0
1	311903	56.41	0
1	312462	56.51	0
1	313021	56.61	0
1	313580	56.71	0
1	314139	56.81	0
1	314698	56.91	0
1	315266	57.01	0
1	315825	57.11	0
1	316384	57.21	0
1	316943	57.31	0
1	317502	57.41	0
1	318061	57.51	0
1	318620	57.61	0
1	319179	57.71	0
1	319738	57.81	0
1	320297	57.91	0
1	320865	58.01	0
1	321424	58.11	0
1	321983	58.21	0
1	322542	58.31	0
1	323101	58.41	0
1	323660	58.51	0
1	324219	58.61	0
1	324778	58.71	0
1	325337	58.81	0
1	325896	58.91	0
1	326557	59.01	0
1	327115	59.11	0
1	327673	59.21	0
1	328231	59.31	0
1	328789	59.41	0
1	329347	59.51	0
1	329905	59.61	0
1	330463	59.71	0
1	331021	59.81	0
1	331579	59.91	0
1	332146	60.01	0
1	332704	60.11	0
1	333262	60.21	0
1	333820	60.31	0
1	334378	60.41	0
1	334936	60.51	0
1	335494	60.61	0
1	336052	60.71	0
1	336610	60.81	0
1	337168	60.91	0
1	337735	61.01	0
1	338293	61.11	0
1	338851	61.21	0
1	339409	61.31	0
1	339967	61.41	0
1	340525	61.51	0
1	341083	61.61	0
1	341641	61.71	0
1	342199	61.81	0
1	342757	61.91	0
1	343324	62.01	0
1	343882	62.11	0
1	344440	62.21	0
1	344998	62.31	0
1	345556	62.41	0
1	346114	62.51	0
1	346672	62.61	0
1	347230	62.71	0
1	347788	62.81	0
1	348346	62.91	0
1	349657	63.01	0
1	350214	63.11	0
1	350771	63.21	0
1	351328	63.31	0
1	351885	63.41	0
1	352442	63.51	0
1	352999	63.61	0
1	353556	63.71	0
1	354113	63.81	0
1	354670	63.91	0
1	355236	64.01	0
1	355793	64.11	0
1	356350	64.21	0
1	356907	64.31	0
1	357464	64.41	0
1	358021	64.51	0
1	358578	64.61	0
1	359135	64.71	0
1	359692	64.81	0
1	360249	64.91	0
1	360815	65.01	0
1	361372	65.11	0
1	361929	65.21	0
1	362486	65.31	0
1	363043	65.41	0
1	363600	65.51	0
1	364157	65.61	0
1	364714	65.71	0
1	365271	65.81	0
1	365828	65.91	0
1	366394	66.01	0
1	366951	66.11	0
1	367508	66.21	0
1	368065	66.31	0
1	368622	66.41	0
1	369179	66.51	0
1	369736	66.61	0
1	370293	66.71	0
1	370850	66.81	0
1	371407	66.91	0
1	371973	67.01	0
1	372530	67.11	0
1	373087	67.21	0
1	373644	67.31	0
1	374201	67.41	0
1	374758	67.51	0
1	375315	67.61	0
1	375872	67.71	0
1	376429	67.81	0
1	376986	67.91	0
1	377552	68.01	0
1	378109	68.11	0
1	378666	68.21	0
1	379223	68.31	0
1	379780	68.41	0
1	380337	68.51	0
1	380894	68.61	0
1	381451	68.71	0
1	382008	68.81	0
1	382565	68.91	0
1	383131	69.01	0
1	383688	69.11	0
1	384245	69.21	0
1	384802	69.31	0
1	385359	69.41	0
1	385916	69.51	0
1	386473	69.61	0
1	387030	69.71	0
1	387587	69.81	0
1	388144	69.91	0
1	388710	70.01	0
1	389267	70.11	0
1	389824	70.21	0
1	390381	70.31	0
1	390938	70.41	0
1	391495	70.51	0
1	392052	70.61	0
1	392609	70.71	0
1	393166	70.81	0
1	393723	70.91	0
1	394289	71.01	0
1	394846	71.11	0
1	395403	71.21	0
1	395960	71.31	0
1	396517	71.41	0
1	397074	71.51	0
1	397631	71.61	0
1	398188	71.71	0
1	398745	71.81	0
1	399302	71.91	0
1	399868	72.01	0
1	400425	72.11	0
1	400982	72.21	0
1	401539	72.31	0
1	402096	72.41	0
1	402653	72.51	0
1	403210	72.61	0
1	403767	72.71	0
1	404324	72.81	0
1	404881	72.91	0
1	405447	73.01	0
1	406004	73.11	0
1	406561	73.21	0
1	407118	73.31	0
1	407675	73.41	0
1	408232	73.51	0
1	408789	73.61	0
1	409346	73.71	0
1	409903	73.81	0
1	410460	73.91	0
1	411026	74.01	0
1	411583	74.11	0
1	412140	74.21	0
1	412697	74.31	0
1	413254	74.41	0
1	413811	74.51	0
1	414368	74.61	0
1	414925	74.71	0
1	415482	74.81	0
1	416039	74.91	0
1	416605	75.01	0
1	417162	75.11	0
1	417719	75.21	0
1	418276	75.31	0
1	418833	75.41	0
1	419390	75.51	0
1	419947	75.61	0
1	420504	75.71	0
1	421061	75.81	0
1	421618	75.91	0
1	422184	76.01	0
1	422741	76.11	0
1	423298	76.21	0
1	423855	76.31	0
1	424412	76.41	0
1	424969	76.51	0
1	425526	76.61	0
1	426083	76.71	0
1	426640	76.81	0
1	427197	76.91	0
1	427763	77.01	0
1	428320	77.11	0
1	428877	77.21	0
1	429434	77.31	0
1	429991	77.41	0
1	430548	77.51	0
1	431105	77.61	0
1	431662	77.71	0
1	432219	77.81	0
1	432776	77.91	0
1	433342	78.01	0
1	433899	78.11	0
1	434456	78.21	0
1	435013	78.31	0
1	435570	78.41	0
1	436127	78.51	0
1	436684	78.61	0
1	437241	78.71	0
1	437798	78.81	0
1	438355	78.91	0
1	438921	79.01	0
1	439478	79.11	0
1	440035	79.21	0
1	440592	79.31	0
1	441149	79.41	0
1	441706	79.51	0
1	442263	79.61	0
1	442820	79.71	0
1	443377	79.81	0
1	443934	79.91	0
1	444500	80.01	0
1	445057	80.11	0
1	445614	80.21	0
1	446171	80.31	0
1	446728	80.41	0
1	447285	80.51	0
1	447842	80.61	0
1	448399	80.71	0
1	448956	80.81	0
1	449513	80.91	0
1	450079	81.01	0
1	450636	81.11	0
1	451193	81.21	0
1	451750	81.31	0
1	452307	81.41	0
1	452864	81.51	0
1	453421	81.61	0
1	453978	81.71	0
1	454535	81.81	0
1	455092	81.91	0
1	455658	82.01	0
1	456215	82.11	0
1	456772	82.21	0
1	457329	82.31	0
1	457886	82.41	0
1	458443	82.51	0
1	459000	82.61	0
1	459557	82.71	0
1	460114	82.81	0
1	460671	82.91	0
1	461237	83.01	0
1	461794	83.11	0
1	462351	83.21	0
1	462908	83.31	0
1	463465	83.41	0
1	464022	83.51	0
1	464579	83.61	0
1	465136	83.71	0
1	465693	83.81	0
1	466250	83.91	0
1	466816	84.01	0
1	467373	84.11	0
1	467930	84.21	0
1	468487	84.31	0
1	469044	84.41	0
1	469601	84.51	0
1	470158	84.61	0
1	470715	84.71	0
1	471272	84.81	0
1	471829	84.91	0
1	472395	85.01	0
1	472952	85.11	0
1	473509	85.21	0
1	474066	85.31	0
1	474623	85.41	0
1	475180	85.51	0
1	475737	85.61	0
1	476294	85.71	0
1	476851	85.81	0
1	477408	85.91	0
1	477974	86.01	0
1	478531	86.11	0
1	479088	86.21	0
1	479645	86.31	0
1	480202	86.41	0
1	480759	86.51	0
1	481316	86.61	0
1	481873	86.71	0
1	482430	86.81	0
1	482987	86.91	0
1	483553	87.01	0
1	484110	87.11	0
1	484667	87.21	0
1	485224	87.31	0
1	485781	87.41	0
1	486338	87.51	0
1	486895	87.61	0
1	487452	87.71	0
1	488009	87.81	0
1	488566	87.91	0
1	489132	88.01	0
1	489689	88.11	0
1	490246	88.21	0
1	490803	88.31	0
1	491360	88.41	0
1	491917	88.51	0
1	492474	88.61	0
1	493031	88.71	0
1	493588	88.81	0
1	494145	88.91	0
1	494711	89.01	0
1	495268	89.11	0
1	495825	89.21	0
1	496382	89.31	0
1	496939	89.41	0
1	497496	89.51	0
1	498053	89.61	0
1	498610	89.71	0
1	499167	89.81	0
1	499724	89.91	0
1	500290	90.01	0
1	500847	90.11	0
1	501404	90.21	0
1	501961	90.31	0
1	502518	90.41	0
1	503075	90.51	0
1	503632	90.61	0
1	504189	90.71	0
1	504746	90.81	0
1	505303	90.91	0
1	505869	91.01	0
1	506426	91.11	0
1	506983	91.21	0
1	507540	91.31	0
1	508097	91.41	0
1	508654	91.51	0
1	509211	91.61	0
1	509768	91.71	0
1	510325	91.81	0
1	510882	91.91	0
1	511448	92.01	0
1	512005	92.11	0
1	512562	92.21	0
1	513119	92.31	0
1	513676	92.41	0
1	514233	92.51	0
1	514790	92.61	0
1	515347	92.71	0
1	515904	92.81	0
1	516461	92.91	0
1	517027	93.01	0
1	517584	93.11	0
1	518141	93.21	0
1	518698	93.31	0
1	519255	93.41	0
1	519812	93.51	0
1	520369	93.61	0
1	520926	93.71	0
1	521483	93.81	0
1	522040	93.91	0
1	522606	94.01	0
1	523163	94.11	0
1	523720	94.21	0
1	524277	94.31	0
1	524834	94.41	0
1	525391	94.51	0
1	525948	94.61	0
1	526505	94.71	0
1	527062	94.81	0
1	527619	94.91	0
1	528185	95.01	0
1	528742	95.11	0
1	529299	95.21	0
1	529856	95.31	0
1	530413	95.41	0
1	530970	95.51	0
1	531527	95.61	0
1	532084	95.71	0
1	532641	95.81	0
1	533198	95.91	0
1	533764	96.01	0
1	534321	96.11	0
1	534878	96.21	0
1	535435	96.31	0
1	535992	96.41	0
1	536549	96.51	0
1	537106	96.61	0
1	537663	96.71	0
1	538220	96.81	0
1	538777	96.91	0
1	539343	97.01	0
1	539900	97.11	0
1	540457	97.21	0
1	541014	97.31	0
1	541571	97.41	0
1	542128	97.51	0
1	542685	97.61	0
1	543242	97.71	0
1	543799	97.81	0
1	544356	97.91	0
1	544922	98.01	0
1	545479	98.11	0
1	546036	98.21	0
1	546593	98.31	0
1	547150	98.41	0
1	547707	98.51	0
1	548264	98.61	0
1	548821	98.71	0
1	549378	98.81	0
1	549935	98.91	0
1	550501	99.01	0
1	551058	99.11	0
1	551615	99.21	0
1	552172	99.31	0
1	552729	99.41	0
1	553286	99.51	0
1	553843	99.61	0
1	554400	99.71	0
1	554957	99.81	0
1	555514	99.91	0
2	113	1.11	0
2	670	1.21	0
2	1227	1.31	0
2	1784	1.41	0
2	2341	1.51	0
2	2898	1.61	0
2	3455	1.71	0
2	4012	1.81	0
2	4569	1.91	0
2	5135	2.01	0
2	5692	2.11	0
2	6249	2.21	0
2	6806	2.31	0
2	7363	2.41	0
2	7920	2.51	0
2	8477	2.61	0
2	9034	2.71	0
2	9591	2.81	0
2	10148	2.91	0
2	10714	3.01	0
2	11271	3.11	0
2	11828	3.21	0
2	12385	3.31	0
2	12942	3.41	0
2	13499	3.51	0
2	14056	3.61	0
2	14613	3.71	0
2	15170	3.81	0
2	15727	3.91	0
2	16293	4.01	0
2	16850	4.11	0
2	17407	4.21	0
2	17964	4.31	0
2	18521	4.41	0
2	19078	4.51	0
2	19635	4.61	0
2	20192	4.71	0
2	20749	4.81	0
2	21306	4.91	0
2	21872	5.01	0
2	22429	5.11	0
2	22986	5.21	0
2	23543	5.31	0
2	24100	5.41	0
2	24657	5.51	0
2	25214	5.61	0
2	25771	5.71	0
2	26328	5.81	0
2	26885	5.91	0
2	27451	6.01	0
2	28008	6.11	0
2	28565	6.21	0
2	29122	6.31	0
2	29679	6.41	0
2	30236	6.51	0
2	30793	6.61	0
2	31350	6.71	0
2	31907	6.81	0
2	32464	6.91	0
2	33030	7.01	0
2	33587	7.11	0
2	34144	7.21	0
2	34701	7.31	0
2	35258	7.41	0
2	35815	7.51	0
2	36372	7.61	0
2	36929	7.71	0
2	37486	7.81	0
2	38043	7.91	0
2	38609	8.01	0
2	39166	8.11	0
2	39723	8.21	0
2	40280	8.31	0
2	40837	8.41	0
2	41394	8.51	0
2	41951	8.61	0
2	42508	8.71	0
2	43065	8.81	0
2	43622	8.91	0
2	44188	9.01	0
2	44745	9.11	0
2	45302	9.21	0
2	45859	9.31	0
2	46416	9.41	0
2	46973	9.51	0
2	47530	9.61	0
2	48087	9.71	0
2	48644	9.81	0
2	49201	9.91	0
2	49852	10.01	0
2	50416	10.11	0
2	50980	10.21	0
2	51544	10.31	0
2	52108	10.41	0
2	52672	10.51	0
2	53236	10.61	0
2	53800	10.71	0
2	54364	10.81	0
2	54928	10.91	0
2	55501	11.01	0
2	56065	11.11	0
2	56629	11.21	0
2	57193	11.31	0
2	57757	11.41	0
2	58321	11.51	0
2	58885	11.61	0
2	59449	11.71	0
2	60013	11.81	0
2	60577	11.91	0
2	61150	12.01	0
2	61714	12.11	0
2	62278	12.21	0
2	62842	12.31	0
2	63406	12.41	0
2	63970	12.51	0
2	64534	12.61	0
2	65098	12.71	0
2	65662	12.81	0
2	66226	12.91	0
2	66799	13.01	0
2	67363	13.11	0
2	67927	13.21	0
2	68491	13.31	0
2	69055	13.41	0
2	69619	13.51	0
2	70183	13.61	0
2	70747	13.71	0
2	71311	13.81	0
2	71875	13.91	0
2	72448	14.01	0
2	73012	14.11	0
2	73576	14.21	0
2	74140	14.31	0
2	74704	14.41	0
2	75268	14.51	0
2	75832	14.61	0
2	76396	14.71	0
2	76960	14.81	0
2	77524	14.91	0
2	78097	15.01	0
2	78661	15.11	0
2	79225	15.21	0
2	79789	15.31	0
2	80353	15.41	0
2	80917	15.51	0
2	81481	15.61	0
2	82045	15.71	0
2	82609	15.81	0
2	83173	15.91	0
2	83746	16.01	0
2	84310	16.11	0
2	84874	16.21	0
2	85438	16.31	0
2	86002	16.41	0
2	86566	16.51	0
2	87130	16.61	0
2	87694	16.71	0
2	88258	16.81	0
2	88822	16.91	0
2	89395	17.01	0
2	89959	17.11	0
2	90523	17.21	0
2	91087	17.31	0
2	91651	17.41	0
2	92215	17.51	0
2	92779	17.61	0
2	93343	17.71	0
2	93907	17.81	0
2	94471	17.91	0
2	95044	18.01	0
2	95608	18.11	0
2	96172	18.21	0
2	96736	18.31	0
2	97300	18.41	0
2	97864	18.51	0
2	98428	18.61	0
2	98992	18.71	0
2	99556	18.81	0
2	100120	18.91	0
2	100693	19.01	0
2	101257	19.11	0
2	101821	19.21	0
2	102385	19.31	0
2	102949	19.41	0
2	103513	19.51	0
2	104077	19.61	0
2	104641	19.71	0
2	105205	19.81	0
2	105769	19.91	0
2	106342	20.01	0
2	106906	20.11	0
2	107470	20.21	0
2	108034	20.31	0
2	108598	20.41	0
2	109162	20.51	0
2	109726	20.61	0
2	110290	20.71	0
2	110854	20.81	0
2	111418	20.91	0
2	111991	21.01	0
2	112555	21.11	0
2	113119	21.21	0
2	113683	21.31	0
2	114247	21.41	0
2	114811	21.51	0
2	115375	21.61	0
2	115939	21.71	0
2	116503	21.81	0
2	117067	21.91	0
2	117640	22.01	0
2	118204	22.11	0
2	118768	22.21	0
2	119332	22.31	0
2	119896	22.41	0
2	120460	22.51	0
2	121024	22.61	0
2	121588	22.71	0
2	122152	22.81	0
2	122716	22.91	0
2	123289	23.01	0
2	123853	23.11	0
2	124417	23.21	0
2	124981	23.31	0
2	125545	23.41	0
2	126109	23.51	0
2	126673	23.61	0
2	127237	23.71	0
2	127801	23.81	0
2	128365	23.91	0
2	128938	24.01	0
2	129502	24.11	0
2	130066	24.21	0
2	130630	24.31	0
2	131194	24.41	0
2	131758	24.51	0
2	132322	24.61	0
2	132886	24.71	0
2	133450	24.81	0
2	134014	24.91	0
2	134587	25.01	0
2	135151	25.11	0
2	135715	25.21	0
2	136279	25.31	0
2	136843	25.41	0
2	137407	25.51	0
2	137971	25.61	0
2	138535	25.71	0
2	139099	25.81	0
2	139663	25.91	0
2	140236	26.01	0
2	140800	26.11	0
2	141364	26.21	0
2	141928	26.31	0
2	142492	26.41	0
2	143056	26.51	0
2	143620	26.61	0
2	144184	26.71	0
2	144748	26.81	0
2	145312	26.91	0
2	145885	27.01	0
2	146449	27.11	0
2	147013	27.21	0
2	147577	27.31	0
2	148141	27.41	0
2	148705	27.51	0
2	149269	27.61	0
2	149833	27.71	0
2	150397	27.81	0
2	150961	27.91	0
2	151534	28.01	0
2	152098	28.11	0
2	152662	28.21	0
2	153226	28.31	0
2	153790	28.41	0
2	154354	28.51	0
2	154918	28.61	0
2	155482	28.71	0
2	156046	28.81	0
2	156610	28.91	0
2	157183	29.01	0
2	157747	29.11	0
2	158311	29.21	0
2	158875	29.31	0
2	159439	29.41	0
2	160003	29.51	0
2	160567	29.61	0
2	161131	29.71	0
2	161695	29.81	0
2	162259	29.91	0
2	162832	30.01	0
2	163396	30.11	0
2	163960	30.21	0
2	164524	30.31	0
2	165088	30.41	0
2	165652	30.51	0
2	166216	30.61	0
2	166780	30.71	0
2	167344	30.81	0
2	167908	30.91	0
2	168481	31.01	0
2	169045	31.11	0
2	169609	31.21	0
2	170173	31.31	0
2	170737	31.41	0
2	171301	31.51	0
2	171865	31.61	0
2	172429	31.71	0
2	172993	31.81	0
2	173557	31.91	0
2	174130	32.01	0
2	174694	32.11	0
2	175258	32.21	0
2	175822	32.31	0
2	176386	32.41	0
2	176950	32.51	0
2	177514	32.61	0
2	178078	32.71	0
2	178642	32.81	0
2	179206	32.91	0
2	179779	33.01	0
2	180343	33.11	0
2	180907	33.21	0
2	181471	33.31	0
2	182035	33.41	0
2	182599	33.51	0
2	183163	33.61	0
2	183727	33.71	0
2	184291	33.81	0
2	184855	33.91	0
2	185428	34.01	0
2	185992	34.11	0
2	186556	34.21	0
2	187120	34.31	0
2	187684	34.41	0
2	188248	34.51	0
2	188812	34.61	0
2	189376	34.71	0
2	189940	34.81	0
2	190504	34.91	0
2	191077	35.01	0
2	191641	35.11	0
2	192205	35.21	0
2	192769	35.31	0
2	193333	35.41	0
2	193897	35.51	0
2	194461	35.61	0
2	195025	35.71	0
2	195589	35.81	0
2	196153	35.91	0
2	196726	36.01	0
2	197290	36.11	0
2	197854	36.21	0
2	198418	36.31	0
2	199075	36.41	0
2	199638	36.51	0
2	200201	36.61	0
2	200764	36.71	0
2	201327	36.81	0
2	201890	36.91	0
2	202462	37.01	0
2	203025	37.11	0
2	203588	37.21	0
2	204151	37.31	0
2	204714	37.41	0
2	205277	37.51	0
2	205840	37.61	0
2	206403	37.71	0
2	206966	37.81	0
2	207529	37.91	0
2	208101	38.01	0
2	208664	38.11	0
2	209227	38.21	0
2	209790	38.31	0
2	210353	38.41	0
2	210916	38.51	0
2	211479	38.61	0
2	212042	38.71	0
2	212605	38.81	0
2	213168	38.91	0
2	213740	39.01	0
2	214303	39.11	0
2	214866	39.21	0
2	215429	39.31	0
2	215992	39.41	0
2	216555	39.51	0
2	217118	39.61	0
2	217681	39.71	0
2	218244	39.81	0
2	218807	39.91	0
2	219379	40.01	0
2	219942	40.11	0
2	220505	40.21	0
2	221068	40.31	0
2	221631	40.41	0
2	222194	40.51	0
2	222757	40.61	0
2	223320	40.71	0
2	223883	40.81	0
2	224446	40.91	0
2	225018	41.01	0
2	225581	41.11	0
2	226144	41.21	0
2	226707	41.31	0
2	227270	41.41	0
2	227926	41.51	0
2	228488	41.61	0
2	229050	41.71	0
2	229612	41.81	0
2	230174	41.91	0
2	230745	42.01	0
2	231307	42.11	0
2	231869	42.21	0
2	232431	42.31	0
2	232993	42.41	0
2	233555	42.51	0
2	234117	42.61	0
2	234679	42.71	0
2	235241	42.81	0
2	235803	42.91	0
2	236374	43.01	0
2	236936	43.11	0
2	237498	43.21	0
2	238060	43.31	0
2	238622	43.41	0
2	239184	43.51	0
2	239746	43.61	0
2	240308	43.71	0
2	240870	43.81	0
2	241432	43.91	0
2	242003	44.01	0
2	242565	44.11	0
2	243127	44.21	0
2	243689	44.31	0
2	244251	44.41	0
2	244813	44.51	0
2	245375	44.61	0
2	245937	44.71	0
2	246499	44.81	0
2	247061	44.91	0
2	247632	45.01	0
2	248194	45.11	0
2	248756	45.21	0
2	249318	45.31	0
2	249880	45.41	0
2	250442	45.51	0
2	251004	45.61	0
2	251566	45.71	0
2	252128	45.81	0
2	252690	45.91	0
2	253261	46.01	0
2	253823	46.11	0
2	254478	46.21	0
2	255039	46.31	0
2	255600	46.41	0
2	256161	46.51	0
2	256722	46.61	0
2	257283	46.71	0
2	257844	46.81	0
2	258405	46.91	0
2	258975	47.01	0
2	259536	47.11	0
2	260097	47.21	0
2	260658	47.31	0
2	261219	47.41	0
2	261780	47.51	0
2	262341	47.61	0
2	262902	47.71	0
2	263463	47.81	0
2	264024	47.91	0
2	264594	48.01	0
2	265155	48.11	0
2	265716	48.21	0
2	266277	48.31	0
2	266838	48.41	0
2	267399	48.51	0
2	267960	48.61	0
2	268521	48.71	0
2	269082	48.81	0
2	269643	48.91	0
2	270213	49.01	0
2	270774	49.11	0
2	271335	49.21	0
2	271896	49.31	0
2	272457	49.41	0
2	273018	49.51	0
2	273579	49.61	0
2	274140	49.71	0
2	274701	49.81	0
2	275262	49.91	0
2	275832	50.01	0
2	276393	50.11	0
2	276954	50.21	0
2	277515	50.31	0
2	278076	50.41	0
2	278637	50.51	0
2	279291	50.61	0
2	279851	50.71	0
2	280411	50.81	0
2	280971	50.91	0
2	281540	51.01	0
2	282100	51.11	0
2	282660	51.21	0
2	283220	51.31	0
2	283780	51.41	0
2	284340	51.51	0
2	284900	51.61	0
2	285460	51.71	0
2	286020	51.81	0
2	286580	51.91	0
2	287149	52.01	0
2	287709	52.11	0
2	288269	52.21	0
2	288829	52.31	0
2	289389	52.41	0
2	289949	52.51	0
2	290509	52.61	0
2	291069	52.71	0
2	291629	52.81	0
2	292189	52.91	0
2	292758	53.01	0
2	293318	53.11	0
2	293878	53.21	0
2	294438	53.31	0
2	294998	53.41	0
2	295558	53.51	0
2	296118	53.61	0
2	296678	53.71	0
2	297238	53.81	0
2	297798	53.91	0
2	298367	54.01	0
2	298927	54.11	0
2	299487	54.21	0
2	300047	54.31	0
2	300607	54.41	0
2	301167	54.51	0
2	301727	54.61	0
2	302287	54.71	0
2	302847	54.81	0
2	303500	54.91	0
2	304068	55.01	0
2	304627	55.11	0
2	305186	55.21	0
2	305745	55.31	0
2	306304	55.41	0
2	306863	55.51	0
2	307422	55.61	0
2	307981	55.71	0
2	308540	55.81	0
2	309099	55.91	0
2	309667	56.01	0
2	310226	56.11	0
2	310785	56.21	0
2	311344	56.31	0
2	311903	56.41	0
2	312462	56.51	0
2	313021	56.61	0
2	313580	56.71	0
2	314139	56.81	0
2	314698	56.91	0
2	315266	57.01	0
2	315825	57.11	0
2	316384	57.21	0
2	316943	57.31	0
2	317502	57.41	0
2	318061	57.51	0
2	318620	57.61	0
2	319179	57.71	0
2	319738	57.81	0
2	320297	57.91	0
2	320865	58.01	0
2	321424	58.11	0
2	321983	58.21	0
2	322542	58.31	0
2	323101	58.41	0
2	323660	58.51	0
2	324219	58.61	0
2	324778	58.71	0
2	325337	58.81	0
2	325896	58.91	0
2	326557	59.01	0
2	327115	59.11	0
2	327673	59.21	0
2	328231	59.31	0
2	328789	59.41	0
2	329347	59.51	0
2	329905	59.61	0
2	330463	59.71	0
2	331021	59.81	0
2	331579	59.91	0
2	332146	60.01	0
2	332704	60.11	0
2	333262	60.21	0
2	333820	60.31	0
2	334378	60.41	0
2	334936	60.51	0
2	335494	60.61	0
2	336052	60.71	0
2	336610	60.81	0
2	337168	60.91	0
2	337735	61.01	0
2	338293	61.11	0
2	338851	61.21	0
2	339409	61.31	0
2	339967	61.41	0
2	340525	61.51	0
2	341083	61.61	0
2	341641	61.71	0
2	342199	61.81	0
2	342757	61.91	0
2	343324	62.01	0
2	343882	62.11	0
2	344440	62.21	0
2	344998	62.31	0
2	345556	62.41	0
2	346114	62.51	0
2	346672	62.61	0
2	347230	62.71	0
2	347788	62.81	0
2	348346	62.91	0
2	349657	63.01	0
2	350214	63.11	0
2	350771	63.21	0
2	351328	63.31	0
2	351885	63.41	0
2	352442	63.51	0
2	352999	63.61	0
2	353556	63.71	0
2	354113	63.81	0
2	354670	63.91	0
2	355236	64.01	0
2	355793	64.11	0
2	356350	64.21	0
2	356907	64.31	0
2	357464	64.41	0
2	358021	64.51	0
2	358578	64.61	0
2	359135	64.71	0
2	359692	64.81	0
2	360249	64.91	0
2	360815	65.01	0
2	361372	65.11	0
2	361929	65.21	0
2	362486	65.31	0
2	363043	65.41	0
2	363600	65.51	0
2	364157	65.61	0
2	364714	65.71	0
2	365271	65.81	0
2	365828	65.91	0
2	366394	66.01	0
2	366951	66.11	0
2	367508	66.21	0
2	368065	66.31	0
2	368622	66.41	0
2	369179	66.51	0
2	369736	66.61	0
2	370293	66.71	0
2	370850	66.81	0
2	371407	66.91	0
2	371973	67.01	0
2	372530	67.11	0
2	373087	67.21	0
2	373644	67.31	0
2	374201	67.41	0
2	374758	67.51	0
2	375315	67.61	0
2	375872	67.71	0
2	376429	67.81	0
2	376986	67.91	0
2	377552	68.01	0
2	378109	68.11	0
2	378666	68.21	0
2	379223	68.31	0
2	379780	68.41	0
2	380337	68.51	0
2	380894	68.61	0
2	381451	68.71	0
2	382008	68.81	0
2	382565	68.91	0
2	383131	69.01	0
2	383688	69.11	0
2	384245	69.21	0
2	384802	69.31	0
2	385359	69.41	0
2	385916	69.51	0
2	386473	69.61	0
2	387030	69.71	0
2	387587	69.81	0
2	388144	69.91	0
2	388710	70.01	0
2	389267	70.11	0
2	389824	70.21	0
2	390381	70.31	0
2	390938	70.41	0
2	391495	70.51	0
2	392052	70.61	0
2	392609	70.71	0
2	393166	70.81	0
2	393723	70.91	0
2	394289	71.01	0
2	394846	71.11	0
2	395403	71.21	0
2	395960	71.31	0
2	396517	71.41	0
2	397074	71.51	0
2	397631	71.61	0
2	398188	71.71	0
2	398745	71.81	0
2	399302	71.91	0
2	399868	72.01	0
2	400425	72.11	0
2	400982	72.21	0
2	401539	72.31	0
2	402096	72.41	0
2	402653	72.51	0
2	403210	72.61	0
2	403767	72.71	0
2	404324	72.81	0
2	404881	72.91	0
2	405447	73.01	0
2	406004	73.11	0
2	406561	73.21	0
2	407118	73.31	0
2	407675	73.41	0
2	408232	73.51	0
2	408789	73.61	0
2	409346	73.71	0
2	409903	73.81	0
2	410460	73.91	0
2	411026	74.01	0
2	411583	74.11	0
2	412140	74.21	0
2	412697	74.31	0
2	413254	74.41	0
2	413811	74.51	0
2	414368	74.61	0
2	414925	74.71	0
2	415482	74.81	0
2	416039	74.91	0
2	416605	75.01	0
2	417162	75.11	0
2	417719	75.21	0
2	418276	75.31	0
2	418833	75.41	0
2	419390	75.51	0
2	419947	75.61	0
2	420504	75.71	0
2	421061	75.81	0
2	421618	75.91	0
2	422184	76.01	0
2	422741	76.11	0
2	423298	76.21	0
2	423855	76.31	0
2	424412	76.41	0
2	424969	76.51	0
2	425526	76.61	0
2	426083	76.71	0
2	426640	76.81	0
2	427197	76.91	0
2	427763	77.01	0
2	428320	77.11	0
2	428877	77.21	0
2	429434	77.31	0
2	429991	77.41	0
2	430548	77.51	0
2	431105	77.61	0
2	431662	77.71	0
2	432219	77.81	0
2	432776	77.91	0
2	433342	78.01	0
2	433899	78.11	0
2	434456	78.21	0
2	435013	78.31	0
2	435570	78.41	0
2	436127	78.51	0
2	436684	78.61	0
2	437241	78.71	0
2	437798	78.81	0
2	438355	78.91	0
2	438921	79.01	0
2	439478	79.11	0
2	440035	79.21	0
2	440592	79.31	0
2	441149	79.41	0
2	441706	79.51	0
2	442263	79.61	0
2	442820	79.71	0
2	443377	79.81	0
2	443934	79.91	0
2	444500	80.01	0
2	445057	80.11	0
2	445614	80.21	0
2	446171	80.31	0
2	446728	80.41	0
2	447285	80.51	0
2	447842	80.61	0
2	448399	80.71	0
2	448956	80.81	0
2	449513	80.91	0
2	450079	81.01	0
2	450636	81.11	0
2	451193	81.21	0
2	451750	81.31	0
2	452307	81.41	0
2	452864	81.51	0
2	453421	81.61	0
2	453978	81.71	0
2	454535	81.81	0
2	455092	81.91	0
2	455658	82.01	0
2	456215	82.11	0
2	456772	82.21	0
2	457329	82.31	0
2	457886	82.41	0
2	458443	82.51	0
2	459000	82.61	0
2	459557	82.71	0
2	460114	82.81	0
2	460671	82.91	0
2	461237	83.01	0
2	461794	83.11	0
2	462351	83.21	0
2	462908	83.31	0
2	463465	83.41	0
2	464022	83.51	0
2	464579	83.61	0
2	465136	83.71	0
2	465693	83.81	0
2	466250	83.91	0
2	466816	84.01	0
2	467373	84.11	0
2	467930	84.21	0
2	468487	84.31	0
2	469044	84.41	0
2	469601	84.51	0
2	470158	84.61	0
2	470715	84.71	0
2	471272	84.81	0
2	471829	84.91	0
2	472395	85.01	0
2	472952	85.11	0
2	473509	85.21	0
2	474066	85.31	0
2	474623	85.41	0
2	475180	85.51	0
2	475737	85.61	0
2	476294	85.71	0
2	476851	85.81	0
2	477408	85.91	0
2	477974	86.01	0
2	478531	86.11	0
2	479088	86.21	0
2	479645	86.31	0
2	480202	86.41	0
2	480759	86.51	0
2	481316	86.61	0
2	481873	86.71	0
2	482430	86.81	0
2	482987	86.91	0
2	483553	87.01	0
2	484110	87.11	0
2	484667	87.21	0
2	485224	87.31	0
2	485781	87.41	0
2	486338	87.51	0
2	486895	87.61	0
2	487452	87.71	0
2	488009	87.81	0
2	488566	87.91	0
2	489132	88.01	0
2	489689	88.11	0
2	490246	88.21	0
2	490803	88.31	0
2	491360	88.41	0
2	491917	88.51	0
2	492474	88.61	0
2	493031	88.71	0
2	493588	88.81	0
2	494145	88.91	0
2	494711	89.01	0
2	495268	89.11	0
2	495825	89.21	0
2	496382	89.31	0
2	496939	89.41	0
2	497496	89.51	0
2	498053	89.61	0
2	498610	89.71	0
2	499167	89.81	0
2	499724	89.91	0
2	500290	90.01	0
2	500847	90.11	0
2	501404	90.21	0
2	501961	90.31	0
2	502518	90.41	0
2	503075	90.51	0
2	503632	90.61	0
2	504189	90.71	0
2	504746	90.81	0
2	505303	90.91	0
2	505869	91.01	0
2	506426	91.11	0
2	506983	91.21	0
2	507540	91.31	0
2	508097	91.41	0
2	508654	91.51	0
2	509211	91.61	0
2	509768	91.71	0
2	510325	91.81	0
2	510882	91.91	0
2	511448	92.01	0
2	512005	92.11	0
2	512562	92.21	0
2	513119	92.31	0
2	513676	92.41	0
2	514233	92.51	0
2	514790	92.61	0
2	515347	92.71	0
2	515904	92.81	0
2	516461	92.91	0
2	517027	93.01	0
2	517584	93.11	0
2	518141	93.21	0
2	518698	93.31	0
2	519255	93.41	0
2	519812	93.51	0
2	520369	93.61	0
2	520926	93.71	0
2	521483	93.81	0
2	522040	93.91	0
2	522606	94.01	0
2	523163	94.11	0
2	523720	94.21	0
2	524277	94.31	0
2	524834	94.41	0
2	525391	94.51	0
2	525948	94.61	0
2	526505	94.71	0
2	527062	94.81	0
2	527619	94.91	0
2	528185	95.01	0
2	528742	95.11	0
2	529299	95.21	0
2	529856	95.31	0
2	530413	95.41	0
2	530970	95.51	0
2	531527	95.61	0
2	532084	95.71	0
2	532641	95.81	0
2	533198	95.91	0
2	533764	96.01	0
2	534321	96.11	0
2	534878	96.21	0
2	535435	96.31	0
2	535992	96.41	0
2	536549	96.51	0
2	537106	96.61	0
2	537663	96.71	0
2	538220	96.81	0
2	538777	96.91	0
2	539343	97.01	0
2	539900	97.11	0
2	540457	97.21	0
2	541014	97.31	0
2	541571	97.41	0
2	542128	97.51	0
2	542685	97.61	0
2	543242	97.71	0
2	543799	97.81	0
2	544356	97.91	0
2	544922	98.01	0
2	545479	98.11	0
2	546036	98.21	0
2	546593	98.31	0
2	547150	98.41	0
2	547707	98.51	0
2	548264	98.61	0
2	548821	98.71	0
2	549378	98.81	0
2	549935	98.91	0
2	550501	99.01	0
2	551058	99.11	0
2	551615	99.21	0
2	552172	99.31	0
2	552729	99.41	0
2	553286	99.51	0
2	553843	99.61	0
2	554400	99.71	0
2	554957	99.81	0
2	555514	99.91	0
3	113	1.11	-0.000716383
3	670	1.21	-0.00136341
3	1227	1.31	-0.00186974
3	1784	1.41	-0.00225157
3	2341	1.51	-0.00252443
3	2898	1.61	-0.00270298
3	3455	1.71	-0.00280098
3	4012	1.81	-0.00283113
3	4569	1.91	-0.00280509
3	5135	2.01	-0.00273342
3	5692	2.11	-0.00262559
3	6249	2.21	-0.00249005
3	6806	2.31	-0.00233419
3	7363	2.41	-0.00216447
3	7920	2.51	-0.00198642
3	8477	2.61	-0.00180472
3	9034	2.71	-0.0016233
3	9591	2.81	-0.00144536
3	10148	2.91	-0.00127346
3	10714	3.01	-0.0011096
3	11271	3.11	-0.000955278
3	11828	3.21	-0.000811546
3	12385	3.31	-0.00067908
3	12942	3.41	-0.000558232
3	13499	3.51	-0.000449082
3	14056	3.61	-0.000351487
3	14613	3.71	-0.00026512
3	15170	3.81	-0.000189514
3	15727	3.91	-0.000124092
3	16293	4.01	-6.81972e-05
3	16850	4.11	-2.11209e-05
3	17407	4.21	1.78769e-05
3	17964	4.31	4.9548e-05
3	18521	4.41	7.46407e-05
3	19078	4.51	9.38867e-05
3	19635	4.61	0.000107991
3	20192	4.71	0.000117625
3	20749	4.81	0.000123418
3	21306	4.91	0.000125957
3	21872	5.01	0.000125781
3	22429	5.11	0.00012338
3	22986	5.21	0.000119198
3	23543	5.31	0.000113629
3	24100	5.41	0.000107022
3	24657	5.51	9.96832e-05
3	25214	5.61	9.18747e-05
3	25771	5.71	8.38211e-05
3	26328	5.81	7.57109e-05
3	26885	5.91	6.76999e-05
3	27451	6.01	5.99137e-05
3	28008	6.11	5.24518e-05
3	28565	6.21	4.53896e-05
3	29122	6.31	3.87821e-05
3	29679	6.41	3.2666e-05
3	30236	6.51	2.70628e-05
3	30793	6.61	2.19809e-05
3	31350	6.71	1.74176e-05
3	31907	6.81	1.33618e-05
3	32464	6.91	9.79494e-06
3	33030	7.01	6.6932e-06
3	33587	7.11	4.02864e-06
3	34144	7.21	1.77051e-06
3	34701	7.31	-1.13691e-07
3	35258	7.41	-1.65736e-06
3	35815	7.51	-2.89397e-06
3	36372	7.61	-3.85652e-06
3	36929	7.71	-4.57698e-06
3	37486	7.81	-5.08591e-06
3	38043	7.91	-5.41219e-06
3	38609	8.01	-5.58279e-06
3	39166	8.11	-5.6226e-06
3	39723	8.21	-5.55442e-06
3	40280	8.31	-5.39886e-06
3	40837	8.41	-5.17441e-06
3	41394	8.51	-4.89748e-06
3	41951	8.61	-4.58246e-06
3	42508	8.71	-4.24184e-06
3	43065	8.81	-3.88634e-06
3	43622	8.91	-3.52499e-06
3	44188	9.01	-3.16534e-06
3	44745	9.11	-2.81353e-06
3	45302	9.21	-2.47446e-06
3	45859	9.31	-2.15192e-06
3	46416	9.41	-1.84873e-06
3	46973	9.51	-1.56685e-06
3	47530	9.61	-1.30751e-06
3	48087	9.71	-1.0713e-06
3	48644	9.81	-8.58321e-07
3	49201	9.91	-6.68206e-07
3	49852	10.01	-5.0026e-07
3	50416	10.11	-3.53514e-07
3	50980	10.21	-2.2679e-07
3	51544	10.31	-1.18765e-07
3	52108	10.41	-2.80163e-08
3	52672	10.51	4.6931e-08
3	53236	10.61	1.07573e-07
3	53800	10.71	1.55391e-07
3	54364	10.81	1.91831e-07
3	54928	10.91	2.18284e-07
3	55501	11.01	2.3607e-07
3	56065	11.11	2.46427e-07
3	56629	11.21	2.50502e-07
3	57193	11.31	2.49353e-07
3	57757	11.41	2.43938e-07
3	58321	11.51	2.3512e-07
3	58885	11.61	2.23669e-07
3	59449	11.71	2.10264e-07
3	60013	11.81	1.95496e-07
3	60577	11.91	1.79874e-07
3	61150	12.01	1.63833e-07
3	61714	12.11	1.47736e-07
3	62278	12.21	1.3188e-07
3	62842	12.31	1.16508e-07
3	63406	12.41	1.01807e-07
3	63970	12.51	8.79222e-08
3	64534	12.61	7.49541e-08
3	65098	12.71	6.29711e-08
3	65662	12.81	5.20114e-08
3	66226	12.91	4.20883e-08
3	66799	13.01	3.3193e-08
3	67363	13.11	2.53003e-08
3	67927	13.21	1.83718e-08
3	68491	13.31	1.23581e-08
3	69055	13.41	7.20348e-09
3	69619	13.51	2.84537e-09
3	70183	13.61	-7.80886e-10
3	70747	13.71	-3.74136e-09
3	71311	13.81	-6.10285e-09
3	71875	13.91	-7.93072e-09
3	72448	14.01	-9.28821e-09
3	73012	14.11	-1.0235e-08
3	73576	14.21	-1.08283e-08
3	74140	14.31	-1.11211e-08
3	74704	14.41	-1.11612e-08
3	75268	14.51	-1.09946e-08
3	75832	14.61	-1.06599e-08
3	76396	14.71	-1.01945e-08
3	76960	14.81	-9.62999e-09
3	77524	14.91	-8.99405e-09
3	78097	15.01	-8.31086e-09
3	78661	15.11	-7.60103e-09
3	79225	15.21	-6.88338e-09
3	79789	15.31	-6.17071e-09
3	80353	15.41	-5.47544e-09
3	80917	15.51	-4.80682e-09
3	81481	15.61	-4.17266e-09
3	82045	15.71	-3.57687e-09
3	82609	15.81	-3.02443e-09
3	83173	15.91	-2.51674e-09
3	83746	16.01	-2.05489e-09
3	84310	16.11	-1.63958e-09
3	84874	16.21	-1.26903e-09
3	85438	16.31	-9.42535e-10
3	86002	16.41	-6.57963e-10
3	86566	16.51	-4.1247e-10
3	87130	16.61	-2.04636e-10
3	87694	16.71	-2.91323e-11
3	88258	16.81	1.14753e-10
3	88822	16.91	2.30926e-10
3	89395	17.01	3.22231e-10
3	89959	17.11	3.91154e-10
3	90523	17.21	4.40892e-10
3	91087	17.31	4.73577e-10
3	91651	17.41	4.92051e-10
3	92215	17.51	4.98446e-10
3	92779	17.61	4.94893e-10
3	93343	17.71	4.82814e-10
3	93907	17.81	4.6434e-10
3	94471	17.91	4.40892e-10
3	95044	18.01	4.13536e-10
3	95608	18.11	3.83693e-10
3	96172	18.21	3.51719e-10
3	96736	18.31	3.19744e-10
3	97300	18.41	2.8777e-10
3	97864	18.51	2.55795e-10
3	98428	18.61	2.25953e-10
3	98992	18.71	1.97531e-10
3	99556	18.81	1.6982e-10
3	100120	18.91	1.44951e-10
3	100693	19.01	1.21503e-10
3	101257	19.11	1.00187e-10
3	101821	19.21	8.10019e-11
3	102385	19.31	6.32383e-11
3	102949	19.41	4.86722e-11
3	103513	19.51	3.44613e-11
3	104077	19.61	2.34479e-11
3	104641	19.71	1.27898e-11
3	105205	19.81	4.9738e-12
3	105769	19.91	-2.13163e-12
3	106342	20.01	-8.17124e-12
3	106906	20.11	-1.1724e-11
3	107470	20.21	-1.52767e-11
3	108034	20.31	-1.88294e-11
3	108598	20.41	-2.02505e-11
3	109162	20.51	-2.02505e-11
3	109726	20.61	-2.02505e-11
3	110290	20.71	-2.02505e-11
3	110854	20.81	-2.02505e-11
3	111418	20.91	-2.02505e-11
3	111991	21.01	-2.02505e-11
3	112555	21.11	-2.02505e-11
3	113119	21.21	-2.02505e-11
3	113683	21.31	-1.88294e-11
3	114247	21.41	-1.7053e-11
3	114811	21.51	-1.52767e-11
3	115375	21.61	-1.38556e-11
3	115939	21.71	-1.24345e-11
3	116503	21.81	-1.13687e-11
3	117067	21.91	-1.03029e-11
3	117640	22.01	-9.23706e-12
3	118204	22.11	-8.52651e-12
3	118768	22.21	-7.4607e-12
3	119332	22.31	-6.75016e-12
3	119896	22.41	-6.03961e-12
3	120460	22.51	-5.68434e-12
3	121024	22.61	-4.9738e-12
3	121588	22.71	-4.61853e-12
3	122152	22.81	-4.26326e-12
3	122716	22.91	-3.90799e-12
3	123289	23.01	-3.55271e-12
3	123853	23.11	-3.19744e-12
3	124417	23.21	-2.84217e-12
3	124981	23.31	-2.4869e-12
3	125545	23.41	-2.13163e-12
3	126109	23.51	-2.13163e-12
3	126673	23.61	-1.77636e-12
3	127237	23.71	-1.77636e-12
3	127801	23.81	-1.42109e-12
3	128365	23.91	-1.42109e-12
3	128938	24.01	-1.06581e-12
3	129502	24.11	-1.06581e-12
3	130066	24.21	-1.06581e-12
3	130630	24.31	-1.06581e-12
3	131194	24.41	-7.10543e-13
3	131758	24.51	-7.10543e-13
3	132322	24.61	-7.10543e-13
3	132886	24.71	-7.10543e-13
3	133450	24.81	-7.10543e-13
3	134014	24.91	-3.55271e-13
3	134587	25.01	-3.55271e-13
3	135151	25.11	-3.55271e-13
3	135715	25.21	-3.55271e-13
3	136279	25.31	-3.55271e-13
3	136843	25.41	-3.55271e-13
3	137407	25.51	-3.55271e-13
3	137971	25.61	-3.55271e-13
3	138535	25.71	-3.55271e-13
3	139099	25.81	-3.55271e-13
3	139663	25.91	0
3	140236	26.01	0
3	140800	26.11	0
3	141364	26.21	0
3	141928	26.31	0
3	142492	26.41	0
3	143056	26.51	0
3	143620	26.61	0
3	144184	26.71	0
3	144748	26.81	0
3	145312	26.91	0
3	145885	27.01	0
3	146449	27.11	0
3	147013	27.21	0
3	147577	27.31	0
3	148141	27.41	0
3	148705	27.51	0
3	149269	27.61	0
3	149833	27.71	0
3	150397	27.81	0
3	150961	27.91	0
3	151534	28.01	0
3	152098	28.11	0
3	152662	28.21	0
3	153226	28.31	0
3	153790	28.41	0
3	154354	28.51	0
3	154918	28.61	0
3	155482	28.71	0
3	156046	28.81	0
3	156610	28.91	0
3	157183	29.01	0
3	157747	29.11	0
3	158311	29.21	0
3	158875	29.31	0
3	159439	29.41	0
3	160003	29.51	0
3	160567	29.61	0
3	161131	29.71	0
3	161695	29.81	0
3	162259	29.91	0
3	162832	30.01	0
3	163396	30.11	0
3	163960	30.21	0
3	164524	30.31	0
3	165088	30.41	0
3	165652	30.51	0
3	166216	30.61	0
3	166780	30.71	0
3	167344	30.81	0
3	167908	30.91	0
3	168481	31.01	0
3	169045	31.11	0
3	169609	31.21	0
3	170173	31.31	0
3	170737	31.41	0
3	171301	31.51	0
3	171865	31.61	0
3	172429	31.71	0
3	172993	31.81	0
3	173557	31.91	0
3	174130	32.01	0
3	174694	32.11	0
3	175258	32.21	0
3	175822	32.31	0
3	176386	32.41	0
3	176950	32.51	0
3	177514	32.61	0
3	178078	32.71	0
3	178642	32.81	0
3	179206	32.91	0
3	179779	33.01	0
3	180343	33.11	0
3	180907	33.21	0
3	181471	33.31	0
3	182035	33.41	0
3	182599	33.51	0
3	183163	33.61	0
3	183727	33.71	0
3	184291	33.81	0
3	184855	33.91	0
3	185428	34.01	0
3	185992	34.11	0
3	186556	34.21	0
3	187120	34.31	0
3	187684	34.41	0
3	188248	34.51	0
3	188812	34.61	0
3	189376	34.71	0
3	189940	34.81	0
3	190504	34.91	0
3	191077	35.01	0
3	191641	35.11	0
3	192205	35.21	0
3	192769	35.31	0
3	193333	35.41	0
3	193897	35.51	0
3	194461	35.61	0
3	195025	35.71	0
3	195589	35.81	0
3	196153	35.91	0
3	196726	36.01	0
3	197290	36.11	0
3	197854	36.21	0
3	198418	36.31	0
3	199075	36.41	0
3	199638	36.51	0
3	200201	36.61	0
3	200764	36.71	0
3	201327	36.81	0
3	201890	36.91	0
3	202462	37.01	0
3	203025	37.11	0
3	203588	37.21	0
3	204151	37.31	0
3	204714	37.41	0
3	205277	37.51	0
3	205840	37.61	0
3	206403	37.71	0
3	206966	37.81	0
3	207529	37.91	0
3	208101	38.01	0
3	208664	38.11	0
3	209227	38.21	0
3	209790	38.31	0
3	210353	38.41	0
3	210916	38.51	0
3	211479	38.61	0
3	212042	38.71	0
3	212605	38.81	0
3	213168	38.91	0
3	213740	39.01	0
3	214303	39.11	0
3	214866	39.21	0
3	215429	39.31	0
3	215992	39.41	0
3	216555	39.51	0
3	217118	39.61	0
3	217681	39.71	0
3	218244	39.81	0
3	218807	39.91	0
3	219379	40.01	0
3	219942	40.11	0
3	220505	40.21	0
3	221068	40.31	0
3	221631	40.41	0
3	222194	40.51	0
3	222757	40.61	0
3	223320	40.71	0
3	223883	40.81	0
3	224446	40.91	0
3	225018	41.01	0
3	225581	41.11	0
3	226144	41.21	0
3	226707	41.31	0
3	227270	41.41	0
3	227926	41.51	0
3	228488	41.61	0
3	229050	41.71	0
3	229612	41.81	0
3	230174	41.91	0
3	230745	42.01	0
3	231307	42.11	0
3	231869	42.21	0
3	232431	42.31	0
3	232993	42.41	0
3	233555	42.51	0
3	234117	42.61	0
3	234679	42.71	0
3	235241	42.81	0
3	235803	42.91	0
3	236374	43.01	0
3	236936	43.11	0
3	237498	43.21	0
3	238060	43.31	0
3	238622	43.41	0
3	239184	43.51	0
3	239746	43.61	0
3	240308	43.71	0
3	240870	43.81	0
3	241432	43.91	0
3	242003	44.01	0
3	242565	44.11	0
3	243127	44.21	0
3	243689	44.31	0
3	244251	44.41	0
3	244813	44.51	0
3	245375	44.61	0
3	245937	44.71	0
3	246499	44.81	0
3	247061	44.91	0
3	247632	45.01	0
3	248194	45.11	0
3	248756	45.21	0
3	249318	45.31	0
3	249880	45.41	0
3	250442	45.51	0
3	251004	45.61	0
3	251566	45.71	0
3	252128	45.81	0
3	252690	45.91	0
3	253261	46.01	0
3	253823	46.11	0
3	254478	46.21	0
3	255039	46.31	0
3	255600	46.41	0
3	256161	46.51	0
3	256722	46.61	0
3	257283	46.71	0
3	257844	46.81	0
3	258405	46.91	0
3	258975	47.01	0
3	259536	47.11	0
3	260097	47.21	0
3	260658	47.31	0
3	261219	47.41	0
3	261780	47.51	0
3	262341	47.61	0
3	262902	47.71	0
3	263463	47.81	0
3	264024	47.91	0
3	264594	48.01	0
3	265155	48.11	0
3	265716	48.21	0
3	266277	48.31	0
3	266838	48.41	0
3	267399	48.51	0
3	267960	48.61	0
3	268521	48.71	0
3	269082	48.81	0
3	269643	48.91	0
3	270213	49.01	0
3	270774	49.11	0
3	271335	49.21	0
3	271896	49.31	0
3	272457	49.41	0
3	273018	49.51	0
3	273579	49.61	0
3	274140	49.71	0
3	274701	49.81	0
3	275262	49.91	0
3	275832	50.01	0
3	276393	50.11	0
3	276954	50.21	0
3	277515	50.31	0
3	278076	50.41	0
3	278637	50.51	0
3	279291	50.61	0
3	279851	50.71	0
3	280411	50.81	0
3	280971	50.91	0
3	281540	51.01	0
3	282100	51.11	0
3	282660	51.21	0
3	283220	51.31	0
3	283780	51.41	0
3	284340	51.51	0
3	284900	51.61	0
3	285460	51.71	0
3	286020	51.81	0
3	286580	51.91	0
3	287149	52.01	0
3	287709	52.11	0
3	288269	52.21	0
3	288829	52.31	0
3	289389	52.41	0
3	289949	52.51	0
3	290509	52.61	0
3	291069	52.71	0
3	291629	52.81	0
3	292189	52.91	0
3	292758	53.01	0
3	293318	53.11	0
3	293878	53.21	0
3	294438	53.31	0
3	294998	53.41	0
3	295558	53.51	0
3	296118	53.61	0
3	296678	53.71	0
3	297238	53.81	0
3	297798	53.91	0
3	298367	54.01	0
3	298927	54.11	0
3	299487	54.21	0
3	300047	54.31	0
3	300607	54.41	0
3	301167	54.51	0
3	301727	54.61	0
3	302287	54.71	0
3	302847	54.81	0
3	303500	54.91	0
3	304068	55.01	0
3	304627	55.11	0
3	305186	55.21	0
3	305745	55.31	0
3	306304	55.41	0
3	306863	55.51	0
3	307422	55.61	0
3	307981	55.71	0
3	308540	55.81	0
3	309099	55.91	0
3	309667	56.01	0
3	310226	56.11	0
3	310785	56.21	0
3	311344	56.31	0
3	311903	56.41	0
3	312462	56.51	0
3	313021	56.61	0
3	313580	56.71	0
3	314139	56.81	0
3	314698	56.91	0
3	315266	57.01	0
3	315825	57.11	0
3	316384	57.21	0
3	316943	57.31	0
3	317502	57.41	0
3	318061	57.51	0
3	318620	57.61	0
3	319179	57.71	0
3	319738	57.81	0
3	320297	57.91	0
3	320865	58.01	0
3	321424	58.11	0
3	321983	58.21	0
3	322542	58.31	0
3	323101	58.41	0
3	323660	58.51	0
3	324219	58.61	0
3	324778	58.71	0
3	325337	58.81	0
3	325896	58.91	0
3	326557	59.01	0
3	327115	59.11	0
3	327673	59.21	0
3	328231	59.31	0
3	328789	59.41	0
3	329347	59.51	0
3	329905	59.61	0
3	330463	59.71	0
3	331021	59.81	0
3	331579	59.91	0
3	332146	60.01	0
3	332704	60.11	0
3	333262	60.21	0
3	333820	60.31	0
3	334378	60.41	0
3	334936	60.51	0
3	335494	60.61	0
3	336052	60.71	0
3	336610	60.81	0
3	337168	60.91	0
3	337735	61.01	0
3	338293	61.11	0
3	338851	61.21	0
3	339409	61.31	0
3	339967	61.41	0
3	340525	61.51	0
3	341083	61.61	0
3	341641	61.71	0
3	342199	61.81	0
3	342757	61.91	0
3	343324	62.01	0
3	343882	62.11	0
3	344440	62.21	0
3	344998	62.31	0
3	345556	62.41	0
3	346114	62.51	0
3	346672	62.61	0
3	347230	62.71	0
3	347788	62.81	0
3	348346	62.91	0
3	349657	63.01	0
3	350214	63.11	0
3	350771	63.21	0
3	351328	63.31	0
3	351885	63.41	0
3	352442	63.51	0
3	352999	63.61	0
3	353556	63.71	0
3	354113	63.81	0
3	354670	63.91	0
3	355236	64.01	0
3	355793	64.11	0
3	356350	64.21	0
3	356907	64.31	0
3	357464	64.41	0
3	358021	64.51	0
3	358578	64.61	0
3	359135	64.71	0
3	359692	64.81	0
3	360249	64.91	0
3	360815	65.01	0
3	361372	65.11	0
3	361929	65.21	0
3	362486	65.31	0
3	363043	65.41	0
3	363600	65.51	0
3	364157	65.61	0
3	364714	65.71	0
3	365271	65.81	0
3	365828	65.91	0
3	366394	66.01	0
3	366951	66.11	0
3	367508	66.21	0
3	368065	66.31	0
3	368622	66.41	0
3	369179	66.51	0
3	369736	66.61	0
3	370293	66.71	0
3	370850	66.81	0
3	371407	66.91	0
3	371973	67.01	0
3	372530	67.11	0
3	373087	67.21	0
3	373644	67.31	0
3	374201	67.41	0
3	374758	67.51	0
3	375315	67.61	0
3	375872	67.71	0
3	376429	67.81	0
3	376986	67.91	0
3	377552	68.01	0
3	378109	68.11	0
3	378666	68.21	0
3	379223	68.31	0
3	379780	68.41	0
3	380337	68.51	0
3	380894	68.61	0
3	381451	68.71	0
3	382008	68.81	0
3	382565	68.91	0
3	383131	69.01	0
3	383688	69.11	0
3	384245	69.21	0
3	384802	69.31	0
3	385359	69.41	0
3	385916	69.51	0
3	386473	69.61	0
3	387030	69.71	0
3	387587	69.81	0
3	388144	69.91	0
3	388710	70.01	0
3	389267	70.11	0
3	389824	70.21	0
3	390381	70.31	0
3	390938	70.41	0
3	391495	70.51	0
3	392052	70.61	0
3	392609	70.71	0
3	393166	70.81	0
3	393723	70.91	0
3	394289	71.01	0
3	394846	71.11	0
3	395403	71.21	0
3	395960	71.31	0
3	396517	71.41	0
3	397074	71.51	0
3	397631	71.61	0
3	398188	71.71	0
3	398745	71.81	0
3	399302	71.91	0
3	399868	72.01	0
3	400425	72.11	0
3	400982	72.21	0
3	401539	72.31	0
3	402096	72.41	0
3	402653	72.51	0
3	403210	72.61	0
3	403767	72.71	0
3	404324	72.81	0
3	404881	72.91	0
3	405447	73.01	0
3	406004	73.11	0
3	406561	73.21	0
3	407118	73.31	0
3	407675	73.41	0
3	408232	73.51	0
3	408789	73.61	0
3	409346	73.71	0
3	409903	73.81	0
3	410460	73.91	0
3	411026	74.01	0
3	411583	74.11	0
3	412140	74.21	0
3	412697	74.31	0
3	413254	74.41	0
3	413811	74.51	0
3	414368	74.61	0
3	414925	74.71	0
3	415482	74.81	0
3	416039	74.91	0
3	416605	75.01	0
3	417162	75.11	0
3	417719	75.21	0
3	418276	75.31	0
3	418833	75.41	0
3	419390	75.51	0
3	419947	75.61	0
3	420504	75.71	0
3	421061	75.81	0
3	421618	75.91	0
3	422184	76.01	0
3	422741	76.11	0
3	423298	76.21	0
3	423855	76.31	0
3	424412	76.41	0
3	424969	76.51	0
3	425526	76.61	0
3	426083	76.71	0
3	426640	76.81	0
3	427197	76.91	0
3	427763	77.01	0
3	428320	77.11	0
3	428877	77.21	0
3	429434	77.31	0
3	429991	77.41	0
3	430548	77.51	0
3	431105	77.61	0
3	431662	77.71	0
3	432219	77.81	0
3	432776	77.91	0
3	433342	78.01	0
3	433899	78.11	0
3	434456	78.21	0
3	435013	78.31	0
3	435570	78.41	0
3	436127	78.51	0
3	436684	78.61	0
3	437241	78.71	0
3	437798	78.81	0
3	438355	78.91	0
3	438921	79.01	0
3	439478	79.11	0
3	440035	79.21	0
3	440592	79.31	0
3	441149	79.41	0
3	441706	79.51	0
3	442263	79.61	0
3	442820	79.71	0
3	443377	79.81	0
3	443934	79.91	0
3	444500	80.01	0
3	445057	80.11	0
3	445614	80.21	0
3	446171	80.31	0
3	446728	80.41	0
3	447285	80.51	0
3	447842	80.61	0
3	448399	80.71	0
3	448956	80.81	0
3	449513	80.91	0
3	450079	81.01	0
3	450636	81.11	0
3	451193	81.21	0
3	451750	81.31	0
3	452307	81.41	0
3	452864	81.51	0
3	453421	81.61	0
3	453978	81.71	0
3	454535	81.81	0
3	455092	81.91	0
3	455658	82.01	0
3	456215	82.11	0
3	456772	82.21	0
3	457329	82.31	0
3	457886	82.41	0
3	458443	82.51	0
3	459000	82.61	0
3	459557	82.71	0
3	460114	82.81	0
3	460671	82.91	0
3	461237	83.01	0
3	461794	83.11	0
3	462351	83.21	0
3	462908	83.31	0
3	463465	83.41	0
3	464022	83.51	0
3	464579	83.61	0
3	465136	83.71	0
3	465693	83.81	0
3	466250	83.91	0
3	466816	84.01	0
3	467373	84.11	0
3	467930	84.21	0
3	468487	84.31	0
3	469044	84.41	0
3	469601	84.51	0
3	470158	84.61	0
3	470715	84.71	0
3	471272	84.81	0
3	471829	84.91	0
3	472395	85.01	0
3	472952	85.11	0
3	473509	85.21	0
3	474066	85.31	0
3	474623	85.41	0
3	475180	85.51	0
3	475737	85.61	0
3	476294	85.71	0
3	476851	85.81	0
3	477408	85.91	0
3	477974	86.01	0
3	478531	86.11	0
3	479088	86.21	0
3	479645	86.31	0
3	480202	86.41	0
3	480759	86.51	0
3	481316	86.61	0
3	481873	86.71	0
3	482430	86.81	0
3	482987	86.91	0
3	483553	87.01	0
3	484110	87.11	0
3	484667	87.21	0
3	485224	87.31	0
3	485781	87.41	0
3	486338	87.51	0
3	486895	87.61	0
3	487452	87.71	0
3	488009	87.81	0
3	488566	87.91	0
3	489132	88.01	0
3	489689	88.11	0
3	490246	88.21	0
3	490803	88.31	0
3	491360	88.41	0
3	491917	88.51	0
3	492474	88.61	0
3	493031	88.71	0
3	493588	88.81	0
3	494145	88.91	0
3	494711	89.01	0
3	495268	89.11	0
3	495825	89.21	0
3	496382	89.31	0
3	496939	89.41	0
3	497496	89.51	0
3	498053	89.61	0
3	498610	89.71	0
3	499167	89.81	0
3	499724	89.91	0
3	500290	90.01	0
3	500847	90.11	0
3	501404	90.21	0
3	501961	90.31	0
3	502518	90.41	0
3	503075	90.51	0
3	503632	90.61	0
3	504189	90.71	0
3	504746	90.81	0
3	505303	90.91	0
3	505869	91.01	0
3	506426	91.11	0
3	506983	91.21	0
3	507540	91.31	0
3	508097	91.41	0
3	508654	91.51	0
[...]
115	416534	75	5
115	422113	76	5
115	427692	77	5
115	433271	78	5
115	438850	79	5
115	444429	80	5
115	450008	81	5
115	455587	82	5
115	461166	83	5
115	466745	84	5
115	472324	85	5
115	477903	86	5
115	483482	87	5
115	489061	88	5
115	494640	89	5
115	500219	90	5
115	505798	91	5
115	511377	92	5
115	516956	93	5
115	522535	94	5
115	528114	95	5
115	533693	96	5
115	539272	97	5
115	544851	98	5
115	550430	99	5
115	556009	100	5
116	5064	2	0.022161
116	10643	3	0.02497
116	16222	4	0.02497
116	21801	5	0.02497
116	27380	6	0.02497
116	32959	7	0.02497
116	38538	8	0.02497
116	44117	9	0.02497
116	49698	10	0.02497
116	55423	11	0.025018
116	61072	12	0.02497
116	66721	13	0.02497
116	72370	14	0.02497
116	78019	15	0.02497
116	83668	16	0.02497
116	89317	17	0.02497
116	94966	18	0.02497
116	100615	19	0.02497
116	106264	20	0.02497
116	111913	21	0.02497
116	117562	22	0.02497
116	123211	23	0.02497
116	128860	24	0.02497
116	134509	25	0.02497
116	140158	26	0.02497
116	145807	27	0.02497
116	151456	28	0.02497
116	157105	29	0.02497
116	162754	30	0.02497
116	168403	31	0.02497
116	174052	32	0.02497
116	179701	33	0.02497
116	185350	34	0.02497
116	190999	35	0.02497
116	196648	36	0.02497
116	202385	37	0.025082
116	208024	38	0.02497
116	213663	39	0.02497
116	219302	40	0.02497
116	224941	41	0.02497
116	230669	42	0.025082
116	236298	43	0.02497
116	241927	44	0.02497
116	247556	45	0.02497
116	253185	46	0.02497
116	258900	47	0.025082
116	264519	48	0.02497
116	270138	49	0.02497
116	275757	50	0.02497
116	281466	51	0.025082
116	287075	52	0.02497
116	292684	53	0.02497
116	298293	54	0.02497
116	303995	55	0.025115298802
116	309594	56	0.02497
116	315193	57	0.02497
116	320792	58	0.02497
116	326391	59	0.02497
116	332074	60	0.025082
116	337663	61	0.02497
116	343252	62	0.02497
116	348841	63	0.02497
116	355165	64	0.025898
116	360744	65	0.02497
116	366323	66	0.02497
116	371902	67	0.02497
116	377481	68	0.02497
116	383060	69	0.02497
116	388639	70	0.02497
116	394218	71	0.02497
116	399797	72	0.02497
116	405376	73	0.02497
116	410955	74	0.02497
116	416534	75	0.02497
116	422113	76	0.02497
116	427692	77	0.02497
116	433271	78	0.02497
116	438850	79	0.02497
116	444429	80	0.02497
116	450008	81	0.02497
116	455587	82	0.02497
116	461166	83	0.02497
116	466745	84	0.02497
116	472324	85	0.02497
116	477903	86	0.02497
116	483482	87	0.02497
116	489061	88	0.02497
116	494640	89	0.02497
116	500219	90	0.02497
116	505798	91	0.02497
116	511377	92	0.02497
116	516956	93	0.02497
116	522535	94	0.02497
116	528114	95	0.02497
116	533693	96	0.02497
116	539272	97	0.02497
116	544851	98	0.02497
116	550430	99	0.02497
116	556009	100	0.02497
117	5064	2	0
117	10643	3	0
117	16222	4	0
117	21801	5	0
117	27380	6	0
117	32959	7	0
117	38538	8	0
117	44117	9	0
117	49698	10	0
117	55423	11	0
117	61072	12	0
117	66721	13	0
117	72370	14	0
117	78019	15	0
117	83668	16	0
117	89317	17	0
117	94966	18	0
117	100615	19	0
117	106264	20	0
117	111913	21	0
117	117562	22	0
117	123211	23	0
117	128860	24	0
117	134509	25	0
117	140158	26	0
117	145807	27	0
117	151456	28	0
117	157105	29	0
117	162754	30	0
117	168403	31	0
117	174052	32	0
117	179701	33	0
117	185350	34	0
117	190999	35	0
117	196648	36	0
117	202385	37	0
117	208024	38	0
117	213663	39	0
117	219302	40	0
117	224941	41	0
117	230669	42	0
117	236298	43	0
117	241927	44	0
117	247556	45	0
117	253185	46	0
117	258900	47	0
117	264519	48	0
117	270138	49	0
117	275757	50	0
117	281466	51	0
117	287075	52	0
117	292684	53	0
117	298293	54	0
117	303995	55	0
117	309594	56	0
117	315193	57	0
117	320792	58	0
117	326391	59	0
117	332074	60	0
117	337663	61	0
117	343252	62	0
117	348841	63	0
117	355165	64	0
117	360744	65	0
117	366323	66	0
117	371902	67	0
117	377481	68	0
117	383060	69	0
117	388639	70	0
117	394218	71	0
117	399797	72	0
117	405376	73	0
117	410955	74	0
117	416534	75	0
117	422113	76	0
117	427692	77	0
117	433271	78	0
117	438850	79	0
117	444429	80	0
117	450008	81	0
117	455587	82	0
117	461166	83	0
117	466745	84	0
117	472324	85	0
117	477903	86	0
117	483482	87	0
117	489061	88	0
117	494640	89	0
117	500219	90	0
117	505798	91	0
117	511377	92	0
117	516956	93	0
117	522535	94	0
117	528114	95	0
117	533693	96	0
117	539272	97	0
117	544851	98	0
117	550430	99	0
117	556009	100	0
118	5065	2	6
118	10644	3	6
118	16223	4	6
118	21802	5	6
118	27381	6	6
118	32960	7	6
118	38539	8	6
118	44118	9	6
118	49699	10	6
118	55424	11	6
118	61073	12	6
118	66722	13	6
118	72371	14	6
118	78020	15	6
118	83669	16	6
118	89318	17	6
118	94967	18	6
118	100616	19	6
118	106265	20	6
118	111914	21	6
118	117563	22	6
118	123212	23	6
118	128861	24	6
118	134510	25	6
118	140159	26	6
118	145808	27	6
118	151457	28	6
118	157106	29	6
118	162755	30	6
118	168404	31	6
118	174053	32	6
118	179702	33	6
118	185351	34	6
118	191000	35	6
118	196649	36	6
118	202386	37	6
118	208025	38	6
118	213664	39	6
118	219303	40	6
118	224942	41	6
118	230670	42	6
118	236299	43	6
118	241928	44	6
118	247557	45	6
118	253186	46	6
118	258901	47	6
118	264520	48	6
118	270139	49	6
118	275758	50	6
118	281467	51	6
118	287076	52	6
118	292685	53	6
118	298294	54	6
118	303996	55	6
118	309595	56	6
118	315194	57	6
118	320793	58	6
118	326392	59	6
118	332075	60	6
118	337664	61	6
118	343253	62	6
118	348842	63	6
118	355166	64	6
118	360745	65	6
118	366324	66	6
118	371903	67	6
118	377482	68	6
118	383061	69	6
118	388640	70	6
118	394219	71	6
118	399798	72	6
118	405377	73	6
118	410956	74	6
118	416535	75	6
118	422114	76	6
118	427693	77	6
118	433272	78	6
118	438851	79	6
118	444430	80	6
118	450009	81	6
118	455588	82	6
118	461167	83	6
118	466746	84	6
118	472325	85	6
118	477904	86	6
118	483483	87	6
118	489062	88	6
118	494641	89	6
118	500220	90	6
118	505799	91	6
118	511378	92	6
118	516957	93	6
118	522536	94	6
118	528115	95	6
118	533694	96	6
118	539273	97	6
118	544852	98	6
118	550431	99	6
118	556010	100	6
119	5065	2	0.02216
119	10644	3	0.02497
119	16223	4	0.02497
119	21802	5	0.02497
119	27381	6	0.02497
119	32960	7	0.02497
119	38539	8	0.02497
119	44118	9	0.02497
119	49699	10	0.02497
119	55424	11	0.025018
119	61073	12	0.02497
119	66722	13	0.02497
119	72371	14	0.02497
119	78020	15	0.02497
119	83669	16	0.02497
119	89318	17	0.02497
119	94967	18	0.02497
119	100616	19	0.02497
119	106265	20	0.02497
119	111914	21	0.02497
119	117563	22	0.02497
119	123212	23	0.02497
119	128861	24	0.02497
119	134510	25	0.02497
119	140159	26	0.02497
119	145808	27	0.02497
119	151457	28	0.02497
119	157106	29	0.02497
119	162755	30	0.02497
119	168404	31	0.02497
119	174053	32	0.02497
119	179702	33	0.02497
119	185351	34	0.02497
119	191000	35	0.02497
119	196649	36	0.02497
119	202386	37	0.025082
119	208025	38	0.02497
119	213664	39	0.02497
119	219303	40	0.02497
119	224942	41	0.02497
119	230670	42	0.025082
119	236299	43	0.02497
119	241928	44	0.02497
119	247557	45	0.02497
119	253186	46	0.02497
119	258901	47	0.025082
119	264520	48	0.02497
119	270139	49	0.02497
119	275758	50	0.02497
119	281467	51	0.025082
119	287076	52	0.02497
119	292685	53	0.02497
119	298294	54	0.02497
119	303996	55	0.025082
119	309595	56	0.02497
119	315194	57	0.02497
119	320793	58	0.02497
119	326392	59	0.02497
119	332075	60	0.02511535874
119	337664	61	0.02497
119	343253	62	0.02497
119	348842	63	0.02497
119	355166	64	0.025898
119	360745	65	0.02497
119	366324	66	0.02497
119	371903	67	0.02497
119	377482	68	0.02497
119	383061	69	0.02497
119	388640	70	0.02497
119	394219	71	0.02497
119	399798	72	0.02497
119	405377	73	0.02497
119	410956	74	0.02497
119	416535	75	0.02497
119	422114	76	0.02497
119	427693	77	0.02497
119	433272	78	0.02497
119	438851	79	0.02497
119	444430	80	0.02497
119	450009	81	0.02497
119	455588	82	0.02497
119	461167	83	0.02497
119	466746	84	0.02497
119	472325	85	0.02497
119	477904	86	0.02497
119	483483	87	0.02497
119	489062	88	0.02497
119	494641	89	0.02497
119	500220	90	0.02497
119	505799	91	0.02497
119	511378	92	0.02497
119	516957	93	0.02497
119	522536	94	0.02497
119	528115	95	0.02497
119	533694	96	0.02497
119	539273	97	0.02497
119	544852	98	0.02497
119	550431	99	0.02497
119	556010	100	0.02497
120	5065	2	0
120	10644	3	0
120	16223	4	0
120	21802	5	0
120	27381	6	0
120	32960	7	0
120	38539	8	0
120	44118	9	0
120	49699	10	0
120	55424	11	0
120	61073	12	0
120	66722	13	0
120	72371	14	0
120	78020	15	0
120	83669	16	0
120	89318	17	0
120	94967	18	0
120	100616	19	0
120	106265	20	0
120	111914	21	0
120	117563	22	0
120	123212	23	0
120	128861	24	0
120	134510	25	0
120	140159	26	0
120	145808	27	0
120	151457	28	0
120	157106	29	0
120	162755	30	0
120	168404	31	0
120	174053	32	0
120	179702	33	0
120	185351	34	0
120	191000	35	0
120	196649	36	0
120	202386	37	0
120	208025	38	0
120	213664	39	0
120	219303	40	0
120	224942	41	0
120	230670	42	0
120	236299	43	0
120	241928	44	0
120	247557	45	0
120	253186	46	0
120	258901	47	0
120	264520	48	0
120	270139	49	0
120	275758	50	0
120	281467	51	0
120	287076	52	0
120	292685	53	0
120	298294	54	0
120	303996	55	0
120	309595	56	0
120	315194	57	0
120	320793	58	0
120	326392	59	0
120	332075	60	0
120	337664	61	0
120	343253	62	0
120	348842	63	0
120	355166	64	0
120	360745	65	0
120	366324	66	0
120	371903	67	0
120	377482	68	0
120	383061	69	0
120	388640	70	0
120	394219	71	0
120	399798	72	0
120	405377	73	0
120	410956	74	0
120	416535	75	0
120	422114	76	0
120	427693	77	0
120	433272	78	0
120	438851	79	0
120	444430	80	0
120	450009	81	0
120	455588	82	0
120	461167	83	0
120	466746	84	0
120	472325	85	0
120	477904	86	0
120	483483	87	0
120	489062	88	0
120	494641	89	0
120	500220	90	0
120	505799	91	0
120	511378	92	0
120	516957	93	0
120	522536	94	0
120	528115	95	0
120	533694	96	0
120	539273	97	0
120	544852	98	0
120	550431	99	0
120	556010	100	0
121	5066	2	7
121	10645	3	7
121	16224	4	7
121	21803	5	7
121	27382	6	7
121	32961	7	7
121	38540	8	7
121	44119	9	7
121	49700	10	7
121	55425	11	7
121	61074	12	7
121	66723	13	7
121	72372	14	7
121	78021	15	7
121	83670	16	7
121	89319	17	7
121	94968	18	7
121	100617	19	7
121	106266	20	7
121	111915	21	7
121	117564	22	7
121	123213	23	7
121	128862	24	7
121	134511	25	7
121	140160	26	7
121	145809	27	7
121	151458	28	7
121	157107	29	7
121	162756	30	7
121	168405	31	7
121	174054	32	7
121	179703	33	7
121	185352	34	7
121	191001	35	7
121	196650	36	7
121	202387	37	7
121	208026	38	7
121	213665	39	7
121	219304	40	7
121	224943	41	7
121	230671	42	7
121	236300	43	7
121	241929	44	7
121	247558	45	7
121	253187	46	7
121	258902	47	7
121	264521	48	7
121	270140	49	7
121	275759	50	7
121	281468	51	7
121	287077	52	7
121	292686	53	7
121	298295	54	7
121	303997	55	7
121	309596	56	7
121	315195	57	7
121	320794	58	7
121	326393	59	7
121	332076	60	7
121	337665	61	7
121	343254	62	7
121	348843	63	7
121	355167	64	7
121	360746	65	7
121	366325	66	7
121	371904	67	7
121	377483	68	7
121	383062	69	7
121	388641	70	7
121	394220	71	7
121	399799	72	7
121	405378	73	7
121	410957	74	7
121	416536	75	7
121	422115	76	7
121	427694	77	7
121	433273	78	7
121	438852	79	7
121	444431	80	7
121	450010	81	7
121	455589	82	7
121	461168	83	7
121	466747	84	7
121	472326	85	7
121	477905	86	7
121	483484	87	7
121	489063	88	7
121	494642	89	7
121	500221	90	7
121	505800	91	7
121	511379	92	7
121	516958	93	7
121	522537	94	7
121	528116	95	7
121	533695	96	7
121	539274	97	7
121	544853	98	7
121	550432	99	7
121	556011	100	7
122	5066	2	0.022161
122	10645	3	0.02497
122	16224	4	0.02497
122	21803	5	0.02497
122	27382	6	0.02497
122	32961	7	0.02497
122	38540	8	0.02497
122	44119	9	0.02497
122	49700	10	0.02497
122	55425	11	0.025018
122	61074	12	0.02497
122	66723	13	0.02497
122	72372	14	0.02497
122	78021	15	0.02497
122	83670	16	0.02497
122	89319	17	0.02497
122	94968	18	0.02497
122	100617	19	0.02497
122	106266	20	0.02497
122	111915	21	0.02497
122	117564	22	0.02497
122	123213	23	0.02497
122	128862	24	0.02497
122	134511	25	0.02497
122	140160	26	0.02497
122	145809	27	0.02497
122	151458	28	0.02497
122	157107	29	0.02497
122	162756	30	0.02497
122	168405	31	0.02497
122	174054	32	0.02497
122	179703	33	0.02497
122	185352	34	0.02497
122	191001	35	0.02497
122	196650	36	0.02497
122	202387	37	0.025082
122	208026	38	0.02497
122	213665	39	0.02497
122	219304	40	0.02497
122	224943	41	0.02497
122	230671	42	0.025082
122	236300	43	0.02497
122	241929	44	0.02497
122	247558	45	0.02497
122	253187	46	0.02497
122	258902	47	0.025082
122	264521	48	0.02497
122	270140	49	0.02497
122	275759	50	0.02497
122	281468	51	0.025082
122	287077	52	0.02497
122	292686	53	0.02497
122	298295	54	0.02497
122	303997	55	0.025082
122	309596	56	0.02497
122	315195	57	0.02497
122	320794	58	0.02497
122	326393	59	0.02497
122	332076	60	0.025082
122	337665	61	0.02497
122	343254	62	0.02497
122	348843	63	0.02497
122	355167	64	0.025931418692
122	360746	65	0.02497
122	366325	66	0.02497
122	371904	67	0.02497
122	377483	68	0.02497
122	383062	69	0.02497
122	388641	70	0.02497
122	394220	71	0.02497
122	399799	72	0.02497
122	405378	73	0.02497
122	410957	74	0.02497
122	416536	75	0.02497
122	422115	76	0.02497
122	427694	77	0.02497
122	433273	78	0.02497
122	438852	79	0.02497
122	444431	80	0.02497
122	450010	81	0.02497
122	455589	82	0.02497
122	461168	83	0.02497
122	466747	84	0.02497
122	472326	85	0.02497
122	477905	86	0.02497
122	483484	87	0.02497
122	489063	88	0.02497
122	494642	89	0.02497
122	500221	90	0.02497
122	505800	91	0.02497
122	511379	92	0.02497
122	516958	93	0.02497
122	522537	94	0.02497
122	528116	95	0.02497
122	533695	96	0.02497
122	539274	97	0.02497
122	544853	98	0.02497
122	550432	99	0.02497
122	556011	100	0.02497
123	5066	2	0
123	10645	3	0
123	16224	4	0
123	21803	5	0
123	27382	6	0
123	32961	7	0
123	38540	8	0
123	44119	9	0
123	49700	10	0
123	55425	11	0
123	61074	12	0
123	66723	13	0
123	72372	14	0
123	78021	15	0
123	83670	16	0
123	89319	17	0
123	94968	18	0
123	100617	19	0
123	106266	20	0
123	111915	21	0
123	117564	22	0
123	123213	23	0
123	128862	24	0
123	134511	25	0
123	140160	26	0
123	145809	27	0
123	151458	28	0
123	157107	29	0
123	162756	30	0
123	168405	31	0
123	174054	32	0
123	179703	33	0
123	185352	34	0
123	191001	35	0
123	196650	36	0
123	202387	37	0
123	208026	38	0
123	213665	39	0
123	219304	40	0
123	224943	41	0
123	230671	42	0
123	236300	43	0
123	241929	44	0
123	247558	45	0
123	253187	46	0
123	258902	47	0
123	264521	48	0
123	270140	49	0
123	275759	50	0
123	281468	51	0
123	287077	52	0
123	292686	53	0
123	298295	54	0
123	303997	55	0
123	309596	56	0
123	315195	57	0
123	320794	58	0
123	326393	59	0
123	332076	60	0
123	337665	61	0
123	343254	62	0
123	348843	63	0
123	355167	64	0
123	360746	65	0
123	366325	66	0
123	371904	67	0
123	377483	68	0
123	383062	69	0
123	388641	70	0
123	394220	71	0
123	399799	72	0
123	405378	73	0
123	410957	74	0
123	416536	75	0
123	422115	76	0
123	427694	77	0
123	433273	78	0
123	438852	79	0
123	444431	80	0
123	450010	81	0
123	455589	82	0
123	461168	83	0
123	466747	84	0
123	472326	85	0
123	477905	86	0
123	483484	87	0
123	489063	88	0
123	494642	89	0
123	500221	90	0
123	505800	91	0
123	511379	92	0
123	516958	93	0
123	522537	94	0
123	528116	95	0
123	533695	96	0
123	539274	97	0
123	544853	98	0
123	550432	99	0
123	556011	100	0
124	5067	2	8
124	10646	3	8
124	16225	4	8
124	21804	5	8
124	27383	6	8
124	32962	7	8
124	38541	8	8
124	44120	9	8
124	49701	10	8
124	55426	11	8
124	61075	12	8
124	66724	13	8
124	72373	14	8
124	78022	15	8
124	83671	16	8
124	89320	17	8
124	94969	18	8
124	100618	19	8
124	106267	20	8
124	111916	21	8
124	117565	22	8
124	123214	23	8
124	128863	24	8
124	134512	25	8
124	140161	26	8
124	145810	27	8
124	151459	28	8
124	157108	29	8
124	162757	30	8
124	168406	31	8
124	174055	32	8
124	179704	33	8
124	185353	34	8
124	191002	35	8
124	196651	36	8
124	202388	37	8
124	208027	38	8
124	213666	39	8
124	219305	40	8
124	224944	41	8
124	230672	42	8
124	236301	43	8
124	241930	44	8
124	247559	45	8
124	253188	46	8
124	258903	47	8
124	264522	48	8
124	270141	49	8
124	275760	50	8
124	281469	51	8
124	287078	52	8
124	292687	53	8
124	298296	54	8
124	303998	55	8
124	309597	56	8
124	315196	57	8
124	320795	58	8
124	326394	59	8
124	332077	60	8
124	337666	61	8
124	343255	62	8
124	348844	63	8
124	355168	64	8
124	360747	65	8
124	366326	66	8
124	371905	67	8
124	377484	68	8
124	383063	69	8
124	388642	70	8
124	394221	71	8
124	399800	72	8
124	405379	73	8
124	410958	74	8
124	416537	75	8
124	422116	76	8
124	427695	77	8
124	433274	78	8
124	438853	79	8
124	444432	80	8
124	450011	81	8
124	455590	82	8
124	461169	83	8
124	466748	84	8
124	472327	85	8
124	477906	86	8
124	483485	87	8
124	489064	88	8
124	494643	89	8
124	500222	90	8
124	505801	91	8
124	511380	92	8
124	516959	93	8
124	522538	94	8
124	528117	95	8
124	533696	96	8
124	539275	97	8
124	544854	98	8
124	550433	99	8
124	556012	100	8
125	5067	2	0.002817
125	10646	3	0.00313
125	16225	4	0.00313
125	21804	5	0.00313
125	27383	6	0.00313
125	32962	7	0.00313
125	38541	8	0.00313
125	44120	9	0.00313
125	49701	10	0.00313
125	55426	11	0.003179
125	61075	12	0.00313
125	66724	13	0.00313
125	72373	14	0.00313
125	78022	15	0.00313
125	83671	16	0.00313
125	89320	17	0.00313
125	94969	18	0.00313
125	100618	19	0.00313
125	106267	20	0.00313
125	111916	21	0.00313
125	117565	22	0.00313
125	123214	23	0.00313
125	128863	24	0.00313
125	134512	25	0.00313
125	140161	26	0.00313
125	145810	27	0.00313
125	151459	28	0.00313
125	157108	29	0.00313
125	162757	30	0.00313
125	168406	31	0.00313
125	174055	32	0.00313
125	179704	33	0.00313
125	185353	34	0.00313
125	191002	35	0.00313
125	196651	36	0.00313
125	202388	37	0.00313
125	208027	38	0.00313
125	213666	39	0.00313
125	219305	40	0.00313
125	224944	41	0.00313
125	230672	42	0.00313
125	236301	43	0.00313
125	241930	44	0.00313
125	247559	45	0.00313
125	253188	46	0.00313
125	258903	47	0.00313
125	264522	48	0.00313
125	270141	49	0.00313
125	275760	50	0.00313
125	281469	51	0.00313
125	287078	52	0.00313
125	292687	53	0.00313
125	298296	54	0.00313
125	303998	55	0.00313
125	309597	56	0.00313
125	315196	57	0.00313
125	320795	58	0.00313
125	326394	59	0.00313
125	332077	60	0.00313
125	337666	61	0.00313
125	343255	62	0.00313
125	348844	63	0.00313
125	355168	64	0.00313
125	360747	65	0.00313
125	366326	66	0.00313
125	371905	67	0.00313
125	377484	68	0.00313
125	383063	69	0.00313
125	388642	70	0.00313
125	394221	71	0.00313
125	399800	72	0.00313
125	405379	73	0.00313
125	410958	74	0.00313
125	416537	75	0.00313
125	422116	76	0.00313
125	427695	77	0.00313
125	433274	78	0.00313
125	438853	79	0.00313
125	444432	80	0.00313
125	450011	81	0.00313
125	455590	82	0.00313
125	461169	83	0.00313
125	466748	84	0.00313
125	472327	85	0.00313
125	477906	86	0.00313
125	483485	87	0.00313
125	489064	88	0.00313
125	494643	89	0.00313
125	500222	90	0.00313
125	505801	91	0.00313
125	511380	92	0.00313
125	516959	93	0.00313
125	522538	94	0.00313
125	528117	95	0.00313
125	533696	96	0.00313
125	539275	97	0.00313
125	544854	98	0.00313
125	550433	99	0.00313
125	556012	100	0.00313
126	5067	2	0
126	10646	3	0
126	16225	4	0
126	21804	5	0
126	27383	6	0
126	32962	7	0
126	38541	8	0
126	44120	9	0
126	49701	10	0
126	55426	11	0
126	61075	12	0
126	66724	13	0
126	72373	14	0
126	78022	15	0
126	83671	16	0
126	89320	17	0
126	94969	18	0
126	100618	19	0
126	106267	20	0
126	111916	21	0
126	117565	22	0
126	123214	23	0
126	128863	24	0
126	134512	25	0
126	140161	26	0
126	145810	27	0
126	151459	28	0
126	157108	29	0
126	162757	30	0
126	168406	31	0
126	174055	32	0
126	179704	33	0
126	185353	34	0
126	191002	35	0
126	196651	36	0
126	202388	37	0
126	208027	38	0
126	213666	39	0
126	219305	40	0
126	224944	41	0
126	230672	42	0
126	236301	43	0
126	241930	44	0
126	247559	45	0
126	253188	46	0
126	258903	47	0
126	264522	48	0
126	270141	49	0
126	275760	50	0
126	281469	51	0
126	287078	52	0
126	292687	53	0
126	298296	54	0
126	303998	55	0
126	309597	56	0
126	315196	57	0
126	320795	58	0
126	326394	59	0
126	332077	60	0
126	337666	61	0
126	343255	62	0
126	348844	63	0
126	355168	64	0
126	360747	65	0
126	366326	66	0
126	371905	67	0
126	377484	68	0
126	383063	69	0
126	388642	70	0
126	394221	71	0
126	399800	72	0
126	405379	73	0
126	410958	74	0
126	416537	75	0
126	422116	76	0
126	427695	77	0
126	433274	78	0
126	438853	79	0
126	444432	80	0
126	450011	81	0
126	455590	82	0
126	461169	83	0
126	466748	84	0
126	472327	85	0
126	477906	86	0
126	483485	87	0
126	489064	88	0
126	494643	89	0
126	500222	90	0
126	505801	91	0
126	511380	92	0
126	516959	93	0
126	522538	94	0
126	528117	95	0
126	533696	96	0
126	539275	97	0
126	544854	98	0
126	550433	99	0
126	556012	100	0

