version 3
run BreakRanksNoGui-561-20240710-17:42:21-275957
attr configname BreakRanksNoGui
attr datetime 20240710-17:42:21
attr datetimef 20240710-174221
attr experiment BreakRanksNoGui
attr inifile omnetpp.ini
attr iterationvars "$nCars=6, $platoonSize=4, $nLanes=1, $ploegH=0.5, $controller=1, $headway=0.1, $leaderHeadway=1.2, $leaderSpeed=130, $breakRanksSafetyDistance=2, $minSpeed=120, $maxSpeed=140, $beaconInterval=0.1, $priority=4, $packetSize=200, $sController=\"CACC\", $0=2, $1=0"
attr iterationvarsd nCars=6/platoonSize=4/nLanes=1/ploegH=0.5/controller=1/headway=0.1/leaderHeadway=1.2/leaderSpeed=130/breakRanksSafetyDistance=2/minSpeed=120/maxSpeed=140/beaconInterval=0.1/priority=4/packetSize=200/sController=CACC/2/0
attr iterationvarsf nCars=6,platoonSize=4,nLanes=1,ploegH=0.5,controller=1,headway=0.1,leaderHeadway=1.2,leaderSpeed=130,breakRanksSafetyDistance=2,minSpeed=120,maxSpeed=140,beaconInterval=0.1,priority=4,packetSize=200,sController=CACC,2,0-
attr measurement "$nCars=6, $platoonSize=4, $nLanes=1, $ploegH=0.5, $controller=1, $headway=0.1, $leaderHeadway=1.2, $leaderSpeed=130, $breakRanksSafetyDistance=2, $minSpeed=120, $maxSpeed=140, $beaconInterval=0.1, $priority=4, $packetSize=200, $sController=\"CACC\", $0=2, $1=0"
attr network Highway
attr processid 275957
attr repetition 1
attr replication #1
attr resultdir results
attr runnumber 561
attr seedset 1
itervar beaconInterval 0.1
itervar breakRanksSafetyDistance 2
itervar controller 1
itervar headway 0.1
itervar leaderHeadway 1.2
itervar leaderSpeed 130
itervar maxSpeed 140
itervar minSpeed 120
itervar nCars 6
itervar nLanes 1
itervar packetSize 200
itervar platoonSize 4
itervar ploegH 0.5
itervar priority 4
itervar sController "\"CACC\""
config image-path ../../../veins/images
config repeat 10
config extends BreakRanks
config *.manager.command "\"sumo\""
config *.manager.ignoreGuiCommands true
config output-vector-file "results/BreakRanks_1_0.1_130_2_4 /result_1.vec"
config output-scalar-file "results/BreakRanks_1_0.1_130_2_4 /result_1.sca"
config extends Platooning
config *.node[*].scenario_type "\"BreakRanksScenario\""
config *.manager.command "\"sumo-gui\""
config *.node[*].scenario_type "\"SimpleScenario\""
config cmdenv-express-mode true
config cmdenv-autoflush true
config cmdenv-status-frequency 15s
config num-rngs 6
config network Highway
config debug-on-errors true
config print-undisposed true
config *.playgroundSizeX 65000m
config *.playgroundSizeY 25000m
config *.playgroundSizeZ 50m
config sim-time-limit "100 s"
config *.annotations.draw false
config *.obstacles.debug false
config *.world.useTorus false
config *.world.use2D false
config *.manager.updateInterval 0.01s
config *.manager.host "\"localhost\""
config *.manager.moduleType "\"org.car2x.plexe.PlatoonCar\""
config *.manager.moduleName "\"node\""
config *.manager.moduleDisplayString "\"\""
config *.manager.autoShutdown true
config *.manager.margin 25
config *.connectionManager.sendDirect true
config *.connectionManager.maxInterfDist 2600m
config *.connectionManager.drawMaxIntfDist false
config *.**.nic.mac1609_4.useServiceChannel false
config *.**.nic.mac1609_4.txPower 100mW
config *.**.nic.mac1609_4.bitrate 6Mbps
config *.**.nic.mac1609_4.useAcks true
config *.**.nic.mac1609_4.ackErrorRate 0.0
config *.**.nic.mac1609_4.frameErrorRate 0.0
config *.**.nic.phy80211p.minPowerLevel -94dBm
config *.**.nic.phy80211p.maxTXPower 100mW
config *.**.nic.phy80211p.useNoiseFloor true
config *.**.nic.phy80211p.noiseFloor -95dBm
config *.**.nic.phy80211p.decider "xmldoc(\"config.xml\")"
config *.**.nic.phy80211p.analogueModels "xmldoc(\"config.xml\")"
config *.**.nic.phy80211p.usePropagationDelay true
config *.node[*].mobility.x 0
config *.node[*].mobility.y 0
config *.node[*].mobility.z 1.895
config seed-set 1
config **.seed 1
config *.node[*].prot.rng-0 2
config *.node[*].appl.rng-0 3
config *.node[*].scenario.rng-0 4
config **.traffic.rng-0 5
config *.manager.configFile "\"./sumocfg/freeway.sumo.cfg\""
config *.manager.launchConfig "xmldoc(\"./sumocfg/freeway.launchd.xml\")"
config **.numberOfCars 6
config **.numberOfCarsPerPlatoon 4
config **.numberOfLanes 1
config *.node[*].helper_type "\"PositionHelper\""
config *.node[*].scenario.caccC1 0.5
config *.node[*].scenario.caccXi 1
config *.node[*].scenario.caccOmegaN "0.2 Hz"
config *.node[*].scenario.caccSpacing "2 m"
config *.node[*].scenario.engineTau "0.5 s"
config *.node[*].scenario.ploegH 0.5s
config *.node[*].scenario.ploegKp 0.2
config *.node[*].scenario.ploegKd 0.7
config *.node[*].scenario.useRealisticEngine false
config *.node[*].scenario.useControllerAcceleration true
config *.node[*].scenario.nLanes 1
config **.numericController 1
config **.headway 0.1s
config *.node[*].scenario.accHeadway 0.1s
config *.node[*].scenario.leaderHeadway 1.2s
config *.node[*].scenario.leaderSpeed 130kmph
config *.node[*].appl_type "\"SimplePlatooningApp\""
config *.node[*].appl.*.scalar-recording true
config *.node[*].appl.*.vector-recording true
config *.node[0].appl.breakRanksSafetyDistance 2m
config *.node[*].appl.minSpeed 120kmph
config *.node[*].appl.maxSpeed 140kmph
config *.node[*].protocol_type "\"SimplePlatooningBeaconing\""
config *.node[*].prot.*.scalar-recording true
config *.node[*].prot.*.vector-recording true
config *.node[*].prot.beaconingInterval 0.1s
config *.node[*].prot.priority 4
config *.node[*].prot.packetSize 200
config **.traffic_type "\"PlatoonsTrafficManager\""
config **.traffic.platoonInsertTime "1 s"
config **.traffic.platoonInsertSpeed 130kmph
config **.traffic.nCars 6
config **.traffic.platoonSize 4
config **.traffic.nLanes 1
config **.traffic.platooningVType "\"vtypeauto\""
config **.traffic.controller "\"CACC\""
config **.traffic.platoonInsertDistance 2m
config **.traffic.platoonInsertHeadway 0s
config **.traffic.platoonLeaderHeadway 1.2s
config **.scalar-recording false
config **.vector-recording false

vector 0 Highway.node[0].appl distance ETV
vector 1 Highway.node[0].appl relativeSpeed ETV
vector 2 Highway.node[0].appl nodeId ETV
vector 3 Highway.node[0].appl acceleration ETV
vector 4 Highway.node[0].appl controllerAcceleration ETV
vector 5 Highway.node[0].appl speed ETV
vector 6 Highway.node[0].appl posx ETV
vector 7 Highway.node[0].appl posy ETV
vector 8 Highway.node[1].appl distance ETV
vector 9 Highway.node[1].appl relativeSpeed ETV
vector 10 Highway.node[1].appl nodeId ETV
vector 11 Highway.node[1].appl acceleration ETV
vector 12 Highway.node[1].appl controllerAcceleration ETV
vector 13 Highway.node[1].appl speed ETV
vector 14 Highway.node[1].appl posx ETV
vector 15 Highway.node[1].appl posy ETV
vector 16 Highway.node[2].appl distance ETV
vector 17 Highway.node[2].appl relativeSpeed ETV
vector 18 Highway.node[2].appl nodeId ETV
vector 19 Highway.node[2].appl acceleration ETV
vector 20 Highway.node[2].appl controllerAcceleration ETV
vector 21 Highway.node[2].appl speed ETV
vector 22 Highway.node[2].appl posx ETV
vector 23 Highway.node[2].appl posy ETV
vector 24 Highway.node[3].appl distance ETV
vector 25 Highway.node[3].appl relativeSpeed ETV
vector 26 Highway.node[3].appl nodeId ETV
vector 27 Highway.node[3].appl acceleration ETV
vector 28 Highway.node[3].appl controllerAcceleration ETV
vector 29 Highway.node[3].appl speed ETV
vector 30 Highway.node[3].appl posx ETV
vector 31 Highway.node[3].appl posy ETV
vector 32 Highway.node[4].appl distance ETV
vector 33 Highway.node[4].appl relativeSpeed ETV
vector 34 Highway.node[4].appl nodeId ETV
vector 35 Highway.node[4].appl acceleration ETV
vector 36 Highway.node[4].appl controllerAcceleration ETV
vector 37 Highway.node[4].appl speed ETV
vector 38 Highway.node[4].appl posx ETV
vector 39 Highway.node[4].appl posy ETV
vector 40 Highway.node[5].appl distance ETV
vector 41 Highway.node[5].appl relativeSpeed ETV
vector 42 Highway.node[5].appl nodeId ETV
vector 43 Highway.node[5].appl acceleration ETV
vector 44 Highway.node[5].appl controllerAcceleration ETV
vector 45 Highway.node[5].appl speed ETV
vector 46 Highway.node[5].appl posx ETV
vector 47 Highway.node[5].appl posy ETV
vector 48 Highway.node[2].prot frontDelay ETV
vector 49 Highway.node[2].prot frontDelayId ETV
vector 50 Highway.node[5].prot leaderDelay ETV
vector 51 Highway.node[5].prot leaderDelayId ETV
vector 52 Highway.node[5].prot frontDelay ETV
vector 53 Highway.node[5].prot frontDelayId ETV
vector 54 Highway.node[1].prot leaderDelay ETV
vector 55 Highway.node[1].prot leaderDelayId ETV
vector 56 Highway.node[1].prot frontDelay ETV
vector 57 Highway.node[1].prot frontDelayId ETV
vector 58 Highway.node[2].prot leaderDelay ETV
vector 59 Highway.node[2].prot leaderDelayId ETV
vector 60 Highway.node[3].prot leaderDelay ETV
vector 61 Highway.node[3].prot leaderDelayId ETV
vector 62 Highway.node[3].prot frontDelay ETV
vector 63 Highway.node[3].prot frontDelayId ETV
vector 64 Highway.node[0].prot nodeId ETV
vector 65 Highway.node[0].prot busyTime ETV
vector 66 Highway.node[0].prot collisions ETV
vector 67 Highway.node[1].prot nodeId ETV
vector 68 Highway.node[1].prot busyTime ETV
vector 69 Highway.node[1].prot collisions ETV
vector 70 Highway.node[2].prot nodeId ETV
vector 71 Highway.node[2].prot busyTime ETV
vector 72 Highway.node[2].prot collisions ETV
vector 73 Highway.node[3].prot nodeId ETV
vector 74 Highway.node[3].prot busyTime ETV
vector 75 Highway.node[3].prot collisions ETV
vector 76 Highway.node[4].prot nodeId ETV
vector 77 Highway.node[4].prot busyTime ETV
vector 78 Highway.node[4].prot collisions ETV
vector 79 Highway.node[5].prot nodeId ETV
vector 80 Highway.node[5].prot busyTime ETV
vector 81 Highway.node[5].prot collisions ETV
0	113	1.11	9323.16
0	301	1.21	9323.16
0	489	1.31	9323.16
0	677	1.41	9323.16
0	865	1.51	9323.16
0	1053	1.61	9323.16
0	1241	1.71	9323.16
0	1429	1.81	9323.16
0	1617	1.91	9323.16
0	1811	2.01	9323.16
0	1999	2.11	9323.16
0	2187	2.21	9323.16
0	2375	2.31	-1
0	2563	2.41	-1
0	2751	2.51	-1
0	2939	2.61	-1
0	3127	2.71	-1
0	3315	2.81	-1
0	3503	2.91	-1
0	3697	3.01	-1
0	3885	3.11	-1
0	4073	3.21	-1
0	4261	3.31	-1
0	4449	3.41	-1
0	4637	3.51	-1
0	4825	3.61	-1
0	5013	3.71	-1
0	5201	3.81	-1
0	5389	3.91	-1
0	5583	4.01	-1
0	5771	4.11	-1
0	5959	4.21	-1
0	6147	4.31	-1
0	6335	4.41	-1
0	6523	4.51	-1
0	6711	4.61	-1
0	6899	4.71	-1
0	7087	4.81	-1
0	7275	4.91	-1
0	7469	5.01	-1
0	7657	5.11	-1
0	7845	5.21	-1
0	8033	5.31	-1
0	8221	5.41	-1
0	8409	5.51	-1
0	8597	5.61	-1
0	8785	5.71	-1
0	8973	5.81	-1
0	9161	5.91	-1
0	9355	6.01	-1
0	9543	6.11	-1
0	9731	6.21	-1
0	9919	6.31	-1
0	10107	6.41	-1
0	10295	6.51	-1
0	10483	6.61	-1
0	10671	6.71	-1
0	10859	6.81	-1
0	11047	6.91	-1
0	11241	7.01	-1
0	11429	7.11	-1
0	11617	7.21	-1
0	11805	7.31	-1
0	11993	7.41	-1
0	12181	7.51	-1
0	12369	7.61	-1
0	12557	7.71	-1
0	12745	7.81	-1
0	12933	7.91	-1
0	13127	8.01	-1
0	13315	8.11	-1
0	13503	8.21	-1
0	13691	8.31	-1
0	13879	8.41	-1
0	14067	8.51	-1
0	14255	8.61	-1
0	14443	8.71	-1
0	14631	8.81	-1
0	14819	8.91	-1
0	15013	9.01	-1
0	15201	9.11	-1
0	15389	9.21	-1
0	15577	9.31	-1
0	15765	9.41	-1
0	15953	9.51	-1
0	16141	9.61	-1
0	16329	9.71	-1
0	16517	9.81	-1
0	16705	9.91	-1
0	17359	10.01	-1
0	17548	10.11	-1
0	17737	10.21	-1
0	17926	10.31	-1
0	18115	10.41	-1
0	18304	10.51	-1
0	18493	10.61	-1
0	18682	10.71	-1
0	18871	10.81	-1
0	19060	10.91	-1
0	19255	11.01	-1
0	19444	11.11	-1
0	19633	11.21	-1
0	19822	11.31	-1
0	20011	11.41	-1
0	20200	11.51	-1
0	20389	11.61	-1
0	20578	11.71	-1
0	20767	11.81	-1
0	20956	11.91	-1
0	21151	12.01	-1
0	21340	12.11	-1
0	21529	12.21	-1
0	21718	12.31	-1
0	21907	12.41	-1
0	22096	12.51	-1
0	22285	12.61	-1
0	22474	12.71	-1
0	22663	12.81	-1
0	22852	12.91	-1
0	23047	13.01	-1
0	23236	13.11	-1
0	23425	13.21	-1
0	23614	13.31	-1
0	23803	13.41	-1
0	23992	13.51	-1
0	24181	13.61	-1
0	24370	13.71	-1
0	24559	13.81	-1
0	24748	13.91	-1
0	24943	14.01	-1
0	25132	14.11	-1
0	25321	14.21	-1
0	25510	14.31	-1
0	25699	14.41	-1
0	25888	14.51	-1
0	26077	14.61	-1
0	26266	14.71	-1
0	26455	14.81	-1
0	26644	14.91	-1
0	26839	15.01	-1
0	27028	15.11	-1
0	27217	15.21	-1
0	27406	15.31	-1
0	27595	15.41	-1
0	27784	15.51	-1
0	27973	15.61	-1
0	28162	15.71	-1
0	28351	15.81	-1
0	28540	15.91	-1
0	28735	16.01	-1
0	28924	16.11	-1
0	29113	16.21	-1
0	29302	16.31	-1
0	29491	16.41	-1
0	29680	16.51	-1
0	29869	16.61	-1
0	30058	16.71	-1
0	30247	16.81	-1
0	30436	16.91	-1
0	30631	17.01	-1
0	30820	17.11	-1
0	31009	17.21	-1
0	31198	17.31	-1
0	31387	17.41	-1
0	31576	17.51	-1
0	31765	17.61	-1
0	31954	17.71	-1
0	32143	17.81	-1
0	32332	17.91	-1
0	32527	18.01	-1
0	32716	18.11	-1
0	32905	18.21	-1
0	33094	18.31	-1
0	33283	18.41	-1
0	33472	18.51	-1
0	33661	18.61	-1
0	33850	18.71	-1
0	34039	18.81	-1
0	34228	18.91	-1
0	34423	19.01	-1
0	34612	19.11	-1
0	34801	19.21	-1
0	34990	19.31	-1
0	35179	19.41	-1
0	35368	19.51	-1
0	35557	19.61	-1
0	35746	19.71	-1
0	35935	19.81	-1
0	36124	19.91	-1
0	36319	20.01	-1
0	36508	20.11	-1
0	36697	20.21	-1
0	36886	20.31	-1
0	37075	20.41	-1
0	37264	20.51	-1
0	37453	20.61	-1
0	37642	20.71	-1
0	37831	20.81	-1
0	38020	20.91	-1
0	38215	21.01	-1
0	38404	21.11	-1
0	38593	21.21	-1
0	38782	21.31	-1
0	38971	21.41	-1
0	39160	21.51	-1
0	39349	21.61	-1
0	39538	21.71	-1
0	39727	21.81	-1
0	39916	21.91	-1
0	40111	22.01	-1
0	40300	22.11	-1
0	40489	22.21	-1
0	40678	22.31	-1
0	40867	22.41	-1
0	41056	22.51	-1
0	41245	22.61	-1
0	41434	22.71	-1
0	41623	22.81	-1
0	41812	22.91	-1
0	42007	23.01	-1
0	42196	23.11	-1
0	42385	23.21	-1
0	42574	23.31	-1
0	42763	23.41	-1
0	42952	23.51	-1
0	43141	23.61	-1
0	43330	23.71	-1
0	43519	23.81	-1
0	43708	23.91	-1
0	43903	24.01	-1
0	44092	24.11	-1
0	44281	24.21	-1
0	44470	24.31	-1
0	44659	24.41	-1
0	44848	24.51	-1
0	45037	24.61	-1
0	45226	24.71	-1
0	45415	24.81	-1
0	45604	24.91	-1
0	45799	25.01	-1
0	45988	25.11	-1
0	46177	25.21	-1
0	46366	25.31	-1
0	46555	25.41	-1
0	46744	25.51	-1
0	46933	25.61	-1
0	47122	25.71	-1
0	47311	25.81	-1
0	47500	25.91	-1
0	47695	26.01	-1
0	47884	26.11	-1
0	48073	26.21	-1
0	48262	26.31	-1
0	48451	26.41	-1
0	48640	26.51	-1
0	48829	26.61	-1
0	49018	26.71	-1
0	49207	26.81	-1
0	49396	26.91	-1
0	49591	27.01	-1
0	49780	27.11	-1
0	49969	27.21	-1
0	50158	27.31	-1
0	50347	27.41	-1
0	50536	27.51	-1
0	50725	27.61	-1
0	50914	27.71	-1
0	51103	27.81	-1
0	51292	27.91	-1
0	51487	28.01	-1
0	51676	28.11	-1
0	51865	28.21	-1
0	52054	28.31	-1
0	52243	28.41	-1
0	52432	28.51	-1
0	52621	28.61	-1
0	52810	28.71	-1
0	52999	28.81	-1
0	53188	28.91	-1
0	53383	29.01	-1
0	53572	29.11	-1
0	53761	29.21	-1
0	53950	29.31	-1
0	54139	29.41	-1
0	54328	29.51	-1
0	54517	29.61	-1
0	54706	29.71	-1
0	54895	29.81	-1
0	55084	29.91	-1
0	55279	30.01	-1
0	55468	30.11	-1
0	55657	30.21	-1
0	55846	30.31	-1
0	56035	30.41	-1
0	56224	30.51	-1
0	56413	30.61	-1
0	56602	30.71	-1
0	56791	30.81	-1
0	56980	30.91	-1
0	57175	31.01	-1
0	57364	31.11	-1
0	57553	31.21	-1
0	57742	31.31	-1
0	57931	31.41	-1
0	58120	31.51	-1
0	58309	31.61	-1
0	58498	31.71	-1
0	58687	31.81	-1
0	58876	31.91	-1
0	59071	32.01	-1
0	59260	32.11	-1
0	59449	32.21	-1
0	59638	32.31	-1
0	59827	32.41	-1
0	60016	32.51	-1
0	60205	32.61	-1
0	60394	32.71	-1
0	60583	32.81	-1
0	60772	32.91	-1
0	60967	33.01	-1
0	61156	33.11	-1
0	61345	33.21	-1
0	61534	33.31	-1
0	61723	33.41	-1
0	61912	33.51	-1
0	62101	33.61	-1
0	62290	33.71	-1
0	62479	33.81	-1
0	62668	33.91	-1
0	62863	34.01	-1
0	63052	34.11	-1
0	63241	34.21	-1
0	63430	34.31	-1
0	63619	34.41	-1
0	63808	34.51	-1
0	63997	34.61	-1
0	64186	34.71	-1
0	64375	34.81	-1
0	64564	34.91	-1
0	64759	35.01	-1
0	64948	35.11	-1
0	65137	35.21	-1
0	65326	35.31	-1
0	65515	35.41	-1
0	65704	35.51	-1
0	65893	35.61	-1
0	66082	35.71	-1
0	66271	35.81	-1
0	66460	35.91	-1
0	66655	36.01	-1
0	66844	36.11	-1
0	67033	36.21	-1
0	67222	36.31	-1
0	67411	36.41	-1
0	67600	36.51	-1
0	67789	36.61	-1
0	67978	36.71	-1
0	68167	36.81	-1
0	68356	36.91	-1
0	68551	37.01	-1
0	68740	37.11	-1
0	68929	37.21	-1
0	69118	37.31	-1
0	69307	37.41	-1
0	69496	37.51	-1
0	69685	37.61	-1
0	69874	37.71	-1
0	70063	37.81	-1
0	70252	37.91	-1
0	70447	38.01	-1
0	70636	38.11	-1
0	70825	38.21	-1
0	71014	38.31	-1
0	71203	38.41	-1
0	71392	38.51	-1
0	71581	38.61	-1
0	71770	38.71	-1
0	71959	38.81	-1
0	72148	38.91	-1
0	72343	39.01	-1
0	72532	39.11	-1
0	72721	39.21	-1
0	72910	39.31	-1
0	73099	39.41	-1
0	73288	39.51	-1
0	73477	39.61	-1
0	73666	39.71	-1
0	73855	39.81	-1
0	74044	39.91	-1
0	74239	40.01	-1
0	74428	40.11	-1
0	74617	40.21	-1
0	74806	40.31	-1
0	74995	40.41	-1
0	75184	40.51	-1
0	75373	40.61	-1
0	75562	40.71	-1
0	75751	40.81	-1
0	75940	40.91	-1
0	76135	41.01	-1
0	76324	41.11	-1
0	76513	41.21	-1
0	76702	41.31	-1
0	76891	41.41	-1
0	77080	41.51	-1
0	77269	41.61	-1
0	77458	41.71	-1
0	77647	41.81	-1
0	77836	41.91	-1
0	78031	42.01	-1
0	78220	42.11	-1
0	78409	42.21	-1
0	78598	42.31	-1
0	78787	42.41	-1
0	78976	42.51	-1
0	79165	42.61	-1
0	79354	42.71	-1
0	79543	42.81	-1
0	79732	42.91	-1
0	79927	43.01	-1
0	80116	43.11	-1
0	80305	43.21	-1
0	80494	43.31	-1
0	80683	43.41	-1
0	80872	43.51	-1
0	81061	43.61	-1
0	81250	43.71	-1
0	81439	43.81	-1
0	81628	43.91	-1
0	81823	44.01	-1
0	82012	44.11	-1
0	82201	44.21	-1
0	82390	44.31	-1
0	82579	44.41	-1
0	82768	44.51	-1
0	82957	44.61	-1
0	83146	44.71	-1
0	83335	44.81	-1
0	83524	44.91	-1
0	83719	45.01	-1
0	83908	45.11	-1
0	84097	45.21	-1
0	84286	45.31	-1
0	84475	45.41	-1
0	84664	45.51	-1
0	84853	45.61	-1
0	85042	45.71	-1
0	85297	45.81	-1
0	85485	45.91	-1
0	85679	46.01	-1
0	85867	46.11	-1
0	86055	46.21	-1
0	86243	46.31	-1
0	86431	46.41	-1
0	86619	46.51	-1
0	86807	46.61	-1
0	86995	46.71	-1
0	87183	46.81	-1
0	87371	46.91	-1
0	87565	47.01	-1
0	87753	47.11	-1
0	87941	47.21	-1
0	88129	47.31	-1
0	88317	47.41	-1
0	88505	47.51	-1
0	88693	47.61	-1
0	88881	47.71	-1
0	89069	47.81	-1
0	89257	47.91	-1
0	89451	48.01	-1
0	89639	48.11	-1
0	89827	48.21	-1
0	90015	48.31	-1
0	90203	48.41	-1
0	90391	48.51	-1
0	90579	48.61	-1
0	90767	48.71	-1
0	90955	48.81	-1
0	91143	48.91	-1
0	91337	49.01	-1
0	91525	49.11	-1
0	91713	49.21	-1
0	91901	49.31	-1
0	92089	49.41	-1
0	92277	49.51	-1
0	92465	49.61	-1
0	92653	49.71	-1
0	92841	49.81	-1
0	93029	49.91	-1
0	93223	50.01	-1
0	93411	50.11	-1
0	93599	50.21	-1
0	93787	50.31	-1
0	93975	50.41	-1
0	94163	50.51	-1
0	94351	50.61	-1
0	94539	50.71	-1
0	94727	50.81	-1
0	94915	50.91	-1
0	95109	51.01	-1
0	95297	51.11	-1
0	95485	51.21	-1
0	95673	51.31	-1
0	95861	51.41	-1
0	96049	51.51	-1
0	96237	51.61	-1
0	96425	51.71	-1
0	96613	51.81	-1
0	96801	51.91	-1
0	96995	52.01	-1
0	97183	52.11	-1
0	97371	52.21	-1
0	97559	52.31	-1
0	97747	52.41	-1
0	97935	52.51	-1
0	98123	52.61	-1
0	98311	52.71	-1
0	98499	52.81	-1
0	98687	52.91	-1
0	98881	53.01	-1
0	99069	53.11	-1
0	99257	53.21	-1
0	99445	53.31	-1
0	99633	53.41	-1
0	99821	53.51	-1
0	100009	53.61	-1
0	100197	53.71	-1
0	100385	53.81	-1
0	100573	53.91	-1
0	100767	54.01	-1
0	100955	54.11	-1
0	101143	54.21	-1
0	101331	54.31	-1
0	101519	54.41	-1
0	101707	54.51	-1
0	101895	54.61	-1
0	102083	54.71	-1
0	102271	54.81	-1
0	102459	54.91	-1
0	102653	55.01	-1
0	102841	55.11	-1
0	103029	55.21	-1
0	103217	55.31	-1
0	103405	55.41	-1
0	103593	55.51	-1
0	103781	55.61	-1
0	103969	55.71	-1
0	104157	55.81	-1
0	104345	55.91	-1
0	104539	56.01	-1
0	104727	56.11	-1
0	104915	56.21	-1
0	105103	56.31	-1
0	105291	56.41	-1
0	105479	56.51	-1
0	105667	56.61	-1
0	105855	56.71	-1
0	106043	56.81	-1
0	106231	56.91	-1
0	106425	57.01	-1
0	106613	57.11	-1
0	106801	57.21	-1
0	106989	57.31	-1
0	107177	57.41	-1
0	107365	57.51	-1
0	107553	57.61	-1
0	107741	57.71	-1
0	107929	57.81	-1
0	108117	57.91	-1
0	108311	58.01	-1
0	108499	58.11	-1
0	108687	58.21	-1
0	108875	58.31	-1
0	109063	58.41	-1
0	109251	58.51	-1
0	109439	58.61	-1
0	109627	58.71	-1
0	109815	58.81	-1
0	110003	58.91	-1
0	110197	59.01	-1
0	110385	59.11	-1
0	110573	59.21	-1
0	110761	59.31	-1
0	110949	59.41	-1
0	111137	59.51	-1
0	111325	59.61	-1
0	111513	59.71	-1
0	111701	59.81	-1
0	111889	59.91	-1
0	112083	60.01	-1
0	112271	60.11	-1
0	112459	60.21	-1
0	112647	60.31	-1
0	112835	60.41	-1
0	113023	60.51	-1
0	113211	60.61	-1
0	113399	60.71	-1
0	113587	60.81	-1
0	113775	60.91	-1
0	113969	61.01	-1
0	114157	61.11	-1
0	114345	61.21	-1
0	114533	61.31	-1
0	114721	61.41	-1
0	114909	61.51	-1
0	115097	61.61	-1
0	115285	61.71	-1
0	115473	61.81	-1
0	115661	61.91	-1
0	115855	62.01	-1
0	116043	62.11	-1
0	116231	62.21	-1
0	116419	62.31	-1
0	116607	62.41	-1
0	116795	62.51	-1
0	116983	62.61	-1
0	117171	62.71	-1
0	117359	62.81	-1
0	117547	62.91	-1
0	117741	63.01	-1
0	117929	63.11	-1
0	118117	63.21	-1
0	118305	63.31	-1
0	118493	63.41	-1
0	118681	63.51	-1
0	118869	63.61	-1
0	119057	63.71	-1
0	119245	63.81	-1
0	119433	63.91	-1
0	119627	64.01	-1
0	119815	64.11	-1
0	120003	64.21	-1
0	120191	64.31	-1
0	120379	64.41	-1
0	120567	64.51	-1
0	120755	64.61	-1
0	120943	64.71	-1
0	121131	64.81	-1
0	121319	64.91	-1
0	121513	65.01	-1
0	121701	65.11	-1
0	121889	65.21	-1
0	122077	65.31	-1
0	122265	65.41	-1
0	122453	65.51	-1
0	122641	65.61	-1
0	122829	65.71	-1
0	123017	65.81	-1
0	123205	65.91	-1
0	123399	66.01	-1
0	123587	66.11	-1
0	123775	66.21	-1
0	123963	66.31	-1
0	124151	66.41	-1
0	124339	66.51	-1
0	124527	66.61	-1
0	124715	66.71	-1
0	124903	66.81	-1
0	125091	66.91	-1
0	125285	67.01	-1
0	125473	67.11	-1
0	125661	67.21	-1
0	125849	67.31	-1
0	126037	67.41	-1
0	126225	67.51	-1
0	126413	67.61	-1
0	126601	67.71	-1
0	126789	67.81	-1
0	126977	67.91	-1
0	127171	68.01	-1
0	127359	68.11	-1
0	127547	68.21	-1
0	127735	68.31	-1
0	127923	68.41	-1
0	128111	68.51	-1
0	128299	68.61	-1
0	128487	68.71	-1
0	128675	68.81	-1
0	128863	68.91	-1
0	129057	69.01	-1
0	129245	69.11	-1
0	129433	69.21	-1
0	129621	69.31	-1
0	129809	69.41	-1
0	129997	69.51	-1
0	130185	69.61	-1
0	130373	69.71	-1
0	130561	69.81	-1
0	130749	69.91	-1
0	130943	70.01	-1
0	131131	70.11	-1
0	131319	70.21	-1
0	131507	70.31	-1
0	131695	70.41	-1
0	131883	70.51	-1
0	132071	70.61	-1
0	132259	70.71	-1
0	132447	70.81	-1
0	132635	70.91	-1
0	132829	71.01	-1
0	133017	71.11	-1
0	133205	71.21	-1
0	133393	71.31	-1
0	133581	71.41	-1
0	133769	71.51	-1
0	133957	71.61	-1
0	134145	71.71	-1
0	134333	71.81	-1
0	134521	71.91	-1
0	134715	72.01	-1
0	134903	72.11	-1
0	135091	72.21	-1
0	135279	72.31	-1
0	135467	72.41	-1
0	135655	72.51	-1
0	135843	72.61	-1
0	136031	72.71	-1
0	136219	72.81	-1
0	136407	72.91	-1
0	136601	73.01	-1
0	136789	73.11	-1
0	136977	73.21	-1
0	137165	73.31	-1
0	137353	73.41	-1
0	137541	73.51	-1
0	137729	73.61	-1
0	137917	73.71	-1
0	138105	73.81	-1
0	138293	73.91	-1
0	138487	74.01	-1
0	138675	74.11	-1
0	138863	74.21	-1
0	139051	74.31	-1
0	139239	74.41	-1
0	139427	74.51	-1
0	139615	74.61	-1
0	139803	74.71	-1
0	139991	74.81	-1
0	140179	74.91	-1
0	140373	75.01	-1
0	140561	75.11	-1
0	140749	75.21	-1
0	140937	75.31	-1
0	141125	75.41	-1
0	141313	75.51	-1
0	141501	75.61	-1
0	141689	75.71	-1
0	141877	75.81	-1
0	142065	75.91	-1
0	142259	76.01	-1
0	142447	76.11	-1
0	142635	76.21	-1
0	142823	76.31	-1
0	143011	76.41	-1
0	143199	76.51	-1
0	143387	76.61	-1
0	143575	76.71	-1
0	143763	76.81	-1
0	143951	76.91	-1
0	144145	77.01	-1
0	144333	77.11	-1
0	144521	77.21	-1
0	144709	77.31	-1
0	144897	77.41	-1
0	145085	77.51	-1
0	145273	77.61	-1
0	145461	77.71	-1
0	145649	77.81	-1
0	145837	77.91	-1
0	146031	78.01	-1
0	146219	78.11	-1
0	146407	78.21	-1
0	146595	78.31	-1
0	146783	78.41	-1
0	146971	78.51	-1
0	147159	78.61	-1
0	147347	78.71	-1
0	147535	78.81	-1
0	147723	78.91	-1
0	147917	79.01	-1
0	148105	79.11	-1
0	148293	79.21	-1
0	148481	79.31	-1
0	148669	79.41	-1
0	148857	79.51	-1
0	149045	79.61	-1
0	149233	79.71	-1
0	149421	79.81	-1
0	149609	79.91	-1
0	149803	80.01	-1
0	149991	80.11	-1
0	150179	80.21	-1
0	150367	80.31	-1
0	150555	80.41	-1
0	150743	80.51	-1
0	150931	80.61	-1
0	151119	80.71	-1
0	151307	80.81	-1
0	151495	80.91	-1
0	151689	81.01	-1
0	151877	81.11	-1
0	152065	81.21	-1
0	152253	81.31	-1
0	152441	81.41	-1
0	152629	81.51	-1
0	152817	81.61	-1
0	153005	81.71	-1
0	153193	81.81	-1
0	153381	81.91	-1
0	153575	82.01	-1
0	153763	82.11	-1
0	153951	82.21	-1
0	154139	82.31	-1
0	154327	82.41	-1
0	154515	82.51	-1
0	154703	82.61	-1
0	154891	82.71	-1
0	155079	82.81	-1
0	155267	82.91	-1
0	155461	83.01	-1
0	155649	83.11	-1
0	155837	83.21	-1
0	156025	83.31	-1
0	156213	83.41	-1
0	156401	83.51	-1
0	156589	83.61	-1
0	156777	83.71	-1
0	156965	83.81	-1
0	157153	83.91	-1
0	157347	84.01	-1
0	157535	84.11	-1
0	157723	84.21	-1
0	157911	84.31	-1
0	158099	84.41	-1
0	158287	84.51	-1
0	158475	84.61	-1
0	158663	84.71	-1
0	158851	84.81	-1
0	159039	84.91	-1
0	159233	85.01	-1
0	159421	85.11	-1
0	159609	85.21	-1
0	159797	85.31	-1
0	159985	85.41	-1
0	160173	85.51	-1
0	160361	85.61	-1
0	160549	85.71	-1
0	160737	85.81	-1
0	160925	85.91	-1
0	161119	86.01	-1
0	161307	86.11	-1
0	161495	86.21	-1
0	161683	86.31	-1
0	161871	86.41	-1
0	162059	86.51	-1
0	162247	86.61	-1
0	162435	86.71	-1
0	162623	86.81	-1
0	162811	86.91	-1
0	163005	87.01	-1
0	163193	87.11	-1
0	163381	87.21	-1
0	163569	87.31	-1
0	163757	87.41	-1
0	163945	87.51	-1
0	164133	87.61	-1
0	164321	87.71	-1
0	164509	87.81	-1
0	164697	87.91	-1
0	164891	88.01	-1
0	165079	88.11	-1
0	165267	88.21	-1
0	165455	88.31	-1
0	165643	88.41	-1
0	165831	88.51	-1
0	166019	88.61	-1
0	166207	88.71	-1
0	166395	88.81	-1
0	166583	88.91	-1
0	166777	89.01	-1
0	166965	89.11	-1
0	167153	89.21	28.3926
0	167341	89.31	28.5815
0	167529	89.41	28.7704
0	167717	89.51	28.9593
0	167905	89.61	29.1482
0	168093	89.71	29.3371
0	168281	89.81	29.526
0	168469	89.91	29.7149
0	168663	90.01	29.9038
0	168851	90.11	30.0927
0	169039	90.21	30.2815
0	169227	90.31	30.4704
0	169415	90.41	30.6593
0	169603	90.51	30.8482
0	169791	90.61	31.0371
0	169979	90.71	31.226
0	170167	90.81	31.4149
0	170355	90.91	31.6038
0	170549	91.01	31.7927
0	170737	91.11	31.9816
0	170925	91.21	32.1704
0	171113	91.31	32.3593
0	171301	91.41	32.5482
0	171489	91.51	32.7371
0	171677	91.61	32.926
0	171865	91.71	33.1149
0	172053	91.81	33.3038
0	172241	91.91	33.4927
0	172435	92.01	33.6816
0	172623	92.11	33.8705
0	172811	92.21	34.0593
0	172999	92.31	34.2482
0	173187	92.41	34.4371
0	173375	92.51	34.626
0	173563	92.61	34.8149
0	173751	92.71	35.0038
0	173939	92.81	35.1927
0	174127	92.91	35.3816
0	174321	93.01	35.5705
0	174509	93.11	35.7594
0	174697	93.21	35.9482
0	174885	93.31	36.1371
0	175073	93.41	36.326
0	175261	93.51	36.5149
0	175449	93.61	36.7038
0	175637	93.71	36.8927
0	175825	93.81	37.0816
0	176013	93.91	37.2705
0	176207	94.01	37.4594
0	176395	94.11	37.6483
0	176583	94.21	37.8371
0	176771	94.31	38.026
0	176959	94.41	38.2149
0	177147	94.51	38.4038
0	177335	94.61	38.5927
0	177523	94.71	38.7816
0	177711	94.81	38.9705
0	177899	94.91	39.1594
0	178093	95.01	39.3483
0	178281	95.11	39.5372
0	178469	95.21	39.726
0	178657	95.31	39.9149
0	178845	95.41	40.1038
0	179033	95.51	40.2927
0	179221	95.61	40.4816
0	179409	95.71	40.6705
0	179597	95.81	40.8594
0	179785	95.91	41.0483
0	179979	96.01	41.2372
0	180167	96.11	41.4261
0	180355	96.21	41.6149
0	180543	96.31	41.8038
0	180731	96.41	41.9927
0	180919	96.51	42.1816
0	181107	96.61	42.3705
0	181295	96.71	42.5594
0	181483	96.81	42.7483
0	181671	96.91	42.9372
0	181865	97.01	43.1261
0	182053	97.11	43.315
0	182241	97.21	43.5038
0	182429	97.31	43.6927
0	182617	97.41	43.8816
0	182805	97.51	44.0705
0	182993	97.61	44.2594
0	183181	97.71	44.4483
0	183369	97.81	44.6372
0	183557	97.91	44.8261
0	183751	98.01	45.015
0	183939	98.11	45.2039
0	184127	98.21	45.3927
0	184315	98.31	45.5816
0	184503	98.41	45.7705
0	184691	98.51	45.9594
0	184879	98.61	46.1483
0	185067	98.71	46.3372
0	185255	98.81	46.5261
0	185443	98.91	46.715
0	185637	99.01	46.9039
0	185825	99.11	47.0928
0	186013	99.21	47.2816
0	186201	99.31	47.4705
0	186389	99.41	47.6594
0	186577	99.51	47.8483
0	186765	99.61	48.0372
0	186953	99.71	48.2261
0	187141	99.81	48.415
0	187329	99.91	48.6039
1	113	1.11	-9.20219e-06
1	301	1.21	-3.61054e-05
1	489	1.31	-6.45928e-05
1	677	1.41	-8.70105e-05
1	865	1.51	-0.000104254
1	1053	1.61	-0.000116982
1	1241	1.71	-0.000126051
1	1429	1.81	-0.000132022
1	1617	1.91	-0.00013517
1	1811	2.01	-0.000135767
1	1999	2.11	-0.000134517
1	2187	2.21	-0.000131792
1	2375	2.31	0
1	2563	2.41	0
1	2751	2.51	0
1	2939	2.61	0
1	3127	2.71	0
1	3315	2.81	0
1	3503	2.91	0
1	3697	3.01	0
1	3885	3.11	0
1	4073	3.21	0
1	4261	3.31	0
1	4449	3.41	0
1	4637	3.51	0
1	4825	3.61	0
1	5013	3.71	0
1	5201	3.81	0
1	5389	3.91	0
1	5583	4.01	0
1	5771	4.11	0
1	5959	4.21	0
1	6147	4.31	0
1	6335	4.41	0
1	6523	4.51	0
1	6711	4.61	0
1	6899	4.71	0
1	7087	4.81	0
1	7275	4.91	0
1	7469	5.01	0
1	7657	5.11	0
1	7845	5.21	0
1	8033	5.31	0
1	8221	5.41	0
1	8409	5.51	0
1	8597	5.61	0
1	8785	5.71	0
1	8973	5.81	0
1	9161	5.91	0
1	9355	6.01	0
1	9543	6.11	0
1	9731	6.21	0
1	9919	6.31	0
1	10107	6.41	0
1	10295	6.51	0
1	10483	6.61	0
1	10671	6.71	0
1	10859	6.81	0
1	11047	6.91	0
1	11241	7.01	0
1	11429	7.11	0
1	11617	7.21	0
1	11805	7.31	0
1	11993	7.41	0
1	12181	7.51	0
1	12369	7.61	0
1	12557	7.71	0
1	12745	7.81	0
1	12933	7.91	0
1	13127	8.01	0
1	13315	8.11	0
1	13503	8.21	0
1	13691	8.31	0
1	13879	8.41	0
1	14067	8.51	0
1	14255	8.61	0
1	14443	8.71	0
1	14631	8.81	0
1	14819	8.91	0
1	15013	9.01	0
1	15201	9.11	0
1	15389	9.21	0
1	15577	9.31	0
1	15765	9.41	0
1	15953	9.51	0
1	16141	9.61	0
1	16329	9.71	0
1	16517	9.81	0
1	16705	9.91	0
1	17359	10.01	0
1	17548	10.11	0
1	17737	10.21	0
1	17926	10.31	0
1	18115	10.41	0
1	18304	10.51	0
1	18493	10.61	0
1	18682	10.71	0
1	18871	10.81	0
1	19060	10.91	0
1	19255	11.01	0
1	19444	11.11	0
1	19633	11.21	0
1	19822	11.31	0
1	20011	11.41	0
1	20200	11.51	0
1	20389	11.61	0
1	20578	11.71	0
1	20767	11.81	0
1	20956	11.91	0
1	21151	12.01	0
1	21340	12.11	0
1	21529	12.21	0
1	21718	12.31	0
1	21907	12.41	0
1	22096	12.51	0
1	22285	12.61	0
1	22474	12.71	0
1	22663	12.81	0
1	22852	12.91	0
1	23047	13.01	0
1	23236	13.11	0
1	23425	13.21	0
1	23614	13.31	0
1	23803	13.41	0
1	23992	13.51	0
1	24181	13.61	0
1	24370	13.71	0
1	24559	13.81	0
1	24748	13.91	0
1	24943	14.01	0
1	25132	14.11	0
1	25321	14.21	0
1	25510	14.31	0
1	25699	14.41	0
1	25888	14.51	0
1	26077	14.61	0
1	26266	14.71	0
1	26455	14.81	0
1	26644	14.91	0
1	26839	15.01	0
1	27028	15.11	0
1	27217	15.21	0
1	27406	15.31	0
1	27595	15.41	0
1	27784	15.51	0
1	27973	15.61	0
1	28162	15.71	0
1	28351	15.81	0
1	28540	15.91	0
1	28735	16.01	0
1	28924	16.11	0
1	29113	16.21	0
1	29302	16.31	0
1	29491	16.41	0
1	29680	16.51	0
1	29869	16.61	0
1	30058	16.71	0
1	30247	16.81	0
1	30436	16.91	0
1	30631	17.01	0
1	30820	17.11	0
1	31009	17.21	0
1	31198	17.31	0
1	31387	17.41	0
1	31576	17.51	0
1	31765	17.61	0
1	31954	17.71	0
1	32143	17.81	0
1	32332	17.91	0
1	32527	18.01	0
1	32716	18.11	0
1	32905	18.21	0
1	33094	18.31	0
1	33283	18.41	0
1	33472	18.51	0
1	33661	18.61	0
1	33850	18.71	0
1	34039	18.81	0
1	34228	18.91	0
1	34423	19.01	0
1	34612	19.11	0
1	34801	19.21	0
1	34990	19.31	0
1	35179	19.41	0
1	35368	19.51	0
1	35557	19.61	0
1	35746	19.71	0
1	35935	19.81	0
1	36124	19.91	0
1	36319	20.01	0
1	36508	20.11	0
1	36697	20.21	0
1	36886	20.31	0
1	37075	20.41	0
1	37264	20.51	0
1	37453	20.61	0
1	37642	20.71	0
1	37831	20.81	0
1	38020	20.91	0
1	38215	21.01	0
1	38404	21.11	0
1	38593	21.21	0
1	38782	21.31	0
1	38971	21.41	0
1	39160	21.51	0
1	39349	21.61	0
1	39538	21.71	0
1	39727	21.81	0
1	39916	21.91	0
1	40111	22.01	0
1	40300	22.11	0
1	40489	22.21	0
1	40678	22.31	0
1	40867	22.41	0
1	41056	22.51	0
1	41245	22.61	0
1	41434	22.71	0
1	41623	22.81	0
1	41812	22.91	0
1	42007	23.01	0
1	42196	23.11	0
1	42385	23.21	0
1	42574	23.31	0
1	42763	23.41	0
1	42952	23.51	0
1	43141	23.61	0
1	43330	23.71	0
1	43519	23.81	0
1	43708	23.91	0
1	43903	24.01	0
1	44092	24.11	0
1	44281	24.21	0
1	44470	24.31	0
1	44659	24.41	0
1	44848	24.51	0
1	45037	24.61	0
1	45226	24.71	0
1	45415	24.81	0
1	45604	24.91	0
1	45799	25.01	0
1	45988	25.11	0
1	46177	25.21	0
1	46366	25.31	0
1	46555	25.41	0
1	46744	25.51	0
1	46933	25.61	0
1	47122	25.71	0
1	47311	25.81	0
1	47500	25.91	0
1	47695	26.01	0
1	47884	26.11	0
1	48073	26.21	0
1	48262	26.31	0
1	48451	26.41	0
1	48640	26.51	0
1	48829	26.61	0
1	49018	26.71	0
1	49207	26.81	0
1	49396	26.91	0
1	49591	27.01	0
1	49780	27.11	0
1	49969	27.21	0
1	50158	27.31	0
1	50347	27.41	0
1	50536	27.51	0
1	50725	27.61	0
1	50914	27.71	0
1	51103	27.81	0
1	51292	27.91	0
1	51487	28.01	0
1	51676	28.11	0
1	51865	28.21	0
1	52054	28.31	0
1	52243	28.41	0
1	52432	28.51	0
1	52621	28.61	0
1	52810	28.71	0
1	52999	28.81	0
1	53188	28.91	0
1	53383	29.01	0
1	53572	29.11	0
1	53761	29.21	0
1	53950	29.31	0
1	54139	29.41	0
1	54328	29.51	0
1	54517	29.61	0
1	54706	29.71	0
1	54895	29.81	0
1	55084	29.91	0
1	55279	30.01	0
1	55468	30.11	0
1	55657	30.21	0
1	55846	30.31	0
1	56035	30.41	0
1	56224	30.51	0
1	56413	30.61	0
1	56602	30.71	0
1	56791	30.81	0
1	56980	30.91	0
1	57175	31.01	0
1	57364	31.11	0
1	57553	31.21	0
1	57742	31.31	0
1	57931	31.41	0
1	58120	31.51	0
1	58309	31.61	0
1	58498	31.71	0
1	58687	31.81	0
1	58876	31.91	0
1	59071	32.01	0
1	59260	32.11	0
1	59449	32.21	0
1	59638	32.31	0
1	59827	32.41	0
1	60016	32.51	0
1	60205	32.61	0
1	60394	32.71	0
1	60583	32.81	0
1	60772	32.91	0
1	60967	33.01	0
1	61156	33.11	0
1	61345	33.21	0
1	61534	33.31	0
1	61723	33.41	0
1	61912	33.51	0
1	62101	33.61	0
1	62290	33.71	0
1	62479	33.81	0
1	62668	33.91	0
1	62863	34.01	0
1	63052	34.11	0
1	63241	34.21	0
1	63430	34.31	0
1	63619	34.41	0
1	63808	34.51	0
1	63997	34.61	0
1	64186	34.71	0
1	64375	34.81	0
1	64564	34.91	0
1	64759	35.01	0
1	64948	35.11	0
1	65137	35.21	0
1	65326	35.31	0
1	65515	35.41	0
1	65704	35.51	0
1	65893	35.61	0
1	66082	35.71	0
1	66271	35.81	0
1	66460	35.91	0
1	66655	36.01	0
1	66844	36.11	0
1	67033	36.21	0
1	67222	36.31	0
1	67411	36.41	0
1	67600	36.51	0
1	67789	36.61	0
1	67978	36.71	0
1	68167	36.81	0
1	68356	36.91	0
1	68551	37.01	0
1	68740	37.11	0
1	68929	37.21	0
1	69118	37.31	0
1	69307	37.41	0
1	69496	37.51	0
1	69685	37.61	0
1	69874	37.71	0
1	70063	37.81	0
1	70252	37.91	0
1	70447	38.01	0
1	70636	38.11	0
1	70825	38.21	0
1	71014	38.31	0
1	71203	38.41	0
1	71392	38.51	0
1	71581	38.61	0
1	71770	38.71	0
1	71959	38.81	0
1	72148	38.91	0
1	72343	39.01	0
1	72532	39.11	0
1	72721	39.21	0
1	72910	39.31	0
1	73099	39.41	0
1	73288	39.51	0
1	73477	39.61	0
1	73666	39.71	0
1	73855	39.81	0
1	74044	39.91	0
1	74239	40.01	0
1	74428	40.11	0
1	74617	40.21	0
1	74806	40.31	0
1	74995	40.41	0
1	75184	40.51	0
1	75373	40.61	0
1	75562	40.71	0
1	75751	40.81	0
1	75940	40.91	0
1	76135	41.01	0
1	76324	41.11	0
1	76513	41.21	0
1	76702	41.31	0
1	76891	41.41	0
1	77080	41.51	0
1	77269	41.61	0
1	77458	41.71	0
1	77647	41.81	0
1	77836	41.91	0
1	78031	42.01	0
1	78220	42.11	0
1	78409	42.21	0
1	78598	42.31	0
1	78787	42.41	0
1	78976	42.51	0
1	79165	42.61	0
1	79354	42.71	0
1	79543	42.81	0
1	79732	42.91	0
1	79927	43.01	0
1	80116	43.11	0
1	80305	43.21	0
1	80494	43.31	0
1	80683	43.41	0
1	80872	43.51	0
1	81061	43.61	0
1	81250	43.71	0
1	81439	43.81	0
1	81628	43.91	0
1	81823	44.01	0
1	82012	44.11	0
1	82201	44.21	0
1	82390	44.31	0
1	82579	44.41	0
1	82768	44.51	0
1	82957	44.61	0
1	83146	44.71	0
1	83335	44.81	0
1	83524	44.91	0
1	83719	45.01	0
1	83908	45.11	0
1	84097	45.21	0
1	84286	45.31	0
1	84475	45.41	0
1	84664	45.51	0
1	84853	45.61	0
1	85042	45.71	0
1	85297	45.81	0
1	85485	45.91	0
1	85679	46.01	0
1	85867	46.11	0
1	86055	46.21	0
1	86243	46.31	0
1	86431	46.41	0
1	86619	46.51	0
1	86807	46.61	0
1	86995	46.71	0
1	87183	46.81	0
1	87371	46.91	0
1	87565	47.01	0
1	87753	47.11	0
1	87941	47.21	0
1	88129	47.31	0
1	88317	47.41	0
1	88505	47.51	0
1	88693	47.61	0
1	88881	47.71	0
1	89069	47.81	0
1	89257	47.91	0
1	89451	48.01	0
1	89639	48.11	0
1	89827	48.21	0
1	90015	48.31	0
1	90203	48.41	0
1	90391	48.51	0
1	90579	48.61	0
1	90767	48.71	0
1	90955	48.81	0
1	91143	48.91	0
1	91337	49.01	0
1	91525	49.11	0
1	91713	49.21	0
1	91901	49.31	0
1	92089	49.41	0
1	92277	49.51	0
1	92465	49.61	0
1	92653	49.71	0
1	92841	49.81	0
1	93029	49.91	0
1	93223	50.01	0
1	93411	50.11	0
1	93599	50.21	0
1	93787	50.31	0
1	93975	50.41	0
1	94163	50.51	0
1	94351	50.61	0
1	94539	50.71	0
1	94727	50.81	0
1	94915	50.91	0
1	95109	51.01	0
1	95297	51.11	0
1	95485	51.21	0
1	95673	51.31	0
1	95861	51.41	0
1	96049	51.51	0
1	96237	51.61	0
1	96425	51.71	0
1	96613	51.81	0
1	96801	51.91	0
1	96995	52.01	0
1	97183	52.11	0
1	97371	52.21	0
1	97559	52.31	0
1	97747	52.41	0
1	97935	52.51	0
1	98123	52.61	0
1	98311	52.71	0
1	98499	52.81	0
1	98687	52.91	0
1	98881	53.01	0
1	99069	53.11	0
1	99257	53.21	0
1	99445	53.31	0
1	99633	53.41	0
1	99821	53.51	0
1	100009	53.61	0
1	100197	53.71	0
1	100385	53.81	0
1	100573	53.91	0
1	100767	54.01	0
1	100955	54.11	0
1	101143	54.21	0
1	101331	54.31	0
1	101519	54.41	0
1	101707	54.51	0
1	101895	54.61	0
1	102083	54.71	0
1	102271	54.81	0
1	102459	54.91	0
1	102653	55.01	0
1	102841	55.11	0
1	103029	55.21	0
1	103217	55.31	0
1	103405	55.41	0
1	103593	55.51	0
1	103781	55.61	0
1	103969	55.71	0
1	104157	55.81	0
1	104345	55.91	0
1	104539	56.01	0
1	104727	56.11	0
1	104915	56.21	0
1	105103	56.31	0
1	105291	56.41	0
1	105479	56.51	0
1	105667	56.61	0
1	105855	56.71	0
1	106043	56.81	0
1	106231	56.91	0
1	106425	57.01	0
1	106613	57.11	0
1	106801	57.21	0
1	106989	57.31	0
1	107177	57.41	0
1	107365	57.51	0
1	107553	57.61	0
1	107741	57.71	0
1	107929	57.81	0
1	108117	57.91	0
1	108311	58.01	0
1	108499	58.11	0
1	108687	58.21	0
1	108875	58.31	0
1	109063	58.41	0
1	109251	58.51	0
1	109439	58.61	0
1	109627	58.71	0
1	109815	58.81	0
1	110003	58.91	0
1	110197	59.01	0
1	110385	59.11	0
1	110573	59.21	0
1	110761	59.31	0
1	110949	59.41	0
1	111137	59.51	0
1	111325	59.61	0
1	111513	59.71	0
1	111701	59.81	0
1	111889	59.91	0
1	112083	60.01	0
1	112271	60.11	0
1	112459	60.21	0
1	112647	60.31	0
1	112835	60.41	0
1	113023	60.51	0
1	113211	60.61	0
1	113399	60.71	0
1	113587	60.81	0
1	113775	60.91	0
1	113969	61.01	0
1	114157	61.11	0
1	114345	61.21	0
1	114533	61.31	0
1	114721	61.41	0
1	114909	61.51	0
1	115097	61.61	0
1	115285	61.71	0
1	115473	61.81	0
1	115661	61.91	0
1	115855	62.01	0
1	116043	62.11	0
1	116231	62.21	0
1	116419	62.31	0
1	116607	62.41	0
1	116795	62.51	0
1	116983	62.61	0
1	117171	62.71	0
1	117359	62.81	0
1	117547	62.91	0
1	117741	63.01	0
1	117929	63.11	0
1	118117	63.21	0
1	118305	63.31	0
1	118493	63.41	0
1	118681	63.51	0
1	118869	63.61	0
1	119057	63.71	0
1	119245	63.81	0
1	119433	63.91	0
1	119627	64.01	0
1	119815	64.11	0
1	120003	64.21	0
1	120191	64.31	0
1	120379	64.41	0
1	120567	64.51	0
1	120755	64.61	0
1	120943	64.71	0
1	121131	64.81	0
1	121319	64.91	0
1	121513	65.01	0
1	121701	65.11	0
1	121889	65.21	0
1	122077	65.31	0
1	122265	65.41	0
1	122453	65.51	0
1	122641	65.61	0
1	122829	65.71	0
1	123017	65.81	0
1	123205	65.91	0
1	123399	66.01	0
1	123587	66.11	0
1	123775	66.21	0
1	123963	66.31	0
1	124151	66.41	0
1	124339	66.51	0
1	124527	66.61	0
1	124715	66.71	0
1	124903	66.81	0
1	125091	66.91	0
1	125285	67.01	0
1	125473	67.11	0
1	125661	67.21	0
1	125849	67.31	0
1	126037	67.41	0
1	126225	67.51	0
1	126413	67.61	0
1	126601	67.71	0
1	126789	67.81	0
1	126977	67.91	0
1	127171	68.01	0
1	127359	68.11	0
1	127547	68.21	0
1	127735	68.31	0
1	127923	68.41	0
1	128111	68.51	0
1	128299	68.61	0
1	128487	68.71	0
1	128675	68.81	0
1	128863	68.91	0
1	129057	69.01	0
1	129245	69.11	0
1	129433	69.21	0
1	129621	69.31	0
1	129809	69.41	0
1	129997	69.51	0
1	130185	69.61	0
1	130373	69.71	0
1	130561	69.81	0
1	130749	69.91	0
1	130943	70.01	0
1	131131	70.11	0
1	131319	70.21	0
1	131507	70.31	0
1	131695	70.41	0
1	131883	70.51	0
1	132071	70.61	0
1	132259	70.71	0
1	132447	70.81	0
1	132635	70.91	0
1	132829	71.01	0
1	133017	71.11	0
1	133205	71.21	0
1	133393	71.31	0
1	133581	71.41	0
1	133769	71.51	0
1	133957	71.61	0
1	134145	71.71	0
1	134333	71.81	0
1	134521	71.91	0
1	134715	72.01	0
1	134903	72.11	0
1	135091	72.21	0
1	135279	72.31	0
1	135467	72.41	0
1	135655	72.51	0
1	135843	72.61	0
1	136031	72.71	0
1	136219	72.81	0
1	136407	72.91	0
1	136601	73.01	0
1	136789	73.11	0
1	136977	73.21	0
1	137165	73.31	0
1	137353	73.41	0
1	137541	73.51	0
1	137729	73.61	0
1	137917	73.71	0
1	138105	73.81	0
1	138293	73.91	0
1	138487	74.01	0
1	138675	74.11	0
1	138863	74.21	0
1	139051	74.31	0
1	139239	74.41	0
1	139427	74.51	0
1	139615	74.61	0
1	139803	74.71	0
1	139991	74.81	0
1	140179	74.91	0
1	140373	75.01	0
1	140561	75.11	0
1	140749	75.21	0
1	140937	75.31	0
1	141125	75.41	0
1	141313	75.51	0
1	141501	75.61	0
1	141689	75.71	0
1	141877	75.81	0
1	142065	75.91	0
1	142259	76.01	0
1	142447	76.11	0
1	142635	76.21	0
1	142823	76.31	0
1	143011	76.41	0
1	143199	76.51	0
1	143387	76.61	0
1	143575	76.71	0
1	143763	76.81	0
1	143951	76.91	0
1	144145	77.01	0
1	144333	77.11	0
1	144521	77.21	0
1	144709	77.31	0
1	144897	77.41	0
1	145085	77.51	0
1	145273	77.61	0
1	145461	77.71	0
1	145649	77.81	0
1	145837	77.91	0
1	146031	78.01	0
1	146219	78.11	0
1	146407	78.21	0
1	146595	78.31	0
1	146783	78.41	0
1	146971	78.51	0
1	147159	78.61	0
1	147347	78.71	0
1	147535	78.81	0
1	147723	78.91	0
1	147917	79.01	0
1	148105	79.11	0
1	148293	79.21	0
1	148481	79.31	0
1	148669	79.41	0
1	148857	79.51	0
1	149045	79.61	0
1	149233	79.71	0
1	149421	79.81	0
1	149609	79.91	0
1	149803	80.01	0
1	149991	80.11	0
1	150179	80.21	0
1	150367	80.31	0
1	150555	80.41	0
1	150743	80.51	0
1	150931	80.61	0
1	151119	80.71	0
1	151307	80.81	0
1	151495	80.91	0
1	151689	81.01	0
1	151877	81.11	0
1	152065	81.21	0
1	152253	81.31	0
1	152441	81.41	0
1	152629	81.51	0
1	152817	81.61	0
1	153005	81.71	0
1	153193	81.81	0
1	153381	81.91	0
1	153575	82.01	0
1	153763	82.11	0
1	153951	82.21	0
1	154139	82.31	0
1	154327	82.41	0
1	154515	82.51	0
1	154703	82.61	0
1	154891	82.71	0
1	155079	82.81	0
1	155267	82.91	0
1	155461	83.01	0
1	155649	83.11	0
1	155837	83.21	0
1	156025	83.31	0
1	156213	83.41	0
1	156401	83.51	0
1	156589	83.61	0
1	156777	83.71	0
1	156965	83.81	0
1	157153	83.91	0
1	157347	84.01	0
1	157535	84.11	0
1	157723	84.21	0
1	157911	84.31	0
1	158099	84.41	0
1	158287	84.51	0
1	158475	84.61	0
1	158663	84.71	0
1	158851	84.81	0
1	159039	84.91	0
1	159233	85.01	0
1	159421	85.11	0
1	159609	85.21	0
1	159797	85.31	0
1	159985	85.41	0
1	160173	85.51	0
1	160361	85.61	0
1	160549	85.71	0
1	160737	85.81	0
1	160925	85.91	0
1	161119	86.01	0
1	161307	86.11	0
1	161495	86.21	0
1	161683	86.31	0
1	161871	86.41	0
1	162059	86.51	0
1	162247	86.61	0
1	162435	86.71	0
1	162623	86.81	0
1	162811	86.91	0
1	163005	87.01	0
1	163193	87.11	0
1	163381	87.21	0
1	163569	87.31	0
1	163757	87.41	0
1	163945	87.51	0
1	164133	87.61	0
1	164321	87.71	0
1	164509	87.81	0
1	164697	87.91	0
1	164891	88.01	0
1	165079	88.11	0
1	165267	88.21	0
1	165455	88.31	0
1	165643	88.41	0
1	165831	88.51	0
1	166019	88.61	0
1	166207	88.71	0
1	166395	88.81	0
1	166583	88.91	0
1	166777	89.01	0
1	166965	89.11	0
1	167153	89.21	1.8889
1	167341	89.31	1.8889
1	167529	89.41	1.8889
1	167717	89.51	1.8889
1	167905	89.61	1.8889
1	168093	89.71	1.8889
1	168281	89.81	1.8889
1	168469	89.91	1.8889
1	168663	90.01	1.8889
1	168851	90.11	1.8889
1	169039	90.21	1.8889
1	169227	90.31	1.8889
1	169415	90.41	1.8889
1	169603	90.51	1.8889
1	169791	90.61	1.8889
1	169979	90.71	1.8889
1	170167	90.81	1.8889
1	170355	90.91	1.8889
1	170549	91.01	1.8889
1	170737	91.11	1.8889
1	170925	91.21	1.8889
1	171113	91.31	1.8889
1	171301	91.41	1.8889
1	171489	91.51	1.8889
1	171677	91.61	1.8889
1	171865	91.71	1.8889
1	172053	91.81	1.8889
1	172241	91.91	1.8889
1	172435	92.01	1.8889
1	172623	92.11	1.8889
1	172811	92.21	1.8889
1	172999	92.31	1.8889
1	173187	92.41	1.8889
1	173375	92.51	1.8889
1	173563	92.61	1.8889
1	173751	92.71	1.8889
1	173939	92.81	1.8889
1	174127	92.91	1.8889
1	174321	93.01	1.8889
1	174509	93.11	1.8889
1	174697	93.21	1.8889
1	174885	93.31	1.8889
1	175073	93.41	1.8889
1	175261	93.51	1.8889
1	175449	93.61	1.8889
1	175637	93.71	1.8889
1	175825	93.81	1.8889
1	176013	93.91	1.8889
1	176207	94.01	1.8889
1	176395	94.11	1.8889
1	176583	94.21	1.8889
1	176771	94.31	1.8889
1	176959	94.41	1.8889
1	177147	94.51	1.8889
1	177335	94.61	1.8889
1	177523	94.71	1.8889
1	177711	94.81	1.8889
1	177899	94.91	1.8889
1	178093	95.01	1.8889
1	178281	95.11	1.8889
1	178469	95.21	1.8889
1	178657	95.31	1.8889
1	178845	95.41	1.8889
1	179033	95.51	1.8889
1	179221	95.61	1.8889
1	179409	95.71	1.8889
1	179597	95.81	1.8889
1	179785	95.91	1.8889
1	179979	96.01	1.8889
1	180167	96.11	1.8889
1	180355	96.21	1.8889
1	180543	96.31	1.8889
1	180731	96.41	1.8889
1	180919	96.51	1.8889
1	181107	96.61	1.8889
1	181295	96.71	1.8889
1	181483	96.81	1.8889
1	181671	96.91	1.8889
1	181865	97.01	1.8889
1	182053	97.11	1.8889
1	182241	97.21	1.8889
1	182429	97.31	1.8889
1	182617	97.41	1.8889
1	182805	97.51	1.8889
1	182993	97.61	1.8889
1	183181	97.71	1.8889
1	183369	97.81	1.8889
1	183557	97.91	1.8889
1	183751	98.01	1.8889
1	183939	98.11	1.8889
1	184127	98.21	1.8889
1	184315	98.31	1.8889
1	184503	98.41	1.8889
1	184691	98.51	1.8889
1	184879	98.61	1.8889
1	185067	98.71	1.8889
1	185255	98.81	1.8889
1	185443	98.91	1.8889
1	185637	99.01	1.8889
1	185825	99.11	1.8889
1	186013	99.21	1.8889
1	186201	99.31	1.8889
1	186389	99.41	1.8889
1	186577	99.51	1.8889
1	186765	99.61	1.8889
1	186953	99.71	1.8889
1	187141	99.81	1.8889
1	187329	99.91	1.8889
2	113	1.11	0
2	301	1.21	0
2	489	1.31	0
2	677	1.41	0
2	865	1.51	0
2	1053	1.61	0
2	1241	1.71	0
2	1429	1.81	0
2	1617	1.91	0
2	1811	2.01	0
2	1999	2.11	0
2	2187	2.21	0
2	2375	2.31	0
2	2563	2.41	0
2	2751	2.51	0
2	2939	2.61	0
2	3127	2.71	0
2	3315	2.81	0
2	3503	2.91	0
2	3697	3.01	0
2	3885	3.11	0
2	4073	3.21	0
2	4261	3.31	0
2	4449	3.41	0
2	4637	3.51	0
2	4825	3.61	0
2	5013	3.71	0
2	5201	3.81	0
2	5389	3.91	0
2	5583	4.01	0
2	5771	4.11	0
2	5959	4.21	0
2	6147	4.31	0
2	6335	4.41	0
2	6523	4.51	0
2	6711	4.61	0
2	6899	4.71	0
2	7087	4.81	0
2	7275	4.91	0
2	7469	5.01	0
2	7657	5.11	0
2	7845	5.21	0
2	8033	5.31	0
2	8221	5.41	0
2	8409	5.51	0
2	8597	5.61	0
2	8785	5.71	0
2	8973	5.81	0
2	9161	5.91	0
2	9355	6.01	0
2	9543	6.11	0
2	9731	6.21	0
2	9919	6.31	0
2	10107	6.41	0
2	10295	6.51	0
2	10483	6.61	0
2	10671	6.71	0
2	10859	6.81	0
2	11047	6.91	0
2	11241	7.01	0
2	11429	7.11	0
2	11617	7.21	0
2	11805	7.31	0
2	11993	7.41	0
2	12181	7.51	0
2	12369	7.61	0
2	12557	7.71	0
2	12745	7.81	0
2	12933	7.91	0
2	13127	8.01	0
2	13315	8.11	0
2	13503	8.21	0
2	13691	8.31	0
2	13879	8.41	0
2	14067	8.51	0
2	14255	8.61	0
2	14443	8.71	0
2	14631	8.81	0
2	14819	8.91	0
2	15013	9.01	0
2	15201	9.11	0
2	15389	9.21	0
2	15577	9.31	0
2	15765	9.41	0
2	15953	9.51	0
2	16141	9.61	0
2	16329	9.71	0
2	16517	9.81	0
2	16705	9.91	0
2	17359	10.01	0
2	17548	10.11	0
2	17737	10.21	0
2	17926	10.31	0
2	18115	10.41	0
2	18304	10.51	0
2	18493	10.61	0
2	18682	10.71	0
2	18871	10.81	0
2	19060	10.91	0
2	19255	11.01	0
2	19444	11.11	0
2	19633	11.21	0
2	19822	11.31	0
2	20011	11.41	0
2	20200	11.51	0
2	20389	11.61	0
2	20578	11.71	0
2	20767	11.81	0
2	20956	11.91	0
2	21151	12.01	0
2	21340	12.11	0
2	21529	12.21	0
2	21718	12.31	0
2	21907	12.41	0
2	22096	12.51	0
2	22285	12.61	0
2	22474	12.71	0
2	22663	12.81	0
2	22852	12.91	0
2	23047	13.01	0
2	23236	13.11	0
2	23425	13.21	0
2	23614	13.31	0
2	23803	13.41	0
2	23992	13.51	0
2	24181	13.61	0
2	24370	13.71	0
2	24559	13.81	0
2	24748	13.91	0
2	24943	14.01	0
2	25132	14.11	0
2	25321	14.21	0
2	25510	14.31	0
2	25699	14.41	0
2	25888	14.51	0
2	26077	14.61	0
2	26266	14.71	0
2	26455	14.81	0
2	26644	14.91	0
2	26839	15.01	0
2	27028	15.11	0
2	27217	15.21	0
2	27406	15.31	0
2	27595	15.41	0
2	27784	15.51	0
2	27973	15.61	0
2	28162	15.71	0
2	28351	15.81	0
2	28540	15.91	0
2	28735	16.01	0
2	28924	16.11	0
2	29113	16.21	0
2	29302	16.31	0
2	29491	16.41	0
2	29680	16.51	0
2	29869	16.61	0
2	30058	16.71	0
2	30247	16.81	0
2	30436	16.91	0
2	30631	17.01	0
2	30820	17.11	0
2	31009	17.21	0
2	31198	17.31	0
2	31387	17.41	0
2	31576	17.51	0
2	31765	17.61	0
2	31954	17.71	0
2	32143	17.81	0
2	32332	17.91	0
2	32527	18.01	0
2	32716	18.11	0
2	32905	18.21	0
2	33094	18.31	0
2	33283	18.41	0
2	33472	18.51	0
2	33661	18.61	0
2	33850	18.71	0
2	34039	18.81	0
2	34228	18.91	0
2	34423	19.01	0
2	34612	19.11	0
2	34801	19.21	0
2	34990	19.31	0
2	35179	19.41	0
2	35368	19.51	0
2	35557	19.61	0
2	35746	19.71	0
2	35935	19.81	0
2	36124	19.91	0
2	36319	20.01	0
2	36508	20.11	0
2	36697	20.21	0
2	36886	20.31	0
2	37075	20.41	0
2	37264	20.51	0
2	37453	20.61	0
2	37642	20.71	0
2	37831	20.81	0
2	38020	20.91	0
2	38215	21.01	0
2	38404	21.11	0
2	38593	21.21	0
2	38782	21.31	0
2	38971	21.41	0
2	39160	21.51	0
2	39349	21.61	0
2	39538	21.71	0
2	39727	21.81	0
2	39916	21.91	0
2	40111	22.01	0
2	40300	22.11	0
2	40489	22.21	0
2	40678	22.31	0
2	40867	22.41	0
2	41056	22.51	0
2	41245	22.61	0
2	41434	22.71	0
2	41623	22.81	0
2	41812	22.91	0
2	42007	23.01	0
2	42196	23.11	0
2	42385	23.21	0
2	42574	23.31	0
2	42763	23.41	0
2	42952	23.51	0
2	43141	23.61	0
2	43330	23.71	0
2	43519	23.81	0
2	43708	23.91	0
2	43903	24.01	0
2	44092	24.11	0
2	44281	24.21	0
2	44470	24.31	0
2	44659	24.41	0
2	44848	24.51	0
2	45037	24.61	0
2	45226	24.71	0
2	45415	24.81	0
2	45604	24.91	0
2	45799	25.01	0
2	45988	25.11	0
2	46177	25.21	0
2	46366	25.31	0
2	46555	25.41	0
2	46744	25.51	0
2	46933	25.61	0
2	47122	25.71	0
2	47311	25.81	0
2	47500	25.91	0
2	47695	26.01	0
2	47884	26.11	0
2	48073	26.21	0
2	48262	26.31	0
2	48451	26.41	0
2	48640	26.51	0
2	48829	26.61	0
2	49018	26.71	0
2	49207	26.81	0
2	49396	26.91	0
2	49591	27.01	0
2	49780	27.11	0
2	49969	27.21	0
2	50158	27.31	0
2	50347	27.41	0
2	50536	27.51	0
2	50725	27.61	0
2	50914	27.71	0
2	51103	27.81	0
2	51292	27.91	0
2	51487	28.01	0
2	51676	28.11	0
2	51865	28.21	0
2	52054	28.31	0
2	52243	28.41	0
2	52432	28.51	0
2	52621	28.61	0
2	52810	28.71	0
2	52999	28.81	0
2	53188	28.91	0
2	53383	29.01	0
2	53572	29.11	0
2	53761	29.21	0
2	53950	29.31	0
2	54139	29.41	0
2	54328	29.51	0
2	54517	29.61	0
2	54706	29.71	0
2	54895	29.81	0
2	55084	29.91	0
2	55279	30.01	0
2	55468	30.11	0
2	55657	30.21	0
2	55846	30.31	0
2	56035	30.41	0
2	56224	30.51	0
2	56413	30.61	0
2	56602	30.71	0
2	56791	30.81	0
2	56980	30.91	0
2	57175	31.01	0
2	57364	31.11	0
2	57553	31.21	0
2	57742	31.31	0
2	57931	31.41	0
2	58120	31.51	0
2	58309	31.61	0
2	58498	31.71	0
2	58687	31.81	0
2	58876	31.91	0
2	59071	32.01	0
2	59260	32.11	0
2	59449	32.21	0
2	59638	32.31	0
2	59827	32.41	0
2	60016	32.51	0
2	60205	32.61	0
2	60394	32.71	0
2	60583	32.81	0
2	60772	32.91	0
2	60967	33.01	0
2	61156	33.11	0
2	61345	33.21	0
2	61534	33.31	0
2	61723	33.41	0
2	61912	33.51	0
2	62101	33.61	0
2	62290	33.71	0
2	62479	33.81	0
2	62668	33.91	0
2	62863	34.01	0
2	63052	34.11	0
2	63241	34.21	0
2	63430	34.31	0
2	63619	34.41	0
2	63808	34.51	0
2	63997	34.61	0
2	64186	34.71	0
2	64375	34.81	0
2	64564	34.91	0
2	64759	35.01	0
2	64948	35.11	0
2	65137	35.21	0
2	65326	35.31	0
2	65515	35.41	0
2	65704	35.51	0
2	65893	35.61	0
2	66082	35.71	0
2	66271	35.81	0
2	66460	35.91	0
2	66655	36.01	0
2	66844	36.11	0
2	67033	36.21	0
2	67222	36.31	0
2	67411	36.41	0
2	67600	36.51	0
2	67789	36.61	0
2	67978	36.71	0
2	68167	36.81	0
2	68356	36.91	0
2	68551	37.01	0
2	68740	37.11	0
2	68929	37.21	0
2	69118	37.31	0
2	69307	37.41	0
2	69496	37.51	0
2	69685	37.61	0
2	69874	37.71	0
2	70063	37.81	0
2	70252	37.91	0
2	70447	38.01	0
2	70636	38.11	0
2	70825	38.21	0
2	71014	38.31	0
2	71203	38.41	0
2	71392	38.51	0
2	71581	38.61	0
2	71770	38.71	0
2	71959	38.81	0
2	72148	38.91	0
2	72343	39.01	0
2	72532	39.11	0
2	72721	39.21	0
2	72910	39.31	0
2	73099	39.41	0
2	73288	39.51	0
2	73477	39.61	0
2	73666	39.71	0
2	73855	39.81	0
2	74044	39.91	0
2	74239	40.01	0
2	74428	40.11	0
2	74617	40.21	0
2	74806	40.31	0
2	74995	40.41	0
2	75184	40.51	0
2	75373	40.61	0
2	75562	40.71	0
2	75751	40.81	0
2	75940	40.91	0
2	76135	41.01	0
2	76324	41.11	0
2	76513	41.21	0
2	76702	41.31	0
2	76891	41.41	0
2	77080	41.51	0
2	77269	41.61	0
2	77458	41.71	0
2	77647	41.81	0
2	77836	41.91	0
2	78031	42.01	0
2	78220	42.11	0
2	78409	42.21	0
2	78598	42.31	0
2	78787	42.41	0
2	78976	42.51	0
2	79165	42.61	0
2	79354	42.71	0
2	79543	42.81	0
2	79732	42.91	0
2	79927	43.01	0
2	80116	43.11	0
2	80305	43.21	0
2	80494	43.31	0
2	80683	43.41	0
2	80872	43.51	0
2	81061	43.61	0
2	81250	43.71	0
2	81439	43.81	0
2	81628	43.91	0
2	81823	44.01	0
2	82012	44.11	0
2	82201	44.21	0
2	82390	44.31	0
2	82579	44.41	0
2	82768	44.51	0
2	82957	44.61	0
2	83146	44.71	0
2	83335	44.81	0
2	83524	44.91	0
2	83719	45.01	0
2	83908	45.11	0
2	84097	45.21	0
2	84286	45.31	0
2	84475	45.41	0
2	84664	45.51	0
2	84853	45.61	0
2	85042	45.71	0
2	85297	45.81	0
2	85485	45.91	0
2	85679	46.01	0
2	85867	46.11	0
2	86055	46.21	0
2	86243	46.31	0
2	86431	46.41	0
2	86619	46.51	0
2	86807	46.61	0
2	86995	46.71	0
2	87183	46.81	0
2	87371	46.91	0
2	87565	47.01	0
2	87753	47.11	0
2	87941	47.21	0
2	88129	47.31	0
2	88317	47.41	0
2	88505	47.51	0
2	88693	47.61	0
2	88881	47.71	0
2	89069	47.81	0
2	89257	47.91	0
2	89451	48.01	0
2	89639	48.11	0
2	89827	48.21	0
2	90015	48.31	0
2	90203	48.41	0
2	90391	48.51	0
2	90579	48.61	0
2	90767	48.71	0
2	90955	48.81	0
2	91143	48.91	0
2	91337	49.01	0
2	91525	49.11	0
2	91713	49.21	0
2	91901	49.31	0
2	92089	49.41	0
2	92277	49.51	0
2	92465	49.61	0
2	92653	49.71	0
2	92841	49.81	0
2	93029	49.91	0
2	93223	50.01	0
2	93411	50.11	0
2	93599	50.21	0
2	93787	50.31	0
2	93975	50.41	0
2	94163	50.51	0
2	94351	50.61	0
2	94539	50.71	0
2	94727	50.81	0
2	94915	50.91	0
2	95109	51.01	0
2	95297	51.11	0
2	95485	51.21	0
2	95673	51.31	0
2	95861	51.41	0
2	96049	51.51	0
2	96237	51.61	0
2	96425	51.71	0
2	96613	51.81	0
2	96801	51.91	0
2	96995	52.01	0
2	97183	52.11	0
2	97371	52.21	0
2	97559	52.31	0
2	97747	52.41	0
2	97935	52.51	0
2	98123	52.61	0
2	98311	52.71	0
2	98499	52.81	0
2	98687	52.91	0
2	98881	53.01	0
2	99069	53.11	0
2	99257	53.21	0
2	99445	53.31	0
2	99633	53.41	0
2	99821	53.51	0
2	100009	53.61	0
2	100197	53.71	0
2	100385	53.81	0
2	100573	53.91	0
2	100767	54.01	0
2	100955	54.11	0
2	101143	54.21	0
2	101331	54.31	0
2	101519	54.41	0
2	101707	54.51	0
2	101895	54.61	0
2	102083	54.71	0
2	102271	54.81	0
2	102459	54.91	0
2	102653	55.01	0
2	102841	55.11	0
2	103029	55.21	0
2	103217	55.31	0
2	103405	55.41	0
2	103593	55.51	0
2	103781	55.61	0
2	103969	55.71	0
2	104157	55.81	0
2	104345	55.91	0
2	104539	56.01	0
2	104727	56.11	0
2	104915	56.21	0
2	105103	56.31	0
2	105291	56.41	0
2	105479	56.51	0
2	105667	56.61	0
2	105855	56.71	0
2	106043	56.81	0
2	106231	56.91	0
2	106425	57.01	0
2	106613	57.11	0
2	106801	57.21	0
2	106989	57.31	0
2	107177	57.41	0
2	107365	57.51	0
2	107553	57.61	0
2	107741	57.71	0
2	107929	57.81	0
2	108117	57.91	0
2	108311	58.01	0
2	108499	58.11	0
2	108687	58.21	0
2	108875	58.31	0
2	109063	58.41	0
2	109251	58.51	0
2	109439	58.61	0
2	109627	58.71	0
2	109815	58.81	0
2	110003	58.91	0
2	110197	59.01	0
2	110385	59.11	0
2	110573	59.21	0
2	110761	59.31	0
2	110949	59.41	0
2	111137	59.51	0
2	111325	59.61	0
2	111513	59.71	0
2	111701	59.81	0
2	111889	59.91	0
2	112083	60.01	0
2	112271	60.11	0
2	112459	60.21	0
2	112647	60.31	0
2	112835	60.41	0
2	113023	60.51	0
2	113211	60.61	0
2	113399	60.71	0
2	113587	60.81	0
2	113775	60.91	0
2	113969	61.01	0
2	114157	61.11	0
2	114345	61.21	0
2	114533	61.31	0
2	114721	61.41	0
2	114909	61.51	0
2	115097	61.61	0
2	115285	61.71	0
2	115473	61.81	0
2	115661	61.91	0
2	115855	62.01	0
2	116043	62.11	0
2	116231	62.21	0
2	116419	62.31	0
2	116607	62.41	0
2	116795	62.51	0
2	116983	62.61	0
2	117171	62.71	0
2	117359	62.81	0
2	117547	62.91	0
2	117741	63.01	0
2	117929	63.11	0
2	118117	63.21	0
2	118305	63.31	0
2	118493	63.41	0
2	118681	63.51	0
2	118869	63.61	0
2	119057	63.71	0
2	119245	63.81	0
2	119433	63.91	0
2	119627	64.01	0
2	119815	64.11	0
2	120003	64.21	0
2	120191	64.31	0
2	120379	64.41	0
2	120567	64.51	0
2	120755	64.61	0
2	120943	64.71	0
2	121131	64.81	0
2	121319	64.91	0
2	121513	65.01	0
2	121701	65.11	0
2	121889	65.21	0
2	122077	65.31	0
2	122265	65.41	0
2	122453	65.51	0
2	122641	65.61	0
2	122829	65.71	0
2	123017	65.81	0
2	123205	65.91	0
2	123399	66.01	0
2	123587	66.11	0
2	123775	66.21	0
2	123963	66.31	0
2	124151	66.41	0
2	124339	66.51	0
2	124527	66.61	0
2	124715	66.71	0
2	124903	66.81	0
2	125091	66.91	0
2	125285	67.01	0
2	125473	67.11	0
2	125661	67.21	0
2	125849	67.31	0
2	126037	67.41	0
2	126225	67.51	0
2	126413	67.61	0
2	126601	67.71	0
2	126789	67.81	0
2	126977	67.91	0
2	127171	68.01	0
2	127359	68.11	0
2	127547	68.21	0
2	127735	68.31	0
2	127923	68.41	0
2	128111	68.51	0
2	128299	68.61	0
2	128487	68.71	0
2	128675	68.81	0
2	128863	68.91	0
2	129057	69.01	0
2	129245	69.11	0
2	129433	69.21	0
2	129621	69.31	0
2	129809	69.41	0
2	129997	69.51	0
2	130185	69.61	0
2	130373	69.71	0
2	130561	69.81	0
2	130749	69.91	0
2	130943	70.01	0
2	131131	70.11	0
2	131319	70.21	0
2	131507	70.31	0
2	131695	70.41	0
2	131883	70.51	0
2	132071	70.61	0
2	132259	70.71	0
2	132447	70.81	0
2	132635	70.91	0
2	132829	71.01	0
2	133017	71.11	0
2	133205	71.21	0
2	133393	71.31	0
2	133581	71.41	0
2	133769	71.51	0
2	133957	71.61	0
2	134145	71.71	0
2	134333	71.81	0
2	134521	71.91	0
2	134715	72.01	0
2	134903	72.11	0
2	135091	72.21	0
2	135279	72.31	0
2	135467	72.41	0
2	135655	72.51	0
2	135843	72.61	0
2	136031	72.71	0
2	136219	72.81	0
2	136407	72.91	0
2	136601	73.01	0
2	136789	73.11	0
2	136977	73.21	0
2	137165	73.31	0
2	137353	73.41	0
2	137541	73.51	0
2	137729	73.61	0
2	137917	73.71	0
2	138105	73.81	0
2	138293	73.91	0
2	138487	74.01	0
2	138675	74.11	0
2	138863	74.21	0
2	139051	74.31	0
2	139239	74.41	0
2	139427	74.51	0
2	139615	74.61	0
2	139803	74.71	0
2	139991	74.81	0
2	140179	74.91	0
2	140373	75.01	0
2	140561	75.11	0
2	140749	75.21	0
2	140937	75.31	0
2	141125	75.41	0
2	141313	75.51	0
2	141501	75.61	0
2	141689	75.71	0
2	141877	75.81	0
2	142065	75.91	0
2	142259	76.01	0
2	142447	76.11	0
2	142635	76.21	0
2	142823	76.31	0
2	143011	76.41	0
2	143199	76.51	0
2	143387	76.61	0
2	143575	76.71	0
2	143763	76.81	0
2	143951	76.91	0
2	144145	77.01	0
2	144333	77.11	0
2	144521	77.21	0
2	144709	77.31	0
2	144897	77.41	0
2	145085	77.51	0
2	145273	77.61	0
2	145461	77.71	0
2	145649	77.81	0
2	145837	77.91	0
2	146031	78.01	0
2	146219	78.11	0
2	146407	78.21	0
2	146595	78.31	0
2	146783	78.41	0
2	146971	78.51	0
2	147159	78.61	0
2	147347	78.71	0
2	147535	78.81	0
2	147723	78.91	0
2	147917	79.01	0
2	148105	79.11	0
2	148293	79.21	0
2	148481	79.31	0
2	148669	79.41	0
2	148857	79.51	0
2	149045	79.61	0
2	149233	79.71	0
2	149421	79.81	0
2	149609	79.91	0
2	149803	80.01	0
2	149991	80.11	0
2	150179	80.21	0
2	150367	80.31	0
2	150555	80.41	0
2	150743	80.51	0
2	150931	80.61	0
2	151119	80.71	0
2	151307	80.81	0
2	151495	80.91	0
2	151689	81.01	0
2	151877	81.11	0
2	152065	81.21	0
2	152253	81.31	0
2	152441	81.41	0
2	152629	81.51	0
2	152817	81.61	0
2	153005	81.71	0
2	153193	81.81	0
2	153381	81.91	0
2	153575	82.01	0
2	153763	82.11	0
2	153951	82.21	0
2	154139	82.31	0
2	154327	82.41	0
2	154515	82.51	0
2	154703	82.61	0
2	154891	82.71	0
2	155079	82.81	0
2	155267	82.91	0
2	155461	83.01	0
2	155649	83.11	0
2	155837	83.21	0
2	156025	83.31	0
2	156213	83.41	0
2	156401	83.51	0
2	156589	83.61	0
2	156777	83.71	0
2	156965	83.81	0
2	157153	83.91	0
2	157347	84.01	0
2	157535	84.11	0
2	157723	84.21	0
2	157911	84.31	0
2	158099	84.41	0
2	158287	84.51	0
2	158475	84.61	0
2	158663	84.71	0
2	158851	84.81	0
2	159039	84.91	0
2	159233	85.01	0
2	159421	85.11	0
2	159609	85.21	0
2	159797	85.31	0
2	159985	85.41	0
2	160173	85.51	0
2	160361	85.61	0
2	160549	85.71	0
2	160737	85.81	0
2	160925	85.91	0
2	161119	86.01	0
2	161307	86.11	0
2	161495	86.21	0
2	161683	86.31	0
2	161871	86.41	0
2	162059	86.51	0
2	162247	86.61	0
2	162435	86.71	0
2	162623	86.81	0
2	162811	86.91	0
2	163005	87.01	0
2	163193	87.11	0
2	163381	87.21	0
2	163569	87.31	0
2	163757	87.41	0
2	163945	87.51	0
2	164133	87.61	0
2	164321	87.71	0
2	164509	87.81	0
2	164697	87.91	0
2	164891	88.01	0
2	165079	88.11	0
2	165267	88.21	0
2	165455	88.31	0
2	165643	88.41	0
2	165831	88.51	0
2	166019	88.61	0
2	166207	88.71	0
2	166395	88.81	0
2	166583	88.91	0
2	166777	89.01	0
2	166965	89.11	0
2	167153	89.21	0
2	167341	89.31	0
2	167529	89.41	0
2	167717	89.51	0
2	167905	89.61	0
2	168093	89.71	0
2	168281	89.81	0
2	168469	89.91	0
2	168663	90.01	0
2	168851	90.11	0
2	169039	90.21	0
2	169227	90.31	0
2	169415	90.41	0
2	169603	90.51	0
2	169791	90.61	0
2	169979	90.71	0
2	170167	90.81	0
2	170355	90.91	0
2	170549	91.01	0
2	170737	91.11	0
2	170925	91.21	0
2	171113	91.31	0
2	171301	91.41	0
2	171489	91.51	0
2	171677	91.61	0
2	171865	91.71	0
2	172053	91.81	0
2	172241	91.91	0
2	172435	92.01	0
2	172623	92.11	0
2	172811	92.21	0
2	172999	92.31	0
2	173187	92.41	0
2	173375	92.51	0
2	173563	92.61	0
2	173751	92.71	0
2	173939	92.81	0
2	174127	92.91	0
2	174321	93.01	0
2	174509	93.11	0
2	174697	93.21	0
2	174885	93.31	0
2	175073	93.41	0
2	175261	93.51	0
2	175449	93.61	0
2	175637	93.71	0
2	175825	93.81	0
2	176013	93.91	0
2	176207	94.01	0
2	176395	94.11	0
2	176583	94.21	0
2	176771	94.31	0
2	176959	94.41	0
2	177147	94.51	0
2	177335	94.61	0
2	177523	94.71	0
2	177711	94.81	0
2	177899	94.91	0
2	178093	95.01	0
2	178281	95.11	0
2	178469	95.21	0
2	178657	95.31	0
2	178845	95.41	0
2	179033	95.51	0
2	179221	95.61	0
2	179409	95.71	0
2	179597	95.81	0
2	179785	95.91	0
2	179979	96.01	0
2	180167	96.11	0
2	180355	96.21	0
2	180543	96.31	0
2	180731	96.41	0
2	180919	96.51	0
2	181107	96.61	0
2	181295	96.71	0
2	181483	96.81	0
2	181671	96.91	0
2	181865	97.01	0
2	182053	97.11	0
2	182241	97.21	0
2	182429	97.31	0
2	182617	97.41	0
2	182805	97.51	0
2	182993	97.61	0
2	183181	97.71	0
2	183369	97.81	0
2	183557	97.91	0
2	183751	98.01	0
2	183939	98.11	0
2	184127	98.21	0
2	184315	98.31	0
2	184503	98.41	0
2	184691	98.51	0
2	184879	98.61	0
2	185067	98.71	0
2	185255	98.81	0
2	185443	98.91	0
2	185637	99.01	0
2	185825	99.11	0
2	186013	99.21	0
2	186201	99.31	0
2	186389	99.41	0
2	186577	99.51	0
2	186765	99.61	0
2	186953	99.71	0
2	187141	99.81	0
2	187329	99.91	0
3	113	1.11	0.000179096
3	301	1.21	0.000340852
3	489	1.31	0.000467435
3	677	1.41	0.000562893
3	865	1.51	0.000631106
3	1053	1.61	0.000675745
3	1241	1.71	0.000700245
3	1429	1.81	0.000707784
3	1617	1.91	0.000701273
3	1811	2.01	0.000683354
3	1999	2.11	0.000656398
3	2187	2.21	0.000622512
3	2375	2.31	0.000583548
3	2563	2.41	0.000541117
3	2751	2.51	0.000496604
3	2939	2.61	0.000451181
3	3127	2.71	0.000405825
3	3315	2.81	0.00036134
3	3503	2.91	0.000318365
3	3697	3.01	0.0002774
3	3885	3.11	0.00023882
3	4073	3.21	0.000202887
3	4261	3.31	0.00016977
3	4449	3.41	0.000139558
3	4637	3.51	0.000112271
3	4825	3.61	8.78717e-05
3	5013	3.71	6.628e-05
3	5201	3.81	4.73785e-05
3	5389	3.91	3.1023e-05
3	5583	4.01	1.70493e-05
3	5771	4.11	5.28023e-06
3	5959	4.21	-4.46922e-06
3	6147	4.31	-1.2387e-05
3	6335	4.41	-1.86602e-05
3	6523	4.51	-2.34717e-05
3	6711	4.61	-2.69978e-05
3	6899	4.71	-2.94062e-05
3	7087	4.81	-3.08545e-05
3	7275	4.91	-3.14892e-05
3	7469	5.01	-3.14451e-05
3	7657	5.11	-3.0845e-05
3	7845	5.21	-2.97994e-05
3	8033	5.31	-2.84072e-05
3	8221	5.41	-2.67556e-05
3	8409	5.51	-2.49208e-05
3	8597	5.61	-2.29687e-05
3	8785	5.71	-2.09553e-05
3	8973	5.81	-1.89277e-05
3	9161	5.91	-1.6925e-05
3	9355	6.01	-1.49784e-05
3	9543	6.11	-1.31129e-05
3	9731	6.21	-1.13474e-05
3	9919	6.31	-9.69553e-06
3	10107	6.41	-8.16651e-06
3	10295	6.51	-6.76571e-06
3	10483	6.61	-5.49522e-06
3	10671	6.71	-4.35441e-06
3	10859	6.81	-3.34045e-06
3	11047	6.91	-2.44874e-06
3	11241	7.01	-1.6733e-06
3	11429	7.11	-1.00716e-06
3	11617	7.21	-4.42628e-07
3	11805	7.31	2.84224e-08
3	11993	7.41	4.14339e-07
3	12181	7.51	7.23492e-07
3	12369	7.61	9.6413e-07
3	12557	7.71	1.14424e-06
3	12745	7.81	1.27148e-06
3	12933	7.91	1.35305e-06
3	13127	8.01	1.3957e-06
3	13315	8.11	1.40565e-06
3	13503	8.21	1.3886e-06
3	13691	8.31	1.34971e-06
3	13879	8.41	1.2936e-06
3	14067	8.51	1.22437e-06
3	14255	8.61	1.14561e-06
3	14443	8.71	1.06046e-06
3	14631	8.81	9.71582e-07
3	14819	8.91	8.81246e-07
3	15013	9.01	7.91334e-07
3	15201	9.11	7.03381e-07
3	15389	9.21	6.18613e-07
3	15577	9.31	5.37979e-07
3	15765	9.41	4.62183e-07
3	15953	9.51	3.91714e-07
3	16141	9.61	3.26878e-07
3	16329	9.71	2.67827e-07
3	16517	9.81	2.14581e-07
3	16705	9.91	1.67052e-07
3	17359	10.01	1.25066e-07
3	17548	10.11	8.83794e-08
3	17737	10.21	5.66978e-08
3	17926	10.31	2.96922e-08
3	18115	10.41	7.00453e-09
3	18304	10.51	-1.17325e-08
3	18493	10.61	-2.68933e-08
3	18682	10.71	-3.88482e-08
3	18871	10.81	-4.79581e-08
3	19060	10.91	-5.45704e-08
3	19255	11.01	-5.90177e-08
3	19444	11.11	-6.16069e-08
3	19633	11.21	-6.26265e-08
3	19822	11.31	-6.23395e-08
3	20011	11.41	-6.09859e-08
3	20200	11.51	-5.87811e-08
3	20389	11.61	-5.59183e-08
3	20578	11.71	-5.25674e-08
3	20767	11.81	-4.88761e-08
3	20956	11.91	-4.4971e-08
3	21151	12.01	-4.09599e-08
3	21340	12.11	-3.69354e-08
3	21529	12.21	-3.29713e-08
3	21718	12.31	-2.9128e-08
3	21907	12.41	-2.54531e-08
3	22096	12.51	-2.19821e-08
3	22285	12.61	-1.87399e-08
3	22474	12.71	-1.57428e-08
3	22663	12.81	-1.30029e-08
3	22852	12.91	-1.05217e-08
3	23047	13.01	-8.29772e-09
3	23236	13.11	-6.32454e-09
3	23425	13.21	-4.59224e-09
3	23614	13.31	-3.08802e-09
3	23803	13.41	-1.79838e-09
3	23992	13.51	-7.08411e-10
3	24181	13.61	1.98241e-10
3	24370	13.71	9.37916e-10
3	24559	13.81	1.52767e-09
3	24748	13.91	1.98384e-09
3	24943	14.01	2.32276e-09
3	25132	14.11	2.55937e-09
3	25321	14.21	2.70788e-09
3	25510	14.31	2.78249e-09
3	25699	14.41	2.79243e-09
3	25888	14.51	2.7498e-09
3	26077	14.61	2.66525e-09
3	26266	14.71	2.54872e-09
3	26455	14.81	2.40803e-09
3	26644	14.91	2.24887e-09
3	26839	15.01	2.07763e-09
3	27028	15.11	1.89999e-09
3	27217	15.21	1.72236e-09
3	27406	15.31	1.54472e-09
3	27595	15.41	1.37064e-09
3	27784	15.51	1.20295e-09
3	27973	15.61	1.04379e-09
3	28162	15.71	8.94573e-10
3	28351	15.81	7.56017e-10
3	28540	15.91	6.29541e-10
3	28735	16.01	5.13012e-10
3	28924	16.11	4.09273e-10
3	29113	16.21	3.16902e-10
3	29302	16.31	2.3519e-10
3	29491	16.41	1.63425e-10
3	29680	16.51	1.02318e-10
3	29869	16.61	4.9738e-11
3	30058	16.71	5.68434e-12
3	30247	16.81	-3.05533e-11
3	30436	16.91	-5.8975e-11
3	30631	17.01	-8.10019e-11
3	30820	17.11	-9.80549e-11
3	31009	17.21	-1.11555e-10
3	31198	17.31	-1.18661e-10
3	31387	17.41	-1.23634e-10
3	31576	17.51	-1.23634e-10
3	31765	17.61	-1.23634e-10
3	31954	17.71	-1.21503e-10
3	32143	17.81	-1.14397e-10
3	32332	17.91	-1.07292e-10
3	32527	18.01	-1.00187e-10
3	32716	18.11	-9.30811e-11
3	32905	18.21	-8.59757e-11
3	33094	18.31	-7.88702e-11
3	33283	18.41	-7.17648e-11
3	33472	18.51	-6.46594e-11
3	33661	18.61	-5.7554e-11
3	33850	18.71	-5.04485e-11
3	34039	18.81	-4.33431e-11
3	34228	18.91	-3.62377e-11
3	34423	19.01	-2.91323e-11
3	34612	19.11	-2.20268e-11
3	34801	19.21	-1.7053e-11
3	34990	19.31	-1.49214e-11
3	35179	19.41	-1.35003e-11
3	35368	19.51	-1.27898e-11
3	35557	19.61	-1.13687e-11
3	35746	19.71	-9.9476e-12
3	35935	19.81	-9.23706e-12
3	36124	19.91	-8.52651e-12
3	36319	20.01	-7.81597e-12
3	36508	20.11	-7.10543e-12
3	36697	20.21	-6.39488e-12
3	36886	20.31	-5.68434e-12
3	37075	20.41	-4.9738e-12
3	37264	20.51	-4.26326e-12
3	37453	20.61	-4.26326e-12
3	37642	20.71	-3.55271e-12
3	37831	20.81	-3.55271e-12
3	38020	20.91	-2.84217e-12
3	38215	21.01	-2.84217e-12
3	38404	21.11	-2.84217e-12
3	38593	21.21	-2.13163e-12
3	38782	21.31	-2.13163e-12
3	38971	21.41	-2.13163e-12
3	39160	21.51	-1.42109e-12
3	39349	21.61	-1.42109e-12
3	39538	21.71	-1.42109e-12
3	39727	21.81	-1.42109e-12
3	39916	21.91	-1.42109e-12
3	40111	22.01	-7.10543e-13
3	40300	22.11	-7.10543e-13
3	40489	22.21	-7.10543e-13
3	40678	22.31	-7.10543e-13
3	40867	22.41	-7.10543e-13
3	41056	22.51	-7.10543e-13
3	41245	22.61	-7.10543e-13
3	41434	22.71	-7.10543e-13
3	41623	22.81	-7.10543e-13
3	41812	22.91	-7.10543e-13
3	42007	23.01	0
3	42196	23.11	0
3	42385	23.21	0
3	42574	23.31	0
3	42763	23.41	0
3	42952	23.51	0
3	43141	23.61	0
3	43330	23.71	0
3	43519	23.81	0
3	43708	23.91	0
3	43903	24.01	0
3	44092	24.11	0
3	44281	24.21	0
3	44470	24.31	0
3	44659	24.41	0
3	44848	24.51	0
3	45037	24.61	0
3	45226	24.71	0
3	45415	24.81	0
3	45604	24.91	0
3	45799	25.01	0
3	45988	25.11	0
3	46177	25.21	0
3	46366	25.31	0
3	46555	25.41	0
3	46744	25.51	0
3	46933	25.61	0
3	47122	25.71	0
3	47311	25.81	0
3	47500	25.91	0
3	47695	26.01	0
3	47884	26.11	0
3	48073	26.21	0
3	48262	26.31	0
3	48451	26.41	0
3	48640	26.51	0
3	48829	26.61	0
3	49018	26.71	0
3	49207	26.81	0
3	49396	26.91	0
3	49591	27.01	0
3	49780	27.11	0
3	49969	27.21	0
3	50158	27.31	0
3	50347	27.41	0
3	50536	27.51	0
3	50725	27.61	0
3	50914	27.71	0
3	51103	27.81	0
3	51292	27.91	0
3	51487	28.01	0
3	51676	28.11	0
3	51865	28.21	0
3	52054	28.31	0
3	52243	28.41	0
3	52432	28.51	0
3	52621	28.61	0
3	52810	28.71	0
3	52999	28.81	0
3	53188	28.91	0
3	53383	29.01	0
3	53572	29.11	0
3	53761	29.21	0
3	53950	29.31	0
3	54139	29.41	0
3	54328	29.51	0
3	54517	29.61	0
3	54706	29.71	0
3	54895	29.81	0
3	55084	29.91	0
3	55279	30.01	0
3	55468	30.11	0
3	55657	30.21	0
3	55846	30.31	0
3	56035	30.41	0
3	56224	30.51	0
3	56413	30.61	0
3	56602	30.71	0
3	56791	30.81	0
3	56980	30.91	0
3	57175	31.01	0
3	57364	31.11	0
3	57553	31.21	0
3	57742	31.31	0
3	57931	31.41	0
3	58120	31.51	0
3	58309	31.61	0
3	58498	31.71	0
3	58687	31.81	0
3	58876	31.91	0
3	59071	32.01	0
3	59260	32.11	0
3	59449	32.21	0
3	59638	32.31	0
3	59827	32.41	0
3	60016	32.51	0
3	60205	32.61	0
3	60394	32.71	0
3	60583	32.81	0
3	60772	32.91	0
3	60967	33.01	0
3	61156	33.11	0
3	61345	33.21	0
3	61534	33.31	0
3	61723	33.41	0
3	61912	33.51	0
3	62101	33.61	0
3	62290	33.71	0
3	62479	33.81	0
3	62668	33.91	0
3	62863	34.01	0
3	63052	34.11	0
3	63241	34.21	0
3	63430	34.31	0
3	63619	34.41	0
3	63808	34.51	0
3	63997	34.61	0
3	64186	34.71	0
3	64375	34.81	0
3	64564	34.91	0
3	64759	35.01	0
3	64948	35.11	0
3	65137	35.21	0
3	65326	35.31	0
3	65515	35.41	0
3	65704	35.51	0
3	65893	35.61	0
3	66082	35.71	0
3	66271	35.81	0
3	66460	35.91	0
3	66655	36.01	0
3	66844	36.11	0
3	67033	36.21	0
3	67222	36.31	0
3	67411	36.41	0
3	67600	36.51	0
3	67789	36.61	0
3	67978	36.71	0
3	68167	36.81	0
3	68356	36.91	0
3	68551	37.01	0
3	68740	37.11	0
3	68929	37.21	0
3	69118	37.31	0
3	69307	37.41	0
3	69496	37.51	0
3	69685	37.61	0
3	69874	37.71	0
3	70063	37.81	0
3	70252	37.91	0
3	70447	38.01	0
3	70636	38.11	0
3	70825	38.21	0
3	71014	38.31	0
3	71203	38.41	0
3	71392	38.51	0
3	71581	38.61	0
3	71770	38.71	0
3	71959	38.81	0
3	72148	38.91	0
3	72343	39.01	0
3	72532	39.11	0
3	72721	39.21	0
3	72910	39.31	0
3	73099	39.41	0
3	73288	39.51	0
3	73477	39.61	0
3	73666	39.71	0
3	73855	39.81	0
3	74044	39.91	0
3	74239	40.01	0
3	74428	40.11	0
3	74617	40.21	0
3	74806	40.31	0
3	74995	40.41	0
3	75184	40.51	0
3	75373	40.61	0
3	75562	40.71	0
3	75751	40.81	0
3	75940	40.91	0
3	76135	41.01	0
3	76324	41.11	0
3	76513	41.21	0
3	76702	41.31	0
3	76891	41.41	0
3	77080	41.51	0
3	77269	41.61	0
3	77458	41.71	0
3	77647	41.81	0
3	77836	41.91	0
3	78031	42.01	0
3	78220	42.11	0
3	78409	42.21	0
3	78598	42.31	0
3	78787	42.41	0
3	78976	42.51	0
3	79165	42.61	0
3	79354	42.71	0
3	79543	42.81	0
3	79732	42.91	0
3	79927	43.01	0
3	80116	43.11	0
3	80305	43.21	0
3	80494	43.31	0
3	80683	43.41	0
3	80872	43.51	0
3	81061	43.61	0
3	81250	43.71	0
3	81439	43.81	0
3	81628	43.91	0
3	81823	44.01	0
3	82012	44.11	0
3	82201	44.21	0
3	82390	44.31	0
3	82579	44.41	0
3	82768	44.51	0
3	82957	44.61	0
3	83146	44.71	0
3	83335	44.81	0
3	83524	44.91	0
3	83719	45.01	0
3	83908	45.11	0
3	84097	45.21	0
3	84286	45.31	0
3	84475	45.41	0
3	84664	45.51	0
3	84853	45.61	0
3	85042	45.71	0
3	85297	45.81	0
3	85485	45.91	0
3	85679	46.01	0
3	85867	46.11	0
3	86055	46.21	0
3	86243	46.31	0
3	86431	46.41	0
3	86619	46.51	0
3	86807	46.61	0
3	86995	46.71	0
3	87183	46.81	0
3	87371	46.91	0
3	87565	47.01	0
3	87753	47.11	0
3	87941	47.21	0
3	88129	47.31	0
3	88317	47.41	0
3	88505	47.51	0
3	88693	47.61	0
3	88881	47.71	0
3	89069	47.81	0
3	89257	47.91	0
3	89451	48.01	0
3	89639	48.11	0
3	89827	48.21	0
3	90015	48.31	0
3	90203	48.41	0
3	90391	48.51	0
3	90579	48.61	0
3	90767	48.71	0
3	90955	48.81	0
3	91143	48.91	0
3	91337	49.01	0
3	91525	49.11	0
3	91713	49.21	0
3	91901	49.31	0
3	92089	49.41	0
3	92277	49.51	0
3	92465	49.61	0
3	92653	49.71	0
3	92841	49.81	0
3	93029	49.91	0
3	93223	50.01	0
3	93411	50.11	0
3	93599	50.21	0
3	93787	50.31	0
3	93975	50.41	0
3	94163	50.51	0
3	94351	50.61	0
3	94539	50.71	0
3	94727	50.81	0
3	94915	50.91	0
3	95109	51.01	0
3	95297	51.11	0
3	95485	51.21	0
3	95673	51.31	0
3	95861	51.41	0
3	96049	51.51	0
3	96237	51.61	0
3	96425	51.71	0
3	96613	51.81	0
3	96801	51.91	0
3	96995	52.01	0
3	97183	52.11	0
3	97371	52.21	0
3	97559	52.31	0
3	97747	52.41	0
3	97935	52.51	0
3	98123	52.61	0
3	98311	52.71	0
3	98499	52.81	0
3	98687	52.91	0
3	98881	53.01	0
3	99069	53.11	0
3	99257	53.21	0
3	99445	53.31	0
3	99633	53.41	0
3	99821	53.51	0
3	100009	53.61	0
3	100197	53.71	0
3	100385	53.81	0
3	100573	53.91	0
3	100767	54.01	0
3	100955	54.11	0
3	101143	54.21	0
3	101331	54.31	0
3	101519	54.41	0
3	101707	54.51	0
3	101895	54.61	0
3	102083	54.71	0
3	102271	54.81	0
3	102459	54.91	0
3	102653	55.01	0
3	102841	55.11	0
3	103029	55.21	0
3	103217	55.31	0
3	103405	55.41	0
3	103593	55.51	0
3	103781	55.61	0
3	103969	55.71	0
3	104157	55.81	0
3	104345	55.91	0
3	104539	56.01	0
3	104727	56.11	0
3	104915	56.21	0
3	105103	56.31	0
3	105291	56.41	0
3	105479	56.51	0
3	105667	56.61	0
3	105855	56.71	0
3	106043	56.81	0
3	106231	56.91	0
3	106425	57.01	0
3	106613	57.11	0
3	106801	57.21	0
3	106989	57.31	0
3	107177	57.41	0
3	107365	57.51	0
3	107553	57.61	0
3	107741	57.71	0
3	107929	57.81	0
3	108117	57.91	0
3	108311	58.01	0
3	108499	58.11	0
3	108687	58.21	0
3	108875	58.31	0
3	109063	58.41	0
3	109251	58.51	0
3	109439	58.61	0
3	109627	58.71	0
3	109815	58.81	0
3	110003	58.91	0
3	110197	59.01	0
3	110385	59.11	0
3	110573	59.21	0
3	110761	59.31	0
3	110949	59.41	0
3	111137	59.51	0
3	111325	59.61	0
3	111513	59.71	0
3	111701	59.81	0
3	111889	59.91	0
3	112083	60.01	0
3	112271	60.11	0
3	112459	60.21	0
3	112647	60.31	0
3	112835	60.41	0
3	113023	60.51	0
3	113211	60.61	0
3	113399	60.71	0
3	113587	60.81	0
3	113775	60.91	0
3	113969	61.01	0
3	114157	61.11	0
3	114345	61.21	0
3	114533	61.31	0
3	114721	61.41	0
3	114909	61.51	0
3	115097	61.61	0
3	115285	61.71	0
3	115473	61.81	0
3	115661	61.91	0
3	115855	62.01	0
3	116043	62.11	0
3	116231	62.21	0
3	116419	62.31	0
3	116607	62.41	0
3	116795	62.51	0
3	116983	62.61	0
3	117171	62.71	0
3	117359	62.81	0
3	117547	62.91	0
3	117741	63.01	0
3	117929	63.11	0
3	118117	63.21	0
3	118305	63.31	0
3	118493	63.41	0
3	118681	63.51	0
3	118869	63.61	0
3	119057	63.71	0
3	119245	63.81	0
3	119433	63.91	0
3	119627	64.01	0
3	119815	64.11	0
3	120003	64.21	0
3	120191	64.31	0
3	120379	64.41	0
3	120567	64.51	0
3	120755	64.61	0
3	120943	64.71	0
3	121131	64.81	0
3	121319	64.91	0
3	121513	65.01	0
3	121701	65.11	0
3	121889	65.21	0
3	122077	65.31	0
3	122265	65.41	0
3	122453	65.51	0
3	122641	65.61	0
3	122829	65.71	0
3	123017	65.81	0
3	123205	65.91	0
3	123399	66.01	0
3	123587	66.11	0
3	123775	66.21	0
3	123963	66.31	0
3	124151	66.41	0
3	124339	66.51	0
3	124527	66.61	0
3	124715	66.71	0
3	124903	66.81	0
3	125091	66.91	0
3	125285	67.01	0
3	125473	67.11	0
3	125661	67.21	0
3	125849	67.31	0
3	126037	67.41	0
3	126225	67.51	0
3	126413	67.61	0
3	126601	67.71	0
3	126789	67.81	0
3	126977	67.91	0
3	127171	68.01	0
3	127359	68.11	0
3	127547	68.21	0
3	127735	68.31	0
3	127923	68.41	0
3	128111	68.51	0
3	128299	68.61	0
3	128487	68.71	0
3	128675	68.81	0
3	128863	68.91	0
3	129057	69.01	0
3	129245	69.11	0
3	129433	69.21	0
3	129621	69.31	0
3	129809	69.41	0
3	129997	69.51	0
3	130185	69.61	0
3	130373	69.71	0
3	130561	69.81	0
3	130749	69.91	0
3	130943	70.01	0
3	131131	70.11	0
3	131319	70.21	0
3	131507	70.31	0
3	131695	70.41	0
3	131883	70.51	0
3	132071	70.61	0
3	132259	70.71	0
3	132447	70.81	0
3	132635	70.91	0
3	132829	71.01	0
3	133017	71.11	0
3	133205	71.21	0
3	133393	71.31	0
3	133581	71.41	0
3	133769	71.51	0
3	133957	71.61	0
3	134145	71.71	0
3	134333	71.81	0
3	134521	71.91	0
3	134715	72.01	0
3	134903	72.11	0
3	135091	72.21	0
3	135279	72.31	0
3	135467	72.41	0
3	135655	72.51	0
3	135843	72.61	0
3	136031	72.71	0
3	136219	72.81	0
3	136407	72.91	0
3	136601	73.01	0
3	136789	73.11	0
3	136977	73.21	0
3	137165	73.31	0
3	137353	73.41	0
3	137541	73.51	0
3	137729	73.61	0
3	137917	73.71	0
3	138105	73.81	0
3	138293	73.91	0
3	138487	74.01	0
3	138675	74.11	0
3	138863	74.21	0
3	139051	74.31	0
3	139239	74.41	0
3	139427	74.51	0
3	139615	74.61	0
3	139803	74.71	0
3	139991	74.81	0
3	140179	74.91	0
3	140373	75.01	0
3	140561	75.11	0
3	140749	75.21	0
3	140937	75.31	0
3	141125	75.41	0
3	141313	75.51	0
3	141501	75.61	0
3	141689	75.71	0
3	141877	75.81	0
3	142065	75.91	0
3	142259	76.01	0
3	142447	76.11	0
3	142635	76.21	0
3	142823	76.31	0
3	143011	76.41	0
3	143199	76.51	0
3	143387	76.61	0
3	143575	76.71	0
3	143763	76.81	0
3	143951	76.91	0
3	144145	77.01	0
3	144333	77.11	0
3	144521	77.21	0
3	144709	77.31	0
3	144897	77.41	0
3	145085	77.51	0
3	145273	77.61	0
3	145461	77.71	0
3	145649	77.81	0
3	145837	77.91	0
3	146031	78.01	0
3	146219	78.11	0
3	146407	78.21	0
3	146595	78.31	0
3	146783	78.41	0
3	146971	78.51	0
3	147159	78.61	0
3	147347	78.71	0
3	147535	78.81	0
3	147723	78.91	0
3	147917	79.01	0
3	148105	79.11	0
3	148293	79.21	0
3	148481	79.31	0
3	148669	79.41	0
3	148857	79.51	0
3	149045	79.61	0
3	149233	79.71	0
3	149421	79.81	0
3	149609	79.91	0
3	149803	80.01	0
3	149991	80.11	0
3	150179	80.21	0
3	150367	80.31	0
3	150555	80.41	0
3	150743	80.51	0
3	150931	80.61	0
3	151119	80.71	0
3	151307	80.81	0
3	151495	80.91	0
3	151689	81.01	0
3	151877	81.11	0
3	152065	81.21	0
3	152253	81.31	0
3	152441	81.41	0
3	152629	81.51	0
3	152817	81.61	0
3	153005	81.71	0
3	153193	81.81	0
3	153381	81.91	0
3	153575	82.01	0
3	153763	82.11	0
3	153951	82.21	0
3	154139	82.31	0
3	154327	82.41	0
3	154515	82.51	0
3	154703	82.61	0
3	154891	82.71	0
3	155079	82.81	0
3	155267	82.91	0
3	155461	83.01	0
3	155649	83.11	0
3	155837	83.21	0
3	156025	83.31	0
3	156213	83.41	0
3	156401	83.51	0
3	156589	83.61	0
3	156777	83.71	0
3	156965	83.81	0
3	157153	83.91	0
3	157347	84.01	0
3	157535	84.11	0
3	157723	84.21	0
3	157911	84.31	0
3	158099	84.41	0
3	158287	84.51	0
3	158475	84.61	0
3	158663	84.71	0
3	158851	84.81	0
3	159039	84.91	0
3	159233	85.01	0
3	159421	85.11	0
3	159609	85.21	0
3	159797	85.31	0
3	159985	85.41	0
3	160173	85.51	0
3	160361	85.61	0
3	160549	85.71	0
3	160737	85.81	0
3	160925	85.91	0
3	161119	86.01	0
3	161307	86.11	0
3	161495	86.21	0
3	161683	86.31	0
3	161871	86.41	0
3	162059	86.51	0
3	162247	86.61	0
3	162435	86.71	0
3	162623	86.81	0
3	162811	86.91	0
3	163005	87.01	0
3	163193	87.11	0
3	163381	87.21	0
3	163569	87.31	0
3	163757	87.41	0
3	163945	87.51	0
3	164133	87.61	0
3	164321	87.71	0
3	164509	87.81	0
3	164697	87.91	0
3	164891	88.01	0
3	165079	88.11	0
3	165267	88.21	0
3	165455	88.31	0
3	165643	88.41	0
3	165831	88.51	0
3	166019	88.61	0
3	166207	88.71	0
3	166395	88.81	0
3	166583	88.91	0
3	166777	89.01	0
3	166965	89.11	0
3	167153	89.21	0
3	167341	89.31	0
3	167529	89.41	0
3	167717	89.51	0
3	167905	89.61	0
3	168093	89.71	0
3	168281	89.81	0
3	168469	89.91	0
3	168663	90.01	0
3	168851	90.11	0
3	169039	90.21	0
3	169227	90.31	0
3	169415	90.41	0
3	169603	90.51	0
3	169791	90.61	0
3	169979	90.71	0
3	170167	90.81	0
3	170355	90.91	0
3	170549	91.01	0
3	170737	91.11	0
3	170925	91.21	0
3	171113	91.31	0
3	171301	91.41	0
3	171489	91.51	0
3	171677	91.61	0
3	171865	91.71	0
3	172053	91.81	0
3	172241	91.91	0
3	172435	92.01	0
3	172623	92.11	0
3	172811	92.21	0
3	172999	92.31	0
3	173187	92.41	0
3	173375	92.51	0
3	173563	92.61	0
3	173751	92.71	0
3	173939	92.81	0
3	174127	92.91	0
3	174321	93.01	0
3	174509	93.11	0
3	174697	93.21	0
3	174885	93.31	0
3	175073	93.41	0
3	175261	93.51	0
3	175449	93.61	0
3	175637	93.71	0
3	175825	93.81	0
3	176013	93.91	0
3	176207	94.01	0
3	176395	94.11	0
3	176583	94.21	0
3	176771	94.31	0
3	176959	94.41	0
3	177147	94.51	0
3	177335	94.61	0
3	177523	94.71	0
3	177711	94.81	0
3	177899	94.91	0
3	178093	95.01	0
3	178281	95.11	0
3	178469	95.21	0
3	178657	95.31	0
3	178845	95.41	0
3	179033	95.51	0
3	179221	95.61	0
3	179409	95.71	0
3	179597	95.81	0
3	179785	95.91	0
3	179979	96.01	0
3	180167	96.11	0
3	180355	96.21	0
3	180543	96.31	0
3	180731	96.41	0
3	180919	96.51	0
3	181107	96.61	0
3	181295	96.71	0
3	181483	96.81	0
3	181671	96.91	0
3	181865	97.01	0
3	182053	97.11	0
3	182241	97.21	0
3	182429	97.31	0
3	182617	97.41	0
3	182805	97.51	0
3	182993	97.61	0
3	183181	97.71	0
3	183369	97.81	0
3	183557	97.91	0
3	183751	98.01	0
3	183939	98.11	0
3	184127	98.21	0
3	184315	98.31	0
3	184503	98.41	0
3	184691	98.51	0
3	184879	98.61	0
3	185067	98.71	0
3	185255	98.81	0
3	185443	98.91	0
3	185637	99.01	0
3	185825	99.11	0
3	186013	99.21	0
3	186201	99.31	0
3	186389	99.41	0
3	186577	99.51	0
3	186765	99.61	0
3	186953	99.71	0
3	187141	99.81	0
3	187329	99.91	0
4	113	1.11	0.00109259
4	301	1.21	0.00106709
4	489	1.31	0.00102704
4	677	1.41	0.000975759
4	865	1.51	0.00091619
4	1053	1.61	0.000850891
4	1241	1.71	0.000782061
4	1429	1.81	0.00071157
4	1617	1.91	0.00064098
4	1811	2.01	0.000571575
4	1999	2.11	0.000504387
4	2187	2.21	0.000440223
4	2375	2.31	0.000379691
4	2563	2.41	0.000323223
4	2751	2.51	0.000271102
4	2939	2.61	0.000223482
4	3127	2.71	0.000180409
4	3315	2.81	0.000141839
4	3503	2.91	0.000107653
4	3697	3.01	7.76787e-05
4	3885	3.11	5.16957e-05
4	4073	3.21	2.94534e-05
4	4261	3.31	1.06787e-05
4	4449	3.41	-4.91459e-06
4	4637	3.51	-1.76184e-05
4	4825	3.61	-2.7724e-05
4	5013	3.71	-3.55168e-05
4	5201	3.81	-4.12726e-05
4	5389	3.91	-4.52541e-05
4	5583	4.01	-4.77086e-05
4	5771	4.11	-4.88665e-05
4	5959	4.21	-4.89399e-05
4	6147	4.31	-4.81224e-05
4	6335	4.41	-4.65886e-05
4	6523	4.51	-4.44947e-05
4	6711	4.61	-4.1979e-05
4	6899	4.71	-3.91623e-05
4	7087	4.81	-3.61492e-05
4	7275	4.91	-3.3029e-05
4	7469	5.01	-2.9877e-05
4	7657	5.11	-2.67554e-05
4	7845	5.21	-2.37147e-05
4	8033	5.31	-2.07949e-05
4	8221	5.41	-1.80267e-05
4	8409	5.51	-1.54325e-05
4	8597	5.61	-1.30275e-05
4	8785	5.71	-1.0821e-05
4	8973	5.81	-8.81673e-06
4	9161	5.91	-7.01443e-06
4	9355	6.01	-5.4101e-06
4	9543	6.11	-3.99696e-06
4	9731	6.21	-2.766e-06
[...]
69	123359	66	0
69	125245	67	0
69	127131	68	0
69	129017	69	0
69	130903	70	0
69	132789	71	0
69	134675	72	0
69	136561	73	0
69	138447	74	0
69	140333	75	0
69	142219	76	0
69	144105	77	0
69	145991	78	0
69	147877	79	0
69	149763	80	0
69	151649	81	0
69	153535	82	0
69	155421	83	0
69	157307	84	0
69	159193	85	0
69	161079	86	0
69	162965	87	0
69	164851	88	0
69	166737	89	0
69	168623	90	0
69	170509	91	0
69	172395	92	0
69	174281	93	0
69	176167	94	0
69	178053	95	0
69	179939	96	0
69	181825	97	0
69	183711	98	0
69	185597	99	0
69	187483	100	0
70	1772	2	2
70	3658	3	2
70	5544	4	2
70	7430	5	2
70	9316	6	2
70	11202	7	2
70	13088	8	2
70	14974	9	2
70	16862	10	2
70	19215	11	2
70	21111	12	2
70	23007	13	2
70	24903	14	2
70	26799	15	2
70	28695	16	2
70	30591	17	2
70	32487	18	2
70	34383	19	2
70	36279	20	2
70	38175	21	2
70	40071	22	2
70	41967	23	2
70	43863	24	2
70	45759	25	2
70	47655	26	2
70	49551	27	2
70	51447	28	2
70	53343	29	2
70	55239	30	2
70	57135	31	2
70	59031	32	2
70	60927	33	2
70	62823	34	2
70	64719	35	2
70	66615	36	2
70	68511	37	2
70	70407	38	2
70	72303	39	2
70	74199	40	2
70	76095	41	2
70	77991	42	2
70	79887	43	2
70	81783	44	2
70	83679	45	2
70	85640	46	2
70	87526	47	2
70	89412	48	2
70	91298	49	2
70	93184	50	2
70	95070	51	2
70	96956	52	2
70	98842	53	2
70	100728	54	2
70	102614	55	2
70	104500	56	2
70	106386	57	2
70	108272	58	2
70	110158	59	2
70	112044	60	2
70	113930	61	2
70	115816	62	2
70	117702	63	2
70	119588	64	2
70	121474	65	2
70	123360	66	2
70	125246	67	2
70	127132	68	2
70	129018	69	2
70	130904	70	2
70	132790	71	2
70	134676	72	2
70	136562	73	2
70	138448	74	2
70	140334	75	2
70	142220	76	2
70	144106	77	2
70	145992	78	2
70	147878	79	2
70	149764	80	2
70	151650	81	2
70	153536	82	2
70	155422	83	2
70	157308	84	2
70	159194	85	2
70	161080	86	2
70	162966	87	2
70	164852	88	2
70	166738	89	2
70	168624	90	2
70	170510	91	2
70	172396	92	2
70	174282	93	2
70	176168	94	2
70	178054	95	2
70	179940	96	2
70	181826	97	2
70	183712	98	2
70	185598	99	2
70	187484	100	2
71	1772	2	0.010928
71	3658	3	0.01249
71	5544	4	0.01249
71	7430	5	0.01249
71	9316	6	0.01249
71	11202	7	0.01249
71	13088	8	0.01249
71	14974	9	0.01249
71	16862	10	0.01249
71	19215	11	0.013451120088
71	21111	12	0.01249
71	23007	13	0.01249
71	24903	14	0.01249
71	26799	15	0.01249
71	28695	16	0.01249
71	30591	17	0.01249
71	32487	18	0.01249
71	34383	19	0.01249
71	36279	20	0.01249
71	38175	21	0.01249
71	40071	22	0.01249
71	41967	23	0.01249
71	43863	24	0.01249
71	45759	25	0.01249
71	47655	26	0.01249
71	49551	27	0.01249
71	51447	28	0.01249
71	53343	29	0.01249
71	55239	30	0.01249
71	57135	31	0.01249
71	59031	32	0.01249
71	60927	33	0.01249
71	62823	34	0.01249
71	64719	35	0.01249
71	66615	36	0.01249
71	68511	37	0.01249
71	70407	38	0.01249
71	72303	39	0.01249
71	74199	40	0.01249
71	76095	41	0.01249
71	77991	42	0.01249
71	79887	43	0.01249
71	81783	44	0.01249
71	83679	45	0.01249
71	85640	46	0.01249
71	87526	47	0.01249
71	89412	48	0.01249
71	91298	49	0.01249
71	93184	50	0.01249
71	95070	51	0.01249
71	96956	52	0.01249
71	98842	53	0.01249
71	100728	54	0.01249
71	102614	55	0.01249
71	104500	56	0.01249
71	106386	57	0.01249
71	108272	58	0.01249
71	110158	59	0.01249
71	112044	60	0.01249
71	113930	61	0.01249
71	115816	62	0.01249
71	117702	63	0.01249
71	119588	64	0.01249
71	121474	65	0.01249
71	123360	66	0.01249
71	125246	67	0.01249
71	127132	68	0.01249
71	129018	69	0.01249
71	130904	70	0.01249
71	132790	71	0.01249
71	134676	72	0.01249
71	136562	73	0.01249
71	138448	74	0.01249
71	140334	75	0.01249
71	142220	76	0.01249
71	144106	77	0.01249
71	145992	78	0.01249
71	147878	79	0.01249
71	149764	80	0.01249
71	151650	81	0.01249
71	153536	82	0.01249
71	155422	83	0.01249
71	157308	84	0.01249
71	159194	85	0.01249
71	161080	86	0.01249
71	162966	87	0.01249
71	164852	88	0.01249
71	166738	89	0.01249
71	168624	90	0.01249
71	170510	91	0.01249
71	172396	92	0.01249
71	174282	93	0.01249
71	176168	94	0.01249
71	178054	95	0.01249
71	179940	96	0.01249
71	181826	97	0.01249
71	183712	98	0.01249
71	185598	99	0.01249
71	187484	100	0.01249
72	1772	2	0
72	3658	3	0
72	5544	4	0
72	7430	5	0
72	9316	6	0
72	11202	7	0
72	13088	8	0
72	14974	9	0
72	16862	10	0
72	19215	11	0
72	21111	12	0
72	23007	13	0
72	24903	14	0
72	26799	15	0
72	28695	16	0
72	30591	17	0
72	32487	18	0
72	34383	19	0
72	36279	20	0
72	38175	21	0
72	40071	22	0
72	41967	23	0
72	43863	24	0
72	45759	25	0
72	47655	26	0
72	49551	27	0
72	51447	28	0
72	53343	29	0
72	55239	30	0
72	57135	31	0
72	59031	32	0
72	60927	33	0
72	62823	34	0
72	64719	35	0
72	66615	36	0
72	68511	37	0
72	70407	38	0
72	72303	39	0
72	74199	40	0
72	76095	41	0
72	77991	42	0
72	79887	43	0
72	81783	44	0
72	83679	45	0
72	85640	46	0
72	87526	47	0
72	89412	48	0
72	91298	49	0
72	93184	50	0
72	95070	51	0
72	96956	52	0
72	98842	53	0
72	100728	54	0
72	102614	55	0
72	104500	56	0
72	106386	57	0
72	108272	58	0
72	110158	59	0
72	112044	60	0
72	113930	61	0
72	115816	62	0
72	117702	63	0
72	119588	64	0
72	121474	65	0
72	123360	66	0
72	125246	67	0
72	127132	68	0
72	129018	69	0
72	130904	70	0
72	132790	71	0
72	134676	72	0
72	136562	73	0
72	138448	74	0
72	140334	75	0
72	142220	76	0
72	144106	77	0
72	145992	78	0
72	147878	79	0
72	149764	80	0
72	151650	81	0
72	153536	82	0
72	155422	83	0
72	157308	84	0
72	159194	85	0
72	161080	86	0
72	162966	87	0
72	164852	88	0
72	166738	89	0
72	168624	90	0
72	170510	91	0
72	172396	92	0
72	174282	93	0
72	176168	94	0
72	178054	95	0
72	179940	96	0
72	181826	97	0
72	183712	98	0
72	185598	99	0
72	187484	100	0
73	1773	2	3
73	3659	3	3
73	5545	4	3
73	7431	5	3
73	9317	6	3
73	11203	7	3
73	13089	8	3
73	14975	9	3
73	16863	10	3
73	19216	11	3
73	21112	12	3
73	23008	13	3
73	24904	14	3
73	26800	15	3
73	28696	16	3
73	30592	17	3
73	32488	18	3
73	34384	19	3
73	36280	20	3
73	38176	21	3
73	40072	22	3
73	41968	23	3
73	43864	24	3
73	45760	25	3
73	47656	26	3
73	49552	27	3
73	51448	28	3
73	53344	29	3
73	55240	30	3
73	57136	31	3
73	59032	32	3
73	60928	33	3
73	62824	34	3
73	64720	35	3
73	66616	36	3
73	68512	37	3
73	70408	38	3
73	72304	39	3
73	74200	40	3
73	76096	41	3
73	77992	42	3
73	79888	43	3
73	81784	44	3
73	83680	45	3
73	85641	46	3
73	87527	47	3
73	89413	48	3
73	91299	49	3
73	93185	50	3
73	95071	51	3
73	96957	52	3
73	98843	53	3
73	100729	54	3
73	102615	55	3
73	104501	56	3
73	106387	57	3
73	108273	58	3
73	110159	59	3
73	112045	60	3
73	113931	61	3
73	115817	62	3
73	117703	63	3
73	119589	64	3
73	121475	65	3
73	123361	66	3
73	125247	67	3
73	127133	68	3
73	129019	69	3
73	130905	70	3
73	132791	71	3
73	134677	72	3
73	136563	73	3
73	138449	74	3
73	140335	75	3
73	142221	76	3
73	144107	77	3
73	145993	78	3
73	147879	79	3
73	149765	80	3
73	151651	81	3
73	153537	82	3
73	155423	83	3
73	157309	84	3
73	159195	85	3
73	161081	86	3
73	162967	87	3
73	164853	88	3
73	166739	89	3
73	168625	90	3
73	170511	91	3
73	172397	92	3
73	174283	93	3
73	176169	94	3
73	178055	95	3
73	179941	96	3
73	181827	97	3
73	183713	98	3
73	185599	99	3
73	187485	100	3
74	1773	2	0.010929
74	3659	3	0.01249
74	5545	4	0.01249
74	7431	5	0.01249
74	9317	6	0.01249
74	11203	7	0.01249
74	13089	8	0.01249
74	14975	9	0.01249
74	16863	10	0.01249
74	19216	11	0.013418120086
74	21112	12	0.01249
74	23008	13	0.01249
74	24904	14	0.01249
74	26800	15	0.01249
74	28696	16	0.01249
74	30592	17	0.01249
74	32488	18	0.01249
74	34384	19	0.01249
74	36280	20	0.01249
74	38176	21	0.01249
74	40072	22	0.01249
74	41968	23	0.01249
74	43864	24	0.01249
74	45760	25	0.01249
74	47656	26	0.01249
74	49552	27	0.01249
74	51448	28	0.01249
74	53344	29	0.01249
74	55240	30	0.01249
74	57136	31	0.01249
74	59032	32	0.01249
74	60928	33	0.01249
74	62824	34	0.01249
74	64720	35	0.01249
74	66616	36	0.01249
74	68512	37	0.01249
74	70408	38	0.01249
74	72304	39	0.01249
74	74200	40	0.01249
74	76096	41	0.01249
74	77992	42	0.01249
74	79888	43	0.01249
74	81784	44	0.01249
74	83680	45	0.01249
74	85641	46	0.01249
74	87527	47	0.01249
74	89413	48	0.01249
74	91299	49	0.01249
74	93185	50	0.01249
74	95071	51	0.01249
74	96957	52	0.01249
74	98843	53	0.01249
74	100729	54	0.01249
74	102615	55	0.01249
74	104501	56	0.01249
74	106387	57	0.01249
74	108273	58	0.01249
74	110159	59	0.01249
74	112045	60	0.01249
74	113931	61	0.01249
74	115817	62	0.01249
74	117703	63	0.01249
74	119589	64	0.01249
74	121475	65	0.01249
74	123361	66	0.01249
74	125247	67	0.01249
74	127133	68	0.01249
74	129019	69	0.01249
74	130905	70	0.01249
74	132791	71	0.01249
74	134677	72	0.01249
74	136563	73	0.01249
74	138449	74	0.01249
74	140335	75	0.01249
74	142221	76	0.01249
74	144107	77	0.01249
74	145993	78	0.01249
74	147879	79	0.01249
74	149765	80	0.01249
74	151651	81	0.01249
74	153537	82	0.01249
74	155423	83	0.01249
74	157309	84	0.01249
74	159195	85	0.01249
74	161081	86	0.01249
74	162967	87	0.01249
74	164853	88	0.01249
74	166739	89	0.01249
74	168625	90	0.01249
74	170511	91	0.01249
74	172397	92	0.01249
74	174283	93	0.01249
74	176169	94	0.01249
74	178055	95	0.01249
74	179941	96	0.01249
74	181827	97	0.01249
74	183713	98	0.01249
74	185599	99	0.01249
74	187485	100	0.01249
75	1773	2	0
75	3659	3	0
75	5545	4	0
75	7431	5	0
75	9317	6	0
75	11203	7	0
75	13089	8	0
75	14975	9	0
75	16863	10	0
75	19216	11	0
75	21112	12	0
75	23008	13	0
75	24904	14	0
75	26800	15	0
75	28696	16	0
75	30592	17	0
75	32488	18	0
75	34384	19	0
75	36280	20	0
75	38176	21	0
75	40072	22	0
75	41968	23	0
75	43864	24	0
75	45760	25	0
75	47656	26	0
75	49552	27	0
75	51448	28	0
75	53344	29	0
75	55240	30	0
75	57136	31	0
75	59032	32	0
75	60928	33	0
75	62824	34	0
75	64720	35	0
75	66616	36	0
75	68512	37	0
75	70408	38	0
75	72304	39	0
75	74200	40	0
75	76096	41	0
75	77992	42	0
75	79888	43	0
75	81784	44	0
75	83680	45	0
75	85641	46	0
75	87527	47	0
75	89413	48	0
75	91299	49	0
75	93185	50	0
75	95071	51	0
75	96957	52	0
75	98843	53	0
75	100729	54	0
75	102615	55	0
75	104501	56	0
75	106387	57	0
75	108273	58	0
75	110159	59	0
75	112045	60	0
75	113931	61	0
75	115817	62	0
75	117703	63	0
75	119589	64	0
75	121475	65	0
75	123361	66	0
75	125247	67	0
75	127133	68	0
75	129019	69	0
75	130905	70	0
75	132791	71	0
75	134677	72	0
75	136563	73	0
75	138449	74	0
75	140335	75	0
75	142221	76	0
75	144107	77	0
75	145993	78	0
75	147879	79	0
75	149765	80	0
75	151651	81	0
75	153537	82	0
75	155423	83	0
75	157309	84	0
75	159195	85	0
75	161081	86	0
75	162967	87	0
75	164853	88	0
75	166739	89	0
75	168625	90	0
75	170511	91	0
75	172397	92	0
75	174283	93	0
75	176169	94	0
75	178055	95	0
75	179941	96	0
75	181827	97	0
75	183713	98	0
75	185599	99	0
75	187485	100	0
76	1774	2	4
76	3660	3	4
76	5546	4	4
76	7432	5	4
76	9318	6	4
76	11204	7	4
76	13090	8	4
76	14976	9	4
76	16864	10	4
76	19217	11	4
76	21113	12	4
76	23009	13	4
76	24905	14	4
76	26801	15	4
76	28697	16	4
76	30593	17	4
76	32489	18	4
76	34385	19	4
76	36281	20	4
76	38177	21	4
76	40073	22	4
76	41969	23	4
76	43865	24	4
76	45761	25	4
76	47657	26	4
76	49553	27	4
76	51449	28	4
76	53345	29	4
76	55241	30	4
76	57137	31	4
76	59033	32	4
76	60929	33	4
76	62825	34	4
76	64721	35	4
76	66617	36	4
76	68513	37	4
76	70409	38	4
76	72305	39	4
76	74201	40	4
76	76097	41	4
76	77993	42	4
76	79889	43	4
76	81785	44	4
76	83681	45	4
76	85642	46	4
76	87528	47	4
76	89414	48	4
76	91300	49	4
76	93186	50	4
76	95072	51	4
76	96958	52	4
76	98844	53	4
76	100730	54	4
76	102616	55	4
76	104502	56	4
76	106388	57	4
76	108274	58	4
76	110160	59	4
76	112046	60	4
76	113932	61	4
76	115818	62	4
76	117704	63	4
76	119590	64	4
76	121476	65	4
76	123362	66	4
76	125248	67	4
76	127134	68	4
76	129020	69	4
76	130906	70	4
76	132792	71	4
76	134678	72	4
76	136564	73	4
76	138450	74	4
76	140336	75	4
76	142222	76	4
76	144108	77	4
76	145994	78	4
76	147880	79	4
76	149766	80	4
76	151652	81	4
76	153538	82	4
76	155424	83	4
76	157310	84	4
76	159196	85	4
76	161082	86	4
76	162968	87	4
76	164854	88	4
76	166740	89	4
76	168626	90	4
76	170512	91	4
76	172398	92	4
76	174284	93	4
76	176170	94	4
76	178056	95	4
76	179942	96	4
76	181828	97	4
76	183714	98	4
76	185600	99	4
76	187486	100	4
77	1774	2	0.005625
77	3660	3	0.00625
77	5546	4	0.00625
77	7432	5	0.00625
77	9318	6	0.00625
77	11204	7	0.00625
77	13090	8	0.00625
77	14976	9	0.00625
77	16864	10	0.00625
77	19217	11	0.006299
77	21113	12	0.00625
77	23009	13	0.00625
77	24905	14	0.00625
77	26801	15	0.00625
77	28697	16	0.00625
77	30593	17	0.00625
77	32489	18	0.00625
77	34385	19	0.00625
77	36281	20	0.00625
77	38177	21	0.00625
77	40073	22	0.00625
77	41969	23	0.00625
77	43865	24	0.00625
77	45761	25	0.00625
77	47657	26	0.00625
77	49553	27	0.00625
77	51449	28	0.00625
77	53345	29	0.00625
77	55241	30	0.00625
77	57137	31	0.00625
77	59033	32	0.00625
77	60929	33	0.00625
77	62825	34	0.00625
77	64721	35	0.00625
77	66617	36	0.00625
77	68513	37	0.00625
77	70409	38	0.00625
77	72305	39	0.00625
77	74201	40	0.00625
77	76097	41	0.00625
77	77993	42	0.00625
77	79889	43	0.00625
77	81785	44	0.00625
77	83681	45	0.00625
77	85642	46	0.00653912609
77	87528	47	0.00625
77	89414	48	0.00625
77	91300	49	0.00625
77	93186	50	0.00625
77	95072	51	0.00625
77	96958	52	0.00625
77	98844	53	0.00625
77	100730	54	0.00625
77	102616	55	0.00625
77	104502	56	0.00625
77	106388	57	0.00625
77	108274	58	0.00625
77	110160	59	0.00625
77	112046	60	0.00625
77	113932	61	0.00625
77	115818	62	0.00625
77	117704	63	0.00625
77	119590	64	0.00625
77	121476	65	0.00625
77	123362	66	0.00625
77	125248	67	0.00625
77	127134	68	0.00625
77	129020	69	0.00625
77	130906	70	0.00625
77	132792	71	0.00625
77	134678	72	0.00625
77	136564	73	0.00625
77	138450	74	0.00625
77	140336	75	0.00625
77	142222	76	0.00625
77	144108	77	0.00625
77	145994	78	0.00625
77	147880	79	0.00625
77	149766	80	0.00625
77	151652	81	0.00625
77	153538	82	0.00625
77	155424	83	0.00625
77	157310	84	0.00625
77	159196	85	0.00625
77	161082	86	0.00625
77	162968	87	0.00625
77	164854	88	0.00625
77	166740	89	0.00625
77	168626	90	0.00625
77	170512	91	0.00625
77	172398	92	0.00625
77	174284	93	0.00625
77	176170	94	0.00625
77	178056	95	0.00625
77	179942	96	0.00625
77	181828	97	0.00625
77	183714	98	0.00625
77	185600	99	0.00625
77	187486	100	0.00625
78	1774	2	0
78	3660	3	0
78	5546	4	0
78	7432	5	0
78	9318	6	0
78	11204	7	0
78	13090	8	0
78	14976	9	0
78	16864	10	0
78	19217	11	0
78	21113	12	0
78	23009	13	0
78	24905	14	0
78	26801	15	0
78	28697	16	0
78	30593	17	0
78	32489	18	0
78	34385	19	0
78	36281	20	0
78	38177	21	0
78	40073	22	0
78	41969	23	0
78	43865	24	0
78	45761	25	0
78	47657	26	0
78	49553	27	0
78	51449	28	0
78	53345	29	0
78	55241	30	0
78	57137	31	0
78	59033	32	0
78	60929	33	0
78	62825	34	0
78	64721	35	0
78	66617	36	0
78	68513	37	0
78	70409	38	0
78	72305	39	0
78	74201	40	0
78	76097	41	0
78	77993	42	0
78	79889	43	0
78	81785	44	0
78	83681	45	0
78	85642	46	0
78	87528	47	0
78	89414	48	0
78	91300	49	0
78	93186	50	0
78	95072	51	0
78	96958	52	0
78	98844	53	0
78	100730	54	0
78	102616	55	0
78	104502	56	0
78	106388	57	0
78	108274	58	0
78	110160	59	0
78	112046	60	0
78	113932	61	0
78	115818	62	0
78	117704	63	0
78	119590	64	0
78	121476	65	0
78	123362	66	0
78	125248	67	0
78	127134	68	0
78	129020	69	0
78	130906	70	0
78	132792	71	0
78	134678	72	0
78	136564	73	0
78	138450	74	0
78	140336	75	0
78	142222	76	0
78	144108	77	0
78	145994	78	0
78	147880	79	0
78	149766	80	0
78	151652	81	0
78	153538	82	0
78	155424	83	0
78	157310	84	0
78	159196	85	0
78	161082	86	0
78	162968	87	0
78	164854	88	0
78	166740	89	0
78	168626	90	0
78	170512	91	0
78	172398	92	0
78	174284	93	0
78	176170	94	0
78	178056	95	0
78	179942	96	0
78	181828	97	0
78	183714	98	0
78	185600	99	0
78	187486	100	0
79	1775	2	5
79	3661	3	5
79	5547	4	5
79	7433	5	5
79	9319	6	5
79	11205	7	5
79	13091	8	5
79	14977	9	5
79	16865	10	5
79	19218	11	5
79	21114	12	5
79	23010	13	5
79	24906	14	5
79	26802	15	5
79	28698	16	5
79	30594	17	5
79	32490	18	5
79	34386	19	5
79	36282	20	5
79	38178	21	5
79	40074	22	5
79	41970	23	5
79	43866	24	5
79	45762	25	5
79	47658	26	5
79	49554	27	5
79	51450	28	5
79	53346	29	5
79	55242	30	5
79	57138	31	5
79	59034	32	5
79	60930	33	5
79	62826	34	5
79	64722	35	5
79	66618	36	5
79	68514	37	5
79	70410	38	5
79	72306	39	5
79	74202	40	5
79	76098	41	5
79	77994	42	5
79	79890	43	5
79	81786	44	5
79	83682	45	5
79	85643	46	5
79	87529	47	5
79	89415	48	5
79	91301	49	5
79	93187	50	5
79	95073	51	5
79	96959	52	5
79	98845	53	5
79	100731	54	5
79	102617	55	5
79	104503	56	5
79	106389	57	5
79	108275	58	5
79	110161	59	5
79	112047	60	5
79	113933	61	5
79	115819	62	5
79	117705	63	5
79	119591	64	5
79	121477	65	5
79	123363	66	5
79	125249	67	5
79	127135	68	5
79	129021	69	5
79	130907	70	5
79	132793	71	5
79	134679	72	5
79	136565	73	5
79	138451	74	5
79	140337	75	5
79	142223	76	5
79	144109	77	5
79	145995	78	5
79	147881	79	5
79	149767	80	5
79	151653	81	5
79	153539	82	5
79	155425	83	5
79	157311	84	5
79	159197	85	5
79	161083	86	5
79	162969	87	5
79	164855	88	5
79	166741	89	5
79	168627	90	5
79	170513	91	5
79	172399	92	5
79	174285	93	5
79	176171	94	5
79	178057	95	5
79	179943	96	5
79	181829	97	5
79	183715	98	5
79	185601	99	5
79	187487	100	5
80	1775	2	0.005625
80	3661	3	0.00625
80	5547	4	0.00625
80	7433	5	0.00625
80	9319	6	0.00625
80	11205	7	0.00625
80	13091	8	0.00625
80	14977	9	0.00625
80	16865	10	0.00625
80	19218	11	0.006298
80	21114	12	0.00625
80	23010	13	0.00625
80	24906	14	0.00625
80	26802	15	0.00625
80	28698	16	0.00625
80	30594	17	0.00625
80	32490	18	0.00625
80	34386	19	0.00625
80	36282	20	0.00625
80	38178	21	0.00625
80	40074	22	0.00625
80	41970	23	0.00625
80	43866	24	0.00625
80	45762	25	0.00625
80	47658	26	0.00625
80	49554	27	0.00625
80	51450	28	0.00625
80	53346	29	0.00625
80	55242	30	0.00625
80	57138	31	0.00625
80	59034	32	0.00625
80	60930	33	0.00625
80	62826	34	0.00625
80	64722	35	0.00625
80	66618	36	0.00625
80	68514	37	0.00625
80	70410	38	0.00625
80	72306	39	0.00625
80	74202	40	0.00625
80	76098	41	0.00625
80	77994	42	0.00625
80	79890	43	0.00625
80	81786	44	0.00625
80	83682	45	0.00625
80	85643	46	0.00653912609
80	87529	47	0.00625
80	89415	48	0.00625
80	91301	49	0.00625
80	93187	50	0.00625
80	95073	51	0.00625
80	96959	52	0.00625
80	98845	53	0.00625
80	100731	54	0.00625
80	102617	55	0.00625
80	104503	56	0.00625
80	106389	57	0.00625
80	108275	58	0.00625
80	110161	59	0.00625
80	112047	60	0.00625
80	113933	61	0.00625
80	115819	62	0.00625
80	117705	63	0.00625
80	119591	64	0.00625
80	121477	65	0.00625
80	123363	66	0.00625
80	125249	67	0.00625
80	127135	68	0.00625
80	129021	69	0.00625
80	130907	70	0.00625
80	132793	71	0.00625
80	134679	72	0.00625
80	136565	73	0.00625
80	138451	74	0.00625
80	140337	75	0.00625
80	142223	76	0.00625
80	144109	77	0.00625
80	145995	78	0.00625
80	147881	79	0.00625
80	149767	80	0.00625
80	151653	81	0.00625
80	153539	82	0.00625
80	155425	83	0.00625
80	157311	84	0.00625
80	159197	85	0.00625
80	161083	86	0.00625
80	162969	87	0.00625
80	164855	88	0.00625
80	166741	89	0.00625
80	168627	90	0.00625
80	170513	91	0.00625
80	172399	92	0.00625
80	174285	93	0.00625
80	176171	94	0.00625
80	178057	95	0.00625
80	179943	96	0.00625
80	181829	97	0.00625
80	183715	98	0.00625
80	185601	99	0.00625
80	187487	100	0.00625
81	1775	2	0
81	3661	3	0
81	5547	4	0
81	7433	5	0
81	9319	6	0
81	11205	7	0
81	13091	8	0
81	14977	9	0
81	16865	10	0
81	19218	11	0
81	21114	12	0
81	23010	13	0
81	24906	14	0
81	26802	15	0
81	28698	16	0
81	30594	17	0
81	32490	18	0
81	34386	19	0
81	36282	20	0
81	38178	21	0
81	40074	22	0
81	41970	23	0
81	43866	24	0
81	45762	25	0
81	47658	26	0
81	49554	27	0
81	51450	28	0
81	53346	29	0
81	55242	30	0
81	57138	31	0
81	59034	32	0
81	60930	33	0
81	62826	34	0
81	64722	35	0
81	66618	36	0
81	68514	37	0
81	70410	38	0
81	72306	39	0
81	74202	40	0
81	76098	41	0
81	77994	42	0
81	79890	43	0
81	81786	44	0
81	83682	45	0
81	85643	46	0
81	87529	47	0
81	89415	48	0
81	91301	49	0
81	93187	50	0
81	95073	51	0
81	96959	52	0
81	98845	53	0
81	100731	54	0
81	102617	55	0
81	104503	56	0
81	106389	57	0
81	108275	58	0
81	110161	59	0
81	112047	60	0
81	113933	61	0
81	115819	62	0
81	117705	63	0
81	119591	64	0
81	121477	65	0
81	123363	66	0
81	125249	67	0
81	127135	68	0
81	129021	69	0
81	130907	70	0
81	132793	71	0
81	134679	72	0
81	136565	73	0
81	138451	74	0
81	140337	75	0
81	142223	76	0
81	144109	77	0
81	145995	78	0
81	147881	79	0
81	149767	80	0
81	151653	81	0
81	153539	82	0
81	155425	83	0
81	157311	84	0
81	159197	85	0
81	161083	86	0
81	162969	87	0
81	164855	88	0
81	166741	89	0
81	168627	90	0
81	170513	91	0
81	172399	92	0
81	174285	93	0
81	176171	94	0
81	178057	95	0
81	179943	96	0
81	181829	97	0
81	183715	98	0
81	185601	99	0
81	187487	100	0

