version 3
run BreakRanksNoGui-564-20240710-17:42:43-275988
attr configname BreakRanksNoGui
attr datetime 20240710-17:42:43
attr datetimef 20240710-174243
attr experiment BreakRanksNoGui
attr inifile omnetpp.ini
attr iterationvars "$nCars=6, $platoonSize=4, $nLanes=1, $ploegH=0.5, $controller=1, $headway=0.1, $leaderHeadway=1.2, $leaderSpeed=130, $breakRanksSafetyDistance=2, $minSpeed=120, $maxSpeed=140, $beaconInterval=0.1, $priority=4, $packetSize=200, $sController=\"CACC\", $0=2, $1=0"
attr iterationvarsd nCars=6/platoonSize=4/nLanes=1/ploegH=0.5/controller=1/headway=0.1/leaderHeadway=1.2/leaderSpeed=130/breakRanksSafetyDistance=2/minSpeed=120/maxSpeed=140/beaconInterval=0.1/priority=4/packetSize=200/sController=CACC/2/0
attr iterationvarsf nCars=6,platoonSize=4,nLanes=1,ploegH=0.5,controller=1,headway=0.1,leaderHeadway=1.2,leaderSpeed=130,breakRanksSafetyDistance=2,minSpeed=120,maxSpeed=140,beaconInterval=0.1,priority=4,packetSize=200,sController=CACC,2,0-
attr measurement "$nCars=6, $platoonSize=4, $nLanes=1, $ploegH=0.5, $controller=1, $headway=0.1, $leaderHeadway=1.2, $leaderSpeed=130, $breakRanksSafetyDistance=2, $minSpeed=120, $maxSpeed=140, $beaconInterval=0.1, $priority=4, $packetSize=200, $sController=\"CACC\", $0=2, $1=0"
attr network Highway
attr processid 275988
attr repetition 4
attr replication #4
attr resultdir results
attr runnumber 564
attr seedset 4
itervar beaconInterval 0.1
itervar breakRanksSafetyDistance 2
itervar controller 1
itervar headway 0.1
itervar leaderHeadway 1.2
itervar leaderSpeed 130
itervar maxSpeed 140
itervar minSpeed 120
itervar nCars 6
itervar nLanes 1
itervar packetSize 200
itervar platoonSize 4
itervar ploegH 0.5
itervar priority 4
itervar sController "\"CACC\""
config image-path ../../../veins/images
config repeat 10
config extends BreakRanks
config *.manager.command "\"sumo\""
config *.manager.ignoreGuiCommands true
config output-vector-file "results/BreakRanks_1_0.1_130_2_4 /result_4.vec"
config output-scalar-file "results/BreakRanks_1_0.1_130_2_4 /result_4.sca"
config extends Platooning
config *.node[*].scenario_type "\"BreakRanksScenario\""
config *.manager.command "\"sumo-gui\""
config *.node[*].scenario_type "\"SimpleScenario\""
config cmdenv-express-mode true
config cmdenv-autoflush true
config cmdenv-status-frequency 15s
config num-rngs 6
config network Highway
config debug-on-errors true
config print-undisposed true
config *.playgroundSizeX 65000m
config *.playgroundSizeY 25000m
config *.playgroundSizeZ 50m
config sim-time-limit "100 s"
config *.annotations.draw false
config *.obstacles.debug false
config *.world.useTorus false
config *.world.use2D false
config *.manager.updateInterval 0.01s
config *.manager.host "\"localhost\""
config *.manager.moduleType "\"org.car2x.plexe.PlatoonCar\""
config *.manager.moduleName "\"node\""
config *.manager.moduleDisplayString "\"\""
config *.manager.autoShutdown true
config *.manager.margin 25
config *.connectionManager.sendDirect true
config *.connectionManager.maxInterfDist 2600m
config *.connectionManager.drawMaxIntfDist false
config *.**.nic.mac1609_4.useServiceChannel false
config *.**.nic.mac1609_4.txPower 100mW
config *.**.nic.mac1609_4.bitrate 6Mbps
config *.**.nic.mac1609_4.useAcks true
config *.**.nic.mac1609_4.ackErrorRate 0.0
config *.**.nic.mac1609_4.frameErrorRate 0.0
config *.**.nic.phy80211p.minPowerLevel -94dBm
config *.**.nic.phy80211p.maxTXPower 100mW
config *.**.nic.phy80211p.useNoiseFloor true
config *.**.nic.phy80211p.noiseFloor -95dBm
config *.**.nic.phy80211p.decider "xmldoc(\"config.xml\")"
config *.**.nic.phy80211p.analogueModels "xmldoc(\"config.xml\")"
config *.**.nic.phy80211p.usePropagationDelay true
config *.node[*].mobility.x 0
config *.node[*].mobility.y 0
config *.node[*].mobility.z 1.895
config seed-set 4
config **.seed 4
config *.node[*].prot.rng-0 2
config *.node[*].appl.rng-0 3
config *.node[*].scenario.rng-0 4
config **.traffic.rng-0 5
config *.manager.configFile "\"./sumocfg/freeway.sumo.cfg\""
config *.manager.launchConfig "xmldoc(\"./sumocfg/freeway.launchd.xml\")"
config **.numberOfCars 6
config **.numberOfCarsPerPlatoon 4
config **.numberOfLanes 1
config *.node[*].helper_type "\"PositionHelper\""
config *.node[*].scenario.caccC1 0.5
config *.node[*].scenario.caccXi 1
config *.node[*].scenario.caccOmegaN "0.2 Hz"
config *.node[*].scenario.caccSpacing "2 m"
config *.node[*].scenario.engineTau "0.5 s"
config *.node[*].scenario.ploegH 0.5s
config *.node[*].scenario.ploegKp 0.2
config *.node[*].scenario.ploegKd 0.7
config *.node[*].scenario.useRealisticEngine false
config *.node[*].scenario.useControllerAcceleration true
config *.node[*].scenario.nLanes 1
config **.numericController 1
config **.headway 0.1s
config *.node[*].scenario.accHeadway 0.1s
config *.node[*].scenario.leaderHeadway 1.2s
config *.node[*].scenario.leaderSpeed 130kmph
config *.node[*].appl_type "\"SimplePlatooningApp\""
config *.node[*].appl.*.scalar-recording true
config *.node[*].appl.*.vector-recording true
config *.node[0].appl.breakRanksSafetyDistance 2m
config *.node[*].appl.minSpeed 120kmph
config *.node[*].appl.maxSpeed 140kmph
config *.node[*].protocol_type "\"SimplePlatooningBeaconing\""
config *.node[*].prot.*.scalar-recording true
config *.node[*].prot.*.vector-recording true
config *.node[*].prot.beaconingInterval 0.1s
config *.node[*].prot.priority 4
config *.node[*].prot.packetSize 200
config **.traffic_type "\"PlatoonsTrafficManager\""
config **.traffic.platoonInsertTime "1 s"
config **.traffic.platoonInsertSpeed 130kmph
config **.traffic.nCars 6
config **.traffic.platoonSize 4
config **.traffic.nLanes 1
config **.traffic.platooningVType "\"vtypeauto\""
config **.traffic.controller "\"CACC\""
config **.traffic.platoonInsertDistance 2m
config **.traffic.platoonInsertHeadway 0s
config **.traffic.platoonLeaderHeadway 1.2s
config **.scalar-recording false
config **.vector-recording false

vector 0 Highway.node[0].appl distance ETV
vector 1 Highway.node[0].appl relativeSpeed ETV
vector 2 Highway.node[0].appl nodeId ETV
vector 3 Highway.node[0].appl acceleration ETV
vector 4 Highway.node[0].appl controllerAcceleration ETV
vector 5 Highway.node[0].appl speed ETV
vector 6 Highway.node[0].appl posx ETV
vector 7 Highway.node[0].appl posy ETV
vector 8 Highway.node[1].appl distance ETV
vector 9 Highway.node[1].appl relativeSpeed ETV
vector 10 Highway.node[1].appl nodeId ETV
vector 11 Highway.node[1].appl acceleration ETV
vector 12 Highway.node[1].appl controllerAcceleration ETV
vector 13 Highway.node[1].appl speed ETV
vector 14 Highway.node[1].appl posx ETV
vector 15 Highway.node[1].appl posy ETV
vector 16 Highway.node[2].appl distance ETV
vector 17 Highway.node[2].appl relativeSpeed ETV
vector 18 Highway.node[2].appl nodeId ETV
vector 19 Highway.node[2].appl acceleration ETV
vector 20 Highway.node[2].appl controllerAcceleration ETV
vector 21 Highway.node[2].appl speed ETV
vector 22 Highway.node[2].appl posx ETV
vector 23 Highway.node[2].appl posy ETV
vector 24 Highway.node[3].appl distance ETV
vector 25 Highway.node[3].appl relativeSpeed ETV
vector 26 Highway.node[3].appl nodeId ETV
vector 27 Highway.node[3].appl acceleration ETV
vector 28 Highway.node[3].appl controllerAcceleration ETV
vector 29 Highway.node[3].appl speed ETV
vector 30 Highway.node[3].appl posx ETV
vector 31 Highway.node[3].appl posy ETV
vector 32 Highway.node[4].appl distance ETV
vector 33 Highway.node[4].appl relativeSpeed ETV
vector 34 Highway.node[4].appl nodeId ETV
vector 35 Highway.node[4].appl acceleration ETV
vector 36 Highway.node[4].appl controllerAcceleration ETV
vector 37 Highway.node[4].appl speed ETV
vector 38 Highway.node[4].appl posx ETV
vector 39 Highway.node[4].appl posy ETV
vector 40 Highway.node[5].appl distance ETV
vector 41 Highway.node[5].appl relativeSpeed ETV
vector 42 Highway.node[5].appl nodeId ETV
vector 43 Highway.node[5].appl acceleration ETV
vector 44 Highway.node[5].appl controllerAcceleration ETV
vector 45 Highway.node[5].appl speed ETV
vector 46 Highway.node[5].appl posx ETV
vector 47 Highway.node[5].appl posy ETV
vector 48 Highway.node[1].prot leaderDelay ETV
vector 49 Highway.node[1].prot leaderDelayId ETV
vector 50 Highway.node[1].prot frontDelay ETV
vector 51 Highway.node[1].prot frontDelayId ETV
vector 52 Highway.node[2].prot leaderDelay ETV
vector 53 Highway.node[2].prot leaderDelayId ETV
vector 54 Highway.node[3].prot leaderDelay ETV
vector 55 Highway.node[3].prot leaderDelayId ETV
vector 56 Highway.node[3].prot frontDelay ETV
vector 57 Highway.node[3].prot frontDelayId ETV
vector 58 Highway.node[2].prot frontDelay ETV
vector 59 Highway.node[2].prot frontDelayId ETV
vector 60 Highway.node[5].prot leaderDelay ETV
vector 61 Highway.node[5].prot leaderDelayId ETV
vector 62 Highway.node[5].prot frontDelay ETV
vector 63 Highway.node[5].prot frontDelayId ETV
vector 64 Highway.node[0].prot nodeId ETV
vector 65 Highway.node[0].prot busyTime ETV
vector 66 Highway.node[0].prot collisions ETV
vector 67 Highway.node[1].prot nodeId ETV
vector 68 Highway.node[1].prot busyTime ETV
vector 69 Highway.node[1].prot collisions ETV
vector 70 Highway.node[2].prot nodeId ETV
vector 71 Highway.node[2].prot busyTime ETV
vector 72 Highway.node[2].prot collisions ETV
vector 73 Highway.node[3].prot nodeId ETV
vector 74 Highway.node[3].prot busyTime ETV
vector 75 Highway.node[3].prot collisions ETV
vector 76 Highway.node[4].prot nodeId ETV
vector 77 Highway.node[4].prot busyTime ETV
vector 78 Highway.node[4].prot collisions ETV
vector 79 Highway.node[5].prot nodeId ETV
vector 80 Highway.node[5].prot busyTime ETV
vector 81 Highway.node[5].prot collisions ETV
0	113	1.11	9323.16
0	301	1.21	9323.16
0	489	1.31	9323.16
0	677	1.41	9323.16
0	865	1.51	9323.16
0	1053	1.61	9323.16
0	1241	1.71	9323.16
0	1429	1.81	9323.16
0	1617	1.91	-1
0	1811	2.01	-1
0	1999	2.11	-1
0	2187	2.21	-1
0	2375	2.31	-1
0	2563	2.41	-1
0	2751	2.51	-1
0	2939	2.61	-1
0	3127	2.71	-1
0	3315	2.81	-1
0	3503	2.91	-1
0	3697	3.01	-1
0	3885	3.11	-1
0	4073	3.21	-1
0	4261	3.31	-1
0	4449	3.41	-1
0	4637	3.51	-1
0	4825	3.61	-1
0	5013	3.71	-1
0	5201	3.81	-1
0	5389	3.91	-1
0	5583	4.01	-1
0	5771	4.11	-1
0	5959	4.21	-1
0	6147	4.31	-1
0	6335	4.41	-1
0	6523	4.51	-1
0	6711	4.61	-1
0	6899	4.71	-1
0	7087	4.81	-1
0	7275	4.91	-1
0	7469	5.01	-1
0	7657	5.11	-1
0	7845	5.21	-1
0	8033	5.31	-1
0	8221	5.41	-1
0	8409	5.51	-1
0	8597	5.61	-1
0	8785	5.71	-1
0	8973	5.81	-1
0	9161	5.91	-1
0	9355	6.01	-1
0	9543	6.11	-1
0	9731	6.21	-1
0	9919	6.31	-1
0	10107	6.41	-1
0	10295	6.51	-1
0	10483	6.61	-1
0	10671	6.71	-1
0	10859	6.81	-1
0	11047	6.91	-1
0	11241	7.01	-1
0	11429	7.11	-1
0	11617	7.21	-1
0	11805	7.31	-1
0	11993	7.41	-1
0	12181	7.51	-1
0	12369	7.61	-1
0	12557	7.71	-1
0	12745	7.81	-1
0	12933	7.91	-1
0	13127	8.01	-1
0	13315	8.11	-1
0	13503	8.21	-1
0	13691	8.31	-1
0	13879	8.41	-1
0	14067	8.51	-1
0	14255	8.61	-1
0	14443	8.71	-1
0	14631	8.81	-1
0	14819	8.91	-1
0	15013	9.01	-1
0	15201	9.11	-1
0	15389	9.21	-1
0	15577	9.31	-1
0	15765	9.41	-1
0	15953	9.51	-1
0	16141	9.61	-1
0	16329	9.71	-1
0	16517	9.81	-1
0	16705	9.91	-1
0	17339	10.01	-1
0	17528	10.11	-1
0	17717	10.21	-1
0	17906	10.31	-1
0	18095	10.41	-1
0	18284	10.51	-1
0	18473	10.61	-1
0	18662	10.71	-1
0	18851	10.81	-1
0	19040	10.91	-1
0	19235	11.01	-1
0	19424	11.11	-1
0	19613	11.21	-1
0	19802	11.31	-1
0	19991	11.41	-1
0	20180	11.51	-1
0	20369	11.61	-1
0	20558	11.71	-1
0	20747	11.81	-1
0	20936	11.91	-1
0	21131	12.01	-1
0	21320	12.11	-1
0	21509	12.21	-1
0	21698	12.31	-1
0	21887	12.41	-1
0	22076	12.51	-1
0	22265	12.61	-1
0	22454	12.71	-1
0	22643	12.81	-1
0	22832	12.91	-1
0	23027	13.01	-1
0	23216	13.11	-1
0	23405	13.21	-1
0	23594	13.31	-1
0	23783	13.41	-1
0	23972	13.51	-1
0	24161	13.61	-1
0	24350	13.71	-1
0	24539	13.81	-1
0	24728	13.91	-1
0	24923	14.01	-1
0	25112	14.11	-1
0	25301	14.21	-1
0	25490	14.31	-1
0	25679	14.41	-1
0	25868	14.51	-1
0	26057	14.61	-1
0	26246	14.71	-1
0	26435	14.81	-1
0	26624	14.91	-1
0	26819	15.01	-1
0	27008	15.11	-1
0	27197	15.21	-1
0	27386	15.31	-1
0	27575	15.41	-1
0	27764	15.51	-1
0	27953	15.61	-1
0	28142	15.71	-1
0	28331	15.81	-1
0	28520	15.91	-1
0	28715	16.01	-1
0	28904	16.11	-1
0	29093	16.21	-1
0	29282	16.31	-1
0	29471	16.41	-1
0	29660	16.51	-1
0	29849	16.61	-1
0	30038	16.71	-1
0	30227	16.81	-1
0	30416	16.91	-1
0	30611	17.01	-1
0	30800	17.11	-1
0	30989	17.21	-1
0	31178	17.31	-1
0	31367	17.41	-1
0	31556	17.51	-1
0	31745	17.61	-1
0	31934	17.71	-1
0	32123	17.81	-1
0	32312	17.91	-1
0	32507	18.01	-1
0	32696	18.11	-1
0	32885	18.21	-1
0	33074	18.31	-1
0	33263	18.41	-1
0	33452	18.51	-1
0	33641	18.61	-1
0	33830	18.71	-1
0	34019	18.81	-1
0	34208	18.91	-1
0	34403	19.01	-1
0	34592	19.11	-1
0	34781	19.21	-1
0	34970	19.31	-1
0	35159	19.41	-1
0	35348	19.51	-1
0	35537	19.61	-1
0	35726	19.71	-1
0	35915	19.81	-1
0	36104	19.91	-1
0	36299	20.01	-1
0	36488	20.11	-1
0	36677	20.21	-1
0	36866	20.31	-1
0	37055	20.41	-1
0	37244	20.51	-1
0	37433	20.61	-1
0	37622	20.71	-1
0	37811	20.81	-1
0	38000	20.91	-1
0	38195	21.01	-1
0	38384	21.11	-1
0	38573	21.21	-1
0	38762	21.31	-1
0	38951	21.41	-1
0	39140	21.51	-1
0	39329	21.61	-1
0	39518	21.71	-1
0	39707	21.81	-1
0	39896	21.91	-1
0	40091	22.01	-1
0	40280	22.11	-1
0	40469	22.21	-1
0	40658	22.31	-1
0	40847	22.41	-1
0	41036	22.51	-1
0	41225	22.61	-1
0	41414	22.71	-1
0	41603	22.81	-1
0	41792	22.91	-1
0	41987	23.01	-1
0	42176	23.11	-1
0	42365	23.21	-1
0	42554	23.31	-1
0	42743	23.41	-1
0	42932	23.51	-1
0	43121	23.61	-1
0	43310	23.71	-1
0	43499	23.81	-1
0	43688	23.91	-1
0	43883	24.01	-1
0	44072	24.11	-1
0	44261	24.21	-1
0	44450	24.31	-1
0	44639	24.41	-1
0	44828	24.51	-1
0	45017	24.61	-1
0	45206	24.71	-1
0	45395	24.81	-1
0	45584	24.91	-1
0	45779	25.01	-1
0	45968	25.11	-1
0	46157	25.21	-1
0	46346	25.31	-1
0	46535	25.41	-1
0	46724	25.51	-1
0	46913	25.61	-1
0	47102	25.71	-1
0	47291	25.81	-1
0	47480	25.91	-1
0	47675	26.01	-1
0	47864	26.11	-1
0	48053	26.21	-1
0	48242	26.31	-1
0	48431	26.41	-1
0	48620	26.51	-1
0	48809	26.61	-1
0	48998	26.71	-1
0	49187	26.81	-1
0	49376	26.91	-1
0	49571	27.01	-1
0	49760	27.11	-1
0	49949	27.21	-1
0	50138	27.31	-1
0	50327	27.41	-1
0	50516	27.51	-1
0	50705	27.61	-1
0	50894	27.71	-1
0	51083	27.81	-1
0	51272	27.91	-1
0	51467	28.01	-1
0	51656	28.11	-1
0	51845	28.21	-1
0	52034	28.31	-1
0	52223	28.41	-1
0	52412	28.51	-1
0	52601	28.61	-1
0	52790	28.71	-1
0	52979	28.81	-1
0	53168	28.91	-1
0	53363	29.01	-1
0	53552	29.11	-1
0	53741	29.21	-1
0	53930	29.31	-1
0	54119	29.41	-1
0	54308	29.51	-1
0	54497	29.61	-1
0	54686	29.71	-1
0	54875	29.81	-1
0	55064	29.91	-1
0	55259	30.01	-1
0	55448	30.11	-1
0	55637	30.21	-1
0	55826	30.31	-1
0	56015	30.41	-1
0	56204	30.51	-1
0	56393	30.61	-1
0	56582	30.71	-1
0	56771	30.81	-1
0	56960	30.91	-1
0	57155	31.01	-1
0	57344	31.11	-1
0	57533	31.21	-1
0	57722	31.31	-1
0	57911	31.41	-1
0	58100	31.51	-1
0	58289	31.61	-1
0	58478	31.71	-1
0	58667	31.81	-1
0	58856	31.91	-1
0	59051	32.01	-1
0	59240	32.11	-1
0	59429	32.21	-1
0	59618	32.31	-1
0	59807	32.41	-1
0	59996	32.51	-1
0	60185	32.61	-1
0	60374	32.71	-1
0	60563	32.81	-1
0	60752	32.91	-1
0	60947	33.01	-1
0	61136	33.11	-1
0	61325	33.21	-1
0	61514	33.31	-1
0	61703	33.41	-1
0	61892	33.51	-1
0	62081	33.61	-1
0	62270	33.71	-1
0	62459	33.81	-1
0	62648	33.91	-1
0	62843	34.01	-1
0	63032	34.11	-1
0	63221	34.21	-1
0	63410	34.31	-1
0	63599	34.41	-1
0	63788	34.51	-1
0	63977	34.61	-1
0	64166	34.71	-1
0	64355	34.81	-1
0	64544	34.91	-1
0	64739	35.01	-1
0	64928	35.11	-1
0	65117	35.21	-1
0	65306	35.31	-1
0	65495	35.41	-1
0	65684	35.51	-1
0	65873	35.61	-1
0	66062	35.71	-1
0	66251	35.81	-1
0	66440	35.91	-1
0	66635	36.01	-1
0	66824	36.11	-1
0	67013	36.21	-1
0	67202	36.31	-1
0	67391	36.41	-1
0	67580	36.51	-1
0	67769	36.61	-1
0	67958	36.71	-1
0	68147	36.81	-1
0	68336	36.91	-1
0	68531	37.01	-1
0	68720	37.11	-1
0	68909	37.21	-1
0	69098	37.31	-1
0	69287	37.41	-1
0	69476	37.51	-1
0	69665	37.61	-1
0	69854	37.71	-1
0	70043	37.81	-1
0	70232	37.91	-1
0	70427	38.01	-1
0	70616	38.11	-1
0	70805	38.21	-1
0	70994	38.31	-1
0	71183	38.41	-1
0	71372	38.51	-1
0	71561	38.61	-1
0	71750	38.71	-1
0	71939	38.81	-1
0	72128	38.91	-1
0	72323	39.01	-1
0	72512	39.11	-1
0	72701	39.21	-1
0	72890	39.31	-1
0	73079	39.41	-1
0	73268	39.51	-1
0	73457	39.61	-1
0	73646	39.71	-1
0	73835	39.81	-1
0	74024	39.91	-1
0	74219	40.01	-1
0	74408	40.11	-1
0	74597	40.21	-1
0	74786	40.31	-1
0	74975	40.41	-1
0	75164	40.51	-1
0	75353	40.61	-1
0	75542	40.71	-1
0	75731	40.81	-1
0	75920	40.91	-1
0	76115	41.01	-1
0	76304	41.11	-1
0	76493	41.21	-1
0	76682	41.31	-1
0	76871	41.41	-1
0	77060	41.51	-1
0	77249	41.61	-1
0	77438	41.71	-1
0	77627	41.81	-1
0	77816	41.91	-1
0	78011	42.01	-1
0	78200	42.11	-1
0	78389	42.21	-1
0	78578	42.31	-1
0	78767	42.41	-1
0	78956	42.51	-1
0	79145	42.61	-1
0	79334	42.71	-1
0	79523	42.81	-1
0	79712	42.91	-1
0	79907	43.01	-1
0	80096	43.11	-1
0	80285	43.21	-1
0	80474	43.31	-1
0	80663	43.41	-1
0	80852	43.51	-1
0	81041	43.61	-1
0	81230	43.71	-1
0	81419	43.81	-1
0	81608	43.91	-1
0	81803	44.01	-1
0	81992	44.11	-1
0	82181	44.21	-1
0	82370	44.31	-1
0	82559	44.41	-1
0	82748	44.51	-1
0	82937	44.61	-1
0	83126	44.71	-1
0	83315	44.81	-1
0	83504	44.91	-1
0	83699	45.01	-1
0	83888	45.11	-1
0	84077	45.21	-1
0	84266	45.31	-1
0	84455	45.41	-1
0	84644	45.51	-1
0	84833	45.61	-1
0	85022	45.71	-1
0	85277	45.81	-1
0	85465	45.91	-1
0	85659	46.01	-1
0	85847	46.11	-1
0	86035	46.21	-1
0	86223	46.31	-1
0	86411	46.41	-1
0	86599	46.51	-1
0	86787	46.61	-1
0	86975	46.71	-1
0	87163	46.81	-1
0	87351	46.91	-1
0	87545	47.01	-1
0	87733	47.11	-1
0	87921	47.21	-1
0	88109	47.31	-1
0	88297	47.41	-1
0	88485	47.51	-1
0	88673	47.61	-1
0	88861	47.71	-1
0	89049	47.81	-1
0	89237	47.91	-1
0	89431	48.01	-1
0	89619	48.11	-1
0	89807	48.21	-1
0	89995	48.31	-1
0	90183	48.41	-1
0	90371	48.51	-1
0	90559	48.61	-1
0	90747	48.71	-1
0	90935	48.81	-1
0	91123	48.91	-1
0	91317	49.01	-1
0	91505	49.11	-1
0	91693	49.21	-1
0	91881	49.31	-1
0	92069	49.41	-1
0	92257	49.51	-1
0	92445	49.61	-1
0	92633	49.71	-1
0	92821	49.81	-1
0	93009	49.91	-1
0	93203	50.01	-1
0	93391	50.11	-1
0	93579	50.21	-1
0	93767	50.31	-1
0	93955	50.41	-1
0	94143	50.51	-1
0	94331	50.61	-1
0	94519	50.71	-1
0	94707	50.81	-1
0	94895	50.91	-1
0	95089	51.01	-1
0	95277	51.11	-1
0	95465	51.21	-1
0	95653	51.31	-1
0	95841	51.41	-1
0	96029	51.51	-1
0	96217	51.61	-1
0	96405	51.71	-1
0	96593	51.81	-1
0	96781	51.91	-1
0	96975	52.01	-1
0	97163	52.11	-1
0	97351	52.21	-1
0	97539	52.31	-1
0	97727	52.41	-1
0	97915	52.51	-1
0	98103	52.61	-1
0	98291	52.71	-1
0	98479	52.81	-1
0	98667	52.91	-1
0	98861	53.01	-1
0	99049	53.11	-1
0	99237	53.21	-1
0	99425	53.31	-1
0	99613	53.41	-1
0	99801	53.51	-1
0	99989	53.61	-1
0	100177	53.71	-1
0	100365	53.81	-1
0	100553	53.91	-1
0	100747	54.01	-1
0	100935	54.11	-1
0	101123	54.21	-1
0	101311	54.31	-1
0	101499	54.41	-1
0	101687	54.51	-1
0	101875	54.61	-1
0	102063	54.71	-1
0	102251	54.81	-1
0	102439	54.91	-1
0	102633	55.01	-1
0	102821	55.11	-1
0	103009	55.21	-1
0	103197	55.31	-1
0	103385	55.41	-1
0	103573	55.51	-1
0	103761	55.61	-1
0	103949	55.71	-1
0	104137	55.81	-1
0	104325	55.91	-1
0	104519	56.01	-1
0	104707	56.11	-1
0	104895	56.21	-1
0	105083	56.31	-1
0	105271	56.41	-1
0	105459	56.51	-1
0	105647	56.61	-1
0	105835	56.71	-1
0	106023	56.81	-1
0	106211	56.91	-1
0	106405	57.01	-1
0	106593	57.11	-1
0	106781	57.21	-1
0	106969	57.31	-1
0	107157	57.41	-1
0	107345	57.51	-1
0	107533	57.61	-1
0	107721	57.71	-1
0	107909	57.81	-1
0	108097	57.91	-1
0	108291	58.01	-1
0	108479	58.11	-1
0	108667	58.21	-1
0	108855	58.31	-1
0	109043	58.41	-1
0	109231	58.51	-1
0	109419	58.61	-1
0	109607	58.71	-1
0	109795	58.81	-1
0	109983	58.91	-1
0	110177	59.01	-1
0	110365	59.11	-1
0	110553	59.21	-1
0	110741	59.31	-1
0	110929	59.41	-1
0	111117	59.51	-1
0	111305	59.61	-1
0	111493	59.71	-1
0	111681	59.81	-1
0	111869	59.91	-1
0	112063	60.01	-1
0	112251	60.11	-1
0	112439	60.21	-1
0	112627	60.31	-1
0	112815	60.41	-1
0	113003	60.51	-1
0	113191	60.61	-1
0	113379	60.71	-1
0	113567	60.81	-1
0	113755	60.91	-1
0	113949	61.01	-1
0	114137	61.11	-1
0	114325	61.21	-1
0	114513	61.31	-1
0	114701	61.41	-1
0	114889	61.51	-1
0	115077	61.61	-1
0	115265	61.71	-1
0	115453	61.81	-1
0	115641	61.91	-1
0	115835	62.01	-1
0	116023	62.11	-1
0	116211	62.21	-1
0	116399	62.31	-1
0	116587	62.41	-1
0	116775	62.51	-1
0	116963	62.61	-1
0	117151	62.71	-1
0	117339	62.81	-1
0	117527	62.91	-1
0	117721	63.01	-1
0	117909	63.11	-1
0	118097	63.21	-1
0	118285	63.31	-1
0	118473	63.41	-1
0	118661	63.51	-1
0	118849	63.61	-1
0	119037	63.71	-1
0	119225	63.81	-1
0	119413	63.91	-1
0	119607	64.01	-1
0	119795	64.11	-1
0	119983	64.21	-1
0	120171	64.31	-1
0	120359	64.41	-1
0	120547	64.51	-1
0	120735	64.61	-1
0	120923	64.71	-1
0	121111	64.81	-1
0	121299	64.91	-1
0	121493	65.01	-1
0	121681	65.11	-1
0	121869	65.21	-1
0	122057	65.31	-1
0	122245	65.41	-1
0	122433	65.51	-1
0	122621	65.61	-1
0	122809	65.71	-1
0	122997	65.81	-1
0	123185	65.91	-1
0	123379	66.01	-1
0	123567	66.11	-1
0	123755	66.21	-1
0	123943	66.31	-1
0	124131	66.41	-1
0	124319	66.51	-1
0	124507	66.61	-1
0	124695	66.71	-1
0	124883	66.81	-1
0	125071	66.91	-1
0	125265	67.01	-1
0	125453	67.11	-1
0	125641	67.21	-1
0	125829	67.31	-1
0	126017	67.41	-1
0	126205	67.51	-1
0	126393	67.61	-1
0	126581	67.71	-1
0	126769	67.81	-1
0	126957	67.91	-1
0	127151	68.01	-1
0	127339	68.11	-1
0	127527	68.21	-1
0	127715	68.31	-1
0	127903	68.41	-1
0	128091	68.51	-1
0	128279	68.61	-1
0	128467	68.71	-1
0	128655	68.81	-1
0	128843	68.91	-1
0	129037	69.01	-1
0	129225	69.11	-1
0	129413	69.21	-1
0	129601	69.31	-1
0	129789	69.41	-1
0	129977	69.51	-1
0	130165	69.61	-1
0	130353	69.71	-1
0	130541	69.81	-1
0	130729	69.91	-1
0	130923	70.01	-1
0	131111	70.11	-1
0	131299	70.21	-1
0	131487	70.31	-1
0	131675	70.41	-1
0	131863	70.51	-1
0	132051	70.61	-1
0	132239	70.71	-1
0	132427	70.81	-1
0	132615	70.91	-1
0	132809	71.01	-1
0	132997	71.11	-1
0	133185	71.21	-1
0	133373	71.31	-1
0	133561	71.41	-1
0	133749	71.51	-1
0	133937	71.61	-1
0	134125	71.71	-1
0	134313	71.81	-1
0	134501	71.91	-1
0	134695	72.01	-1
0	134883	72.11	-1
0	135071	72.21	-1
0	135259	72.31	-1
0	135447	72.41	-1
0	135635	72.51	-1
0	135823	72.61	-1
0	136011	72.71	-1
0	136199	72.81	-1
0	136387	72.91	-1
0	136581	73.01	-1
0	136769	73.11	-1
0	136957	73.21	-1
0	137145	73.31	-1
0	137333	73.41	-1
0	137521	73.51	-1
0	137709	73.61	-1
0	137897	73.71	-1
0	138085	73.81	-1
0	138273	73.91	-1
0	138467	74.01	-1
0	138655	74.11	-1
0	138843	74.21	-1
0	139031	74.31	-1
0	139219	74.41	-1
0	139407	74.51	-1
0	139595	74.61	-1
0	139783	74.71	-1
0	139971	74.81	-1
0	140159	74.91	-1
0	140353	75.01	-1
0	140541	75.11	-1
0	140729	75.21	-1
0	140917	75.31	-1
0	141105	75.41	-1
0	141293	75.51	-1
0	141481	75.61	-1
0	141669	75.71	-1
0	141857	75.81	-1
0	142045	75.91	-1
0	142239	76.01	-1
0	142427	76.11	-1
0	142615	76.21	-1
0	142803	76.31	-1
0	142991	76.41	-1
0	143179	76.51	-1
0	143367	76.61	-1
0	143555	76.71	-1
0	143743	76.81	-1
0	143931	76.91	-1
0	144125	77.01	-1
0	144313	77.11	-1
0	144501	77.21	-1
0	144689	77.31	-1
0	144877	77.41	-1
0	145065	77.51	-1
0	145253	77.61	-1
0	145441	77.71	-1
0	145629	77.81	-1
0	145817	77.91	-1
0	146011	78.01	-1
0	146199	78.11	-1
0	146387	78.21	-1
0	146575	78.31	-1
0	146763	78.41	-1
0	146951	78.51	-1
0	147139	78.61	-1
0	147327	78.71	-1
0	147515	78.81	-1
0	147703	78.91	-1
0	147897	79.01	-1
0	148085	79.11	-1
0	148273	79.21	-1
0	148461	79.31	-1
0	148649	79.41	-1
0	148837	79.51	-1
0	149025	79.61	-1
0	149213	79.71	-1
0	149401	79.81	-1
0	149589	79.91	-1
0	149783	80.01	-1
0	149971	80.11	-1
0	150159	80.21	-1
0	150347	80.31	-1
0	150535	80.41	-1
0	150723	80.51	-1
0	150911	80.61	-1
0	151099	80.71	-1
0	151287	80.81	-1
0	151475	80.91	-1
0	151669	81.01	-1
0	151857	81.11	-1
0	152045	81.21	-1
0	152233	81.31	-1
0	152421	81.41	-1
0	152609	81.51	-1
0	152797	81.61	-1
0	152985	81.71	-1
0	153173	81.81	-1
0	153361	81.91	-1
0	153555	82.01	-1
0	153743	82.11	-1
0	153931	82.21	-1
0	154119	82.31	-1
0	154307	82.41	-1
0	154495	82.51	-1
0	154683	82.61	-1
0	154871	82.71	-1
0	155059	82.81	-1
0	155247	82.91	-1
0	155441	83.01	-1
0	155629	83.11	-1
0	155817	83.21	-1
0	156005	83.31	-1
0	156193	83.41	-1
0	156381	83.51	-1
0	156569	83.61	-1
0	156757	83.71	-1
0	156945	83.81	-1
0	157133	83.91	-1
0	157327	84.01	-1
0	157515	84.11	-1
0	157703	84.21	-1
0	157891	84.31	-1
0	158079	84.41	-1
0	158267	84.51	-1
0	158455	84.61	-1
0	158643	84.71	-1
0	158831	84.81	-1
0	159019	84.91	-1
0	159213	85.01	-1
0	159401	85.11	-1
0	159589	85.21	-1
0	159777	85.31	-1
0	159965	85.41	-1
0	160153	85.51	-1
0	160341	85.61	-1
0	160529	85.71	-1
0	160717	85.81	-1
0	160905	85.91	-1
0	161099	86.01	-1
0	161287	86.11	-1
0	161475	86.21	-1
0	161663	86.31	-1
0	161851	86.41	-1
0	162039	86.51	-1
0	162227	86.61	-1
0	162415	86.71	-1
0	162603	86.81	-1
0	162791	86.91	-1
0	162985	87.01	-1
0	163173	87.11	-1
0	163361	87.21	-1
0	163549	87.31	-1
0	163737	87.41	-1
0	163925	87.51	-1
0	164113	87.61	-1
0	164301	87.71	-1
0	164489	87.81	-1
0	164677	87.91	-1
0	164871	88.01	-1
0	165059	88.11	-1
0	165247	88.21	-1
0	165435	88.31	-1
0	165623	88.41	-1
0	165811	88.51	-1
0	165999	88.61	-1
0	166187	88.71	-1
0	166375	88.81	-1
0	166563	88.91	-1
0	166757	89.01	-1
0	166945	89.11	-1
0	167133	89.21	-1
0	167321	89.31	-1
0	167509	89.41	-1
0	167697	89.51	-1
0	167885	89.61	-1
0	168073	89.71	-1
0	168261	89.81	-1
0	168449	89.91	-1
0	168643	90.01	-1
0	168831	90.11	-1
0	169019	90.21	-1
0	169207	90.31	-1
0	169395	90.41	-1
0	169583	90.51	-1
0	169771	90.61	-1
0	169959	90.71	-1
0	170147	90.81	-1
0	170335	90.91	-1
0	170529	91.01	-1
0	170717	91.11	-1
0	170905	91.21	-1
0	171093	91.31	-1
0	171281	91.41	-1
0	171469	91.51	-1
0	171657	91.61	-1
0	171845	91.71	-1
0	172033	91.81	-1
0	172221	91.91	-1
0	172415	92.01	-1
0	172603	92.11	-1
0	172791	92.21	-1
0	172979	92.31	-1
0	173167	92.41	-1
0	173355	92.51	-1
0	173543	92.61	-1
0	173731	92.71	-1
0	173919	92.81	-1
0	174107	92.91	-1
0	174301	93.01	-1
0	174489	93.11	-1
0	174677	93.21	-1
0	174865	93.31	-1
0	175053	93.41	-1
0	175241	93.51	-1
0	175429	93.61	-1
0	175617	93.71	-1
0	175805	93.81	-1
0	175993	93.91	-1
0	176187	94.01	-1
0	176375	94.11	-1
0	176563	94.21	-1
0	176751	94.31	-1
0	176939	94.41	-1
0	177127	94.51	-1
0	177315	94.61	-1
0	177503	94.71	-1
0	177691	94.81	-1
0	177879	94.91	-1
0	178073	95.01	-1
0	178261	95.11	-1
0	178449	95.21	-1
0	178637	95.31	-1
0	178825	95.41	-1
0	179013	95.51	-1
0	179201	95.61	-1
0	179389	95.71	-1
0	179577	95.81	-1
0	179765	95.91	-1
0	179959	96.01	-1
0	180147	96.11	-1
0	180335	96.21	-1
0	180523	96.31	-1
0	180711	96.41	-1
0	180899	96.51	-1
0	181087	96.61	-1
0	181275	96.71	-1
0	181463	96.81	-1
0	181651	96.91	-1
0	181845	97.01	-1
0	182033	97.11	-1
0	182221	97.21	-1
0	182409	97.31	-1
0	182597	97.41	-1
0	182785	97.51	-1
0	182973	97.61	-1
0	183161	97.71	-1
0	183349	97.81	-1
0	183537	97.91	-1
0	183731	98.01	-1
0	183919	98.11	-1
0	184107	98.21	-1
0	184295	98.31	-1
0	184483	98.41	-1
0	184671	98.51	-1
0	184859	98.61	-1
0	185047	98.71	-1
0	185235	98.81	-1
0	185423	98.91	-1
0	185617	99.01	-1
0	185805	99.11	-1
0	185993	99.21	-1
0	186181	99.31	-1
0	186369	99.41	-1
0	186557	99.51	-1
0	186745	99.61	-1
0	186933	99.71	-1
0	187121	99.81	-1
0	187309	99.91	-1
1	113	1.11	-9.20219e-06
1	301	1.21	-3.56873e-05
1	489	1.31	-6.22774e-05
1	677	1.41	-8.30991e-05
1	865	1.51	-9.9046e-05
1	1053	1.61	-0.000110693
1	1241	1.71	-0.000118904
1	1429	1.81	-0.000124154
1	1617	1.91	0
1	1811	2.01	0
1	1999	2.11	0
1	2187	2.21	0
1	2375	2.31	0
1	2563	2.41	0
1	2751	2.51	0
1	2939	2.61	0
1	3127	2.71	0
1	3315	2.81	0
1	3503	2.91	0
1	3697	3.01	0
1	3885	3.11	0
1	4073	3.21	0
1	4261	3.31	0
1	4449	3.41	0
1	4637	3.51	0
1	4825	3.61	0
1	5013	3.71	0
1	5201	3.81	0
1	5389	3.91	0
1	5583	4.01	0
1	5771	4.11	0
1	5959	4.21	0
1	6147	4.31	0
1	6335	4.41	0
1	6523	4.51	0
1	6711	4.61	0
1	6899	4.71	0
1	7087	4.81	0
1	7275	4.91	0
1	7469	5.01	0
1	7657	5.11	0
1	7845	5.21	0
1	8033	5.31	0
1	8221	5.41	0
1	8409	5.51	0
1	8597	5.61	0
1	8785	5.71	0
1	8973	5.81	0
1	9161	5.91	0
1	9355	6.01	0
1	9543	6.11	0
1	9731	6.21	0
1	9919	6.31	0
1	10107	6.41	0
1	10295	6.51	0
1	10483	6.61	0
1	10671	6.71	0
1	10859	6.81	0
1	11047	6.91	0
1	11241	7.01	0
1	11429	7.11	0
1	11617	7.21	0
1	11805	7.31	0
1	11993	7.41	0
1	12181	7.51	0
1	12369	7.61	0
1	12557	7.71	0
1	12745	7.81	0
1	12933	7.91	0
1	13127	8.01	0
1	13315	8.11	0
1	13503	8.21	0
1	13691	8.31	0
1	13879	8.41	0
1	14067	8.51	0
1	14255	8.61	0
1	14443	8.71	0
1	14631	8.81	0
1	14819	8.91	0
1	15013	9.01	0
1	15201	9.11	0
1	15389	9.21	0
1	15577	9.31	0
1	15765	9.41	0
1	15953	9.51	0
1	16141	9.61	0
1	16329	9.71	0
1	16517	9.81	0
1	16705	9.91	0
1	17339	10.01	0
1	17528	10.11	0
1	17717	10.21	0
1	17906	10.31	0
1	18095	10.41	0
1	18284	10.51	0
1	18473	10.61	0
1	18662	10.71	0
1	18851	10.81	0
1	19040	10.91	0
1	19235	11.01	0
1	19424	11.11	0
1	19613	11.21	0
1	19802	11.31	0
1	19991	11.41	0
1	20180	11.51	0
1	20369	11.61	0
1	20558	11.71	0
1	20747	11.81	0
1	20936	11.91	0
1	21131	12.01	0
1	21320	12.11	0
1	21509	12.21	0
1	21698	12.31	0
1	21887	12.41	0
1	22076	12.51	0
1	22265	12.61	0
1	22454	12.71	0
1	22643	12.81	0
1	22832	12.91	0
1	23027	13.01	0
1	23216	13.11	0
1	23405	13.21	0
1	23594	13.31	0
1	23783	13.41	0
1	23972	13.51	0
1	24161	13.61	0
1	24350	13.71	0
1	24539	13.81	0
1	24728	13.91	0
1	24923	14.01	0
1	25112	14.11	0
1	25301	14.21	0
1	25490	14.31	0
1	25679	14.41	0
1	25868	14.51	0
1	26057	14.61	0
1	26246	14.71	0
1	26435	14.81	0
1	26624	14.91	0
1	26819	15.01	0
1	27008	15.11	0
1	27197	15.21	0
1	27386	15.31	0
1	27575	15.41	0
1	27764	15.51	0
1	27953	15.61	0
1	28142	15.71	0
1	28331	15.81	0
1	28520	15.91	0
1	28715	16.01	0
1	28904	16.11	0
1	29093	16.21	0
1	29282	16.31	0
1	29471	16.41	0
1	29660	16.51	0
1	29849	16.61	0
1	30038	16.71	0
1	30227	16.81	0
1	30416	16.91	0
1	30611	17.01	0
1	30800	17.11	0
1	30989	17.21	0
1	31178	17.31	0
1	31367	17.41	0
1	31556	17.51	0
1	31745	17.61	0
1	31934	17.71	0
1	32123	17.81	0
1	32312	17.91	0
1	32507	18.01	0
1	32696	18.11	0
1	32885	18.21	0
1	33074	18.31	0
1	33263	18.41	0
1	33452	18.51	0
1	33641	18.61	0
1	33830	18.71	0
1	34019	18.81	0
1	34208	18.91	0
1	34403	19.01	0
1	34592	19.11	0
1	34781	19.21	0
1	34970	19.31	0
1	35159	19.41	0
1	35348	19.51	0
1	35537	19.61	0
1	35726	19.71	0
1	35915	19.81	0
1	36104	19.91	0
1	36299	20.01	0
1	36488	20.11	0
1	36677	20.21	0
1	36866	20.31	0
1	37055	20.41	0
1	37244	20.51	0
1	37433	20.61	0
1	37622	20.71	0
1	37811	20.81	0
1	38000	20.91	0
1	38195	21.01	0
1	38384	21.11	0
1	38573	21.21	0
1	38762	21.31	0
1	38951	21.41	0
1	39140	21.51	0
1	39329	21.61	0
1	39518	21.71	0
1	39707	21.81	0
1	39896	21.91	0
1	40091	22.01	0
1	40280	22.11	0
1	40469	22.21	0
1	40658	22.31	0
1	40847	22.41	0
1	41036	22.51	0
1	41225	22.61	0
1	41414	22.71	0
1	41603	22.81	0
1	41792	22.91	0
1	41987	23.01	0
1	42176	23.11	0
1	42365	23.21	0
1	42554	23.31	0
1	42743	23.41	0
1	42932	23.51	0
1	43121	23.61	0
1	43310	23.71	0
1	43499	23.81	0
1	43688	23.91	0
1	43883	24.01	0
1	44072	24.11	0
1	44261	24.21	0
1	44450	24.31	0
1	44639	24.41	0
1	44828	24.51	0
1	45017	24.61	0
1	45206	24.71	0
1	45395	24.81	0
1	45584	24.91	0
1	45779	25.01	0
1	45968	25.11	0
1	46157	25.21	0
1	46346	25.31	0
1	46535	25.41	0
1	46724	25.51	0
1	46913	25.61	0
1	47102	25.71	0
1	47291	25.81	0
1	47480	25.91	0
1	47675	26.01	0
1	47864	26.11	0
1	48053	26.21	0
1	48242	26.31	0
1	48431	26.41	0
1	48620	26.51	0
1	48809	26.61	0
1	48998	26.71	0
1	49187	26.81	0
1	49376	26.91	0
1	49571	27.01	0
1	49760	27.11	0
1	49949	27.21	0
1	50138	27.31	0
1	50327	27.41	0
1	50516	27.51	0
1	50705	27.61	0
1	50894	27.71	0
1	51083	27.81	0
1	51272	27.91	0
1	51467	28.01	0
1	51656	28.11	0
1	51845	28.21	0
1	52034	28.31	0
1	52223	28.41	0
1	52412	28.51	0
1	52601	28.61	0
1	52790	28.71	0
1	52979	28.81	0
1	53168	28.91	0
1	53363	29.01	0
1	53552	29.11	0
1	53741	29.21	0
1	53930	29.31	0
1	54119	29.41	0
1	54308	29.51	0
1	54497	29.61	0
1	54686	29.71	0
1	54875	29.81	0
1	55064	29.91	0
1	55259	30.01	0
1	55448	30.11	0
1	55637	30.21	0
1	55826	30.31	0
1	56015	30.41	0
1	56204	30.51	0
1	56393	30.61	0
1	56582	30.71	0
1	56771	30.81	0
1	56960	30.91	0
1	57155	31.01	0
1	57344	31.11	0
1	57533	31.21	0
1	57722	31.31	0
1	57911	31.41	0
1	58100	31.51	0
1	58289	31.61	0
1	58478	31.71	0
1	58667	31.81	0
1	58856	31.91	0
1	59051	32.01	0
1	59240	32.11	0
1	59429	32.21	0
1	59618	32.31	0
1	59807	32.41	0
1	59996	32.51	0
1	60185	32.61	0
1	60374	32.71	0
1	60563	32.81	0
1	60752	32.91	0
1	60947	33.01	0
1	61136	33.11	0
1	61325	33.21	0
1	61514	33.31	0
1	61703	33.41	0
1	61892	33.51	0
1	62081	33.61	0
1	62270	33.71	0
1	62459	33.81	0
1	62648	33.91	0
1	62843	34.01	0
1	63032	34.11	0
1	63221	34.21	0
1	63410	34.31	0
1	63599	34.41	0
1	63788	34.51	0
1	63977	34.61	0
1	64166	34.71	0
1	64355	34.81	0
1	64544	34.91	0
1	64739	35.01	0
1	64928	35.11	0
1	65117	35.21	0
1	65306	35.31	0
1	65495	35.41	0
1	65684	35.51	0
1	65873	35.61	0
1	66062	35.71	0
1	66251	35.81	0
1	66440	35.91	0
1	66635	36.01	0
1	66824	36.11	0
1	67013	36.21	0
1	67202	36.31	0
1	67391	36.41	0
1	67580	36.51	0
1	67769	36.61	0
1	67958	36.71	0
1	68147	36.81	0
1	68336	36.91	0
1	68531	37.01	0
1	68720	37.11	0
1	68909	37.21	0
1	69098	37.31	0
1	69287	37.41	0
1	69476	37.51	0
1	69665	37.61	0
1	69854	37.71	0
1	70043	37.81	0
1	70232	37.91	0
1	70427	38.01	0
1	70616	38.11	0
1	70805	38.21	0
1	70994	38.31	0
1	71183	38.41	0
1	71372	38.51	0
1	71561	38.61	0
1	71750	38.71	0
1	71939	38.81	0
1	72128	38.91	0
1	72323	39.01	0
1	72512	39.11	0
1	72701	39.21	0
1	72890	39.31	0
1	73079	39.41	0
1	73268	39.51	0
1	73457	39.61	0
1	73646	39.71	0
1	73835	39.81	0
1	74024	39.91	0
1	74219	40.01	0
1	74408	40.11	0
1	74597	40.21	0
1	74786	40.31	0
1	74975	40.41	0
1	75164	40.51	0
1	75353	40.61	0
1	75542	40.71	0
1	75731	40.81	0
1	75920	40.91	0
1	76115	41.01	0
1	76304	41.11	0
1	76493	41.21	0
1	76682	41.31	0
1	76871	41.41	0
1	77060	41.51	0
1	77249	41.61	0
1	77438	41.71	0
1	77627	41.81	0
1	77816	41.91	0
1	78011	42.01	0
1	78200	42.11	0
1	78389	42.21	0
1	78578	42.31	0
1	78767	42.41	0
1	78956	42.51	0
1	79145	42.61	0
1	79334	42.71	0
1	79523	42.81	0
1	79712	42.91	0
1	79907	43.01	0
1	80096	43.11	0
1	80285	43.21	0
1	80474	43.31	0
1	80663	43.41	0
1	80852	43.51	0
1	81041	43.61	0
1	81230	43.71	0
1	81419	43.81	0
1	81608	43.91	0
1	81803	44.01	0
1	81992	44.11	0
1	82181	44.21	0
1	82370	44.31	0
1	82559	44.41	0
1	82748	44.51	0
1	82937	44.61	0
1	83126	44.71	0
1	83315	44.81	0
1	83504	44.91	0
1	83699	45.01	0
1	83888	45.11	0
1	84077	45.21	0
1	84266	45.31	0
1	84455	45.41	0
1	84644	45.51	0
1	84833	45.61	0
1	85022	45.71	0
1	85277	45.81	0
1	85465	45.91	0
1	85659	46.01	0
1	85847	46.11	0
1	86035	46.21	0
1	86223	46.31	0
1	86411	46.41	0
1	86599	46.51	0
1	86787	46.61	0
1	86975	46.71	0
1	87163	46.81	0
1	87351	46.91	0
1	87545	47.01	0
1	87733	47.11	0
1	87921	47.21	0
1	88109	47.31	0
1	88297	47.41	0
1	88485	47.51	0
1	88673	47.61	0
1	88861	47.71	0
1	89049	47.81	0
1	89237	47.91	0
1	89431	48.01	0
1	89619	48.11	0
1	89807	48.21	0
1	89995	48.31	0
1	90183	48.41	0
1	90371	48.51	0
1	90559	48.61	0
1	90747	48.71	0
1	90935	48.81	0
1	91123	48.91	0
1	91317	49.01	0
1	91505	49.11	0
1	91693	49.21	0
1	91881	49.31	0
1	92069	49.41	0
1	92257	49.51	0
1	92445	49.61	0
1	92633	49.71	0
1	92821	49.81	0
1	93009	49.91	0
1	93203	50.01	0
1	93391	50.11	0
1	93579	50.21	0
1	93767	50.31	0
1	93955	50.41	0
1	94143	50.51	0
1	94331	50.61	0
1	94519	50.71	0
1	94707	50.81	0
1	94895	50.91	0
1	95089	51.01	0
1	95277	51.11	0
1	95465	51.21	0
1	95653	51.31	0
1	95841	51.41	0
1	96029	51.51	0
1	96217	51.61	0
1	96405	51.71	0
1	96593	51.81	0
1	96781	51.91	0
1	96975	52.01	0
1	97163	52.11	0
1	97351	52.21	0
1	97539	52.31	0
1	97727	52.41	0
1	97915	52.51	0
1	98103	52.61	0
1	98291	52.71	0
1	98479	52.81	0
1	98667	52.91	0
1	98861	53.01	0
1	99049	53.11	0
1	99237	53.21	0
1	99425	53.31	0
1	99613	53.41	0
1	99801	53.51	0
1	99989	53.61	0
1	100177	53.71	0
1	100365	53.81	0
1	100553	53.91	0
1	100747	54.01	0
1	100935	54.11	0
1	101123	54.21	0
1	101311	54.31	0
1	101499	54.41	0
1	101687	54.51	0
1	101875	54.61	0
1	102063	54.71	0
1	102251	54.81	0
1	102439	54.91	0
1	102633	55.01	0
1	102821	55.11	0
1	103009	55.21	0
1	103197	55.31	0
1	103385	55.41	0
1	103573	55.51	0
1	103761	55.61	0
1	103949	55.71	0
1	104137	55.81	0
1	104325	55.91	0
1	104519	56.01	0
1	104707	56.11	0
1	104895	56.21	0
1	105083	56.31	0
1	105271	56.41	0
1	105459	56.51	0
1	105647	56.61	0
1	105835	56.71	0
1	106023	56.81	0
1	106211	56.91	0
1	106405	57.01	0
1	106593	57.11	0
1	106781	57.21	0
1	106969	57.31	0
1	107157	57.41	0
1	107345	57.51	0
1	107533	57.61	0
1	107721	57.71	0
1	107909	57.81	0
1	108097	57.91	0
1	108291	58.01	0
1	108479	58.11	0
1	108667	58.21	0
1	108855	58.31	0
1	109043	58.41	0
1	109231	58.51	0
1	109419	58.61	0
1	109607	58.71	0
1	109795	58.81	0
1	109983	58.91	0
1	110177	59.01	0
1	110365	59.11	0
1	110553	59.21	0
1	110741	59.31	0
1	110929	59.41	0
1	111117	59.51	0
1	111305	59.61	0
1	111493	59.71	0
1	111681	59.81	0
1	111869	59.91	0
1	112063	60.01	0
1	112251	60.11	0
1	112439	60.21	0
1	112627	60.31	0
1	112815	60.41	0
1	113003	60.51	0
1	113191	60.61	0
1	113379	60.71	0
1	113567	60.81	0
1	113755	60.91	0
1	113949	61.01	0
1	114137	61.11	0
1	114325	61.21	0
1	114513	61.31	0
1	114701	61.41	0
1	114889	61.51	0
1	115077	61.61	0
1	115265	61.71	0
1	115453	61.81	0
1	115641	61.91	0
1	115835	62.01	0
1	116023	62.11	0
1	116211	62.21	0
1	116399	62.31	0
1	116587	62.41	0
1	116775	62.51	0
1	116963	62.61	0
1	117151	62.71	0
1	117339	62.81	0
1	117527	62.91	0
1	117721	63.01	0
1	117909	63.11	0
1	118097	63.21	0
1	118285	63.31	0
1	118473	63.41	0
1	118661	63.51	0
1	118849	63.61	0
1	119037	63.71	0
1	119225	63.81	0
1	119413	63.91	0
1	119607	64.01	0
1	119795	64.11	0
1	119983	64.21	0
1	120171	64.31	0
1	120359	64.41	0
1	120547	64.51	0
1	120735	64.61	0
1	120923	64.71	0
1	121111	64.81	0
1	121299	64.91	0
1	121493	65.01	0
1	121681	65.11	0
1	121869	65.21	0
1	122057	65.31	0
1	122245	65.41	0
1	122433	65.51	0
1	122621	65.61	0
1	122809	65.71	0
1	122997	65.81	0
1	123185	65.91	0
1	123379	66.01	0
1	123567	66.11	0
1	123755	66.21	0
1	123943	66.31	0
1	124131	66.41	0
1	124319	66.51	0
1	124507	66.61	0
1	124695	66.71	0
1	124883	66.81	0
1	125071	66.91	0
1	125265	67.01	0
1	125453	67.11	0
1	125641	67.21	0
1	125829	67.31	0
1	126017	67.41	0
1	126205	67.51	0
1	126393	67.61	0
1	126581	67.71	0
1	126769	67.81	0
1	126957	67.91	0
1	127151	68.01	0
1	127339	68.11	0
1	127527	68.21	0
1	127715	68.31	0
1	127903	68.41	0
1	128091	68.51	0
1	128279	68.61	0
1	128467	68.71	0
1	128655	68.81	0
1	128843	68.91	0
1	129037	69.01	0
1	129225	69.11	0
1	129413	69.21	0
1	129601	69.31	0
1	129789	69.41	0
1	129977	69.51	0
1	130165	69.61	0
1	130353	69.71	0
1	130541	69.81	0
1	130729	69.91	0
1	130923	70.01	0
1	131111	70.11	0
1	131299	70.21	0
1	131487	70.31	0
1	131675	70.41	0
1	131863	70.51	0
1	132051	70.61	0
1	132239	70.71	0
1	132427	70.81	0
1	132615	70.91	0
1	132809	71.01	0
1	132997	71.11	0
1	133185	71.21	0
1	133373	71.31	0
1	133561	71.41	0
1	133749	71.51	0
1	133937	71.61	0
1	134125	71.71	0
1	134313	71.81	0
1	134501	71.91	0
1	134695	72.01	0
1	134883	72.11	0
1	135071	72.21	0
1	135259	72.31	0
1	135447	72.41	0
1	135635	72.51	0
1	135823	72.61	0
1	136011	72.71	0
1	136199	72.81	0
1	136387	72.91	0
1	136581	73.01	0
1	136769	73.11	0
1	136957	73.21	0
1	137145	73.31	0
1	137333	73.41	0
1	137521	73.51	0
1	137709	73.61	0
1	137897	73.71	0
1	138085	73.81	0
1	138273	73.91	0
1	138467	74.01	0
1	138655	74.11	0
1	138843	74.21	0
1	139031	74.31	0
1	139219	74.41	0
1	139407	74.51	0
1	139595	74.61	0
1	139783	74.71	0
1	139971	74.81	0
1	140159	74.91	0
1	140353	75.01	0
1	140541	75.11	0
1	140729	75.21	0
1	140917	75.31	0
1	141105	75.41	0
1	141293	75.51	0
1	141481	75.61	0
1	141669	75.71	0
1	141857	75.81	0
1	142045	75.91	0
1	142239	76.01	0
1	142427	76.11	0
1	142615	76.21	0
1	142803	76.31	0
1	142991	76.41	0
1	143179	76.51	0
1	143367	76.61	0
1	143555	76.71	0
1	143743	76.81	0
1	143931	76.91	0
1	144125	77.01	0
1	144313	77.11	0
1	144501	77.21	0
1	144689	77.31	0
1	144877	77.41	0
1	145065	77.51	0
1	145253	77.61	0
1	145441	77.71	0
1	145629	77.81	0
1	145817	77.91	0
1	146011	78.01	0
1	146199	78.11	0
1	146387	78.21	0
1	146575	78.31	0
1	146763	78.41	0
1	146951	78.51	0
1	147139	78.61	0
1	147327	78.71	0
1	147515	78.81	0
1	147703	78.91	0
1	147897	79.01	0
1	148085	79.11	0
1	148273	79.21	0
1	148461	79.31	0
1	148649	79.41	0
1	148837	79.51	0
1	149025	79.61	0
1	149213	79.71	0
1	149401	79.81	0
1	149589	79.91	0
1	149783	80.01	0
1	149971	80.11	0
1	150159	80.21	0
1	150347	80.31	0
1	150535	80.41	0
1	150723	80.51	0
1	150911	80.61	0
1	151099	80.71	0
1	151287	80.81	0
1	151475	80.91	0
1	151669	81.01	0
1	151857	81.11	0
1	152045	81.21	0
1	152233	81.31	0
1	152421	81.41	0
1	152609	81.51	0
1	152797	81.61	0
1	152985	81.71	0
1	153173	81.81	0
1	153361	81.91	0
1	153555	82.01	0
1	153743	82.11	0
1	153931	82.21	0
1	154119	82.31	0
1	154307	82.41	0
1	154495	82.51	0
1	154683	82.61	0
1	154871	82.71	0
1	155059	82.81	0
1	155247	82.91	0
1	155441	83.01	0
1	155629	83.11	0
1	155817	83.21	0
1	156005	83.31	0
1	156193	83.41	0
1	156381	83.51	0
1	156569	83.61	0
1	156757	83.71	0
1	156945	83.81	0
1	157133	83.91	0
1	157327	84.01	0
1	157515	84.11	0
1	157703	84.21	0
1	157891	84.31	0
1	158079	84.41	0
1	158267	84.51	0
1	158455	84.61	0
1	158643	84.71	0
1	158831	84.81	0
1	159019	84.91	0
1	159213	85.01	0
1	159401	85.11	0
1	159589	85.21	0
1	159777	85.31	0
1	159965	85.41	0
1	160153	85.51	0
1	160341	85.61	0
1	160529	85.71	0
1	160717	85.81	0
1	160905	85.91	0
1	161099	86.01	0
1	161287	86.11	0
1	161475	86.21	0
1	161663	86.31	0
1	161851	86.41	0
1	162039	86.51	0
1	162227	86.61	0
1	162415	86.71	0
1	162603	86.81	0
1	162791	86.91	0
1	162985	87.01	0
1	163173	87.11	0
1	163361	87.21	0
1	163549	87.31	0
1	163737	87.41	0
1	163925	87.51	0
1	164113	87.61	0
1	164301	87.71	0
1	164489	87.81	0
1	164677	87.91	0
1	164871	88.01	0
1	165059	88.11	0
1	165247	88.21	0
1	165435	88.31	0
1	165623	88.41	0
1	165811	88.51	0
1	165999	88.61	0
1	166187	88.71	0
1	166375	88.81	0
1	166563	88.91	0
1	166757	89.01	0
1	166945	89.11	0
1	167133	89.21	0
1	167321	89.31	0
1	167509	89.41	0
1	167697	89.51	0
1	167885	89.61	0
1	168073	89.71	0
1	168261	89.81	0
1	168449	89.91	0
1	168643	90.01	0
1	168831	90.11	0
1	169019	90.21	0
1	169207	90.31	0
1	169395	90.41	0
1	169583	90.51	0
1	169771	90.61	0
1	169959	90.71	0
1	170147	90.81	0
1	170335	90.91	0
1	170529	91.01	0
1	170717	91.11	0
1	170905	91.21	0
1	171093	91.31	0
1	171281	91.41	0
1	171469	91.51	0
1	171657	91.61	0
1	171845	91.71	0
1	172033	91.81	0
1	172221	91.91	0
1	172415	92.01	0
1	172603	92.11	0
1	172791	92.21	0
1	172979	92.31	0
1	173167	92.41	0
1	173355	92.51	0
1	173543	92.61	0
1	173731	92.71	0
1	173919	92.81	0
1	174107	92.91	0
1	174301	93.01	0
1	174489	93.11	0
1	174677	93.21	0
1	174865	93.31	0
1	175053	93.41	0
1	175241	93.51	0
1	175429	93.61	0
1	175617	93.71	0
1	175805	93.81	0
1	175993	93.91	0
1	176187	94.01	0
1	176375	94.11	0
1	176563	94.21	0
1	176751	94.31	0
1	176939	94.41	0
1	177127	94.51	0
1	177315	94.61	0
1	177503	94.71	0
1	177691	94.81	0
1	177879	94.91	0
1	178073	95.01	0
1	178261	95.11	0
1	178449	95.21	0
1	178637	95.31	0
1	178825	95.41	0
1	179013	95.51	0
1	179201	95.61	0
1	179389	95.71	0
1	179577	95.81	0
1	179765	95.91	0
1	179959	96.01	0
1	180147	96.11	0
1	180335	96.21	0
1	180523	96.31	0
1	180711	96.41	0
1	180899	96.51	0
1	181087	96.61	0
1	181275	96.71	0
1	181463	96.81	0
1	181651	96.91	0
1	181845	97.01	0
1	182033	97.11	0
1	182221	97.21	0
1	182409	97.31	0
1	182597	97.41	0
1	182785	97.51	0
1	182973	97.61	0
1	183161	97.71	0
1	183349	97.81	0
1	183537	97.91	0
1	183731	98.01	0
1	183919	98.11	0
1	184107	98.21	0
1	184295	98.31	0
1	184483	98.41	0
1	184671	98.51	0
1	184859	98.61	0
1	185047	98.71	0
1	185235	98.81	0
1	185423	98.91	0
1	185617	99.01	0
1	185805	99.11	0
1	185993	99.21	0
1	186181	99.31	0
1	186369	99.41	0
1	186557	99.51	0
1	186745	99.61	0
1	186933	99.71	0
1	187121	99.81	0
1	187309	99.91	0
2	113	1.11	0
2	301	1.21	0
2	489	1.31	0
2	677	1.41	0
2	865	1.51	0
2	1053	1.61	0
2	1241	1.71	0
2	1429	1.81	0
2	1617	1.91	0
2	1811	2.01	0
2	1999	2.11	0
2	2187	2.21	0
2	2375	2.31	0
2	2563	2.41	0
2	2751	2.51	0
2	2939	2.61	0
2	3127	2.71	0
2	3315	2.81	0
2	3503	2.91	0
2	3697	3.01	0
2	3885	3.11	0
2	4073	3.21	0
2	4261	3.31	0
2	4449	3.41	0
2	4637	3.51	0
2	4825	3.61	0
2	5013	3.71	0
2	5201	3.81	0
2	5389	3.91	0
2	5583	4.01	0
2	5771	4.11	0
2	5959	4.21	0
2	6147	4.31	0
2	6335	4.41	0
2	6523	4.51	0
2	6711	4.61	0
2	6899	4.71	0
2	7087	4.81	0
2	7275	4.91	0
2	7469	5.01	0
2	7657	5.11	0
2	7845	5.21	0
2	8033	5.31	0
2	8221	5.41	0
2	8409	5.51	0
2	8597	5.61	0
2	8785	5.71	0
2	8973	5.81	0
2	9161	5.91	0
2	9355	6.01	0
2	9543	6.11	0
2	9731	6.21	0
2	9919	6.31	0
2	10107	6.41	0
2	10295	6.51	0
2	10483	6.61	0
2	10671	6.71	0
2	10859	6.81	0
2	11047	6.91	0
2	11241	7.01	0
2	11429	7.11	0
2	11617	7.21	0
2	11805	7.31	0
2	11993	7.41	0
2	12181	7.51	0
2	12369	7.61	0
2	12557	7.71	0
2	12745	7.81	0
2	12933	7.91	0
2	13127	8.01	0
2	13315	8.11	0
2	13503	8.21	0
2	13691	8.31	0
2	13879	8.41	0
2	14067	8.51	0
2	14255	8.61	0
2	14443	8.71	0
2	14631	8.81	0
2	14819	8.91	0
2	15013	9.01	0
2	15201	9.11	0
2	15389	9.21	0
2	15577	9.31	0
2	15765	9.41	0
2	15953	9.51	0
2	16141	9.61	0
2	16329	9.71	0
2	16517	9.81	0
2	16705	9.91	0
2	17339	10.01	0
2	17528	10.11	0
2	17717	10.21	0
2	17906	10.31	0
2	18095	10.41	0
2	18284	10.51	0
2	18473	10.61	0
2	18662	10.71	0
2	18851	10.81	0
2	19040	10.91	0
2	19235	11.01	0
2	19424	11.11	0
2	19613	11.21	0
2	19802	11.31	0
2	19991	11.41	0
2	20180	11.51	0
2	20369	11.61	0
2	20558	11.71	0
2	20747	11.81	0
2	20936	11.91	0
2	21131	12.01	0
2	21320	12.11	0
2	21509	12.21	0
2	21698	12.31	0
2	21887	12.41	0
2	22076	12.51	0
2	22265	12.61	0
2	22454	12.71	0
2	22643	12.81	0
2	22832	12.91	0
2	23027	13.01	0
2	23216	13.11	0
2	23405	13.21	0
2	23594	13.31	0
2	23783	13.41	0
2	23972	13.51	0
2	24161	13.61	0
2	24350	13.71	0
2	24539	13.81	0
2	24728	13.91	0
2	24923	14.01	0
2	25112	14.11	0
2	25301	14.21	0
2	25490	14.31	0
2	25679	14.41	0
2	25868	14.51	0
2	26057	14.61	0
2	26246	14.71	0
2	26435	14.81	0
2	26624	14.91	0
2	26819	15.01	0
2	27008	15.11	0
2	27197	15.21	0
2	27386	15.31	0
2	27575	15.41	0
2	27764	15.51	0
2	27953	15.61	0
2	28142	15.71	0
2	28331	15.81	0
2	28520	15.91	0
2	28715	16.01	0
2	28904	16.11	0
2	29093	16.21	0
2	29282	16.31	0
2	29471	16.41	0
2	29660	16.51	0
2	29849	16.61	0
2	30038	16.71	0
2	30227	16.81	0
2	30416	16.91	0
2	30611	17.01	0
2	30800	17.11	0
2	30989	17.21	0
2	31178	17.31	0
2	31367	17.41	0
2	31556	17.51	0
2	31745	17.61	0
2	31934	17.71	0
2	32123	17.81	0
2	32312	17.91	0
2	32507	18.01	0
2	32696	18.11	0
2	32885	18.21	0
2	33074	18.31	0
2	33263	18.41	0
2	33452	18.51	0
2	33641	18.61	0
2	33830	18.71	0
2	34019	18.81	0
2	34208	18.91	0
2	34403	19.01	0
2	34592	19.11	0
2	34781	19.21	0
2	34970	19.31	0
2	35159	19.41	0
2	35348	19.51	0
2	35537	19.61	0
2	35726	19.71	0
2	35915	19.81	0
2	36104	19.91	0
2	36299	20.01	0
2	36488	20.11	0
2	36677	20.21	0
2	36866	20.31	0
2	37055	20.41	0
2	37244	20.51	0
2	37433	20.61	0
2	37622	20.71	0
2	37811	20.81	0
2	38000	20.91	0
2	38195	21.01	0
2	38384	21.11	0
2	38573	21.21	0
2	38762	21.31	0
2	38951	21.41	0
2	39140	21.51	0
2	39329	21.61	0
2	39518	21.71	0
2	39707	21.81	0
2	39896	21.91	0
2	40091	22.01	0
2	40280	22.11	0
2	40469	22.21	0
2	40658	22.31	0
2	40847	22.41	0
2	41036	22.51	0
2	41225	22.61	0
2	41414	22.71	0
2	41603	22.81	0
2	41792	22.91	0
2	41987	23.01	0
2	42176	23.11	0
2	42365	23.21	0
2	42554	23.31	0
2	42743	23.41	0
2	42932	23.51	0
2	43121	23.61	0
2	43310	23.71	0
2	43499	23.81	0
2	43688	23.91	0
2	43883	24.01	0
2	44072	24.11	0
2	44261	24.21	0
2	44450	24.31	0
2	44639	24.41	0
2	44828	24.51	0
2	45017	24.61	0
2	45206	24.71	0
2	45395	24.81	0
2	45584	24.91	0
2	45779	25.01	0
2	45968	25.11	0
2	46157	25.21	0
2	46346	25.31	0
2	46535	25.41	0
2	46724	25.51	0
2	46913	25.61	0
2	47102	25.71	0
2	47291	25.81	0
2	47480	25.91	0
2	47675	26.01	0
2	47864	26.11	0
2	48053	26.21	0
2	48242	26.31	0
2	48431	26.41	0
2	48620	26.51	0
2	48809	26.61	0
2	48998	26.71	0
2	49187	26.81	0
2	49376	26.91	0
2	49571	27.01	0
2	49760	27.11	0
2	49949	27.21	0
2	50138	27.31	0
2	50327	27.41	0
2	50516	27.51	0
2	50705	27.61	0
2	50894	27.71	0
2	51083	27.81	0
2	51272	27.91	0
2	51467	28.01	0
2	51656	28.11	0
2	51845	28.21	0
2	52034	28.31	0
2	52223	28.41	0
2	52412	28.51	0
2	52601	28.61	0
2	52790	28.71	0
2	52979	28.81	0
2	53168	28.91	0
2	53363	29.01	0
2	53552	29.11	0
2	53741	29.21	0
2	53930	29.31	0
2	54119	29.41	0
2	54308	29.51	0
2	54497	29.61	0
2	54686	29.71	0
2	54875	29.81	0
2	55064	29.91	0
2	55259	30.01	0
2	55448	30.11	0
2	55637	30.21	0
2	55826	30.31	0
2	56015	30.41	0
2	56204	30.51	0
2	56393	30.61	0
2	56582	30.71	0
2	56771	30.81	0
2	56960	30.91	0
2	57155	31.01	0
2	57344	31.11	0
2	57533	31.21	0
2	57722	31.31	0
2	57911	31.41	0
2	58100	31.51	0
2	58289	31.61	0
2	58478	31.71	0
2	58667	31.81	0
2	58856	31.91	0
2	59051	32.01	0
2	59240	32.11	0
2	59429	32.21	0
2	59618	32.31	0
2	59807	32.41	0
2	59996	32.51	0
2	60185	32.61	0
2	60374	32.71	0
2	60563	32.81	0
2	60752	32.91	0
2	60947	33.01	0
2	61136	33.11	0
2	61325	33.21	0
2	61514	33.31	0
2	61703	33.41	0
2	61892	33.51	0
2	62081	33.61	0
2	62270	33.71	0
2	62459	33.81	0
2	62648	33.91	0
2	62843	34.01	0
2	63032	34.11	0
2	63221	34.21	0
2	63410	34.31	0
2	63599	34.41	0
2	63788	34.51	0
2	63977	34.61	0
2	64166	34.71	0
2	64355	34.81	0
2	64544	34.91	0
2	64739	35.01	0
2	64928	35.11	0
2	65117	35.21	0
2	65306	35.31	0
2	65495	35.41	0
2	65684	35.51	0
2	65873	35.61	0
2	66062	35.71	0
2	66251	35.81	0
2	66440	35.91	0
2	66635	36.01	0
2	66824	36.11	0
2	67013	36.21	0
2	67202	36.31	0
2	67391	36.41	0
2	67580	36.51	0
2	67769	36.61	0
2	67958	36.71	0
2	68147	36.81	0
2	68336	36.91	0
2	68531	37.01	0
2	68720	37.11	0
2	68909	37.21	0
2	69098	37.31	0
2	69287	37.41	0
2	69476	37.51	0
2	69665	37.61	0
2	69854	37.71	0
2	70043	37.81	0
2	70232	37.91	0
2	70427	38.01	0
2	70616	38.11	0
2	70805	38.21	0
2	70994	38.31	0
2	71183	38.41	0
2	71372	38.51	0
2	71561	38.61	0
2	71750	38.71	0
2	71939	38.81	0
2	72128	38.91	0
2	72323	39.01	0
2	72512	39.11	0
2	72701	39.21	0
2	72890	39.31	0
2	73079	39.41	0
2	73268	39.51	0
2	73457	39.61	0
2	73646	39.71	0
2	73835	39.81	0
2	74024	39.91	0
2	74219	40.01	0
2	74408	40.11	0
2	74597	40.21	0
2	74786	40.31	0
2	74975	40.41	0
2	75164	40.51	0
2	75353	40.61	0
2	75542	40.71	0
2	75731	40.81	0
2	75920	40.91	0
2	76115	41.01	0
2	76304	41.11	0
2	76493	41.21	0
2	76682	41.31	0
2	76871	41.41	0
2	77060	41.51	0
2	77249	41.61	0
2	77438	41.71	0
2	77627	41.81	0
2	77816	41.91	0
2	78011	42.01	0
2	78200	42.11	0
2	78389	42.21	0
2	78578	42.31	0
2	78767	42.41	0
2	78956	42.51	0
2	79145	42.61	0
2	79334	42.71	0
2	79523	42.81	0
2	79712	42.91	0
2	79907	43.01	0
2	80096	43.11	0
2	80285	43.21	0
2	80474	43.31	0
2	80663	43.41	0
2	80852	43.51	0
2	81041	43.61	0
2	81230	43.71	0
2	81419	43.81	0
2	81608	43.91	0
2	81803	44.01	0
2	81992	44.11	0
2	82181	44.21	0
2	82370	44.31	0
2	82559	44.41	0
2	82748	44.51	0
2	82937	44.61	0
2	83126	44.71	0
2	83315	44.81	0
2	83504	44.91	0
2	83699	45.01	0
2	83888	45.11	0
2	84077	45.21	0
2	84266	45.31	0
2	84455	45.41	0
2	84644	45.51	0
2	84833	45.61	0
2	85022	45.71	0
2	85277	45.81	0
2	85465	45.91	0
2	85659	46.01	0
2	85847	46.11	0
2	86035	46.21	0
2	86223	46.31	0
2	86411	46.41	0
2	86599	46.51	0
2	86787	46.61	0
2	86975	46.71	0
2	87163	46.81	0
2	87351	46.91	0
2	87545	47.01	0
2	87733	47.11	0
2	87921	47.21	0
2	88109	47.31	0
2	88297	47.41	0
2	88485	47.51	0
2	88673	47.61	0
2	88861	47.71	0
2	89049	47.81	0
2	89237	47.91	0
2	89431	48.01	0
2	89619	48.11	0
2	89807	48.21	0
2	89995	48.31	0
2	90183	48.41	0
2	90371	48.51	0
2	90559	48.61	0
2	90747	48.71	0
2	90935	48.81	0
2	91123	48.91	0
2	91317	49.01	0
2	91505	49.11	0
2	91693	49.21	0
2	91881	49.31	0
2	92069	49.41	0
2	92257	49.51	0
2	92445	49.61	0
2	92633	49.71	0
2	92821	49.81	0
2	93009	49.91	0
2	93203	50.01	0
2	93391	50.11	0
2	93579	50.21	0
2	93767	50.31	0
2	93955	50.41	0
2	94143	50.51	0
2	94331	50.61	0
2	94519	50.71	0
2	94707	50.81	0
2	94895	50.91	0
2	95089	51.01	0
2	95277	51.11	0
2	95465	51.21	0
2	95653	51.31	0
2	95841	51.41	0
2	96029	51.51	0
2	96217	51.61	0
2	96405	51.71	0
2	96593	51.81	0
2	96781	51.91	0
2	96975	52.01	0
2	97163	52.11	0
2	97351	52.21	0
2	97539	52.31	0
2	97727	52.41	0
2	97915	52.51	0
2	98103	52.61	0
2	98291	52.71	0
2	98479	52.81	0
2	98667	52.91	0
2	98861	53.01	0
2	99049	53.11	0
2	99237	53.21	0
2	99425	53.31	0
2	99613	53.41	0
2	99801	53.51	0
2	99989	53.61	0
2	100177	53.71	0
2	100365	53.81	0
2	100553	53.91	0
2	100747	54.01	0
2	100935	54.11	0
2	101123	54.21	0
2	101311	54.31	0
2	101499	54.41	0
2	101687	54.51	0
2	101875	54.61	0
2	102063	54.71	0
2	102251	54.81	0
2	102439	54.91	0
2	102633	55.01	0
2	102821	55.11	0
2	103009	55.21	0
2	103197	55.31	0
2	103385	55.41	0
2	103573	55.51	0
2	103761	55.61	0
2	103949	55.71	0
2	104137	55.81	0
2	104325	55.91	0
2	104519	56.01	0
2	104707	56.11	0
2	104895	56.21	0
2	105083	56.31	0
2	105271	56.41	0
2	105459	56.51	0
2	105647	56.61	0
2	105835	56.71	0
2	106023	56.81	0
2	106211	56.91	0
2	106405	57.01	0
2	106593	57.11	0
2	106781	57.21	0
2	106969	57.31	0
2	107157	57.41	0
2	107345	57.51	0
2	107533	57.61	0
2	107721	57.71	0
2	107909	57.81	0
2	108097	57.91	0
2	108291	58.01	0
2	108479	58.11	0
2	108667	58.21	0
2	108855	58.31	0
2	109043	58.41	0
2	109231	58.51	0
2	109419	58.61	0
2	109607	58.71	0
2	109795	58.81	0
2	109983	58.91	0
2	110177	59.01	0
2	110365	59.11	0
2	110553	59.21	0
2	110741	59.31	0
2	110929	59.41	0
2	111117	59.51	0
2	111305	59.61	0
2	111493	59.71	0
2	111681	59.81	0
2	111869	59.91	0
2	112063	60.01	0
2	112251	60.11	0
2	112439	60.21	0
2	112627	60.31	0
2	112815	60.41	0
2	113003	60.51	0
2	113191	60.61	0
2	113379	60.71	0
2	113567	60.81	0
2	113755	60.91	0
2	113949	61.01	0
2	114137	61.11	0
2	114325	61.21	0
2	114513	61.31	0
2	114701	61.41	0
2	114889	61.51	0
2	115077	61.61	0
2	115265	61.71	0
2	115453	61.81	0
2	115641	61.91	0
2	115835	62.01	0
2	116023	62.11	0
2	116211	62.21	0
2	116399	62.31	0
2	116587	62.41	0
2	116775	62.51	0
2	116963	62.61	0
2	117151	62.71	0
2	117339	62.81	0
2	117527	62.91	0
2	117721	63.01	0
2	117909	63.11	0
2	118097	63.21	0
2	118285	63.31	0
2	118473	63.41	0
2	118661	63.51	0
2	118849	63.61	0
2	119037	63.71	0
2	119225	63.81	0
2	119413	63.91	0
2	119607	64.01	0
2	119795	64.11	0
2	119983	64.21	0
2	120171	64.31	0
2	120359	64.41	0
2	120547	64.51	0
2	120735	64.61	0
2	120923	64.71	0
2	121111	64.81	0
2	121299	64.91	0
2	121493	65.01	0
2	121681	65.11	0
2	121869	65.21	0
2	122057	65.31	0
2	122245	65.41	0
2	122433	65.51	0
2	122621	65.61	0
2	122809	65.71	0
2	122997	65.81	0
2	123185	65.91	0
2	123379	66.01	0
2	123567	66.11	0
2	123755	66.21	0
2	123943	66.31	0
2	124131	66.41	0
2	124319	66.51	0
2	124507	66.61	0
2	124695	66.71	0
2	124883	66.81	0
2	125071	66.91	0
2	125265	67.01	0
2	125453	67.11	0
2	125641	67.21	0
2	125829	67.31	0
2	126017	67.41	0
2	126205	67.51	0
2	126393	67.61	0
2	126581	67.71	0
2	126769	67.81	0
2	126957	67.91	0
2	127151	68.01	0
2	127339	68.11	0
2	127527	68.21	0
2	127715	68.31	0
2	127903	68.41	0
2	128091	68.51	0
2	128279	68.61	0
2	128467	68.71	0
2	128655	68.81	0
2	128843	68.91	0
2	129037	69.01	0
2	129225	69.11	0
2	129413	69.21	0
2	129601	69.31	0
2	129789	69.41	0
2	129977	69.51	0
2	130165	69.61	0
2	130353	69.71	0
2	130541	69.81	0
2	130729	69.91	0
2	130923	70.01	0
2	131111	70.11	0
2	131299	70.21	0
2	131487	70.31	0
2	131675	70.41	0
2	131863	70.51	0
2	132051	70.61	0
2	132239	70.71	0
2	132427	70.81	0
2	132615	70.91	0
2	132809	71.01	0
2	132997	71.11	0
2	133185	71.21	0
2	133373	71.31	0
2	133561	71.41	0
2	133749	71.51	0
2	133937	71.61	0
2	134125	71.71	0
2	134313	71.81	0
2	134501	71.91	0
2	134695	72.01	0
2	134883	72.11	0
2	135071	72.21	0
2	135259	72.31	0
2	135447	72.41	0
2	135635	72.51	0
2	135823	72.61	0
2	136011	72.71	0
2	136199	72.81	0
2	136387	72.91	0
2	136581	73.01	0
2	136769	73.11	0
2	136957	73.21	0
2	137145	73.31	0
2	137333	73.41	0
2	137521	73.51	0
2	137709	73.61	0
2	137897	73.71	0
2	138085	73.81	0
2	138273	73.91	0
2	138467	74.01	0
2	138655	74.11	0
2	138843	74.21	0
2	139031	74.31	0
2	139219	74.41	0
2	139407	74.51	0
2	139595	74.61	0
2	139783	74.71	0
2	139971	74.81	0
2	140159	74.91	0
2	140353	75.01	0
2	140541	75.11	0
2	140729	75.21	0
2	140917	75.31	0
2	141105	75.41	0
2	141293	75.51	0
2	141481	75.61	0
2	141669	75.71	0
2	141857	75.81	0
2	142045	75.91	0
2	142239	76.01	0
2	142427	76.11	0
2	142615	76.21	0
2	142803	76.31	0
2	142991	76.41	0
2	143179	76.51	0
2	143367	76.61	0
2	143555	76.71	0
2	143743	76.81	0
2	143931	76.91	0
2	144125	77.01	0
2	144313	77.11	0
2	144501	77.21	0
2	144689	77.31	0
2	144877	77.41	0
2	145065	77.51	0
2	145253	77.61	0
2	145441	77.71	0
2	145629	77.81	0
2	145817	77.91	0
2	146011	78.01	0
2	146199	78.11	0
2	146387	78.21	0
2	146575	78.31	0
2	146763	78.41	0
2	146951	78.51	0
2	147139	78.61	0
2	147327	78.71	0
2	147515	78.81	0
2	147703	78.91	0
2	147897	79.01	0
2	148085	79.11	0
2	148273	79.21	0
2	148461	79.31	0
2	148649	79.41	0
2	148837	79.51	0
2	149025	79.61	0
2	149213	79.71	0
2	149401	79.81	0
2	149589	79.91	0
2	149783	80.01	0
2	149971	80.11	0
2	150159	80.21	0
2	150347	80.31	0
2	150535	80.41	0
2	150723	80.51	0
2	150911	80.61	0
2	151099	80.71	0
2	151287	80.81	0
2	151475	80.91	0
2	151669	81.01	0
2	151857	81.11	0
2	152045	81.21	0
2	152233	81.31	0
2	152421	81.41	0
2	152609	81.51	0
2	152797	81.61	0
2	152985	81.71	0
2	153173	81.81	0
2	153361	81.91	0
2	153555	82.01	0
2	153743	82.11	0
2	153931	82.21	0
2	154119	82.31	0
2	154307	82.41	0
2	154495	82.51	0
2	154683	82.61	0
2	154871	82.71	0
2	155059	82.81	0
2	155247	82.91	0
2	155441	83.01	0
2	155629	83.11	0
2	155817	83.21	0
2	156005	83.31	0
2	156193	83.41	0
2	156381	83.51	0
2	156569	83.61	0
2	156757	83.71	0
2	156945	83.81	0
2	157133	83.91	0
2	157327	84.01	0
2	157515	84.11	0
2	157703	84.21	0
2	157891	84.31	0
2	158079	84.41	0
2	158267	84.51	0
2	158455	84.61	0
2	158643	84.71	0
2	158831	84.81	0
2	159019	84.91	0
2	159213	85.01	0
2	159401	85.11	0
2	159589	85.21	0
2	159777	85.31	0
2	159965	85.41	0
2	160153	85.51	0
2	160341	85.61	0
2	160529	85.71	0
2	160717	85.81	0
2	160905	85.91	0
2	161099	86.01	0
2	161287	86.11	0
2	161475	86.21	0
2	161663	86.31	0
2	161851	86.41	0
2	162039	86.51	0
2	162227	86.61	0
2	162415	86.71	0
2	162603	86.81	0
2	162791	86.91	0
2	162985	87.01	0
2	163173	87.11	0
2	163361	87.21	0
2	163549	87.31	0
2	163737	87.41	0
2	163925	87.51	0
2	164113	87.61	0
2	164301	87.71	0
2	164489	87.81	0
2	164677	87.91	0
2	164871	88.01	0
2	165059	88.11	0
2	165247	88.21	0
2	165435	88.31	0
2	165623	88.41	0
2	165811	88.51	0
2	165999	88.61	0
2	166187	88.71	0
2	166375	88.81	0
2	166563	88.91	0
2	166757	89.01	0
2	166945	89.11	0
2	167133	89.21	0
2	167321	89.31	0
2	167509	89.41	0
2	167697	89.51	0
2	167885	89.61	0
2	168073	89.71	0
2	168261	89.81	0
2	168449	89.91	0
2	168643	90.01	0
2	168831	90.11	0
2	169019	90.21	0
2	169207	90.31	0
2	169395	90.41	0
2	169583	90.51	0
2	169771	90.61	0
2	169959	90.71	0
2	170147	90.81	0
2	170335	90.91	0
2	170529	91.01	0
2	170717	91.11	0
2	170905	91.21	0
2	171093	91.31	0
2	171281	91.41	0
2	171469	91.51	0
2	171657	91.61	0
2	171845	91.71	0
2	172033	91.81	0
2	172221	91.91	0
2	172415	92.01	0
2	172603	92.11	0
2	172791	92.21	0
2	172979	92.31	0
2	173167	92.41	0
2	173355	92.51	0
2	173543	92.61	0
2	173731	92.71	0
2	173919	92.81	0
2	174107	92.91	0
2	174301	93.01	0
2	174489	93.11	0
2	174677	93.21	0
2	174865	93.31	0
2	175053	93.41	0
2	175241	93.51	0
2	175429	93.61	0
2	175617	93.71	0
2	175805	93.81	0
2	175993	93.91	0
2	176187	94.01	0
2	176375	94.11	0
2	176563	94.21	0
2	176751	94.31	0
2	176939	94.41	0
2	177127	94.51	0
2	177315	94.61	0
2	177503	94.71	0
2	177691	94.81	0
2	177879	94.91	0
2	178073	95.01	0
2	178261	95.11	0
2	178449	95.21	0
2	178637	95.31	0
2	178825	95.41	0
2	179013	95.51	0
2	179201	95.61	0
2	179389	95.71	0
2	179577	95.81	0
2	179765	95.91	0
2	179959	96.01	0
2	180147	96.11	0
2	180335	96.21	0
2	180523	96.31	0
2	180711	96.41	0
2	180899	96.51	0
2	181087	96.61	0
2	181275	96.71	0
2	181463	96.81	0
2	181651	96.91	0
2	181845	97.01	0
2	182033	97.11	0
2	182221	97.21	0
2	182409	97.31	0
2	182597	97.41	0
2	182785	97.51	0
2	182973	97.61	0
2	183161	97.71	0
2	183349	97.81	0
2	183537	97.91	0
2	183731	98.01	0
2	183919	98.11	0
2	184107	98.21	0
2	184295	98.31	0
2	184483	98.41	0
2	184671	98.51	0
2	184859	98.61	0
2	185047	98.71	0
2	185235	98.81	0
2	185423	98.91	0
2	185617	99.01	0
2	185805	99.11	0
2	185993	99.21	0
2	186181	99.31	0
2	186369	99.41	0
2	186557	99.51	0
2	186745	99.61	0
2	186933	99.71	0
2	187121	99.81	0
2	187309	99.91	0
3	113	1.11	0.000179096
3	301	1.21	0.000340852
3	489	1.31	0.000467435
3	677	1.41	0.000562893
3	865	1.51	0.000631106
3	1053	1.61	0.000675745
3	1241	1.71	0.000700245
3	1429	1.81	0.000707784
3	1617	1.91	0.000701273
3	1811	2.01	0.000683354
3	1999	2.11	0.000656398
3	2187	2.21	0.000622512
3	2375	2.31	0.000583548
3	2563	2.41	0.000541117
3	2751	2.51	0.000496604
3	2939	2.61	0.000451181
3	3127	2.71	0.000405825
3	3315	2.81	0.00036134
3	3503	2.91	0.000318365
3	3697	3.01	0.0002774
3	3885	3.11	0.00023882
3	4073	3.21	0.000202887
3	4261	3.31	0.00016977
3	4449	3.41	0.000139558
3	4637	3.51	0.000112271
3	4825	3.61	8.78717e-05
3	5013	3.71	6.628e-05
3	5201	3.81	4.73785e-05
3	5389	3.91	3.1023e-05
3	5583	4.01	1.70493e-05
3	5771	4.11	5.28023e-06
3	5959	4.21	-4.46922e-06
3	6147	4.31	-1.2387e-05
3	6335	4.41	-1.86602e-05
3	6523	4.51	-2.34717e-05
3	6711	4.61	-2.69978e-05
3	6899	4.71	-2.94062e-05
3	7087	4.81	-3.08545e-05
3	7275	4.91	-3.14892e-05
3	7469	5.01	-3.14451e-05
3	7657	5.11	-3.0845e-05
3	7845	5.21	-2.97994e-05
3	8033	5.31	-2.84072e-05
3	8221	5.41	-2.67556e-05
3	8409	5.51	-2.49208e-05
3	8597	5.61	-2.29687e-05
3	8785	5.71	-2.09553e-05
3	8973	5.81	-1.89277e-05
3	9161	5.91	-1.6925e-05
3	9355	6.01	-1.49784e-05
3	9543	6.11	-1.31129e-05
3	9731	6.21	-1.13474e-05
3	9919	6.31	-9.69553e-06
3	10107	6.41	-8.16651e-06
3	10295	6.51	-6.76571e-06
3	10483	6.61	-5.49522e-06
3	10671	6.71	-4.35441e-06
3	10859	6.81	-3.34045e-06
3	11047	6.91	-2.44874e-06
3	11241	7.01	-1.6733e-06
3	11429	7.11	-1.00716e-06
3	11617	7.21	-4.42628e-07
3	11805	7.31	2.84224e-08
3	11993	7.41	4.14339e-07
3	12181	7.51	7.23492e-07
3	12369	7.61	9.6413e-07
3	12557	7.71	1.14424e-06
3	12745	7.81	1.27148e-06
3	12933	7.91	1.35305e-06
3	13127	8.01	1.3957e-06
3	13315	8.11	1.40565e-06
3	13503	8.21	1.3886e-06
3	13691	8.31	1.34971e-06
3	13879	8.41	1.2936e-06
3	14067	8.51	1.22437e-06
3	14255	8.61	1.14561e-06
3	14443	8.71	1.06046e-06
3	14631	8.81	9.71582e-07
3	14819	8.91	8.81246e-07
3	15013	9.01	7.91334e-07
3	15201	9.11	7.03381e-07
3	15389	9.21	6.18613e-07
3	15577	9.31	5.37979e-07
3	15765	9.41	4.62183e-07
3	15953	9.51	3.91714e-07
3	16141	9.61	3.26878e-07
3	16329	9.71	2.67827e-07
3	16517	9.81	2.14581e-07
3	16705	9.91	1.67052e-07
3	17339	10.01	1.25066e-07
3	17528	10.11	8.83794e-08
3	17717	10.21	5.66978e-08
3	17906	10.31	2.96922e-08
3	18095	10.41	7.00453e-09
3	18284	10.51	-1.17325e-08
3	18473	10.61	-2.68933e-08
3	18662	10.71	-3.88482e-08
3	18851	10.81	-4.79581e-08
3	19040	10.91	-5.45704e-08
3	19235	11.01	-5.90177e-08
3	19424	11.11	-6.16069e-08
3	19613	11.21	-6.26265e-08
3	19802	11.31	-6.23395e-08
3	19991	11.41	-6.09859e-08
3	20180	11.51	-5.87811e-08
3	20369	11.61	-5.59183e-08
3	20558	11.71	-5.25674e-08
3	20747	11.81	-4.88761e-08
3	20936	11.91	-4.4971e-08
3	21131	12.01	-4.09599e-08
3	21320	12.11	-3.69354e-08
3	21509	12.21	-3.29713e-08
3	21698	12.31	-2.9128e-08
3	21887	12.41	-2.54531e-08
3	22076	12.51	-2.19821e-08
3	22265	12.61	-1.87399e-08
3	22454	12.71	-1.57428e-08
3	22643	12.81	-1.30029e-08
3	22832	12.91	-1.05217e-08
3	23027	13.01	-8.29772e-09
3	23216	13.11	-6.32454e-09
3	23405	13.21	-4.59224e-09
3	23594	13.31	-3.08802e-09
3	23783	13.41	-1.79838e-09
3	23972	13.51	-7.08411e-10
3	24161	13.61	1.98241e-10
3	24350	13.71	9.37916e-10
3	24539	13.81	1.52767e-09
3	24728	13.91	1.98384e-09
3	24923	14.01	2.32276e-09
3	25112	14.11	2.55937e-09
3	25301	14.21	2.70788e-09
3	25490	14.31	2.78249e-09
3	25679	14.41	2.79243e-09
3	25868	14.51	2.7498e-09
3	26057	14.61	2.66525e-09
3	26246	14.71	2.54872e-09
3	26435	14.81	2.40803e-09
3	26624	14.91	2.24887e-09
3	26819	15.01	2.07763e-09
3	27008	15.11	1.89999e-09
3	27197	15.21	1.72236e-09
3	27386	15.31	1.54472e-09
3	27575	15.41	1.37064e-09
3	27764	15.51	1.20295e-09
3	27953	15.61	1.04379e-09
3	28142	15.71	8.94573e-10
3	28331	15.81	7.56017e-10
3	28520	15.91	6.29541e-10
3	28715	16.01	5.13012e-10
3	28904	16.11	4.09273e-10
3	29093	16.21	3.16902e-10
3	29282	16.31	2.3519e-10
3	29471	16.41	1.63425e-10
3	29660	16.51	1.02318e-10
3	29849	16.61	4.9738e-11
3	30038	16.71	5.68434e-12
3	30227	16.81	-3.05533e-11
3	30416	16.91	-5.8975e-11
3	30611	17.01	-8.10019e-11
3	30800	17.11	-9.80549e-11
3	30989	17.21	-1.11555e-10
3	31178	17.31	-1.18661e-10
3	31367	17.41	-1.23634e-10
3	31556	17.51	-1.23634e-10
3	31745	17.61	-1.23634e-10
3	31934	17.71	-1.21503e-10
3	32123	17.81	-1.14397e-10
3	32312	17.91	-1.07292e-10
3	32507	18.01	-1.00187e-10
3	32696	18.11	-9.30811e-11
3	32885	18.21	-8.59757e-11
3	33074	18.31	-7.88702e-11
3	33263	18.41	-7.17648e-11
3	33452	18.51	-6.46594e-11
3	33641	18.61	-5.7554e-11
3	33830	18.71	-5.04485e-11
3	34019	18.81	-4.33431e-11
3	34208	18.91	-3.62377e-11
3	34403	19.01	-2.91323e-11
3	34592	19.11	-2.20268e-11
3	34781	19.21	-1.7053e-11
3	34970	19.31	-1.49214e-11
3	35159	19.41	-1.35003e-11
3	35348	19.51	-1.27898e-11
3	35537	19.61	-1.13687e-11
3	35726	19.71	-9.9476e-12
3	35915	19.81	-9.23706e-12
3	36104	19.91	-8.52651e-12
3	36299	20.01	-7.81597e-12
3	36488	20.11	-7.10543e-12
3	36677	20.21	-6.39488e-12
3	36866	20.31	-5.68434e-12
3	37055	20.41	-4.9738e-12
3	37244	20.51	-4.26326e-12
3	37433	20.61	-4.26326e-12
3	37622	20.71	-3.55271e-12
3	37811	20.81	-3.55271e-12
3	38000	20.91	-2.84217e-12
3	38195	21.01	-2.84217e-12
3	38384	21.11	-2.84217e-12
3	38573	21.21	-2.13163e-12
3	38762	21.31	-2.13163e-12
3	38951	21.41	-2.13163e-12
3	39140	21.51	-1.42109e-12
3	39329	21.61	-1.42109e-12
3	39518	21.71	-1.42109e-12
3	39707	21.81	-1.42109e-12
3	39896	21.91	-1.42109e-12
3	40091	22.01	-7.10543e-13
3	40280	22.11	-7.10543e-13
3	40469	22.21	-7.10543e-13
3	40658	22.31	-7.10543e-13
3	40847	22.41	-7.10543e-13
3	41036	22.51	-7.10543e-13
3	41225	22.61	-7.10543e-13
3	41414	22.71	-7.10543e-13
3	41603	22.81	-7.10543e-13
3	41792	22.91	-7.10543e-13
3	41987	23.01	0
3	42176	23.11	0
3	42365	23.21	0
3	42554	23.31	0
3	42743	23.41	0
3	42932	23.51	0
3	43121	23.61	0
3	43310	23.71	0
3	43499	23.81	0
3	43688	23.91	0
3	43883	24.01	0
3	44072	24.11	0
3	44261	24.21	0
3	44450	24.31	0
3	44639	24.41	0
3	44828	24.51	0
3	45017	24.61	0
3	45206	24.71	0
3	45395	24.81	0
3	45584	24.91	0
3	45779	25.01	0
3	45968	25.11	0
3	46157	25.21	0
3	46346	25.31	0
3	46535	25.41	0
3	46724	25.51	0
3	46913	25.61	0
3	47102	25.71	0
3	47291	25.81	0
3	47480	25.91	0
3	47675	26.01	0
3	47864	26.11	0
3	48053	26.21	0
3	48242	26.31	0
3	48431	26.41	0
3	48620	26.51	0
3	48809	26.61	0
3	48998	26.71	0
3	49187	26.81	0
3	49376	26.91	0
3	49571	27.01	0
3	49760	27.11	0
3	49949	27.21	0
3	50138	27.31	0
3	50327	27.41	0
3	50516	27.51	0
3	50705	27.61	0
3	50894	27.71	0
3	51083	27.81	0
3	51272	27.91	0
3	51467	28.01	0
3	51656	28.11	0
3	51845	28.21	0
3	52034	28.31	0
3	52223	28.41	0
3	52412	28.51	0
3	52601	28.61	0
3	52790	28.71	0
3	52979	28.81	0
3	53168	28.91	0
3	53363	29.01	0
3	53552	29.11	0
3	53741	29.21	0
3	53930	29.31	0
3	54119	29.41	0
3	54308	29.51	0
3	54497	29.61	0
3	54686	29.71	0
3	54875	29.81	0
3	55064	29.91	0
3	55259	30.01	0
3	55448	30.11	0
3	55637	30.21	0
3	55826	30.31	0
3	56015	30.41	0
3	56204	30.51	0
3	56393	30.61	0
3	56582	30.71	0
3	56771	30.81	0
3	56960	30.91	0
3	57155	31.01	0
3	57344	31.11	0
3	57533	31.21	0
3	57722	31.31	0
3	57911	31.41	0
3	58100	31.51	0
3	58289	31.61	0
3	58478	31.71	0
3	58667	31.81	0
3	58856	31.91	0
3	59051	32.01	0
3	59240	32.11	0
3	59429	32.21	0
3	59618	32.31	0
3	59807	32.41	0
3	59996	32.51	0
3	60185	32.61	0
3	60374	32.71	0
3	60563	32.81	0
3	60752	32.91	0
3	60947	33.01	0
3	61136	33.11	0
3	61325	33.21	0
3	61514	33.31	0
3	61703	33.41	0
3	61892	33.51	0
3	62081	33.61	0
3	62270	33.71	0
3	62459	33.81	0
3	62648	33.91	0
3	62843	34.01	0
3	63032	34.11	0
3	63221	34.21	0
3	63410	34.31	0
3	63599	34.41	0
3	63788	34.51	0
3	63977	34.61	0
3	64166	34.71	0
3	64355	34.81	0
3	64544	34.91	0
3	64739	35.01	0
3	64928	35.11	0
3	65117	35.21	0
3	65306	35.31	0
3	65495	35.41	0
3	65684	35.51	0
3	65873	35.61	0
3	66062	35.71	0
3	66251	35.81	0
3	66440	35.91	0
3	66635	36.01	0
3	66824	36.11	0
3	67013	36.21	0
3	67202	36.31	0
3	67391	36.41	0
3	67580	36.51	0
3	67769	36.61	0
3	67958	36.71	0
3	68147	36.81	0
3	68336	36.91	0
3	68531	37.01	0
3	68720	37.11	0
3	68909	37.21	0
3	69098	37.31	0
3	69287	37.41	0
3	69476	37.51	0
3	69665	37.61	0
3	69854	37.71	0
3	70043	37.81	0
3	70232	37.91	0
3	70427	38.01	0
3	70616	38.11	0
3	70805	38.21	0
3	70994	38.31	0
3	71183	38.41	0
3	71372	38.51	0
3	71561	38.61	0
3	71750	38.71	0
3	71939	38.81	0
3	72128	38.91	0
3	72323	39.01	0
3	72512	39.11	0
3	72701	39.21	0
3	72890	39.31	0
3	73079	39.41	0
3	73268	39.51	0
3	73457	39.61	0
3	73646	39.71	0
3	73835	39.81	0
3	74024	39.91	0
3	74219	40.01	0
3	74408	40.11	0
3	74597	40.21	0
3	74786	40.31	0
3	74975	40.41	0
3	75164	40.51	0
3	75353	40.61	0
3	75542	40.71	0
3	75731	40.81	0
3	75920	40.91	0
3	76115	41.01	0
3	76304	41.11	0
3	76493	41.21	0
3	76682	41.31	0
3	76871	41.41	0
3	77060	41.51	0
3	77249	41.61	0
3	77438	41.71	0
3	77627	41.81	0
3	77816	41.91	0
3	78011	42.01	0
3	78200	42.11	0
3	78389	42.21	0
3	78578	42.31	0
3	78767	42.41	0
3	78956	42.51	0
3	79145	42.61	0
3	79334	42.71	0
3	79523	42.81	0
3	79712	42.91	0
3	79907	43.01	0
3	80096	43.11	0
3	80285	43.21	0
3	80474	43.31	0
3	80663	43.41	0
3	80852	43.51	0
3	81041	43.61	0
3	81230	43.71	0
3	81419	43.81	0
3	81608	43.91	0
3	81803	44.01	0
3	81992	44.11	0
3	82181	44.21	0
3	82370	44.31	0
3	82559	44.41	0
3	82748	44.51	0
3	82937	44.61	0
3	83126	44.71	0
3	83315	44.81	0
3	83504	44.91	0
3	83699	45.01	0
3	83888	45.11	0
3	84077	45.21	0
3	84266	45.31	0
3	84455	45.41	0
3	84644	45.51	0
3	84833	45.61	0
3	85022	45.71	0
3	85277	45.81	0
3	85465	45.91	0
3	85659	46.01	0
3	85847	46.11	0
3	86035	46.21	0
3	86223	46.31	0
3	86411	46.41	0
3	86599	46.51	0
3	86787	46.61	0
3	86975	46.71	0
3	87163	46.81	0
3	87351	46.91	0
3	87545	47.01	0
3	87733	47.11	0
3	87921	47.21	0
3	88109	47.31	0
3	88297	47.41	0
3	88485	47.51	0
3	88673	47.61	0
3	88861	47.71	0
3	89049	47.81	0
3	89237	47.91	0
3	89431	48.01	0
3	89619	48.11	0
3	89807	48.21	0
3	89995	48.31	0
3	90183	48.41	0
3	90371	48.51	0
3	90559	48.61	0
3	90747	48.71	0
3	90935	48.81	0
3	91123	48.91	0
3	91317	49.01	0
3	91505	49.11	0
3	91693	49.21	0
3	91881	49.31	0
3	92069	49.41	0
3	92257	49.51	0
3	92445	49.61	0
3	92633	49.71	0
3	92821	49.81	0
3	93009	49.91	0
3	93203	50.01	0
3	93391	50.11	0
3	93579	50.21	0
3	93767	50.31	0
3	93955	50.41	0
3	94143	50.51	0
3	94331	50.61	0
3	94519	50.71	0
3	94707	50.81	0
3	94895	50.91	0
3	95089	51.01	0
3	95277	51.11	0
3	95465	51.21	0
3	95653	51.31	0
3	95841	51.41	0
3	96029	51.51	0
3	96217	51.61	0
3	96405	51.71	0
3	96593	51.81	0
3	96781	51.91	0
3	96975	52.01	0
3	97163	52.11	0
3	97351	52.21	0
3	97539	52.31	0
3	97727	52.41	0
3	97915	52.51	0
3	98103	52.61	0
3	98291	52.71	0
3	98479	52.81	0
3	98667	52.91	0
3	98861	53.01	0
3	99049	53.11	0
3	99237	53.21	0
3	99425	53.31	0
3	99613	53.41	0
3	99801	53.51	0
3	99989	53.61	0
3	100177	53.71	0
3	100365	53.81	0
3	100553	53.91	0
3	100747	54.01	0
3	100935	54.11	0
3	101123	54.21	0
3	101311	54.31	0
3	101499	54.41	0
3	101687	54.51	0
3	101875	54.61	0
3	102063	54.71	0
3	102251	54.81	0
3	102439	54.91	0
3	102633	55.01	0
3	102821	55.11	0
3	103009	55.21	0
3	103197	55.31	0
3	103385	55.41	0
3	103573	55.51	0
3	103761	55.61	0
3	103949	55.71	0
3	104137	55.81	0
3	104325	55.91	0
3	104519	56.01	0
3	104707	56.11	0
3	104895	56.21	0
3	105083	56.31	0
3	105271	56.41	0
3	105459	56.51	0
3	105647	56.61	0
3	105835	56.71	0
3	106023	56.81	0
3	106211	56.91	0
3	106405	57.01	0
3	106593	57.11	0
3	106781	57.21	0
3	106969	57.31	0
3	107157	57.41	0
3	107345	57.51	0
3	107533	57.61	0
3	107721	57.71	0
3	107909	57.81	0
3	108097	57.91	0
3	108291	58.01	0
3	108479	58.11	0
3	108667	58.21	0
3	108855	58.31	0
3	109043	58.41	0
3	109231	58.51	0
3	109419	58.61	0
3	109607	58.71	0
3	109795	58.81	0
3	109983	58.91	0
3	110177	59.01	0
3	110365	59.11	0
3	110553	59.21	0
3	110741	59.31	0
3	110929	59.41	0
3	111117	59.51	0
3	111305	59.61	0
3	111493	59.71	0
3	111681	59.81	0
3	111869	59.91	0
3	112063	60.01	0
3	112251	60.11	0
3	112439	60.21	0
3	112627	60.31	0
3	112815	60.41	0
3	113003	60.51	0
3	113191	60.61	0
3	113379	60.71	0
3	113567	60.81	0
3	113755	60.91	0
3	113949	61.01	0
3	114137	61.11	0
3	114325	61.21	0
3	114513	61.31	0
3	114701	61.41	0
3	114889	61.51	0
3	115077	61.61	0
3	115265	61.71	0
3	115453	61.81	0
3	115641	61.91	0
3	115835	62.01	0
3	116023	62.11	0
3	116211	62.21	0
3	116399	62.31	0
3	116587	62.41	0
3	116775	62.51	0
3	116963	62.61	0
3	117151	62.71	0
3	117339	62.81	0
3	117527	62.91	0
3	117721	63.01	0
3	117909	63.11	0
3	118097	63.21	0
3	118285	63.31	0
3	118473	63.41	0
3	118661	63.51	0
3	118849	63.61	0
3	119037	63.71	0
3	119225	63.81	0
3	119413	63.91	0
3	119607	64.01	0
3	119795	64.11	0
3	119983	64.21	0
3	120171	64.31	0
3	120359	64.41	0
3	120547	64.51	0
3	120735	64.61	0
3	120923	64.71	0
3	121111	64.81	0
3	121299	64.91	0
3	121493	65.01	0
3	121681	65.11	0
3	121869	65.21	0
3	122057	65.31	0
3	122245	65.41	0
3	122433	65.51	0
3	122621	65.61	0
3	122809	65.71	0
3	122997	65.81	0
3	123185	65.91	0
3	123379	66.01	0
3	123567	66.11	0
3	123755	66.21	0
3	123943	66.31	0
3	124131	66.41	0
3	124319	66.51	0
3	124507	66.61	0
3	124695	66.71	0
3	124883	66.81	0
3	125071	66.91	0
3	125265	67.01	0
3	125453	67.11	0
3	125641	67.21	0
3	125829	67.31	0
3	126017	67.41	0
3	126205	67.51	0
3	126393	67.61	0
3	126581	67.71	0
3	126769	67.81	0
3	126957	67.91	0
3	127151	68.01	0
3	127339	68.11	0
3	127527	68.21	0
3	127715	68.31	0
3	127903	68.41	0
3	128091	68.51	0
3	128279	68.61	0
3	128467	68.71	0
3	128655	68.81	0
3	128843	68.91	0
3	129037	69.01	0
3	129225	69.11	0
3	129413	69.21	0
3	129601	69.31	0
3	129789	69.41	0
3	129977	69.51	0
3	130165	69.61	0
3	130353	69.71	0
3	130541	69.81	0
3	130729	69.91	0
3	130923	70.01	0
3	131111	70.11	0
3	131299	70.21	0
3	131487	70.31	0
3	131675	70.41	0
3	131863	70.51	0
3	132051	70.61	0
3	132239	70.71	0
3	132427	70.81	0
3	132615	70.91	0
3	132809	71.01	0
3	132997	71.11	0
3	133185	71.21	0
3	133373	71.31	0
3	133561	71.41	0
3	133749	71.51	0
3	133937	71.61	0
3	134125	71.71	0
3	134313	71.81	0
3	134501	71.91	0
3	134695	72.01	0
3	134883	72.11	0
3	135071	72.21	0
3	135259	72.31	0
3	135447	72.41	0
3	135635	72.51	0
3	135823	72.61	0
3	136011	72.71	0
3	136199	72.81	0
3	136387	72.91	0
3	136581	73.01	0
3	136769	73.11	0
3	136957	73.21	0
3	137145	73.31	0
3	137333	73.41	0
3	137521	73.51	0
3	137709	73.61	0
3	137897	73.71	0
3	138085	73.81	0
3	138273	73.91	0
3	138467	74.01	0
3	138655	74.11	0
3	138843	74.21	0
3	139031	74.31	0
3	139219	74.41	0
3	139407	74.51	0
3	139595	74.61	0
3	139783	74.71	0
3	139971	74.81	0
3	140159	74.91	0
3	140353	75.01	0
3	140541	75.11	0
3	140729	75.21	0
3	140917	75.31	0
3	141105	75.41	0
3	141293	75.51	0
3	141481	75.61	0
3	141669	75.71	0
3	141857	75.81	0
3	142045	75.91	0
3	142239	76.01	0
3	142427	76.11	0
3	142615	76.21	0
3	142803	76.31	0
3	142991	76.41	0
3	143179	76.51	0
3	143367	76.61	0
3	143555	76.71	0
3	143743	76.81	0
3	143931	76.91	0
3	144125	77.01	0
3	144313	77.11	0
3	144501	77.21	0
3	144689	77.31	0
3	144877	77.41	0
3	145065	77.51	0
3	145253	77.61	0
3	145441	77.71	0
3	145629	77.81	0
3	145817	77.91	0
3	146011	78.01	0
3	146199	78.11	0
3	146387	78.21	0
3	146575	78.31	0
3	146763	78.41	0
3	146951	78.51	0
3	147139	78.61	0
3	147327	78.71	0
3	147515	78.81	0
3	147703	78.91	0
3	147897	79.01	0
3	148085	79.11	0
3	148273	79.21	0
3	148461	79.31	0
3	148649	79.41	0
3	148837	79.51	0
3	149025	79.61	0
3	149213	79.71	0
3	149401	79.81	0
3	149589	79.91	0
3	149783	80.01	0
3	149971	80.11	0
3	150159	80.21	0
3	150347	80.31	0
3	150535	80.41	0
3	150723	80.51	0
3	150911	80.61	0
3	151099	80.71	0
3	151287	80.81	0
3	151475	80.91	0
3	151669	81.01	0
3	151857	81.11	0
3	152045	81.21	0
3	152233	81.31	0
3	152421	81.41	0
3	152609	81.51	0
3	152797	81.61	0
3	152985	81.71	0
3	153173	81.81	0
3	153361	81.91	0
3	153555	82.01	0
3	153743	82.11	0
3	153931	82.21	0
3	154119	82.31	0
3	154307	82.41	0
3	154495	82.51	0
3	154683	82.61	0
3	154871	82.71	0
3	155059	82.81	0
3	155247	82.91	0
3	155441	83.01	0
3	155629	83.11	0
3	155817	83.21	0
3	156005	83.31	0
3	156193	83.41	0
3	156381	83.51	0
3	156569	83.61	0
3	156757	83.71	0
3	156945	83.81	0
3	157133	83.91	0
3	157327	84.01	0
3	157515	84.11	0
3	157703	84.21	0
3	157891	84.31	0
3	158079	84.41	0
3	158267	84.51	0
3	158455	84.61	0
3	158643	84.71	0
3	158831	84.81	0
3	159019	84.91	0
3	159213	85.01	0
3	159401	85.11	0
3	159589	85.21	0
3	159777	85.31	0
3	159965	85.41	0
3	160153	85.51	0
3	160341	85.61	0
3	160529	85.71	0
3	160717	85.81	0
3	160905	85.91	0
3	161099	86.01	0
3	161287	86.11	0
3	161475	86.21	0
3	161663	86.31	0
3	161851	86.41	0
3	162039	86.51	0
3	162227	86.61	0
3	162415	86.71	0
3	162603	86.81	0
3	162791	86.91	0
3	162985	87.01	0
3	163173	87.11	0
3	163361	87.21	0
3	163549	87.31	0
3	163737	87.41	0
3	163925	87.51	0
3	164113	87.61	0
3	164301	87.71	0
3	164489	87.81	0
3	164677	87.91	0
3	164871	88.01	0
3	165059	88.11	0
3	165247	88.21	0
3	165435	88.31	0
3	165623	88.41	0
3	165811	88.51	0
3	165999	88.61	0
3	166187	88.71	0
3	166375	88.81	0
3	166563	88.91	0
3	166757	89.01	0
3	166945	89.11	0
3	167133	89.21	0
3	167321	89.31	0
3	167509	89.41	0
3	167697	89.51	0
3	167885	89.61	0
3	168073	89.71	0
3	168261	89.81	0
3	168449	89.91	0
3	168643	90.01	0
3	168831	90.11	0
3	169019	90.21	0
3	169207	90.31	0
3	169395	90.41	0
3	169583	90.51	0
3	169771	90.61	0
3	169959	90.71	0
3	170147	90.81	0
3	170335	90.91	0
3	170529	91.01	0
3	170717	91.11	0
3	170905	91.21	0
3	171093	91.31	0
3	171281	91.41	0
3	171469	91.51	0
3	171657	91.61	0
3	171845	91.71	0
3	172033	91.81	0
3	172221	91.91	0
3	172415	92.01	0
3	172603	92.11	0
3	172791	92.21	0
3	172979	92.31	0
3	173167	92.41	0
3	173355	92.51	0
3	173543	92.61	0
3	173731	92.71	0
3	173919	92.81	0
3	174107	92.91	0
3	174301	93.01	0
3	174489	93.11	0
3	174677	93.21	0
3	174865	93.31	0
3	175053	93.41	0
3	175241	93.51	0
3	175429	93.61	0
3	175617	93.71	0
3	175805	93.81	0
3	175993	93.91	0
3	176187	94.01	0
3	176375	94.11	0
3	176563	94.21	0
3	176751	94.31	0
3	176939	94.41	0
3	177127	94.51	0
3	177315	94.61	0
3	177503	94.71	0
3	177691	94.81	0
3	177879	94.91	0
3	178073	95.01	0
3	178261	95.11	0
3	178449	95.21	0
3	178637	95.31	0
3	178825	95.41	0
3	179013	95.51	0
3	179201	95.61	0
3	179389	95.71	0
3	179577	95.81	0
3	179765	95.91	0
3	179959	96.01	0
3	180147	96.11	0
3	180335	96.21	0
3	180523	96.31	0
3	180711	96.41	0
3	180899	96.51	0
3	181087	96.61	0
3	181275	96.71	0
3	181463	96.81	0
3	181651	96.91	0
3	181845	97.01	0
3	182033	97.11	0
3	182221	97.21	0
3	182409	97.31	0
3	182597	97.41	0
3	182785	97.51	0
3	182973	97.61	0
3	183161	97.71	0
3	183349	97.81	0
3	183537	97.91	0
3	183731	98.01	0
3	183919	98.11	0
3	184107	98.21	0
3	184295	98.31	0
3	184483	98.41	0
3	184671	98.51	0
3	184859	98.61	0
3	185047	98.71	0
3	185235	98.81	0
3	185423	98.91	0
3	185617	99.01	0
3	185805	99.11	0
3	185993	99.21	0
3	186181	99.31	0
3	186369	99.41	0
3	186557	99.51	0
3	186745	99.61	0
3	186933	99.71	0
3	187121	99.81	0
3	187309	99.91	0
4	113	1.11	0.00109259
4	301	1.21	0.00106709
4	489	1.31	0.00102704
4	677	1.41	0.000975759
4	865	1.51	0.00091619
4	1053	1.61	0.000850891
4	1241	1.71	0.000782061
4	1429	1.81	0.00071157
4	1617	1.91	0.00064098
4	1811	2.01	0.000571575
4	1999	2.11	0.000504387
4	2187	2.21	0.000440223
4	2375	2.31	0.000379691
4	2563	2.41	0.000323223
4	2751	2.51	0.000271102
4	2939	2.61	0.000223482
4	3127	2.71	0.000180409
4	3315	2.81	0.000141839
4	3503	2.91	0.000107653
4	3697	3.01	7.76787e-05
4	3885	3.11	5.16957e-05
4	4073	3.21	2.94534e-05
4	4261	3.31	1.06787e-05
4	4449	3.41	-4.91459e-06
4	4637	3.51	-1.76184e-05
4	4825	3.61	-2.7724e-05
4	5013	3.71	-3.55168e-05
4	5201	3.81	-4.12726e-05
4	5389	3.91	-4.52541e-05
4	5583	4.01	-4.77086e-05
4	5771	4.11	-4.88665e-05
4	5959	4.21	-4.89399e-05
4	6147	4.31	-4.81224e-05
4	6335	4.41	-4.65886e-05
4	6523	4.51	-4.44947e-05
4	6711	4.61	-4.1979e-05
4	6899	4.71	-3.91623e-05
4	7087	4.81	-3.61492e-05
4	7275	4.91	-3.3029e-05
4	7469	5.01	-2.9877e-05
4	7657	5.11	-2.67554e-05
4	7845	5.21	-2.37147e-05
4	8033	5.31	-2.07949e-05
4	8221	5.41	-1.80267e-05
4	8409	5.51	-1.54325e-05
4	8597	5.61	-1.30275e-05
4	8785	5.71	-1.0821e-05
4	8973	5.81	-8.81673e-06
4	9161	5.91	-7.01443e-06
4	9355	6.01	-5.4101e-06
4	9543	6.11	-3.99696e-06
4	9731	6.21	-2.766e-06
4	9919	6.31	-1.70658e-06
4	10107	6.41	-8.06872e-07
4	10295	6.51	-5.43281e-08
4	10483	6.61	5.63994e-07
4	10671	6.71	1.06112e-06
4	10859	6.81	1.4499e-06
4	11047	6.91	1.74283e-06
4	11241	7.01	1.95188e-06
4	11429	7.11	2.08836e-06
4	11617	7.21	2.16287e-06
4	11805	7.31	2.1852e-06
4	11993	7.41	2.16432e-06
4	12181	7.51	2.10838e-06
4	12369	7.61	2.02467e-06
4	12557	7.71	1.91968e-06
4	12745	7.81	1.79913e-06
4	12933	7.91	1.66796e-06
4	13127	8.01	1.53044e-06
4	13315	8.11	1.39018e-06
4	13503	8.21	1.25018e-06
4	13691	8.31	1.11291e-06
4	13879	8.41	9.80339e-07
4	14067	8.51	8.54002e-07
4	14255	8.61	7.35044e-07
4	14443	8.71	6.24274e-07
4	14631	8.81	5.22206e-07
4	14819	8.91	4.2911e-07
4	15013	9.01	3.45041e-07
4	15201	9.11	2.69888e-07
4	15389	9.21	2.03394e-07
4	15577	9.31	1.45199e-07
4	15765	9.41	9.48539e-08
4	15953	9.51	5.18526e-08
4	16141	9.61	1.56462e-08
4	16329	9.71	-1.43366e-08
4	16517	9.81	-3.86756e-08
4	16705	9.91	-5.79483e-08
4	17339	10.01	-7.27191e-08
4	17528	10.11	-8.35328e-08
4	17717	10.21	-9.09047e-08
4	17906	10.31	-9.53222e-08
4	18095	10.41	-9.72364e-08
4	18284	10.51	-9.7063e-08
4	18473	10.61	-9.51793e-08
4	18662	10.71	-9.19272e-08
[...]
69	123373	66	0
69	125259	67	0
69	127145	68	0
69	129031	69	0
69	130917	70	0
69	132803	71	0
69	134689	72	0
69	136575	73	0
69	138461	74	0
69	140347	75	0
69	142233	76	0
69	144119	77	0
69	146005	78	0
69	147891	79	0
69	149777	80	0
69	151663	81	0
69	153549	82	0
69	155435	83	0
69	157321	84	0
69	159207	85	0
69	161093	86	0
69	162979	87	0
69	164865	88	0
69	166751	89	0
69	168637	90	0
69	170523	91	0
69	172409	92	0
69	174295	93	0
69	176181	94	0
69	178067	95	0
69	179953	96	0
69	181839	97	0
69	183725	98	0
69	185611	99	0
69	187497	100	0
70	1806	2	2
70	3692	3	2
70	5578	4	2
70	7464	5	2
70	9350	6	2
70	11236	7	2
70	13122	8	2
70	15008	9	2
70	16896	10	2
70	19229	11	2
70	21125	12	2
70	23021	13	2
70	24917	14	2
70	26813	15	2
70	28709	16	2
70	30605	17	2
70	32501	18	2
70	34397	19	2
70	36293	20	2
70	38189	21	2
70	40085	22	2
70	41981	23	2
70	43877	24	2
70	45773	25	2
70	47669	26	2
70	49565	27	2
70	51461	28	2
70	53357	29	2
70	55253	30	2
70	57149	31	2
70	59045	32	2
70	60941	33	2
70	62837	34	2
70	64733	35	2
70	66629	36	2
70	68525	37	2
70	70421	38	2
70	72317	39	2
70	74213	40	2
70	76109	41	2
70	78005	42	2
70	79901	43	2
70	81797	44	2
70	83693	45	2
70	85654	46	2
70	87540	47	2
70	89426	48	2
70	91312	49	2
70	93198	50	2
70	95084	51	2
70	96970	52	2
70	98856	53	2
70	100742	54	2
70	102628	55	2
70	104514	56	2
70	106400	57	2
70	108286	58	2
70	110172	59	2
70	112058	60	2
70	113944	61	2
70	115830	62	2
70	117716	63	2
70	119602	64	2
70	121488	65	2
70	123374	66	2
70	125260	67	2
70	127146	68	2
70	129032	69	2
70	130918	70	2
70	132804	71	2
70	134690	72	2
70	136576	73	2
70	138462	74	2
70	140348	75	2
70	142234	76	2
70	144120	77	2
70	146006	78	2
70	147892	79	2
70	149778	80	2
70	151664	81	2
70	153550	82	2
70	155436	83	2
70	157322	84	2
70	159208	85	2
70	161094	86	2
70	162980	87	2
70	164866	88	2
70	166752	89	2
70	168638	90	2
70	170524	91	2
70	172410	92	2
70	174296	93	2
70	176182	94	2
70	178068	95	2
70	179954	96	2
70	181840	97	2
70	183726	98	2
70	185612	99	2
70	187498	100	2
71	1806	2	0.011241
71	3692	3	0.01249
71	5578	4	0.01249
71	7464	5	0.01249
71	9350	6	0.01249
71	11236	7	0.01249
71	13122	8	0.01249
71	15008	9	0.01249
71	16896	10	0.01249
71	19229	11	0.013418080058
71	21125	12	0.01249
71	23021	13	0.01249
71	24917	14	0.01249
71	26813	15	0.01249
71	28709	16	0.01249
71	30605	17	0.01249
71	32501	18	0.01249
71	34397	19	0.01249
71	36293	20	0.01249
71	38189	21	0.01249
71	40085	22	0.01249
71	41981	23	0.01249
71	43877	24	0.01249
71	45773	25	0.01249
71	47669	26	0.01249
71	49565	27	0.01249
71	51461	28	0.01249
71	53357	29	0.01249
71	55253	30	0.01249
71	57149	31	0.01249
71	59045	32	0.01249
71	60941	33	0.01249
71	62837	34	0.01249
71	64733	35	0.01249
71	66629	36	0.01249
71	68525	37	0.01249
71	70421	38	0.01249
71	72317	39	0.01249
71	74213	40	0.01249
71	76109	41	0.01249
71	78005	42	0.01249
71	79901	43	0.01249
71	81797	44	0.01249
71	83693	45	0.01249
71	85654	46	0.01249
71	87540	47	0.01249
71	89426	48	0.01249
71	91312	49	0.01249
71	93198	50	0.01249
71	95084	51	0.01249
71	96970	52	0.01249
71	98856	53	0.01249
71	100742	54	0.01249
71	102628	55	0.01249
71	104514	56	0.01249
71	106400	57	0.01249
71	108286	58	0.01249
71	110172	59	0.01249
71	112058	60	0.01249
71	113944	61	0.01249
71	115830	62	0.01249
71	117716	63	0.01249
71	119602	64	0.01249
71	121488	65	0.01249
71	123374	66	0.01249
71	125260	67	0.01249
71	127146	68	0.01249
71	129032	69	0.01249
71	130918	70	0.01249
71	132804	71	0.01249
71	134690	72	0.01249
71	136576	73	0.01249
71	138462	74	0.01249
71	140348	75	0.01249
71	142234	76	0.01249
71	144120	77	0.01249
71	146006	78	0.01249
71	147892	79	0.01249
71	149778	80	0.01249
71	151664	81	0.01249
71	153550	82	0.01249
71	155436	83	0.01249
71	157322	84	0.01249
71	159208	85	0.01249
71	161094	86	0.01249
71	162980	87	0.01249
71	164866	88	0.01249
71	166752	89	0.01249
71	168638	90	0.01249
71	170524	91	0.01249
71	172410	92	0.01249
71	174296	93	0.01249
71	176182	94	0.01249
71	178068	95	0.01249
71	179954	96	0.01249
71	181840	97	0.01249
71	183726	98	0.01249
71	185612	99	0.01249
71	187498	100	0.01249
72	1806	2	0
72	3692	3	0
72	5578	4	0
72	7464	5	0
72	9350	6	0
72	11236	7	0
72	13122	8	0
72	15008	9	0
72	16896	10	0
72	19229	11	0
72	21125	12	0
72	23021	13	0
72	24917	14	0
72	26813	15	0
72	28709	16	0
72	30605	17	0
72	32501	18	0
72	34397	19	0
72	36293	20	0
72	38189	21	0
72	40085	22	0
72	41981	23	0
72	43877	24	0
72	45773	25	0
72	47669	26	0
72	49565	27	0
72	51461	28	0
72	53357	29	0
72	55253	30	0
72	57149	31	0
72	59045	32	0
72	60941	33	0
72	62837	34	0
72	64733	35	0
72	66629	36	0
72	68525	37	0
72	70421	38	0
72	72317	39	0
72	74213	40	0
72	76109	41	0
72	78005	42	0
72	79901	43	0
72	81797	44	0
72	83693	45	0
72	85654	46	0
72	87540	47	0
72	89426	48	0
72	91312	49	0
72	93198	50	0
72	95084	51	0
72	96970	52	0
72	98856	53	0
72	100742	54	0
72	102628	55	0
72	104514	56	0
72	106400	57	0
72	108286	58	0
72	110172	59	0
72	112058	60	0
72	113944	61	0
72	115830	62	0
72	117716	63	0
72	119602	64	0
72	121488	65	0
72	123374	66	0
72	125260	67	0
72	127146	68	0
72	129032	69	0
72	130918	70	0
72	132804	71	0
72	134690	72	0
72	136576	73	0
72	138462	74	0
72	140348	75	0
72	142234	76	0
72	144120	77	0
72	146006	78	0
72	147892	79	0
72	149778	80	0
72	151664	81	0
72	153550	82	0
72	155436	83	0
72	157322	84	0
72	159208	85	0
72	161094	86	0
72	162980	87	0
72	164866	88	0
72	166752	89	0
72	168638	90	0
72	170524	91	0
72	172410	92	0
72	174296	93	0
72	176182	94	0
72	178068	95	0
72	179954	96	0
72	181840	97	0
72	183726	98	0
72	185612	99	0
72	187498	100	0
73	1807	2	3
73	3693	3	3
73	5579	4	3
73	7465	5	3
73	9351	6	3
73	11237	7	3
73	13123	8	3
73	15009	9	3
73	16897	10	3
73	19230	11	3
73	21126	12	3
73	23022	13	3
73	24918	14	3
73	26814	15	3
73	28710	16	3
73	30606	17	3
73	32502	18	3
73	34398	19	3
73	36294	20	3
73	38190	21	3
73	40086	22	3
73	41982	23	3
73	43878	24	3
73	45774	25	3
73	47670	26	3
73	49566	27	3
73	51462	28	3
73	53358	29	3
73	55254	30	3
73	57150	31	3
73	59046	32	3
73	60942	33	3
73	62838	34	3
73	64734	35	3
73	66630	36	3
73	68526	37	3
73	70422	38	3
73	72318	39	3
73	74214	40	3
73	76110	41	3
73	78006	42	3
73	79902	43	3
73	81798	44	3
73	83694	45	3
73	85655	46	3
73	87541	47	3
73	89427	48	3
73	91313	49	3
73	93199	50	3
73	95085	51	3
73	96971	52	3
73	98857	53	3
73	100743	54	3
73	102629	55	3
73	104515	56	3
73	106401	57	3
73	108287	58	3
73	110173	59	3
73	112059	60	3
73	113945	61	3
73	115831	62	3
73	117717	63	3
73	119603	64	3
73	121489	65	3
73	123375	66	3
73	125261	67	3
73	127147	68	3
73	129033	69	3
73	130919	70	3
73	132805	71	3
73	134691	72	3
73	136577	73	3
73	138463	74	3
73	140349	75	3
73	142235	76	3
73	144121	77	3
73	146007	78	3
73	147893	79	3
73	149779	80	3
73	151665	81	3
73	153551	82	3
73	155437	83	3
73	157323	84	3
73	159209	85	3
73	161095	86	3
73	162981	87	3
73	164867	88	3
73	166753	89	3
73	168639	90	3
73	170525	91	3
73	172411	92	3
73	174297	93	3
73	176183	94	3
73	178069	95	3
73	179955	96	3
73	181841	97	3
73	183727	98	3
73	185613	99	3
73	187499	100	3
74	1807	2	0.011241
74	3693	3	0.01249
74	5579	4	0.01249
74	7465	5	0.01249
74	9351	6	0.01249
74	11237	7	0.01249
74	13123	8	0.01249
74	15009	9	0.01249
74	16897	10	0.01249
74	19230	11	0.013418120086
74	21126	12	0.01249
74	23022	13	0.01249
74	24918	14	0.01249
74	26814	15	0.01249
74	28710	16	0.01249
74	30606	17	0.01249
74	32502	18	0.01249
74	34398	19	0.01249
74	36294	20	0.01249
74	38190	21	0.01249
74	40086	22	0.01249
74	41982	23	0.01249
74	43878	24	0.01249
74	45774	25	0.01249
74	47670	26	0.01249
74	49566	27	0.01249
74	51462	28	0.01249
74	53358	29	0.01249
74	55254	30	0.01249
74	57150	31	0.01249
74	59046	32	0.01249
74	60942	33	0.01249
74	62838	34	0.01249
74	64734	35	0.01249
74	66630	36	0.01249
74	68526	37	0.01249
74	70422	38	0.01249
74	72318	39	0.01249
74	74214	40	0.01249
74	76110	41	0.01249
74	78006	42	0.01249
74	79902	43	0.01249
74	81798	44	0.01249
74	83694	45	0.01249
74	85655	46	0.01249
74	87541	47	0.01249
74	89427	48	0.01249
74	91313	49	0.01249
74	93199	50	0.01249
74	95085	51	0.01249
74	96971	52	0.01249
74	98857	53	0.01249
74	100743	54	0.01249
74	102629	55	0.01249
74	104515	56	0.01249
74	106401	57	0.01249
74	108287	58	0.01249
74	110173	59	0.01249
74	112059	60	0.01249
74	113945	61	0.01249
74	115831	62	0.01249
74	117717	63	0.01249
74	119603	64	0.01249
74	121489	65	0.01249
74	123375	66	0.01249
74	125261	67	0.01249
74	127147	68	0.01249
74	129033	69	0.01249
74	130919	70	0.01249
74	132805	71	0.01249
74	134691	72	0.01249
74	136577	73	0.01249
74	138463	74	0.01249
74	140349	75	0.01249
74	142235	76	0.01249
74	144121	77	0.01249
74	146007	78	0.01249
74	147893	79	0.01249
74	149779	80	0.01249
74	151665	81	0.01249
74	153551	82	0.01249
74	155437	83	0.01249
74	157323	84	0.01249
74	159209	85	0.01249
74	161095	86	0.01249
74	162981	87	0.01249
74	164867	88	0.01249
74	166753	89	0.01249
74	168639	90	0.01249
74	170525	91	0.01249
74	172411	92	0.01249
74	174297	93	0.01249
74	176183	94	0.01249
74	178069	95	0.01249
74	179955	96	0.01249
74	181841	97	0.01249
74	183727	98	0.01249
74	185613	99	0.01249
74	187499	100	0.01249
75	1807	2	0
75	3693	3	0
75	5579	4	0
75	7465	5	0
75	9351	6	0
75	11237	7	0
75	13123	8	0
75	15009	9	0
75	16897	10	0
75	19230	11	0
75	21126	12	0
75	23022	13	0
75	24918	14	0
75	26814	15	0
75	28710	16	0
75	30606	17	0
75	32502	18	0
75	34398	19	0
75	36294	20	0
75	38190	21	0
75	40086	22	0
75	41982	23	0
75	43878	24	0
75	45774	25	0
75	47670	26	0
75	49566	27	0
75	51462	28	0
75	53358	29	0
75	55254	30	0
75	57150	31	0
75	59046	32	0
75	60942	33	0
75	62838	34	0
75	64734	35	0
75	66630	36	0
75	68526	37	0
75	70422	38	0
75	72318	39	0
75	74214	40	0
75	76110	41	0
75	78006	42	0
75	79902	43	0
75	81798	44	0
75	83694	45	0
75	85655	46	0
75	87541	47	0
75	89427	48	0
75	91313	49	0
75	93199	50	0
75	95085	51	0
75	96971	52	0
75	98857	53	0
75	100743	54	0
75	102629	55	0
75	104515	56	0
75	106401	57	0
75	108287	58	0
75	110173	59	0
75	112059	60	0
75	113945	61	0
75	115831	62	0
75	117717	63	0
75	119603	64	0
75	121489	65	0
75	123375	66	0
75	125261	67	0
75	127147	68	0
75	129033	69	0
75	130919	70	0
75	132805	71	0
75	134691	72	0
75	136577	73	0
75	138463	74	0
75	140349	75	0
75	142235	76	0
75	144121	77	0
75	146007	78	0
75	147893	79	0
75	149779	80	0
75	151665	81	0
75	153551	82	0
75	155437	83	0
75	157323	84	0
75	159209	85	0
75	161095	86	0
75	162981	87	0
75	164867	88	0
75	166753	89	0
75	168639	90	0
75	170525	91	0
75	172411	92	0
75	174297	93	0
75	176183	94	0
75	178069	95	0
75	179955	96	0
75	181841	97	0
75	183727	98	0
75	185613	99	0
75	187499	100	0
76	1808	2	4
76	3694	3	4
76	5580	4	4
76	7466	5	4
76	9352	6	4
76	11238	7	4
76	13124	8	4
76	15010	9	4
76	16898	10	4
76	19231	11	4
76	21127	12	4
76	23023	13	4
76	24919	14	4
76	26815	15	4
76	28711	16	4
76	30607	17	4
76	32503	18	4
76	34399	19	4
76	36295	20	4
76	38191	21	4
76	40087	22	4
76	41983	23	4
76	43879	24	4
76	45775	25	4
76	47671	26	4
76	49567	27	4
76	51463	28	4
76	53359	29	4
76	55255	30	4
76	57151	31	4
76	59047	32	4
76	60943	33	4
76	62839	34	4
76	64735	35	4
76	66631	36	4
76	68527	37	4
76	70423	38	4
76	72319	39	4
76	74215	40	4
76	76111	41	4
76	78007	42	4
76	79903	43	4
76	81799	44	4
76	83695	45	4
76	85656	46	4
76	87542	47	4
76	89428	48	4
76	91314	49	4
76	93200	50	4
76	95086	51	4
76	96972	52	4
76	98858	53	4
76	100744	54	4
76	102630	55	4
76	104516	56	4
76	106402	57	4
76	108288	58	4
76	110174	59	4
76	112060	60	4
76	113946	61	4
76	115832	62	4
76	117718	63	4
76	119604	64	4
76	121490	65	4
76	123376	66	4
76	125262	67	4
76	127148	68	4
76	129034	69	4
76	130920	70	4
76	132806	71	4
76	134692	72	4
76	136578	73	4
76	138464	74	4
76	140350	75	4
76	142236	76	4
76	144122	77	4
76	146008	78	4
76	147894	79	4
76	149780	80	4
76	151666	81	4
76	153552	82	4
76	155438	83	4
76	157324	84	4
76	159210	85	4
76	161096	86	4
76	162982	87	4
76	164868	88	4
76	166754	89	4
76	168640	90	4
76	170526	91	4
76	172412	92	4
76	174298	93	4
76	176184	94	4
76	178070	95	4
76	179956	96	4
76	181842	97	4
76	183728	98	4
76	185614	99	4
76	187500	100	4
77	1808	2	0.005625
77	3694	3	0.00625
77	5580	4	0.00625
77	7466	5	0.00625
77	9352	6	0.00625
77	11238	7	0.00625
77	13124	8	0.00625
77	15010	9	0.00625
77	16898	10	0.00625
77	19231	11	0.006299
77	21127	12	0.00625
77	23023	13	0.00625
77	24919	14	0.00625
77	26815	15	0.00625
77	28711	16	0.00625
77	30607	17	0.00625
77	32503	18	0.00625
77	34399	19	0.00625
77	36295	20	0.00625
77	38191	21	0.00625
77	40087	22	0.00625
77	41983	23	0.00625
77	43879	24	0.00625
77	45775	25	0.00625
77	47671	26	0.00625
77	49567	27	0.00625
77	51463	28	0.00625
77	53359	29	0.00625
77	55255	30	0.00625
77	57151	31	0.00625
77	59047	32	0.00625
77	60943	33	0.00625
77	62839	34	0.00625
77	64735	35	0.00625
77	66631	36	0.00625
77	68527	37	0.00625
77	70423	38	0.00625
77	72319	39	0.00625
77	74215	40	0.00625
77	76111	41	0.00625
77	78007	42	0.00625
77	79903	43	0.00625
77	81799	44	0.00625
77	83695	45	0.00625
77	85656	46	0.00653912609
77	87542	47	0.00625
77	89428	48	0.00625
77	91314	49	0.00625
77	93200	50	0.00625
77	95086	51	0.00625
77	96972	52	0.00625
77	98858	53	0.00625
77	100744	54	0.00625
77	102630	55	0.00625
77	104516	56	0.00625
77	106402	57	0.00625
77	108288	58	0.00625
77	110174	59	0.00625
77	112060	60	0.00625
77	113946	61	0.00625
77	115832	62	0.00625
77	117718	63	0.00625
77	119604	64	0.00625
77	121490	65	0.00625
77	123376	66	0.00625
77	125262	67	0.00625
77	127148	68	0.00625
77	129034	69	0.00625
77	130920	70	0.00625
77	132806	71	0.00625
77	134692	72	0.00625
77	136578	73	0.00625
77	138464	74	0.00625
77	140350	75	0.00625
77	142236	76	0.00625
77	144122	77	0.00625
77	146008	78	0.00625
77	147894	79	0.00625
77	149780	80	0.00625
77	151666	81	0.00625
77	153552	82	0.00625
77	155438	83	0.00625
77	157324	84	0.00625
77	159210	85	0.00625
77	161096	86	0.00625
77	162982	87	0.00625
77	164868	88	0.00625
77	166754	89	0.00625
77	168640	90	0.00625
77	170526	91	0.00625
77	172412	92	0.00625
77	174298	93	0.00625
77	176184	94	0.00625
77	178070	95	0.00625
77	179956	96	0.00625
77	181842	97	0.00625
77	183728	98	0.00625
77	185614	99	0.00625
77	187500	100	0.00625
78	1808	2	0
78	3694	3	0
78	5580	4	0
78	7466	5	0
78	9352	6	0
78	11238	7	0
78	13124	8	0
78	15010	9	0
78	16898	10	0
78	19231	11	0
78	21127	12	0
78	23023	13	0
78	24919	14	0
78	26815	15	0
78	28711	16	0
78	30607	17	0
78	32503	18	0
78	34399	19	0
78	36295	20	0
78	38191	21	0
78	40087	22	0
78	41983	23	0
78	43879	24	0
78	45775	25	0
78	47671	26	0
78	49567	27	0
78	51463	28	0
78	53359	29	0
78	55255	30	0
78	57151	31	0
78	59047	32	0
78	60943	33	0
78	62839	34	0
78	64735	35	0
78	66631	36	0
78	68527	37	0
78	70423	38	0
78	72319	39	0
78	74215	40	0
78	76111	41	0
78	78007	42	0
78	79903	43	0
78	81799	44	0
78	83695	45	0
78	85656	46	0
78	87542	47	0
78	89428	48	0
78	91314	49	0
78	93200	50	0
78	95086	51	0
78	96972	52	0
78	98858	53	0
78	100744	54	0
78	102630	55	0
78	104516	56	0
78	106402	57	0
78	108288	58	0
78	110174	59	0
78	112060	60	0
78	113946	61	0
78	115832	62	0
78	117718	63	0
78	119604	64	0
78	121490	65	0
78	123376	66	0
78	125262	67	0
78	127148	68	0
78	129034	69	0
78	130920	70	0
78	132806	71	0
78	134692	72	0
78	136578	73	0
78	138464	74	0
78	140350	75	0
78	142236	76	0
78	144122	77	0
78	146008	78	0
78	147894	79	0
78	149780	80	0
78	151666	81	0
78	153552	82	0
78	155438	83	0
78	157324	84	0
78	159210	85	0
78	161096	86	0
78	162982	87	0
78	164868	88	0
78	166754	89	0
78	168640	90	0
78	170526	91	0
78	172412	92	0
78	174298	93	0
78	176184	94	0
78	178070	95	0
78	179956	96	0
78	181842	97	0
78	183728	98	0
78	185614	99	0
78	187500	100	0
79	1809	2	5
79	3695	3	5
79	5581	4	5
79	7467	5	5
79	9353	6	5
79	11239	7	5
79	13125	8	5
79	15011	9	5
79	16899	10	5
79	19232	11	5
79	21128	12	5
79	23024	13	5
79	24920	14	5
79	26816	15	5
79	28712	16	5
79	30608	17	5
79	32504	18	5
79	34400	19	5
79	36296	20	5
79	38192	21	5
79	40088	22	5
79	41984	23	5
79	43880	24	5
79	45776	25	5
79	47672	26	5
79	49568	27	5
79	51464	28	5
79	53360	29	5
79	55256	30	5
79	57152	31	5
79	59048	32	5
79	60944	33	5
79	62840	34	5
79	64736	35	5
79	66632	36	5
79	68528	37	5
79	70424	38	5
79	72320	39	5
79	74216	40	5
79	76112	41	5
79	78008	42	5
79	79904	43	5
79	81800	44	5
79	83696	45	5
79	85657	46	5
79	87543	47	5
79	89429	48	5
79	91315	49	5
79	93201	50	5
79	95087	51	5
79	96973	52	5
79	98859	53	5
79	100745	54	5
79	102631	55	5
79	104517	56	5
79	106403	57	5
79	108289	58	5
79	110175	59	5
79	112061	60	5
79	113947	61	5
79	115833	62	5
79	117719	63	5
79	119605	64	5
79	121491	65	5
79	123377	66	5
79	125263	67	5
79	127149	68	5
79	129035	69	5
79	130921	70	5
79	132807	71	5
79	134693	72	5
79	136579	73	5
79	138465	74	5
79	140351	75	5
79	142237	76	5
79	144123	77	5
79	146009	78	5
79	147895	79	5
79	149781	80	5
79	151667	81	5
79	153553	82	5
79	155439	83	5
79	157325	84	5
79	159211	85	5
79	161097	86	5
79	162983	87	5
79	164869	88	5
79	166755	89	5
79	168641	90	5
79	170527	91	5
79	172413	92	5
79	174299	93	5
79	176185	94	5
79	178071	95	5
79	179957	96	5
79	181843	97	5
79	183729	98	5
79	185615	99	5
79	187501	100	5
80	1809	2	0.005625
80	3695	3	0.00625
80	5581	4	0.00625
80	7467	5	0.00625
80	9353	6	0.00625
80	11239	7	0.00625
80	13125	8	0.00625
80	15011	9	0.00625
80	16899	10	0.00625
80	19232	11	0.006298
80	21128	12	0.00625
80	23024	13	0.00625
80	24920	14	0.00625
80	26816	15	0.00625
80	28712	16	0.00625
80	30608	17	0.00625
80	32504	18	0.00625
80	34400	19	0.00625
80	36296	20	0.00625
80	38192	21	0.00625
80	40088	22	0.00625
80	41984	23	0.00625
80	43880	24	0.00625
80	45776	25	0.00625
80	47672	26	0.00625
80	49568	27	0.00625
80	51464	28	0.00625
80	53360	29	0.00625
80	55256	30	0.00625
80	57152	31	0.00625
80	59048	32	0.00625
80	60944	33	0.00625
80	62840	34	0.00625
80	64736	35	0.00625
80	66632	36	0.00625
80	68528	37	0.00625
80	70424	38	0.00625
80	72320	39	0.00625
80	74216	40	0.00625
80	76112	41	0.00625
80	78008	42	0.00625
80	79904	43	0.00625
80	81800	44	0.00625
80	83696	45	0.00625
80	85657	46	0.00653912609
80	87543	47	0.00625
80	89429	48	0.00625
80	91315	49	0.00625
80	93201	50	0.00625
80	95087	51	0.00625
80	96973	52	0.00625
80	98859	53	0.00625
80	100745	54	0.00625
80	102631	55	0.00625
80	104517	56	0.00625
80	106403	57	0.00625
80	108289	58	0.00625
80	110175	59	0.00625
80	112061	60	0.00625
80	113947	61	0.00625
80	115833	62	0.00625
80	117719	63	0.00625
80	119605	64	0.00625
80	121491	65	0.00625
80	123377	66	0.00625
80	125263	67	0.00625
80	127149	68	0.00625
80	129035	69	0.00625
80	130921	70	0.00625
80	132807	71	0.00625
80	134693	72	0.00625
80	136579	73	0.00625
80	138465	74	0.00625
80	140351	75	0.00625
80	142237	76	0.00625
80	144123	77	0.00625
80	146009	78	0.00625
80	147895	79	0.00625
80	149781	80	0.00625
80	151667	81	0.00625
80	153553	82	0.00625
80	155439	83	0.00625
80	157325	84	0.00625
80	159211	85	0.00625
80	161097	86	0.00625
80	162983	87	0.00625
80	164869	88	0.00625
80	166755	89	0.00625
80	168641	90	0.00625
80	170527	91	0.00625
80	172413	92	0.00625
80	174299	93	0.00625
80	176185	94	0.00625
80	178071	95	0.00625
80	179957	96	0.00625
80	181843	97	0.00625
80	183729	98	0.00625
80	185615	99	0.00625
80	187501	100	0.00625
81	1809	2	0
81	3695	3	0
81	5581	4	0
81	7467	5	0
81	9353	6	0
81	11239	7	0
81	13125	8	0
81	15011	9	0
81	16899	10	0
81	19232	11	0
81	21128	12	0
81	23024	13	0
81	24920	14	0
81	26816	15	0
81	28712	16	0
81	30608	17	0
81	32504	18	0
81	34400	19	0
81	36296	20	0
81	38192	21	0
81	40088	22	0
81	41984	23	0
81	43880	24	0
81	45776	25	0
81	47672	26	0
81	49568	27	0
81	51464	28	0
81	53360	29	0
81	55256	30	0
81	57152	31	0
81	59048	32	0
81	60944	33	0
81	62840	34	0
81	64736	35	0
81	66632	36	0
81	68528	37	0
81	70424	38	0
81	72320	39	0
81	74216	40	0
81	76112	41	0
81	78008	42	0
81	79904	43	0
81	81800	44	0
81	83696	45	0
81	85657	46	0
81	87543	47	0
81	89429	48	0
81	91315	49	0
81	93201	50	0
81	95087	51	0
81	96973	52	0
81	98859	53	0
81	100745	54	0
81	102631	55	0
81	104517	56	0
81	106403	57	0
81	108289	58	0
81	110175	59	0
81	112061	60	0
81	113947	61	0
81	115833	62	0
81	117719	63	0
81	119605	64	0
81	121491	65	0
81	123377	66	0
81	125263	67	0
81	127149	68	0
81	129035	69	0
81	130921	70	0
81	132807	71	0
81	134693	72	0
81	136579	73	0
81	138465	74	0
81	140351	75	0
81	142237	76	0
81	144123	77	0
81	146009	78	0
81	147895	79	0
81	149781	80	0
81	151667	81	0
81	153553	82	0
81	155439	83	0
81	157325	84	0
81	159211	85	0
81	161097	86	0
81	162983	87	0
81	164869	88	0
81	166755	89	0
81	168641	90	0
81	170527	91	0
81	172413	92	0
81	174299	93	0
81	176185	94	0
81	178071	95	0
81	179957	96	0
81	181843	97	0
81	183729	98	0
81	185615	99	0
81	187501	100	0

