version 3
run BreakRanksNoGui-563-20240711-12:37:23-286997
attr configname BreakRanksNoGui
attr datetime 20240711-12:37:23
attr datetimef 20240711-123723
attr experiment BreakRanksNoGui
attr inifile omnetpp.ini
attr iterationvars "$nCars=9, $platoonSize=8, $nLanes=1, $ploegH=0.5, $controller=1, $headway=0.1, $leaderHeadway=1.2, $leaderSpeed=110, $breakRanksSafetyDistance=2, $minSpeed=100, $maxSpeed=120, $beaconInterval=0.1, $priority=4, $packetSize=200, $sController=\"CACC\", $0=2, $1=0"
attr iterationvarsd nCars=9/platoonSize=8/nLanes=1/ploegH=0.5/controller=1/headway=0.1/leaderHeadway=1.2/leaderSpeed=110/breakRanksSafetyDistance=2/minSpeed=100/maxSpeed=120/beaconInterval=0.1/priority=4/packetSize=200/sController=CACC/2/0
attr iterationvarsf nCars=9,platoonSize=8,nLanes=1,ploegH=0.5,controller=1,headway=0.1,leaderHeadway=1.2,leaderSpeed=110,breakRanksSafetyDistance=2,minSpeed=100,maxSpeed=120,beaconInterval=0.1,priority=4,packetSize=200,sController=CACC,2,0-
attr measurement "$nCars=9, $platoonSize=8, $nLanes=1, $ploegH=0.5, $controller=1, $headway=0.1, $leaderHeadway=1.2, $leaderSpeed=110, $breakRanksSafetyDistance=2, $minSpeed=100, $maxSpeed=120, $beaconInterval=0.1, $priority=4, $packetSize=200, $sController=\"CACC\", $0=2, $1=0"
attr network Highway
attr processid 286997
attr repetition 3
attr replication #3
attr resultdir results
attr runnumber 563
attr seedset 3
itervar beaconInterval 0.1
itervar breakRanksSafetyDistance 2
itervar controller 1
itervar headway 0.1
itervar leaderHeadway 1.2
itervar leaderSpeed 110
itervar maxSpeed 120
itervar minSpeed 100
itervar nCars 9
itervar nLanes 1
itervar packetSize 200
itervar platoonSize 8
itervar ploegH 0.5
itervar priority 4
itervar sController "\"CACC\""
config image-path ../../../veins/images
config repeat 10
config extends BreakRanks
config *.manager.command "\"sumo\""
config *.manager.ignoreGuiCommands true
config output-vector-file "results/BreakRanks_1_0.1_110_2_8 /result_3.vec"
config output-scalar-file "results/BreakRanks_1_0.1_110_2_8 /result_3.sca"
config extends Platooning
config *.node[*].scenario_type "\"BreakRanksScenario\""
config *.manager.command "\"sumo-gui\""
config *.node[*].scenario_type "\"SimpleScenario\""
config cmdenv-express-mode true
config cmdenv-autoflush true
config cmdenv-status-frequency 15s
config num-rngs 6
config network Highway
config debug-on-errors true
config print-undisposed true
config *.playgroundSizeX 65000m
config *.playgroundSizeY 25000m
config *.playgroundSizeZ 50m
config sim-time-limit "100 s"
config *.annotations.draw false
config *.obstacles.debug false
config *.world.useTorus false
config *.world.use2D false
config *.manager.updateInterval 0.01s
config *.manager.host "\"localhost\""
config *.manager.moduleType "\"org.car2x.plexe.PlatoonCar\""
config *.manager.moduleName "\"node\""
config *.manager.moduleDisplayString "\"\""
config *.manager.autoShutdown true
config *.manager.margin 25
config *.connectionManager.sendDirect true
config *.connectionManager.maxInterfDist 2600m
config *.connectionManager.drawMaxIntfDist false
config *.**.nic.mac1609_4.useServiceChannel false
config *.**.nic.mac1609_4.txPower 100mW
config *.**.nic.mac1609_4.bitrate 6Mbps
config *.**.nic.mac1609_4.useAcks true
config *.**.nic.mac1609_4.ackErrorRate 0.0
config *.**.nic.mac1609_4.frameErrorRate 0.0
config *.**.nic.phy80211p.minPowerLevel -94dBm
config *.**.nic.phy80211p.maxTXPower 100mW
config *.**.nic.phy80211p.useNoiseFloor true
config *.**.nic.phy80211p.noiseFloor -95dBm
config *.**.nic.phy80211p.decider "xmldoc(\"config.xml\")"
config *.**.nic.phy80211p.analogueModels "xmldoc(\"config.xml\")"
config *.**.nic.phy80211p.usePropagationDelay true
config *.node[*].mobility.x 0
config *.node[*].mobility.y 0
config *.node[*].mobility.z 1.895
config seed-set 3
config **.seed 3
config *.node[*].prot.rng-0 2
config *.node[*].appl.rng-0 3
config *.node[*].scenario.rng-0 4
config **.traffic.rng-0 5
config *.manager.configFile "\"./sumocfg/freeway.sumo.cfg\""
config *.manager.launchConfig "xmldoc(\"./sumocfg/freeway.launchd.xml\")"
config **.numberOfCars 9
config **.numberOfCarsPerPlatoon 8
config **.numberOfLanes 1
config *.node[*].helper_type "\"PositionHelper\""
config *.node[*].scenario.caccC1 0.5
config *.node[*].scenario.caccXi 1
config *.node[*].scenario.caccOmegaN "0.2 Hz"
config *.node[*].scenario.caccSpacing "2 m"
config *.node[*].scenario.engineTau "0.5 s"
config *.node[*].scenario.ploegH 0.5s
config *.node[*].scenario.ploegKp 0.2
config *.node[*].scenario.ploegKd 0.7
config *.node[*].scenario.useRealisticEngine false
config *.node[*].scenario.useControllerAcceleration true
config *.node[*].scenario.nLanes 1
config **.numericController 1
config **.headway 0.1s
config *.node[*].scenario.accHeadway 0.1s
config *.node[*].scenario.leaderHeadway 1.2s
config *.node[*].scenario.leaderSpeed 110kmph
config *.node[*].appl_type "\"SimplePlatooningApp\""
config *.node[*].appl.*.scalar-recording true
config *.node[*].appl.*.vector-recording true
config *.node[0].appl.breakRanksSafetyDistance 2m
config *.node[*].appl.minSpeed 100kmph
config *.node[*].appl.maxSpeed 120kmph
config *.node[*].protocol_type "\"SimplePlatooningBeaconing\""
config *.node[*].prot.*.scalar-recording true
config *.node[*].prot.*.vector-recording true
config *.node[*].prot.beaconingInterval 0.1s
config *.node[*].prot.priority 4
config *.node[*].prot.packetSize 200
config **.traffic_type "\"PlatoonsTrafficManager\""
config **.traffic.platoonInsertTime "1 s"
config **.traffic.platoonInsertSpeed 110kmph
config **.traffic.nCars 9
config **.traffic.platoonSize 8
config **.traffic.nLanes 1
config **.traffic.platooningVType "\"vtypeauto\""
config **.traffic.controller "\"CACC\""
config **.traffic.platoonInsertDistance 2m
config **.traffic.platoonInsertHeadway 0s
config **.traffic.platoonLeaderHeadway 1.2s
config **.scalar-recording false
config **.vector-recording false

vector 0 Highway.node[0].appl distance ETV
vector 1 Highway.node[0].appl relativeSpeed ETV
vector 2 Highway.node[0].appl nodeId ETV
vector 3 Highway.node[0].appl acceleration ETV
vector 4 Highway.node[0].appl controllerAcceleration ETV
vector 5 Highway.node[0].appl speed ETV
vector 6 Highway.node[0].appl posx ETV
vector 7 Highway.node[0].appl posy ETV
vector 8 Highway.node[1].appl distance ETV
vector 9 Highway.node[1].appl relativeSpeed ETV
vector 10 Highway.node[1].appl nodeId ETV
vector 11 Highway.node[1].appl acceleration ETV
vector 12 Highway.node[1].appl controllerAcceleration ETV
vector 13 Highway.node[1].appl speed ETV
vector 14 Highway.node[1].appl posx ETV
vector 15 Highway.node[1].appl posy ETV
vector 16 Highway.node[2].appl distance ETV
vector 17 Highway.node[2].appl relativeSpeed ETV
vector 18 Highway.node[2].appl nodeId ETV
vector 19 Highway.node[2].appl acceleration ETV
vector 20 Highway.node[2].appl controllerAcceleration ETV
vector 21 Highway.node[2].appl speed ETV
vector 22 Highway.node[2].appl posx ETV
vector 23 Highway.node[2].appl posy ETV
vector 24 Highway.node[3].appl distance ETV
vector 25 Highway.node[3].appl relativeSpeed ETV
vector 26 Highway.node[3].appl nodeId ETV
vector 27 Highway.node[3].appl acceleration ETV
vector 28 Highway.node[3].appl controllerAcceleration ETV
vector 29 Highway.node[3].appl speed ETV
vector 30 Highway.node[3].appl posx ETV
vector 31 Highway.node[3].appl posy ETV
vector 32 Highway.node[4].appl distance ETV
vector 33 Highway.node[4].appl relativeSpeed ETV
vector 34 Highway.node[4].appl nodeId ETV
vector 35 Highway.node[4].appl acceleration ETV
vector 36 Highway.node[4].appl controllerAcceleration ETV
vector 37 Highway.node[4].appl speed ETV
vector 38 Highway.node[4].appl posx ETV
vector 39 Highway.node[4].appl posy ETV
vector 40 Highway.node[5].appl distance ETV
vector 41 Highway.node[5].appl relativeSpeed ETV
vector 42 Highway.node[5].appl nodeId ETV
vector 43 Highway.node[5].appl acceleration ETV
vector 44 Highway.node[5].appl controllerAcceleration ETV
vector 45 Highway.node[5].appl speed ETV
vector 46 Highway.node[5].appl posx ETV
vector 47 Highway.node[5].appl posy ETV
vector 48 Highway.node[6].appl distance ETV
vector 49 Highway.node[6].appl relativeSpeed ETV
vector 50 Highway.node[6].appl nodeId ETV
vector 51 Highway.node[6].appl acceleration ETV
vector 52 Highway.node[6].appl controllerAcceleration ETV
vector 53 Highway.node[6].appl speed ETV
vector 54 Highway.node[6].appl posx ETV
vector 55 Highway.node[6].appl posy ETV
vector 56 Highway.node[7].appl distance ETV
vector 57 Highway.node[7].appl relativeSpeed ETV
vector 58 Highway.node[7].appl nodeId ETV
vector 59 Highway.node[7].appl acceleration ETV
vector 60 Highway.node[7].appl controllerAcceleration ETV
vector 61 Highway.node[7].appl speed ETV
vector 62 Highway.node[7].appl posx ETV
vector 63 Highway.node[7].appl posy ETV
vector 64 Highway.node[8].appl distance ETV
vector 65 Highway.node[8].appl relativeSpeed ETV
vector 66 Highway.node[8].appl nodeId ETV
vector 67 Highway.node[8].appl acceleration ETV
vector 68 Highway.node[8].appl controllerAcceleration ETV
vector 69 Highway.node[8].appl speed ETV
vector 70 Highway.node[8].appl posx ETV
vector 71 Highway.node[8].appl posy ETV
vector 72 Highway.node[1].prot leaderDelay ETV
vector 73 Highway.node[1].prot leaderDelayId ETV
vector 74 Highway.node[1].prot frontDelay ETV
vector 75 Highway.node[1].prot frontDelayId ETV
vector 76 Highway.node[2].prot leaderDelay ETV
vector 77 Highway.node[2].prot leaderDelayId ETV
vector 78 Highway.node[3].prot leaderDelay ETV
vector 79 Highway.node[3].prot leaderDelayId ETV
vector 80 Highway.node[4].prot leaderDelay ETV
vector 81 Highway.node[4].prot leaderDelayId ETV
vector 82 Highway.node[5].prot leaderDelay ETV
vector 83 Highway.node[5].prot leaderDelayId ETV
vector 84 Highway.node[6].prot leaderDelay ETV
vector 85 Highway.node[6].prot leaderDelayId ETV
vector 86 Highway.node[7].prot leaderDelay ETV
vector 87 Highway.node[7].prot leaderDelayId ETV
vector 88 Highway.node[7].prot frontDelay ETV
vector 89 Highway.node[7].prot frontDelayId ETV
vector 90 Highway.node[2].prot frontDelay ETV
vector 91 Highway.node[2].prot frontDelayId ETV
vector 92 Highway.node[5].prot frontDelay ETV
vector 93 Highway.node[5].prot frontDelayId ETV
vector 94 Highway.node[3].prot frontDelay ETV
vector 95 Highway.node[3].prot frontDelayId ETV
vector 96 Highway.node[6].prot frontDelay ETV
vector 97 Highway.node[6].prot frontDelayId ETV
vector 98 Highway.node[4].prot frontDelay ETV
vector 99 Highway.node[4].prot frontDelayId ETV
vector 100 Highway.node[0].prot nodeId ETV
vector 101 Highway.node[0].prot busyTime ETV
vector 102 Highway.node[0].prot collisions ETV
vector 103 Highway.node[1].prot nodeId ETV
vector 104 Highway.node[1].prot busyTime ETV
vector 105 Highway.node[1].prot collisions ETV
vector 106 Highway.node[2].prot nodeId ETV
vector 107 Highway.node[2].prot busyTime ETV
vector 108 Highway.node[2].prot collisions ETV
vector 109 Highway.node[3].prot nodeId ETV
vector 110 Highway.node[3].prot busyTime ETV
vector 111 Highway.node[3].prot collisions ETV
vector 112 Highway.node[4].prot nodeId ETV
vector 113 Highway.node[4].prot busyTime ETV
vector 114 Highway.node[4].prot collisions ETV
vector 115 Highway.node[5].prot nodeId ETV
vector 116 Highway.node[5].prot busyTime ETV
vector 117 Highway.node[5].prot collisions ETV
vector 118 Highway.node[6].prot nodeId ETV
vector 119 Highway.node[6].prot busyTime ETV
vector 120 Highway.node[6].prot collisions ETV
vector 121 Highway.node[7].prot nodeId ETV
vector 122 Highway.node[7].prot busyTime ETV
vector 123 Highway.node[7].prot collisions ETV
vector 124 Highway.node[8].prot nodeId ETV
vector 125 Highway.node[8].prot busyTime ETV
vector 126 Highway.node[8].prot collisions ETV
0	113	1.11	9311.83
0	670	1.21	9311.83
0	1227	1.31	9311.83
0	1784	1.41	9311.83
0	2341	1.51	9311.83
0	2898	1.61	9311.83
0	3455	1.71	9311.83
0	4012	1.81	9311.83
0	4569	1.91	-1
0	5135	2.01	-1
0	5692	2.11	-1
0	6249	2.21	-1
0	6806	2.31	-1
0	7363	2.41	-1
0	7920	2.51	-1
0	8477	2.61	-1
0	9034	2.71	-1
0	9591	2.81	-1
0	10148	2.91	-1
0	10714	3.01	-1
0	11271	3.11	-1
0	11828	3.21	-1
0	12385	3.31	-1
0	12942	3.41	-1
0	13499	3.51	-1
0	14056	3.61	-1
0	14613	3.71	-1
0	15170	3.81	-1
0	15727	3.91	-1
0	16293	4.01	-1
0	16850	4.11	-1
0	17407	4.21	-1
0	17964	4.31	-1
0	18521	4.41	-1
0	19078	4.51	-1
0	19635	4.61	-1
0	20192	4.71	-1
0	20749	4.81	-1
0	21306	4.91	-1
0	21872	5.01	-1
0	22429	5.11	-1
0	22986	5.21	-1
0	23543	5.31	-1
0	24100	5.41	-1
0	24657	5.51	-1
0	25214	5.61	-1
0	25771	5.71	-1
0	26328	5.81	-1
0	26885	5.91	-1
0	27451	6.01	-1
0	28008	6.11	-1
0	28565	6.21	-1
0	29122	6.31	-1
0	29679	6.41	-1
0	30236	6.51	-1
0	30793	6.61	-1
0	31350	6.71	-1
0	31907	6.81	-1
0	32464	6.91	-1
0	33030	7.01	-1
0	33587	7.11	-1
0	34144	7.21	-1
0	34701	7.31	-1
0	35258	7.41	-1
0	35815	7.51	-1
0	36372	7.61	-1
0	36929	7.71	-1
0	37486	7.81	-1
0	38043	7.91	-1
0	38609	8.01	-1
0	39166	8.11	-1
0	39723	8.21	-1
0	40280	8.31	-1
0	40837	8.41	-1
0	41394	8.51	-1
0	41951	8.61	-1
0	42508	8.71	-1
0	43065	8.81	-1
0	43622	8.91	-1
0	44188	9.01	-1
0	44745	9.11	-1
0	45302	9.21	-1
0	45859	9.31	-1
0	46416	9.41	-1
0	46973	9.51	-1
0	47530	9.61	-1
0	48087	9.71	-1
0	48644	9.81	-1
0	49201	9.91	-1
0	51568	10.01	-1
0	52125	10.11	-1
0	52682	10.21	-1
0	53239	10.31	-1
0	53796	10.41	-1
0	54353	10.51	-1
0	54910	10.61	-1
0	55467	10.71	-1
0	56024	10.81	-1
0	56581	10.91	-1
0	57147	11.01	-1
0	57704	11.11	-1
0	58261	11.21	-1
0	58818	11.31	-1
0	59375	11.41	-1
0	59932	11.51	-1
0	60489	11.61	-1
0	61046	11.71	-1
0	61603	11.81	-1
0	62160	11.91	-1
0	62726	12.01	-1
0	63283	12.11	-1
0	63840	12.21	-1
0	64397	12.31	-1
0	64954	12.41	-1
0	65511	12.51	-1
0	66068	12.61	-1
0	66625	12.71	-1
0	67182	12.81	-1
0	67739	12.91	-1
0	68305	13.01	-1
0	68862	13.11	-1
0	69419	13.21	-1
0	69976	13.31	-1
0	70533	13.41	-1
0	71090	13.51	-1
0	71647	13.61	-1
0	72204	13.71	-1
0	72761	13.81	-1
0	73318	13.91	-1
0	73884	14.01	-1
0	74441	14.11	-1
0	74998	14.21	-1
0	75555	14.31	-1
0	76112	14.41	-1
0	76669	14.51	-1
0	77226	14.61	-1
0	77783	14.71	-1
0	78340	14.81	-1
0	78897	14.91	-1
0	79463	15.01	-1
0	80020	15.11	-1
0	80577	15.21	-1
0	81134	15.31	-1
0	81691	15.41	-1
0	82248	15.51	-1
0	82805	15.61	-1
0	83362	15.71	-1
0	83919	15.81	-1
0	84476	15.91	-1
0	85042	16.01	-1
0	85599	16.11	-1
0	86156	16.21	-1
0	86713	16.31	-1
0	87270	16.41	-1
0	87827	16.51	-1
0	88384	16.61	-1
0	88941	16.71	-1
0	89498	16.81	-1
0	90055	16.91	-1
0	90621	17.01	-1
0	91178	17.11	-1
0	91735	17.21	-1
0	92292	17.31	-1
0	92849	17.41	-1
0	93406	17.51	-1
0	93963	17.61	-1
0	94520	17.71	-1
0	95077	17.81	-1
0	95634	17.91	-1
0	96200	18.01	-1
0	96757	18.11	-1
0	97314	18.21	-1
0	97871	18.31	-1
0	98428	18.41	-1
0	98985	18.51	-1
0	99542	18.61	-1
0	100099	18.71	-1
0	100656	18.81	-1
0	101213	18.91	-1
0	101779	19.01	-1
0	102336	19.11	-1
0	102893	19.21	-1
0	103450	19.31	-1
0	104007	19.41	-1
0	104564	19.51	-1
0	105121	19.61	-1
0	105678	19.71	-1
0	106235	19.81	-1
0	106792	19.91	-1
0	107358	20.01	-1
0	107915	20.11	-1
0	108472	20.21	-1
0	109029	20.31	-1
0	109586	20.41	-1
0	110143	20.51	-1
0	110700	20.61	-1
0	111257	20.71	-1
0	111814	20.81	-1
0	112371	20.91	-1
0	112937	21.01	-1
0	113494	21.11	-1
0	114051	21.21	-1
0	114608	21.31	-1
0	115165	21.41	-1
0	115722	21.51	-1
0	116279	21.61	-1
0	116836	21.71	-1
0	117393	21.81	-1
0	117950	21.91	-1
0	118516	22.01	-1
0	119073	22.11	-1
0	119630	22.21	-1
0	120187	22.31	-1
0	120744	22.41	-1
0	121301	22.51	-1
0	121858	22.61	-1
0	122415	22.71	-1
0	122972	22.81	-1
0	123529	22.91	-1
0	124095	23.01	-1
0	124652	23.11	-1
0	125209	23.21	-1
0	125766	23.31	-1
0	126323	23.41	-1
0	126880	23.51	-1
0	127437	23.61	-1
0	127994	23.71	-1
0	128551	23.81	-1
0	129108	23.91	-1
0	129674	24.01	-1
0	130231	24.11	-1
0	130788	24.21	-1
0	131345	24.31	-1
0	131902	24.41	-1
0	132459	24.51	-1
0	133016	24.61	-1
0	133573	24.71	-1
0	134130	24.81	-1
0	134687	24.91	-1
0	135253	25.01	-1
0	135810	25.11	-1
0	136367	25.21	-1
0	136924	25.31	-1
0	137481	25.41	-1
0	138038	25.51	-1
0	138595	25.61	-1
0	139152	25.71	-1
0	139709	25.81	-1
0	140266	25.91	-1
0	140832	26.01	-1
0	141389	26.11	-1
0	141946	26.21	-1
0	142503	26.31	-1
0	143060	26.41	-1
0	143617	26.51	-1
0	144174	26.61	-1
0	144731	26.71	-1
0	145288	26.81	-1
0	145845	26.91	-1
0	146411	27.01	-1
0	146968	27.11	-1
0	147525	27.21	-1
0	148082	27.31	-1
0	148639	27.41	-1
0	149196	27.51	-1
0	149753	27.61	-1
0	150310	27.71	-1
0	150867	27.81	-1
0	151424	27.91	-1
0	151990	28.01	-1
0	152547	28.11	-1
0	153104	28.21	-1
0	153661	28.31	-1
0	154218	28.41	-1
0	154775	28.51	-1
0	155332	28.61	-1
0	155889	28.71	-1
0	156446	28.81	-1
0	157003	28.91	-1
0	157569	29.01	-1
0	158126	29.11	-1
0	158683	29.21	-1
0	159240	29.31	-1
0	159797	29.41	-1
0	160354	29.51	-1
0	160911	29.61	-1
0	161468	29.71	-1
0	162025	29.81	-1
0	162582	29.91	-1
0	163148	30.01	-1
0	163705	30.11	-1
0	164262	30.21	-1
0	164819	30.31	-1
0	165376	30.41	-1
0	165933	30.51	-1
0	166490	30.61	-1
0	167047	30.71	-1
0	167604	30.81	-1
0	168161	30.91	-1
0	168727	31.01	-1
0	169284	31.11	-1
0	169841	31.21	-1
0	170398	31.31	-1
0	170955	31.41	-1
0	171512	31.51	-1
0	172069	31.61	-1
0	172626	31.71	-1
0	173183	31.81	-1
0	173740	31.91	-1
0	174306	32.01	-1
0	174863	32.11	-1
0	175420	32.21	-1
0	175977	32.31	-1
0	176534	32.41	-1
0	177091	32.51	-1
0	177648	32.61	-1
0	178205	32.71	-1
0	178762	32.81	-1
0	179319	32.91	-1
0	179885	33.01	-1
0	180442	33.11	-1
0	180999	33.21	-1
0	181556	33.31	-1
0	182113	33.41	-1
0	182670	33.51	-1
0	183227	33.61	-1
0	183784	33.71	-1
0	184341	33.81	-1
0	184898	33.91	-1
0	185464	34.01	-1
0	186021	34.11	-1
0	186578	34.21	-1
0	187135	34.31	-1
0	187692	34.41	-1
0	188249	34.51	-1
0	188806	34.61	-1
0	189363	34.71	-1
0	189920	34.81	-1
0	190477	34.91	-1
0	191043	35.01	-1
0	191600	35.11	-1
0	192157	35.21	-1
0	192714	35.31	-1
0	193271	35.41	-1
0	193828	35.51	-1
0	194385	35.61	-1
0	194942	35.71	-1
0	195499	35.81	-1
0	196056	35.91	-1
0	196622	36.01	-1
0	197179	36.11	-1
0	197736	36.21	-1
0	198293	36.31	-1
0	198850	36.41	-1
0	199407	36.51	-1
0	199964	36.61	-1
0	200521	36.71	-1
0	201078	36.81	-1
0	201635	36.91	-1
0	202201	37.01	-1
0	202758	37.11	-1
0	203315	37.21	-1
0	203872	37.31	-1
0	204429	37.41	-1
0	204986	37.51	-1
0	205543	37.61	-1
0	206100	37.71	-1
0	206657	37.81	-1
0	207214	37.91	-1
0	207780	38.01	-1
0	208337	38.11	-1
0	208894	38.21	-1
0	209451	38.31	-1
0	210008	38.41	-1
0	210565	38.51	-1
0	211122	38.61	-1
0	211679	38.71	-1
0	212236	38.81	-1
0	212793	38.91	-1
0	213359	39.01	-1
0	213916	39.11	-1
0	214473	39.21	-1
0	215030	39.31	-1
0	215587	39.41	-1
0	216144	39.51	-1
0	216701	39.61	-1
0	217258	39.71	-1
0	217815	39.81	-1
0	218372	39.91	-1
0	218938	40.01	-1
0	219495	40.11	-1
0	220052	40.21	-1
0	220609	40.31	-1
0	221166	40.41	-1
0	221723	40.51	-1
0	222280	40.61	-1
0	222837	40.71	-1
0	223394	40.81	-1
0	223951	40.91	-1
0	224517	41.01	-1
0	225074	41.11	-1
0	225631	41.21	-1
0	226188	41.31	-1
0	226745	41.41	-1
0	227302	41.51	-1
0	227859	41.61	-1
0	228416	41.71	-1
0	228973	41.81	-1
0	229530	41.91	-1
0	230096	42.01	-1
0	230653	42.11	-1
0	231210	42.21	-1
0	231767	42.31	-1
0	232324	42.41	-1
0	232881	42.51	-1
0	233438	42.61	-1
0	233995	42.71	-1
0	234552	42.81	-1
0	235109	42.91	-1
0	235675	43.01	-1
0	236232	43.11	-1
0	236789	43.21	-1
0	237346	43.31	-1
0	237903	43.41	-1
0	238460	43.51	-1
0	239017	43.61	-1
0	239574	43.71	-1
0	240131	43.81	-1
0	240688	43.91	-1
0	241254	44.01	-1
0	241811	44.11	-1
0	242368	44.21	-1
0	242925	44.31	-1
0	243482	44.41	-1
0	244039	44.51	-1
0	244596	44.61	-1
0	245153	44.71	-1
0	245710	44.81	-1
0	246267	44.91	-1
0	246833	45.01	-1
0	247390	45.11	-1
0	247947	45.21	-1
0	248504	45.31	-1
0	249061	45.41	-1
0	249618	45.51	-1
0	250175	45.61	-1
0	250732	45.71	-1
0	251289	45.81	-1
0	251846	45.91	-1
0	252412	46.01	-1
0	252969	46.11	-1
0	253526	46.21	-1
0	254083	46.31	-1
0	254640	46.41	-1
0	255197	46.51	-1
0	255754	46.61	-1
0	256311	46.71	-1
0	256868	46.81	-1
0	257425	46.91	-1
0	257991	47.01	-1
0	258548	47.11	-1
0	259105	47.21	-1
0	259662	47.31	-1
0	260219	47.41	-1
0	260776	47.51	-1
0	261333	47.61	-1
0	261890	47.71	-1
0	262447	47.81	-1
0	263004	47.91	-1
0	263570	48.01	-1
0	264127	48.11	-1
0	264684	48.21	-1
0	265241	48.31	-1
0	265798	48.41	-1
0	266355	48.51	-1
0	266912	48.61	-1
0	267469	48.71	-1
0	268026	48.81	-1
0	268583	48.91	-1
0	269149	49.01	-1
0	269706	49.11	-1
0	270263	49.21	-1
0	270820	49.31	-1
0	271377	49.41	-1
0	271934	49.51	-1
0	272491	49.61	-1
0	273048	49.71	-1
0	273605	49.81	-1
0	274162	49.91	-1
0	274728	50.01	-1
0	275285	50.11	-1
0	275842	50.21	-1
0	276399	50.31	-1
0	276956	50.41	-1
0	277513	50.51	-1
0	278070	50.61	-1
0	278627	50.71	-1
0	279184	50.81	-1
0	279741	50.91	-1
0	280307	51.01	-1
0	280864	51.11	-1
0	281421	51.21	-1
0	281978	51.31	-1
0	282535	51.41	-1
0	283092	51.51	-1
0	283649	51.61	-1
0	284206	51.71	-1
0	284763	51.81	-1
0	285320	51.91	-1
0	285886	52.01	-1
0	286443	52.11	-1
0	287000	52.21	-1
0	287557	52.31	-1
0	288114	52.41	-1
0	288671	52.51	-1
0	289228	52.61	-1
0	289785	52.71	-1
0	290342	52.81	-1
0	290899	52.91	-1
0	291465	53.01	-1
0	292022	53.11	-1
0	292579	53.21	-1
0	293136	53.31	-1
0	293693	53.41	-1
0	294250	53.51	-1
0	294807	53.61	-1
0	295364	53.71	-1
0	295921	53.81	-1
0	296478	53.91	-1
0	297044	54.01	-1
0	297601	54.11	-1
0	298158	54.21	-1
0	298715	54.31	-1
0	299272	54.41	-1
0	299829	54.51	-1
0	300386	54.61	-1
0	300943	54.71	-1
0	301500	54.81	-1
0	302057	54.91	-1
0	302623	55.01	-1
0	303180	55.11	-1
0	303737	55.21	-1
0	304294	55.31	-1
0	304851	55.41	-1
0	305408	55.51	-1
0	305965	55.61	-1
0	306522	55.71	-1
0	307079	55.81	-1
0	307636	55.91	-1
0	308202	56.01	-1
0	308759	56.11	-1
0	309316	56.21	-1
0	309873	56.31	-1
0	310430	56.41	-1
0	310987	56.51	-1
0	311544	56.61	-1
0	312101	56.71	-1
0	312658	56.81	-1
0	313215	56.91	-1
0	313781	57.01	-1
0	314338	57.11	-1
0	314895	57.21	-1
0	315452	57.31	-1
0	316009	57.41	-1
0	316566	57.51	-1
0	317123	57.61	-1
0	317680	57.71	-1
0	318237	57.81	-1
0	318794	57.91	-1
0	319360	58.01	-1
0	319917	58.11	-1
0	320474	58.21	-1
0	321031	58.31	-1
0	321588	58.41	-1
0	322145	58.51	-1
0	322702	58.61	-1
0	323259	58.71	-1
0	323816	58.81	-1
0	324373	58.91	-1
0	324939	59.01	-1
0	325496	59.11	-1
0	326053	59.21	-1
0	326610	59.31	-1
0	327167	59.41	-1
0	327724	59.51	-1
0	328281	59.61	-1
0	328838	59.71	-1
0	329395	59.81	-1
0	329952	59.91	-1
0	330518	60.01	-1
0	331075	60.11	-1
0	331632	60.21	-1
0	332189	60.31	-1
0	332746	60.41	-1
0	333303	60.51	-1
0	333860	60.61	-1
0	334417	60.71	-1
0	334974	60.81	-1
0	335531	60.91	-1
0	336097	61.01	-1
0	336654	61.11	-1
0	337211	61.21	-1
0	337768	61.31	-1
0	338325	61.41	-1
0	338882	61.51	-1
0	339439	61.61	-1
0	339996	61.71	-1
0	340553	61.81	-1
0	341110	61.91	-1
0	341676	62.01	-1
0	342233	62.11	-1
0	342790	62.21	-1
0	343347	62.31	-1
0	343904	62.41	-1
0	344461	62.51	-1
0	345018	62.61	-1
0	345575	62.71	-1
0	346132	62.81	-1
0	346689	62.91	-1
0	347255	63.01	-1
0	347812	63.11	-1
0	348369	63.21	-1
0	348926	63.31	-1
0	349483	63.41	-1
0	350040	63.51	-1
0	350597	63.61	-1
0	351154	63.71	-1
0	351711	63.81	-1
0	352268	63.91	-1
0	352834	64.01	-1
0	353391	64.11	-1
0	353948	64.21	-1
0	354505	64.31	-1
0	355062	64.41	-1
0	355619	64.51	-1
0	356176	64.61	-1
0	356733	64.71	-1
0	357290	64.81	-1
0	357847	64.91	-1
0	358413	65.01	-1
0	358970	65.11	-1
0	359527	65.21	-1
0	360084	65.31	-1
0	360641	65.41	-1
0	361198	65.51	-1
0	361755	65.61	-1
0	362312	65.71	-1
0	362869	65.81	-1
0	363426	65.91	-1
0	363992	66.01	-1
0	364549	66.11	-1
0	365106	66.21	-1
0	365663	66.31	-1
0	366220	66.41	-1
0	366777	66.51	-1
0	367334	66.61	-1
0	367891	66.71	-1
0	368448	66.81	-1
0	369005	66.91	-1
0	369571	67.01	-1
0	370128	67.11	-1
0	370685	67.21	-1
0	371242	67.31	-1
0	371799	67.41	-1
0	372356	67.51	-1
0	372913	67.61	-1
0	373470	67.71	-1
0	374027	67.81	-1
0	374584	67.91	-1
0	375150	68.01	-1
0	375707	68.11	-1
0	376264	68.21	-1
0	376821	68.31	-1
0	377378	68.41	-1
0	377935	68.51	-1
0	378492	68.61	-1
0	379049	68.71	-1
0	379606	68.81	-1
0	380163	68.91	-1
0	380729	69.01	-1
0	381286	69.11	-1
0	381843	69.21	-1
0	382400	69.31	-1
0	382957	69.41	-1
0	383514	69.51	-1
0	384071	69.61	-1
0	384628	69.71	-1
0	385185	69.81	-1
0	385742	69.91	-1
0	386308	70.01	-1
0	386865	70.11	-1
0	387422	70.21	-1
0	387979	70.31	-1
0	388536	70.41	-1
0	389093	70.51	-1
0	389650	70.61	-1
0	390207	70.71	-1
0	390764	70.81	-1
0	391321	70.91	-1
0	391887	71.01	-1
0	392444	71.11	-1
0	393001	71.21	-1
0	393558	71.31	-1
0	394115	71.41	-1
0	394672	71.51	-1
0	395229	71.61	-1
0	395786	71.71	-1
0	396343	71.81	-1
0	396900	71.91	-1
0	397466	72.01	-1
0	398023	72.11	-1
0	398580	72.21	-1
0	399137	72.31	-1
0	399694	72.41	-1
0	400251	72.51	-1
0	400808	72.61	-1
0	401365	72.71	-1
0	401922	72.81	-1
0	402479	72.91	-1
0	403045	73.01	-1
0	403602	73.11	-1
0	404159	73.21	-1
0	404716	73.31	-1
0	405273	73.41	-1
0	405830	73.51	-1
0	406387	73.61	-1
0	406944	73.71	-1
0	407501	73.81	-1
0	408058	73.91	-1
0	408624	74.01	-1
0	409181	74.11	-1
0	409738	74.21	-1
0	410295	74.31	-1
0	410852	74.41	-1
0	411409	74.51	-1
0	411966	74.61	-1
0	412523	74.71	-1
0	413080	74.81	-1
0	413637	74.91	-1
0	414203	75.01	-1
0	414760	75.11	-1
0	415317	75.21	-1
0	415874	75.31	-1
0	416431	75.41	-1
0	416988	75.51	-1
0	417545	75.61	-1
0	418102	75.71	-1
0	418659	75.81	-1
0	419216	75.91	-1
0	419782	76.01	-1
0	420339	76.11	-1
0	420896	76.21	-1
0	421453	76.31	-1
0	422010	76.41	-1
0	422567	76.51	-1
0	423124	76.61	-1
0	423681	76.71	-1
0	424238	76.81	-1
0	424795	76.91	-1
0	425361	77.01	-1
0	425918	77.11	-1
0	426475	77.21	-1
0	427032	77.31	-1
0	427589	77.41	-1
0	428146	77.51	-1
0	428703	77.61	-1
0	429260	77.71	-1
0	429817	77.81	-1
0	430374	77.91	-1
0	430940	78.01	-1
0	431497	78.11	-1
0	432054	78.21	-1
0	432611	78.31	-1
0	433168	78.41	-1
0	433725	78.51	-1
0	434282	78.61	-1
0	434839	78.71	-1
0	435396	78.81	-1
0	435953	78.91	-1
0	436519	79.01	-1
0	437076	79.11	-1
0	437633	79.21	-1
0	438190	79.31	-1
0	438747	79.41	-1
0	439304	79.51	-1
0	439861	79.61	-1
0	440418	79.71	-1
0	440975	79.81	-1
0	441532	79.91	-1
0	442098	80.01	-1
0	442655	80.11	-1
0	443212	80.21	-1
0	443769	80.31	-1
0	444326	80.41	-1
0	444883	80.51	-1
0	445440	80.61	-1
0	445997	80.71	-1
0	446554	80.81	-1
0	447111	80.91	-1
0	447677	81.01	-1
0	448234	81.11	-1
0	448791	81.21	-1
0	449348	81.31	-1
0	449905	81.41	-1
0	450462	81.51	-1
0	451019	81.61	-1
0	451576	81.71	-1
0	452133	81.81	-1
0	452690	81.91	-1
0	453256	82.01	-1
0	453813	82.11	-1
0	454370	82.21	-1
0	454927	82.31	-1
0	455484	82.41	-1
0	456041	82.51	-1
0	456598	82.61	-1
0	457155	82.71	-1
0	457712	82.81	-1
0	458269	82.91	-1
0	458835	83.01	-1
0	459392	83.11	-1
0	459949	83.21	-1
0	460506	83.31	-1
0	461063	83.41	-1
0	461620	83.51	-1
0	462177	83.61	-1
0	462734	83.71	-1
0	463291	83.81	-1
0	463848	83.91	-1
0	464414	84.01	-1
0	464971	84.11	-1
0	465528	84.21	-1
0	466085	84.31	-1
0	466642	84.41	-1
0	467199	84.51	-1
0	467756	84.61	-1
0	468313	84.71	-1
0	468870	84.81	-1
0	469427	84.91	-1
0	469993	85.01	-1
0	470550	85.11	-1
0	471107	85.21	-1
0	471664	85.31	-1
0	472221	85.41	-1
0	472778	85.51	-1
0	473335	85.61	-1
0	473892	85.71	-1
0	474449	85.81	-1
0	475006	85.91	-1
0	475572	86.01	-1
0	476129	86.11	-1
0	476686	86.21	-1
0	477243	86.31	-1
0	477800	86.41	-1
0	478357	86.51	-1
0	478914	86.61	-1
0	479471	86.71	-1
0	480028	86.81	-1
0	480585	86.91	-1
0	481151	87.01	-1
0	481708	87.11	-1
0	482265	87.21	-1
0	482822	87.31	-1
0	483379	87.41	-1
0	483936	87.51	-1
0	484493	87.61	-1
0	485050	87.71	-1
0	485607	87.81	-1
0	486164	87.91	-1
0	486730	88.01	-1
0	487287	88.11	-1
0	487844	88.21	-1
0	488401	88.31	-1
0	488958	88.41	-1
0	489515	88.51	-1
0	490072	88.61	-1
0	490629	88.71	-1
0	491186	88.81	-1
0	491743	88.91	-1
0	492309	89.01	-1
0	492866	89.11	-1
0	493423	89.21	-1
0	493980	89.31	-1
0	494537	89.41	-1
0	495094	89.51	-1
0	495651	89.61	-1
0	496208	89.71	-1
0	496765	89.81	-1
0	497322	89.91	-1
0	497888	90.01	-1
0	498445	90.11	-1
0	499002	90.21	-1
0	499559	90.31	-1
0	500116	90.41	-1
0	500673	90.51	-1
0	501230	90.61	-1
0	501787	90.71	-1
0	502344	90.81	-1
0	502901	90.91	-1
0	503467	91.01	-1
0	504024	91.11	-1
0	504581	91.21	-1
0	505138	91.31	-1
0	505695	91.41	-1
0	506252	91.51	-1
0	506809	91.61	-1
0	507366	91.71	-1
0	507923	91.81	-1
0	508480	91.91	-1
0	509046	92.01	-1
0	509603	92.11	-1
0	510160	92.21	-1
0	510717	92.31	-1
0	511274	92.41	-1
0	511831	92.51	-1
0	512388	92.61	-1
0	512945	92.71	-1
0	513502	92.81	-1
0	514059	92.91	-1
0	514625	93.01	-1
0	515182	93.11	-1
0	515739	93.21	-1
0	516296	93.31	-1
0	516853	93.41	-1
0	517410	93.51	-1
0	517967	93.61	-1
0	518524	93.71	65.1778
0	519081	93.81	65.4222
0	519638	93.91	65.6667
0	520204	94.01	65.9111
0	520761	94.11	66.1556
0	521318	94.21	66.4
0	521875	94.31	66.6444
0	522432	94.41	66.8889
0	522989	94.51	67.1333
0	523546	94.61	67.3778
0	524103	94.71	67.6222
0	524660	94.81	67.8666
0	525217	94.91	68.1111
0	525783	95.01	68.3555
0	526340	95.11	68.6
0	526897	95.21	68.8444
0	527454	95.31	69.0888
0	528011	95.41	69.3333
0	528568	95.51	69.5777
0	529125	95.61	69.8222
0	529682	95.71	70.0666
0	530239	95.81	70.311
0	530796	95.91	70.5555
0	531362	96.01	70.7999
0	531919	96.11	71.0444
0	532476	96.21	71.2888
0	533033	96.31	71.5332
0	533590	96.41	71.7777
0	534147	96.51	72.0221
0	534704	96.61	72.2666
0	535261	96.71	72.511
0	535818	96.81	72.7554
0	536375	96.91	72.9999
0	536941	97.01	73.2443
0	537498	97.11	73.4888
0	538055	97.21	73.7332
0	538612	97.31	73.9776
0	539169	97.41	74.2221
0	539726	97.51	74.4665
0	540283	97.61	74.711
0	540840	97.71	74.9554
0	541397	97.81	75.1998
0	541954	97.91	75.4443
0	542520	98.01	75.6887
0	543077	98.11	75.9332
0	543634	98.21	76.1776
0	544191	98.31	76.422
0	544748	98.41	76.6665
0	545305	98.51	76.9109
0	545862	98.61	77.1554
0	546419	98.71	77.3998
0	546976	98.81	77.6442
0	547533	98.91	77.8887
0	548099	99.01	29.075
0	548656	99.11	29.1202
0	549213	99.21	29.1666
0	549770	99.31	29.2149
0	550327	99.41	29.2653
0	550884	99.51	29.3181
0	551441	99.61	29.3735
0	551998	99.71	29.4315
0	552555	99.81	29.4922
0	553112	99.91	29.5556
1	113	1.11	0
1	670	1.21	0
1	1227	1.31	0
1	1784	1.41	0
1	2341	1.51	0
1	2898	1.61	0
1	3455	1.71	0
1	4012	1.81	0
1	4569	1.91	0
1	5135	2.01	0
1	5692	2.11	0
1	6249	2.21	0
1	6806	2.31	0
1	7363	2.41	0
1	7920	2.51	0
1	8477	2.61	0
1	9034	2.71	0
1	9591	2.81	0
1	10148	2.91	0
1	10714	3.01	0
1	11271	3.11	0
1	11828	3.21	0
1	12385	3.31	0
1	12942	3.41	0
1	13499	3.51	0
1	14056	3.61	0
1	14613	3.71	0
1	15170	3.81	0
1	15727	3.91	0
1	16293	4.01	0
1	16850	4.11	0
1	17407	4.21	0
1	17964	4.31	0
1	18521	4.41	0
1	19078	4.51	0
1	19635	4.61	0
1	20192	4.71	0
1	20749	4.81	0
1	21306	4.91	0
1	21872	5.01	0
1	22429	5.11	0
1	22986	5.21	0
1	23543	5.31	0
1	24100	5.41	0
1	24657	5.51	0
1	25214	5.61	0
1	25771	5.71	0
1	26328	5.81	0
1	26885	5.91	0
1	27451	6.01	0
1	28008	6.11	0
1	28565	6.21	0
1	29122	6.31	0
1	29679	6.41	0
1	30236	6.51	0
1	30793	6.61	0
1	31350	6.71	0
1	31907	6.81	0
1	32464	6.91	0
1	33030	7.01	0
1	33587	7.11	0
1	34144	7.21	0
1	34701	7.31	0
1	35258	7.41	0
1	35815	7.51	0
1	36372	7.61	0
1	36929	7.71	0
1	37486	7.81	0
1	38043	7.91	0
1	38609	8.01	0
1	39166	8.11	0
1	39723	8.21	0
1	40280	8.31	0
1	40837	8.41	0
1	41394	8.51	0
1	41951	8.61	0
1	42508	8.71	0
1	43065	8.81	0
1	43622	8.91	0
1	44188	9.01	0
1	44745	9.11	0
1	45302	9.21	0
1	45859	9.31	0
1	46416	9.41	0
1	46973	9.51	0
1	47530	9.61	0
1	48087	9.71	0
1	48644	9.81	0
1	49201	9.91	0
1	51568	10.01	0
1	52125	10.11	0
1	52682	10.21	0
1	53239	10.31	0
1	53796	10.41	0
1	54353	10.51	0
1	54910	10.61	0
1	55467	10.71	0
1	56024	10.81	0
1	56581	10.91	0
1	57147	11.01	0
1	57704	11.11	0
1	58261	11.21	0
1	58818	11.31	0
1	59375	11.41	0
1	59932	11.51	0
1	60489	11.61	0
1	61046	11.71	0
1	61603	11.81	0
1	62160	11.91	0
1	62726	12.01	0
1	63283	12.11	0
1	63840	12.21	0
1	64397	12.31	0
1	64954	12.41	0
1	65511	12.51	0
1	66068	12.61	0
1	66625	12.71	0
1	67182	12.81	0
1	67739	12.91	0
1	68305	13.01	0
1	68862	13.11	0
1	69419	13.21	0
1	69976	13.31	0
1	70533	13.41	0
1	71090	13.51	0
1	71647	13.61	0
1	72204	13.71	0
1	72761	13.81	0
1	73318	13.91	0
1	73884	14.01	0
1	74441	14.11	0
1	74998	14.21	0
1	75555	14.31	0
1	76112	14.41	0
1	76669	14.51	0
1	77226	14.61	0
1	77783	14.71	0
1	78340	14.81	0
1	78897	14.91	0
1	79463	15.01	0
1	80020	15.11	0
1	80577	15.21	0
1	81134	15.31	0
1	81691	15.41	0
1	82248	15.51	0
1	82805	15.61	0
1	83362	15.71	0
1	83919	15.81	0
1	84476	15.91	0
1	85042	16.01	0
1	85599	16.11	0
1	86156	16.21	0
1	86713	16.31	0
1	87270	16.41	0
1	87827	16.51	0
1	88384	16.61	0
1	88941	16.71	0
1	89498	16.81	0
1	90055	16.91	0
1	90621	17.01	0
1	91178	17.11	0
1	91735	17.21	0
1	92292	17.31	0
1	92849	17.41	0
1	93406	17.51	0
1	93963	17.61	0
1	94520	17.71	0
1	95077	17.81	0
1	95634	17.91	0
1	96200	18.01	0
1	96757	18.11	0
1	97314	18.21	0
1	97871	18.31	0
1	98428	18.41	0
1	98985	18.51	0
1	99542	18.61	0
1	100099	18.71	0
1	100656	18.81	0
1	101213	18.91	0
1	101779	19.01	0
1	102336	19.11	0
1	102893	19.21	0
1	103450	19.31	0
1	104007	19.41	0
1	104564	19.51	0
1	105121	19.61	0
1	105678	19.71	0
1	106235	19.81	0
1	106792	19.91	0
1	107358	20.01	0
1	107915	20.11	0
1	108472	20.21	0
1	109029	20.31	0
1	109586	20.41	0
1	110143	20.51	0
1	110700	20.61	0
1	111257	20.71	0
1	111814	20.81	0
1	112371	20.91	0
1	112937	21.01	0
1	113494	21.11	0
1	114051	21.21	0
1	114608	21.31	0
1	115165	21.41	0
1	115722	21.51	0
1	116279	21.61	0
1	116836	21.71	0
1	117393	21.81	0
1	117950	21.91	0
1	118516	22.01	0
1	119073	22.11	0
1	119630	22.21	0
1	120187	22.31	0
1	120744	22.41	0
1	121301	22.51	0
1	121858	22.61	0
1	122415	22.71	0
1	122972	22.81	0
1	123529	22.91	0
1	124095	23.01	0
1	124652	23.11	0
1	125209	23.21	0
1	125766	23.31	0
1	126323	23.41	0
1	126880	23.51	0
1	127437	23.61	0
1	127994	23.71	0
1	128551	23.81	0
1	129108	23.91	0
1	129674	24.01	0
1	130231	24.11	0
1	130788	24.21	0
1	131345	24.31	0
1	131902	24.41	0
1	132459	24.51	0
1	133016	24.61	0
1	133573	24.71	0
1	134130	24.81	0
1	134687	24.91	0
1	135253	25.01	0
1	135810	25.11	0
1	136367	25.21	0
1	136924	25.31	0
1	137481	25.41	0
1	138038	25.51	0
1	138595	25.61	0
1	139152	25.71	0
1	139709	25.81	0
1	140266	25.91	0
1	140832	26.01	0
1	141389	26.11	0
1	141946	26.21	0
1	142503	26.31	0
1	143060	26.41	0
1	143617	26.51	0
1	144174	26.61	0
1	144731	26.71	0
1	145288	26.81	0
1	145845	26.91	0
1	146411	27.01	0
1	146968	27.11	0
1	147525	27.21	0
1	148082	27.31	0
1	148639	27.41	0
1	149196	27.51	0
1	149753	27.61	0
1	150310	27.71	0
1	150867	27.81	0
1	151424	27.91	0
1	151990	28.01	0
1	152547	28.11	0
1	153104	28.21	0
1	153661	28.31	0
1	154218	28.41	0
1	154775	28.51	0
1	155332	28.61	0
1	155889	28.71	0
1	156446	28.81	0
1	157003	28.91	0
1	157569	29.01	0
1	158126	29.11	0
1	158683	29.21	0
1	159240	29.31	0
1	159797	29.41	0
1	160354	29.51	0
1	160911	29.61	0
1	161468	29.71	0
1	162025	29.81	0
1	162582	29.91	0
1	163148	30.01	0
1	163705	30.11	0
1	164262	30.21	0
1	164819	30.31	0
1	165376	30.41	0
1	165933	30.51	0
1	166490	30.61	0
1	167047	30.71	0
1	167604	30.81	0
1	168161	30.91	0
1	168727	31.01	0
1	169284	31.11	0
1	169841	31.21	0
1	170398	31.31	0
1	170955	31.41	0
1	171512	31.51	0
1	172069	31.61	0
1	172626	31.71	0
1	173183	31.81	0
1	173740	31.91	0
1	174306	32.01	0
1	174863	32.11	0
1	175420	32.21	0
1	175977	32.31	0
1	176534	32.41	0
1	177091	32.51	0
1	177648	32.61	0
1	178205	32.71	0
1	178762	32.81	0
1	179319	32.91	0
1	179885	33.01	0
1	180442	33.11	0
1	180999	33.21	0
1	181556	33.31	0
1	182113	33.41	0
1	182670	33.51	0
1	183227	33.61	0
1	183784	33.71	0
1	184341	33.81	0
1	184898	33.91	0
1	185464	34.01	0
1	186021	34.11	0
1	186578	34.21	0
1	187135	34.31	0
1	187692	34.41	0
1	188249	34.51	0
1	188806	34.61	0
1	189363	34.71	0
1	189920	34.81	0
1	190477	34.91	0
1	191043	35.01	0
1	191600	35.11	0
1	192157	35.21	0
1	192714	35.31	0
1	193271	35.41	0
1	193828	35.51	0
1	194385	35.61	0
1	194942	35.71	0
1	195499	35.81	0
1	196056	35.91	0
1	196622	36.01	0
1	197179	36.11	0
1	197736	36.21	0
1	198293	36.31	0
1	198850	36.41	0
1	199407	36.51	0
1	199964	36.61	0
1	200521	36.71	0
1	201078	36.81	0
1	201635	36.91	0
1	202201	37.01	0
1	202758	37.11	0
1	203315	37.21	0
1	203872	37.31	0
1	204429	37.41	0
1	204986	37.51	0
1	205543	37.61	0
1	206100	37.71	0
1	206657	37.81	0
1	207214	37.91	0
1	207780	38.01	0
1	208337	38.11	0
1	208894	38.21	0
1	209451	38.31	0
1	210008	38.41	0
1	210565	38.51	0
1	211122	38.61	0
1	211679	38.71	0
1	212236	38.81	0
1	212793	38.91	0
1	213359	39.01	0
1	213916	39.11	0
1	214473	39.21	0
1	215030	39.31	0
1	215587	39.41	0
1	216144	39.51	0
1	216701	39.61	0
1	217258	39.71	0
1	217815	39.81	0
1	218372	39.91	0
1	218938	40.01	0
1	219495	40.11	0
1	220052	40.21	0
1	220609	40.31	0
1	221166	40.41	0
1	221723	40.51	0
1	222280	40.61	0
1	222837	40.71	0
1	223394	40.81	0
1	223951	40.91	0
1	224517	41.01	0
1	225074	41.11	0
1	225631	41.21	0
1	226188	41.31	0
1	226745	41.41	0
1	227302	41.51	0
1	227859	41.61	0
1	228416	41.71	0
1	228973	41.81	0
1	229530	41.91	0
1	230096	42.01	0
1	230653	42.11	0
1	231210	42.21	0
1	231767	42.31	0
1	232324	42.41	0
1	232881	42.51	0
1	233438	42.61	0
1	233995	42.71	0
1	234552	42.81	0
1	235109	42.91	0
1	235675	43.01	0
1	236232	43.11	0
1	236789	43.21	0
1	237346	43.31	0
1	237903	43.41	0
1	238460	43.51	0
1	239017	43.61	0
1	239574	43.71	0
1	240131	43.81	0
1	240688	43.91	0
1	241254	44.01	0
1	241811	44.11	0
1	242368	44.21	0
1	242925	44.31	0
1	243482	44.41	0
1	244039	44.51	0
1	244596	44.61	0
1	245153	44.71	0
1	245710	44.81	0
1	246267	44.91	0
1	246833	45.01	0
1	247390	45.11	0
1	247947	45.21	0
1	248504	45.31	0
1	249061	45.41	0
1	249618	45.51	0
1	250175	45.61	0
1	250732	45.71	0
1	251289	45.81	0
1	251846	45.91	0
1	252412	46.01	0
1	252969	46.11	0
1	253526	46.21	0
1	254083	46.31	0
1	254640	46.41	0
1	255197	46.51	0
1	255754	46.61	0
1	256311	46.71	0
1	256868	46.81	0
1	257425	46.91	0
1	257991	47.01	0
1	258548	47.11	0
1	259105	47.21	0
1	259662	47.31	0
1	260219	47.41	0
1	260776	47.51	0
1	261333	47.61	0
1	261890	47.71	0
1	262447	47.81	0
1	263004	47.91	0
1	263570	48.01	0
1	264127	48.11	0
1	264684	48.21	0
1	265241	48.31	0
1	265798	48.41	0
1	266355	48.51	0
1	266912	48.61	0
1	267469	48.71	0
1	268026	48.81	0
1	268583	48.91	0
1	269149	49.01	0
1	269706	49.11	0
1	270263	49.21	0
1	270820	49.31	0
1	271377	49.41	0
1	271934	49.51	0
1	272491	49.61	0
1	273048	49.71	0
1	273605	49.81	0
1	274162	49.91	0
1	274728	50.01	0
1	275285	50.11	0
1	275842	50.21	0
1	276399	50.31	0
1	276956	50.41	0
1	277513	50.51	0
1	278070	50.61	0
1	278627	50.71	0
1	279184	50.81	0
1	279741	50.91	0
1	280307	51.01	0
1	280864	51.11	0
1	281421	51.21	0
1	281978	51.31	0
1	282535	51.41	0
1	283092	51.51	0
1	283649	51.61	0
1	284206	51.71	0
1	284763	51.81	0
1	285320	51.91	0
1	285886	52.01	0
1	286443	52.11	0
1	287000	52.21	0
1	287557	52.31	0
1	288114	52.41	0
1	288671	52.51	0
1	289228	52.61	0
1	289785	52.71	0
1	290342	52.81	0
1	290899	52.91	0
1	291465	53.01	0
1	292022	53.11	0
1	292579	53.21	0
1	293136	53.31	0
1	293693	53.41	0
1	294250	53.51	0
1	294807	53.61	0
1	295364	53.71	0
1	295921	53.81	0
1	296478	53.91	0
1	297044	54.01	0
1	297601	54.11	0
1	298158	54.21	0
1	298715	54.31	0
1	299272	54.41	0
1	299829	54.51	0
1	300386	54.61	0
1	300943	54.71	0
1	301500	54.81	0
1	302057	54.91	0
1	302623	55.01	0
1	303180	55.11	0
1	303737	55.21	0
1	304294	55.31	0
1	304851	55.41	0
1	305408	55.51	0
1	305965	55.61	0
1	306522	55.71	0
1	307079	55.81	0
1	307636	55.91	0
1	308202	56.01	0
1	308759	56.11	0
1	309316	56.21	0
1	309873	56.31	0
1	310430	56.41	0
1	310987	56.51	0
1	311544	56.61	0
1	312101	56.71	0
1	312658	56.81	0
1	313215	56.91	0
1	313781	57.01	0
1	314338	57.11	0
1	314895	57.21	0
1	315452	57.31	0
1	316009	57.41	0
1	316566	57.51	0
1	317123	57.61	0
1	317680	57.71	0
1	318237	57.81	0
1	318794	57.91	0
1	319360	58.01	0
1	319917	58.11	0
1	320474	58.21	0
1	321031	58.31	0
1	321588	58.41	0
1	322145	58.51	0
1	322702	58.61	0
1	323259	58.71	0
1	323816	58.81	0
1	324373	58.91	0
1	324939	59.01	0
1	325496	59.11	0
1	326053	59.21	0
1	326610	59.31	0
1	327167	59.41	0
1	327724	59.51	0
1	328281	59.61	0
1	328838	59.71	0
1	329395	59.81	0
1	329952	59.91	0
1	330518	60.01	0
1	331075	60.11	0
1	331632	60.21	0
1	332189	60.31	0
1	332746	60.41	0
1	333303	60.51	0
1	333860	60.61	0
1	334417	60.71	0
1	334974	60.81	0
1	335531	60.91	0
1	336097	61.01	0
1	336654	61.11	0
1	337211	61.21	0
1	337768	61.31	0
1	338325	61.41	0
1	338882	61.51	0
1	339439	61.61	0
1	339996	61.71	0
1	340553	61.81	0
1	341110	61.91	0
1	341676	62.01	0
1	342233	62.11	0
1	342790	62.21	0
1	343347	62.31	0
1	343904	62.41	0
1	344461	62.51	0
1	345018	62.61	0
1	345575	62.71	0
1	346132	62.81	0
1	346689	62.91	0
1	347255	63.01	0
1	347812	63.11	0
1	348369	63.21	0
1	348926	63.31	0
1	349483	63.41	0
1	350040	63.51	0
1	350597	63.61	0
1	351154	63.71	0
1	351711	63.81	0
1	352268	63.91	0
1	352834	64.01	0
1	353391	64.11	0
1	353948	64.21	0
1	354505	64.31	0
1	355062	64.41	0
1	355619	64.51	0
1	356176	64.61	0
1	356733	64.71	0
1	357290	64.81	0
1	357847	64.91	0
1	358413	65.01	0
1	358970	65.11	0
1	359527	65.21	0
1	360084	65.31	0
1	360641	65.41	0
1	361198	65.51	0
1	361755	65.61	0
1	362312	65.71	0
1	362869	65.81	0
1	363426	65.91	0
1	363992	66.01	0
1	364549	66.11	0
1	365106	66.21	0
1	365663	66.31	0
1	366220	66.41	0
1	366777	66.51	0
1	367334	66.61	0
1	367891	66.71	0
1	368448	66.81	0
1	369005	66.91	0
1	369571	67.01	0
1	370128	67.11	0
1	370685	67.21	0
1	371242	67.31	0
1	371799	67.41	0
1	372356	67.51	0
1	372913	67.61	0
1	373470	67.71	0
1	374027	67.81	0
1	374584	67.91	0
1	375150	68.01	0
1	375707	68.11	0
1	376264	68.21	0
1	376821	68.31	0
1	377378	68.41	0
1	377935	68.51	0
1	378492	68.61	0
1	379049	68.71	0
1	379606	68.81	0
1	380163	68.91	0
1	380729	69.01	0
1	381286	69.11	0
1	381843	69.21	0
1	382400	69.31	0
1	382957	69.41	0
1	383514	69.51	0
1	384071	69.61	0
1	384628	69.71	0
1	385185	69.81	0
1	385742	69.91	0
1	386308	70.01	0
1	386865	70.11	0
1	387422	70.21	0
1	387979	70.31	0
1	388536	70.41	0
1	389093	70.51	0
1	389650	70.61	0
1	390207	70.71	0
1	390764	70.81	0
1	391321	70.91	0
1	391887	71.01	0
1	392444	71.11	0
1	393001	71.21	0
1	393558	71.31	0
1	394115	71.41	0
1	394672	71.51	0
1	395229	71.61	0
1	395786	71.71	0
1	396343	71.81	0
1	396900	71.91	0
1	397466	72.01	0
1	398023	72.11	0
1	398580	72.21	0
1	399137	72.31	0
1	399694	72.41	0
1	400251	72.51	0
1	400808	72.61	0
1	401365	72.71	0
1	401922	72.81	0
1	402479	72.91	0
1	403045	73.01	0
1	403602	73.11	0
1	404159	73.21	0
1	404716	73.31	0
1	405273	73.41	0
1	405830	73.51	0
1	406387	73.61	0
1	406944	73.71	0
1	407501	73.81	0
1	408058	73.91	0
1	408624	74.01	0
1	409181	74.11	0
1	409738	74.21	0
1	410295	74.31	0
1	410852	74.41	0
1	411409	74.51	0
1	411966	74.61	0
1	412523	74.71	0
1	413080	74.81	0
1	413637	74.91	0
1	414203	75.01	0
1	414760	75.11	0
1	415317	75.21	0
1	415874	75.31	0
1	416431	75.41	0
1	416988	75.51	0
1	417545	75.61	0
1	418102	75.71	0
1	418659	75.81	0
1	419216	75.91	0
1	419782	76.01	0
1	420339	76.11	0
1	420896	76.21	0
1	421453	76.31	0
1	422010	76.41	0
1	422567	76.51	0
1	423124	76.61	0
1	423681	76.71	0
1	424238	76.81	0
1	424795	76.91	0
1	425361	77.01	0
1	425918	77.11	0
1	426475	77.21	0
1	427032	77.31	0
1	427589	77.41	0
1	428146	77.51	0
1	428703	77.61	0
1	429260	77.71	0
1	429817	77.81	0
1	430374	77.91	0
1	430940	78.01	0
1	431497	78.11	0
1	432054	78.21	0
1	432611	78.31	0
1	433168	78.41	0
1	433725	78.51	0
1	434282	78.61	0
1	434839	78.71	0
1	435396	78.81	0
1	435953	78.91	0
1	436519	79.01	0
1	437076	79.11	0
1	437633	79.21	0
1	438190	79.31	0
1	438747	79.41	0
1	439304	79.51	0
1	439861	79.61	0
1	440418	79.71	0
1	440975	79.81	0
1	441532	79.91	0
1	442098	80.01	0
1	442655	80.11	0
1	443212	80.21	0
1	443769	80.31	0
1	444326	80.41	0
1	444883	80.51	0
1	445440	80.61	0
1	445997	80.71	0
1	446554	80.81	0
1	447111	80.91	0
1	447677	81.01	0
1	448234	81.11	0
1	448791	81.21	0
1	449348	81.31	0
1	449905	81.41	0
1	450462	81.51	0
1	451019	81.61	0
1	451576	81.71	0
1	452133	81.81	0
1	452690	81.91	0
1	453256	82.01	0
1	453813	82.11	0
1	454370	82.21	0
1	454927	82.31	0
1	455484	82.41	0
1	456041	82.51	0
1	456598	82.61	0
1	457155	82.71	0
1	457712	82.81	0
1	458269	82.91	0
1	458835	83.01	0
1	459392	83.11	0
1	459949	83.21	0
1	460506	83.31	0
1	461063	83.41	0
1	461620	83.51	0
1	462177	83.61	0
1	462734	83.71	0
1	463291	83.81	0
1	463848	83.91	0
1	464414	84.01	0
1	464971	84.11	0
1	465528	84.21	0
1	466085	84.31	0
1	466642	84.41	0
1	467199	84.51	0
1	467756	84.61	0
1	468313	84.71	0
1	468870	84.81	0
1	469427	84.91	0
1	469993	85.01	0
1	470550	85.11	0
1	471107	85.21	0
1	471664	85.31	0
1	472221	85.41	0
1	472778	85.51	0
1	473335	85.61	0
1	473892	85.71	0
1	474449	85.81	0
1	475006	85.91	0
1	475572	86.01	0
1	476129	86.11	0
1	476686	86.21	0
1	477243	86.31	0
1	477800	86.41	0
1	478357	86.51	0
1	478914	86.61	0
1	479471	86.71	0
1	480028	86.81	0
1	480585	86.91	0
1	481151	87.01	0
1	481708	87.11	0
1	482265	87.21	0
1	482822	87.31	0
1	483379	87.41	0
1	483936	87.51	0
1	484493	87.61	0
1	485050	87.71	0
1	485607	87.81	0
1	486164	87.91	0
1	486730	88.01	0
1	487287	88.11	0
1	487844	88.21	0
1	488401	88.31	0
1	488958	88.41	0
1	489515	88.51	0
1	490072	88.61	0
1	490629	88.71	0
1	491186	88.81	0
1	491743	88.91	0
1	492309	89.01	0
1	492866	89.11	0
1	493423	89.21	0
1	493980	89.31	0
1	494537	89.41	0
1	495094	89.51	0
1	495651	89.61	0
1	496208	89.71	0
1	496765	89.81	0
1	497322	89.91	0
1	497888	90.01	0
1	498445	90.11	0
1	499002	90.21	0
1	499559	90.31	0
1	500116	90.41	0
1	500673	90.51	0
1	501230	90.61	0
1	501787	90.71	0
1	502344	90.81	0
1	502901	90.91	0
1	503467	91.01	0
1	504024	91.11	0
1	504581	91.21	0
1	505138	91.31	0
1	505695	91.41	0
1	506252	91.51	0
1	506809	91.61	0
1	507366	91.71	0
1	507923	91.81	0
1	508480	91.91	0
1	509046	92.01	0
1	509603	92.11	0
1	510160	92.21	0
1	510717	92.31	0
1	511274	92.41	0
1	511831	92.51	0
1	512388	92.61	0
1	512945	92.71	0
1	513502	92.81	0
1	514059	92.91	0
1	514625	93.01	0
1	515182	93.11	0
1	515739	93.21	0
1	516296	93.31	0
1	516853	93.41	0
1	517410	93.51	0
1	517967	93.61	0
1	518524	93.71	2.4444
1	519081	93.81	2.4444
1	519638	93.91	2.4444
1	520204	94.01	2.4444
1	520761	94.11	2.4444
1	521318	94.21	2.4444
1	521875	94.31	2.4444
1	522432	94.41	2.4444
1	522989	94.51	2.4444
1	523546	94.61	2.4444
1	524103	94.71	2.4444
1	524660	94.81	2.4444
1	525217	94.91	2.4444
1	525783	95.01	2.4444
1	526340	95.11	2.4444
1	526897	95.21	2.4444
1	527454	95.31	2.4444
1	528011	95.41	2.4444
1	528568	95.51	2.4444
1	529125	95.61	2.4444
1	529682	95.71	2.4444
1	530239	95.81	2.4444
1	530796	95.91	2.4444
1	531362	96.01	2.4444
1	531919	96.11	2.4444
1	532476	96.21	2.4444
1	533033	96.31	2.4444
1	533590	96.41	2.4444
1	534147	96.51	2.4444
1	534704	96.61	2.4444
1	535261	96.71	2.4444
1	535818	96.81	2.4444
1	536375	96.91	2.4444
1	536941	97.01	2.4444
1	537498	97.11	2.4444
1	538055	97.21	2.4444
1	538612	97.31	2.4444
1	539169	97.41	2.4444
1	539726	97.51	2.4444
1	540283	97.61	2.4444
1	540840	97.71	2.4444
1	541397	97.81	2.4444
1	541954	97.91	2.4444
1	542520	98.01	2.4444
1	543077	98.11	2.4444
1	543634	98.21	2.4444
1	544191	98.31	2.4444
1	544748	98.41	2.4444
1	545305	98.51	2.4444
1	545862	98.61	2.4444
1	546419	98.71	2.4444
1	546976	98.81	2.4444
1	547533	98.91	2.4444
1	548099	99.01	0.447305
1	548656	99.11	0.457261
1	549213	99.21	0.47284
1	549770	99.31	0.492701
1	550327	99.41	0.515669
1	550884	99.51	0.540727
1	551441	99.61	0.567
1	551998	99.71	0.593747
1	552555	99.81	0.62035
1	553112	99.91	0.646296
2	113	1.11	0
2	670	1.21	0
2	1227	1.31	0
2	1784	1.41	0
2	2341	1.51	0
2	2898	1.61	0
2	3455	1.71	0
2	4012	1.81	0
2	4569	1.91	0
2	5135	2.01	0
2	5692	2.11	0
2	6249	2.21	0
2	6806	2.31	0
2	7363	2.41	0
2	7920	2.51	0
2	8477	2.61	0
2	9034	2.71	0
2	9591	2.81	0
2	10148	2.91	0
2	10714	3.01	0
2	11271	3.11	0
2	11828	3.21	0
2	12385	3.31	0
2	12942	3.41	0
2	13499	3.51	0
2	14056	3.61	0
2	14613	3.71	0
2	15170	3.81	0
2	15727	3.91	0
2	16293	4.01	0
2	16850	4.11	0
2	17407	4.21	0
2	17964	4.31	0
2	18521	4.41	0
2	19078	4.51	0
2	19635	4.61	0
2	20192	4.71	0
2	20749	4.81	0
2	21306	4.91	0
2	21872	5.01	0
2	22429	5.11	0
2	22986	5.21	0
2	23543	5.31	0
2	24100	5.41	0
2	24657	5.51	0
2	25214	5.61	0
2	25771	5.71	0
2	26328	5.81	0
2	26885	5.91	0
2	27451	6.01	0
2	28008	6.11	0
2	28565	6.21	0
2	29122	6.31	0
2	29679	6.41	0
2	30236	6.51	0
2	30793	6.61	0
2	31350	6.71	0
2	31907	6.81	0
2	32464	6.91	0
2	33030	7.01	0
2	33587	7.11	0
2	34144	7.21	0
2	34701	7.31	0
2	35258	7.41	0
2	35815	7.51	0
2	36372	7.61	0
2	36929	7.71	0
2	37486	7.81	0
2	38043	7.91	0
2	38609	8.01	0
2	39166	8.11	0
2	39723	8.21	0
2	40280	8.31	0
2	40837	8.41	0
2	41394	8.51	0
2	41951	8.61	0
2	42508	8.71	0
2	43065	8.81	0
2	43622	8.91	0
2	44188	9.01	0
2	44745	9.11	0
2	45302	9.21	0
2	45859	9.31	0
2	46416	9.41	0
2	46973	9.51	0
2	47530	9.61	0
2	48087	9.71	0
2	48644	9.81	0
2	49201	9.91	0
2	51568	10.01	0
2	52125	10.11	0
2	52682	10.21	0
2	53239	10.31	0
2	53796	10.41	0
2	54353	10.51	0
2	54910	10.61	0
2	55467	10.71	0
2	56024	10.81	0
2	56581	10.91	0
2	57147	11.01	0
2	57704	11.11	0
2	58261	11.21	0
2	58818	11.31	0
2	59375	11.41	0
2	59932	11.51	0
2	60489	11.61	0
2	61046	11.71	0
2	61603	11.81	0
2	62160	11.91	0
2	62726	12.01	0
2	63283	12.11	0
2	63840	12.21	0
2	64397	12.31	0
2	64954	12.41	0
2	65511	12.51	0
2	66068	12.61	0
2	66625	12.71	0
2	67182	12.81	0
2	67739	12.91	0
2	68305	13.01	0
2	68862	13.11	0
2	69419	13.21	0
2	69976	13.31	0
2	70533	13.41	0
2	71090	13.51	0
2	71647	13.61	0
2	72204	13.71	0
2	72761	13.81	0
2	73318	13.91	0
2	73884	14.01	0
2	74441	14.11	0
2	74998	14.21	0
2	75555	14.31	0
2	76112	14.41	0
2	76669	14.51	0
2	77226	14.61	0
2	77783	14.71	0
2	78340	14.81	0
2	78897	14.91	0
2	79463	15.01	0
2	80020	15.11	0
2	80577	15.21	0
2	81134	15.31	0
2	81691	15.41	0
2	82248	15.51	0
2	82805	15.61	0
2	83362	15.71	0
2	83919	15.81	0
2	84476	15.91	0
2	85042	16.01	0
2	85599	16.11	0
2	86156	16.21	0
2	86713	16.31	0
2	87270	16.41	0
2	87827	16.51	0
2	88384	16.61	0
2	88941	16.71	0
2	89498	16.81	0
2	90055	16.91	0
2	90621	17.01	0
2	91178	17.11	0
2	91735	17.21	0
2	92292	17.31	0
2	92849	17.41	0
2	93406	17.51	0
2	93963	17.61	0
2	94520	17.71	0
2	95077	17.81	0
2	95634	17.91	0
2	96200	18.01	0
2	96757	18.11	0
2	97314	18.21	0
2	97871	18.31	0
2	98428	18.41	0
2	98985	18.51	0
2	99542	18.61	0
2	100099	18.71	0
2	100656	18.81	0
2	101213	18.91	0
2	101779	19.01	0
2	102336	19.11	0
2	102893	19.21	0
2	103450	19.31	0
2	104007	19.41	0
2	104564	19.51	0
2	105121	19.61	0
2	105678	19.71	0
2	106235	19.81	0
2	106792	19.91	0
2	107358	20.01	0
2	107915	20.11	0
2	108472	20.21	0
2	109029	20.31	0
2	109586	20.41	0
2	110143	20.51	0
2	110700	20.61	0
2	111257	20.71	0
2	111814	20.81	0
2	112371	20.91	0
2	112937	21.01	0
2	113494	21.11	0
2	114051	21.21	0
2	114608	21.31	0
2	115165	21.41	0
2	115722	21.51	0
2	116279	21.61	0
2	116836	21.71	0
2	117393	21.81	0
2	117950	21.91	0
2	118516	22.01	0
2	119073	22.11	0
2	119630	22.21	0
2	120187	22.31	0
2	120744	22.41	0
2	121301	22.51	0
2	121858	22.61	0
2	122415	22.71	0
2	122972	22.81	0
2	123529	22.91	0
2	124095	23.01	0
2	124652	23.11	0
2	125209	23.21	0
2	125766	23.31	0
2	126323	23.41	0
2	126880	23.51	0
2	127437	23.61	0
2	127994	23.71	0
2	128551	23.81	0
2	129108	23.91	0
2	129674	24.01	0
2	130231	24.11	0
2	130788	24.21	0
2	131345	24.31	0
2	131902	24.41	0
2	132459	24.51	0
2	133016	24.61	0
2	133573	24.71	0
2	134130	24.81	0
2	134687	24.91	0
2	135253	25.01	0
2	135810	25.11	0
2	136367	25.21	0
2	136924	25.31	0
2	137481	25.41	0
2	138038	25.51	0
2	138595	25.61	0
2	139152	25.71	0
2	139709	25.81	0
2	140266	25.91	0
2	140832	26.01	0
2	141389	26.11	0
2	141946	26.21	0
2	142503	26.31	0
2	143060	26.41	0
2	143617	26.51	0
2	144174	26.61	0
2	144731	26.71	0
2	145288	26.81	0
2	145845	26.91	0
2	146411	27.01	0
2	146968	27.11	0
2	147525	27.21	0
2	148082	27.31	0
2	148639	27.41	0
2	149196	27.51	0
2	149753	27.61	0
2	150310	27.71	0
2	150867	27.81	0
2	151424	27.91	0
2	151990	28.01	0
2	152547	28.11	0
2	153104	28.21	0
2	153661	28.31	0
2	154218	28.41	0
2	154775	28.51	0
2	155332	28.61	0
2	155889	28.71	0
2	156446	28.81	0
2	157003	28.91	0
2	157569	29.01	0
2	158126	29.11	0
2	158683	29.21	0
2	159240	29.31	0
2	159797	29.41	0
2	160354	29.51	0
2	160911	29.61	0
2	161468	29.71	0
2	162025	29.81	0
2	162582	29.91	0
2	163148	30.01	0
2	163705	30.11	0
2	164262	30.21	0
2	164819	30.31	0
2	165376	30.41	0
2	165933	30.51	0
2	166490	30.61	0
2	167047	30.71	0
2	167604	30.81	0
2	168161	30.91	0
2	168727	31.01	0
2	169284	31.11	0
2	169841	31.21	0
2	170398	31.31	0
2	170955	31.41	0
2	171512	31.51	0
2	172069	31.61	0
2	172626	31.71	0
2	173183	31.81	0
2	173740	31.91	0
2	174306	32.01	0
2	174863	32.11	0
2	175420	32.21	0
2	175977	32.31	0
2	176534	32.41	0
2	177091	32.51	0
2	177648	32.61	0
2	178205	32.71	0
2	178762	32.81	0
2	179319	32.91	0
2	179885	33.01	0
2	180442	33.11	0
2	180999	33.21	0
2	181556	33.31	0
2	182113	33.41	0
2	182670	33.51	0
2	183227	33.61	0
2	183784	33.71	0
2	184341	33.81	0
2	184898	33.91	0
2	185464	34.01	0
2	186021	34.11	0
2	186578	34.21	0
2	187135	34.31	0
2	187692	34.41	0
2	188249	34.51	0
2	188806	34.61	0
2	189363	34.71	0
2	189920	34.81	0
2	190477	34.91	0
2	191043	35.01	0
2	191600	35.11	0
2	192157	35.21	0
2	192714	35.31	0
2	193271	35.41	0
2	193828	35.51	0
2	194385	35.61	0
2	194942	35.71	0
2	195499	35.81	0
2	196056	35.91	0
2	196622	36.01	0
2	197179	36.11	0
2	197736	36.21	0
2	198293	36.31	0
2	198850	36.41	0
2	199407	36.51	0
2	199964	36.61	0
2	200521	36.71	0
2	201078	36.81	0
2	201635	36.91	0
2	202201	37.01	0
2	202758	37.11	0
2	203315	37.21	0
2	203872	37.31	0
2	204429	37.41	0
2	204986	37.51	0
2	205543	37.61	0
2	206100	37.71	0
2	206657	37.81	0
2	207214	37.91	0
2	207780	38.01	0
2	208337	38.11	0
2	208894	38.21	0
2	209451	38.31	0
2	210008	38.41	0
2	210565	38.51	0
2	211122	38.61	0
2	211679	38.71	0
2	212236	38.81	0
2	212793	38.91	0
2	213359	39.01	0
2	213916	39.11	0
2	214473	39.21	0
2	215030	39.31	0
2	215587	39.41	0
2	216144	39.51	0
2	216701	39.61	0
2	217258	39.71	0
2	217815	39.81	0
2	218372	39.91	0
2	218938	40.01	0
2	219495	40.11	0
2	220052	40.21	0
2	220609	40.31	0
2	221166	40.41	0
2	221723	40.51	0
2	222280	40.61	0
2	222837	40.71	0
2	223394	40.81	0
2	223951	40.91	0
2	224517	41.01	0
2	225074	41.11	0
2	225631	41.21	0
2	226188	41.31	0
2	226745	41.41	0
2	227302	41.51	0
2	227859	41.61	0
2	228416	41.71	0
2	228973	41.81	0
2	229530	41.91	0
2	230096	42.01	0
2	230653	42.11	0
2	231210	42.21	0
2	231767	42.31	0
2	232324	42.41	0
2	232881	42.51	0
2	233438	42.61	0
2	233995	42.71	0
2	234552	42.81	0
2	235109	42.91	0
2	235675	43.01	0
2	236232	43.11	0
2	236789	43.21	0
2	237346	43.31	0
2	237903	43.41	0
2	238460	43.51	0
2	239017	43.61	0
2	239574	43.71	0
2	240131	43.81	0
2	240688	43.91	0
2	241254	44.01	0
2	241811	44.11	0
2	242368	44.21	0
2	242925	44.31	0
2	243482	44.41	0
2	244039	44.51	0
2	244596	44.61	0
2	245153	44.71	0
2	245710	44.81	0
2	246267	44.91	0
2	246833	45.01	0
2	247390	45.11	0
2	247947	45.21	0
2	248504	45.31	0
2	249061	45.41	0
2	249618	45.51	0
2	250175	45.61	0
2	250732	45.71	0
2	251289	45.81	0
2	251846	45.91	0
2	252412	46.01	0
2	252969	46.11	0
2	253526	46.21	0
2	254083	46.31	0
2	254640	46.41	0
2	255197	46.51	0
2	255754	46.61	0
2	256311	46.71	0
2	256868	46.81	0
2	257425	46.91	0
2	257991	47.01	0
2	258548	47.11	0
2	259105	47.21	0
2	259662	47.31	0
2	260219	47.41	0
2	260776	47.51	0
2	261333	47.61	0
2	261890	47.71	0
2	262447	47.81	0
2	263004	47.91	0
2	263570	48.01	0
2	264127	48.11	0
2	264684	48.21	0
2	265241	48.31	0
2	265798	48.41	0
2	266355	48.51	0
2	266912	48.61	0
2	267469	48.71	0
2	268026	48.81	0
2	268583	48.91	0
2	269149	49.01	0
2	269706	49.11	0
2	270263	49.21	0
2	270820	49.31	0
2	271377	49.41	0
2	271934	49.51	0
2	272491	49.61	0
2	273048	49.71	0
2	273605	49.81	0
2	274162	49.91	0
2	274728	50.01	0
2	275285	50.11	0
2	275842	50.21	0
2	276399	50.31	0
2	276956	50.41	0
2	277513	50.51	0
2	278070	50.61	0
2	278627	50.71	0
2	279184	50.81	0
2	279741	50.91	0
2	280307	51.01	0
2	280864	51.11	0
2	281421	51.21	0
2	281978	51.31	0
2	282535	51.41	0
2	283092	51.51	0
2	283649	51.61	0
2	284206	51.71	0
2	284763	51.81	0
2	285320	51.91	0
2	285886	52.01	0
2	286443	52.11	0
2	287000	52.21	0
2	287557	52.31	0
2	288114	52.41	0
2	288671	52.51	0
2	289228	52.61	0
2	289785	52.71	0
2	290342	52.81	0
2	290899	52.91	0
2	291465	53.01	0
2	292022	53.11	0
2	292579	53.21	0
2	293136	53.31	0
2	293693	53.41	0
2	294250	53.51	0
2	294807	53.61	0
2	295364	53.71	0
2	295921	53.81	0
2	296478	53.91	0
2	297044	54.01	0
2	297601	54.11	0
2	298158	54.21	0
2	298715	54.31	0
2	299272	54.41	0
2	299829	54.51	0
2	300386	54.61	0
2	300943	54.71	0
2	301500	54.81	0
2	302057	54.91	0
2	302623	55.01	0
2	303180	55.11	0
2	303737	55.21	0
2	304294	55.31	0
2	304851	55.41	0
2	305408	55.51	0
2	305965	55.61	0
2	306522	55.71	0
2	307079	55.81	0
2	307636	55.91	0
2	308202	56.01	0
2	308759	56.11	0
2	309316	56.21	0
2	309873	56.31	0
2	310430	56.41	0
2	310987	56.51	0
2	311544	56.61	0
2	312101	56.71	0
2	312658	56.81	0
2	313215	56.91	0
2	313781	57.01	0
2	314338	57.11	0
2	314895	57.21	0
2	315452	57.31	0
2	316009	57.41	0
2	316566	57.51	0
2	317123	57.61	0
2	317680	57.71	0
2	318237	57.81	0
2	318794	57.91	0
2	319360	58.01	0
2	319917	58.11	0
2	320474	58.21	0
2	321031	58.31	0
2	321588	58.41	0
2	322145	58.51	0
2	322702	58.61	0
2	323259	58.71	0
2	323816	58.81	0
2	324373	58.91	0
2	324939	59.01	0
2	325496	59.11	0
2	326053	59.21	0
2	326610	59.31	0
2	327167	59.41	0
2	327724	59.51	0
2	328281	59.61	0
2	328838	59.71	0
2	329395	59.81	0
2	329952	59.91	0
2	330518	60.01	0
2	331075	60.11	0
2	331632	60.21	0
2	332189	60.31	0
2	332746	60.41	0
2	333303	60.51	0
2	333860	60.61	0
2	334417	60.71	0
2	334974	60.81	0
2	335531	60.91	0
2	336097	61.01	0
2	336654	61.11	0
2	337211	61.21	0
2	337768	61.31	0
2	338325	61.41	0
2	338882	61.51	0
2	339439	61.61	0
2	339996	61.71	0
2	340553	61.81	0
2	341110	61.91	0
2	341676	62.01	0
2	342233	62.11	0
2	342790	62.21	0
2	343347	62.31	0
2	343904	62.41	0
2	344461	62.51	0
2	345018	62.61	0
2	345575	62.71	0
2	346132	62.81	0
2	346689	62.91	0
2	347255	63.01	0
2	347812	63.11	0
2	348369	63.21	0
2	348926	63.31	0
2	349483	63.41	0
2	350040	63.51	0
2	350597	63.61	0
2	351154	63.71	0
2	351711	63.81	0
2	352268	63.91	0
2	352834	64.01	0
2	353391	64.11	0
2	353948	64.21	0
2	354505	64.31	0
2	355062	64.41	0
2	355619	64.51	0
2	356176	64.61	0
2	356733	64.71	0
2	357290	64.81	0
2	357847	64.91	0
2	358413	65.01	0
2	358970	65.11	0
2	359527	65.21	0
2	360084	65.31	0
2	360641	65.41	0
2	361198	65.51	0
2	361755	65.61	0
2	362312	65.71	0
2	362869	65.81	0
2	363426	65.91	0
2	363992	66.01	0
2	364549	66.11	0
2	365106	66.21	0
2	365663	66.31	0
2	366220	66.41	0
2	366777	66.51	0
2	367334	66.61	0
2	367891	66.71	0
2	368448	66.81	0
2	369005	66.91	0
2	369571	67.01	0
2	370128	67.11	0
2	370685	67.21	0
2	371242	67.31	0
2	371799	67.41	0
2	372356	67.51	0
2	372913	67.61	0
2	373470	67.71	0
2	374027	67.81	0
2	374584	67.91	0
2	375150	68.01	0
2	375707	68.11	0
2	376264	68.21	0
2	376821	68.31	0
2	377378	68.41	0
2	377935	68.51	0
2	378492	68.61	0
2	379049	68.71	0
2	379606	68.81	0
2	380163	68.91	0
2	380729	69.01	0
2	381286	69.11	0
2	381843	69.21	0
2	382400	69.31	0
2	382957	69.41	0
2	383514	69.51	0
2	384071	69.61	0
2	384628	69.71	0
2	385185	69.81	0
2	385742	69.91	0
2	386308	70.01	0
2	386865	70.11	0
2	387422	70.21	0
2	387979	70.31	0
2	388536	70.41	0
2	389093	70.51	0
2	389650	70.61	0
2	390207	70.71	0
2	390764	70.81	0
2	391321	70.91	0
2	391887	71.01	0
2	392444	71.11	0
2	393001	71.21	0
2	393558	71.31	0
2	394115	71.41	0
2	394672	71.51	0
2	395229	71.61	0
2	395786	71.71	0
2	396343	71.81	0
2	396900	71.91	0
2	397466	72.01	0
2	398023	72.11	0
2	398580	72.21	0
2	399137	72.31	0
2	399694	72.41	0
2	400251	72.51	0
2	400808	72.61	0
2	401365	72.71	0
2	401922	72.81	0
2	402479	72.91	0
2	403045	73.01	0
2	403602	73.11	0
2	404159	73.21	0
2	404716	73.31	0
2	405273	73.41	0
2	405830	73.51	0
2	406387	73.61	0
2	406944	73.71	0
2	407501	73.81	0
2	408058	73.91	0
2	408624	74.01	0
2	409181	74.11	0
2	409738	74.21	0
2	410295	74.31	0
2	410852	74.41	0
2	411409	74.51	0
2	411966	74.61	0
2	412523	74.71	0
2	413080	74.81	0
2	413637	74.91	0
2	414203	75.01	0
2	414760	75.11	0
2	415317	75.21	0
2	415874	75.31	0
2	416431	75.41	0
2	416988	75.51	0
2	417545	75.61	0
2	418102	75.71	0
2	418659	75.81	0
2	419216	75.91	0
2	419782	76.01	0
2	420339	76.11	0
2	420896	76.21	0
2	421453	76.31	0
2	422010	76.41	0
2	422567	76.51	0
2	423124	76.61	0
2	423681	76.71	0
2	424238	76.81	0
2	424795	76.91	0
2	425361	77.01	0
2	425918	77.11	0
2	426475	77.21	0
2	427032	77.31	0
2	427589	77.41	0
2	428146	77.51	0
2	428703	77.61	0
2	429260	77.71	0
2	429817	77.81	0
2	430374	77.91	0
2	430940	78.01	0
2	431497	78.11	0
2	432054	78.21	0
2	432611	78.31	0
2	433168	78.41	0
2	433725	78.51	0
2	434282	78.61	0
2	434839	78.71	0
2	435396	78.81	0
2	435953	78.91	0
2	436519	79.01	0
2	437076	79.11	0
2	437633	79.21	0
2	438190	79.31	0
2	438747	79.41	0
2	439304	79.51	0
2	439861	79.61	0
2	440418	79.71	0
2	440975	79.81	0
2	441532	79.91	0
2	442098	80.01	0
2	442655	80.11	0
2	443212	80.21	0
2	443769	80.31	0
2	444326	80.41	0
2	444883	80.51	0
2	445440	80.61	0
2	445997	80.71	0
2	446554	80.81	0
2	447111	80.91	0
2	447677	81.01	0
2	448234	81.11	0
2	448791	81.21	0
2	449348	81.31	0
2	449905	81.41	0
2	450462	81.51	0
2	451019	81.61	0
2	451576	81.71	0
2	452133	81.81	0
2	452690	81.91	0
2	453256	82.01	0
2	453813	82.11	0
2	454370	82.21	0
2	454927	82.31	0
2	455484	82.41	0
2	456041	82.51	0
2	456598	82.61	0
2	457155	82.71	0
2	457712	82.81	0
2	458269	82.91	0
2	458835	83.01	0
2	459392	83.11	0
2	459949	83.21	0
2	460506	83.31	0
2	461063	83.41	0
2	461620	83.51	0
2	462177	83.61	0
2	462734	83.71	0
2	463291	83.81	0
2	463848	83.91	0
2	464414	84.01	0
2	464971	84.11	0
2	465528	84.21	0
2	466085	84.31	0
2	466642	84.41	0
2	467199	84.51	0
2	467756	84.61	0
2	468313	84.71	0
2	468870	84.81	0
2	469427	84.91	0
2	469993	85.01	0
2	470550	85.11	0
2	471107	85.21	0
2	471664	85.31	0
2	472221	85.41	0
2	472778	85.51	0
2	473335	85.61	0
2	473892	85.71	0
2	474449	85.81	0
2	475006	85.91	0
2	475572	86.01	0
2	476129	86.11	0
2	476686	86.21	0
2	477243	86.31	0
2	477800	86.41	0
2	478357	86.51	0
2	478914	86.61	0
2	479471	86.71	0
2	480028	86.81	0
2	480585	86.91	0
2	481151	87.01	0
2	481708	87.11	0
2	482265	87.21	0
2	482822	87.31	0
2	483379	87.41	0
2	483936	87.51	0
2	484493	87.61	0
2	485050	87.71	0
2	485607	87.81	0
2	486164	87.91	0
2	486730	88.01	0
2	487287	88.11	0
2	487844	88.21	0
2	488401	88.31	0
2	488958	88.41	0
2	489515	88.51	0
2	490072	88.61	0
2	490629	88.71	0
2	491186	88.81	0
2	491743	88.91	0
2	492309	89.01	0
2	492866	89.11	0
2	493423	89.21	0
2	493980	89.31	0
2	494537	89.41	0
2	495094	89.51	0
2	495651	89.61	0
2	496208	89.71	0
2	496765	89.81	0
2	497322	89.91	0
2	497888	90.01	0
2	498445	90.11	0
2	499002	90.21	0
2	499559	90.31	0
2	500116	90.41	0
2	500673	90.51	0
2	501230	90.61	0
2	501787	90.71	0
2	502344	90.81	0
2	502901	90.91	0
2	503467	91.01	0
2	504024	91.11	0
2	504581	91.21	0
2	505138	91.31	0
2	505695	91.41	0
2	506252	91.51	0
2	506809	91.61	0
2	507366	91.71	0
2	507923	91.81	0
2	508480	91.91	0
2	509046	92.01	0
2	509603	92.11	0
2	510160	92.21	0
2	510717	92.31	0
2	511274	92.41	0
2	511831	92.51	0
2	512388	92.61	0
2	512945	92.71	0
2	513502	92.81	0
2	514059	92.91	0
2	514625	93.01	0
2	515182	93.11	0
2	515739	93.21	0
2	516296	93.31	0
2	516853	93.41	0
2	517410	93.51	0
2	517967	93.61	0
2	518524	93.71	0
2	519081	93.81	0
2	519638	93.91	0
2	520204	94.01	0
2	520761	94.11	0
2	521318	94.21	0
2	521875	94.31	0
2	522432	94.41	0
2	522989	94.51	0
2	523546	94.61	0
2	524103	94.71	0
2	524660	94.81	0
2	525217	94.91	0
2	525783	95.01	0
2	526340	95.11	0
2	526897	95.21	0
2	527454	95.31	0
2	528011	95.41	0
2	528568	95.51	0
2	529125	95.61	0
2	529682	95.71	0
2	530239	95.81	0
2	530796	95.91	0
2	531362	96.01	0
2	531919	96.11	0
2	532476	96.21	0
2	533033	96.31	0
2	533590	96.41	0
2	534147	96.51	0
2	534704	96.61	0
2	535261	96.71	0
2	535818	96.81	0
2	536375	96.91	0
2	536941	97.01	0
2	537498	97.11	0
2	538055	97.21	0
2	538612	97.31	0
2	539169	97.41	0
2	539726	97.51	0
2	540283	97.61	0
2	540840	97.71	0
2	541397	97.81	0
2	541954	97.91	0
2	542520	98.01	0
2	543077	98.11	0
2	543634	98.21	0
2	544191	98.31	0
2	544748	98.41	0
2	545305	98.51	0
2	545862	98.61	0
2	546419	98.71	0
2	546976	98.81	0
2	547533	98.91	0
2	548099	99.01	0
2	548656	99.11	0
2	549213	99.21	0
2	549770	99.31	0
2	550327	99.41	0
2	550884	99.51	0
2	551441	99.61	0
2	551998	99.71	0
2	552555	99.81	0
2	553112	99.91	0
3	113	1.11	-0.000716383
3	670	1.21	-0.00136341
3	1227	1.31	-0.00186974
3	1784	1.41	-0.00225157
3	2341	1.51	-0.00252443
3	2898	1.61	-0.00270298
3	3455	1.71	-0.00280098
3	4012	1.81	-0.00283113
3	4569	1.91	-0.00280509
3	5135	2.01	-0.00273342
3	5692	2.11	-0.00262559
3	6249	2.21	-0.00249005
3	6806	2.31	-0.00233419
3	7363	2.41	-0.00216447
3	7920	2.51	-0.00198642
3	8477	2.61	-0.00180472
3	9034	2.71	-0.0016233
3	9591	2.81	-0.00144536
3	10148	2.91	-0.00127346
3	10714	3.01	-0.0011096
3	11271	3.11	-0.000955278
3	11828	3.21	-0.000811546
3	12385	3.31	-0.00067908
3	12942	3.41	-0.000558232
3	13499	3.51	-0.000449082
3	14056	3.61	-0.000351487
3	14613	3.71	-0.00026512
3	15170	3.81	-0.000189514
3	15727	3.91	-0.000124092
3	16293	4.01	-6.81972e-05
3	16850	4.11	-2.11209e-05
3	17407	4.21	1.78769e-05
3	17964	4.31	4.9548e-05
3	18521	4.41	7.46407e-05
3	19078	4.51	9.38867e-05
3	19635	4.61	0.000107991
3	20192	4.71	0.000117625
3	20749	4.81	0.000123418
3	21306	4.91	0.000125957
3	21872	5.01	0.000125781
3	22429	5.11	0.00012338
3	22986	5.21	0.000119198
3	23543	5.31	0.000113629
3	24100	5.41	0.000107022
3	24657	5.51	9.96832e-05
3	25214	5.61	9.18747e-05
3	25771	5.71	8.38211e-05
3	26328	5.81	7.57109e-05
3	26885	5.91	6.76999e-05
3	27451	6.01	5.99137e-05
3	28008	6.11	5.24518e-05
3	28565	6.21	4.53896e-05
3	29122	6.31	3.87821e-05
3	29679	6.41	3.2666e-05
3	30236	6.51	2.70628e-05
3	30793	6.61	2.19809e-05
3	31350	6.71	1.74176e-05
3	31907	6.81	1.33618e-05
3	32464	6.91	9.79494e-06
3	33030	7.01	6.6932e-06
3	33587	7.11	4.02864e-06
3	34144	7.21	1.77051e-06
3	34701	7.31	-1.13691e-07
3	35258	7.41	-1.65736e-06
3	35815	7.51	-2.89397e-06
3	36372	7.61	-3.85652e-06
3	36929	7.71	-4.57698e-06
3	37486	7.81	-5.08591e-06
3	38043	7.91	-5.41219e-06
3	38609	8.01	-5.58279e-06
3	39166	8.11	-5.6226e-06
3	39723	8.21	-5.55442e-06
3	40280	8.31	-5.39886e-06
3	40837	8.41	-5.17441e-06
3	41394	8.51	-4.89748e-06
3	41951	8.61	-4.58246e-06
3	42508	8.71	-4.24184e-06
3	43065	8.81	-3.88634e-06
3	43622	8.91	-3.52499e-06
3	44188	9.01	-3.16534e-06
3	44745	9.11	-2.81353e-06
3	45302	9.21	-2.47446e-06
3	45859	9.31	-2.15192e-06
3	46416	9.41	-1.84873e-06
3	46973	9.51	-1.56685e-06
3	47530	9.61	-1.30751e-06
3	48087	9.71	-1.0713e-06
3	48644	9.81	-8.58321e-07
3	49201	9.91	-6.68206e-07
3	51568	10.01	-5.0026e-07
3	52125	10.11	-3.53514e-07
3	52682	10.21	-2.2679e-07
3	53239	10.31	-1.18765e-07
3	53796	10.41	-2.80163e-08
3	54353	10.51	4.6931e-08
3	54910	10.61	1.07573e-07
3	55467	10.71	1.55391e-07
3	56024	10.81	1.91831e-07
3	56581	10.91	2.18284e-07
3	57147	11.01	2.3607e-07
3	57704	11.11	2.46427e-07
3	58261	11.21	2.50502e-07
3	58818	11.31	2.49353e-07
3	59375	11.41	2.43938e-07
3	59932	11.51	2.3512e-07
3	60489	11.61	2.23669e-07
3	61046	11.71	2.10264e-07
3	61603	11.81	1.95496e-07
3	62160	11.91	1.79874e-07
3	62726	12.01	1.63833e-07
3	63283	12.11	1.47736e-07
3	63840	12.21	1.3188e-07
3	64397	12.31	1.16508e-07
3	64954	12.41	1.01807e-07
3	65511	12.51	8.79222e-08
3	66068	12.61	7.49541e-08
3	66625	12.71	6.29711e-08
3	67182	12.81	5.20114e-08
3	67739	12.91	4.20883e-08
3	68305	13.01	3.3193e-08
3	68862	13.11	2.53003e-08
3	69419	13.21	1.83718e-08
3	69976	13.31	1.23581e-08
3	70533	13.41	7.20348e-09
3	71090	13.51	2.84537e-09
3	71647	13.61	-7.80886e-10
3	72204	13.71	-3.74136e-09
3	72761	13.81	-6.10285e-09
3	73318	13.91	-7.93072e-09
3	73884	14.01	-9.28821e-09
3	74441	14.11	-1.0235e-08
3	74998	14.21	-1.08283e-08
3	75555	14.31	-1.11211e-08
3	76112	14.41	-1.11612e-08
3	76669	14.51	-1.09946e-08
3	77226	14.61	-1.06599e-08
3	77783	14.71	-1.01945e-08
3	78340	14.81	-9.62999e-09
3	78897	14.91	-8.99405e-09
3	79463	15.01	-8.31086e-09
3	80020	15.11	-7.60103e-09
3	80577	15.21	-6.88338e-09
3	81134	15.31	-6.17071e-09
3	81691	15.41	-5.47544e-09
3	82248	15.51	-4.80682e-09
3	82805	15.61	-4.17266e-09
3	83362	15.71	-3.57687e-09
3	83919	15.81	-3.02443e-09
3	84476	15.91	-2.51674e-09
3	85042	16.01	-2.05489e-09
3	85599	16.11	-1.63958e-09
3	86156	16.21	-1.26903e-09
3	86713	16.31	-9.42535e-10
3	87270	16.41	-6.57963e-10
3	87827	16.51	-4.1247e-10
3	88384	16.61	-2.04636e-10
3	88941	16.71	-2.91323e-11
3	89498	16.81	1.14753e-10
3	90055	16.91	2.30926e-10
3	90621	17.01	3.22231e-10
3	91178	17.11	3.91154e-10
3	91735	17.21	4.40892e-10
3	92292	17.31	4.73577e-10
3	92849	17.41	4.92051e-10
3	93406	17.51	4.98446e-10
3	93963	17.61	4.94893e-10
3	94520	17.71	4.82814e-10
3	95077	17.81	4.6434e-10
3	95634	17.91	4.40892e-10
3	96200	18.01	4.13536e-10
3	96757	18.11	3.83693e-10
3	97314	18.21	3.51719e-10
3	97871	18.31	3.19744e-10
3	98428	18.41	2.8777e-10
3	98985	18.51	2.55795e-10
3	99542	18.61	2.25953e-10
3	100099	18.71	1.97531e-10
3	100656	18.81	1.6982e-10
3	101213	18.91	1.44951e-10
3	101779	19.01	1.21503e-10
3	102336	19.11	1.00187e-10
3	102893	19.21	8.10019e-11
3	103450	19.31	6.32383e-11
3	104007	19.41	4.86722e-11
3	104564	19.51	3.44613e-11
3	105121	19.61	2.34479e-11
3	105678	19.71	1.27898e-11
3	106235	19.81	4.9738e-12
3	106792	19.91	-2.13163e-12
3	107358	20.01	-8.17124e-12
3	107915	20.11	-1.1724e-11
3	108472	20.21	-1.52767e-11
3	109029	20.31	-1.88294e-11
3	109586	20.41	-2.02505e-11
3	110143	20.51	-2.02505e-11
3	110700	20.61	-2.02505e-11
3	111257	20.71	-2.02505e-11
3	111814	20.81	-2.02505e-11
3	112371	20.91	-2.02505e-11
3	112937	21.01	-2.02505e-11
3	113494	21.11	-2.02505e-11
3	114051	21.21	-2.02505e-11
3	114608	21.31	-1.88294e-11
3	115165	21.41	-1.7053e-11
3	115722	21.51	-1.52767e-11
3	116279	21.61	-1.38556e-11
3	116836	21.71	-1.24345e-11
3	117393	21.81	-1.13687e-11
3	117950	21.91	-1.03029e-11
3	118516	22.01	-9.23706e-12
3	119073	22.11	-8.52651e-12
3	119630	22.21	-7.4607e-12
3	120187	22.31	-6.75016e-12
3	120744	22.41	-6.03961e-12
3	121301	22.51	-5.68434e-12
3	121858	22.61	-4.9738e-12
3	122415	22.71	-4.61853e-12
3	122972	22.81	-4.26326e-12
3	123529	22.91	-3.90799e-12
3	124095	23.01	-3.55271e-12
3	124652	23.11	-3.19744e-12
3	125209	23.21	-2.84217e-12
3	125766	23.31	-2.4869e-12
3	126323	23.41	-2.13163e-12
3	126880	23.51	-2.13163e-12
3	127437	23.61	-1.77636e-12
3	127994	23.71	-1.77636e-12
3	128551	23.81	-1.42109e-12
3	129108	23.91	-1.42109e-12
3	129674	24.01	-1.06581e-12
3	130231	24.11	-1.06581e-12
3	130788	24.21	-1.06581e-12
3	131345	24.31	-1.06581e-12
3	131902	24.41	-7.10543e-13
3	132459	24.51	-7.10543e-13
3	133016	24.61	-7.10543e-13
3	133573	24.71	-7.10543e-13
3	134130	24.81	-7.10543e-13
3	134687	24.91	-3.55271e-13
3	135253	25.01	-3.55271e-13
3	135810	25.11	-3.55271e-13
3	136367	25.21	-3.55271e-13
3	136924	25.31	-3.55271e-13
3	137481	25.41	-3.55271e-13
3	138038	25.51	-3.55271e-13
3	138595	25.61	-3.55271e-13
3	139152	25.71	-3.55271e-13
3	139709	25.81	-3.55271e-13
3	140266	25.91	0
3	140832	26.01	0
3	141389	26.11	0
3	141946	26.21	0
3	142503	26.31	0
3	143060	26.41	0
3	143617	26.51	0
3	144174	26.61	0
3	144731	26.71	0
3	145288	26.81	0
3	145845	26.91	0
3	146411	27.01	0
3	146968	27.11	0
3	147525	27.21	0
3	148082	27.31	0
3	148639	27.41	0
3	149196	27.51	0
3	149753	27.61	0
3	150310	27.71	0
3	150867	27.81	0
3	151424	27.91	0
3	151990	28.01	0
3	152547	28.11	0
3	153104	28.21	0
3	153661	28.31	0
3	154218	28.41	0
3	154775	28.51	0
3	155332	28.61	0
3	155889	28.71	0
3	156446	28.81	0
3	157003	28.91	0
3	157569	29.01	0
3	158126	29.11	0
3	158683	29.21	0
3	159240	29.31	0
3	159797	29.41	0
3	160354	29.51	0
3	160911	29.61	0
3	161468	29.71	0
3	162025	29.81	0
3	162582	29.91	0
3	163148	30.01	0
3	163705	30.11	0
3	164262	30.21	0
3	164819	30.31	0
3	165376	30.41	0
3	165933	30.51	0
3	166490	30.61	0
3	167047	30.71	0
3	167604	30.81	0
3	168161	30.91	0
3	168727	31.01	0
3	169284	31.11	0
3	169841	31.21	0
3	170398	31.31	0
3	170955	31.41	0
3	171512	31.51	0
3	172069	31.61	0
3	172626	31.71	0
3	173183	31.81	0
3	173740	31.91	0
3	174306	32.01	0
3	174863	32.11	0
3	175420	32.21	0
3	175977	32.31	0
3	176534	32.41	0
3	177091	32.51	0
3	177648	32.61	0
3	178205	32.71	0
3	178762	32.81	0
3	179319	32.91	0
3	179885	33.01	0
3	180442	33.11	0
3	180999	33.21	0
3	181556	33.31	0
3	182113	33.41	0
3	182670	33.51	0
3	183227	33.61	0
3	183784	33.71	0
3	184341	33.81	0
3	184898	33.91	0
3	185464	34.01	0
3	186021	34.11	0
3	186578	34.21	0
3	187135	34.31	0
3	187692	34.41	0
3	188249	34.51	0
3	188806	34.61	0
3	189363	34.71	0
3	189920	34.81	0
3	190477	34.91	0
3	191043	35.01	0
3	191600	35.11	0
3	192157	35.21	0
3	192714	35.31	0
3	193271	35.41	0
3	193828	35.51	0
3	194385	35.61	0
3	194942	35.71	0
3	195499	35.81	0
3	196056	35.91	0
3	196622	36.01	0
3	197179	36.11	0
3	197736	36.21	0
3	198293	36.31	0
3	198850	36.41	0
3	199407	36.51	0
3	199964	36.61	0
3	200521	36.71	0
3	201078	36.81	0
3	201635	36.91	0
3	202201	37.01	0
3	202758	37.11	0
3	203315	37.21	0
3	203872	37.31	0
3	204429	37.41	0
3	204986	37.51	0
3	205543	37.61	0
3	206100	37.71	0
3	206657	37.81	0
3	207214	37.91	0
3	207780	38.01	0
3	208337	38.11	0
3	208894	38.21	0
3	209451	38.31	0
3	210008	38.41	0
3	210565	38.51	0
3	211122	38.61	0
3	211679	38.71	0
3	212236	38.81	0
3	212793	38.91	0
3	213359	39.01	0
3	213916	39.11	0
3	214473	39.21	0
3	215030	39.31	0
3	215587	39.41	0
3	216144	39.51	0
3	216701	39.61	0
3	217258	39.71	0
3	217815	39.81	0
3	218372	39.91	0
3	218938	40.01	0
3	219495	40.11	0
3	220052	40.21	0
3	220609	40.31	0
3	221166	40.41	0
3	221723	40.51	0
3	222280	40.61	0
3	222837	40.71	0
3	223394	40.81	0
3	223951	40.91	0
3	224517	41.01	0
3	225074	41.11	0
3	225631	41.21	0
3	226188	41.31	0
3	226745	41.41	0
3	227302	41.51	0
3	227859	41.61	0
3	228416	41.71	0
3	228973	41.81	0
3	229530	41.91	0
3	230096	42.01	0
3	230653	42.11	0
3	231210	42.21	0
3	231767	42.31	0
3	232324	42.41	0
3	232881	42.51	0
3	233438	42.61	0
3	233995	42.71	0
3	234552	42.81	0
3	235109	42.91	0
3	235675	43.01	0
3	236232	43.11	0
3	236789	43.21	0
3	237346	43.31	0
3	237903	43.41	0
3	238460	43.51	0
3	239017	43.61	0
3	239574	43.71	0
3	240131	43.81	0
3	240688	43.91	0
3	241254	44.01	0
3	241811	44.11	0
3	242368	44.21	0
3	242925	44.31	0
3	243482	44.41	0
3	244039	44.51	0
3	244596	44.61	0
3	245153	44.71	0
3	245710	44.81	0
3	246267	44.91	0
3	246833	45.01	0
3	247390	45.11	0
3	247947	45.21	0
3	248504	45.31	0
3	249061	45.41	0
3	249618	45.51	0
3	250175	45.61	0
3	250732	45.71	0
3	251289	45.81	0
3	251846	45.91	0
3	252412	46.01	0
3	252969	46.11	0
3	253526	46.21	0
3	254083	46.31	0
3	254640	46.41	0
3	255197	46.51	0
3	255754	46.61	0
3	256311	46.71	0
3	256868	46.81	0
3	257425	46.91	0
3	257991	47.01	0
3	258548	47.11	0
3	259105	47.21	0
3	259662	47.31	0
3	260219	47.41	0
3	260776	47.51	0
3	261333	47.61	0
3	261890	47.71	0
3	262447	47.81	0
3	263004	47.91	0
3	263570	48.01	0
3	264127	48.11	0
3	264684	48.21	0
3	265241	48.31	0
3	265798	48.41	0
3	266355	48.51	0
3	266912	48.61	0
3	267469	48.71	0
3	268026	48.81	0
3	268583	48.91	0
3	269149	49.01	0
3	269706	49.11	0
3	270263	49.21	0
3	270820	49.31	0
3	271377	49.41	0
3	271934	49.51	0
3	272491	49.61	0
3	273048	49.71	0
3	273605	49.81	0
3	274162	49.91	0
3	274728	50.01	0
3	275285	50.11	0
3	275842	50.21	0
3	276399	50.31	0
3	276956	50.41	0
3	277513	50.51	0
3	278070	50.61	0
3	278627	50.71	0
3	279184	50.81	0
3	279741	50.91	0
3	280307	51.01	0
3	280864	51.11	0
3	281421	51.21	0
3	281978	51.31	0
3	282535	51.41	0
3	283092	51.51	0
3	283649	51.61	0
3	284206	51.71	0
3	284763	51.81	0
3	285320	51.91	0
3	285886	52.01	0
3	286443	52.11	0
3	287000	52.21	0
3	287557	52.31	0
3	288114	52.41	0
3	288671	52.51	0
3	289228	52.61	0
3	289785	52.71	0
3	290342	52.81	0
3	290899	52.91	0
3	291465	53.01	0
3	292022	53.11	0
3	292579	53.21	0
3	293136	53.31	0
3	293693	53.41	0
3	294250	53.51	0
3	294807	53.61	0
3	295364	53.71	0
3	295921	53.81	0
3	296478	53.91	0
3	297044	54.01	0
3	297601	54.11	0
3	298158	54.21	0
3	298715	54.31	0
3	299272	54.41	0
3	299829	54.51	0
3	300386	54.61	0
3	300943	54.71	0
3	301500	54.81	0
3	302057	54.91	0
3	302623	55.01	0
3	303180	55.11	0
3	303737	55.21	0
3	304294	55.31	0
3	304851	55.41	0
3	305408	55.51	0
3	305965	55.61	0
3	306522	55.71	0
3	307079	55.81	0
3	307636	55.91	0
3	308202	56.01	0
3	308759	56.11	0
3	309316	56.21	0
3	309873	56.31	0
3	310430	56.41	0
3	310987	56.51	0
3	311544	56.61	0
3	312101	56.71	0
3	312658	56.81	0
3	313215	56.91	0
3	313781	57.01	0
3	314338	57.11	0
3	314895	57.21	0
3	315452	57.31	0
3	316009	57.41	0
3	316566	57.51	0
3	317123	57.61	0
3	317680	57.71	0
3	318237	57.81	0
3	318794	57.91	0
3	319360	58.01	0
3	319917	58.11	0
3	320474	58.21	0
3	321031	58.31	0
3	321588	58.41	0
3	322145	58.51	0
3	322702	58.61	0
3	323259	58.71	0
3	323816	58.81	0
3	324373	58.91	0
3	324939	59.01	0
3	325496	59.11	0
3	326053	59.21	0
3	326610	59.31	0
3	327167	59.41	0
3	327724	59.51	0
3	328281	59.61	0
3	328838	59.71	0
3	329395	59.81	0
3	329952	59.91	0
3	330518	60.01	0
3	331075	60.11	0
3	331632	60.21	0
3	332189	60.31	0
3	332746	60.41	0
3	333303	60.51	0
3	333860	60.61	0
3	334417	60.71	0
3	334974	60.81	0
3	335531	60.91	0
3	336097	61.01	0
3	336654	61.11	0
3	337211	61.21	0
3	337768	61.31	0
3	338325	61.41	0
3	338882	61.51	0
3	339439	61.61	0
3	339996	61.71	0
3	340553	61.81	0
3	341110	61.91	0
3	341676	62.01	0
3	342233	62.11	0
3	342790	62.21	0
3	343347	62.31	0
3	343904	62.41	0
3	344461	62.51	0
3	345018	62.61	0
3	345575	62.71	0
3	346132	62.81	0
3	346689	62.91	0
3	347255	63.01	0
3	347812	63.11	0
3	348369	63.21	0
3	348926	63.31	0
3	349483	63.41	0
3	350040	63.51	0
3	350597	63.61	0
3	351154	63.71	0
3	351711	63.81	0
3	352268	63.91	0
3	352834	64.01	0
3	353391	64.11	0
3	353948	64.21	0
3	354505	64.31	0
3	355062	64.41	0
3	355619	64.51	0
3	356176	64.61	0
3	356733	64.71	0
3	357290	64.81	0
3	357847	64.91	0
3	358413	65.01	0
3	358970	65.11	0
3	359527	65.21	0
3	360084	65.31	0
3	360641	65.41	0
3	361198	65.51	0
3	361755	65.61	0
3	362312	65.71	0
3	362869	65.81	0
3	363426	65.91	0
3	363992	66.01	0
3	364549	66.11	0
3	365106	66.21	0
3	365663	66.31	0
3	366220	66.41	0
3	366777	66.51	0
3	367334	66.61	0
3	367891	66.71	0
3	368448	66.81	0
3	369005	66.91	0
3	369571	67.01	0
3	370128	67.11	0
3	370685	67.21	0
3	371242	67.31	0
3	371799	67.41	0
3	372356	67.51	0
3	372913	67.61	0
3	373470	67.71	0
3	374027	67.81	0
3	374584	67.91	0
3	375150	68.01	0
3	375707	68.11	0
3	376264	68.21	0
3	376821	68.31	0
3	377378	68.41	0
3	377935	68.51	0
3	378492	68.61	0
3	379049	68.71	0
3	379606	68.81	0
3	380163	68.91	0
3	380729	69.01	0
3	381286	69.11	0
3	381843	69.21	0
3	382400	69.31	0
3	382957	69.41	0
3	383514	69.51	0
3	384071	69.61	0
3	384628	69.71	0
3	385185	69.81	0
3	385742	69.91	0
3	386308	70.01	0
3	386865	70.11	0
3	387422	70.21	0
3	387979	70.31	0
3	388536	70.41	0
3	389093	70.51	0
3	389650	70.61	0
3	390207	70.71	0
3	390764	70.81	0
3	391321	70.91	0
3	391887	71.01	0
3	392444	71.11	0
3	393001	71.21	0
3	393558	71.31	0
3	394115	71.41	0
3	394672	71.51	0
3	395229	71.61	0
3	395786	71.71	0
3	396343	71.81	0
3	396900	71.91	0
3	397466	72.01	0
3	398023	72.11	0
3	398580	72.21	0
3	399137	72.31	0
3	399694	72.41	0
3	400251	72.51	0
3	400808	72.61	0
3	401365	72.71	0
3	401922	72.81	0
3	402479	72.91	0
3	403045	73.01	0
3	403602	73.11	0
3	404159	73.21	0
3	404716	73.31	0
3	405273	73.41	0
3	405830	73.51	0
3	406387	73.61	0
3	406944	73.71	0
3	407501	73.81	0
3	408058	73.91	0
3	408624	74.01	0
3	409181	74.11	0
3	409738	74.21	0
3	410295	74.31	0
3	410852	74.41	0
3	411409	74.51	0
3	411966	74.61	0
3	412523	74.71	0
3	413080	74.81	0
3	413637	74.91	0
3	414203	75.01	0
3	414760	75.11	0
3	415317	75.21	0
3	415874	75.31	0
3	416431	75.41	0
3	416988	75.51	0
3	417545	75.61	0
3	418102	75.71	0
3	418659	75.81	0
3	419216	75.91	0
3	419782	76.01	0
3	420339	76.11	0
3	420896	76.21	0
3	421453	76.31	0
3	422010	76.41	0
3	422567	76.51	0
3	423124	76.61	0
3	423681	76.71	0
3	424238	76.81	0
3	424795	76.91	0
3	425361	77.01	0
3	425918	77.11	0
3	426475	77.21	0
3	427032	77.31	0
3	427589	77.41	0
3	428146	77.51	0
3	428703	77.61	0
3	429260	77.71	0
3	429817	77.81	0
3	430374	77.91	0
3	430940	78.01	0
3	431497	78.11	0
3	432054	78.21	0
3	432611	78.31	0
3	433168	78.41	0
3	433725	78.51	0
3	434282	78.61	0
3	434839	78.71	0
3	435396	78.81	0
3	435953	78.91	0
3	436519	79.01	0
3	437076	79.11	0
3	437633	79.21	0
3	438190	79.31	0
3	438747	79.41	0
3	439304	79.51	0
3	439861	79.61	0
3	440418	79.71	0
3	440975	79.81	0
3	441532	79.91	0
3	442098	80.01	0
3	442655	80.11	0
3	443212	80.21	0
3	443769	80.31	0
3	444326	80.41	0
3	444883	80.51	0
3	445440	80.61	0
3	445997	80.71	0
3	446554	80.81	0
3	447111	80.91	0
3	447677	81.01	0
3	448234	81.11	0
3	448791	81.21	0
3	449348	81.31	0
3	449905	81.41	0
3	450462	81.51	0
3	451019	81.61	0
3	451576	81.71	0
3	452133	81.81	0
3	452690	81.91	0
3	453256	82.01	0
3	453813	82.11	0
3	454370	82.21	0
3	454927	82.31	0
3	455484	82.41	0
3	456041	82.51	0
3	456598	82.61	0
3	457155	82.71	0
3	457712	82.81	0
3	458269	82.91	0
3	458835	83.01	0
3	459392	83.11	0
3	459949	83.21	0
3	460506	83.31	0
3	461063	83.41	0
3	461620	83.51	0
3	462177	83.61	0
3	462734	83.71	0
3	463291	83.81	0
3	463848	83.91	0
3	464414	84.01	0
3	464971	84.11	0
3	465528	84.21	0
3	466085	84.31	0
3	466642	84.41	0
3	467199	84.51	0
3	467756	84.61	0
3	468313	84.71	0
3	468870	84.81	0
3	469427	84.91	0
3	469993	85.01	0
3	470550	85.11	0
3	471107	85.21	0
3	471664	85.31	0
3	472221	85.41	0
3	472778	85.51	0
3	473335	85.61	0
3	473892	85.71	0
3	474449	85.81	0
3	475006	85.91	0
3	475572	86.01	0
3	476129	86.11	0
3	476686	86.21	0
3	477243	86.31	0
3	477800	86.41	0
3	478357	86.51	0
3	478914	86.61	0
3	479471	86.71	0
3	480028	86.81	0
3	480585	86.91	0
3	481151	87.01	0
3	481708	87.11	0
3	482265	87.21	0
3	482822	87.31	0
3	483379	87.41	0
3	483936	87.51	0
3	484493	87.61	0
3	485050	87.71	0
[...]
116	319177	58	0.024972464796
116	324756	59	0.024972031128
116	330335	60	0.024958596653
116	335914	61	0.024971161452
116	341493	62	0.024970725563
116	347072	63	0.024970289
116	352651	64	0.024969851743
116	358230	65	0.024969413724
116	363809	66	0.024968974829
116	369388	67	0.024981534879
116	374967	68	0.024968093586
116	380546	69	0.024967650503
116	386125	70	0.024967204906
116	391704	71	0.024966826071
116	397283	72	0.024979382762
116	402862	73	0.024965934151
116	408441	74	0.024965473218
116	414020	75	0.024977985496
116	419599	76	0.024964461714
116	425178	77	0.024976913423
116	430757	78	0.024963354216
116	436336	79	0.024975790283
116	441915	80	0.024962224024
116	447494	81	0.02497465648
116	453073	82	0.024974088152
116	458652	83	0.024960519316
116	464231	84	0.024972950125
116	469810	85	0.024972380676
116	475389	86	0.024971811032
116	480968	87	0.024971241241
116	486547	88	0.024970671335
116	492126	89	0.024970107696
116	497705	90	0.024969541446
116	503284	91	0.024968970831
116	508863	92	0.024968400212
116	514442	93	0.024967829588
116	520021	94	0.024967257584
116	525600	95	0.024966685046
116	531179	96	0.024979114587
116	536758	97	0.024965544105
116	542337	98	0.024964973604
116	547916	99	0.024977401981
116	553495	100	0.024963823438
117	4952	2	0
117	10531	3	0
117	16110	4	0
117	21689	5	0
117	27268	6	0
117	32847	7	0
117	38426	8	0
117	44005	9	0
117	49586	10	0
117	56964	11	0
117	62543	12	0
117	68122	13	0
117	73701	14	0
117	79280	15	0
117	84859	16	0
117	90438	17	0
117	96017	18	0
117	101596	19	0
117	107175	20	0
117	112754	21	0
117	118333	22	0
117	123912	23	0
117	129491	24	0
117	135070	25	0
117	140649	26	0
117	146228	27	0
117	151807	28	0
117	157386	29	0
117	162965	30	0
117	168544	31	0
117	174123	32	0
117	179702	33	0
117	185281	34	0
117	190860	35	0
117	196439	36	0
117	202018	37	0
117	207597	38	0
117	213176	39	0
117	218755	40	0
117	224334	41	0
117	229913	42	0
117	235492	43	0
117	241071	44	0
117	246650	45	0
117	252229	46	0
117	257808	47	0
117	263387	48	0
117	268966	49	0
117	274545	50	0
117	280124	51	0
117	285703	52	0
117	291282	53	0
117	296861	54	0
117	302440	55	0
117	308019	56	0
117	313598	57	0
117	319177	58	0
117	324756	59	0
117	330335	60	0
117	335914	61	0
117	341493	62	0
117	347072	63	0
117	352651	64	0
117	358230	65	0
117	363809	66	0
117	369388	67	0
117	374967	68	0
117	380546	69	0
117	386125	70	0
117	391704	71	0
117	397283	72	0
117	402862	73	0
117	408441	74	0
117	414020	75	0
117	419599	76	0
117	425178	77	0
117	430757	78	0
117	436336	79	0
117	441915	80	0
117	447494	81	0
117	453073	82	0
117	458652	83	0
117	464231	84	0
117	469810	85	0
117	475389	86	0
117	480968	87	0
117	486547	88	0
117	492126	89	0
117	497705	90	0
117	503284	91	0
117	508863	92	0
117	514442	93	0
117	520021	94	0
117	525600	95	0
117	531179	96	0
117	536758	97	0
117	542337	98	0
117	547916	99	0
117	553495	100	0
118	4953	2	6
118	10532	3	6
118	16111	4	6
118	21690	5	6
118	27269	6	6
118	32848	7	6
118	38427	8	6
118	44006	9	6
118	49587	10	6
118	56965	11	6
118	62544	12	6
118	68123	13	6
118	73702	14	6
118	79281	15	6
118	84860	16	6
118	90439	17	6
118	96018	18	6
118	101597	19	6
118	107176	20	6
118	112755	21	6
118	118334	22	6
118	123913	23	6
118	129492	24	6
118	135071	25	6
118	140650	26	6
118	146229	27	6
118	151808	28	6
118	157387	29	6
118	162966	30	6
118	168545	31	6
118	174124	32	6
118	179703	33	6
118	185282	34	6
118	190861	35	6
118	196440	36	6
118	202019	37	6
118	207598	38	6
118	213177	39	6
118	218756	40	6
118	224335	41	6
118	229914	42	6
118	235493	43	6
118	241072	44	6
118	246651	45	6
118	252230	46	6
118	257809	47	6
118	263388	48	6
118	268967	49	6
118	274546	50	6
118	280125	51	6
118	285704	52	6
118	291283	53	6
118	296862	54	6
118	302441	55	6
118	308020	56	6
118	313599	57	6
118	319178	58	6
118	324757	59	6
118	330336	60	6
118	335915	61	6
118	341494	62	6
118	347073	63	6
118	352652	64	6
118	358231	65	6
118	363810	66	6
118	369389	67	6
118	374968	68	6
118	380547	69	6
118	386126	70	6
118	391705	71	6
118	397284	72	6
118	402863	73	6
118	408442	74	6
118	414021	75	6
118	419600	76	6
118	425179	77	6
118	430758	78	6
118	436337	79	6
118	441916	80	6
118	447495	81	6
118	453074	82	6
118	458653	83	6
118	464232	84	6
118	469811	85	6
118	475390	86	6
118	480969	87	6
118	486548	88	6
118	492127	89	6
118	497706	90	6
118	503285	91	6
118	508864	92	6
118	514443	93	6
118	520022	94	6
118	525601	95	6
118	531180	96	6
118	536759	97	6
118	542338	98	6
118	547917	99	6
118	553496	100	6
119	4953	2	0.021651396827
119	10532	3	0.024977796495
119	16111	4	0.024964796568
119	21690	5	0.024977796609
119	27269	6	0.024964796661
119	32848	7	0.024964796688
119	38427	8	0.024977796701
119	44006	9	0.024964796719
119	49587	10	0.02497779671
119	56965	11	0.026900801135
119	62544	12	0.024964438402
119	68123	13	0.024976978383
119	73702	14	0.024963409551
119	79281	15	0.024975774636
119	84860	16	0.024962065107
119	90439	17	0.024974311219
119	96018	18	0.024973662545
119	101597	19	0.024960136513
119	107176	20	0.024972704737
119	112755	21	0.024972294295
119	118334	22	0.024971905149
119	123913	23	0.02497152462
119	129492	24	0.024971120571
119	135071	25	0.024970750942
119	140650	26	0.02497040644
119	146229	27	0.024970068665
119	151808	28	0.024969729341
119	157387	29	0.024969386112
119	162966	30	0.024969039352
119	168545	31	0.024968689003
119	174124	32	0.024968334316
119	179703	33	0.024967978966
119	185282	34	0.024967623658
119	190861	35	0.024967234368
119	196440	36	0.024979887748
119	202019	37	0.02496661775
119	207598	38	0.024966384537
119	213177	39	0.024979157134
119	218756	40	0.024965922703
119	224335	41	0.024965681586
119	229914	42	0.024978435047
119	235493	43	0.024965181661
119	241072	44	0.024964918168
119	246651	45	0.024977639259
119	252230	46	0.02496433793
119	257809	47	0.024977008087
119	263388	48	0.024963648943
119	268967	49	0.024976265753
119	274546	50	0.024962865765
119	280125	51	0.024975454813
119	285704	52	0.024962036746
119	291283	53	0.024974613942
119	296862	54	0.024974187849
119	302441	55	0.024960759384
119	308020	56	0.024973329149
119	313599	57	0.024972897524
119	319178	58	0.024972464789
119	324757	59	0.024972031124
119	330336	60	0.02495859665
119	335915	61	0.024971161452
119	341494	62	0.024970725565
119	347073	63	0.024970289003
119	352652	64	0.024969851748
119	358231	65	0.02496941373
119	363810	66	0.024968974835
119	369389	67	0.024981534887
119	374968	68	0.024968093594
119	380547	69	0.024967650513
119	386126	70	0.024967204915
119	391705	71	0.024966826081
119	397284	72	0.024979382773
119	402863	73	0.024965934161
119	408442	74	0.024965473229
119	414021	75	0.024977985507
119	419600	76	0.024964461725
119	425179	77	0.024976913435
119	430758	78	0.024963354228
119	436337	79	0.024975790293
119	441916	80	0.024962224036
119	447495	81	0.024974656492
119	453074	82	0.024974088163
119	458653	83	0.024960519327
119	464232	84	0.024972950136
119	469811	85	0.024972380687
119	475390	86	0.024971811043
119	480969	87	0.024971241252
119	486548	88	0.024970671346
119	492127	89	0.024970107706
119	497706	90	0.024969541456
119	503285	91	0.024968970842
119	508864	92	0.024968400221
119	514443	93	0.024967829598
119	520022	94	0.024967257594
119	525601	95	0.024966685055
119	531180	96	0.024979114597
119	536759	97	0.024965544114
119	542338	98	0.024964973613
119	547917	99	0.024977401989
119	553496	100	0.024963823447
120	4953	2	0
120	10532	3	0
120	16111	4	0
120	21690	5	0
120	27269	6	0
120	32848	7	0
120	38427	8	0
120	44006	9	0
120	49587	10	0
120	56965	11	0
120	62544	12	0
120	68123	13	0
120	73702	14	0
120	79281	15	0
120	84860	16	0
120	90439	17	0
120	96018	18	0
120	101597	19	0
120	107176	20	0
120	112755	21	0
120	118334	22	0
120	123913	23	0
120	129492	24	0
120	135071	25	0
120	140650	26	0
120	146229	27	0
120	151808	28	0
120	157387	29	0
120	162966	30	0
120	168545	31	0
120	174124	32	0
120	179703	33	0
120	185282	34	0
120	190861	35	0
120	196440	36	0
120	202019	37	0
120	207598	38	0
120	213177	39	0
120	218756	40	0
120	224335	41	0
120	229914	42	0
120	235493	43	0
120	241072	44	0
120	246651	45	0
120	252230	46	0
120	257809	47	0
120	263388	48	0
120	268967	49	0
120	274546	50	0
120	280125	51	0
120	285704	52	0
120	291283	53	0
120	296862	54	0
120	302441	55	0
120	308020	56	0
120	313599	57	0
120	319178	58	0
120	324757	59	0
120	330336	60	0
120	335915	61	0
120	341494	62	0
120	347073	63	0
120	352652	64	0
120	358231	65	0
120	363810	66	0
120	369389	67	0
120	374968	68	0
120	380547	69	0
120	386126	70	0
120	391705	71	0
120	397284	72	0
120	402863	73	0
120	408442	74	0
120	414021	75	0
120	419600	76	0
120	425179	77	0
120	430758	78	0
120	436337	79	0
120	441916	80	0
120	447495	81	0
120	453074	82	0
120	458653	83	0
120	464232	84	0
120	469811	85	0
120	475390	86	0
120	480969	87	0
120	486548	88	0
120	492127	89	0
120	497706	90	0
120	503285	91	0
120	508864	92	0
120	514443	93	0
120	520022	94	0
120	525601	95	0
120	531180	96	0
120	536759	97	0
120	542338	98	0
120	547917	99	0
120	553496	100	0
121	4954	2	7
121	10533	3	7
121	16112	4	7
121	21691	5	7
121	27270	6	7
121	32849	7	7
121	38428	8	7
121	44007	9	7
121	49588	10	7
121	56966	11	7
121	62545	12	7
121	68124	13	7
121	73703	14	7
121	79282	15	7
121	84861	16	7
121	90440	17	7
121	96019	18	7
121	101598	19	7
121	107177	20	7
121	112756	21	7
121	118335	22	7
121	123914	23	7
121	129493	24	7
121	135072	25	7
121	140651	26	7
121	146230	27	7
121	151809	28	7
121	157388	29	7
121	162967	30	7
121	168546	31	7
121	174125	32	7
121	179704	33	7
121	185283	34	7
121	190862	35	7
121	196441	36	7
121	202020	37	7
121	207599	38	7
121	213178	39	7
121	218757	40	7
121	224336	41	7
121	229915	42	7
121	235494	43	7
121	241073	44	7
121	246652	45	7
121	252231	46	7
121	257810	47	7
121	263389	48	7
121	268968	49	7
121	274547	50	7
121	280126	51	7
121	285705	52	7
121	291284	53	7
121	296863	54	7
121	302442	55	7
121	308021	56	7
121	313600	57	7
121	319179	58	7
121	324758	59	7
121	330337	60	7
121	335916	61	7
121	341495	62	7
121	347074	63	7
121	352653	64	7
121	358232	65	7
121	363811	66	7
121	369390	67	7
121	374969	68	7
121	380548	69	7
121	386127	70	7
121	391706	71	7
121	397285	72	7
121	402864	73	7
121	408443	74	7
121	414022	75	7
121	419601	76	7
121	425180	77	7
121	430759	78	7
121	436338	79	7
121	441917	80	7
121	447496	81	7
121	453075	82	7
121	458654	83	7
121	464233	84	7
121	469812	85	7
121	475391	86	7
121	480970	87	7
121	486549	88	7
121	492128	89	7
121	497707	90	7
121	503286	91	7
121	508865	92	7
121	514444	93	7
121	520023	94	7
121	525602	95	7
121	531181	96	7
121	536760	97	7
121	542339	98	7
121	547918	99	7
121	553497	100	7
122	4954	2	0.021651376813
122	10533	3	0.024977796495
122	16112	4	0.024964796569
122	21691	5	0.024977796608
122	27270	6	0.024964796662
122	32849	7	0.024964796687
122	38428	8	0.024977796702
122	44007	9	0.024964796718
122	49588	10	0.02497779671
122	56966	11	0.02687387983
122	62545	12	0.024964441218
122	68124	13	0.024976976692
122	73703	14	0.024963402913
122	79282	15	0.02497576533
122	84861	16	0.024962055373
122	90440	17	0.024974301766
122	96019	18	0.024973653362
122	101598	19	0.024960130181
122	107177	20	0.02497269584
122	112756	21	0.024972285627
122	118335	22	0.024971896777
122	123914	23	0.024971516613
122	129493	24	0.024971110791
122	135072	25	0.024970743929
122	140651	26	0.024970399904
122	146230	27	0.024970062556
122	151809	28	0.024969723573
122	157388	29	0.024969380653
122	162967	30	0.024969034241
122	168546	31	0.024968684223
122	174125	32	0.024968329811
122	179704	33	0.024967976233
122	185283	34	0.024967619486
122	190862	35	0.024967230333
122	196441	36	0.024979883824
122	202020	37	0.024966613913
122	207599	38	0.024966380771
122	213178	39	0.024979154205
122	218757	40	0.024965919022
122	224336	41	0.024965677946
122	229915	42	0.024978431442
122	235494	43	0.024965178085
122	241073	44	0.024964914617
122	246652	45	0.024977635729
122	252231	46	0.024964334418
122	257810	47	0.024977004592
122	263389	48	0.02496364546
122	268968	49	0.024976262285
122	274547	50	0.024962862306
122	280126	51	0.024975451364
122	285705	52	0.024962033305
122	291284	53	0.024974610509
122	296863	54	0.024974184423
122	302442	55	0.024960755965
122	308021	56	0.024973325734
122	313600	57	0.024972894115
122	319179	58	0.024972461384
122	324758	59	0.024972027724
122	330337	60	0.024958593253
122	335916	61	0.024971158059
122	341495	62	0.024970722174
122	347074	63	0.024970285617
122	352653	64	0.024969848363
122	358232	65	0.024969410348
122	363811	66	0.024968971456
122	369390	67	0.024981531509
122	374969	68	0.024968090219
122	380548	69	0.024967647139
122	386127	70	0.024967201544
122	391706	71	0.024966822711
122	397285	72	0.024979379404
122	402864	73	0.024965930794
122	408443	74	0.024965469863
122	414022	75	0.024977982142
122	419601	76	0.024964458362
122	425180	77	0.024976910072
122	430759	78	0.024963350867
122	436338	79	0.024975786933
122	441917	80	0.024962220676
122	447496	81	0.024974653134
122	453075	82	0.024974084805
122	458654	83	0.02496051597
122	464233	84	0.02497294678
122	469812	85	0.024972377331
122	475391	86	0.024971807689
122	480970	87	0.024971237898
122	486549	88	0.024970667992
122	492128	89	0.024970104353
122	497707	90	0.024969538104
122	503286	91	0.024968967489
122	508865	92	0.02496839687
122	514444	93	0.024967826247
122	520023	94	0.024967254244
122	525602	95	0.024966681705
122	531181	96	0.024979111247
122	536760	97	0.024965540765
122	542339	98	0.024964970264
122	547918	99	0.024977398641
122	553497	100	0.024963820099
123	4954	2	0
123	10533	3	0
123	16112	4	0
123	21691	5	0
123	27270	6	0
123	32849	7	0
123	38428	8	0
123	44007	9	0
123	49588	10	0
123	56966	11	0
123	62545	12	0
123	68124	13	0
123	73703	14	0
123	79282	15	0
123	84861	16	0
123	90440	17	0
123	96019	18	0
123	101598	19	0
123	107177	20	0
123	112756	21	0
123	118335	22	0
123	123914	23	0
123	129493	24	0
123	135072	25	0
123	140651	26	0
123	146230	27	0
123	151809	28	0
123	157388	29	0
123	162967	30	0
123	168546	31	0
123	174125	32	0
123	179704	33	0
123	185283	34	0
123	190862	35	0
123	196441	36	0
123	202020	37	0
123	207599	38	0
123	213178	39	0
123	218757	40	0
123	224336	41	0
123	229915	42	0
123	235494	43	0
123	241073	44	0
123	246652	45	0
123	252231	46	0
123	257810	47	0
123	263389	48	0
123	268968	49	0
123	274547	50	0
123	280126	51	0
123	285705	52	0
123	291284	53	0
123	296863	54	0
123	302442	55	0
123	308021	56	0
123	313600	57	0
123	319179	58	0
123	324758	59	0
123	330337	60	0
123	335916	61	0
123	341495	62	0
123	347074	63	0
123	352653	64	0
123	358232	65	0
123	363811	66	0
123	369390	67	0
123	374969	68	0
123	380548	69	0
123	386127	70	0
123	391706	71	0
123	397285	72	0
123	402864	73	0
123	408443	74	0
123	414022	75	0
123	419601	76	0
123	425180	77	0
123	430759	78	0
123	436338	79	0
123	441917	80	0
123	447496	81	0
123	453075	82	0
123	458654	83	0
123	464233	84	0
123	469812	85	0
123	475391	86	0
123	480970	87	0
123	486549	88	0
123	492128	89	0
123	497707	90	0
123	503286	91	0
123	508865	92	0
123	514444	93	0
123	520023	94	0
123	525602	95	0
123	531181	96	0
123	536760	97	0
123	542339	98	0
123	547918	99	0
123	553497	100	0
124	4955	2	8
124	10534	3	8
124	16113	4	8
124	21692	5	8
124	27271	6	8
124	32850	7	8
124	38429	8	8
124	44008	9	8
124	49589	10	8
124	56967	11	8
124	62546	12	8
124	68125	13	8
124	73704	14	8
124	79283	15	8
124	84862	16	8
124	90441	17	8
124	96020	18	8
124	101599	19	8
124	107178	20	8
124	112757	21	8
124	118336	22	8
124	123915	23	8
124	129494	24	8
124	135073	25	8
124	140652	26	8
124	146231	27	8
124	151810	28	8
124	157389	29	8
124	162968	30	8
124	168547	31	8
124	174126	32	8
124	179705	33	8
124	185284	34	8
124	190863	35	8
124	196442	36	8
124	202021	37	8
124	207600	38	8
124	213179	39	8
124	218758	40	8
124	224337	41	8
124	229916	42	8
124	235495	43	8
124	241074	44	8
124	246653	45	8
124	252232	46	8
124	257811	47	8
124	263390	48	8
124	268969	49	8
124	274548	50	8
124	280127	51	8
124	285706	52	8
124	291285	53	8
124	296864	54	8
124	302443	55	8
124	308022	56	8
124	313601	57	8
124	319180	58	8
124	324759	59	8
124	330338	60	8
124	335917	61	8
124	341496	62	8
124	347075	63	8
124	352654	64	8
124	358233	65	8
124	363812	66	8
124	369391	67	8
124	374970	68	8
124	380549	69	8
124	386128	70	8
124	391707	71	8
124	397286	72	8
124	402865	73	8
124	408444	74	8
124	414023	75	8
124	419602	76	8
124	425181	77	8
124	430760	78	8
124	436339	79	8
124	441918	80	8
124	447497	81	8
124	453076	82	8
124	458655	83	8
124	464234	84	8
124	469813	85	8
124	475392	86	8
124	480971	87	8
124	486550	88	8
124	492129	89	8
124	497708	90	8
124	503287	91	8
124	508866	92	8
124	514445	93	8
124	520024	94	8
124	525603	95	8
124	531182	96	8
124	536761	97	8
124	542340	98	8
124	547919	99	8
124	553498	100	8
125	4955	2	0.002817
125	10534	3	0.00313
125	16113	4	0.00313
125	21692	5	0.00313
125	27271	6	0.00313
125	32850	7	0.00313
125	38429	8	0.00313
125	44008	9	0.00313
125	49589	10	0.00313
125	56967	11	0.003179
125	62546	12	0.00313
125	68125	13	0.00313
125	73704	14	0.00313
125	79283	15	0.00313
125	84862	16	0.00313
125	90441	17	0.00313
125	96020	18	0.00313
125	101599	19	0.00313
125	107178	20	0.00313
125	112757	21	0.00313
125	118336	22	0.00313
125	123915	23	0.00313
125	129494	24	0.00313
125	135073	25	0.00313
125	140652	26	0.00313
125	146231	27	0.00313
125	151810	28	0.00313
125	157389	29	0.00313
125	162968	30	0.00313
125	168547	31	0.00313
125	174126	32	0.00313
125	179705	33	0.00313
125	185284	34	0.00313
125	190863	35	0.00313
125	196442	36	0.00313
125	202021	37	0.00313
125	207600	38	0.00313
125	213179	39	0.00313
125	218758	40	0.00313
125	224337	41	0.00313
125	229916	42	0.00313
125	235495	43	0.00313
125	241074	44	0.00313
125	246653	45	0.00313
125	252232	46	0.00313
125	257811	47	0.00313
125	263390	48	0.00313
125	268969	49	0.00313
125	274548	50	0.00313
125	280127	51	0.00313
125	285706	52	0.00313
125	291285	53	0.00313
125	296864	54	0.00313
125	302443	55	0.00313
125	308022	56	0.00313
125	313601	57	0.00313
125	319180	58	0.00313
125	324759	59	0.00313
125	330338	60	0.00313
125	335917	61	0.00313
125	341496	62	0.00313
125	347075	63	0.00313
125	352654	64	0.00313
125	358233	65	0.00313
125	363812	66	0.00313
125	369391	67	0.00313
125	374970	68	0.00313
125	380549	69	0.00313
125	386128	70	0.00313
125	391707	71	0.00313
125	397286	72	0.00313
125	402865	73	0.00313
125	408444	74	0.00313
125	414023	75	0.00313
125	419602	76	0.00313
125	425181	77	0.00313
125	430760	78	0.00313
125	436339	79	0.00313
125	441918	80	0.00313
125	447497	81	0.00313
125	453076	82	0.00313
125	458655	83	0.00313
125	464234	84	0.00313
125	469813	85	0.00313
125	475392	86	0.00313
125	480971	87	0.00313
125	486550	88	0.00313
125	492129	89	0.00313
125	497708	90	0.00313
125	503287	91	0.00313
125	508866	92	0.00313
125	514445	93	0.00313
125	520024	94	0.00313
125	525603	95	0.00313
125	531182	96	0.00313
125	536761	97	0.00313
125	542340	98	0.00313
125	547919	99	0.00313
125	553498	100	0.00313
126	4955	2	0
126	10534	3	0
126	16113	4	0
126	21692	5	0
126	27271	6	0
126	32850	7	0
126	38429	8	0
126	44008	9	0
126	49589	10	0
126	56967	11	0
126	62546	12	0
126	68125	13	0
126	73704	14	0
126	79283	15	0
126	84862	16	0
126	90441	17	0
126	96020	18	0
126	101599	19	0
126	107178	20	0
126	112757	21	0
126	118336	22	0
126	123915	23	0
126	129494	24	0
126	135073	25	0
126	140652	26	0
126	146231	27	0
126	151810	28	0
126	157389	29	0
126	162968	30	0
126	168547	31	0
126	174126	32	0
126	179705	33	0
126	185284	34	0
126	190863	35	0
126	196442	36	0
126	202021	37	0
126	207600	38	0
126	213179	39	0
126	218758	40	0
126	224337	41	0
126	229916	42	0
126	235495	43	0
126	241074	44	0
126	246653	45	0
126	252232	46	0
126	257811	47	0
126	263390	48	0
126	268969	49	0
126	274548	50	0
126	280127	51	0
126	285706	52	0
126	291285	53	0
126	296864	54	0
126	302443	55	0
126	308022	56	0
126	313601	57	0
126	319180	58	0
126	324759	59	0
126	330338	60	0
126	335917	61	0
126	341496	62	0
126	347075	63	0
126	352654	64	0
126	358233	65	0
126	363812	66	0
126	369391	67	0
126	374970	68	0
126	380549	69	0
126	386128	70	0
126	391707	71	0
126	397286	72	0
126	402865	73	0
126	408444	74	0
126	414023	75	0
126	419602	76	0
126	425181	77	0
126	430760	78	0
126	436339	79	0
126	441918	80	0
126	447497	81	0
126	453076	82	0
126	458655	83	0
126	464234	84	0
126	469813	85	0
126	475392	86	0
126	480971	87	0
126	486550	88	0
126	492129	89	0
126	497708	90	0
126	503287	91	0
126	508866	92	0
126	514445	93	0
126	520024	94	0
126	525603	95	0
126	531182	96	0
126	536761	97	0
126	542340	98	0
126	547919	99	0
126	553498	100	0

