version 3
run BreakRanksNoGui-567-20240710-17:10:50-269941
attr configname BreakRanksNoGui
attr datetime 20240710-17:10:50
attr datetimef 20240710-171050
attr experiment BreakRanksNoGui
attr inifile omnetpp.ini
attr iterationvars "$nCars=3, $platoonSize=2, $nLanes=1, $ploegH=0.5, $controller=1, $headway=0.1, $leaderHeadway=1.2, $leaderSpeed=130, $breakRanksSafetyDistance=2, $minSpeed=120, $maxSpeed=140, $beaconInterval=0.1, $priority=4, $packetSize=200, $sController=\"CACC\", $0=2, $1=0"
attr iterationvarsd nCars=3/platoonSize=2/nLanes=1/ploegH=0.5/controller=1/headway=0.1/leaderHeadway=1.2/leaderSpeed=130/breakRanksSafetyDistance=2/minSpeed=120/maxSpeed=140/beaconInterval=0.1/priority=4/packetSize=200/sController=CACC/2/0
attr iterationvarsf nCars=3,platoonSize=2,nLanes=1,ploegH=0.5,controller=1,headway=0.1,leaderHeadway=1.2,leaderSpeed=130,breakRanksSafetyDistance=2,minSpeed=120,maxSpeed=140,beaconInterval=0.1,priority=4,packetSize=200,sController=CACC,2,0-
attr measurement "$nCars=3, $platoonSize=2, $nLanes=1, $ploegH=0.5, $controller=1, $headway=0.1, $leaderHeadway=1.2, $leaderSpeed=130, $breakRanksSafetyDistance=2, $minSpeed=120, $maxSpeed=140, $beaconInterval=0.1, $priority=4, $packetSize=200, $sController=\"CACC\", $0=2, $1=0"
attr network Highway
attr processid 269941
attr repetition 7
attr replication #7
attr resultdir results
attr runnumber 567
attr seedset 7
itervar beaconInterval 0.1
itervar breakRanksSafetyDistance 2
itervar controller 1
itervar headway 0.1
itervar leaderHeadway 1.2
itervar leaderSpeed 130
itervar maxSpeed 140
itervar minSpeed 120
itervar nCars 3
itervar nLanes 1
itervar packetSize 200
itervar platoonSize 2
itervar ploegH 0.5
itervar priority 4
itervar sController "\"CACC\""
config image-path ../../../veins/images
config repeat 10
config extends BreakRanks
config *.manager.command "\"sumo\""
config *.manager.ignoreGuiCommands true
config output-vector-file "results/BreakRanks_1_0.1_130_2_2 /result_7.vec"
config output-scalar-file "results/BreakRanks_1_0.1_130_2_2 /result_7.sca"
config extends Platooning
config *.node[*].scenario_type "\"BreakRanksScenario\""
config *.manager.command "\"sumo-gui\""
config *.node[*].scenario_type "\"SimpleScenario\""
config cmdenv-express-mode true
config cmdenv-autoflush true
config cmdenv-status-frequency 15s
config num-rngs 6
config network Highway
config debug-on-errors true
config print-undisposed true
config *.playgroundSizeX 65000m
config *.playgroundSizeY 25000m
config *.playgroundSizeZ 50m
config sim-time-limit "100 s"
config *.annotations.draw false
config *.obstacles.debug false
config *.world.useTorus false
config *.world.use2D false
config *.manager.updateInterval 0.01s
config *.manager.host "\"localhost\""
config *.manager.moduleType "\"org.car2x.plexe.PlatoonCar\""
config *.manager.moduleName "\"node\""
config *.manager.moduleDisplayString "\"\""
config *.manager.autoShutdown true
config *.manager.margin 25
config *.connectionManager.sendDirect true
config *.connectionManager.maxInterfDist 2600m
config *.connectionManager.drawMaxIntfDist false
config *.**.nic.mac1609_4.useServiceChannel false
config *.**.nic.mac1609_4.txPower 100mW
config *.**.nic.mac1609_4.bitrate 6Mbps
config *.**.nic.mac1609_4.useAcks true
config *.**.nic.mac1609_4.ackErrorRate 0.0
config *.**.nic.mac1609_4.frameErrorRate 0.0
config *.**.nic.phy80211p.minPowerLevel -94dBm
config *.**.nic.phy80211p.maxTXPower 100mW
config *.**.nic.phy80211p.useNoiseFloor true
config *.**.nic.phy80211p.noiseFloor -95dBm
config *.**.nic.phy80211p.decider "xmldoc(\"config.xml\")"
config *.**.nic.phy80211p.analogueModels "xmldoc(\"config.xml\")"
config *.**.nic.phy80211p.usePropagationDelay true
config *.node[*].mobility.x 0
config *.node[*].mobility.y 0
config *.node[*].mobility.z 1.895
config seed-set 7
config **.seed 7
config *.node[*].prot.rng-0 2
config *.node[*].appl.rng-0 3
config *.node[*].scenario.rng-0 4
config **.traffic.rng-0 5
config *.manager.configFile "\"./sumocfg/freeway.sumo.cfg\""
config *.manager.launchConfig "xmldoc(\"./sumocfg/freeway.launchd.xml\")"
config **.numberOfCars 3
config **.numberOfCarsPerPlatoon 2
config **.numberOfLanes 1
config *.node[*].helper_type "\"PositionHelper\""
config *.node[*].scenario.caccC1 0.5
config *.node[*].scenario.caccXi 1
config *.node[*].scenario.caccOmegaN "0.2 Hz"
config *.node[*].scenario.caccSpacing "2 m"
config *.node[*].scenario.engineTau "0.5 s"
config *.node[*].scenario.ploegH 0.5s
config *.node[*].scenario.ploegKp 0.2
config *.node[*].scenario.ploegKd 0.7
config *.node[*].scenario.useRealisticEngine false
config *.node[*].scenario.useControllerAcceleration true
config *.node[*].scenario.nLanes 1
config **.numericController 1
config **.headway 0.1s
config *.node[*].scenario.accHeadway 0.1s
config *.node[*].scenario.leaderHeadway 1.2s
config *.node[*].scenario.leaderSpeed 130kmph
config *.node[*].appl_type "\"SimplePlatooningApp\""
config *.node[*].appl.*.scalar-recording true
config *.node[*].appl.*.vector-recording true
config *.node[0].appl.breakRanksSafetyDistance 2m
config *.node[*].appl.minSpeed 120kmph
config *.node[*].appl.maxSpeed 140kmph
config *.node[*].protocol_type "\"SimplePlatooningBeaconing\""
config *.node[*].prot.*.scalar-recording true
config *.node[*].prot.*.vector-recording true
config *.node[*].prot.beaconingInterval 0.1s
config *.node[*].prot.priority 4
config *.node[*].prot.packetSize 200
config **.traffic_type "\"PlatoonsTrafficManager\""
config **.traffic.platoonInsertTime "1 s"
config **.traffic.platoonInsertSpeed 130kmph
config **.traffic.nCars 3
config **.traffic.platoonSize 2
config **.traffic.nLanes 1
config **.traffic.platooningVType "\"vtypeauto\""
config **.traffic.controller "\"CACC\""
config **.traffic.platoonInsertDistance 2m
config **.traffic.platoonInsertHeadway 0s
config **.traffic.platoonLeaderHeadway 1.2s
config **.scalar-recording false
config **.vector-recording false

vector 0 Highway.node[0].appl distance ETV
vector 1 Highway.node[0].appl relativeSpeed ETV
vector 2 Highway.node[0].appl nodeId ETV
vector 3 Highway.node[0].appl acceleration ETV
vector 4 Highway.node[0].appl controllerAcceleration ETV
vector 5 Highway.node[0].appl speed ETV
vector 6 Highway.node[0].appl posx ETV
vector 7 Highway.node[0].appl posy ETV
vector 8 Highway.node[1].appl distance ETV
vector 9 Highway.node[1].appl relativeSpeed ETV
vector 10 Highway.node[1].appl nodeId ETV
vector 11 Highway.node[1].appl acceleration ETV
vector 12 Highway.node[1].appl controllerAcceleration ETV
vector 13 Highway.node[1].appl speed ETV
vector 14 Highway.node[1].appl posx ETV
vector 15 Highway.node[1].appl posy ETV
vector 16 Highway.node[2].appl distance ETV
vector 17 Highway.node[2].appl relativeSpeed ETV
vector 18 Highway.node[2].appl nodeId ETV
vector 19 Highway.node[2].appl acceleration ETV
vector 20 Highway.node[2].appl controllerAcceleration ETV
vector 21 Highway.node[2].appl speed ETV
vector 22 Highway.node[2].appl posx ETV
vector 23 Highway.node[2].appl posy ETV
vector 24 Highway.node[1].prot leaderDelay ETV
vector 25 Highway.node[1].prot leaderDelayId ETV
vector 26 Highway.node[1].prot frontDelay ETV
vector 27 Highway.node[1].prot frontDelayId ETV
vector 28 Highway.node[0].prot nodeId ETV
vector 29 Highway.node[0].prot busyTime ETV
vector 30 Highway.node[0].prot collisions ETV
vector 31 Highway.node[1].prot nodeId ETV
vector 32 Highway.node[1].prot busyTime ETV
vector 33 Highway.node[1].prot collisions ETV
vector 34 Highway.node[2].prot nodeId ETV
vector 35 Highway.node[2].prot busyTime ETV
vector 36 Highway.node[2].prot collisions ETV
0	113	1.11	9341.17
0	172	1.21	9341.17
0	231	1.31	9341.17
0	290	1.41	9341.17
0	349	1.51	9341.17
0	408	1.61	9341.17
0	467	1.71	9341.17
0	526	1.81	9341.17
0	585	1.91	9341.17
0	647	2.01	9341.17
0	706	2.11	9341.17
0	765	2.21	-1
0	824	2.31	-1
0	883	2.41	-1
0	942	2.51	-1
0	1001	2.61	-1
0	1060	2.71	-1
0	1119	2.81	-1
0	1178	2.91	-1
0	1240	3.01	-1
0	1299	3.11	-1
0	1358	3.21	-1
0	1417	3.31	-1
0	1476	3.41	-1
0	1535	3.51	-1
0	1594	3.61	-1
0	1653	3.71	-1
0	1712	3.81	-1
0	1771	3.91	-1
0	1833	4.01	-1
0	1892	4.11	-1
0	1951	4.21	-1
0	2010	4.31	-1
0	2069	4.41	-1
0	2128	4.51	-1
0	2187	4.61	-1
0	2246	4.71	-1
0	2305	4.81	-1
0	2364	4.91	-1
0	2426	5.01	-1
0	2485	5.11	-1
0	2544	5.21	-1
0	2603	5.31	-1
0	2662	5.41	-1
0	2721	5.51	-1
0	2780	5.61	-1
0	2839	5.71	-1
0	2898	5.81	-1
0	2957	5.91	-1
0	3019	6.01	-1
0	3078	6.11	-1
0	3137	6.21	-1
0	3196	6.31	-1
0	3255	6.41	-1
0	3314	6.51	-1
0	3373	6.61	-1
0	3432	6.71	-1
0	3491	6.81	-1
0	3550	6.91	-1
0	3612	7.01	-1
0	3671	7.11	-1
0	3730	7.21	-1
0	3789	7.31	-1
0	3848	7.41	-1
0	3907	7.51	-1
0	3966	7.61	-1
0	4025	7.71	-1
0	4084	7.81	-1
0	4143	7.91	-1
0	4205	8.01	-1
0	4264	8.11	-1
0	4323	8.21	-1
0	4382	8.31	-1
0	4441	8.41	-1
0	4500	8.51	-1
0	4559	8.61	-1
0	4618	8.71	-1
0	4677	8.81	-1
0	4736	8.91	-1
0	4798	9.01	-1
0	4857	9.11	-1
0	4916	9.21	-1
0	4975	9.31	-1
0	5034	9.41	-1
0	5093	9.51	-1
0	5152	9.61	-1
0	5211	9.71	-1
0	5270	9.81	-1
0	5329	9.91	-1
0	5488	10.01	-1
0	5547	10.11	-1
0	5606	10.21	-1
0	5665	10.31	-1
0	5724	10.41	-1
0	5783	10.51	-1
0	5842	10.61	-1
0	5901	10.71	-1
0	5960	10.81	-1
0	6019	10.91	-1
0	6081	11.01	-1
0	6140	11.11	-1
0	6199	11.21	-1
0	6258	11.31	-1
0	6317	11.41	-1
0	6376	11.51	-1
0	6435	11.61	-1
0	6494	11.71	-1
0	6553	11.81	-1
0	6612	11.91	-1
0	6674	12.01	-1
0	6733	12.11	-1
0	6792	12.21	-1
0	6851	12.31	-1
0	6910	12.41	-1
0	6969	12.51	-1
0	7028	12.61	-1
0	7087	12.71	-1
0	7146	12.81	-1
0	7205	12.91	-1
0	7267	13.01	-1
0	7326	13.11	-1
0	7385	13.21	-1
0	7444	13.31	-1
0	7503	13.41	-1
0	7562	13.51	-1
0	7621	13.61	-1
0	7680	13.71	-1
0	7739	13.81	-1
0	7798	13.91	-1
0	7860	14.01	-1
0	7919	14.11	-1
0	7978	14.21	-1
0	8037	14.31	-1
0	8096	14.41	-1
0	8155	14.51	-1
0	8214	14.61	-1
0	8273	14.71	-1
0	8332	14.81	-1
0	8391	14.91	-1
0	8453	15.01	-1
0	8512	15.11	-1
0	8571	15.21	-1
0	8630	15.31	-1
0	8689	15.41	-1
0	8748	15.51	-1
0	8807	15.61	-1
0	8866	15.71	-1
0	8925	15.81	-1
0	8984	15.91	-1
0	9046	16.01	-1
0	9105	16.11	-1
0	9164	16.21	-1
0	9223	16.31	-1
0	9282	16.41	-1
0	9341	16.51	-1
0	9400	16.61	-1
0	9459	16.71	-1
0	9518	16.81	-1
0	9577	16.91	-1
0	9639	17.01	-1
0	9698	17.11	-1
0	9757	17.21	-1
0	9816	17.31	-1
0	9875	17.41	-1
0	9934	17.51	-1
0	9993	17.61	-1
0	10052	17.71	-1
0	10111	17.81	-1
0	10170	17.91	-1
0	10232	18.01	-1
0	10291	18.11	-1
0	10350	18.21	-1
0	10409	18.31	-1
0	10468	18.41	-1
0	10527	18.51	-1
0	10586	18.61	-1
0	10645	18.71	-1
0	10704	18.81	-1
0	10763	18.91	-1
0	10825	19.01	-1
0	10884	19.11	-1
0	10943	19.21	-1
0	11002	19.31	-1
0	11061	19.41	-1
0	11120	19.51	-1
0	11179	19.61	-1
0	11238	19.71	-1
0	11297	19.81	-1
0	11356	19.91	-1
0	11418	20.01	-1
0	11477	20.11	-1
0	11536	20.21	-1
0	11595	20.31	-1
0	11654	20.41	-1
0	11713	20.51	-1
0	11772	20.61	-1
0	11831	20.71	-1
0	11890	20.81	-1
0	11949	20.91	-1
0	12011	21.01	-1
0	12070	21.11	-1
0	12129	21.21	-1
0	12188	21.31	-1
0	12247	21.41	-1
0	12306	21.51	-1
0	12365	21.61	-1
0	12424	21.71	-1
0	12483	21.81	-1
0	12542	21.91	-1
0	12604	22.01	-1
0	12663	22.11	-1
0	12722	22.21	-1
0	12781	22.31	-1
0	12840	22.41	-1
0	12899	22.51	-1
0	12958	22.61	-1
0	13017	22.71	-1
0	13076	22.81	-1
0	13135	22.91	-1
0	13197	23.01	-1
0	13256	23.11	-1
0	13315	23.21	-1
0	13374	23.31	-1
0	13433	23.41	-1
0	13492	23.51	-1
0	13551	23.61	-1
0	13610	23.71	-1
0	13669	23.81	-1
0	13728	23.91	-1
0	13790	24.01	-1
0	13849	24.11	-1
0	13908	24.21	-1
0	13967	24.31	-1
0	14026	24.41	-1
0	14085	24.51	-1
0	14144	24.61	-1
0	14203	24.71	-1
0	14262	24.81	-1
0	14321	24.91	-1
0	14383	25.01	-1
0	14442	25.11	-1
0	14501	25.21	-1
0	14560	25.31	-1
0	14619	25.41	-1
0	14678	25.51	-1
0	14737	25.61	-1
0	14796	25.71	-1
0	14855	25.81	-1
0	14914	25.91	-1
0	14976	26.01	-1
0	15035	26.11	-1
0	15094	26.21	-1
0	15153	26.31	-1
0	15212	26.41	-1
0	15271	26.51	-1
0	15330	26.61	-1
0	15389	26.71	-1
0	15448	26.81	-1
0	15507	26.91	-1
0	15569	27.01	-1
0	15628	27.11	-1
0	15687	27.21	-1
0	15746	27.31	-1
0	15805	27.41	-1
0	15864	27.51	-1
0	15923	27.61	-1
0	15982	27.71	-1
0	16041	27.81	-1
0	16100	27.91	-1
0	16162	28.01	-1
0	16221	28.11	-1
0	16280	28.21	-1
0	16339	28.31	-1
0	16398	28.41	-1
0	16457	28.51	-1
0	16516	28.61	-1
0	16575	28.71	-1
0	16634	28.81	-1
0	16693	28.91	-1
0	16755	29.01	-1
0	16814	29.11	-1
0	16873	29.21	-1
0	16932	29.31	-1
0	16991	29.41	-1
0	17050	29.51	-1
0	17109	29.61	-1
0	17168	29.71	-1
0	17227	29.81	-1
0	17286	29.91	-1
0	17348	30.01	-1
0	17407	30.11	-1
0	17466	30.21	-1
0	17525	30.31	-1
0	17584	30.41	-1
0	17643	30.51	-1
0	17702	30.61	-1
0	17761	30.71	-1
0	17820	30.81	-1
0	17879	30.91	-1
0	17941	31.01	-1
0	18000	31.11	-1
0	18059	31.21	-1
0	18118	31.31	-1
0	18177	31.41	-1
0	18236	31.51	-1
0	18295	31.61	-1
0	18354	31.71	-1
0	18413	31.81	-1
0	18472	31.91	-1
0	18534	32.01	-1
0	18593	32.11	-1
0	18652	32.21	-1
0	18711	32.31	-1
0	18770	32.41	-1
0	18829	32.51	-1
0	18888	32.61	-1
0	18947	32.71	-1
0	19006	32.81	-1
0	19065	32.91	-1
0	19127	33.01	-1
0	19186	33.11	-1
0	19245	33.21	-1
0	19304	33.31	-1
0	19363	33.41	-1
0	19422	33.51	-1
0	19481	33.61	-1
0	19540	33.71	-1
0	19599	33.81	-1
0	19658	33.91	-1
0	19720	34.01	-1
0	19779	34.11	-1
0	19838	34.21	-1
0	19897	34.31	-1
0	19956	34.41	-1
0	20015	34.51	-1
0	20074	34.61	-1
0	20133	34.71	-1
0	20192	34.81	-1
0	20251	34.91	-1
0	20313	35.01	-1
0	20372	35.11	-1
0	20431	35.21	-1
0	20490	35.31	-1
0	20549	35.41	-1
0	20608	35.51	-1
0	20667	35.61	-1
0	20726	35.71	-1
0	20785	35.81	-1
0	20844	35.91	-1
0	20906	36.01	-1
0	20965	36.11	-1
0	21024	36.21	-1
0	21083	36.31	-1
0	21142	36.41	-1
0	21201	36.51	-1
0	21260	36.61	-1
0	21319	36.71	-1
0	21378	36.81	-1
0	21437	36.91	-1
0	21499	37.01	-1
0	21558	37.11	-1
0	21617	37.21	-1
0	21676	37.31	-1
0	21735	37.41	-1
0	21794	37.51	-1
0	21853	37.61	-1
0	21912	37.71	-1
0	21971	37.81	-1
0	22030	37.91	-1
0	22092	38.01	-1
0	22151	38.11	-1
0	22210	38.21	-1
0	22269	38.31	-1
0	22328	38.41	-1
0	22387	38.51	-1
0	22446	38.61	-1
0	22505	38.71	-1
0	22564	38.81	-1
0	22623	38.91	-1
0	22685	39.01	-1
0	22744	39.11	-1
0	22803	39.21	-1
0	22862	39.31	-1
0	22921	39.41	-1
0	22980	39.51	-1
0	23039	39.61	-1
0	23098	39.71	-1
0	23157	39.81	-1
0	23216	39.91	-1
0	23278	40.01	-1
0	23337	40.11	-1
0	23396	40.21	-1
0	23455	40.31	-1
0	23514	40.41	-1
0	23573	40.51	-1
0	23632	40.61	-1
0	23691	40.71	-1
0	23750	40.81	-1
0	23809	40.91	-1
0	23871	41.01	-1
0	23930	41.11	-1
0	23989	41.21	-1
0	24048	41.31	-1
0	24107	41.41	-1
0	24166	41.51	-1
0	24225	41.61	-1
0	24284	41.71	-1
0	24343	41.81	-1
0	24402	41.91	-1
0	24464	42.01	-1
0	24523	42.11	-1
0	24582	42.21	-1
0	24641	42.31	-1
0	24700	42.41	-1
0	24759	42.51	-1
0	24818	42.61	-1
0	24877	42.71	-1
0	24936	42.81	-1
0	24995	42.91	-1
0	25057	43.01	-1
0	25116	43.11	-1
0	25175	43.21	-1
0	25234	43.31	-1
0	25293	43.41	-1
0	25352	43.51	-1
0	25411	43.61	-1
0	25470	43.71	-1
0	25529	43.81	-1
0	25588	43.91	-1
0	25650	44.01	-1
0	25709	44.11	-1
0	25768	44.21	-1
0	25827	44.31	-1
0	25886	44.41	-1
0	25945	44.51	-1
0	26004	44.61	-1
0	26063	44.71	-1
0	26122	44.81	-1
0	26181	44.91	-1
0	26243	45.01	-1
0	26302	45.11	-1
0	26361	45.21	-1
0	26420	45.31	-1
0	26479	45.41	-1
0	26538	45.51	-1
0	26597	45.61	-1
0	26656	45.71	-1
0	26715	45.81	-1
0	26774	45.91	-1
0	26836	46.01	-1
0	26895	46.11	-1
0	26954	46.21	-1
0	27013	46.31	-1
0	27072	46.41	-1
0	27131	46.51	-1
0	27190	46.61	-1
0	27249	46.71	-1
0	27308	46.81	-1
0	27367	46.91	-1
0	27429	47.01	-1
0	27488	47.11	-1
0	27547	47.21	-1
0	27606	47.31	-1
0	27665	47.41	-1
0	27724	47.51	-1
0	27783	47.61	-1
0	27842	47.71	-1
0	27901	47.81	-1
0	27960	47.91	-1
0	28022	48.01	-1
0	28081	48.11	-1
0	28140	48.21	-1
0	28199	48.31	-1
0	28258	48.41	-1
0	28317	48.51	-1
0	28376	48.61	-1
0	28435	48.71	-1
0	28494	48.81	-1
0	28553	48.91	-1
0	28615	49.01	-1
0	28674	49.11	-1
0	28733	49.21	-1
0	28792	49.31	-1
0	28851	49.41	-1
0	28910	49.51	-1
0	28969	49.61	-1
0	29028	49.71	-1
0	29087	49.81	-1
0	29146	49.91	-1
0	29208	50.01	-1
0	29267	50.11	-1
0	29326	50.21	-1
0	29385	50.31	-1
0	29444	50.41	-1
0	29503	50.51	-1
0	29562	50.61	-1
0	29621	50.71	-1
0	29680	50.81	-1
0	29739	50.91	-1
0	29801	51.01	-1
0	29860	51.11	-1
0	29919	51.21	-1
0	29978	51.31	-1
0	30037	51.41	-1
0	30096	51.51	-1
0	30155	51.61	-1
0	30214	51.71	-1
0	30273	51.81	-1
0	30332	51.91	-1
0	30394	52.01	-1
0	30453	52.11	-1
0	30512	52.21	-1
0	30571	52.31	-1
0	30630	52.41	-1
0	30689	52.51	-1
0	30748	52.61	-1
0	30807	52.71	-1
0	30866	52.81	-1
0	30925	52.91	-1
0	30987	53.01	-1
0	31046	53.11	-1
0	31105	53.21	-1
0	31164	53.31	-1
0	31223	53.41	-1
0	31282	53.51	-1
0	31341	53.61	-1
0	31400	53.71	-1
0	31459	53.81	-1
0	31518	53.91	-1
0	31580	54.01	-1
0	31639	54.11	-1
0	31698	54.21	-1
0	31757	54.31	-1
0	31816	54.41	-1
0	31875	54.51	-1
0	31934	54.61	-1
0	31993	54.71	-1
0	32052	54.81	-1
0	32111	54.91	-1
0	32173	55.01	-1
0	32232	55.11	-1
0	32291	55.21	-1
0	32350	55.31	-1
0	32409	55.41	-1
0	32468	55.51	-1
0	32527	55.61	-1
0	32586	55.71	-1
0	32645	55.81	-1
0	32704	55.91	-1
0	32766	56.01	-1
0	32825	56.11	-1
0	32884	56.21	-1
0	32943	56.31	-1
0	33002	56.41	-1
0	33061	56.51	-1
0	33120	56.61	-1
0	33179	56.71	-1
0	33238	56.81	-1
0	33297	56.91	-1
0	33359	57.01	-1
0	33418	57.11	-1
0	33477	57.21	-1
0	33536	57.31	-1
0	33595	57.41	-1
0	33654	57.51	-1
0	33713	57.61	-1
0	33772	57.71	-1
0	33831	57.81	-1
0	33890	57.91	-1
0	33952	58.01	-1
0	34011	58.11	-1
0	34070	58.21	-1
0	34129	58.31	-1
0	34188	58.41	-1
0	34247	58.51	-1
0	34306	58.61	-1
0	34365	58.71	-1
0	34424	58.81	-1
0	34483	58.91	32.5375
0	34545	59.01	32.6267
0	34604	59.11	32.7167
0	34663	59.21	32.8079
0	34722	59.31	32.9005
0	34781	59.41	32.9949
0	34840	59.51	33.0911
0	34899	59.61	33.1891
0	34958	59.71	33.2891
0	35017	59.81	33.3909
0	35076	59.91	33.4944
0	35138	60.01	33.5996
0	35197	60.11	33.7063
0	35256	60.21	33.8144
0	35315	60.31	33.9236
0	35374	60.41	34.0339
0	35433	60.51	34.145
0	35492	60.61	34.2568
0	35551	60.71	34.3691
0	35610	60.81	34.4817
0	35669	60.91	34.5946
0	35731	61.01	34.7074
0	35790	61.11	34.8202
0	35849	61.21	34.9327
0	35908	61.31	35.0449
0	35967	61.41	35.1566
0	36026	61.51	35.2677
0	36085	61.61	35.3782
0	36144	61.71	35.488
0	36203	61.81	35.597
0	36262	61.91	35.7051
0	36324	62.01	35.8123
0	36383	62.11	35.9186
0	36442	62.21	36.0239
0	36501	62.31	36.1281
0	36560	62.41	36.2314
0	36619	62.51	36.3336
0	36678	62.61	36.4347
0	36737	62.71	36.5348
0	36796	62.81	36.6338
0	36855	62.91	36.7318
0	36917	63.01	36.8287
0	36976	63.11	36.9247
0	37035	63.21	37.0197
0	37094	63.31	37.1138
0	37153	63.41	37.2071
0	37212	63.51	37.2997
0	37271	63.61	37.3916
0	37330	63.71	37.4829
0	37389	63.81	37.5736
0	37448	63.91	37.6639
0	37510	64.01	37.7537
0	37569	64.11	37.8432
0	37628	64.21	37.9323
0	37687	64.31	38.0213
0	37746	64.41	38.11
0	37805	64.51	38.1985
0	37864	64.61	38.2869
0	37923	64.71	38.3752
0	37982	64.81	38.4634
0	38041	64.91	38.5516
0	38103	65.01	38.6398
0	38162	65.11	38.7279
0	38221	65.21	38.8161
0	38280	65.31	38.9043
0	38339	65.41	38.9925
0	38398	65.51	39.0807
0	38457	65.61	39.169
0	38516	65.71	39.2573
0	38575	65.81	39.3457
0	38634	65.91	39.4341
0	38696	66.01	39.5226
0	38755	66.11	39.6111
0	38814	66.21	39.6996
0	38873	66.31	39.7882
0	38932	66.41	39.8769
0	38991	66.51	39.9656
0	39050	66.61	40.0543
0	39109	66.71	40.143
0	39168	66.81	40.2318
0	39227	66.91	40.3206
0	39289	67.01	40.4094
0	39348	67.11	40.4983
0	39407	67.21	40.5871
0	39466	67.31	40.676
0	39525	67.41	40.7649
0	39584	67.51	40.8538
0	39643	67.61	40.9427
0	39702	67.71	41.0316
0	39761	67.81	41.1205
0	39820	67.91	41.2094
0	39882	68.01	41.2983
0	39941	68.11	41.3873
0	40000	68.21	41.4762
0	40059	68.31	41.5651
0	40118	68.41	41.654
0	40177	68.51	41.7429
0	40236	68.61	41.8319
0	40295	68.71	41.9208
0	40354	68.81	42.0097
0	40413	68.91	42.0986
0	40475	69.01	42.1875
0	40534	69.11	42.2764
0	40593	69.21	42.3653
0	40652	69.31	42.4542
0	40711	69.41	42.5431
0	40770	69.51	42.632
0	40829	69.61	42.7209
0	40888	69.71	42.8098
0	40947	69.81	42.8987
0	41006	69.91	42.9876
0	41068	70.01	43.0765
0	41127	70.11	43.1654
0	41186	70.21	43.2543
0	41245	70.31	43.3432
0	41304	70.41	43.4321
0	41363	70.51	43.521
0	41422	70.61	43.6099
0	41481	70.71	43.6988
0	41540	70.81	43.7877
0	41599	70.91	43.8766
0	41661	71.01	43.9654
0	41720	71.11	44.0543
0	41779	71.21	44.1432
0	41838	71.31	44.2321
0	41897	71.41	44.321
0	41956	71.51	44.4099
0	42015	71.61	44.4988
0	42074	71.71	44.5877
0	42133	71.81	44.6765
0	42192	71.91	44.7654
0	42254	72.01	44.8543
0	42313	72.11	44.9432
0	42372	72.21	45.0321
0	42431	72.31	45.121
0	42490	72.41	45.2099
0	42549	72.51	45.2988
0	42608	72.61	45.3877
0	42667	72.71	45.4766
0	42726	72.81	45.5654
0	42785	72.91	45.6543
0	42847	73.01	45.7432
0	42906	73.11	45.8321
0	42965	73.21	45.921
0	43024	73.31	46.0099
0	43083	73.41	46.0988
0	43142	73.51	46.1877
0	43201	73.61	46.2766
0	43260	73.71	46.3654
0	43319	73.81	46.4543
0	43378	73.91	46.5432
0	43440	74.01	46.6321
0	43499	74.11	46.721
0	43558	74.21	46.8099
0	43617	74.31	46.8988
0	43676	74.41	46.9877
0	43735	74.51	47.0766
0	43794	74.61	47.1655
0	43853	74.71	47.2544
0	43912	74.81	47.3432
0	43971	74.91	47.4321
0	44033	75.01	47.521
0	44092	75.11	47.6099
0	44151	75.21	47.6988
0	44210	75.31	47.7877
0	44269	75.41	47.8766
0	44328	75.51	47.9655
0	44387	75.61	48.0544
0	44446	75.71	48.1433
0	44505	75.81	48.2321
0	44564	75.91	48.321
0	44626	76.01	48.4099
0	44685	76.11	48.4988
0	44744	76.21	48.5877
0	44803	76.31	48.6766
0	44862	76.41	48.7655
0	44921	76.51	48.8544
0	44980	76.61	48.9433
0	45039	76.71	49.0322
0	45098	76.81	49.121
0	45157	76.91	49.2099
0	45219	77.01	49.2988
0	45278	77.11	49.3877
0	45337	77.21	49.4766
0	45396	77.31	49.5655
0	45455	77.41	49.6544
0	45514	77.51	49.7433
0	45573	77.61	49.8322
0	45632	77.71	49.9211
0	45691	77.81	50.0099
0	45750	77.91	50.0988
0	45812	78.01	50.1877
0	45871	78.11	50.2766
0	45930	78.21	50.3655
0	45989	78.31	50.4544
0	46048	78.41	50.5433
0	46107	78.51	50.6322
0	46166	78.61	50.7211
0	46225	78.71	50.81
0	46284	78.81	50.8988
0	46343	78.91	50.9877
0	46405	79.01	51.0766
0	46464	79.11	51.1655
0	46523	79.21	51.2544
0	46582	79.31	51.3433
0	46641	79.41	51.4322
0	46700	79.51	51.5211
0	46759	79.61	51.61
0	46818	79.71	51.6989
0	46877	79.81	51.7877
0	46936	79.91	51.8766
0	46998	80.01	51.9655
0	47057	80.11	52.0544
0	47116	80.21	52.1433
0	47175	80.31	52.2322
0	47234	80.41	52.3211
0	47293	80.51	52.41
0	47352	80.61	52.4989
0	47411	80.71	52.5878
0	47470	80.81	52.6766
0	47529	80.91	52.7655
0	47591	81.01	52.8544
0	47650	81.11	52.9433
0	47709	81.21	53.0322
0	47768	81.31	53.1211
0	47827	81.41	53.21
0	47886	81.51	53.2989
0	47945	81.61	53.3878
0	48004	81.71	53.4767
0	48063	81.81	53.5655
0	48122	81.91	53.6544
0	48184	82.01	53.7433
0	48243	82.11	53.8322
0	48302	82.21	53.9211
0	48361	82.31	54.01
0	48420	82.41	54.0989
0	48479	82.51	54.1878
0	48538	82.61	54.2767
0	48597	82.71	54.3656
0	48656	82.81	54.4544
0	48715	82.91	54.5433
0	48777	83.01	54.6322
0	48836	83.11	54.7211
0	48895	83.21	54.81
0	48954	83.31	54.8989
0	49013	83.41	54.9878
0	49072	83.51	55.0767
0	49131	83.61	55.1656
0	49190	83.71	55.2545
0	49249	83.81	55.3433
0	49308	83.91	55.4322
0	49370	84.01	55.5211
0	49429	84.11	55.61
0	49488	84.21	55.6989
0	49547	84.31	55.7878
0	49606	84.41	55.8767
0	49665	84.51	55.9656
0	49724	84.61	56.0545
0	49783	84.71	56.1434
0	49842	84.81	56.2322
0	49901	84.91	56.3211
0	49963	85.01	56.41
0	50022	85.11	56.4989
0	50081	85.21	56.5878
0	50140	85.31	56.6767
0	50199	85.41	56.7656
0	50258	85.51	56.8545
0	50317	85.61	56.9434
0	50376	85.71	57.0323
0	50435	85.81	57.1211
0	50494	85.91	57.21
0	50556	86.01	57.2989
0	50615	86.11	57.3878
0	50674	86.21	57.4767
0	50733	86.31	57.5656
0	50792	86.41	57.6545
0	50851	86.51	57.7434
0	50910	86.61	57.8323
0	50969	86.71	57.9212
0	51028	86.81	58.01
0	51087	86.91	58.0989
0	51149	87.01	58.1878
0	51208	87.11	58.2767
0	51267	87.21	58.3656
0	51326	87.31	58.4545
0	51385	87.41	58.5434
0	51444	87.51	58.6323
0	51503	87.61	58.7212
0	51562	87.71	58.8101
0	51621	87.81	58.8989
0	51680	87.91	58.9878
0	51742	88.01	59.0767
0	51801	88.11	59.1656
0	51860	88.21	59.2545
0	51919	88.31	59.3434
0	51978	88.41	59.4323
0	52037	88.51	59.5212
0	52096	88.61	59.6101
0	52155	88.71	59.699
0	52214	88.81	59.7878
0	52273	88.91	59.8767
0	52335	89.01	59.9656
0	52394	89.11	60.0545
0	52453	89.21	60.1434
0	52512	89.31	60.2323
0	52571	89.41	60.3212
0	52630	89.51	60.4101
0	52689	89.61	60.499
0	52748	89.71	60.5879
0	52807	89.81	60.6767
0	52866	89.91	60.7656
0	52928	90.01	60.8545
0	52987	90.11	60.9434
0	53046	90.21	61.0323
0	53105	90.31	61.1212
0	53164	90.41	61.2101
0	53223	90.51	61.299
0	53282	90.61	61.3879
0	53341	90.71	61.4768
0	53400	90.81	61.5656
0	53459	90.91	61.6545
0	53521	91.01	61.7434
0	53580	91.11	61.8323
0	53639	91.21	61.9212
0	53698	91.31	62.0101
0	53757	91.41	62.099
0	53816	91.51	62.1879
0	53875	91.61	62.2768
0	53934	91.71	62.3657
0	53993	91.81	62.4545
0	54052	91.91	62.5434
0	54114	92.01	62.6323
0	54173	92.11	62.7212
0	54232	92.21	62.8101
0	54291	92.31	62.899
0	54350	92.41	62.9879
0	54409	92.51	63.0768
0	54468	92.61	63.1657
0	54527	92.71	63.2546
0	54586	92.81	63.3434
0	54645	92.91	63.4323
0	54707	93.01	63.5212
0	54766	93.11	63.6101
0	54825	93.21	63.699
0	54884	93.31	63.7879
0	54943	93.41	63.8768
0	55002	93.51	63.9657
0	55061	93.61	64.0546
0	55120	93.71	64.1435
0	55179	93.81	64.2323
0	55238	93.91	64.3212
0	55300	94.01	64.4101
0	55359	94.11	64.499
0	55418	94.21	64.5879
0	55477	94.31	64.6768
0	55536	94.41	64.7657
0	55595	94.51	64.8546
0	55654	94.61	64.9435
0	55713	94.71	65.0324
0	55772	94.81	65.1212
0	55831	94.91	65.2101
0	55893	95.01	65.299
0	55952	95.11	65.3879
0	56011	95.21	65.4768
0	56070	95.31	65.5657
0	56129	95.41	65.6546
0	56188	95.51	65.7435
0	56247	95.61	65.8324
0	56306	95.71	65.9213
0	56365	95.81	66.0101
0	56424	95.91	66.099
0	56486	96.01	66.1879
0	56545	96.11	66.2768
0	56604	96.21	66.3657
0	56663	96.31	66.4546
0	56722	96.41	66.5435
0	56781	96.51	66.6324
0	56840	96.61	66.7213
0	56899	96.71	66.8102
0	56958	96.81	66.899
0	57017	96.91	66.9879
0	57079	97.01	67.0768
0	57138	97.11	67.1657
0	57197	97.21	67.2546
0	57256	97.31	67.3435
0	57315	97.41	67.4324
0	57374	97.51	67.5213
0	57433	97.61	67.6102
0	57492	97.71	67.6991
0	57551	97.81	67.7879
0	57610	97.91	67.8768
0	57672	98.01	67.9657
0	57731	98.11	68.0546
0	57790	98.21	68.1435
0	57849	98.31	68.2324
0	57908	98.41	68.3213
0	57967	98.51	68.4102
0	58026	98.61	68.4991
0	58085	98.71	68.588
0	58144	98.81	68.6768
0	58203	98.91	68.7657
0	58265	99.01	68.8546
0	58324	99.11	68.9435
0	58383	99.21	69.0324
0	58442	99.31	69.1213
0	58501	99.41	69.2102
0	58560	99.51	69.2991
0	58619	99.61	69.388
0	58678	99.71	69.4769
0	58737	99.81	69.5657
0	58796	99.91	69.6546
1	113	1.11	0
1	172	1.21	0
1	231	1.31	0
1	290	1.41	0
1	349	1.51	0
1	408	1.61	0
1	467	1.71	0
1	526	1.81	0
1	585	1.91	0
1	647	2.01	0
1	706	2.11	0
1	765	2.21	0
1	824	2.31	0
1	883	2.41	0
1	942	2.51	0
1	1001	2.61	0
1	1060	2.71	0
1	1119	2.81	0
1	1178	2.91	0
1	1240	3.01	0
1	1299	3.11	0
1	1358	3.21	0
1	1417	3.31	0
1	1476	3.41	0
1	1535	3.51	0
1	1594	3.61	0
1	1653	3.71	0
1	1712	3.81	0
1	1771	3.91	0
1	1833	4.01	0
1	1892	4.11	0
1	1951	4.21	0
1	2010	4.31	0
1	2069	4.41	0
1	2128	4.51	0
1	2187	4.61	0
1	2246	4.71	0
1	2305	4.81	0
1	2364	4.91	0
1	2426	5.01	0
1	2485	5.11	0
1	2544	5.21	0
1	2603	5.31	0
1	2662	5.41	0
1	2721	5.51	0
1	2780	5.61	0
1	2839	5.71	0
1	2898	5.81	0
1	2957	5.91	0
1	3019	6.01	0
1	3078	6.11	0
1	3137	6.21	0
1	3196	6.31	0
1	3255	6.41	0
1	3314	6.51	0
1	3373	6.61	0
1	3432	6.71	0
1	3491	6.81	0
1	3550	6.91	0
1	3612	7.01	0
1	3671	7.11	0
1	3730	7.21	0
1	3789	7.31	0
1	3848	7.41	0
1	3907	7.51	0
1	3966	7.61	0
1	4025	7.71	0
1	4084	7.81	0
1	4143	7.91	0
1	4205	8.01	0
1	4264	8.11	0
1	4323	8.21	0
1	4382	8.31	0
1	4441	8.41	0
1	4500	8.51	0
1	4559	8.61	0
1	4618	8.71	0
1	4677	8.81	0
1	4736	8.91	0
1	4798	9.01	0
1	4857	9.11	0
1	4916	9.21	0
1	4975	9.31	0
1	5034	9.41	0
1	5093	9.51	0
1	5152	9.61	0
1	5211	9.71	0
1	5270	9.81	0
1	5329	9.91	0
1	5488	10.01	0
1	5547	10.11	0
1	5606	10.21	0
1	5665	10.31	0
1	5724	10.41	0
1	5783	10.51	0
1	5842	10.61	0
1	5901	10.71	0
1	5960	10.81	0
1	6019	10.91	0
1	6081	11.01	0
1	6140	11.11	0
1	6199	11.21	0
1	6258	11.31	0
1	6317	11.41	0
1	6376	11.51	0
1	6435	11.61	0
1	6494	11.71	0
1	6553	11.81	0
1	6612	11.91	0
1	6674	12.01	0
1	6733	12.11	0
1	6792	12.21	0
1	6851	12.31	0
1	6910	12.41	0
1	6969	12.51	0
1	7028	12.61	0
1	7087	12.71	0
1	7146	12.81	0
1	7205	12.91	0
1	7267	13.01	0
1	7326	13.11	0
1	7385	13.21	0
1	7444	13.31	0
1	7503	13.41	0
1	7562	13.51	0
1	7621	13.61	0
1	7680	13.71	0
1	7739	13.81	0
1	7798	13.91	0
1	7860	14.01	0
1	7919	14.11	0
1	7978	14.21	0
1	8037	14.31	0
1	8096	14.41	0
1	8155	14.51	0
1	8214	14.61	0
1	8273	14.71	0
1	8332	14.81	0
1	8391	14.91	0
1	8453	15.01	0
1	8512	15.11	0
1	8571	15.21	0
1	8630	15.31	0
1	8689	15.41	0
1	8748	15.51	0
1	8807	15.61	0
1	8866	15.71	0
1	8925	15.81	0
1	8984	15.91	0
1	9046	16.01	0
1	9105	16.11	0
1	9164	16.21	0
1	9223	16.31	0
1	9282	16.41	0
1	9341	16.51	0
1	9400	16.61	0
1	9459	16.71	0
1	9518	16.81	0
1	9577	16.91	0
1	9639	17.01	0
1	9698	17.11	0
1	9757	17.21	0
1	9816	17.31	0
1	9875	17.41	0
1	9934	17.51	0
1	9993	17.61	0
1	10052	17.71	0
1	10111	17.81	0
1	10170	17.91	0
1	10232	18.01	0
1	10291	18.11	0
1	10350	18.21	0
1	10409	18.31	0
1	10468	18.41	0
1	10527	18.51	0
1	10586	18.61	0
1	10645	18.71	0
1	10704	18.81	0
1	10763	18.91	0
1	10825	19.01	0
1	10884	19.11	0
1	10943	19.21	0
1	11002	19.31	0
1	11061	19.41	0
1	11120	19.51	0
1	11179	19.61	0
1	11238	19.71	0
1	11297	19.81	0
1	11356	19.91	0
1	11418	20.01	0
1	11477	20.11	0
1	11536	20.21	0
1	11595	20.31	0
1	11654	20.41	0
1	11713	20.51	0
1	11772	20.61	0
1	11831	20.71	0
1	11890	20.81	0
1	11949	20.91	0
1	12011	21.01	0
1	12070	21.11	0
1	12129	21.21	0
1	12188	21.31	0
1	12247	21.41	0
1	12306	21.51	0
1	12365	21.61	0
1	12424	21.71	0
1	12483	21.81	0
1	12542	21.91	0
1	12604	22.01	0
1	12663	22.11	0
1	12722	22.21	0
1	12781	22.31	0
1	12840	22.41	0
1	12899	22.51	0
1	12958	22.61	0
1	13017	22.71	0
1	13076	22.81	0
1	13135	22.91	0
1	13197	23.01	0
1	13256	23.11	0
1	13315	23.21	0
1	13374	23.31	0
1	13433	23.41	0
1	13492	23.51	0
1	13551	23.61	0
1	13610	23.71	0
1	13669	23.81	0
1	13728	23.91	0
1	13790	24.01	0
1	13849	24.11	0
1	13908	24.21	0
1	13967	24.31	0
1	14026	24.41	0
1	14085	24.51	0
1	14144	24.61	0
1	14203	24.71	0
1	14262	24.81	0
1	14321	24.91	0
1	14383	25.01	0
1	14442	25.11	0
1	14501	25.21	0
1	14560	25.31	0
1	14619	25.41	0
1	14678	25.51	0
1	14737	25.61	0
1	14796	25.71	0
1	14855	25.81	0
1	14914	25.91	0
1	14976	26.01	0
1	15035	26.11	0
1	15094	26.21	0
1	15153	26.31	0
1	15212	26.41	0
1	15271	26.51	0
1	15330	26.61	0
1	15389	26.71	0
1	15448	26.81	0
1	15507	26.91	0
1	15569	27.01	0
1	15628	27.11	0
1	15687	27.21	0
1	15746	27.31	0
1	15805	27.41	0
1	15864	27.51	0
1	15923	27.61	0
1	15982	27.71	0
1	16041	27.81	0
1	16100	27.91	0
1	16162	28.01	0
1	16221	28.11	0
1	16280	28.21	0
1	16339	28.31	0
1	16398	28.41	0
1	16457	28.51	0
1	16516	28.61	0
1	16575	28.71	0
1	16634	28.81	0
1	16693	28.91	0
1	16755	29.01	0
1	16814	29.11	0
1	16873	29.21	0
1	16932	29.31	0
1	16991	29.41	0
1	17050	29.51	0
1	17109	29.61	0
1	17168	29.71	0
1	17227	29.81	0
1	17286	29.91	0
1	17348	30.01	0
1	17407	30.11	0
1	17466	30.21	0
1	17525	30.31	0
1	17584	30.41	0
1	17643	30.51	0
1	17702	30.61	0
1	17761	30.71	0
1	17820	30.81	0
1	17879	30.91	0
1	17941	31.01	0
1	18000	31.11	0
1	18059	31.21	0
1	18118	31.31	0
1	18177	31.41	0
1	18236	31.51	0
1	18295	31.61	0
1	18354	31.71	0
1	18413	31.81	0
1	18472	31.91	0
1	18534	32.01	0
1	18593	32.11	0
1	18652	32.21	0
1	18711	32.31	0
1	18770	32.41	0
1	18829	32.51	0
1	18888	32.61	0
1	18947	32.71	0
1	19006	32.81	0
1	19065	32.91	0
1	19127	33.01	0
1	19186	33.11	0
1	19245	33.21	0
1	19304	33.31	0
1	19363	33.41	0
1	19422	33.51	0
1	19481	33.61	0
1	19540	33.71	0
1	19599	33.81	0
1	19658	33.91	0
1	19720	34.01	0
1	19779	34.11	0
1	19838	34.21	0
1	19897	34.31	0
1	19956	34.41	0
1	20015	34.51	0
1	20074	34.61	0
1	20133	34.71	0
1	20192	34.81	0
1	20251	34.91	0
1	20313	35.01	0
1	20372	35.11	0
1	20431	35.21	0
1	20490	35.31	0
1	20549	35.41	0
1	20608	35.51	0
1	20667	35.61	0
1	20726	35.71	0
1	20785	35.81	0
1	20844	35.91	0
1	20906	36.01	0
1	20965	36.11	0
1	21024	36.21	0
1	21083	36.31	0
1	21142	36.41	0
1	21201	36.51	0
1	21260	36.61	0
1	21319	36.71	0
1	21378	36.81	0
1	21437	36.91	0
1	21499	37.01	0
1	21558	37.11	0
1	21617	37.21	0
1	21676	37.31	0
1	21735	37.41	0
1	21794	37.51	0
1	21853	37.61	0
1	21912	37.71	0
1	21971	37.81	0
1	22030	37.91	0
1	22092	38.01	0
1	22151	38.11	0
1	22210	38.21	0
1	22269	38.31	0
1	22328	38.41	0
1	22387	38.51	0
1	22446	38.61	0
1	22505	38.71	0
1	22564	38.81	0
1	22623	38.91	0
1	22685	39.01	0
1	22744	39.11	0
1	22803	39.21	0
1	22862	39.31	0
1	22921	39.41	0
1	22980	39.51	0
1	23039	39.61	0
1	23098	39.71	0
1	23157	39.81	0
1	23216	39.91	0
1	23278	40.01	0
1	23337	40.11	0
1	23396	40.21	0
1	23455	40.31	0
1	23514	40.41	0
1	23573	40.51	0
1	23632	40.61	0
1	23691	40.71	0
1	23750	40.81	0
1	23809	40.91	0
1	23871	41.01	0
1	23930	41.11	0
1	23989	41.21	0
1	24048	41.31	0
1	24107	41.41	0
1	24166	41.51	0
1	24225	41.61	0
1	24284	41.71	0
1	24343	41.81	0
1	24402	41.91	0
1	24464	42.01	0
1	24523	42.11	0
1	24582	42.21	0
1	24641	42.31	0
1	24700	42.41	0
1	24759	42.51	0
1	24818	42.61	0
1	24877	42.71	0
1	24936	42.81	0
1	24995	42.91	0
1	25057	43.01	0
1	25116	43.11	0
1	25175	43.21	0
1	25234	43.31	0
1	25293	43.41	0
1	25352	43.51	0
1	25411	43.61	0
1	25470	43.71	0
1	25529	43.81	0
1	25588	43.91	0
1	25650	44.01	0
1	25709	44.11	0
1	25768	44.21	0
1	25827	44.31	0
1	25886	44.41	0
1	25945	44.51	0
1	26004	44.61	0
1	26063	44.71	0
1	26122	44.81	0
1	26181	44.91	0
1	26243	45.01	0
1	26302	45.11	0
1	26361	45.21	0
1	26420	45.31	0
1	26479	45.41	0
1	26538	45.51	0
1	26597	45.61	0
1	26656	45.71	0
1	26715	45.81	0
1	26774	45.91	0
1	26836	46.01	0
1	26895	46.11	0
1	26954	46.21	0
1	27013	46.31	0
1	27072	46.41	0
1	27131	46.51	0
1	27190	46.61	0
1	27249	46.71	0
1	27308	46.81	0
1	27367	46.91	0
1	27429	47.01	0
1	27488	47.11	0
1	27547	47.21	0
1	27606	47.31	0
1	27665	47.41	0
1	27724	47.51	0
1	27783	47.61	0
1	27842	47.71	0
1	27901	47.81	0
1	27960	47.91	0
1	28022	48.01	0
1	28081	48.11	0
1	28140	48.21	0
1	28199	48.31	0
1	28258	48.41	0
1	28317	48.51	0
1	28376	48.61	0
1	28435	48.71	0
1	28494	48.81	0
1	28553	48.91	0
1	28615	49.01	0
1	28674	49.11	0
1	28733	49.21	0
1	28792	49.31	0
1	28851	49.41	0
1	28910	49.51	0
1	28969	49.61	0
1	29028	49.71	0
1	29087	49.81	0
1	29146	49.91	0
1	29208	50.01	0
1	29267	50.11	0
1	29326	50.21	0
1	29385	50.31	0
1	29444	50.41	0
1	29503	50.51	0
1	29562	50.61	0
1	29621	50.71	0
1	29680	50.81	0
1	29739	50.91	0
1	29801	51.01	0
1	29860	51.11	0
1	29919	51.21	0
1	29978	51.31	0
1	30037	51.41	0
1	30096	51.51	0
1	30155	51.61	0
1	30214	51.71	0
1	30273	51.81	0
1	30332	51.91	0
1	30394	52.01	0
1	30453	52.11	0
1	30512	52.21	0
1	30571	52.31	0
1	30630	52.41	0
1	30689	52.51	0
1	30748	52.61	0
1	30807	52.71	0
1	30866	52.81	0
1	30925	52.91	0
1	30987	53.01	0
1	31046	53.11	0
1	31105	53.21	0
1	31164	53.31	0
1	31223	53.41	0
1	31282	53.51	0
1	31341	53.61	0
1	31400	53.71	0
1	31459	53.81	0
1	31518	53.91	0
1	31580	54.01	0
1	31639	54.11	0
1	31698	54.21	0
1	31757	54.31	0
1	31816	54.41	0
1	31875	54.51	0
1	31934	54.61	0
1	31993	54.71	0
1	32052	54.81	0
1	32111	54.91	0
1	32173	55.01	0
1	32232	55.11	0
1	32291	55.21	0
1	32350	55.31	0
1	32409	55.41	0
1	32468	55.51	0
1	32527	55.61	0
1	32586	55.71	0
1	32645	55.81	0
1	32704	55.91	0
1	32766	56.01	0
1	32825	56.11	0
1	32884	56.21	0
1	32943	56.31	0
1	33002	56.41	0
1	33061	56.51	0
1	33120	56.61	0
1	33179	56.71	0
1	33238	56.81	0
1	33297	56.91	0
1	33359	57.01	0
1	33418	57.11	0
1	33477	57.21	0
1	33536	57.31	0
1	33595	57.41	0
1	33654	57.51	0
1	33713	57.61	0
1	33772	57.71	0
1	33831	57.81	0
1	33890	57.91	0
1	33952	58.01	0
1	34011	58.11	0
1	34070	58.21	0
1	34129	58.31	0
1	34188	58.41	0
1	34247	58.51	0
1	34306	58.61	0
1	34365	58.71	0
1	34424	58.81	0
1	34483	58.91	0.88953
1	34545	59.01	0.89504
1	34604	59.11	0.905161
1	34663	59.21	0.918762
1	34722	59.31	0.934852
1	34781	59.41	0.952578
1	34840	59.51	0.971206
1	34899	59.61	0.99012
1	34958	59.71	1.00881
1	35017	59.81	1.02684
1	35076	59.91	1.04389
1	35138	60.01	1.05968
1	35197	60.11	1.07403
1	35256	60.21	1.08679
1	35315	60.31	1.09788
1	35374	60.41	1.10724
1	35433	60.51	1.11486
1	35492	60.61	1.12076
1	35551	60.71	1.12499
1	35610	60.81	1.12761
1	35669	60.91	1.12869
1	35731	61.01	1.12832
1	35790	61.11	1.12661
1	35849	61.21	1.12365
1	35908	61.31	1.11954
1	35967	61.41	1.11441
1	36026	61.51	1.10834
1	36085	61.61	1.10144
1	36144	61.71	1.09382
1	36203	61.81	1.08556
1	36262	61.91	1.07676
1	36324	62.01	1.06749
1	36383	62.11	1.05785
1	36442	62.21	1.04789
1	36501	62.31	1.03768
1	36560	62.41	1.02729
1	36619	62.51	1.01676
1	36678	62.61	1.00615
1	36737	62.71	0.99549
1	36796	62.81	0.984857
1	36855	62.91	0.974414
1	36917	63.01	0.964313
1	36976	63.11	0.954674
1	37035	63.21	0.945587
1	37094	63.31	0.937116
1	37153	63.41	0.929301
1	37212	63.51	0.922166
1	37271	63.61	0.915717
1	37330	63.71	0.909944
1	37389	63.81	0.904832
1	37448	63.91	0.900352
1	37510	64.01	0.896472
1	37569	64.11	0.893152
1	37628	64.21	0.890353
1	37687	64.31	0.888031
1	37746	64.41	0.886142
1	37805	64.51	0.884641
1	37864	64.61	0.883486
1	37923	64.71	0.882636
1	37982	64.81	0.882051
1	38041	64.91	0.881694
1	38103	65.01	0.88153
1	38162	65.11	0.881528
1	38221	65.21	0.881659
1	38280	65.31	0.881896
1	38339	65.41	0.882216
1	38398	65.51	0.882598
1	38457	65.61	0.883025
1	38516	65.71	0.88348
1	38575	65.81	0.883951
1	38634	65.91	0.884426
1	38696	66.01	0.884896
1	38755	66.11	0.885353
1	38814	66.21	0.885792
1	38873	66.31	0.886208
1	38932	66.41	0.886597
1	38991	66.51	0.886958
1	39050	66.61	0.887288
1	39109	66.71	0.887589
1	39168	66.81	0.887858
1	39227	66.91	0.888098
1	39289	67.01	0.88831
1	39348	67.11	0.888494
1	39407	67.21	0.888652
1	39466	67.31	0.888786
1	39525	67.41	0.888898
1	39584	67.51	0.88899
1	39643	67.61	0.889064
1	39702	67.71	0.889122
1	39761	67.81	0.889165
1	39820	67.91	0.889196
1	39882	68.01	0.889216
1	39941	68.11	0.889226
1	40000	68.21	0.889229
1	40059	68.31	0.889226
1	40118	68.41	0.889217
1	40177	68.51	0.889204
1	40236	68.61	0.889188
1	40295	68.71	0.88917
1	40354	68.81	0.88915
1	40413	68.91	0.889129
1	40475	69.01	0.889108
1	40534	69.11	0.889087
1	40593	69.21	0.889066
1	40652	69.31	0.889047
1	40711	69.41	0.889028
1	40770	69.51	0.88901
1	40829	69.61	0.888993
1	40888	69.71	0.888978
1	40947	69.81	0.888964
1	41006	69.91	0.888951
1	41068	70.01	0.88894
1	41127	70.11	0.88893
1	41186	70.21	0.888921
1	41245	70.31	0.888914
1	41304	70.41	0.888907
1	41363	70.51	0.888902
1	41422	70.61	0.888898
1	41481	70.71	0.888894
1	41540	70.81	0.888891
1	41599	70.91	0.888889
1	41661	71.01	0.888887
1	41720	71.11	0.888886
1	41779	71.21	0.888886
1	41838	71.31	0.888885
1	41897	71.41	0.888885
1	41956	71.51	0.888886
1	42015	71.61	0.888886
1	42074	71.71	0.888887
1	42133	71.81	0.888888
1	42192	71.91	0.888888
1	42254	72.01	0.888889
1	42313	72.11	0.88889
1	42372	72.21	0.888891
1	42431	72.31	0.888892
1	42490	72.41	0.888893
1	42549	72.51	0.888894
1	42608	72.61	0.888895
1	42667	72.71	0.888896
1	42726	72.81	0.888896
1	42785	72.91	0.888897
1	42847	73.01	0.888897
1	42906	73.11	0.888898
1	42965	73.21	0.888898
1	43024	73.31	0.888899
1	43083	73.41	0.888899
1	43142	73.51	0.8889
1	43201	73.61	0.8889
1	43260	73.71	0.8889
1	43319	73.81	0.8889
1	43378	73.91	0.8889
1	43440	74.01	0.8889
1	43499	74.11	0.888901
1	43558	74.21	0.888901
1	43617	74.31	0.888901
1	43676	74.41	0.888901
1	43735	74.51	0.888901
1	43794	74.61	0.888901
1	43853	74.71	0.888901
1	43912	74.81	0.888901
1	43971	74.91	0.888901
1	44033	75.01	0.888901
1	44092	75.11	0.8889
1	44151	75.21	0.8889
1	44210	75.31	0.8889
1	44269	75.41	0.8889
1	44328	75.51	0.8889
1	44387	75.61	0.8889
1	44446	75.71	0.8889
1	44505	75.81	0.8889
1	44564	75.91	0.8889
1	44626	76.01	0.8889
1	44685	76.11	0.8889
1	44744	76.21	0.8889
1	44803	76.31	0.8889
1	44862	76.41	0.8889
1	44921	76.51	0.8889
1	44980	76.61	0.8889
1	45039	76.71	0.8889
1	45098	76.81	0.8889
1	45157	76.91	0.8889
1	45219	77.01	0.8889
1	45278	77.11	0.8889
1	45337	77.21	0.8889
1	45396	77.31	0.8889
1	45455	77.41	0.8889
1	45514	77.51	0.8889
1	45573	77.61	0.8889
1	45632	77.71	0.8889
1	45691	77.81	0.8889
1	45750	77.91	0.8889
1	45812	78.01	0.8889
1	45871	78.11	0.8889
1	45930	78.21	0.8889
1	45989	78.31	0.8889
1	46048	78.41	0.8889
1	46107	78.51	0.8889
1	46166	78.61	0.8889
1	46225	78.71	0.8889
1	46284	78.81	0.8889
1	46343	78.91	0.8889
1	46405	79.01	0.8889
1	46464	79.11	0.8889
1	46523	79.21	0.8889
1	46582	79.31	0.8889
1	46641	79.41	0.8889
1	46700	79.51	0.8889
1	46759	79.61	0.8889
1	46818	79.71	0.8889
1	46877	79.81	0.8889
1	46936	79.91	0.8889
1	46998	80.01	0.8889
1	47057	80.11	0.8889
1	47116	80.21	0.8889
1	47175	80.31	0.8889
1	47234	80.41	0.8889
1	47293	80.51	0.8889
1	47352	80.61	0.8889
1	47411	80.71	0.8889
1	47470	80.81	0.8889
1	47529	80.91	0.8889
1	47591	81.01	0.8889
1	47650	81.11	0.8889
1	47709	81.21	0.8889
1	47768	81.31	0.8889
1	47827	81.41	0.8889
1	47886	81.51	0.8889
1	47945	81.61	0.8889
1	48004	81.71	0.8889
1	48063	81.81	0.8889
1	48122	81.91	0.8889
1	48184	82.01	0.8889
1	48243	82.11	0.8889
1	48302	82.21	0.8889
1	48361	82.31	0.8889
1	48420	82.41	0.8889
1	48479	82.51	0.8889
1	48538	82.61	0.8889
1	48597	82.71	0.8889
1	48656	82.81	0.8889
1	48715	82.91	0.8889
1	48777	83.01	0.8889
1	48836	83.11	0.8889
1	48895	83.21	0.8889
1	48954	83.31	0.8889
1	49013	83.41	0.8889
1	49072	83.51	0.8889
1	49131	83.61	0.8889
1	49190	83.71	0.8889
1	49249	83.81	0.8889
1	49308	83.91	0.8889
1	49370	84.01	0.8889
1	49429	84.11	0.8889
1	49488	84.21	0.8889
1	49547	84.31	0.8889
1	49606	84.41	0.8889
1	49665	84.51	0.8889
1	49724	84.61	0.8889
1	49783	84.71	0.8889
1	49842	84.81	0.8889
1	49901	84.91	0.8889
1	49963	85.01	0.8889
1	50022	85.11	0.8889
1	50081	85.21	0.8889
1	50140	85.31	0.8889
1	50199	85.41	0.8889
1	50258	85.51	0.8889
1	50317	85.61	0.8889
1	50376	85.71	0.8889
1	50435	85.81	0.8889
1	50494	85.91	0.8889
1	50556	86.01	0.8889
1	50615	86.11	0.8889
1	50674	86.21	0.8889
1	50733	86.31	0.8889
1	50792	86.41	0.8889
1	50851	86.51	0.8889
1	50910	86.61	0.8889
1	50969	86.71	0.8889
1	51028	86.81	0.8889
1	51087	86.91	0.8889
1	51149	87.01	0.8889
1	51208	87.11	0.8889
1	51267	87.21	0.8889
1	51326	87.31	0.8889
1	51385	87.41	0.8889
1	51444	87.51	0.8889
1	51503	87.61	0.8889
1	51562	87.71	0.8889
1	51621	87.81	0.8889
1	51680	87.91	0.8889
1	51742	88.01	0.8889
1	51801	88.11	0.8889
1	51860	88.21	0.8889
1	51919	88.31	0.8889
1	51978	88.41	0.8889
1	52037	88.51	0.8889
1	52096	88.61	0.8889
1	52155	88.71	0.8889
1	52214	88.81	0.8889
1	52273	88.91	0.8889
1	52335	89.01	0.8889
1	52394	89.11	0.8889
1	52453	89.21	0.8889
1	52512	89.31	0.8889
1	52571	89.41	0.8889
1	52630	89.51	0.8889
1	52689	89.61	0.8889
1	52748	89.71	0.8889
1	52807	89.81	0.8889
1	52866	89.91	0.8889
1	52928	90.01	0.8889
1	52987	90.11	0.8889
1	53046	90.21	0.8889
1	53105	90.31	0.8889
1	53164	90.41	0.8889
1	53223	90.51	0.8889
1	53282	90.61	0.8889
1	53341	90.71	0.8889
1	53400	90.81	0.8889
1	53459	90.91	0.8889
1	53521	91.01	0.8889
1	53580	91.11	0.8889
1	53639	91.21	0.8889
1	53698	91.31	0.8889
1	53757	91.41	0.8889
1	53816	91.51	0.8889
1	53875	91.61	0.8889
1	53934	91.71	0.8889
1	53993	91.81	0.8889
1	54052	91.91	0.8889
1	54114	92.01	0.8889
1	54173	92.11	0.8889
1	54232	92.21	0.8889
1	54291	92.31	0.8889
1	54350	92.41	0.8889
1	54409	92.51	0.8889
1	54468	92.61	0.8889
1	54527	92.71	0.8889
1	54586	92.81	0.8889
1	54645	92.91	0.8889
1	54707	93.01	0.8889
1	54766	93.11	0.8889
1	54825	93.21	0.8889
1	54884	93.31	0.8889
1	54943	93.41	0.8889
1	55002	93.51	0.8889
1	55061	93.61	0.8889
1	55120	93.71	0.8889
1	55179	93.81	0.8889
1	55238	93.91	0.8889
1	55300	94.01	0.8889
1	55359	94.11	0.8889
1	55418	94.21	0.8889
1	55477	94.31	0.8889
1	55536	94.41	0.8889
1	55595	94.51	0.8889
1	55654	94.61	0.8889
1	55713	94.71	0.8889
1	55772	94.81	0.8889
1	55831	94.91	0.8889
1	55893	95.01	0.8889
1	55952	95.11	0.8889
1	56011	95.21	0.8889
1	56070	95.31	0.8889
1	56129	95.41	0.8889
1	56188	95.51	0.8889
1	56247	95.61	0.8889
1	56306	95.71	0.8889
1	56365	95.81	0.8889
1	56424	95.91	0.8889
1	56486	96.01	0.8889
1	56545	96.11	0.8889
1	56604	96.21	0.8889
1	56663	96.31	0.8889
1	56722	96.41	0.8889
1	56781	96.51	0.8889
1	56840	96.61	0.8889
1	56899	96.71	0.8889
1	56958	96.81	0.8889
1	57017	96.91	0.8889
1	57079	97.01	0.8889
1	57138	97.11	0.8889
1	57197	97.21	0.8889
1	57256	97.31	0.8889
1	57315	97.41	0.8889
1	57374	97.51	0.8889
1	57433	97.61	0.8889
1	57492	97.71	0.8889
1	57551	97.81	0.8889
1	57610	97.91	0.8889
1	57672	98.01	0.8889
1	57731	98.11	0.8889
1	57790	98.21	0.8889
1	57849	98.31	0.8889
1	57908	98.41	0.8889
1	57967	98.51	0.8889
1	58026	98.61	0.8889
1	58085	98.71	0.8889
1	58144	98.81	0.8889
1	58203	98.91	0.8889
1	58265	99.01	0.8889
1	58324	99.11	0.8889
1	58383	99.21	0.8889
1	58442	99.31	0.8889
1	58501	99.41	0.8889
1	58560	99.51	0.8889
1	58619	99.61	0.8889
1	58678	99.71	0.8889
1	58737	99.81	0.8889
1	58796	99.91	0.8889
2	113	1.11	0
2	172	1.21	0
2	231	1.31	0
2	290	1.41	0
2	349	1.51	0
2	408	1.61	0
2	467	1.71	0
2	526	1.81	0
2	585	1.91	0
2	647	2.01	0
2	706	2.11	0
2	765	2.21	0
2	824	2.31	0
2	883	2.41	0
2	942	2.51	0
2	1001	2.61	0
2	1060	2.71	0
2	1119	2.81	0
2	1178	2.91	0
2	1240	3.01	0
2	1299	3.11	0
2	1358	3.21	0
2	1417	3.31	0
2	1476	3.41	0
2	1535	3.51	0
2	1594	3.61	0
2	1653	3.71	0
2	1712	3.81	0
2	1771	3.91	0
2	1833	4.01	0
2	1892	4.11	0
2	1951	4.21	0
2	2010	4.31	0
2	2069	4.41	0
2	2128	4.51	0
2	2187	4.61	0
2	2246	4.71	0
2	2305	4.81	0
2	2364	4.91	0
2	2426	5.01	0
2	2485	5.11	0
2	2544	5.21	0
2	2603	5.31	0
2	2662	5.41	0
2	2721	5.51	0
2	2780	5.61	0
2	2839	5.71	0
2	2898	5.81	0
2	2957	5.91	0
2	3019	6.01	0
2	3078	6.11	0
2	3137	6.21	0
2	3196	6.31	0
2	3255	6.41	0
2	3314	6.51	0
2	3373	6.61	0
2	3432	6.71	0
2	3491	6.81	0
2	3550	6.91	0
2	3612	7.01	0
2	3671	7.11	0
2	3730	7.21	0
2	3789	7.31	0
2	3848	7.41	0
2	3907	7.51	0
2	3966	7.61	0
2	4025	7.71	0
2	4084	7.81	0
2	4143	7.91	0
2	4205	8.01	0
2	4264	8.11	0
2	4323	8.21	0
2	4382	8.31	0
2	4441	8.41	0
2	4500	8.51	0
2	4559	8.61	0
2	4618	8.71	0
2	4677	8.81	0
2	4736	8.91	0
2	4798	9.01	0
2	4857	9.11	0
2	4916	9.21	0
2	4975	9.31	0
2	5034	9.41	0
2	5093	9.51	0
2	5152	9.61	0
2	5211	9.71	0
2	5270	9.81	0
2	5329	9.91	0
2	5488	10.01	0
2	5547	10.11	0
2	5606	10.21	0
2	5665	10.31	0
2	5724	10.41	0
2	5783	10.51	0
2	5842	10.61	0
2	5901	10.71	0
2	5960	10.81	0
2	6019	10.91	0
2	6081	11.01	0
2	6140	11.11	0
2	6199	11.21	0
2	6258	11.31	0
2	6317	11.41	0
2	6376	11.51	0
2	6435	11.61	0
2	6494	11.71	0
2	6553	11.81	0
2	6612	11.91	0
2	6674	12.01	0
2	6733	12.11	0
2	6792	12.21	0
2	6851	12.31	0
2	6910	12.41	0
2	6969	12.51	0
2	7028	12.61	0
2	7087	12.71	0
2	7146	12.81	0
2	7205	12.91	0
2	7267	13.01	0
2	7326	13.11	0
2	7385	13.21	0
2	7444	13.31	0
2	7503	13.41	0
2	7562	13.51	0
2	7621	13.61	0
2	7680	13.71	0
2	7739	13.81	0
2	7798	13.91	0
2	7860	14.01	0
2	7919	14.11	0
2	7978	14.21	0
2	8037	14.31	0
2	8096	14.41	0
2	8155	14.51	0
2	8214	14.61	0
2	8273	14.71	0
2	8332	14.81	0
2	8391	14.91	0
2	8453	15.01	0
2	8512	15.11	0
2	8571	15.21	0
2	8630	15.31	0
2	8689	15.41	0
2	8748	15.51	0
2	8807	15.61	0
2	8866	15.71	0
2	8925	15.81	0
2	8984	15.91	0
2	9046	16.01	0
2	9105	16.11	0
2	9164	16.21	0
2	9223	16.31	0
2	9282	16.41	0
2	9341	16.51	0
2	9400	16.61	0
2	9459	16.71	0
2	9518	16.81	0
2	9577	16.91	0
2	9639	17.01	0
2	9698	17.11	0
2	9757	17.21	0
2	9816	17.31	0
2	9875	17.41	0
2	9934	17.51	0
2	9993	17.61	0
2	10052	17.71	0
2	10111	17.81	0
2	10170	17.91	0
2	10232	18.01	0
2	10291	18.11	0
2	10350	18.21	0
2	10409	18.31	0
2	10468	18.41	0
2	10527	18.51	0
2	10586	18.61	0
2	10645	18.71	0
2	10704	18.81	0
2	10763	18.91	0
2	10825	19.01	0
2	10884	19.11	0
2	10943	19.21	0
2	11002	19.31	0
2	11061	19.41	0
2	11120	19.51	0
2	11179	19.61	0
2	11238	19.71	0
2	11297	19.81	0
2	11356	19.91	0
2	11418	20.01	0
2	11477	20.11	0
2	11536	20.21	0
2	11595	20.31	0
2	11654	20.41	0
2	11713	20.51	0
2	11772	20.61	0
2	11831	20.71	0
2	11890	20.81	0
2	11949	20.91	0
2	12011	21.01	0
2	12070	21.11	0
2	12129	21.21	0
2	12188	21.31	0
2	12247	21.41	0
2	12306	21.51	0
2	12365	21.61	0
2	12424	21.71	0
2	12483	21.81	0
2	12542	21.91	0
2	12604	22.01	0
2	12663	22.11	0
2	12722	22.21	0
2	12781	22.31	0
2	12840	22.41	0
2	12899	22.51	0
2	12958	22.61	0
2	13017	22.71	0
2	13076	22.81	0
2	13135	22.91	0
2	13197	23.01	0
2	13256	23.11	0
2	13315	23.21	0
2	13374	23.31	0
2	13433	23.41	0
2	13492	23.51	0
2	13551	23.61	0
2	13610	23.71	0
2	13669	23.81	0
2	13728	23.91	0
2	13790	24.01	0
2	13849	24.11	0
2	13908	24.21	0
2	13967	24.31	0
2	14026	24.41	0
2	14085	24.51	0
2	14144	24.61	0
2	14203	24.71	0
2	14262	24.81	0
2	14321	24.91	0
2	14383	25.01	0
2	14442	25.11	0
2	14501	25.21	0
2	14560	25.31	0
2	14619	25.41	0
2	14678	25.51	0
2	14737	25.61	0
2	14796	25.71	0
2	14855	25.81	0
2	14914	25.91	0
2	14976	26.01	0
2	15035	26.11	0
2	15094	26.21	0
2	15153	26.31	0
2	15212	26.41	0
2	15271	26.51	0
2	15330	26.61	0
2	15389	26.71	0
2	15448	26.81	0
2	15507	26.91	0
2	15569	27.01	0
2	15628	27.11	0
2	15687	27.21	0
2	15746	27.31	0
2	15805	27.41	0
2	15864	27.51	0
2	15923	27.61	0
2	15982	27.71	0
2	16041	27.81	0
2	16100	27.91	0
2	16162	28.01	0
2	16221	28.11	0
2	16280	28.21	0
2	16339	28.31	0
2	16398	28.41	0
2	16457	28.51	0
2	16516	28.61	0
2	16575	28.71	0
2	16634	28.81	0
2	16693	28.91	0
2	16755	29.01	0
2	16814	29.11	0
2	16873	29.21	0
2	16932	29.31	0
2	16991	29.41	0
2	17050	29.51	0
2	17109	29.61	0
2	17168	29.71	0
2	17227	29.81	0
2	17286	29.91	0
2	17348	30.01	0
2	17407	30.11	0
2	17466	30.21	0
2	17525	30.31	0
2	17584	30.41	0
2	17643	30.51	0
2	17702	30.61	0
2	17761	30.71	0
2	17820	30.81	0
2	17879	30.91	0
2	17941	31.01	0
2	18000	31.11	0
2	18059	31.21	0
2	18118	31.31	0
2	18177	31.41	0
2	18236	31.51	0
2	18295	31.61	0
2	18354	31.71	0
2	18413	31.81	0
2	18472	31.91	0
2	18534	32.01	0
2	18593	32.11	0
2	18652	32.21	0
2	18711	32.31	0
2	18770	32.41	0
2	18829	32.51	0
2	18888	32.61	0
2	18947	32.71	0
2	19006	32.81	0
2	19065	32.91	0
2	19127	33.01	0
2	19186	33.11	0
2	19245	33.21	0
2	19304	33.31	0
2	19363	33.41	0
2	19422	33.51	0
2	19481	33.61	0
2	19540	33.71	0
2	19599	33.81	0
2	19658	33.91	0
2	19720	34.01	0
2	19779	34.11	0
2	19838	34.21	0
2	19897	34.31	0
2	19956	34.41	0
2	20015	34.51	0
2	20074	34.61	0
2	20133	34.71	0
2	20192	34.81	0
2	20251	34.91	0
2	20313	35.01	0
2	20372	35.11	0
2	20431	35.21	0
2	20490	35.31	0
2	20549	35.41	0
2	20608	35.51	0
2	20667	35.61	0
2	20726	35.71	0
2	20785	35.81	0
2	20844	35.91	0
2	20906	36.01	0
2	20965	36.11	0
2	21024	36.21	0
2	21083	36.31	0
2	21142	36.41	0
2	21201	36.51	0
2	21260	36.61	0
2	21319	36.71	0
2	21378	36.81	0
2	21437	36.91	0
2	21499	37.01	0
2	21558	37.11	0
2	21617	37.21	0
2	21676	37.31	0
2	21735	37.41	0
2	21794	37.51	0
2	21853	37.61	0
2	21912	37.71	0
2	21971	37.81	0
2	22030	37.91	0
2	22092	38.01	0
2	22151	38.11	0
2	22210	38.21	0
2	22269	38.31	0
2	22328	38.41	0
2	22387	38.51	0
2	22446	38.61	0
2	22505	38.71	0
2	22564	38.81	0
2	22623	38.91	0
2	22685	39.01	0
2	22744	39.11	0
2	22803	39.21	0
2	22862	39.31	0
2	22921	39.41	0
2	22980	39.51	0
2	23039	39.61	0
2	23098	39.71	0
2	23157	39.81	0
2	23216	39.91	0
2	23278	40.01	0
2	23337	40.11	0
2	23396	40.21	0
2	23455	40.31	0
2	23514	40.41	0
2	23573	40.51	0
2	23632	40.61	0
2	23691	40.71	0
2	23750	40.81	0
2	23809	40.91	0
2	23871	41.01	0
2	23930	41.11	0
2	23989	41.21	0
2	24048	41.31	0
2	24107	41.41	0
2	24166	41.51	0
2	24225	41.61	0
2	24284	41.71	0
2	24343	41.81	0
2	24402	41.91	0
2	24464	42.01	0
2	24523	42.11	0
2	24582	42.21	0
2	24641	42.31	0
2	24700	42.41	0
2	24759	42.51	0
2	24818	42.61	0
2	24877	42.71	0
2	24936	42.81	0
2	24995	42.91	0
2	25057	43.01	0
2	25116	43.11	0
2	25175	43.21	0
2	25234	43.31	0
2	25293	43.41	0
2	25352	43.51	0
2	25411	43.61	0
2	25470	43.71	0
2	25529	43.81	0
2	25588	43.91	0
2	25650	44.01	0
2	25709	44.11	0
2	25768	44.21	0
2	25827	44.31	0
2	25886	44.41	0
2	25945	44.51	0
2	26004	44.61	0
2	26063	44.71	0
2	26122	44.81	0
2	26181	44.91	0
2	26243	45.01	0
2	26302	45.11	0
2	26361	45.21	0
2	26420	45.31	0
2	26479	45.41	0
2	26538	45.51	0
2	26597	45.61	0
2	26656	45.71	0
2	26715	45.81	0
2	26774	45.91	0
2	26836	46.01	0
2	26895	46.11	0
2	26954	46.21	0
2	27013	46.31	0
2	27072	46.41	0
2	27131	46.51	0
2	27190	46.61	0
2	27249	46.71	0
2	27308	46.81	0
2	27367	46.91	0
2	27429	47.01	0
2	27488	47.11	0
2	27547	47.21	0
2	27606	47.31	0
2	27665	47.41	0
2	27724	47.51	0
2	27783	47.61	0
2	27842	47.71	0
2	27901	47.81	0
2	27960	47.91	0
2	28022	48.01	0
2	28081	48.11	0
2	28140	48.21	0
2	28199	48.31	0
2	28258	48.41	0
2	28317	48.51	0
2	28376	48.61	0
2	28435	48.71	0
2	28494	48.81	0
2	28553	48.91	0
2	28615	49.01	0
2	28674	49.11	0
2	28733	49.21	0
2	28792	49.31	0
2	28851	49.41	0
2	28910	49.51	0
2	28969	49.61	0
2	29028	49.71	0
2	29087	49.81	0
2	29146	49.91	0
2	29208	50.01	0
2	29267	50.11	0
2	29326	50.21	0
2	29385	50.31	0
2	29444	50.41	0
2	29503	50.51	0
2	29562	50.61	0
2	29621	50.71	0
2	29680	50.81	0
2	29739	50.91	0
2	29801	51.01	0
2	29860	51.11	0
2	29919	51.21	0
2	29978	51.31	0
2	30037	51.41	0
2	30096	51.51	0
2	30155	51.61	0
2	30214	51.71	0
2	30273	51.81	0
2	30332	51.91	0
2	30394	52.01	0
2	30453	52.11	0
2	30512	52.21	0
2	30571	52.31	0
2	30630	52.41	0
2	30689	52.51	0
2	30748	52.61	0
2	30807	52.71	0
2	30866	52.81	0
2	30925	52.91	0
2	30987	53.01	0
2	31046	53.11	0
2	31105	53.21	0
2	31164	53.31	0
2	31223	53.41	0
2	31282	53.51	0
2	31341	53.61	0
2	31400	53.71	0
2	31459	53.81	0
2	31518	53.91	0
2	31580	54.01	0
2	31639	54.11	0
2	31698	54.21	0
2	31757	54.31	0
2	31816	54.41	0
2	31875	54.51	0
2	31934	54.61	0
2	31993	54.71	0
2	32052	54.81	0
2	32111	54.91	0
2	32173	55.01	0
2	32232	55.11	0
2	32291	55.21	0
2	32350	55.31	0
2	32409	55.41	0
2	32468	55.51	0
2	32527	55.61	0
2	32586	55.71	0
2	32645	55.81	0
2	32704	55.91	0
2	32766	56.01	0
2	32825	56.11	0
2	32884	56.21	0
2	32943	56.31	0
2	33002	56.41	0
2	33061	56.51	0
2	33120	56.61	0
2	33179	56.71	0
2	33238	56.81	0
2	33297	56.91	0
2	33359	57.01	0
2	33418	57.11	0
2	33477	57.21	0
2	33536	57.31	0
2	33595	57.41	0
2	33654	57.51	0
2	33713	57.61	0
2	33772	57.71	0
2	33831	57.81	0
2	33890	57.91	0
2	33952	58.01	0
2	34011	58.11	0
2	34070	58.21	0
2	34129	58.31	0
2	34188	58.41	0
2	34247	58.51	0
2	34306	58.61	0
2	34365	58.71	0
2	34424	58.81	0
2	34483	58.91	0
2	34545	59.01	0
2	34604	59.11	0
2	34663	59.21	0
2	34722	59.31	0
2	34781	59.41	0
2	34840	59.51	0
2	34899	59.61	0
2	34958	59.71	0
2	35017	59.81	0
2	35076	59.91	0
2	35138	60.01	0
2	35197	60.11	0
2	35256	60.21	0
2	35315	60.31	0
2	35374	60.41	0
2	35433	60.51	0
2	35492	60.61	0
2	35551	60.71	0
2	35610	60.81	0
2	35669	60.91	0
2	35731	61.01	0
2	35790	61.11	0
2	35849	61.21	0
2	35908	61.31	0
2	35967	61.41	0
2	36026	61.51	0
2	36085	61.61	0
2	36144	61.71	0
2	36203	61.81	0
2	36262	61.91	0
2	36324	62.01	0
2	36383	62.11	0
2	36442	62.21	0
2	36501	62.31	0
2	36560	62.41	0
2	36619	62.51	0
2	36678	62.61	0
2	36737	62.71	0
2	36796	62.81	0
2	36855	62.91	0
2	36917	63.01	0
2	36976	63.11	0
2	37035	63.21	0
2	37094	63.31	0
2	37153	63.41	0
2	37212	63.51	0
2	37271	63.61	0
2	37330	63.71	0
2	37389	63.81	0
2	37448	63.91	0
2	37510	64.01	0
2	37569	64.11	0
2	37628	64.21	0
2	37687	64.31	0
2	37746	64.41	0
2	37805	64.51	0
2	37864	64.61	0
2	37923	64.71	0
2	37982	64.81	0
2	38041	64.91	0
2	38103	65.01	0
2	38162	65.11	0
2	38221	65.21	0
2	38280	65.31	0
2	38339	65.41	0
2	38398	65.51	0
2	38457	65.61	0
2	38516	65.71	0
2	38575	65.81	0
2	38634	65.91	0
2	38696	66.01	0
2	38755	66.11	0
2	38814	66.21	0
2	38873	66.31	0
2	38932	66.41	0
2	38991	66.51	0
2	39050	66.61	0
2	39109	66.71	0
2	39168	66.81	0
2	39227	66.91	0
2	39289	67.01	0
2	39348	67.11	0
2	39407	67.21	0
2	39466	67.31	0
2	39525	67.41	0
2	39584	67.51	0
2	39643	67.61	0
2	39702	67.71	0
2	39761	67.81	0
2	39820	67.91	0
2	39882	68.01	0
2	39941	68.11	0
2	40000	68.21	0
2	40059	68.31	0
2	40118	68.41	0
2	40177	68.51	0
2	40236	68.61	0
2	40295	68.71	0
2	40354	68.81	0
2	40413	68.91	0
2	40475	69.01	0
2	40534	69.11	0
2	40593	69.21	0
2	40652	69.31	0
2	40711	69.41	0
2	40770	69.51	0
2	40829	69.61	0
2	40888	69.71	0
2	40947	69.81	0
2	41006	69.91	0
2	41068	70.01	0
2	41127	70.11	0
2	41186	70.21	0
2	41245	70.31	0
2	41304	70.41	0
2	41363	70.51	0
2	41422	70.61	0
2	41481	70.71	0
2	41540	70.81	0
2	41599	70.91	0
2	41661	71.01	0
2	41720	71.11	0
2	41779	71.21	0
2	41838	71.31	0
2	41897	71.41	0
2	41956	71.51	0
2	42015	71.61	0
2	42074	71.71	0
2	42133	71.81	0
2	42192	71.91	0
2	42254	72.01	0
2	42313	72.11	0
2	42372	72.21	0
2	42431	72.31	0
2	42490	72.41	0
2	42549	72.51	0
2	42608	72.61	0
2	42667	72.71	0
2	42726	72.81	0
2	42785	72.91	0
2	42847	73.01	0
2	42906	73.11	0
2	42965	73.21	0
2	43024	73.31	0
2	43083	73.41	0
2	43142	73.51	0
2	43201	73.61	0
2	43260	73.71	0
2	43319	73.81	0
2	43378	73.91	0
2	43440	74.01	0
2	43499	74.11	0
2	43558	74.21	0
2	43617	74.31	0
2	43676	74.41	0
2	43735	74.51	0
2	43794	74.61	0
2	43853	74.71	0
2	43912	74.81	0
2	43971	74.91	0
2	44033	75.01	0
2	44092	75.11	0
2	44151	75.21	0
2	44210	75.31	0
2	44269	75.41	0
2	44328	75.51	0
2	44387	75.61	0
2	44446	75.71	0
2	44505	75.81	0
2	44564	75.91	0
2	44626	76.01	0
2	44685	76.11	0
2	44744	76.21	0
2	44803	76.31	0
2	44862	76.41	0
2	44921	76.51	0
2	44980	76.61	0
2	45039	76.71	0
2	45098	76.81	0
2	45157	76.91	0
2	45219	77.01	0
2	45278	77.11	0
2	45337	77.21	0
2	45396	77.31	0
2	45455	77.41	0
2	45514	77.51	0
2	45573	77.61	0
2	45632	77.71	0
2	45691	77.81	0
2	45750	77.91	0
2	45812	78.01	0
2	45871	78.11	0
2	45930	78.21	0
2	45989	78.31	0
2	46048	78.41	0
2	46107	78.51	0
2	46166	78.61	0
2	46225	78.71	0
2	46284	78.81	0
2	46343	78.91	0
2	46405	79.01	0
2	46464	79.11	0
2	46523	79.21	0
2	46582	79.31	0
2	46641	79.41	0
2	46700	79.51	0
2	46759	79.61	0
2	46818	79.71	0
2	46877	79.81	0
2	46936	79.91	0
2	46998	80.01	0
2	47057	80.11	0
2	47116	80.21	0
2	47175	80.31	0
2	47234	80.41	0
2	47293	80.51	0
2	47352	80.61	0
2	47411	80.71	0
2	47470	80.81	0
2	47529	80.91	0
2	47591	81.01	0
2	47650	81.11	0
2	47709	81.21	0
2	47768	81.31	0
2	47827	81.41	0
2	47886	81.51	0
2	47945	81.61	0
2	48004	81.71	0
2	48063	81.81	0
2	48122	81.91	0
2	48184	82.01	0
2	48243	82.11	0
2	48302	82.21	0
2	48361	82.31	0
2	48420	82.41	0
2	48479	82.51	0
2	48538	82.61	0
2	48597	82.71	0
2	48656	82.81	0
2	48715	82.91	0
2	48777	83.01	0
2	48836	83.11	0
2	48895	83.21	0
2	48954	83.31	0
2	49013	83.41	0
2	49072	83.51	0
2	49131	83.61	0
2	49190	83.71	0
2	49249	83.81	0
2	49308	83.91	0
2	49370	84.01	0
2	49429	84.11	0
2	49488	84.21	0
2	49547	84.31	0
2	49606	84.41	0
2	49665	84.51	0
2	49724	84.61	0
2	49783	84.71	0
2	49842	84.81	0
2	49901	84.91	0
2	49963	85.01	0
2	50022	85.11	0
2	50081	85.21	0
2	50140	85.31	0
2	50199	85.41	0
2	50258	85.51	0
2	50317	85.61	0
2	50376	85.71	0
2	50435	85.81	0
2	50494	85.91	0
2	50556	86.01	0
2	50615	86.11	0
2	50674	86.21	0
2	50733	86.31	0
2	50792	86.41	0
2	50851	86.51	0
2	50910	86.61	0
2	50969	86.71	0
2	51028	86.81	0
2	51087	86.91	0
2	51149	87.01	0
2	51208	87.11	0
2	51267	87.21	0
2	51326	87.31	0
2	51385	87.41	0
2	51444	87.51	0
2	51503	87.61	0
2	51562	87.71	0
2	51621	87.81	0
2	51680	87.91	0
2	51742	88.01	0
2	51801	88.11	0
2	51860	88.21	0
2	51919	88.31	0
2	51978	88.41	0
2	52037	88.51	0
2	52096	88.61	0
2	52155	88.71	0
2	52214	88.81	0
2	52273	88.91	0
2	52335	89.01	0
2	52394	89.11	0
2	52453	89.21	0
2	52512	89.31	0
2	52571	89.41	0
2	52630	89.51	0
2	52689	89.61	0
2	52748	89.71	0
2	52807	89.81	0
2	52866	89.91	0
2	52928	90.01	0
2	52987	90.11	0
2	53046	90.21	0
2	53105	90.31	0
2	53164	90.41	0
2	53223	90.51	0
2	53282	90.61	0
2	53341	90.71	0
2	53400	90.81	0
2	53459	90.91	0
2	53521	91.01	0
2	53580	91.11	0
2	53639	91.21	0
2	53698	91.31	0
2	53757	91.41	0
2	53816	91.51	0
2	53875	91.61	0
2	53934	91.71	0
2	53993	91.81	0
2	54052	91.91	0
2	54114	92.01	0
2	54173	92.11	0
2	54232	92.21	0
2	54291	92.31	0
2	54350	92.41	0
2	54409	92.51	0
2	54468	92.61	0
2	54527	92.71	0
2	54586	92.81	0
2	54645	92.91	0
2	54707	93.01	0
2	54766	93.11	0
2	54825	93.21	0
2	54884	93.31	0
2	54943	93.41	0
2	55002	93.51	0
2	55061	93.61	0
2	55120	93.71	0
2	55179	93.81	0
2	55238	93.91	0
2	55300	94.01	0
2	55359	94.11	0
2	55418	94.21	0
2	55477	94.31	0
2	55536	94.41	0
2	55595	94.51	0
2	55654	94.61	0
2	55713	94.71	0
2	55772	94.81	0
2	55831	94.91	0
2	55893	95.01	0
2	55952	95.11	0
2	56011	95.21	0
2	56070	95.31	0
2	56129	95.41	0
2	56188	95.51	0
2	56247	95.61	0
2	56306	95.71	0
2	56365	95.81	0
2	56424	95.91	0
2	56486	96.01	0
2	56545	96.11	0
2	56604	96.21	0
2	56663	96.31	0
2	56722	96.41	0
2	56781	96.51	0
2	56840	96.61	0
2	56899	96.71	0
2	56958	96.81	0
2	57017	96.91	0
2	57079	97.01	0
2	57138	97.11	0
2	57197	97.21	0
2	57256	97.31	0
2	57315	97.41	0
2	57374	97.51	0
2	57433	97.61	0
2	57492	97.71	0
2	57551	97.81	0
2	57610	97.91	0
2	57672	98.01	0
2	57731	98.11	0
2	57790	98.21	0
2	57849	98.31	0
2	57908	98.41	0
2	57967	98.51	0
2	58026	98.61	0
2	58085	98.71	0
2	58144	98.81	0
2	58203	98.91	0
2	58265	99.01	0
2	58324	99.11	0
2	58383	99.21	0
2	58442	99.31	0
2	58501	99.41	0
2	58560	99.51	0
2	58619	99.61	0
2	58678	99.71	0
2	58737	99.81	0
2	58796	99.91	0
3	113	1.11	0.000179096
3	172	1.21	0.000340852
3	231	1.31	0.000467435
3	290	1.41	0.000562893
3	349	1.51	0.000631106
3	408	1.61	0.000675745
3	467	1.71	0.000700245
3	526	1.81	0.000707784
3	585	1.91	0.000701273
3	647	2.01	0.000683354
3	706	2.11	0.000656398
3	765	2.21	0.000622512
3	824	2.31	0.000583548
3	883	2.41	0.000541117
3	942	2.51	0.000496604
3	1001	2.61	0.000451181
3	1060	2.71	0.000405825
3	1119	2.81	0.00036134
3	1178	2.91	0.000318365
3	1240	3.01	0.0002774
3	1299	3.11	0.00023882
3	1358	3.21	0.000202887
3	1417	3.31	0.00016977
3	1476	3.41	0.000139558
3	1535	3.51	0.000112271
3	1594	3.61	8.78717e-05
3	1653	3.71	6.628e-05
3	1712	3.81	4.73785e-05
3	1771	3.91	3.1023e-05
3	1833	4.01	1.70493e-05
3	1892	4.11	5.28023e-06
3	1951	4.21	-4.46922e-06
3	2010	4.31	-1.2387e-05
3	2069	4.41	-1.86602e-05
3	2128	4.51	-2.34717e-05
3	2187	4.61	-2.69978e-05
3	2246	4.71	-2.94062e-05
3	2305	4.81	-3.08545e-05
3	2364	4.91	-3.14892e-05
3	2426	5.01	-3.14451e-05
3	2485	5.11	-3.0845e-05
3	2544	5.21	-2.97994e-05
3	2603	5.31	-2.84072e-05
3	2662	5.41	-2.67556e-05
3	2721	5.51	-2.49208e-05
3	2780	5.61	-2.29687e-05
3	2839	5.71	-2.09553e-05
3	2898	5.81	-1.89277e-05
3	2957	5.91	-1.6925e-05
3	3019	6.01	-1.49784e-05
3	3078	6.11	-1.31129e-05
3	3137	6.21	-1.13474e-05
3	3196	6.31	-9.69553e-06
3	3255	6.41	-8.16651e-06
3	3314	6.51	-6.76571e-06
3	3373	6.61	-5.49522e-06
3	3432	6.71	-4.35441e-06
3	3491	6.81	-3.34045e-06
3	3550	6.91	-2.44874e-06
3	3612	7.01	-1.6733e-06
3	3671	7.11	-1.00716e-06
3	3730	7.21	-4.42628e-07
3	3789	7.31	2.84224e-08
3	3848	7.41	4.14339e-07
3	3907	7.51	7.23492e-07
3	3966	7.61	9.6413e-07
3	4025	7.71	1.14424e-06
3	4084	7.81	1.27148e-06
3	4143	7.91	1.35305e-06
3	4205	8.01	1.3957e-06
3	4264	8.11	1.40565e-06
3	4323	8.21	1.3886e-06
3	4382	8.31	1.34971e-06
3	4441	8.41	1.2936e-06
3	4500	8.51	1.22437e-06
3	4559	8.61	1.14561e-06
3	4618	8.71	1.06046e-06
3	4677	8.81	9.71582e-07
3	4736	8.91	8.81246e-07
3	4798	9.01	7.91334e-07
3	4857	9.11	7.03381e-07
3	4916	9.21	6.18613e-07
3	4975	9.31	5.37979e-07
3	5034	9.41	4.62183e-07
3	5093	9.51	3.91714e-07
3	5152	9.61	3.26878e-07
3	5211	9.71	2.67827e-07
3	5270	9.81	2.14581e-07
3	5329	9.91	1.67052e-07
3	5488	10.01	1.25066e-07
3	5547	10.11	8.83794e-08
3	5606	10.21	5.66978e-08
3	5665	10.31	2.96922e-08
3	5724	10.41	7.00453e-09
3	5783	10.51	-1.17325e-08
3	5842	10.61	-2.68933e-08
3	5901	10.71	-3.88482e-08
3	5960	10.81	-4.79581e-08
3	6019	10.91	-5.45704e-08
3	6081	11.01	-5.90177e-08
3	6140	11.11	-6.16069e-08
3	6199	11.21	-6.26265e-08
3	6258	11.31	-6.23395e-08
3	6317	11.41	-6.09859e-08
3	6376	11.51	-5.87811e-08
3	6435	11.61	-5.59183e-08
3	6494	11.71	-5.25674e-08
3	6553	11.81	-4.88761e-08
3	6612	11.91	-4.4971e-08
3	6674	12.01	-4.09599e-08
3	6733	12.11	-3.69354e-08
3	6792	12.21	-3.29713e-08
3	6851	12.31	-2.9128e-08
3	6910	12.41	-2.54531e-08
3	6969	12.51	-2.19821e-08
3	7028	12.61	-1.87399e-08
3	7087	12.71	-1.57428e-08
3	7146	12.81	-1.30029e-08
3	7205	12.91	-1.05217e-08
3	7267	13.01	-8.29772e-09
3	7326	13.11	-6.32454e-09
3	7385	13.21	-4.59224e-09
3	7444	13.31	-3.08802e-09
3	7503	13.41	-1.79838e-09
3	7562	13.51	-7.08411e-10
3	7621	13.61	1.98241e-10
3	7680	13.71	9.37916e-10
3	7739	13.81	1.52767e-09
3	7798	13.91	1.98384e-09
3	7860	14.01	2.32276e-09
3	7919	14.11	2.55937e-09
3	7978	14.21	2.70788e-09
3	8037	14.31	2.78249e-09
3	8096	14.41	2.79243e-09
3	8155	14.51	2.7498e-09
3	8214	14.61	2.66525e-09
3	8273	14.71	2.54872e-09
3	8332	14.81	2.40803e-09
3	8391	14.91	2.24887e-09
3	8453	15.01	2.07763e-09
3	8512	15.11	1.89999e-09
3	8571	15.21	1.72236e-09
3	8630	15.31	1.54472e-09
3	8689	15.41	1.37064e-09
3	8748	15.51	1.20295e-09
3	8807	15.61	1.04379e-09
3	8866	15.71	8.94573e-10
3	8925	15.81	7.56017e-10
3	8984	15.91	6.29541e-10
3	9046	16.01	5.13012e-10
3	9105	16.11	4.09273e-10
3	9164	16.21	3.16902e-10
3	9223	16.31	2.3519e-10
3	9282	16.41	1.63425e-10
3	9341	16.51	1.02318e-10
3	9400	16.61	4.9738e-11
3	9459	16.71	5.68434e-12
3	9518	16.81	-3.05533e-11
3	9577	16.91	-5.8975e-11
3	9639	17.01	-8.10019e-11
3	9698	17.11	-9.80549e-11
3	9757	17.21	-1.11555e-10
3	9816	17.31	-1.18661e-10
3	9875	17.41	-1.23634e-10
3	9934	17.51	-1.23634e-10
3	9993	17.61	-1.23634e-10
3	10052	17.71	-1.21503e-10
3	10111	17.81	-1.14397e-10
3	10170	17.91	-1.07292e-10
3	10232	18.01	-1.00187e-10
3	10291	18.11	-9.30811e-11
3	10350	18.21	-8.59757e-11
3	10409	18.31	-7.88702e-11
3	10468	18.41	-7.17648e-11
3	10527	18.51	-6.46594e-11
3	10586	18.61	-5.7554e-11
3	10645	18.71	-5.04485e-11
3	10704	18.81	-4.33431e-11
3	10763	18.91	-3.62377e-11
3	10825	19.01	-2.91323e-11
3	10884	19.11	-2.20268e-11
3	10943	19.21	-1.7053e-11
3	11002	19.31	-1.49214e-11
3	11061	19.41	-1.35003e-11
3	11120	19.51	-1.27898e-11
3	11179	19.61	-1.13687e-11
3	11238	19.71	-9.9476e-12
3	11297	19.81	-9.23706e-12
3	11356	19.91	-8.52651e-12
3	11418	20.01	-7.81597e-12
3	11477	20.11	-7.10543e-12
3	11536	20.21	-6.39488e-12
3	11595	20.31	-5.68434e-12
3	11654	20.41	-4.9738e-12
3	11713	20.51	-4.26326e-12
3	11772	20.61	-4.26326e-12
3	11831	20.71	-3.55271e-12
3	11890	20.81	-3.55271e-12
3	11949	20.91	-2.84217e-12
3	12011	21.01	-2.84217e-12
3	12070	21.11	-2.84217e-12
3	12129	21.21	-2.13163e-12
3	12188	21.31	-2.13163e-12
3	12247	21.41	-2.13163e-12
3	12306	21.51	-1.42109e-12
3	12365	21.61	-1.42109e-12
3	12424	21.71	-1.42109e-12
3	12483	21.81	-1.42109e-12
3	12542	21.91	-1.42109e-12
3	12604	22.01	-7.10543e-13
3	12663	22.11	-7.10543e-13
3	12722	22.21	-7.10543e-13
3	12781	22.31	-7.10543e-13
3	12840	22.41	-7.10543e-13
3	12899	22.51	-7.10543e-13
3	12958	22.61	-7.10543e-13
3	13017	22.71	-7.10543e-13
3	13076	22.81	-7.10543e-13
3	13135	22.91	-7.10543e-13
3	13197	23.01	0
3	13256	23.11	0
3	13315	23.21	0
3	13374	23.31	0
3	13433	23.41	0
3	13492	23.51	0
3	13551	23.61	0
3	13610	23.71	0
3	13669	23.81	0
3	13728	23.91	0
3	13790	24.01	0
3	13849	24.11	0
3	13908	24.21	0
3	13967	24.31	0
3	14026	24.41	0
3	14085	24.51	0
3	14144	24.61	0
3	14203	24.71	0
3	14262	24.81	0
3	14321	24.91	0
3	14383	25.01	0
3	14442	25.11	0
3	14501	25.21	0
3	14560	25.31	0
3	14619	25.41	0
3	14678	25.51	0
3	14737	25.61	0
3	14796	25.71	0
3	14855	25.81	0
3	14914	25.91	0
3	14976	26.01	0
3	15035	26.11	0
3	15094	26.21	0
3	15153	26.31	0
3	15212	26.41	0
3	15271	26.51	0
3	15330	26.61	0
3	15389	26.71	0
3	15448	26.81	0
3	15507	26.91	0
3	15569	27.01	0
3	15628	27.11	0
3	15687	27.21	0
3	15746	27.31	0
3	15805	27.41	0
3	15864	27.51	0
3	15923	27.61	0
3	15982	27.71	0
3	16041	27.81	0
3	16100	27.91	0
3	16162	28.01	0
3	16221	28.11	0
3	16280	28.21	0
3	16339	28.31	0
3	16398	28.41	0
3	16457	28.51	0
3	16516	28.61	0
3	16575	28.71	0
3	16634	28.81	0
3	16693	28.91	0
3	16755	29.01	0
3	16814	29.11	0
3	16873	29.21	0
3	16932	29.31	0
3	16991	29.41	0
3	17050	29.51	0
3	17109	29.61	0
3	17168	29.71	0
3	17227	29.81	0
3	17286	29.91	0
3	17348	30.01	0
3	17407	30.11	0
3	17466	30.21	0
3	17525	30.31	0
3	17584	30.41	0
3	17643	30.51	0
3	17702	30.61	0
3	17761	30.71	0
3	17820	30.81	0
3	17879	30.91	0
3	17941	31.01	0
3	18000	31.11	0
3	18059	31.21	0
3	18118	31.31	0
3	18177	31.41	0
3	18236	31.51	0
3	18295	31.61	0
3	18354	31.71	0
3	18413	31.81	0
3	18472	31.91	0
3	18534	32.01	0
3	18593	32.11	0
3	18652	32.21	0
3	18711	32.31	0
3	18770	32.41	0
3	18829	32.51	0
3	18888	32.61	0
3	18947	32.71	0
3	19006	32.81	0
3	19065	32.91	0
3	19127	33.01	0
3	19186	33.11	0
3	19245	33.21	0
3	19304	33.31	0
3	19363	33.41	0
3	19422	33.51	0
3	19481	33.61	0
3	19540	33.71	0
3	19599	33.81	0
3	19658	33.91	0
3	19720	34.01	0
3	19779	34.11	0
3	19838	34.21	0
3	19897	34.31	0
3	19956	34.41	0
3	20015	34.51	0
3	20074	34.61	0
3	20133	34.71	0
3	20192	34.81	0
3	20251	34.91	0
3	20313	35.01	0
3	20372	35.11	0
3	20431	35.21	0
3	20490	35.31	0
3	20549	35.41	0
3	20608	35.51	0
3	20667	35.61	0
3	20726	35.71	0
3	20785	35.81	0
3	20844	35.91	0
3	20906	36.01	0
3	20965	36.11	0
3	21024	36.21	0
3	21083	36.31	0
3	21142	36.41	0
3	21201	36.51	0
3	21260	36.61	0
3	21319	36.71	0
3	21378	36.81	0
3	21437	36.91	0
3	21499	37.01	0
3	21558	37.11	0
3	21617	37.21	0
3	21676	37.31	0
3	21735	37.41	0
3	21794	37.51	0
3	21853	37.61	0
3	21912	37.71	0
3	21971	37.81	0
3	22030	37.91	0
3	22092	38.01	0
3	22151	38.11	0
3	22210	38.21	0
3	22269	38.31	0
3	22328	38.41	0
3	22387	38.51	0
3	22446	38.61	0
3	22505	38.71	0
3	22564	38.81	0
3	22623	38.91	0
3	22685	39.01	0
3	22744	39.11	0
3	22803	39.21	0
3	22862	39.31	0
3	22921	39.41	0
3	22980	39.51	0
3	23039	39.61	0
3	23098	39.71	0
3	23157	39.81	0
3	23216	39.91	0
3	23278	40.01	0
3	23337	40.11	0
3	23396	40.21	0
3	23455	40.31	0
3	23514	40.41	0
3	23573	40.51	0
3	23632	40.61	0
3	23691	40.71	0
3	23750	40.81	0
3	23809	40.91	0
3	23871	41.01	0
3	23930	41.11	0
3	23989	41.21	0
3	24048	41.31	0
3	24107	41.41	0
3	24166	41.51	0
3	24225	41.61	0
3	24284	41.71	0
3	24343	41.81	0
3	24402	41.91	0
3	24464	42.01	0
3	24523	42.11	0
3	24582	42.21	0
3	24641	42.31	0
3	24700	42.41	0
3	24759	42.51	0
3	24818	42.61	0
3	24877	42.71	0
3	24936	42.81	0
3	24995	42.91	0
3	25057	43.01	0
3	25116	43.11	0
3	25175	43.21	0
3	25234	43.31	0
3	25293	43.41	0
3	25352	43.51	0
3	25411	43.61	0
3	25470	43.71	0
3	25529	43.81	0
3	25588	43.91	0
3	25650	44.01	0
3	25709	44.11	0
3	25768	44.21	0
3	25827	44.31	0
3	25886	44.41	0
3	25945	44.51	0
3	26004	44.61	0
3	26063	44.71	0
3	26122	44.81	0
3	26181	44.91	0
3	26243	45.01	0
3	26302	45.11	0
3	26361	45.21	0
3	26420	45.31	0
3	26479	45.41	0
3	26538	45.51	0
3	26597	45.61	0
3	26656	45.71	0
3	26715	45.81	0
3	26774	45.91	0
3	26836	46.01	0
3	26895	46.11	0
3	26954	46.21	0
3	27013	46.31	0
3	27072	46.41	0
3	27131	46.51	0
3	27190	46.61	0
3	27249	46.71	0
3	27308	46.81	0
3	27367	46.91	0
3	27429	47.01	0
3	27488	47.11	0
3	27547	47.21	0
3	27606	47.31	0
3	27665	47.41	0
3	27724	47.51	0
3	27783	47.61	0
3	27842	47.71	0
3	27901	47.81	0
3	27960	47.91	0
3	28022	48.01	0
3	28081	48.11	0
3	28140	48.21	0
3	28199	48.31	0
3	28258	48.41	0
3	28317	48.51	0
3	28376	48.61	0
3	28435	48.71	0
3	28494	48.81	0
3	28553	48.91	0
3	28615	49.01	0
3	28674	49.11	0
3	28733	49.21	0
3	28792	49.31	0
3	28851	49.41	0
3	28910	49.51	0
3	28969	49.61	0
3	29028	49.71	0
3	29087	49.81	0
3	29146	49.91	0
3	29208	50.01	0
3	29267	50.11	0
3	29326	50.21	0
3	29385	50.31	0
3	29444	50.41	0
3	29503	50.51	0
3	29562	50.61	0
3	29621	50.71	0
3	29680	50.81	0
3	29739	50.91	0
3	29801	51.01	0
3	29860	51.11	0
3	29919	51.21	0
3	29978	51.31	0
3	30037	51.41	0
3	30096	51.51	0
3	30155	51.61	0
3	30214	51.71	0
3	30273	51.81	0
3	30332	51.91	0
3	30394	52.01	0
3	30453	52.11	0
3	30512	52.21	0
3	30571	52.31	0
3	30630	52.41	0
3	30689	52.51	0
3	30748	52.61	0
3	30807	52.71	0
3	30866	52.81	0
3	30925	52.91	0
3	30987	53.01	0
3	31046	53.11	0
3	31105	53.21	0
3	31164	53.31	0
3	31223	53.41	0
3	31282	53.51	0
3	31341	53.61	0
3	31400	53.71	0
3	31459	53.81	0
3	31518	53.91	0
3	31580	54.01	0
3	31639	54.11	0
3	31698	54.21	0
3	31757	54.31	0
3	31816	54.41	0
3	31875	54.51	0
3	31934	54.61	0
3	31993	54.71	0
3	32052	54.81	0
3	32111	54.91	0
3	32173	55.01	0
3	32232	55.11	0
3	32291	55.21	0
3	32350	55.31	0
3	32409	55.41	0
3	32468	55.51	0
3	32527	55.61	0
3	32586	55.71	0
3	32645	55.81	0
3	32704	55.91	0
3	32766	56.01	0
3	32825	56.11	0
3	32884	56.21	0
3	32943	56.31	0
3	33002	56.41	0
3	33061	56.51	0
3	33120	56.61	0
3	33179	56.71	0
3	33238	56.81	0
3	33297	56.91	0
3	33359	57.01	0
3	33418	57.11	0
3	33477	57.21	0
3	33536	57.31	0
3	33595	57.41	0
3	33654	57.51	0
3	33713	57.61	0
3	33772	57.71	0
3	33831	57.81	0
3	33890	57.91	0
3	33952	58.01	0
3	34011	58.11	0
3	34070	58.21	0
3	34129	58.31	0
3	34188	58.41	0
3	34247	58.51	0
3	34306	58.61	0
3	34365	58.71	0
3	34424	58.81	0
3	34483	58.91	-0.0249215
3	34545	59.01	-0.0778472
3	34604	59.11	-0.118623
3	34663	59.21	-0.148735
3	34722	59.31	-0.169574
3	34781	59.41	-0.182434
3	34840	59.51	-0.188506
3	34899	59.61	-0.18888
3	34958	59.71	-0.184546
3	35017	59.81	-0.176393
3	35076	59.91	-0.165218
3	35138	60.01	-0.151726
3	35197	60.11	-0.136534
3	35256	60.21	-0.120181
3	35315	60.31	-0.103129
3	35374	60.41	-0.0857746
3	35433	60.51	-0.0684471
3	35492	60.61	-0.0514206
3	35551	60.71	-0.0349172
3	35610	60.81	-0.0191128
3	35669	60.91	-0.0041424
3	35731	61.01	0.00989486
3	35790	61.11	0.0229312
3	35849	61.21	0.0349256
3	35908	61.31	0.0458602
3	35967	61.41	0.0557362
3	36026	61.51	0.0645708
3	36085	61.61	0.0723942
3	36144	61.71	0.0792468
3	36203	61.81	0.085177
3	36262	61.91	0.0902389
3	36324	62.01	0.0944905
3	36383	62.11	0.0979926
3	36442	62.21	0.100807
3	36501	62.31	0.102994
3	36560	62.41	0.104616
3	36619	62.51	0.105731
3	36678	62.61	0.106397
3	36737	62.71	0.106665
3	36796	62.81	0.10576
3	36855	62.91	0.10312
3	36917	63.01	0.0991044
3	36976	63.11	0.094033
3	37035	63.21	0.0881861
3	37094	63.31	0.0818079
3	37153	63.41	0.0751083
3	37212	63.51	0.0682651
3	37271	63.61	0.061427
3	37330	63.71	0.0547156
3	37389	63.81	0.0482285
3	37448	63.91	0.0420418
3	37510	64.01	0.0362125
3	37569	64.11	0.030781
3	37628	64.21	0.0257731
3	37687	64.31	0.0212027
3	37746	64.41	0.017073
3	37805	64.51	0.0133791
3	37864	64.61	0.0101088
3	37923	64.71	0.00724468
3	37982	64.81	0.00476519
3	38041	64.91	0.00264567
3	38103	65.01	0.000859473
3	38162	65.11	-0.000621245
3	38221	65.21	-0.00182481
3	38280	65.31	-0.00277942
3	38339	65.41	-0.00351268
3	38398	65.51	-0.00405121
3	38457	65.61	-0.00442032
3	38516	65.71	-0.00464385
3	38575	65.81	-0.00474392
3	38634	65.91	-0.00474093
3	38696	66.01	-0.00465345
3	38755	66.11	-0.00449822
3	38814	66.21	-0.00429019
3	38873	66.31	-0.00404259
3	38932	66.41	-0.00376697
3	38991	66.51	-0.00347329
3	39050	66.61	-0.00317008
3	39109	66.71	-0.00286449
3	39168	66.81	-0.00256241
3	39227	66.91	-0.00226865
3	39289	67.01	-0.00198697
3	39348	67.11	-0.00172026
3	39407	67.21	-0.00147061
3	39466	67.31	-0.00123943
3	39525	67.41	-0.00102755
3	39584	67.51	-0.00083531
3	39643	67.61	-0.000662622
3	39702	67.71	-0.000509073
3	39761	67.81	-0.000373979
3	39820	67.91	-0.000256447
3	39882	68.01	-0.00015543
3	39941	68.11	-6.97732e-05
3	40000	68.21	1.74661e-06
3	40059	68.31	6.03864e-05
3	40118	68.41	0.000107408
3	40177	68.51	0.000144056
3	40236	68.61	0.000171537
3	40295	68.71	0.000191003
3	40354	68.81	0.000203547
3	40413	68.91	0.000210187
3	40475	69.01	0.000211863
3	40534	69.11	0.000209439
3	40593	69.21	0.000203694
3	40652	69.31	0.000195327
3	40711	69.41	0.00018496
3	40770	69.51	0.000173138
3	40829	69.61	0.000160335
3	40888	69.71	0.000146956
3	40947	69.81	0.000133345
3	41006	69.91	0.000119787
3	41068	70.01	0.000106516
3	41127	70.11	9.37196e-05
3	41186	70.21	8.15408e-05
3	41245	70.31	7.00875e-05
3	41304	70.41	5.94346e-05
3	41363	70.51	4.96296e-05
3	41422	70.61	4.06959e-05
3	41481	70.71	3.26372e-05
3	41540	70.81	2.54409e-05
3	41599	70.91	1.90812e-05
3	41661	71.01	1.35217e-05
3	41720	71.11	8.7185e-06
3	41779	71.21	4.62181e-06
3	41838	71.31	1.17821e-06
3	41897	71.41	-1.66788e-06
3	41956	71.51	-3.97275e-06
3	42015	71.61	-5.79229e-06
3	42074	71.71	-7.18105e-06
3	42133	71.81	-8.19153e-06
3	42192	71.91	-8.87355e-06
3	42254	72.01	-9.27389e-06
3	42313	72.11	-9.43597e-06
3	42372	72.21	-9.39969e-06
3	42431	72.31	-9.20134e-06
3	42490	72.41	-8.87358e-06
3	42549	72.51	-8.44556e-06
3	42608	72.61	-7.94295e-06
3	42667	72.71	-7.38817e-06
3	42726	72.81	-6.80055e-06
3	42785	72.91	-6.19652e-06
3	42847	73.01	-5.58986e-06
3	42906	73.11	-4.99193e-06
3	42965	73.21	-4.41189e-06
3	43024	73.31	-3.85692e-06
3	43083	73.41	-3.33248e-06
3	43142	73.51	-2.84248e-06
3	43201	73.61	-2.38953e-06
3	43260	73.71	-1.97509e-06
3	43319	73.81	-1.59968e-06
3	43378	73.91	-1.26303e-06
3	43440	74.01	-9.64199e-07
3	43499	74.11	-7.01761e-07
3	43558	74.21	-4.73884e-07
3	43617	74.31	-2.78445e-07
3	43676	74.41	-1.13124e-07
3	43735	74.51	2.45251e-08
3	43794	74.61	1.37005e-07
3	43853	74.71	2.26821e-07
3	43912	74.81	2.96433e-07
3	43971	74.91	3.48222e-07
3	44033	75.01	3.84463e-07
3	44092	75.11	4.07295e-07
3	44151	75.21	4.18721e-07
3	44210	75.31	4.20585e-07
3	44269	75.41	4.14571e-07
3	44328	75.51	4.02201e-07
3	44387	75.61	3.8484e-07
3	44446	75.71	3.63696e-07
3	44505	75.81	3.39826e-07
3	44564	75.91	3.14149e-07
3	44626	76.01	2.87452e-07
3	44685	76.11	2.60395e-07
3	44744	76.21	2.33527e-07
3	44803	76.31	2.07299e-07
3	44862	76.41	1.82064e-07
3	44921	76.51	1.58097e-07
3	44980	76.61	1.35601e-07
3	45039	76.71	1.14714e-07
3	45098	76.81	9.55211e-08
3	45157	76.91	7.80631e-08
3	45219	77.01	6.23409e-08
3	45278	77.11	4.83261e-08
3	45337	77.21	3.5962e-08
3	45396	77.31	2.51745e-08
3	45455	77.41	1.58735e-08
3	45514	77.51	7.95808e-09
3	45573	77.61	1.32161e-09
3	45632	77.71	-4.14531e-09
3	45691	77.81	-8.55493e-09
3	45750	77.91	-1.20195e-08
3	45812	78.01	-1.46471e-08
3	45871	78.11	-1.65386e-08
3	45930	78.21	-1.77941e-08
3	45989	78.31	-1.85054e-08
3	46048	78.41	-1.87569e-08
3	46107	78.51	-1.86269e-08
3	46166	78.61	-1.81871e-08
3	46225	78.71	-1.74985e-08
3	46284	78.81	-1.66203e-08
3	46343	78.91	-1.56021e-08
3	46405	79.01	-1.44851e-08
3	46464	79.11	-1.33106e-08
3	46523	79.21	-1.21084e-08
3	46582	79.31	-1.0904e-08
3	46641	79.41	-9.72165e-09
3	46700	79.51	-8.57625e-09
3	46759	79.61	-7.48344e-09
3	46818	79.71	-6.45173e-09
3	46877	79.81	-5.48894e-09
3	46936	79.91	-4.60361e-09
3	46998	80.01	-3.79359e-09
3	47057	80.11	-3.06102e-09
3	47116	80.21	-2.40448e-09
3	47175	80.31	-1.82538e-09
3	47234	80.41	-1.31735e-09
3	47293	80.51	-8.74678e-10
3	47352	80.61	-4.96669e-10
3	47411	80.71	-1.77636e-10
3	47470	80.81	8.73968e-11
3	47529	80.91	3.02691e-10
3	47591	81.01	4.74643e-10
3	47650	81.11	6.06093e-10
3	47709	81.21	7.04148e-10
3	47768	81.31	7.7236e-10
3	47827	81.41	8.13571e-10
3	47886	81.51	8.33467e-10
3	47945	81.61	8.34177e-10
3	48004	81.71	8.19966e-10
3	48063	81.81	7.94387e-10
3	48122	81.91	7.5886e-10
3	48184	82.01	7.16227e-10
3	48243	82.11	6.66489e-10
3	48302	82.21	6.16751e-10
3	48361	82.31	5.62039e-10
3	48420	82.41	5.07328e-10
3	48479	82.51	4.5759e-10
3	48538	82.61	4.07852e-10
3	48597	82.71	3.58114e-10
3	48656	82.81	3.08376e-10
3	48715	82.91	2.65743e-10
3	48777	83.01	2.2311e-10
3	48836	83.11	1.86162e-10
3	48895	83.21	1.50635e-10
3	48954	83.31	1.20792e-10
3	49013	83.41	9.23706e-11
3	49072	83.51	6.89226e-11
3	49131	83.61	4.76064e-11
3	49190	83.71	2.84217e-11
3	49249	83.81	1.42109e-11
3	49308	83.91	0
3	49370	84.01	-9.9476e-12
3	49429	84.11	-1.7053e-11
3	49488	84.21	-2.41585e-11
3	49547	84.31	-3.12639e-11
3	49606	84.41	-3.41061e-11
3	49665	84.51	-3.41061e-11
3	49724	84.61	-3.41061e-11
3	49783	84.71	-3.41061e-11
3	49842	84.81	-3.41061e-11
3	49901	84.91	-3.41061e-11
3	49963	85.01	-3.41061e-11
3	50022	85.11	-3.41061e-11
3	50081	85.21	-3.41061e-11
3	50140	85.31	-3.41061e-11
3	50199	85.41	-3.33955e-11
3	50258	85.51	-3.05533e-11
3	50317	85.61	-2.77112e-11
3	50376	85.71	-2.4869e-11
3	50435	85.81	-2.27374e-11
3	50494	85.91	-2.06057e-11
3	50556	86.01	-1.84741e-11
3	50615	86.11	-1.63425e-11
3	50674	86.21	-1.49214e-11
3	50733	86.31	-1.35003e-11
3	50792	86.41	-1.20792e-11
3	50851	86.51	-1.13687e-11
3	50910	86.61	-9.9476e-12
3	50969	86.71	-9.23706e-12
3	51028	86.81	-8.52651e-12
3	51087	86.91	-7.10543e-12
3	51149	87.01	-6.39488e-12
3	51208	87.11	-6.39488e-12
3	51267	87.21	-5.68434e-12
3	51326	87.31	-4.9738e-12
3	51385	87.41	-4.26326e-12
3	51444	87.51	-4.26326e-12
3	51503	87.61	-3.55271e-12
3	51562	87.71	-3.55271e-12
3	51621	87.81	-2.84217e-12
3	51680	87.91	-2.84217e-12
3	51742	88.01	-2.13163e-12
3	51801	88.11	-2.13163e-12
3	51860	88.21	-2.13163e-12
3	51919	88.31	-2.13163e-12
3	51978	88.41	-1.42109e-12
3	52037	88.51	-1.42109e-12
3	52096	88.61	-1.42109e-12
3	52155	88.71	-1.42109e-12
3	52214	88.81	-1.42109e-12
3	52273	88.91	-7.10543e-13
3	52335	89.01	-7.10543e-13
3	52394	89.11	-7.10543e-13
3	52453	89.21	-7.10543e-13
3	52512	89.31	-7.10543e-13
3	52571	89.41	-7.10543e-13
3	52630	89.51	-7.10543e-13
3	52689	89.61	-7.10543e-13
3	52748	89.71	-7.10543e-13
3	52807	89.81	-7.10543e-13
3	52866	89.91	0
3	52928	90.01	0
3	52987	90.11	0
3	53046	90.21	0
3	53105	90.31	0
3	53164	90.41	0
3	53223	90.51	0
3	53282	90.61	0
3	53341	90.71	0
3	53400	90.81	0
3	53459	90.91	0
3	53521	91.01	0
3	53580	91.11	0
3	53639	91.21	0
3	53698	91.31	0
3	53757	91.41	0
3	53816	91.51	0
3	53875	91.61	0
3	53934	91.71	0
3	53993	91.81	0
3	54052	91.91	0
3	54114	92.01	0
3	54173	92.11	0
3	54232	92.21	0
3	54291	92.31	0
3	54350	92.41	0
3	54409	92.51	0
3	54468	92.61	0
3	54527	92.71	0
3	54586	92.81	0
3	54645	92.91	0
3	54707	93.01	0
3	54766	93.11	0
3	54825	93.21	0
3	54884	93.31	0
3	54943	93.41	0
3	55002	93.51	0
3	55061	93.61	0
3	55120	93.71	0
3	55179	93.81	0
3	55238	93.91	0
3	55300	94.01	0
3	55359	94.11	0
3	55418	94.21	0
3	55477	94.31	0
3	55536	94.41	0
3	55595	94.51	0
3	55654	94.61	0
3	55713	94.71	0
3	55772	94.81	0
3	55831	94.91	0
3	55893	95.01	0
3	55952	95.11	0
3	56011	95.21	0
3	56070	95.31	0
3	56129	95.41	0
3	56188	95.51	0
3	56247	95.61	0
3	56306	95.71	0
3	56365	95.81	0
3	56424	95.91	0
3	56486	96.01	0
3	56545	96.11	0
3	56604	96.21	0
3	56663	96.31	0
3	56722	96.41	0
3	56781	96.51	0
3	56840	96.61	0
[...]
27	45806	77.993965935868	1
27	45868	78.093963297785	1
27	45927	78.193973660295	1
27	45986	78.293971023398	1
27	46045	78.393968387094	1
27	46104	78.493965751383	1
27	46163	78.593963116265	1
27	46222	78.69397348174	1
27	46281	78.793970847808	1
27	46340	78.893968214469	1
27	46399	78.993965581723	1
27	46461	79.09396294957	1
27	46520	79.19397331801	1
27	46579	79.293970687043	1
27	46638	79.393968056669	1
27	46697	79.493965426888	1
27	46756	79.5939627977	1
27	46815	79.693973169105	1
27	46874	79.793970541103	1
27	46933	79.893967913694	1
27	46992	79.993965286878	1
27	47054	80.093962660655	1
27	47113	80.193973035025	1
27	47172	80.293970409988	1
27	47231	80.393967785544	1
27	47290	80.493965161693	1
27	47349	80.593975538435	1
27	47408	80.69397291577	1
27	47467	80.793970293698	1
27	47526	80.893967672219	1
27	47585	80.993965051333	1
27	47647	81.09397543104	1
27	47706	81.19397281134	1
27	47765	81.293970192233	1
27	47824	81.393967573719	1
27	47883	81.493964955798	1
27	47942	81.59397533847	1
27	48001	81.693972721735	1
27	48060	81.793970105593	1
27	48119	81.893967490044	1
27	48178	81.993964875088	1
27	48240	82.093975260725	1
27	48299	82.193972646955	1
27	48358	82.293970033778	1
27	48417	82.393967421194	1
27	48476	82.493964809203	1
27	48535	82.593975197805	1
27	48594	82.693972587	1
27	48653	82.793969976788	1
27	48712	82.893967367169	1
27	48771	82.993964758143	1
27	48833	83.09397514971	1
27	48892	83.19397254187	1
27	48951	83.293969934623	1
27	49010	83.393967327969	1
27	49069	83.493964721908	1
27	49128	83.59397511644	1
27	49187	83.693972511565	1
27	49246	83.793969907283	1
27	49305	83.893967303594	1
27	49364	83.993964700498	1
27	49426	84.093975097995	1
27	49485	84.193972496085	1
27	49544	84.293969894768	1
27	49603	84.393967294044	1
27	49662	84.493964693913	1
27	49721	84.593975094375	1
27	49780	84.69397249543	1
27	49839	84.793969897078	1
27	49898	84.893967299319	1
27	49957	84.993964702153	1
27	50019	85.09397510558	1
27	50078	85.1939725096	1
27	50137	85.293969914213	1
27	50196	85.39396731942	1
27	50255	85.493964725219	1
27	50314	85.593975131612	1
27	50373	85.693972538597	1
27	50432	85.793969946176	1
27	50491	85.893967354347	1
27	50550	85.993964763112	1
27	50612	86.093975172469	1
27	50671	86.19397258242	1
27	50730	86.293969992963	1
27	50789	86.3939674041	1
27	50848	86.493964815829	1
27	50907	86.593975228152	1
27	50966	86.693972641067	1
27	51025	86.793970054576	1
27	51084	86.893967468677	1
27	51143	86.993964883372	1
27	51205	87.093975298659	1
27	51264	87.19397271454	1
27	51323	87.293970131014	1
27	51382	87.393967548081	1
27	51441	87.493964965741	1
27	51500	87.593975383994	1
27	51559	87.69397280284	1
27	51618	87.793970222279	1
27	51677	87.893967642311	1
27	51736	87.993965062936	1
27	51798	88.093975484154	1
27	51857	88.193972905965	1
27	51916	88.293970328369	1
27	51975	88.393967751366	1
27	52034	88.493965174956	1
27	52093	88.593962599139	1
27	52152	88.693973023915	1
27	52211	88.793970449284	1
27	52270	88.893967875246	1
27	52329	88.993965301801	1
27	52391	89.093962728949	1
27	52450	89.19397315669	1
27	52509	89.293970585024	1
27	52568	89.393968013951	1
27	52627	89.493965443471	1
27	52686	89.593962873584	1
27	52745	89.69397330429	1
27	52804	89.793970735589	1
27	52863	89.893968167481	1
27	52922	89.993965599966	1
27	52984	90.093963033044	1
27	53043	90.193973466715	1
27	53102	90.293970900979	1
27	53161	90.393968335836	1
27	53220	90.493965771286	1
27	53279	90.593963207329	1
27	53338	90.693973643965	1
27	53397	90.793971081194	1
27	53456	90.893968519016	1
27	53515	90.993965957431	1
27	53577	91.093963396439	1
27	53636	91.19397383604	1
27	53695	91.293971276234	1
27	53754	91.393968717021	1
27	53813	91.493966158401	1
27	53872	91.593963600374	1
27	53931	91.69397404294	1
27	53990	91.793971486099	1
27	54049	91.893968929851	1
27	54108	91.993966374196	1
27	54170	92.093963819134	1
27	54229	92.193974264665	1
27	54288	92.293971710789	1
27	54347	92.393969157506	1
27	54406	92.493966604816	1
27	54465	92.593964052719	1
27	54524	92.693974501215	1
27	54583	92.793971950304	1
27	54642	92.893969399986	1
27	54701	92.993966850261	1
27	54763	93.093964301129	1
27	54822	93.19397475259	1
27	54881	93.293972204644	1
27	54940	93.393969657291	1
27	54999	93.493967110531	1
27	55058	93.593964564364	1
27	55117	93.69397501879	1
27	55176	93.793972473809	1
27	55235	93.893969929421	1
27	55294	93.993967385626	1
27	55356	94.093964842424	1
27	55415	94.193975299815	1
27	55474	94.293972757799	1
27	55533	94.393970216376	1
27	55592	94.493967675546	1
27	55651	94.593965135309	1
27	55710	94.693975595665	1
27	55769	94.793973056614	1
27	55828	94.893970518156	1
27	55887	94.993967980291	1
27	55949	95.09396544302	1
27	56008	95.193962906341	1
27	56067	95.293973370256	1
27	56126	95.393970834763	1
27	56185	95.493968299864	1
27	56244	95.593965765557	1
27	56303	95.693963231844	1
27	56362	95.793973698723	1
27	56421	95.893971166196	1
27	56480	95.993968634261	1
27	56542	96.09396610292	1
27	56601	96.193963572171	1
27	56660	96.293974042016	1
27	56719	96.393971512453	1
27	56778	96.493968983484	1
27	56837	96.593966455107	1
27	56896	96.693963927324	1
27	56955	96.793974400133	1
27	57014	96.893971873536	1
27	57073	96.993969347532	1
27	57135	97.093966822121	1
27	57194	97.193964297303	1
27	57253	97.293974773078	1
27	57312	97.393972249446	1
27	57371	97.493969726407	1
27	57430	97.593967203961	1
27	57489	97.693964682108	1
27	57548	97.793975160848	1
27	57607	97.893972640181	1
27	57666	97.993970120107	1
27	57728	98.093967600626	1
27	57787	98.193965081738	1
27	57846	98.293975563443	1
27	57905	98.393973045741	1
27	57964	98.493970528632	1
27	58023	98.593968012116	1
27	58082	98.693965496193	1
27	58141	98.793962980863	1
27	58200	98.893973466126	1
27	58259	98.993970951982	1
27	58321	99.093968438431	1
27	58380	99.193965925473	1
27	58439	99.293963413108	1
27	58498	99.393973901336	1
27	58557	99.493971390157	1
27	58616	99.593968879571	1
27	58675	99.693966369578	1
27	58734	99.793963860178	1
27	58793	99.893974351371	1
27	58852	99.993971843157	1
28	643	2	0
28	1236	3	0
28	1829	4	0
28	2422	5	0
28	3015	6	0
28	3608	7	0
28	4201	8	0
28	4794	9	0
28	5389	10	0
28	6077	11	0
28	6670	12	0
28	7263	13	0
28	7856	14	0
28	8449	15	0
28	9042	16	0
28	9635	17	0
28	10228	18	0
28	10821	19	0
28	11414	20	0
28	12007	21	0
28	12600	22	0
28	13193	23	0
28	13786	24	0
28	14379	25	0
28	14972	26	0
28	15565	27	0
28	16158	28	0
28	16751	29	0
28	17344	30	0
28	17937	31	0
28	18530	32	0
28	19123	33	0
28	19716	34	0
28	20309	35	0
28	20902	36	0
28	21495	37	0
28	22088	38	0
28	22681	39	0
28	23274	40	0
28	23867	41	0
28	24460	42	0
28	25053	43	0
28	25646	44	0
28	26239	45	0
28	26832	46	0
28	27425	47	0
28	28018	48	0
28	28611	49	0
28	29204	50	0
28	29797	51	0
28	30390	52	0
28	30983	53	0
28	31576	54	0
28	32169	55	0
28	32762	56	0
28	33355	57	0
28	33948	58	0
28	34541	59	0
28	35134	60	0
28	35727	61	0
28	36320	62	0
28	36913	63	0
28	37506	64	0
28	38099	65	0
28	38692	66	0
28	39285	67	0
28	39878	68	0
28	40471	69	0
28	41064	70	0
28	41657	71	0
28	42250	72	0
28	42843	73	0
28	43436	74	0
28	44029	75	0
28	44622	76	0
28	45215	77	0
28	45808	78	0
28	46401	79	0
28	46994	80	0
28	47587	81	0
28	48180	82	0
28	48773	83	0
28	49366	84	0
28	49959	85	0
28	50552	86	0
28	51145	87	0
28	51738	88	0
28	52331	89	0
28	52924	90	0
28	53517	91	0
28	54110	92	0
28	54703	93	0
28	55296	94	0
28	55889	95	0
28	56482	96	0
28	57075	97	0
28	57668	98	0
28	58261	99	0
28	58854	100	0
29	643	2	0.005625
29	1236	3	0.00625
29	1829	4	0.00625
29	2422	5	0.00625
29	3015	6	0.00625
29	3608	7	0.00625
29	4201	8	0.00625
29	4794	9	0.00625
29	5389	10	0.00625
29	6077	11	0.00658804003
29	6670	12	0.00625
29	7263	13	0.00625
29	7856	14	0.00625
29	8449	15	0.00625
29	9042	16	0.00625
29	9635	17	0.00625
29	10228	18	0.00625
29	10821	19	0.00625
29	11414	20	0.00625
29	12007	21	0.00625
29	12600	22	0.00625
29	13193	23	0.00625
29	13786	24	0.00625
29	14379	25	0.00625
29	14972	26	0.00625
29	15565	27	0.00625
29	16158	28	0.00625
29	16751	29	0.00625
29	17344	30	0.00625
29	17937	31	0.00625
29	18530	32	0.00625
29	19123	33	0.00625
29	19716	34	0.00625
29	20309	35	0.00625
29	20902	36	0.00625
29	21495	37	0.00625
29	22088	38	0.00625
29	22681	39	0.00625
29	23274	40	0.00625
29	23867	41	0.00625
29	24460	42	0.00625
29	25053	43	0.00625
29	25646	44	0.00625
29	26239	45	0.00625
29	26832	46	0.00625
29	27425	47	0.00625
29	28018	48	0.00625
29	28611	49	0.00625
29	29204	50	0.00625
29	29797	51	0.00625
29	30390	52	0.00625
29	30983	53	0.00625
29	31576	54	0.00625
29	32169	55	0.00625
29	32762	56	0.00625
29	33355	57	0.00625
29	33948	58	0.00625
29	34541	59	0.00625
29	35134	60	0.00625
29	35727	61	0.00625
29	36320	62	0.00625
29	36913	63	0.00625
29	37506	64	0.00625
29	38099	65	0.00625
29	38692	66	0.00625
29	39285	67	0.00625
29	39878	68	0.00625
29	40471	69	0.00625
29	41064	70	0.00625
29	41657	71	0.00625
29	42250	72	0.00625
29	42843	73	0.00625
29	43436	74	0.00625
29	44029	75	0.00625
29	44622	76	0.00625
29	45215	77	0.00625
29	45808	78	0.00625
29	46401	79	0.00625
29	46994	80	0.00625
29	47587	81	0.00625
29	48180	82	0.00625
29	48773	83	0.00625
29	49366	84	0.00625
29	49959	85	0.00625
29	50552	86	0.00625
29	51145	87	0.00625
29	51738	88	0.00625
29	52331	89	0.00625
29	52924	90	0.00625
29	53517	91	0.00625
29	54110	92	0.00625
29	54703	93	0.00625
29	55296	94	0.00625
29	55889	95	0.00625
29	56482	96	0.00625
29	57075	97	0.00625
29	57668	98	0.00625
29	58261	99	0.00625
29	58854	100	0.00625
30	643	2	0
30	1236	3	0
30	1829	4	0
30	2422	5	0
30	3015	6	0
30	3608	7	0
30	4201	8	0
30	4794	9	0
30	5389	10	0
30	6077	11	0
30	6670	12	0
30	7263	13	0
30	7856	14	0
30	8449	15	0
30	9042	16	0
30	9635	17	0
30	10228	18	0
30	10821	19	0
30	11414	20	0
30	12007	21	0
30	12600	22	0
30	13193	23	0
30	13786	24	0
30	14379	25	0
30	14972	26	0
30	15565	27	0
30	16158	28	0
30	16751	29	0
30	17344	30	0
30	17937	31	0
30	18530	32	0
30	19123	33	0
30	19716	34	0
30	20309	35	0
30	20902	36	0
30	21495	37	0
30	22088	38	0
30	22681	39	0
30	23274	40	0
30	23867	41	0
30	24460	42	0
30	25053	43	0
30	25646	44	0
30	26239	45	0
30	26832	46	0
30	27425	47	0
30	28018	48	0
30	28611	49	0
30	29204	50	0
30	29797	51	0
30	30390	52	0
30	30983	53	0
30	31576	54	0
30	32169	55	0
30	32762	56	0
30	33355	57	0
30	33948	58	0
30	34541	59	0
30	35134	60	0
30	35727	61	0
30	36320	62	0
30	36913	63	0
30	37506	64	0
30	38099	65	0
30	38692	66	0
30	39285	67	0
30	39878	68	0
30	40471	69	0
30	41064	70	0
30	41657	71	0
30	42250	72	0
30	42843	73	0
30	43436	74	0
30	44029	75	0
30	44622	76	0
30	45215	77	0
30	45808	78	0
30	46401	79	0
30	46994	80	0
30	47587	81	0
30	48180	82	0
30	48773	83	0
30	49366	84	0
30	49959	85	0
30	50552	86	0
30	51145	87	0
30	51738	88	0
30	52331	89	0
30	52924	90	0
30	53517	91	0
30	54110	92	0
30	54703	93	0
30	55296	94	0
30	55889	95	0
30	56482	96	0
30	57075	97	0
30	57668	98	0
30	58261	99	0
30	58854	100	0
31	644	2	1
31	1237	3	1
31	1830	4	1
31	2423	5	1
31	3016	6	1
31	3609	7	1
31	4202	8	1
31	4795	9	1
31	5390	10	1
31	6078	11	1
31	6671	12	1
31	7264	13	1
31	7857	14	1
31	8450	15	1
31	9043	16	1
31	9636	17	1
31	10229	18	1
31	10822	19	1
31	11415	20	1
31	12008	21	1
31	12601	22	1
31	13194	23	1
31	13787	24	1
31	14380	25	1
31	14973	26	1
31	15566	27	1
31	16159	28	1
31	16752	29	1
31	17345	30	1
31	17938	31	1
31	18531	32	1
31	19124	33	1
31	19717	34	1
31	20310	35	1
31	20903	36	1
31	21496	37	1
31	22089	38	1
31	22682	39	1
31	23275	40	1
31	23868	41	1
31	24461	42	1
31	25054	43	1
31	25647	44	1
31	26240	45	1
31	26833	46	1
31	27426	47	1
31	28019	48	1
31	28612	49	1
31	29205	50	1
31	29798	51	1
31	30391	52	1
31	30984	53	1
31	31577	54	1
31	32170	55	1
31	32763	56	1
31	33356	57	1
31	33949	58	1
31	34542	59	1
31	35135	60	1
31	35728	61	1
31	36321	62	1
31	36914	63	1
31	37507	64	1
31	38100	65	1
31	38693	66	1
31	39286	67	1
31	39879	68	1
31	40472	69	1
31	41065	70	1
31	41658	71	1
31	42251	72	1
31	42844	73	1
31	43437	74	1
31	44030	75	1
31	44623	76	1
31	45216	77	1
31	45809	78	1
31	46402	79	1
31	46995	80	1
31	47588	81	1
31	48181	82	1
31	48774	83	1
31	49367	84	1
31	49960	85	1
31	50553	86	1
31	51146	87	1
31	51739	88	1
31	52332	89	1
31	52925	90	1
31	53518	91	1
31	54111	92	1
31	54704	93	1
31	55297	94	1
31	55890	95	1
31	56483	96	1
31	57076	97	1
31	57669	98	1
31	58262	99	1
31	58855	100	1
32	644	2	0.005625
32	1237	3	0.00625
32	1830	4	0.00625
32	2423	5	0.00625
32	3016	6	0.00625
32	3609	7	0.00625
32	4202	8	0.00625
32	4795	9	0.00625
32	5390	10	0.00625
32	6078	11	0.00658704003
32	6671	12	0.00625
32	7264	13	0.00625
32	7857	14	0.00625
32	8450	15	0.00625
32	9043	16	0.00625
32	9636	17	0.00625
32	10229	18	0.00625
32	10822	19	0.00625
32	11415	20	0.00625
32	12008	21	0.00625
32	12601	22	0.00625
32	13194	23	0.00625
32	13787	24	0.00625
32	14380	25	0.00625
32	14973	26	0.00625
32	15566	27	0.00625
32	16159	28	0.00625
32	16752	29	0.00625
32	17345	30	0.00625
32	17938	31	0.00625
32	18531	32	0.00625
32	19124	33	0.00625
32	19717	34	0.00625
32	20310	35	0.00625
32	20903	36	0.00625
32	21496	37	0.00625
32	22089	38	0.00625
32	22682	39	0.00625
32	23275	40	0.00625
32	23868	41	0.00625
32	24461	42	0.00625
32	25054	43	0.00625
32	25647	44	0.00625
32	26240	45	0.00625
32	26833	46	0.00625
32	27426	47	0.00625
32	28019	48	0.00625
32	28612	49	0.00625
32	29205	50	0.00625
32	29798	51	0.00625
32	30391	52	0.00625
32	30984	53	0.00625
32	31577	54	0.00625
32	32170	55	0.00625
32	32763	56	0.00625
32	33356	57	0.00625
32	33949	58	0.00625
32	34542	59	0.00625
32	35135	60	0.00625
32	35728	61	0.00625
32	36321	62	0.00625
32	36914	63	0.00625
32	37507	64	0.00625
32	38100	65	0.00625
32	38693	66	0.00625
32	39286	67	0.00625
32	39879	68	0.00625
32	40472	69	0.00625
32	41065	70	0.00625
32	41658	71	0.00625
32	42251	72	0.00625
32	42844	73	0.00625
32	43437	74	0.00625
32	44030	75	0.00625
32	44623	76	0.00625
32	45216	77	0.00625
32	45809	78	0.00625
32	46402	79	0.00625
32	46995	80	0.00625
32	47588	81	0.00625
32	48181	82	0.00625
32	48774	83	0.00625
32	49367	84	0.00625
32	49960	85	0.00625
32	50553	86	0.00625
32	51146	87	0.00625
32	51739	88	0.00625
32	52332	89	0.00625
32	52925	90	0.00625
32	53518	91	0.00625
32	54111	92	0.00625
32	54704	93	0.00625
32	55297	94	0.00625
32	55890	95	0.00625
32	56483	96	0.00625
32	57076	97	0.00625
32	57669	98	0.00625
32	58262	99	0.00625
32	58855	100	0.00625
33	644	2	0
33	1237	3	0
33	1830	4	0
33	2423	5	0
33	3016	6	0
33	3609	7	0
33	4202	8	0
33	4795	9	0
33	5390	10	0
33	6078	11	0
33	6671	12	0
33	7264	13	0
33	7857	14	0
33	8450	15	0
33	9043	16	0
33	9636	17	0
33	10229	18	0
33	10822	19	0
33	11415	20	0
33	12008	21	0
33	12601	22	0
33	13194	23	0
33	13787	24	0
33	14380	25	0
33	14973	26	0
33	15566	27	0
33	16159	28	0
33	16752	29	0
33	17345	30	0
33	17938	31	0
33	18531	32	0
33	19124	33	0
33	19717	34	0
33	20310	35	0
33	20903	36	0
33	21496	37	0
33	22089	38	0
33	22682	39	0
33	23275	40	0
33	23868	41	0
33	24461	42	0
33	25054	43	0
33	25647	44	0
33	26240	45	0
33	26833	46	0
33	27426	47	0
33	28019	48	0
33	28612	49	0
33	29205	50	0
33	29798	51	0
33	30391	52	0
33	30984	53	0
33	31577	54	0
33	32170	55	0
33	32763	56	0
33	33356	57	0
33	33949	58	0
33	34542	59	0
33	35135	60	0
33	35728	61	0
33	36321	62	0
33	36914	63	0
33	37507	64	0
33	38100	65	0
33	38693	66	0
33	39286	67	0
33	39879	68	0
33	40472	69	0
33	41065	70	0
33	41658	71	0
33	42251	72	0
33	42844	73	0
33	43437	74	0
33	44030	75	0
33	44623	76	0
33	45216	77	0
33	45809	78	0
33	46402	79	0
33	46995	80	0
33	47588	81	0
33	48181	82	0
33	48774	83	0
33	49367	84	0
33	49960	85	0
33	50553	86	0
33	51146	87	0
33	51739	88	0
33	52332	89	0
33	52925	90	0
33	53518	91	0
33	54111	92	0
33	54704	93	0
33	55297	94	0
33	55890	95	0
33	56483	96	0
33	57076	97	0
33	57669	98	0
33	58262	99	0
33	58855	100	0
34	645	2	2
34	1238	3	2
34	1831	4	2
34	2424	5	2
34	3017	6	2
34	3610	7	2
34	4203	8	2
34	4796	9	2
34	5391	10	2
34	6079	11	2
34	6672	12	2
34	7265	13	2
34	7858	14	2
34	8451	15	2
34	9044	16	2
34	9637	17	2
34	10230	18	2
34	10823	19	2
34	11416	20	2
34	12009	21	2
34	12602	22	2
34	13195	23	2
34	13788	24	2
34	14381	25	2
34	14974	26	2
34	15567	27	2
34	16160	28	2
34	16753	29	2
34	17346	30	2
34	17939	31	2
34	18532	32	2
34	19125	33	2
34	19718	34	2
34	20311	35	2
34	20904	36	2
34	21497	37	2
34	22090	38	2
34	22683	39	2
34	23276	40	2
34	23869	41	2
34	24462	42	2
34	25055	43	2
34	25648	44	2
34	26241	45	2
34	26834	46	2
34	27427	47	2
34	28020	48	2
34	28613	49	2
34	29206	50	2
34	29799	51	2
34	30392	52	2
34	30985	53	2
34	31578	54	2
34	32171	55	2
34	32764	56	2
34	33357	57	2
34	33950	58	2
34	34543	59	2
34	35136	60	2
34	35729	61	2
34	36322	62	2
34	36915	63	2
34	37508	64	2
34	38101	65	2
34	38694	66	2
34	39287	67	2
34	39880	68	2
34	40473	69	2
34	41066	70	2
34	41659	71	2
34	42252	72	2
34	42845	73	2
34	43438	74	2
34	44031	75	2
34	44624	76	2
34	45217	77	2
34	45810	78	2
34	46403	79	2
34	46996	80	2
34	47589	81	2
34	48182	82	2
34	48775	83	2
34	49368	84	2
34	49961	85	2
34	50554	86	2
34	51147	87	2
34	51740	88	2
34	52333	89	2
34	52926	90	2
34	53519	91	2
34	54112	92	2
34	54705	93	2
34	55298	94	2
34	55891	95	2
34	56484	96	2
34	57077	97	2
34	57670	98	2
34	58263	99	2
34	58856	100	2
35	645	2	0.002817
35	1238	3	0.00313
35	1831	4	0.00313
35	2424	5	0.00313
35	3017	6	0.00313
35	3610	7	0.00313
35	4203	8	0.00313
35	4796	9	0.00313
35	5391	10	0.00313
35	6079	11	0.003179
35	6672	12	0.00313
35	7265	13	0.00313
35	7858	14	0.00313
35	8451	15	0.00313
35	9044	16	0.00313
35	9637	17	0.00313
35	10230	18	0.00313
35	10823	19	0.00313
35	11416	20	0.00313
35	12009	21	0.00313
35	12602	22	0.00313
35	13195	23	0.00313
35	13788	24	0.00313
35	14381	25	0.00313
35	14974	26	0.00313
35	15567	27	0.00313
35	16160	28	0.00313
35	16753	29	0.00313
35	17346	30	0.00313
35	17939	31	0.00313
35	18532	32	0.00313
35	19125	33	0.00313
35	19718	34	0.00313
35	20311	35	0.00313
35	20904	36	0.00313
35	21497	37	0.00313
35	22090	38	0.00313
35	22683	39	0.00313
35	23276	40	0.00313
35	23869	41	0.00313
35	24462	42	0.00313
35	25055	43	0.00313
35	25648	44	0.00313
35	26241	45	0.00313
35	26834	46	0.00313
35	27427	47	0.00313
35	28020	48	0.00313
35	28613	49	0.00313
35	29206	50	0.00313
35	29799	51	0.00313
35	30392	52	0.00313
35	30985	53	0.00313
35	31578	54	0.00313
35	32171	55	0.00313
35	32764	56	0.00313
35	33357	57	0.00313
35	33950	58	0.00313
35	34543	59	0.00313
35	35136	60	0.00313
35	35729	61	0.00313
35	36322	62	0.00313
35	36915	63	0.00313
35	37508	64	0.00313
35	38101	65	0.00313
35	38694	66	0.00313
35	39287	67	0.00313
35	39880	68	0.00313
35	40473	69	0.00313
35	41066	70	0.00313
35	41659	71	0.00313
35	42252	72	0.00313
35	42845	73	0.00313
35	43438	74	0.00313
35	44031	75	0.00313
35	44624	76	0.00313
35	45217	77	0.00313
35	45810	78	0.00313
35	46403	79	0.00313
35	46996	80	0.00313
35	47589	81	0.00313
35	48182	82	0.00313
35	48775	83	0.00313
35	49368	84	0.00313
35	49961	85	0.00313
35	50554	86	0.00313
35	51147	87	0.00313
35	51740	88	0.00313
35	52333	89	0.00313
35	52926	90	0.00313
35	53519	91	0.00313
35	54112	92	0.00313
35	54705	93	0.00313
35	55298	94	0.00313
35	55891	95	0.00313
35	56484	96	0.00313
35	57077	97	0.00313
35	57670	98	0.00313
35	58263	99	0.00313
35	58856	100	0.00313
36	645	2	0
36	1238	3	0
36	1831	4	0
36	2424	5	0
36	3017	6	0
36	3610	7	0
36	4203	8	0
36	4796	9	0
36	5391	10	0
36	6079	11	0
36	6672	12	0
36	7265	13	0
36	7858	14	0
36	8451	15	0
36	9044	16	0
36	9637	17	0
36	10230	18	0
36	10823	19	0
36	11416	20	0
36	12009	21	0
36	12602	22	0
36	13195	23	0
36	13788	24	0
36	14381	25	0
36	14974	26	0
36	15567	27	0
36	16160	28	0
36	16753	29	0
36	17346	30	0
36	17939	31	0
36	18532	32	0
36	19125	33	0
36	19718	34	0
36	20311	35	0
36	20904	36	0
36	21497	37	0
36	22090	38	0
36	22683	39	0
36	23276	40	0
36	23869	41	0
36	24462	42	0
36	25055	43	0
36	25648	44	0
36	26241	45	0
36	26834	46	0
36	27427	47	0
36	28020	48	0
36	28613	49	0
36	29206	50	0
36	29799	51	0
36	30392	52	0
36	30985	53	0
36	31578	54	0
36	32171	55	0
36	32764	56	0
36	33357	57	0
36	33950	58	0
36	34543	59	0
36	35136	60	0
36	35729	61	0
36	36322	62	0
36	36915	63	0
36	37508	64	0
36	38101	65	0
36	38694	66	0
36	39287	67	0
36	39880	68	0
36	40473	69	0
36	41066	70	0
36	41659	71	0
36	42252	72	0
36	42845	73	0
36	43438	74	0
36	44031	75	0
36	44624	76	0
36	45217	77	0
36	45810	78	0
36	46403	79	0
36	46996	80	0
36	47589	81	0
36	48182	82	0
36	48775	83	0
36	49368	84	0
36	49961	85	0
36	50554	86	0
36	51147	87	0
36	51740	88	0
36	52333	89	0
36	52926	90	0
36	53519	91	0
36	54112	92	0
36	54705	93	0
36	55298	94	0
36	55891	95	0
36	56484	96	0
36	57077	97	0
36	57670	98	0
36	58263	99	0
36	58856	100	0

