version 3
run BreakRanksNoGui-563-20240710-17:10:35-269900
attr configname BreakRanksNoGui
attr datetime 20240710-17:10:35
attr datetimef 20240710-171035
attr experiment BreakRanksNoGui
attr inifile omnetpp.ini
attr iterationvars "$nCars=3, $platoonSize=2, $nLanes=1, $ploegH=0.5, $controller=1, $headway=0.1, $leaderHeadway=1.2, $leaderSpeed=130, $breakRanksSafetyDistance=2, $minSpeed=120, $maxSpeed=140, $beaconInterval=0.1, $priority=4, $packetSize=200, $sController=\"CACC\", $0=2, $1=0"
attr iterationvarsd nCars=3/platoonSize=2/nLanes=1/ploegH=0.5/controller=1/headway=0.1/leaderHeadway=1.2/leaderSpeed=130/breakRanksSafetyDistance=2/minSpeed=120/maxSpeed=140/beaconInterval=0.1/priority=4/packetSize=200/sController=CACC/2/0
attr iterationvarsf nCars=3,platoonSize=2,nLanes=1,ploegH=0.5,controller=1,headway=0.1,leaderHeadway=1.2,leaderSpeed=130,breakRanksSafetyDistance=2,minSpeed=120,maxSpeed=140,beaconInterval=0.1,priority=4,packetSize=200,sController=CACC,2,0-
attr measurement "$nCars=3, $platoonSize=2, $nLanes=1, $ploegH=0.5, $controller=1, $headway=0.1, $leaderHeadway=1.2, $leaderSpeed=130, $breakRanksSafetyDistance=2, $minSpeed=120, $maxSpeed=140, $beaconInterval=0.1, $priority=4, $packetSize=200, $sController=\"CACC\", $0=2, $1=0"
attr network Highway
attr processid 269900
attr repetition 3
attr replication #3
attr resultdir results
attr runnumber 563
attr seedset 3
itervar beaconInterval 0.1
itervar breakRanksSafetyDistance 2
itervar controller 1
itervar headway 0.1
itervar leaderHeadway 1.2
itervar leaderSpeed 130
itervar maxSpeed 140
itervar minSpeed 120
itervar nCars 3
itervar nLanes 1
itervar packetSize 200
itervar platoonSize 2
itervar ploegH 0.5
itervar priority 4
itervar sController "\"CACC\""
config image-path ../../../veins/images
config repeat 10
config extends BreakRanks
config *.manager.command "\"sumo\""
config *.manager.ignoreGuiCommands true
config output-vector-file "results/BreakRanks_1_0.1_130_2_2 /result_3.vec"
config output-scalar-file "results/BreakRanks_1_0.1_130_2_2 /result_3.sca"
config extends Platooning
config *.node[*].scenario_type "\"BreakRanksScenario\""
config *.manager.command "\"sumo-gui\""
config *.node[*].scenario_type "\"SimpleScenario\""
config cmdenv-express-mode true
config cmdenv-autoflush true
config cmdenv-status-frequency 15s
config num-rngs 6
config network Highway
config debug-on-errors true
config print-undisposed true
config *.playgroundSizeX 65000m
config *.playgroundSizeY 25000m
config *.playgroundSizeZ 50m
config sim-time-limit "100 s"
config *.annotations.draw false
config *.obstacles.debug false
config *.world.useTorus false
config *.world.use2D false
config *.manager.updateInterval 0.01s
config *.manager.host "\"localhost\""
config *.manager.moduleType "\"org.car2x.plexe.PlatoonCar\""
config *.manager.moduleName "\"node\""
config *.manager.moduleDisplayString "\"\""
config *.manager.autoShutdown true
config *.manager.margin 25
config *.connectionManager.sendDirect true
config *.connectionManager.maxInterfDist 2600m
config *.connectionManager.drawMaxIntfDist false
config *.**.nic.mac1609_4.useServiceChannel false
config *.**.nic.mac1609_4.txPower 100mW
config *.**.nic.mac1609_4.bitrate 6Mbps
config *.**.nic.mac1609_4.useAcks true
config *.**.nic.mac1609_4.ackErrorRate 0.0
config *.**.nic.mac1609_4.frameErrorRate 0.0
config *.**.nic.phy80211p.minPowerLevel -94dBm
config *.**.nic.phy80211p.maxTXPower 100mW
config *.**.nic.phy80211p.useNoiseFloor true
config *.**.nic.phy80211p.noiseFloor -95dBm
config *.**.nic.phy80211p.decider "xmldoc(\"config.xml\")"
config *.**.nic.phy80211p.analogueModels "xmldoc(\"config.xml\")"
config *.**.nic.phy80211p.usePropagationDelay true
config *.node[*].mobility.x 0
config *.node[*].mobility.y 0
config *.node[*].mobility.z 1.895
config seed-set 3
config **.seed 3
config *.node[*].prot.rng-0 2
config *.node[*].appl.rng-0 3
config *.node[*].scenario.rng-0 4
config **.traffic.rng-0 5
config *.manager.configFile "\"./sumocfg/freeway.sumo.cfg\""
config *.manager.launchConfig "xmldoc(\"./sumocfg/freeway.launchd.xml\")"
config **.numberOfCars 3
config **.numberOfCarsPerPlatoon 2
config **.numberOfLanes 1
config *.node[*].helper_type "\"PositionHelper\""
config *.node[*].scenario.caccC1 0.5
config *.node[*].scenario.caccXi 1
config *.node[*].scenario.caccOmegaN "0.2 Hz"
config *.node[*].scenario.caccSpacing "2 m"
config *.node[*].scenario.engineTau "0.5 s"
config *.node[*].scenario.ploegH 0.5s
config *.node[*].scenario.ploegKp 0.2
config *.node[*].scenario.ploegKd 0.7
config *.node[*].scenario.useRealisticEngine false
config *.node[*].scenario.useControllerAcceleration true
config *.node[*].scenario.nLanes 1
config **.numericController 1
config **.headway 0.1s
config *.node[*].scenario.accHeadway 0.1s
config *.node[*].scenario.leaderHeadway 1.2s
config *.node[*].scenario.leaderSpeed 130kmph
config *.node[*].appl_type "\"SimplePlatooningApp\""
config *.node[*].appl.*.scalar-recording true
config *.node[*].appl.*.vector-recording true
config *.node[0].appl.breakRanksSafetyDistance 2m
config *.node[*].appl.minSpeed 120kmph
config *.node[*].appl.maxSpeed 140kmph
config *.node[*].protocol_type "\"SimplePlatooningBeaconing\""
config *.node[*].prot.*.scalar-recording true
config *.node[*].prot.*.vector-recording true
config *.node[*].prot.beaconingInterval 0.1s
config *.node[*].prot.priority 4
config *.node[*].prot.packetSize 200
config **.traffic_type "\"PlatoonsTrafficManager\""
config **.traffic.platoonInsertTime "1 s"
config **.traffic.platoonInsertSpeed 130kmph
config **.traffic.nCars 3
config **.traffic.platoonSize 2
config **.traffic.nLanes 1
config **.traffic.platooningVType "\"vtypeauto\""
config **.traffic.controller "\"CACC\""
config **.traffic.platoonInsertDistance 2m
config **.traffic.platoonInsertHeadway 0s
config **.traffic.platoonLeaderHeadway 1.2s
config **.scalar-recording false
config **.vector-recording false

vector 0 Highway.node[0].appl distance ETV
vector 1 Highway.node[0].appl relativeSpeed ETV
vector 2 Highway.node[0].appl nodeId ETV
vector 3 Highway.node[0].appl acceleration ETV
vector 4 Highway.node[0].appl controllerAcceleration ETV
vector 5 Highway.node[0].appl speed ETV
vector 6 Highway.node[0].appl posx ETV
vector 7 Highway.node[0].appl posy ETV
vector 8 Highway.node[1].appl distance ETV
vector 9 Highway.node[1].appl relativeSpeed ETV
vector 10 Highway.node[1].appl nodeId ETV
vector 11 Highway.node[1].appl acceleration ETV
vector 12 Highway.node[1].appl controllerAcceleration ETV
vector 13 Highway.node[1].appl speed ETV
vector 14 Highway.node[1].appl posx ETV
vector 15 Highway.node[1].appl posy ETV
vector 16 Highway.node[2].appl distance ETV
vector 17 Highway.node[2].appl relativeSpeed ETV
vector 18 Highway.node[2].appl nodeId ETV
vector 19 Highway.node[2].appl acceleration ETV
vector 20 Highway.node[2].appl controllerAcceleration ETV
vector 21 Highway.node[2].appl speed ETV
vector 22 Highway.node[2].appl posx ETV
vector 23 Highway.node[2].appl posy ETV
vector 24 Highway.node[1].prot leaderDelay ETV
vector 25 Highway.node[1].prot leaderDelayId ETV
vector 26 Highway.node[1].prot frontDelay ETV
vector 27 Highway.node[1].prot frontDelayId ETV
vector 28 Highway.node[0].prot nodeId ETV
vector 29 Highway.node[0].prot busyTime ETV
vector 30 Highway.node[0].prot collisions ETV
vector 31 Highway.node[1].prot nodeId ETV
vector 32 Highway.node[1].prot busyTime ETV
vector 33 Highway.node[1].prot collisions ETV
vector 34 Highway.node[2].prot nodeId ETV
vector 35 Highway.node[2].prot busyTime ETV
vector 36 Highway.node[2].prot collisions ETV
0	113	1.11	9341.16
0	172	1.21	9341.16
0	231	1.31	9341.16
0	290	1.41	9341.16
0	349	1.51	9341.16
0	408	1.61	9341.16
0	467	1.71	9341.16
0	526	1.81	9341.16
0	585	1.91	9341.16
0	647	2.01	-1
0	706	2.11	-1
0	765	2.21	-1
0	824	2.31	-1
0	883	2.41	-1
0	942	2.51	-1
0	1001	2.61	-1
0	1060	2.71	-1
0	1119	2.81	-1
0	1178	2.91	-1
0	1240	3.01	-1
0	1299	3.11	-1
0	1358	3.21	-1
0	1417	3.31	-1
0	1476	3.41	-1
0	1535	3.51	-1
0	1594	3.61	-1
0	1653	3.71	-1
0	1712	3.81	-1
0	1771	3.91	-1
0	1833	4.01	-1
0	1892	4.11	-1
0	1951	4.21	-1
0	2010	4.31	-1
0	2069	4.41	-1
0	2128	4.51	-1
0	2187	4.61	-1
0	2246	4.71	-1
0	2305	4.81	-1
0	2364	4.91	-1
0	2426	5.01	-1
0	2485	5.11	-1
0	2544	5.21	-1
0	2603	5.31	-1
0	2662	5.41	-1
0	2721	5.51	-1
0	2780	5.61	-1
0	2839	5.71	-1
0	2898	5.81	-1
0	2957	5.91	-1
0	3019	6.01	-1
0	3078	6.11	-1
0	3137	6.21	-1
0	3196	6.31	-1
0	3255	6.41	-1
0	3314	6.51	-1
0	3373	6.61	-1
0	3432	6.71	-1
0	3491	6.81	-1
0	3550	6.91	-1
0	3612	7.01	-1
0	3671	7.11	-1
0	3730	7.21	-1
0	3789	7.31	-1
0	3848	7.41	-1
0	3907	7.51	-1
0	3966	7.61	-1
0	4025	7.71	-1
0	4084	7.81	-1
0	4143	7.91	-1
0	4205	8.01	-1
0	4264	8.11	-1
0	4323	8.21	-1
0	4382	8.31	-1
0	4441	8.41	-1
0	4500	8.51	-1
0	4559	8.61	-1
0	4618	8.71	-1
0	4677	8.81	-1
0	4736	8.91	-1
0	4798	9.01	-1
0	4857	9.11	-1
0	4916	9.21	-1
0	4975	9.31	-1
0	5034	9.41	-1
0	5093	9.51	-1
0	5152	9.61	-1
0	5211	9.71	-1
0	5270	9.81	-1
0	5329	9.91	-1
0	5488	10.01	-1
0	5547	10.11	-1
0	5606	10.21	-1
0	5665	10.31	-1
0	5724	10.41	-1
0	5783	10.51	-1
0	5842	10.61	-1
0	5901	10.71	-1
0	5960	10.81	-1
0	6019	10.91	-1
0	6081	11.01	-1
0	6140	11.11	-1
0	6199	11.21	-1
0	6258	11.31	-1
0	6317	11.41	-1
0	6376	11.51	-1
0	6435	11.61	-1
0	6494	11.71	-1
0	6553	11.81	-1
0	6612	11.91	-1
0	6674	12.01	-1
0	6733	12.11	-1
0	6792	12.21	-1
0	6851	12.31	-1
0	6910	12.41	-1
0	6969	12.51	-1
0	7028	12.61	-1
0	7087	12.71	-1
0	7146	12.81	-1
0	7205	12.91	-1
0	7267	13.01	-1
0	7326	13.11	-1
0	7385	13.21	-1
0	7444	13.31	-1
0	7503	13.41	-1
0	7562	13.51	-1
0	7621	13.61	-1
0	7680	13.71	-1
0	7739	13.81	-1
0	7798	13.91	-1
0	7860	14.01	-1
0	7919	14.11	-1
0	7978	14.21	-1
0	8037	14.31	-1
0	8096	14.41	-1
0	8155	14.51	-1
0	8214	14.61	-1
0	8273	14.71	-1
0	8332	14.81	-1
0	8391	14.91	-1
0	8453	15.01	-1
0	8512	15.11	-1
0	8571	15.21	-1
0	8630	15.31	-1
0	8689	15.41	-1
0	8748	15.51	-1
0	8807	15.61	-1
0	8866	15.71	-1
0	8925	15.81	-1
0	8984	15.91	-1
0	9046	16.01	-1
0	9105	16.11	-1
0	9164	16.21	-1
0	9223	16.31	-1
0	9282	16.41	-1
0	9341	16.51	-1
0	9400	16.61	-1
0	9459	16.71	-1
0	9518	16.81	-1
0	9577	16.91	-1
0	9639	17.01	-1
0	9698	17.11	-1
0	9757	17.21	-1
0	9816	17.31	-1
0	9875	17.41	-1
0	9934	17.51	-1
0	9993	17.61	-1
0	10052	17.71	-1
0	10111	17.81	-1
0	10170	17.91	-1
0	10232	18.01	-1
0	10291	18.11	-1
0	10350	18.21	-1
0	10409	18.31	-1
0	10468	18.41	-1
0	10527	18.51	-1
0	10586	18.61	-1
0	10645	18.71	-1
0	10704	18.81	-1
0	10763	18.91	-1
0	10825	19.01	-1
0	10884	19.11	-1
0	10943	19.21	-1
0	11002	19.31	-1
0	11061	19.41	-1
0	11120	19.51	-1
0	11179	19.61	-1
0	11238	19.71	-1
0	11297	19.81	-1
0	11356	19.91	-1
0	11418	20.01	-1
0	11477	20.11	-1
0	11536	20.21	-1
0	11595	20.31	-1
0	11654	20.41	-1
0	11713	20.51	-1
0	11772	20.61	-1
0	11831	20.71	-1
0	11890	20.81	-1
0	11949	20.91	-1
0	12011	21.01	-1
0	12070	21.11	-1
0	12129	21.21	-1
0	12188	21.31	-1
0	12247	21.41	-1
0	12306	21.51	-1
0	12365	21.61	-1
0	12424	21.71	-1
0	12483	21.81	-1
0	12542	21.91	-1
0	12604	22.01	-1
0	12663	22.11	-1
0	12722	22.21	-1
0	12781	22.31	-1
0	12840	22.41	-1
0	12899	22.51	-1
0	12958	22.61	-1
0	13017	22.71	-1
0	13076	22.81	-1
0	13135	22.91	-1
0	13197	23.01	-1
0	13256	23.11	-1
0	13315	23.21	-1
0	13374	23.31	-1
0	13433	23.41	-1
0	13492	23.51	-1
0	13551	23.61	-1
0	13610	23.71	-1
0	13669	23.81	-1
0	13728	23.91	-1
0	13790	24.01	-1
0	13849	24.11	-1
0	13908	24.21	-1
0	13967	24.31	-1
0	14026	24.41	-1
0	14085	24.51	-1
0	14144	24.61	-1
0	14203	24.71	-1
0	14262	24.81	-1
0	14321	24.91	-1
0	14383	25.01	-1
0	14442	25.11	-1
0	14501	25.21	-1
0	14560	25.31	-1
0	14619	25.41	-1
0	14678	25.51	-1
0	14737	25.61	-1
0	14796	25.71	-1
0	14855	25.81	-1
0	14914	25.91	-1
0	14976	26.01	-1
0	15035	26.11	-1
0	15094	26.21	-1
0	15153	26.31	-1
0	15212	26.41	-1
0	15271	26.51	-1
0	15330	26.61	-1
0	15389	26.71	-1
0	15448	26.81	-1
0	15507	26.91	-1
0	15569	27.01	-1
0	15628	27.11	-1
0	15687	27.21	-1
0	15746	27.31	-1
0	15805	27.41	-1
0	15864	27.51	-1
0	15923	27.61	-1
0	15982	27.71	-1
0	16041	27.81	-1
0	16100	27.91	-1
0	16162	28.01	-1
0	16221	28.11	-1
0	16280	28.21	-1
0	16339	28.31	-1
0	16398	28.41	-1
0	16457	28.51	-1
0	16516	28.61	-1
0	16575	28.71	-1
0	16634	28.81	-1
0	16693	28.91	-1
0	16755	29.01	-1
0	16814	29.11	-1
0	16873	29.21	-1
0	16932	29.31	-1
0	16991	29.41	-1
0	17050	29.51	-1
0	17109	29.61	-1
0	17168	29.71	-1
0	17227	29.81	-1
0	17286	29.91	-1
0	17348	30.01	-1
0	17407	30.11	-1
0	17466	30.21	-1
0	17525	30.31	-1
0	17584	30.41	-1
0	17643	30.51	-1
0	17702	30.61	-1
0	17761	30.71	-1
0	17820	30.81	-1
0	17879	30.91	-1
0	17941	31.01	-1
0	18000	31.11	-1
0	18059	31.21	-1
0	18118	31.31	-1
0	18177	31.41	-1
0	18236	31.51	-1
0	18295	31.61	-1
0	18354	31.71	-1
0	18413	31.81	-1
0	18472	31.91	-1
0	18534	32.01	-1
0	18593	32.11	-1
0	18652	32.21	-1
0	18711	32.31	-1
0	18770	32.41	-1
0	18829	32.51	-1
0	18888	32.61	-1
0	18947	32.71	-1
0	19006	32.81	-1
0	19065	32.91	-1
0	19127	33.01	-1
0	19186	33.11	-1
0	19245	33.21	-1
0	19304	33.31	-1
0	19363	33.41	-1
0	19422	33.51	-1
0	19481	33.61	-1
0	19540	33.71	-1
0	19599	33.81	-1
0	19658	33.91	-1
0	19720	34.01	-1
0	19779	34.11	-1
0	19838	34.21	-1
0	19897	34.31	-1
0	19956	34.41	-1
0	20015	34.51	-1
0	20074	34.61	-1
0	20133	34.71	-1
0	20192	34.81	-1
0	20251	34.91	-1
0	20313	35.01	-1
0	20372	35.11	-1
0	20431	35.21	-1
0	20490	35.31	-1
0	20549	35.41	-1
0	20608	35.51	-1
0	20667	35.61	-1
0	20726	35.71	-1
0	20785	35.81	-1
0	20844	35.91	-1
0	20906	36.01	-1
0	20965	36.11	-1
0	21024	36.21	-1
0	21083	36.31	-1
0	21142	36.41	-1
0	21201	36.51	-1
0	21260	36.61	-1
0	21319	36.71	-1
0	21378	36.81	-1
0	21437	36.91	-1
0	21499	37.01	-1
0	21558	37.11	-1
0	21617	37.21	-1
0	21676	37.31	-1
0	21735	37.41	-1
0	21794	37.51	-1
0	21853	37.61	-1
0	21912	37.71	-1
0	21971	37.81	-1
0	22030	37.91	-1
0	22092	38.01	-1
0	22151	38.11	-1
0	22210	38.21	-1
0	22269	38.31	-1
0	22328	38.41	-1
0	22387	38.51	-1
0	22446	38.61	-1
0	22505	38.71	-1
0	22564	38.81	-1
0	22623	38.91	-1
0	22685	39.01	-1
0	22744	39.11	-1
0	22803	39.21	-1
0	22862	39.31	-1
0	22921	39.41	-1
0	22980	39.51	-1
0	23039	39.61	-1
0	23098	39.71	-1
0	23157	39.81	-1
0	23216	39.91	-1
0	23278	40.01	-1
0	23337	40.11	-1
0	23396	40.21	-1
0	23455	40.31	-1
0	23514	40.41	-1
0	23573	40.51	-1
0	23632	40.61	-1
0	23691	40.71	-1
0	23750	40.81	-1
0	23809	40.91	-1
0	23871	41.01	-1
0	23930	41.11	-1
0	23989	41.21	-1
0	24048	41.31	-1
0	24107	41.41	-1
0	24166	41.51	-1
0	24225	41.61	-1
0	24284	41.71	-1
0	24343	41.81	-1
0	24402	41.91	-1
0	24464	42.01	-1
0	24523	42.11	-1
0	24582	42.21	-1
0	24641	42.31	-1
0	24700	42.41	-1
0	24759	42.51	-1
0	24818	42.61	-1
0	24877	42.71	-1
0	24936	42.81	-1
0	24995	42.91	-1
0	25057	43.01	-1
0	25116	43.11	-1
0	25175	43.21	-1
0	25234	43.31	-1
0	25293	43.41	-1
0	25352	43.51	-1
0	25411	43.61	-1
0	25470	43.71	-1
0	25529	43.81	-1
0	25588	43.91	-1
0	25650	44.01	-1
0	25709	44.11	-1
0	25768	44.21	-1
0	25827	44.31	-1
0	25886	44.41	-1
0	25945	44.51	-1
0	26004	44.61	-1
0	26063	44.71	-1
0	26122	44.81	-1
0	26181	44.91	-1
0	26243	45.01	-1
0	26302	45.11	-1
0	26361	45.21	-1
0	26420	45.31	-1
0	26479	45.41	-1
0	26538	45.51	-1
0	26597	45.61	-1
0	26656	45.71	-1
0	26715	45.81	-1
0	26774	45.91	-1
0	26836	46.01	-1
0	26895	46.11	-1
0	26954	46.21	-1
0	27013	46.31	-1
0	27072	46.41	-1
0	27131	46.51	-1
0	27190	46.61	-1
0	27249	46.71	-1
0	27308	46.81	-1
0	27367	46.91	-1
0	27429	47.01	-1
0	27488	47.11	-1
0	27547	47.21	-1
0	27606	47.31	-1
0	27665	47.41	-1
0	27724	47.51	-1
0	27783	47.61	-1
0	27842	47.71	-1
0	27901	47.81	-1
0	27960	47.91	-1
0	28022	48.01	-1
0	28081	48.11	-1
0	28140	48.21	-1
0	28199	48.31	-1
0	28258	48.41	-1
0	28317	48.51	-1
0	28376	48.61	-1
0	28435	48.71	-1
0	28494	48.81	-1
0	28553	48.91	-1
0	28615	49.01	-1
0	28674	49.11	-1
0	28733	49.21	-1
0	28792	49.31	-1
0	28851	49.41	-1
0	28910	49.51	-1
0	28969	49.61	-1
0	29028	49.71	-1
0	29087	49.81	-1
0	29146	49.91	-1
0	29208	50.01	-1
0	29267	50.11	-1
0	29326	50.21	-1
0	29385	50.31	-1
0	29444	50.41	-1
0	29503	50.51	-1
0	29562	50.61	-1
0	29621	50.71	-1
0	29680	50.81	-1
0	29739	50.91	-1
0	29801	51.01	-1
0	29860	51.11	-1
0	29919	51.21	-1
0	29978	51.31	-1
0	30037	51.41	-1
0	30096	51.51	-1
0	30155	51.61	-1
0	30214	51.71	-1
0	30273	51.81	-1
0	30332	51.91	-1
0	30394	52.01	-1
0	30453	52.11	-1
0	30512	52.21	-1
0	30571	52.31	-1
0	30630	52.41	-1
0	30689	52.51	-1
0	30748	52.61	-1
0	30807	52.71	-1
0	30866	52.81	-1
0	30925	52.91	-1
0	30987	53.01	-1
0	31046	53.11	-1
0	31105	53.21	-1
0	31164	53.31	-1
0	31223	53.41	-1
0	31282	53.51	-1
0	31341	53.61	-1
0	31400	53.71	-1
0	31459	53.81	-1
0	31518	53.91	-1
0	31580	54.01	-1
0	31639	54.11	-1
0	31698	54.21	-1
0	31757	54.31	-1
0	31816	54.41	-1
0	31875	54.51	-1
0	31934	54.61	-1
0	31993	54.71	-1
0	32052	54.81	-1
0	32111	54.91	-1
0	32173	55.01	-1
0	32232	55.11	-1
0	32291	55.21	-1
0	32350	55.31	-1
0	32409	55.41	-1
0	32468	55.51	-1
0	32527	55.61	-1
0	32586	55.71	-1
0	32645	55.81	-1
0	32704	55.91	-1
0	32766	56.01	-1
0	32825	56.11	-1
0	32884	56.21	-1
0	32943	56.31	-1
0	33002	56.41	-1
0	33061	56.51	-1
0	33120	56.61	-1
0	33179	56.71	-1
0	33238	56.81	-1
0	33297	56.91	-1
0	33359	57.01	-1
0	33418	57.11	-1
0	33477	57.21	-1
0	33536	57.31	-1
0	33595	57.41	-1
0	33654	57.51	-1
0	33713	57.61	-1
0	33772	57.71	-1
0	33831	57.81	-1
0	33890	57.91	-1
0	33952	58.01	-1
0	34011	58.11	-1
0	34070	58.21	-1
0	34129	58.31	-1
0	34188	58.41	-1
0	34247	58.51	-1
0	34306	58.61	-1
0	34365	58.71	-1
0	34424	58.81	-1
0	34483	58.91	-1
0	34545	59.01	-1
0	34604	59.11	-1
0	34663	59.21	-1
0	34722	59.31	-1
0	34781	59.41	-1
0	34840	59.51	-1
0	34899	59.61	-1
0	34958	59.71	-1
0	35017	59.81	-1
0	35076	59.91	-1
0	35138	60.01	-1
0	35197	60.11	-1
0	35256	60.21	-1
0	35315	60.31	-1
0	35374	60.41	-1
0	35433	60.51	-1
0	35492	60.61	-1
0	35551	60.71	-1
0	35610	60.81	-1
0	35669	60.91	-1
0	35731	61.01	-1
0	35790	61.11	-1
0	35849	61.21	-1
0	35908	61.31	-1
0	35967	61.41	-1
0	36026	61.51	-1
0	36085	61.61	-1
0	36144	61.71	-1
0	36203	61.81	-1
0	36262	61.91	-1
0	36324	62.01	-1
0	36383	62.11	-1
0	36442	62.21	-1
0	36501	62.31	-1
0	36560	62.41	-1
0	36619	62.51	-1
0	36678	62.61	-1
0	36737	62.71	-1
0	36796	62.81	-1
0	36855	62.91	-1
0	36917	63.01	-1
0	36976	63.11	-1
0	37035	63.21	-1
0	37094	63.31	-1
0	37153	63.41	-1
0	37212	63.51	-1
0	37271	63.61	-1
0	37330	63.71	-1
0	37389	63.81	-1
0	37448	63.91	-1
0	37510	64.01	-1
0	37569	64.11	-1
0	37628	64.21	-1
0	37687	64.31	-1
0	37746	64.41	-1
0	37805	64.51	-1
0	37864	64.61	-1
0	37923	64.71	-1
0	37982	64.81	-1
0	38041	64.91	-1
0	38103	65.01	-1
0	38162	65.11	-1
0	38221	65.21	-1
0	38280	65.31	-1
0	38339	65.41	-1
0	38398	65.51	-1
0	38457	65.61	-1
0	38516	65.71	-1
0	38575	65.81	-1
0	38634	65.91	-1
0	38696	66.01	-1
0	38755	66.11	-1
0	38814	66.21	-1
0	38873	66.31	-1
0	38932	66.41	-1
0	38991	66.51	-1
0	39050	66.61	-1
0	39109	66.71	-1
0	39168	66.81	-1
0	39227	66.91	-1
0	39289	67.01	-1
0	39348	67.11	-1
0	39407	67.21	-1
0	39466	67.31	-1
0	39525	67.41	-1
0	39584	67.51	-1
0	39643	67.61	-1
0	39702	67.71	-1
0	39761	67.81	-1
0	39820	67.91	-1
0	39882	68.01	-1
0	39941	68.11	-1
0	40000	68.21	-1
0	40059	68.31	-1
0	40118	68.41	-1
0	40177	68.51	-1
0	40236	68.61	-1
0	40295	68.71	-1
0	40354	68.81	-1
0	40413	68.91	-1
0	40475	69.01	-1
0	40534	69.11	-1
0	40593	69.21	-1
0	40652	69.31	-1
0	40711	69.41	-1
0	40770	69.51	-1
0	40829	69.61	-1
0	40888	69.71	-1
0	40947	69.81	-1
0	41006	69.91	-1
0	41068	70.01	-1
0	41127	70.11	-1
0	41186	70.21	-1
0	41245	70.31	-1
0	41304	70.41	-1
0	41363	70.51	-1
0	41422	70.61	-1
0	41481	70.71	-1
0	41540	70.81	-1
0	41599	70.91	-1
0	41661	71.01	-1
0	41720	71.11	-1
0	41779	71.21	-1
0	41838	71.31	-1
0	41897	71.41	-1
0	41956	71.51	-1
0	42015	71.61	-1
0	42074	71.71	-1
0	42133	71.81	-1
0	42192	71.91	-1
0	42254	72.01	-1
0	42313	72.11	-1
0	42372	72.21	-1
0	42431	72.31	-1
0	42490	72.41	-1
0	42549	72.51	-1
0	42608	72.61	-1
0	42667	72.71	-1
0	42726	72.81	-1
0	42785	72.91	-1
0	42847	73.01	-1
0	42906	73.11	-1
0	42965	73.21	-1
0	43024	73.31	-1
0	43083	73.41	-1
0	43142	73.51	-1
0	43201	73.61	-1
0	43260	73.71	-1
0	43319	73.81	-1
0	43378	73.91	-1
0	43440	74.01	-1
0	43499	74.11	-1
0	43558	74.21	-1
0	43617	74.31	-1
0	43676	74.41	-1
0	43735	74.51	-1
0	43794	74.61	-1
0	43853	74.71	-1
0	43912	74.81	-1
0	43971	74.91	-1
0	44033	75.01	-1
0	44092	75.11	-1
0	44151	75.21	-1
0	44210	75.31	-1
0	44269	75.41	-1
0	44328	75.51	-1
0	44387	75.61	-1
0	44446	75.71	-1
0	44505	75.81	-1
0	44564	75.91	-1
0	44626	76.01	-1
0	44685	76.11	-1
0	44744	76.21	-1
0	44803	76.31	-1
0	44862	76.41	-1
0	44921	76.51	-1
0	44980	76.61	-1
0	45039	76.71	-1
0	45098	76.81	-1
0	45157	76.91	-1
0	45219	77.01	-1
0	45278	77.11	-1
0	45337	77.21	-1
0	45396	77.31	-1
0	45455	77.41	-1
0	45514	77.51	-1
0	45573	77.61	-1
0	45632	77.71	-1
0	45691	77.81	-1
0	45750	77.91	-1
0	45812	78.01	-1
0	45871	78.11	-1
0	45930	78.21	-1
0	45989	78.31	-1
0	46048	78.41	-1
0	46107	78.51	-1
0	46166	78.61	-1
0	46225	78.71	-1
0	46284	78.81	-1
0	46343	78.91	-1
0	46405	79.01	-1
0	46464	79.11	-1
0	46523	79.21	-1
0	46582	79.31	-1
0	46641	79.41	-1
0	46700	79.51	-1
0	46759	79.61	-1
0	46818	79.71	-1
0	46877	79.81	-1
0	46936	79.91	-1
0	46998	80.01	-1
0	47057	80.11	-1
0	47116	80.21	-1
0	47175	80.31	-1
0	47234	80.41	-1
0	47293	80.51	-1
0	47352	80.61	-1
0	47411	80.71	-1
0	47470	80.81	-1
0	47529	80.91	-1
0	47591	81.01	-1
0	47650	81.11	-1
0	47709	81.21	-1
0	47768	81.31	-1
0	47827	81.41	-1
0	47886	81.51	-1
0	47945	81.61	-1
0	48004	81.71	-1
0	48063	81.81	-1
0	48122	81.91	-1
0	48184	82.01	-1
0	48243	82.11	-1
0	48302	82.21	-1
0	48361	82.31	-1
0	48420	82.41	-1
0	48479	82.51	-1
0	48538	82.61	-1
0	48597	82.71	-1
0	48656	82.81	-1
0	48715	82.91	-1
0	48777	83.01	-1
0	48836	83.11	-1
0	48895	83.21	-1
0	48954	83.31	-1
0	49013	83.41	-1
0	49072	83.51	-1
0	49131	83.61	-1
0	49190	83.71	-1
0	49249	83.81	-1
0	49308	83.91	-1
0	49370	84.01	-1
0	49429	84.11	-1
0	49488	84.21	-1
0	49547	84.31	-1
0	49606	84.41	-1
0	49665	84.51	-1
0	49724	84.61	-1
0	49783	84.71	-1
0	49842	84.81	-1
0	49901	84.91	-1
0	49963	85.01	-1
0	50022	85.11	-1
0	50081	85.21	-1
0	50140	85.31	-1
0	50199	85.41	-1
0	50258	85.51	-1
0	50317	85.61	-1
0	50376	85.71	-1
0	50435	85.81	-1
0	50494	85.91	-1
0	50556	86.01	-1
0	50615	86.11	-1
0	50674	86.21	-1
0	50733	86.31	-1
0	50792	86.41	-1
0	50851	86.51	-1
0	50910	86.61	-1
0	50969	86.71	-1
0	51028	86.81	-1
0	51087	86.91	-1
0	51149	87.01	-1
0	51208	87.11	-1
0	51267	87.21	-1
0	51326	87.31	-1
0	51385	87.41	-1
0	51444	87.51	-1
0	51503	87.61	-1
0	51562	87.71	-1
0	51621	87.81	-1
0	51680	87.91	-1
0	51742	88.01	-1
0	51801	88.11	-1
0	51860	88.21	-1
0	51919	88.31	-1
0	51978	88.41	-1
0	52037	88.51	-1
0	52096	88.61	-1
0	52155	88.71	-1
0	52214	88.81	-1
0	52273	88.91	-1
0	52335	89.01	-1
0	52394	89.11	-1
0	52453	89.21	-1
0	52512	89.31	-1
0	52571	89.41	-1
0	52630	89.51	-1
0	52689	89.61	-1
0	52748	89.71	-1
0	52807	89.81	-1
0	52866	89.91	-1
0	52928	90.01	-1
0	52987	90.11	-1
0	53046	90.21	-1
0	53105	90.31	-1
0	53164	90.41	-1
0	53223	90.51	-1
0	53282	90.61	-1
0	53341	90.71	-1
0	53400	90.81	-1
0	53459	90.91	-1
0	53521	91.01	-1
0	53580	91.11	-1
0	53639	91.21	-1
0	53698	91.31	-1
0	53757	91.41	-1
0	53816	91.51	-1
0	53875	91.61	-1
0	53934	91.71	-1
0	53993	91.81	-1
0	54052	91.91	-1
0	54114	92.01	-1
0	54173	92.11	-1
0	54232	92.21	-1
0	54291	92.31	-1
0	54350	92.41	-1
0	54409	92.51	-1
0	54468	92.61	-1
0	54527	92.71	-1
0	54586	92.81	-1
0	54645	92.91	-1
0	54707	93.01	-1
0	54766	93.11	-1
0	54825	93.21	-1
0	54884	93.31	-1
0	54943	93.41	-1
0	55002	93.51	-1
0	55061	93.61	-1
0	55120	93.71	-1
0	55179	93.81	-1
0	55238	93.91	-1
0	55300	94.01	-1
0	55359	94.11	-1
0	55418	94.21	-1
0	55477	94.31	-1
0	55536	94.41	-1
0	55595	94.51	-1
0	55654	94.61	-1
0	55713	94.71	-1
0	55772	94.81	-1
0	55831	94.91	-1
0	55893	95.01	-1
0	55952	95.11	-1
0	56011	95.21	-1
0	56070	95.31	-1
0	56129	95.41	-1
0	56188	95.51	-1
0	56247	95.61	-1
0	56306	95.71	-1
0	56365	95.81	-1
0	56424	95.91	-1
0	56486	96.01	-1
0	56545	96.11	-1
0	56604	96.21	-1
0	56663	96.31	-1
0	56722	96.41	-1
0	56781	96.51	-1
0	56840	96.61	-1
0	56899	96.71	-1
0	56958	96.81	-1
0	57017	96.91	-1
0	57079	97.01	-1
0	57138	97.11	-1
0	57197	97.21	-1
0	57256	97.31	-1
0	57315	97.41	-1
0	57374	97.51	-1
0	57433	97.61	-1
0	57492	97.71	-1
0	57551	97.81	-1
0	57610	97.91	-1
0	57672	98.01	-1
0	57731	98.11	-1
0	57790	98.21	-1
0	57849	98.31	-1
0	57908	98.41	-1
0	57967	98.51	-1
0	58026	98.61	-1
0	58085	98.71	-1
0	58144	98.81	-1
0	58203	98.91	-1
0	58265	99.01	-1
0	58324	99.11	-1
0	58383	99.21	-1
0	58442	99.31	-1
0	58501	99.41	-1
0	58560	99.51	-1
0	58619	99.61	-1
0	58678	99.71	-1
0	58737	99.81	-1
0	58796	99.91	-1
1	113	1.11	0
1	172	1.21	0
1	231	1.31	0
1	290	1.41	0
1	349	1.51	0
1	408	1.61	0
1	467	1.71	0
1	526	1.81	0
1	585	1.91	0
1	647	2.01	0
1	706	2.11	0
1	765	2.21	0
1	824	2.31	0
1	883	2.41	0
1	942	2.51	0
1	1001	2.61	0
1	1060	2.71	0
1	1119	2.81	0
1	1178	2.91	0
1	1240	3.01	0
1	1299	3.11	0
1	1358	3.21	0
1	1417	3.31	0
1	1476	3.41	0
1	1535	3.51	0
1	1594	3.61	0
1	1653	3.71	0
1	1712	3.81	0
1	1771	3.91	0
1	1833	4.01	0
1	1892	4.11	0
1	1951	4.21	0
1	2010	4.31	0
1	2069	4.41	0
1	2128	4.51	0
1	2187	4.61	0
1	2246	4.71	0
1	2305	4.81	0
1	2364	4.91	0
1	2426	5.01	0
1	2485	5.11	0
1	2544	5.21	0
1	2603	5.31	0
1	2662	5.41	0
1	2721	5.51	0
1	2780	5.61	0
1	2839	5.71	0
1	2898	5.81	0
1	2957	5.91	0
1	3019	6.01	0
1	3078	6.11	0
1	3137	6.21	0
1	3196	6.31	0
1	3255	6.41	0
1	3314	6.51	0
1	3373	6.61	0
1	3432	6.71	0
1	3491	6.81	0
1	3550	6.91	0
1	3612	7.01	0
1	3671	7.11	0
1	3730	7.21	0
1	3789	7.31	0
1	3848	7.41	0
1	3907	7.51	0
1	3966	7.61	0
1	4025	7.71	0
1	4084	7.81	0
1	4143	7.91	0
1	4205	8.01	0
1	4264	8.11	0
1	4323	8.21	0
1	4382	8.31	0
1	4441	8.41	0
1	4500	8.51	0
1	4559	8.61	0
1	4618	8.71	0
1	4677	8.81	0
1	4736	8.91	0
1	4798	9.01	0
1	4857	9.11	0
1	4916	9.21	0
1	4975	9.31	0
1	5034	9.41	0
1	5093	9.51	0
1	5152	9.61	0
1	5211	9.71	0
1	5270	9.81	0
1	5329	9.91	0
1	5488	10.01	0
1	5547	10.11	0
1	5606	10.21	0
1	5665	10.31	0
1	5724	10.41	0
1	5783	10.51	0
1	5842	10.61	0
1	5901	10.71	0
1	5960	10.81	0
1	6019	10.91	0
1	6081	11.01	0
1	6140	11.11	0
1	6199	11.21	0
1	6258	11.31	0
1	6317	11.41	0
1	6376	11.51	0
1	6435	11.61	0
1	6494	11.71	0
1	6553	11.81	0
1	6612	11.91	0
1	6674	12.01	0
1	6733	12.11	0
1	6792	12.21	0
1	6851	12.31	0
1	6910	12.41	0
1	6969	12.51	0
1	7028	12.61	0
1	7087	12.71	0
1	7146	12.81	0
1	7205	12.91	0
1	7267	13.01	0
1	7326	13.11	0
1	7385	13.21	0
1	7444	13.31	0
1	7503	13.41	0
1	7562	13.51	0
1	7621	13.61	0
1	7680	13.71	0
1	7739	13.81	0
1	7798	13.91	0
1	7860	14.01	0
1	7919	14.11	0
1	7978	14.21	0
1	8037	14.31	0
1	8096	14.41	0
1	8155	14.51	0
1	8214	14.61	0
1	8273	14.71	0
1	8332	14.81	0
1	8391	14.91	0
1	8453	15.01	0
1	8512	15.11	0
1	8571	15.21	0
1	8630	15.31	0
1	8689	15.41	0
1	8748	15.51	0
1	8807	15.61	0
1	8866	15.71	0
1	8925	15.81	0
1	8984	15.91	0
1	9046	16.01	0
1	9105	16.11	0
1	9164	16.21	0
1	9223	16.31	0
1	9282	16.41	0
1	9341	16.51	0
1	9400	16.61	0
1	9459	16.71	0
1	9518	16.81	0
1	9577	16.91	0
1	9639	17.01	0
1	9698	17.11	0
1	9757	17.21	0
1	9816	17.31	0
1	9875	17.41	0
1	9934	17.51	0
1	9993	17.61	0
1	10052	17.71	0
1	10111	17.81	0
1	10170	17.91	0
1	10232	18.01	0
1	10291	18.11	0
1	10350	18.21	0
1	10409	18.31	0
1	10468	18.41	0
1	10527	18.51	0
1	10586	18.61	0
1	10645	18.71	0
1	10704	18.81	0
1	10763	18.91	0
1	10825	19.01	0
1	10884	19.11	0
1	10943	19.21	0
1	11002	19.31	0
1	11061	19.41	0
1	11120	19.51	0
1	11179	19.61	0
1	11238	19.71	0
1	11297	19.81	0
1	11356	19.91	0
1	11418	20.01	0
1	11477	20.11	0
1	11536	20.21	0
1	11595	20.31	0
1	11654	20.41	0
1	11713	20.51	0
1	11772	20.61	0
1	11831	20.71	0
1	11890	20.81	0
1	11949	20.91	0
1	12011	21.01	0
1	12070	21.11	0
1	12129	21.21	0
1	12188	21.31	0
1	12247	21.41	0
1	12306	21.51	0
1	12365	21.61	0
1	12424	21.71	0
1	12483	21.81	0
1	12542	21.91	0
1	12604	22.01	0
1	12663	22.11	0
1	12722	22.21	0
1	12781	22.31	0
1	12840	22.41	0
1	12899	22.51	0
1	12958	22.61	0
1	13017	22.71	0
1	13076	22.81	0
1	13135	22.91	0
1	13197	23.01	0
1	13256	23.11	0
1	13315	23.21	0
1	13374	23.31	0
1	13433	23.41	0
1	13492	23.51	0
1	13551	23.61	0
1	13610	23.71	0
1	13669	23.81	0
1	13728	23.91	0
1	13790	24.01	0
1	13849	24.11	0
1	13908	24.21	0
1	13967	24.31	0
1	14026	24.41	0
1	14085	24.51	0
1	14144	24.61	0
1	14203	24.71	0
1	14262	24.81	0
1	14321	24.91	0
1	14383	25.01	0
1	14442	25.11	0
1	14501	25.21	0
1	14560	25.31	0
1	14619	25.41	0
1	14678	25.51	0
1	14737	25.61	0
1	14796	25.71	0
1	14855	25.81	0
1	14914	25.91	0
1	14976	26.01	0
1	15035	26.11	0
1	15094	26.21	0
1	15153	26.31	0
1	15212	26.41	0
1	15271	26.51	0
1	15330	26.61	0
1	15389	26.71	0
1	15448	26.81	0
1	15507	26.91	0
1	15569	27.01	0
1	15628	27.11	0
1	15687	27.21	0
1	15746	27.31	0
1	15805	27.41	0
1	15864	27.51	0
1	15923	27.61	0
1	15982	27.71	0
1	16041	27.81	0
1	16100	27.91	0
1	16162	28.01	0
1	16221	28.11	0
1	16280	28.21	0
1	16339	28.31	0
1	16398	28.41	0
1	16457	28.51	0
1	16516	28.61	0
1	16575	28.71	0
1	16634	28.81	0
1	16693	28.91	0
1	16755	29.01	0
1	16814	29.11	0
1	16873	29.21	0
1	16932	29.31	0
1	16991	29.41	0
1	17050	29.51	0
1	17109	29.61	0
1	17168	29.71	0
1	17227	29.81	0
1	17286	29.91	0
1	17348	30.01	0
1	17407	30.11	0
1	17466	30.21	0
1	17525	30.31	0
1	17584	30.41	0
1	17643	30.51	0
1	17702	30.61	0
1	17761	30.71	0
1	17820	30.81	0
1	17879	30.91	0
1	17941	31.01	0
1	18000	31.11	0
1	18059	31.21	0
1	18118	31.31	0
1	18177	31.41	0
1	18236	31.51	0
1	18295	31.61	0
1	18354	31.71	0
1	18413	31.81	0
1	18472	31.91	0
1	18534	32.01	0
1	18593	32.11	0
1	18652	32.21	0
1	18711	32.31	0
1	18770	32.41	0
1	18829	32.51	0
1	18888	32.61	0
1	18947	32.71	0
1	19006	32.81	0
1	19065	32.91	0
1	19127	33.01	0
1	19186	33.11	0
1	19245	33.21	0
1	19304	33.31	0
1	19363	33.41	0
1	19422	33.51	0
1	19481	33.61	0
1	19540	33.71	0
1	19599	33.81	0
1	19658	33.91	0
1	19720	34.01	0
1	19779	34.11	0
1	19838	34.21	0
1	19897	34.31	0
1	19956	34.41	0
1	20015	34.51	0
1	20074	34.61	0
1	20133	34.71	0
1	20192	34.81	0
1	20251	34.91	0
1	20313	35.01	0
1	20372	35.11	0
1	20431	35.21	0
1	20490	35.31	0
1	20549	35.41	0
1	20608	35.51	0
1	20667	35.61	0
1	20726	35.71	0
1	20785	35.81	0
1	20844	35.91	0
1	20906	36.01	0
1	20965	36.11	0
1	21024	36.21	0
1	21083	36.31	0
1	21142	36.41	0
1	21201	36.51	0
1	21260	36.61	0
1	21319	36.71	0
1	21378	36.81	0
1	21437	36.91	0
1	21499	37.01	0
1	21558	37.11	0
1	21617	37.21	0
1	21676	37.31	0
1	21735	37.41	0
1	21794	37.51	0
1	21853	37.61	0
1	21912	37.71	0
1	21971	37.81	0
1	22030	37.91	0
1	22092	38.01	0
1	22151	38.11	0
1	22210	38.21	0
1	22269	38.31	0
1	22328	38.41	0
1	22387	38.51	0
1	22446	38.61	0
1	22505	38.71	0
1	22564	38.81	0
1	22623	38.91	0
1	22685	39.01	0
1	22744	39.11	0
1	22803	39.21	0
1	22862	39.31	0
1	22921	39.41	0
1	22980	39.51	0
1	23039	39.61	0
1	23098	39.71	0
1	23157	39.81	0
1	23216	39.91	0
1	23278	40.01	0
1	23337	40.11	0
1	23396	40.21	0
1	23455	40.31	0
1	23514	40.41	0
1	23573	40.51	0
1	23632	40.61	0
1	23691	40.71	0
1	23750	40.81	0
1	23809	40.91	0
1	23871	41.01	0
1	23930	41.11	0
1	23989	41.21	0
1	24048	41.31	0
1	24107	41.41	0
1	24166	41.51	0
1	24225	41.61	0
1	24284	41.71	0
1	24343	41.81	0
1	24402	41.91	0
1	24464	42.01	0
1	24523	42.11	0
1	24582	42.21	0
1	24641	42.31	0
1	24700	42.41	0
1	24759	42.51	0
1	24818	42.61	0
1	24877	42.71	0
1	24936	42.81	0
1	24995	42.91	0
1	25057	43.01	0
1	25116	43.11	0
1	25175	43.21	0
1	25234	43.31	0
1	25293	43.41	0
1	25352	43.51	0
1	25411	43.61	0
1	25470	43.71	0
1	25529	43.81	0
1	25588	43.91	0
1	25650	44.01	0
1	25709	44.11	0
1	25768	44.21	0
1	25827	44.31	0
1	25886	44.41	0
1	25945	44.51	0
1	26004	44.61	0
1	26063	44.71	0
1	26122	44.81	0
1	26181	44.91	0
1	26243	45.01	0
1	26302	45.11	0
1	26361	45.21	0
1	26420	45.31	0
1	26479	45.41	0
1	26538	45.51	0
1	26597	45.61	0
1	26656	45.71	0
1	26715	45.81	0
1	26774	45.91	0
1	26836	46.01	0
1	26895	46.11	0
1	26954	46.21	0
1	27013	46.31	0
1	27072	46.41	0
1	27131	46.51	0
1	27190	46.61	0
1	27249	46.71	0
1	27308	46.81	0
1	27367	46.91	0
1	27429	47.01	0
1	27488	47.11	0
1	27547	47.21	0
1	27606	47.31	0
1	27665	47.41	0
1	27724	47.51	0
1	27783	47.61	0
1	27842	47.71	0
1	27901	47.81	0
1	27960	47.91	0
1	28022	48.01	0
1	28081	48.11	0
1	28140	48.21	0
1	28199	48.31	0
1	28258	48.41	0
1	28317	48.51	0
1	28376	48.61	0
1	28435	48.71	0
1	28494	48.81	0
1	28553	48.91	0
1	28615	49.01	0
1	28674	49.11	0
1	28733	49.21	0
1	28792	49.31	0
1	28851	49.41	0
1	28910	49.51	0
1	28969	49.61	0
1	29028	49.71	0
1	29087	49.81	0
1	29146	49.91	0
1	29208	50.01	0
1	29267	50.11	0
1	29326	50.21	0
1	29385	50.31	0
1	29444	50.41	0
1	29503	50.51	0
1	29562	50.61	0
1	29621	50.71	0
1	29680	50.81	0
1	29739	50.91	0
1	29801	51.01	0
1	29860	51.11	0
1	29919	51.21	0
1	29978	51.31	0
1	30037	51.41	0
1	30096	51.51	0
1	30155	51.61	0
1	30214	51.71	0
1	30273	51.81	0
1	30332	51.91	0
1	30394	52.01	0
1	30453	52.11	0
1	30512	52.21	0
1	30571	52.31	0
1	30630	52.41	0
1	30689	52.51	0
1	30748	52.61	0
1	30807	52.71	0
1	30866	52.81	0
1	30925	52.91	0
1	30987	53.01	0
1	31046	53.11	0
1	31105	53.21	0
1	31164	53.31	0
1	31223	53.41	0
1	31282	53.51	0
1	31341	53.61	0
1	31400	53.71	0
1	31459	53.81	0
1	31518	53.91	0
1	31580	54.01	0
1	31639	54.11	0
1	31698	54.21	0
1	31757	54.31	0
1	31816	54.41	0
1	31875	54.51	0
1	31934	54.61	0
1	31993	54.71	0
1	32052	54.81	0
1	32111	54.91	0
1	32173	55.01	0
1	32232	55.11	0
1	32291	55.21	0
1	32350	55.31	0
1	32409	55.41	0
1	32468	55.51	0
1	32527	55.61	0
1	32586	55.71	0
1	32645	55.81	0
1	32704	55.91	0
1	32766	56.01	0
1	32825	56.11	0
1	32884	56.21	0
1	32943	56.31	0
1	33002	56.41	0
1	33061	56.51	0
1	33120	56.61	0
1	33179	56.71	0
1	33238	56.81	0
1	33297	56.91	0
1	33359	57.01	0
1	33418	57.11	0
1	33477	57.21	0
1	33536	57.31	0
1	33595	57.41	0
1	33654	57.51	0
1	33713	57.61	0
1	33772	57.71	0
1	33831	57.81	0
1	33890	57.91	0
1	33952	58.01	0
1	34011	58.11	0
1	34070	58.21	0
1	34129	58.31	0
1	34188	58.41	0
1	34247	58.51	0
1	34306	58.61	0
1	34365	58.71	0
1	34424	58.81	0
1	34483	58.91	0
1	34545	59.01	0
1	34604	59.11	0
1	34663	59.21	0
1	34722	59.31	0
1	34781	59.41	0
1	34840	59.51	0
1	34899	59.61	0
1	34958	59.71	0
1	35017	59.81	0
1	35076	59.91	0
1	35138	60.01	0
1	35197	60.11	0
1	35256	60.21	0
1	35315	60.31	0
1	35374	60.41	0
1	35433	60.51	0
1	35492	60.61	0
1	35551	60.71	0
1	35610	60.81	0
1	35669	60.91	0
1	35731	61.01	0
1	35790	61.11	0
1	35849	61.21	0
1	35908	61.31	0
1	35967	61.41	0
1	36026	61.51	0
1	36085	61.61	0
1	36144	61.71	0
1	36203	61.81	0
1	36262	61.91	0
1	36324	62.01	0
1	36383	62.11	0
1	36442	62.21	0
1	36501	62.31	0
1	36560	62.41	0
1	36619	62.51	0
1	36678	62.61	0
1	36737	62.71	0
1	36796	62.81	0
1	36855	62.91	0
1	36917	63.01	0
1	36976	63.11	0
1	37035	63.21	0
1	37094	63.31	0
1	37153	63.41	0
1	37212	63.51	0
1	37271	63.61	0
1	37330	63.71	0
1	37389	63.81	0
1	37448	63.91	0
1	37510	64.01	0
1	37569	64.11	0
1	37628	64.21	0
1	37687	64.31	0
1	37746	64.41	0
1	37805	64.51	0
1	37864	64.61	0
1	37923	64.71	0
1	37982	64.81	0
1	38041	64.91	0
1	38103	65.01	0
1	38162	65.11	0
1	38221	65.21	0
1	38280	65.31	0
1	38339	65.41	0
1	38398	65.51	0
1	38457	65.61	0
1	38516	65.71	0
1	38575	65.81	0
1	38634	65.91	0
1	38696	66.01	0
1	38755	66.11	0
1	38814	66.21	0
1	38873	66.31	0
1	38932	66.41	0
1	38991	66.51	0
1	39050	66.61	0
1	39109	66.71	0
1	39168	66.81	0
1	39227	66.91	0
1	39289	67.01	0
1	39348	67.11	0
1	39407	67.21	0
1	39466	67.31	0
1	39525	67.41	0
1	39584	67.51	0
1	39643	67.61	0
1	39702	67.71	0
1	39761	67.81	0
1	39820	67.91	0
1	39882	68.01	0
1	39941	68.11	0
1	40000	68.21	0
1	40059	68.31	0
1	40118	68.41	0
1	40177	68.51	0
1	40236	68.61	0
1	40295	68.71	0
1	40354	68.81	0
1	40413	68.91	0
1	40475	69.01	0
1	40534	69.11	0
1	40593	69.21	0
1	40652	69.31	0
1	40711	69.41	0
1	40770	69.51	0
1	40829	69.61	0
1	40888	69.71	0
1	40947	69.81	0
1	41006	69.91	0
1	41068	70.01	0
1	41127	70.11	0
1	41186	70.21	0
1	41245	70.31	0
1	41304	70.41	0
1	41363	70.51	0
1	41422	70.61	0
1	41481	70.71	0
1	41540	70.81	0
1	41599	70.91	0
1	41661	71.01	0
1	41720	71.11	0
1	41779	71.21	0
1	41838	71.31	0
1	41897	71.41	0
1	41956	71.51	0
1	42015	71.61	0
1	42074	71.71	0
1	42133	71.81	0
1	42192	71.91	0
1	42254	72.01	0
1	42313	72.11	0
1	42372	72.21	0
1	42431	72.31	0
1	42490	72.41	0
1	42549	72.51	0
1	42608	72.61	0
1	42667	72.71	0
1	42726	72.81	0
1	42785	72.91	0
1	42847	73.01	0
1	42906	73.11	0
1	42965	73.21	0
1	43024	73.31	0
1	43083	73.41	0
1	43142	73.51	0
1	43201	73.61	0
1	43260	73.71	0
1	43319	73.81	0
1	43378	73.91	0
1	43440	74.01	0
1	43499	74.11	0
1	43558	74.21	0
1	43617	74.31	0
1	43676	74.41	0
1	43735	74.51	0
1	43794	74.61	0
1	43853	74.71	0
1	43912	74.81	0
1	43971	74.91	0
1	44033	75.01	0
1	44092	75.11	0
1	44151	75.21	0
1	44210	75.31	0
1	44269	75.41	0
1	44328	75.51	0
1	44387	75.61	0
1	44446	75.71	0
1	44505	75.81	0
1	44564	75.91	0
1	44626	76.01	0
1	44685	76.11	0
1	44744	76.21	0
1	44803	76.31	0
1	44862	76.41	0
1	44921	76.51	0
1	44980	76.61	0
1	45039	76.71	0
1	45098	76.81	0
1	45157	76.91	0
1	45219	77.01	0
1	45278	77.11	0
1	45337	77.21	0
1	45396	77.31	0
1	45455	77.41	0
1	45514	77.51	0
1	45573	77.61	0
1	45632	77.71	0
1	45691	77.81	0
1	45750	77.91	0
1	45812	78.01	0
1	45871	78.11	0
1	45930	78.21	0
1	45989	78.31	0
1	46048	78.41	0
1	46107	78.51	0
1	46166	78.61	0
1	46225	78.71	0
1	46284	78.81	0
1	46343	78.91	0
1	46405	79.01	0
1	46464	79.11	0
1	46523	79.21	0
1	46582	79.31	0
1	46641	79.41	0
1	46700	79.51	0
1	46759	79.61	0
1	46818	79.71	0
1	46877	79.81	0
1	46936	79.91	0
1	46998	80.01	0
1	47057	80.11	0
1	47116	80.21	0
1	47175	80.31	0
1	47234	80.41	0
1	47293	80.51	0
1	47352	80.61	0
1	47411	80.71	0
1	47470	80.81	0
1	47529	80.91	0
1	47591	81.01	0
1	47650	81.11	0
1	47709	81.21	0
1	47768	81.31	0
1	47827	81.41	0
1	47886	81.51	0
1	47945	81.61	0
1	48004	81.71	0
1	48063	81.81	0
1	48122	81.91	0
1	48184	82.01	0
1	48243	82.11	0
1	48302	82.21	0
1	48361	82.31	0
1	48420	82.41	0
1	48479	82.51	0
1	48538	82.61	0
1	48597	82.71	0
1	48656	82.81	0
1	48715	82.91	0
1	48777	83.01	0
1	48836	83.11	0
1	48895	83.21	0
1	48954	83.31	0
1	49013	83.41	0
1	49072	83.51	0
1	49131	83.61	0
1	49190	83.71	0
1	49249	83.81	0
1	49308	83.91	0
1	49370	84.01	0
1	49429	84.11	0
1	49488	84.21	0
1	49547	84.31	0
1	49606	84.41	0
1	49665	84.51	0
1	49724	84.61	0
1	49783	84.71	0
1	49842	84.81	0
1	49901	84.91	0
1	49963	85.01	0
1	50022	85.11	0
1	50081	85.21	0
1	50140	85.31	0
1	50199	85.41	0
1	50258	85.51	0
1	50317	85.61	0
1	50376	85.71	0
1	50435	85.81	0
1	50494	85.91	0
1	50556	86.01	0
1	50615	86.11	0
1	50674	86.21	0
1	50733	86.31	0
1	50792	86.41	0
1	50851	86.51	0
1	50910	86.61	0
1	50969	86.71	0
1	51028	86.81	0
1	51087	86.91	0
1	51149	87.01	0
1	51208	87.11	0
1	51267	87.21	0
1	51326	87.31	0
1	51385	87.41	0
1	51444	87.51	0
1	51503	87.61	0
1	51562	87.71	0
1	51621	87.81	0
1	51680	87.91	0
1	51742	88.01	0
1	51801	88.11	0
1	51860	88.21	0
1	51919	88.31	0
1	51978	88.41	0
1	52037	88.51	0
1	52096	88.61	0
1	52155	88.71	0
1	52214	88.81	0
1	52273	88.91	0
1	52335	89.01	0
1	52394	89.11	0
1	52453	89.21	0
1	52512	89.31	0
1	52571	89.41	0
1	52630	89.51	0
1	52689	89.61	0
1	52748	89.71	0
1	52807	89.81	0
1	52866	89.91	0
1	52928	90.01	0
1	52987	90.11	0
1	53046	90.21	0
1	53105	90.31	0
1	53164	90.41	0
1	53223	90.51	0
1	53282	90.61	0
1	53341	90.71	0
1	53400	90.81	0
1	53459	90.91	0
1	53521	91.01	0
1	53580	91.11	0
1	53639	91.21	0
1	53698	91.31	0
1	53757	91.41	0
1	53816	91.51	0
1	53875	91.61	0
1	53934	91.71	0
1	53993	91.81	0
1	54052	91.91	0
1	54114	92.01	0
1	54173	92.11	0
1	54232	92.21	0
1	54291	92.31	0
1	54350	92.41	0
1	54409	92.51	0
1	54468	92.61	0
1	54527	92.71	0
1	54586	92.81	0
1	54645	92.91	0
1	54707	93.01	0
1	54766	93.11	0
1	54825	93.21	0
1	54884	93.31	0
1	54943	93.41	0
1	55002	93.51	0
1	55061	93.61	0
1	55120	93.71	0
1	55179	93.81	0
1	55238	93.91	0
1	55300	94.01	0
1	55359	94.11	0
1	55418	94.21	0
1	55477	94.31	0
1	55536	94.41	0
1	55595	94.51	0
1	55654	94.61	0
1	55713	94.71	0
1	55772	94.81	0
1	55831	94.91	0
1	55893	95.01	0
1	55952	95.11	0
1	56011	95.21	0
1	56070	95.31	0
1	56129	95.41	0
1	56188	95.51	0
1	56247	95.61	0
1	56306	95.71	0
1	56365	95.81	0
1	56424	95.91	0
1	56486	96.01	0
1	56545	96.11	0
1	56604	96.21	0
1	56663	96.31	0
1	56722	96.41	0
1	56781	96.51	0
1	56840	96.61	0
1	56899	96.71	0
1	56958	96.81	0
1	57017	96.91	0
1	57079	97.01	0
1	57138	97.11	0
1	57197	97.21	0
1	57256	97.31	0
1	57315	97.41	0
1	57374	97.51	0
1	57433	97.61	0
1	57492	97.71	0
1	57551	97.81	0
1	57610	97.91	0
1	57672	98.01	0
1	57731	98.11	0
1	57790	98.21	0
1	57849	98.31	0
1	57908	98.41	0
1	57967	98.51	0
1	58026	98.61	0
1	58085	98.71	0
1	58144	98.81	0
1	58203	98.91	0
1	58265	99.01	0
1	58324	99.11	0
1	58383	99.21	0
1	58442	99.31	0
1	58501	99.41	0
1	58560	99.51	0
1	58619	99.61	0
1	58678	99.71	0
1	58737	99.81	0
1	58796	99.91	0
2	113	1.11	0
2	172	1.21	0
2	231	1.31	0
2	290	1.41	0
2	349	1.51	0
2	408	1.61	0
2	467	1.71	0
2	526	1.81	0
2	585	1.91	0
2	647	2.01	0
2	706	2.11	0
2	765	2.21	0
2	824	2.31	0
2	883	2.41	0
2	942	2.51	0
2	1001	2.61	0
2	1060	2.71	0
2	1119	2.81	0
2	1178	2.91	0
2	1240	3.01	0
2	1299	3.11	0
2	1358	3.21	0
2	1417	3.31	0
2	1476	3.41	0
2	1535	3.51	0
2	1594	3.61	0
2	1653	3.71	0
2	1712	3.81	0
2	1771	3.91	0
2	1833	4.01	0
2	1892	4.11	0
2	1951	4.21	0
2	2010	4.31	0
2	2069	4.41	0
2	2128	4.51	0
2	2187	4.61	0
2	2246	4.71	0
2	2305	4.81	0
2	2364	4.91	0
2	2426	5.01	0
2	2485	5.11	0
2	2544	5.21	0
2	2603	5.31	0
2	2662	5.41	0
2	2721	5.51	0
2	2780	5.61	0
2	2839	5.71	0
2	2898	5.81	0
2	2957	5.91	0
2	3019	6.01	0
2	3078	6.11	0
2	3137	6.21	0
2	3196	6.31	0
2	3255	6.41	0
2	3314	6.51	0
2	3373	6.61	0
2	3432	6.71	0
2	3491	6.81	0
2	3550	6.91	0
2	3612	7.01	0
2	3671	7.11	0
2	3730	7.21	0
2	3789	7.31	0
2	3848	7.41	0
2	3907	7.51	0
2	3966	7.61	0
2	4025	7.71	0
2	4084	7.81	0
2	4143	7.91	0
2	4205	8.01	0
2	4264	8.11	0
2	4323	8.21	0
2	4382	8.31	0
2	4441	8.41	0
2	4500	8.51	0
2	4559	8.61	0
2	4618	8.71	0
2	4677	8.81	0
2	4736	8.91	0
2	4798	9.01	0
2	4857	9.11	0
2	4916	9.21	0
2	4975	9.31	0
2	5034	9.41	0
2	5093	9.51	0
2	5152	9.61	0
2	5211	9.71	0
2	5270	9.81	0
2	5329	9.91	0
2	5488	10.01	0
2	5547	10.11	0
2	5606	10.21	0
2	5665	10.31	0
2	5724	10.41	0
2	5783	10.51	0
2	5842	10.61	0
2	5901	10.71	0
2	5960	10.81	0
2	6019	10.91	0
2	6081	11.01	0
2	6140	11.11	0
2	6199	11.21	0
2	6258	11.31	0
2	6317	11.41	0
2	6376	11.51	0
2	6435	11.61	0
2	6494	11.71	0
2	6553	11.81	0
2	6612	11.91	0
2	6674	12.01	0
2	6733	12.11	0
2	6792	12.21	0
2	6851	12.31	0
2	6910	12.41	0
2	6969	12.51	0
2	7028	12.61	0
2	7087	12.71	0
2	7146	12.81	0
2	7205	12.91	0
2	7267	13.01	0
2	7326	13.11	0
2	7385	13.21	0
2	7444	13.31	0
2	7503	13.41	0
2	7562	13.51	0
2	7621	13.61	0
2	7680	13.71	0
2	7739	13.81	0
2	7798	13.91	0
2	7860	14.01	0
2	7919	14.11	0
2	7978	14.21	0
2	8037	14.31	0
2	8096	14.41	0
2	8155	14.51	0
2	8214	14.61	0
2	8273	14.71	0
2	8332	14.81	0
2	8391	14.91	0
2	8453	15.01	0
2	8512	15.11	0
2	8571	15.21	0
2	8630	15.31	0
2	8689	15.41	0
2	8748	15.51	0
2	8807	15.61	0
2	8866	15.71	0
2	8925	15.81	0
2	8984	15.91	0
2	9046	16.01	0
2	9105	16.11	0
2	9164	16.21	0
2	9223	16.31	0
2	9282	16.41	0
2	9341	16.51	0
2	9400	16.61	0
2	9459	16.71	0
2	9518	16.81	0
2	9577	16.91	0
2	9639	17.01	0
2	9698	17.11	0
2	9757	17.21	0
2	9816	17.31	0
2	9875	17.41	0
2	9934	17.51	0
2	9993	17.61	0
2	10052	17.71	0
2	10111	17.81	0
2	10170	17.91	0
2	10232	18.01	0
2	10291	18.11	0
2	10350	18.21	0
2	10409	18.31	0
2	10468	18.41	0
2	10527	18.51	0
2	10586	18.61	0
2	10645	18.71	0
2	10704	18.81	0
2	10763	18.91	0
2	10825	19.01	0
2	10884	19.11	0
2	10943	19.21	0
2	11002	19.31	0
2	11061	19.41	0
2	11120	19.51	0
2	11179	19.61	0
2	11238	19.71	0
2	11297	19.81	0
2	11356	19.91	0
2	11418	20.01	0
2	11477	20.11	0
2	11536	20.21	0
2	11595	20.31	0
2	11654	20.41	0
2	11713	20.51	0
2	11772	20.61	0
2	11831	20.71	0
2	11890	20.81	0
2	11949	20.91	0
2	12011	21.01	0
2	12070	21.11	0
2	12129	21.21	0
2	12188	21.31	0
2	12247	21.41	0
2	12306	21.51	0
2	12365	21.61	0
2	12424	21.71	0
2	12483	21.81	0
2	12542	21.91	0
2	12604	22.01	0
2	12663	22.11	0
2	12722	22.21	0
2	12781	22.31	0
2	12840	22.41	0
2	12899	22.51	0
2	12958	22.61	0
2	13017	22.71	0
2	13076	22.81	0
2	13135	22.91	0
2	13197	23.01	0
2	13256	23.11	0
2	13315	23.21	0
2	13374	23.31	0
2	13433	23.41	0
2	13492	23.51	0
2	13551	23.61	0
2	13610	23.71	0
2	13669	23.81	0
2	13728	23.91	0
2	13790	24.01	0
2	13849	24.11	0
2	13908	24.21	0
2	13967	24.31	0
2	14026	24.41	0
2	14085	24.51	0
2	14144	24.61	0
2	14203	24.71	0
2	14262	24.81	0
2	14321	24.91	0
2	14383	25.01	0
2	14442	25.11	0
2	14501	25.21	0
2	14560	25.31	0
2	14619	25.41	0
2	14678	25.51	0
2	14737	25.61	0
2	14796	25.71	0
2	14855	25.81	0
2	14914	25.91	0
2	14976	26.01	0
2	15035	26.11	0
2	15094	26.21	0
2	15153	26.31	0
2	15212	26.41	0
2	15271	26.51	0
2	15330	26.61	0
2	15389	26.71	0
2	15448	26.81	0
2	15507	26.91	0
2	15569	27.01	0
2	15628	27.11	0
2	15687	27.21	0
2	15746	27.31	0
2	15805	27.41	0
2	15864	27.51	0
2	15923	27.61	0
2	15982	27.71	0
2	16041	27.81	0
2	16100	27.91	0
2	16162	28.01	0
2	16221	28.11	0
2	16280	28.21	0
2	16339	28.31	0
2	16398	28.41	0
2	16457	28.51	0
2	16516	28.61	0
2	16575	28.71	0
2	16634	28.81	0
2	16693	28.91	0
2	16755	29.01	0
2	16814	29.11	0
2	16873	29.21	0
2	16932	29.31	0
2	16991	29.41	0
2	17050	29.51	0
2	17109	29.61	0
2	17168	29.71	0
2	17227	29.81	0
2	17286	29.91	0
2	17348	30.01	0
2	17407	30.11	0
2	17466	30.21	0
2	17525	30.31	0
2	17584	30.41	0
2	17643	30.51	0
2	17702	30.61	0
2	17761	30.71	0
2	17820	30.81	0
2	17879	30.91	0
2	17941	31.01	0
2	18000	31.11	0
2	18059	31.21	0
2	18118	31.31	0
2	18177	31.41	0
2	18236	31.51	0
2	18295	31.61	0
2	18354	31.71	0
2	18413	31.81	0
2	18472	31.91	0
2	18534	32.01	0
2	18593	32.11	0
2	18652	32.21	0
2	18711	32.31	0
2	18770	32.41	0
2	18829	32.51	0
2	18888	32.61	0
2	18947	32.71	0
2	19006	32.81	0
2	19065	32.91	0
2	19127	33.01	0
2	19186	33.11	0
2	19245	33.21	0
2	19304	33.31	0
2	19363	33.41	0
2	19422	33.51	0
2	19481	33.61	0
2	19540	33.71	0
2	19599	33.81	0
2	19658	33.91	0
2	19720	34.01	0
2	19779	34.11	0
2	19838	34.21	0
2	19897	34.31	0
2	19956	34.41	0
2	20015	34.51	0
2	20074	34.61	0
2	20133	34.71	0
2	20192	34.81	0
2	20251	34.91	0
2	20313	35.01	0
2	20372	35.11	0
2	20431	35.21	0
2	20490	35.31	0
2	20549	35.41	0
2	20608	35.51	0
2	20667	35.61	0
2	20726	35.71	0
2	20785	35.81	0
2	20844	35.91	0
2	20906	36.01	0
2	20965	36.11	0
2	21024	36.21	0
2	21083	36.31	0
2	21142	36.41	0
2	21201	36.51	0
2	21260	36.61	0
2	21319	36.71	0
2	21378	36.81	0
2	21437	36.91	0
2	21499	37.01	0
2	21558	37.11	0
2	21617	37.21	0
2	21676	37.31	0
2	21735	37.41	0
2	21794	37.51	0
2	21853	37.61	0
2	21912	37.71	0
2	21971	37.81	0
2	22030	37.91	0
2	22092	38.01	0
2	22151	38.11	0
2	22210	38.21	0
2	22269	38.31	0
2	22328	38.41	0
2	22387	38.51	0
2	22446	38.61	0
2	22505	38.71	0
2	22564	38.81	0
2	22623	38.91	0
2	22685	39.01	0
2	22744	39.11	0
2	22803	39.21	0
2	22862	39.31	0
2	22921	39.41	0
2	22980	39.51	0
2	23039	39.61	0
2	23098	39.71	0
2	23157	39.81	0
2	23216	39.91	0
2	23278	40.01	0
2	23337	40.11	0
2	23396	40.21	0
2	23455	40.31	0
2	23514	40.41	0
2	23573	40.51	0
2	23632	40.61	0
2	23691	40.71	0
2	23750	40.81	0
2	23809	40.91	0
2	23871	41.01	0
2	23930	41.11	0
2	23989	41.21	0
2	24048	41.31	0
2	24107	41.41	0
2	24166	41.51	0
2	24225	41.61	0
2	24284	41.71	0
2	24343	41.81	0
2	24402	41.91	0
2	24464	42.01	0
2	24523	42.11	0
2	24582	42.21	0
2	24641	42.31	0
2	24700	42.41	0
2	24759	42.51	0
2	24818	42.61	0
2	24877	42.71	0
2	24936	42.81	0
2	24995	42.91	0
2	25057	43.01	0
2	25116	43.11	0
2	25175	43.21	0
2	25234	43.31	0
2	25293	43.41	0
2	25352	43.51	0
2	25411	43.61	0
2	25470	43.71	0
2	25529	43.81	0
2	25588	43.91	0
2	25650	44.01	0
2	25709	44.11	0
2	25768	44.21	0
2	25827	44.31	0
2	25886	44.41	0
2	25945	44.51	0
2	26004	44.61	0
2	26063	44.71	0
2	26122	44.81	0
2	26181	44.91	0
2	26243	45.01	0
2	26302	45.11	0
2	26361	45.21	0
2	26420	45.31	0
2	26479	45.41	0
2	26538	45.51	0
2	26597	45.61	0
2	26656	45.71	0
2	26715	45.81	0
2	26774	45.91	0
2	26836	46.01	0
2	26895	46.11	0
2	26954	46.21	0
2	27013	46.31	0
2	27072	46.41	0
2	27131	46.51	0
2	27190	46.61	0
2	27249	46.71	0
2	27308	46.81	0
2	27367	46.91	0
2	27429	47.01	0
2	27488	47.11	0
2	27547	47.21	0
2	27606	47.31	0
2	27665	47.41	0
2	27724	47.51	0
2	27783	47.61	0
2	27842	47.71	0
2	27901	47.81	0
2	27960	47.91	0
2	28022	48.01	0
2	28081	48.11	0
2	28140	48.21	0
2	28199	48.31	0
2	28258	48.41	0
2	28317	48.51	0
2	28376	48.61	0
2	28435	48.71	0
2	28494	48.81	0
2	28553	48.91	0
2	28615	49.01	0
2	28674	49.11	0
2	28733	49.21	0
2	28792	49.31	0
2	28851	49.41	0
2	28910	49.51	0
2	28969	49.61	0
2	29028	49.71	0
2	29087	49.81	0
2	29146	49.91	0
2	29208	50.01	0
2	29267	50.11	0
2	29326	50.21	0
2	29385	50.31	0
2	29444	50.41	0
2	29503	50.51	0
2	29562	50.61	0
2	29621	50.71	0
2	29680	50.81	0
2	29739	50.91	0
2	29801	51.01	0
2	29860	51.11	0
2	29919	51.21	0
2	29978	51.31	0
2	30037	51.41	0
2	30096	51.51	0
2	30155	51.61	0
2	30214	51.71	0
2	30273	51.81	0
2	30332	51.91	0
2	30394	52.01	0
2	30453	52.11	0
2	30512	52.21	0
2	30571	52.31	0
2	30630	52.41	0
2	30689	52.51	0
2	30748	52.61	0
2	30807	52.71	0
2	30866	52.81	0
2	30925	52.91	0
2	30987	53.01	0
2	31046	53.11	0
2	31105	53.21	0
2	31164	53.31	0
2	31223	53.41	0
2	31282	53.51	0
2	31341	53.61	0
2	31400	53.71	0
2	31459	53.81	0
2	31518	53.91	0
2	31580	54.01	0
2	31639	54.11	0
2	31698	54.21	0
2	31757	54.31	0
2	31816	54.41	0
2	31875	54.51	0
2	31934	54.61	0
2	31993	54.71	0
2	32052	54.81	0
2	32111	54.91	0
2	32173	55.01	0
2	32232	55.11	0
2	32291	55.21	0
2	32350	55.31	0
2	32409	55.41	0
2	32468	55.51	0
2	32527	55.61	0
2	32586	55.71	0
2	32645	55.81	0
2	32704	55.91	0
2	32766	56.01	0
2	32825	56.11	0
2	32884	56.21	0
2	32943	56.31	0
2	33002	56.41	0
2	33061	56.51	0
2	33120	56.61	0
2	33179	56.71	0
2	33238	56.81	0
2	33297	56.91	0
2	33359	57.01	0
2	33418	57.11	0
2	33477	57.21	0
2	33536	57.31	0
2	33595	57.41	0
2	33654	57.51	0
2	33713	57.61	0
2	33772	57.71	0
2	33831	57.81	0
2	33890	57.91	0
2	33952	58.01	0
2	34011	58.11	0
2	34070	58.21	0
2	34129	58.31	0
2	34188	58.41	0
2	34247	58.51	0
2	34306	58.61	0
2	34365	58.71	0
2	34424	58.81	0
2	34483	58.91	0
2	34545	59.01	0
2	34604	59.11	0
2	34663	59.21	0
2	34722	59.31	0
2	34781	59.41	0
2	34840	59.51	0
2	34899	59.61	0
2	34958	59.71	0
2	35017	59.81	0
2	35076	59.91	0
2	35138	60.01	0
2	35197	60.11	0
2	35256	60.21	0
2	35315	60.31	0
2	35374	60.41	0
2	35433	60.51	0
2	35492	60.61	0
2	35551	60.71	0
2	35610	60.81	0
2	35669	60.91	0
2	35731	61.01	0
2	35790	61.11	0
2	35849	61.21	0
2	35908	61.31	0
2	35967	61.41	0
2	36026	61.51	0
2	36085	61.61	0
2	36144	61.71	0
2	36203	61.81	0
2	36262	61.91	0
2	36324	62.01	0
2	36383	62.11	0
2	36442	62.21	0
2	36501	62.31	0
2	36560	62.41	0
2	36619	62.51	0
2	36678	62.61	0
2	36737	62.71	0
2	36796	62.81	0
2	36855	62.91	0
2	36917	63.01	0
2	36976	63.11	0
2	37035	63.21	0
2	37094	63.31	0
2	37153	63.41	0
2	37212	63.51	0
2	37271	63.61	0
2	37330	63.71	0
2	37389	63.81	0
2	37448	63.91	0
2	37510	64.01	0
2	37569	64.11	0
2	37628	64.21	0
2	37687	64.31	0
2	37746	64.41	0
2	37805	64.51	0
2	37864	64.61	0
2	37923	64.71	0
2	37982	64.81	0
2	38041	64.91	0
2	38103	65.01	0
2	38162	65.11	0
2	38221	65.21	0
2	38280	65.31	0
2	38339	65.41	0
2	38398	65.51	0
2	38457	65.61	0
2	38516	65.71	0
2	38575	65.81	0
2	38634	65.91	0
2	38696	66.01	0
2	38755	66.11	0
2	38814	66.21	0
2	38873	66.31	0
2	38932	66.41	0
2	38991	66.51	0
2	39050	66.61	0
2	39109	66.71	0
2	39168	66.81	0
2	39227	66.91	0
2	39289	67.01	0
2	39348	67.11	0
2	39407	67.21	0
2	39466	67.31	0
2	39525	67.41	0
2	39584	67.51	0
2	39643	67.61	0
2	39702	67.71	0
2	39761	67.81	0
2	39820	67.91	0
2	39882	68.01	0
2	39941	68.11	0
2	40000	68.21	0
2	40059	68.31	0
2	40118	68.41	0
2	40177	68.51	0
2	40236	68.61	0
2	40295	68.71	0
2	40354	68.81	0
2	40413	68.91	0
2	40475	69.01	0
2	40534	69.11	0
2	40593	69.21	0
2	40652	69.31	0
2	40711	69.41	0
2	40770	69.51	0
2	40829	69.61	0
2	40888	69.71	0
2	40947	69.81	0
2	41006	69.91	0
2	41068	70.01	0
2	41127	70.11	0
2	41186	70.21	0
2	41245	70.31	0
2	41304	70.41	0
2	41363	70.51	0
2	41422	70.61	0
2	41481	70.71	0
2	41540	70.81	0
2	41599	70.91	0
2	41661	71.01	0
2	41720	71.11	0
2	41779	71.21	0
2	41838	71.31	0
2	41897	71.41	0
2	41956	71.51	0
2	42015	71.61	0
2	42074	71.71	0
2	42133	71.81	0
2	42192	71.91	0
2	42254	72.01	0
2	42313	72.11	0
2	42372	72.21	0
2	42431	72.31	0
2	42490	72.41	0
2	42549	72.51	0
2	42608	72.61	0
2	42667	72.71	0
2	42726	72.81	0
2	42785	72.91	0
2	42847	73.01	0
2	42906	73.11	0
2	42965	73.21	0
2	43024	73.31	0
2	43083	73.41	0
2	43142	73.51	0
2	43201	73.61	0
2	43260	73.71	0
2	43319	73.81	0
2	43378	73.91	0
2	43440	74.01	0
2	43499	74.11	0
2	43558	74.21	0
2	43617	74.31	0
2	43676	74.41	0
2	43735	74.51	0
2	43794	74.61	0
2	43853	74.71	0
2	43912	74.81	0
2	43971	74.91	0
2	44033	75.01	0
2	44092	75.11	0
2	44151	75.21	0
2	44210	75.31	0
2	44269	75.41	0
2	44328	75.51	0
2	44387	75.61	0
2	44446	75.71	0
2	44505	75.81	0
2	44564	75.91	0
2	44626	76.01	0
2	44685	76.11	0
2	44744	76.21	0
2	44803	76.31	0
2	44862	76.41	0
2	44921	76.51	0
2	44980	76.61	0
2	45039	76.71	0
2	45098	76.81	0
2	45157	76.91	0
2	45219	77.01	0
2	45278	77.11	0
2	45337	77.21	0
2	45396	77.31	0
2	45455	77.41	0
2	45514	77.51	0
2	45573	77.61	0
2	45632	77.71	0
2	45691	77.81	0
2	45750	77.91	0
2	45812	78.01	0
2	45871	78.11	0
2	45930	78.21	0
2	45989	78.31	0
2	46048	78.41	0
2	46107	78.51	0
2	46166	78.61	0
2	46225	78.71	0
2	46284	78.81	0
2	46343	78.91	0
2	46405	79.01	0
2	46464	79.11	0
2	46523	79.21	0
2	46582	79.31	0
2	46641	79.41	0
2	46700	79.51	0
2	46759	79.61	0
2	46818	79.71	0
2	46877	79.81	0
2	46936	79.91	0
2	46998	80.01	0
2	47057	80.11	0
2	47116	80.21	0
2	47175	80.31	0
2	47234	80.41	0
2	47293	80.51	0
2	47352	80.61	0
2	47411	80.71	0
2	47470	80.81	0
2	47529	80.91	0
2	47591	81.01	0
2	47650	81.11	0
2	47709	81.21	0
2	47768	81.31	0
2	47827	81.41	0
2	47886	81.51	0
2	47945	81.61	0
2	48004	81.71	0
2	48063	81.81	0
2	48122	81.91	0
2	48184	82.01	0
2	48243	82.11	0
2	48302	82.21	0
2	48361	82.31	0
2	48420	82.41	0
2	48479	82.51	0
2	48538	82.61	0
2	48597	82.71	0
2	48656	82.81	0
2	48715	82.91	0
2	48777	83.01	0
2	48836	83.11	0
2	48895	83.21	0
2	48954	83.31	0
2	49013	83.41	0
2	49072	83.51	0
2	49131	83.61	0
2	49190	83.71	0
2	49249	83.81	0
2	49308	83.91	0
2	49370	84.01	0
2	49429	84.11	0
2	49488	84.21	0
2	49547	84.31	0
2	49606	84.41	0
2	49665	84.51	0
2	49724	84.61	0
2	49783	84.71	0
2	49842	84.81	0
2	49901	84.91	0
2	49963	85.01	0
2	50022	85.11	0
2	50081	85.21	0
2	50140	85.31	0
2	50199	85.41	0
2	50258	85.51	0
2	50317	85.61	0
2	50376	85.71	0
2	50435	85.81	0
2	50494	85.91	0
2	50556	86.01	0
2	50615	86.11	0
2	50674	86.21	0
2	50733	86.31	0
2	50792	86.41	0
2	50851	86.51	0
2	50910	86.61	0
2	50969	86.71	0
2	51028	86.81	0
2	51087	86.91	0
2	51149	87.01	0
2	51208	87.11	0
2	51267	87.21	0
2	51326	87.31	0
2	51385	87.41	0
2	51444	87.51	0
2	51503	87.61	0
2	51562	87.71	0
2	51621	87.81	0
2	51680	87.91	0
2	51742	88.01	0
2	51801	88.11	0
2	51860	88.21	0
2	51919	88.31	0
2	51978	88.41	0
2	52037	88.51	0
2	52096	88.61	0
2	52155	88.71	0
2	52214	88.81	0
2	52273	88.91	0
2	52335	89.01	0
2	52394	89.11	0
2	52453	89.21	0
2	52512	89.31	0
2	52571	89.41	0
2	52630	89.51	0
2	52689	89.61	0
2	52748	89.71	0
2	52807	89.81	0
2	52866	89.91	0
2	52928	90.01	0
2	52987	90.11	0
2	53046	90.21	0
2	53105	90.31	0
2	53164	90.41	0
2	53223	90.51	0
2	53282	90.61	0
2	53341	90.71	0
2	53400	90.81	0
2	53459	90.91	0
2	53521	91.01	0
2	53580	91.11	0
2	53639	91.21	0
2	53698	91.31	0
2	53757	91.41	0
2	53816	91.51	0
2	53875	91.61	0
2	53934	91.71	0
2	53993	91.81	0
2	54052	91.91	0
2	54114	92.01	0
2	54173	92.11	0
2	54232	92.21	0
2	54291	92.31	0
2	54350	92.41	0
2	54409	92.51	0
2	54468	92.61	0
2	54527	92.71	0
2	54586	92.81	0
2	54645	92.91	0
2	54707	93.01	0
2	54766	93.11	0
2	54825	93.21	0
2	54884	93.31	0
2	54943	93.41	0
2	55002	93.51	0
2	55061	93.61	0
2	55120	93.71	0
2	55179	93.81	0
2	55238	93.91	0
2	55300	94.01	0
2	55359	94.11	0
2	55418	94.21	0
2	55477	94.31	0
2	55536	94.41	0
2	55595	94.51	0
2	55654	94.61	0
2	55713	94.71	0
2	55772	94.81	0
2	55831	94.91	0
2	55893	95.01	0
2	55952	95.11	0
2	56011	95.21	0
2	56070	95.31	0
2	56129	95.41	0
2	56188	95.51	0
2	56247	95.61	0
2	56306	95.71	0
2	56365	95.81	0
2	56424	95.91	0
2	56486	96.01	0
2	56545	96.11	0
2	56604	96.21	0
2	56663	96.31	0
2	56722	96.41	0
2	56781	96.51	0
2	56840	96.61	0
2	56899	96.71	0
2	56958	96.81	0
2	57017	96.91	0
2	57079	97.01	0
2	57138	97.11	0
2	57197	97.21	0
2	57256	97.31	0
2	57315	97.41	0
2	57374	97.51	0
2	57433	97.61	0
2	57492	97.71	0
2	57551	97.81	0
2	57610	97.91	0
2	57672	98.01	0
2	57731	98.11	0
2	57790	98.21	0
2	57849	98.31	0
2	57908	98.41	0
2	57967	98.51	0
2	58026	98.61	0
2	58085	98.71	0
2	58144	98.81	0
2	58203	98.91	0
2	58265	99.01	0
2	58324	99.11	0
2	58383	99.21	0
2	58442	99.31	0
2	58501	99.41	0
2	58560	99.51	0
2	58619	99.61	0
2	58678	99.71	0
2	58737	99.81	0
2	58796	99.91	0
3	113	1.11	0.000179096
3	172	1.21	0.000340852
3	231	1.31	0.000467435
3	290	1.41	0.000562893
3	349	1.51	0.000631106
3	408	1.61	0.000675745
3	467	1.71	0.000700245
3	526	1.81	0.000707784
3	585	1.91	0.000701273
3	647	2.01	0.000683354
3	706	2.11	0.000656398
3	765	2.21	0.000622512
3	824	2.31	0.000583548
3	883	2.41	0.000541117
3	942	2.51	0.000496604
3	1001	2.61	0.000451181
3	1060	2.71	0.000405825
3	1119	2.81	0.00036134
3	1178	2.91	0.000318365
3	1240	3.01	0.0002774
3	1299	3.11	0.00023882
3	1358	3.21	0.000202887
3	1417	3.31	0.00016977
3	1476	3.41	0.000139558
3	1535	3.51	0.000112271
3	1594	3.61	8.78717e-05
3	1653	3.71	6.628e-05
3	1712	3.81	4.73785e-05
3	1771	3.91	3.1023e-05
3	1833	4.01	1.70493e-05
3	1892	4.11	5.28023e-06
3	1951	4.21	-4.46922e-06
3	2010	4.31	-1.2387e-05
3	2069	4.41	-1.86602e-05
3	2128	4.51	-2.34717e-05
3	2187	4.61	-2.69978e-05
3	2246	4.71	-2.94062e-05
3	2305	4.81	-3.08545e-05
3	2364	4.91	-3.14892e-05
3	2426	5.01	-3.14451e-05
3	2485	5.11	-3.0845e-05
3	2544	5.21	-2.97994e-05
3	2603	5.31	-2.84072e-05
3	2662	5.41	-2.67556e-05
3	2721	5.51	-2.49208e-05
3	2780	5.61	-2.29687e-05
3	2839	5.71	-2.09553e-05
3	2898	5.81	-1.89277e-05
3	2957	5.91	-1.6925e-05
3	3019	6.01	-1.49784e-05
3	3078	6.11	-1.31129e-05
3	3137	6.21	-1.13474e-05
3	3196	6.31	-9.69553e-06
3	3255	6.41	-8.16651e-06
3	3314	6.51	-6.76571e-06
3	3373	6.61	-5.49522e-06
3	3432	6.71	-4.35441e-06
3	3491	6.81	-3.34045e-06
3	3550	6.91	-2.44874e-06
3	3612	7.01	-1.6733e-06
3	3671	7.11	-1.00716e-06
3	3730	7.21	-4.42628e-07
3	3789	7.31	2.84224e-08
3	3848	7.41	4.14339e-07
3	3907	7.51	7.23492e-07
3	3966	7.61	9.6413e-07
3	4025	7.71	1.14424e-06
3	4084	7.81	1.27148e-06
3	4143	7.91	1.35305e-06
3	4205	8.01	1.3957e-06
3	4264	8.11	1.40565e-06
3	4323	8.21	1.3886e-06
3	4382	8.31	1.34971e-06
3	4441	8.41	1.2936e-06
3	4500	8.51	1.22437e-06
3	4559	8.61	1.14561e-06
3	4618	8.71	1.06046e-06
3	4677	8.81	9.71582e-07
3	4736	8.91	8.81246e-07
3	4798	9.01	7.91334e-07
3	4857	9.11	7.03381e-07
3	4916	9.21	6.18613e-07
3	4975	9.31	5.37979e-07
3	5034	9.41	4.62183e-07
3	5093	9.51	3.91714e-07
3	5152	9.61	3.26878e-07
3	5211	9.71	2.67827e-07
3	5270	9.81	2.14581e-07
3	5329	9.91	1.67052e-07
3	5488	10.01	1.25066e-07
3	5547	10.11	8.83794e-08
3	5606	10.21	5.66978e-08
3	5665	10.31	2.96922e-08
3	5724	10.41	7.00453e-09
3	5783	10.51	-1.17325e-08
3	5842	10.61	-2.68933e-08
3	5901	10.71	-3.88482e-08
3	5960	10.81	-4.79581e-08
3	6019	10.91	-5.45704e-08
3	6081	11.01	-5.90177e-08
3	6140	11.11	-6.16069e-08
3	6199	11.21	-6.26265e-08
3	6258	11.31	-6.23395e-08
3	6317	11.41	-6.09859e-08
3	6376	11.51	-5.87811e-08
3	6435	11.61	-5.59183e-08
3	6494	11.71	-5.25674e-08
3	6553	11.81	-4.88761e-08
3	6612	11.91	-4.4971e-08
3	6674	12.01	-4.09599e-08
3	6733	12.11	-3.69354e-08
3	6792	12.21	-3.29713e-08
3	6851	12.31	-2.9128e-08
3	6910	12.41	-2.54531e-08
3	6969	12.51	-2.19821e-08
3	7028	12.61	-1.87399e-08
3	7087	12.71	-1.57428e-08
3	7146	12.81	-1.30029e-08
3	7205	12.91	-1.05217e-08
3	7267	13.01	-8.29772e-09
3	7326	13.11	-6.32454e-09
3	7385	13.21	-4.59224e-09
3	7444	13.31	-3.08802e-09
3	7503	13.41	-1.79838e-09
3	7562	13.51	-7.08411e-10
3	7621	13.61	1.98241e-10
3	7680	13.71	9.37916e-10
3	7739	13.81	1.52767e-09
3	7798	13.91	1.98384e-09
3	7860	14.01	2.32276e-09
3	7919	14.11	2.55937e-09
3	7978	14.21	2.70788e-09
3	8037	14.31	2.78249e-09
3	8096	14.41	2.79243e-09
3	8155	14.51	2.7498e-09
3	8214	14.61	2.66525e-09
3	8273	14.71	2.54872e-09
3	8332	14.81	2.40803e-09
3	8391	14.91	2.24887e-09
3	8453	15.01	2.07763e-09
3	8512	15.11	1.89999e-09
3	8571	15.21	1.72236e-09
3	8630	15.31	1.54472e-09
3	8689	15.41	1.37064e-09
3	8748	15.51	1.20295e-09
3	8807	15.61	1.04379e-09
3	8866	15.71	8.94573e-10
3	8925	15.81	7.56017e-10
3	8984	15.91	6.29541e-10
3	9046	16.01	5.13012e-10
3	9105	16.11	4.09273e-10
3	9164	16.21	3.16902e-10
3	9223	16.31	2.3519e-10
3	9282	16.41	1.63425e-10
3	9341	16.51	1.02318e-10
3	9400	16.61	4.9738e-11
3	9459	16.71	5.68434e-12
3	9518	16.81	-3.05533e-11
3	9577	16.91	-5.8975e-11
3	9639	17.01	-8.10019e-11
3	9698	17.11	-9.80549e-11
3	9757	17.21	-1.11555e-10
3	9816	17.31	-1.18661e-10
3	9875	17.41	-1.23634e-10
3	9934	17.51	-1.23634e-10
3	9993	17.61	-1.23634e-10
3	10052	17.71	-1.21503e-10
3	10111	17.81	-1.14397e-10
3	10170	17.91	-1.07292e-10
3	10232	18.01	-1.00187e-10
3	10291	18.11	-9.30811e-11
3	10350	18.21	-8.59757e-11
3	10409	18.31	-7.88702e-11
3	10468	18.41	-7.17648e-11
3	10527	18.51	-6.46594e-11
3	10586	18.61	-5.7554e-11
3	10645	18.71	-5.04485e-11
3	10704	18.81	-4.33431e-11
3	10763	18.91	-3.62377e-11
3	10825	19.01	-2.91323e-11
3	10884	19.11	-2.20268e-11
3	10943	19.21	-1.7053e-11
3	11002	19.31	-1.49214e-11
3	11061	19.41	-1.35003e-11
3	11120	19.51	-1.27898e-11
3	11179	19.61	-1.13687e-11
3	11238	19.71	-9.9476e-12
3	11297	19.81	-9.23706e-12
3	11356	19.91	-8.52651e-12
3	11418	20.01	-7.81597e-12
3	11477	20.11	-7.10543e-12
3	11536	20.21	-6.39488e-12
3	11595	20.31	-5.68434e-12
3	11654	20.41	-4.9738e-12
3	11713	20.51	-4.26326e-12
3	11772	20.61	-4.26326e-12
3	11831	20.71	-3.55271e-12
3	11890	20.81	-3.55271e-12
3	11949	20.91	-2.84217e-12
3	12011	21.01	-2.84217e-12
3	12070	21.11	-2.84217e-12
3	12129	21.21	-2.13163e-12
3	12188	21.31	-2.13163e-12
3	12247	21.41	-2.13163e-12
3	12306	21.51	-1.42109e-12
3	12365	21.61	-1.42109e-12
3	12424	21.71	-1.42109e-12
3	12483	21.81	-1.42109e-12
3	12542	21.91	-1.42109e-12
3	12604	22.01	-7.10543e-13
3	12663	22.11	-7.10543e-13
3	12722	22.21	-7.10543e-13
3	12781	22.31	-7.10543e-13
3	12840	22.41	-7.10543e-13
3	12899	22.51	-7.10543e-13
3	12958	22.61	-7.10543e-13
3	13017	22.71	-7.10543e-13
3	13076	22.81	-7.10543e-13
3	13135	22.91	-7.10543e-13
3	13197	23.01	0
3	13256	23.11	0
3	13315	23.21	0
3	13374	23.31	0
3	13433	23.41	0
3	13492	23.51	0
3	13551	23.61	0
3	13610	23.71	0
3	13669	23.81	0
3	13728	23.91	0
3	13790	24.01	0
3	13849	24.11	0
3	13908	24.21	0
3	13967	24.31	0
3	14026	24.41	0
3	14085	24.51	0
3	14144	24.61	0
3	14203	24.71	0
3	14262	24.81	0
3	14321	24.91	0
3	14383	25.01	0
3	14442	25.11	0
3	14501	25.21	0
3	14560	25.31	0
3	14619	25.41	0
3	14678	25.51	0
3	14737	25.61	0
3	14796	25.71	0
3	14855	25.81	0
3	14914	25.91	0
3	14976	26.01	0
3	15035	26.11	0
3	15094	26.21	0
3	15153	26.31	0
3	15212	26.41	0
3	15271	26.51	0
3	15330	26.61	0
3	15389	26.71	0
3	15448	26.81	0
3	15507	26.91	0
3	15569	27.01	0
3	15628	27.11	0
3	15687	27.21	0
3	15746	27.31	0
3	15805	27.41	0
3	15864	27.51	0
3	15923	27.61	0
3	15982	27.71	0
3	16041	27.81	0
3	16100	27.91	0
3	16162	28.01	0
3	16221	28.11	0
3	16280	28.21	0
3	16339	28.31	0
3	16398	28.41	0
3	16457	28.51	0
3	16516	28.61	0
3	16575	28.71	0
3	16634	28.81	0
3	16693	28.91	0
3	16755	29.01	0
3	16814	29.11	0
3	16873	29.21	0
3	16932	29.31	0
3	16991	29.41	0
3	17050	29.51	0
3	17109	29.61	0
3	17168	29.71	0
3	17227	29.81	0
3	17286	29.91	0
3	17348	30.01	0
3	17407	30.11	0
3	17466	30.21	0
3	17525	30.31	0
3	17584	30.41	0
3	17643	30.51	0
3	17702	30.61	0
3	17761	30.71	0
3	17820	30.81	0
3	17879	30.91	0
3	17941	31.01	0
3	18000	31.11	0
3	18059	31.21	0
3	18118	31.31	0
3	18177	31.41	0
3	18236	31.51	0
3	18295	31.61	0
3	18354	31.71	0
3	18413	31.81	0
3	18472	31.91	0
3	18534	32.01	0
3	18593	32.11	0
3	18652	32.21	0
3	18711	32.31	0
3	18770	32.41	0
3	18829	32.51	0
3	18888	32.61	0
3	18947	32.71	0
3	19006	32.81	0
3	19065	32.91	0
3	19127	33.01	0
3	19186	33.11	0
3	19245	33.21	0
3	19304	33.31	0
3	19363	33.41	0
3	19422	33.51	0
3	19481	33.61	0
3	19540	33.71	0
3	19599	33.81	0
3	19658	33.91	0
3	19720	34.01	0
3	19779	34.11	0
3	19838	34.21	0
3	19897	34.31	0
3	19956	34.41	0
3	20015	34.51	0
3	20074	34.61	0
3	20133	34.71	0
3	20192	34.81	0
3	20251	34.91	0
3	20313	35.01	0
3	20372	35.11	0
3	20431	35.21	0
3	20490	35.31	0
3	20549	35.41	0
3	20608	35.51	0
3	20667	35.61	0
3	20726	35.71	0
3	20785	35.81	0
3	20844	35.91	0
3	20906	36.01	0
3	20965	36.11	0
3	21024	36.21	0
3	21083	36.31	0
3	21142	36.41	0
3	21201	36.51	0
3	21260	36.61	0
3	21319	36.71	0
3	21378	36.81	0
3	21437	36.91	0
3	21499	37.01	0
3	21558	37.11	0
3	21617	37.21	0
3	21676	37.31	0
3	21735	37.41	0
3	21794	37.51	0
3	21853	37.61	0
3	21912	37.71	0
3	21971	37.81	0
3	22030	37.91	0
3	22092	38.01	0
3	22151	38.11	0
3	22210	38.21	0
3	22269	38.31	0
3	22328	38.41	0
3	22387	38.51	0
3	22446	38.61	0
3	22505	38.71	0
3	22564	38.81	0
3	22623	38.91	0
3	22685	39.01	0
3	22744	39.11	0
3	22803	39.21	0
3	22862	39.31	0
3	22921	39.41	0
3	22980	39.51	0
3	23039	39.61	0
3	23098	39.71	0
3	23157	39.81	0
3	23216	39.91	0
3	23278	40.01	0
3	23337	40.11	0
3	23396	40.21	0
3	23455	40.31	0
3	23514	40.41	0
3	23573	40.51	0
3	23632	40.61	0
3	23691	40.71	0
3	23750	40.81	0
3	23809	40.91	0
3	23871	41.01	0
3	23930	41.11	0
3	23989	41.21	0
3	24048	41.31	0
3	24107	41.41	0
3	24166	41.51	0
3	24225	41.61	0
3	24284	41.71	0
3	24343	41.81	0
3	24402	41.91	0
3	24464	42.01	0
3	24523	42.11	0
3	24582	42.21	0
3	24641	42.31	0
3	24700	42.41	0
3	24759	42.51	0
3	24818	42.61	0
3	24877	42.71	0
3	24936	42.81	0
3	24995	42.91	0
3	25057	43.01	0
3	25116	43.11	0
3	25175	43.21	0
3	25234	43.31	0
3	25293	43.41	0
3	25352	43.51	0
3	25411	43.61	0
3	25470	43.71	0
3	25529	43.81	0
3	25588	43.91	0
3	25650	44.01	0
3	25709	44.11	0
3	25768	44.21	0
3	25827	44.31	0
3	25886	44.41	0
3	25945	44.51	0
3	26004	44.61	0
3	26063	44.71	0
3	26122	44.81	0
3	26181	44.91	0
3	26243	45.01	0
3	26302	45.11	0
3	26361	45.21	0
3	26420	45.31	0
3	26479	45.41	0
3	26538	45.51	0
3	26597	45.61	0
3	26656	45.71	0
3	26715	45.81	0
3	26774	45.91	0
3	26836	46.01	0
3	26895	46.11	0
3	26954	46.21	0
3	27013	46.31	0
3	27072	46.41	0
3	27131	46.51	0
3	27190	46.61	0
3	27249	46.71	0
3	27308	46.81	0
3	27367	46.91	0
3	27429	47.01	0
3	27488	47.11	0
3	27547	47.21	0
3	27606	47.31	0
3	27665	47.41	0
3	27724	47.51	0
3	27783	47.61	0
3	27842	47.71	0
3	27901	47.81	0
3	27960	47.91	0
3	28022	48.01	0
3	28081	48.11	0
3	28140	48.21	0
3	28199	48.31	0
3	28258	48.41	0
3	28317	48.51	0
3	28376	48.61	0
3	28435	48.71	0
3	28494	48.81	0
3	28553	48.91	0
3	28615	49.01	0
3	28674	49.11	0
3	28733	49.21	0
3	28792	49.31	0
3	28851	49.41	0
3	28910	49.51	0
3	28969	49.61	0
3	29028	49.71	0
3	29087	49.81	0
3	29146	49.91	0
3	29208	50.01	0
3	29267	50.11	0
3	29326	50.21	0
3	29385	50.31	0
3	29444	50.41	0
3	29503	50.51	0
3	29562	50.61	0
3	29621	50.71	0
3	29680	50.81	0
3	29739	50.91	0
3	29801	51.01	0
3	29860	51.11	0
3	29919	51.21	0
3	29978	51.31	0
3	30037	51.41	0
3	30096	51.51	0
3	30155	51.61	0
3	30214	51.71	0
3	30273	51.81	0
3	30332	51.91	0
3	30394	52.01	0
3	30453	52.11	0
3	30512	52.21	0
3	30571	52.31	0
3	30630	52.41	0
3	30689	52.51	0
3	30748	52.61	0
3	30807	52.71	0
3	30866	52.81	0
3	30925	52.91	0
3	30987	53.01	0
3	31046	53.11	0
3	31105	53.21	0
3	31164	53.31	0
3	31223	53.41	0
3	31282	53.51	0
3	31341	53.61	0
3	31400	53.71	0
3	31459	53.81	0
3	31518	53.91	0
3	31580	54.01	0
3	31639	54.11	0
3	31698	54.21	0
3	31757	54.31	0
3	31816	54.41	0
3	31875	54.51	0
3	31934	54.61	0
3	31993	54.71	0
3	32052	54.81	0
3	32111	54.91	0
3	32173	55.01	0
3	32232	55.11	0
3	32291	55.21	0
3	32350	55.31	0
3	32409	55.41	0
3	32468	55.51	0
3	32527	55.61	0
3	32586	55.71	0
3	32645	55.81	0
3	32704	55.91	0
3	32766	56.01	0
3	32825	56.11	0
3	32884	56.21	0
3	32943	56.31	0
3	33002	56.41	0
3	33061	56.51	0
3	33120	56.61	0
3	33179	56.71	0
3	33238	56.81	0
3	33297	56.91	0
3	33359	57.01	0
3	33418	57.11	0
3	33477	57.21	0
3	33536	57.31	0
3	33595	57.41	0
3	33654	57.51	0
3	33713	57.61	0
3	33772	57.71	0
3	33831	57.81	0
3	33890	57.91	0
3	33952	58.01	0
3	34011	58.11	0
3	34070	58.21	0
3	34129	58.31	0
3	34188	58.41	0
3	34247	58.51	0
3	34306	58.61	0
3	34365	58.71	0
3	34424	58.81	0
3	34483	58.91	0
3	34545	59.01	0
3	34604	59.11	0
3	34663	59.21	0
3	34722	59.31	0
3	34781	59.41	0
3	34840	59.51	0
3	34899	59.61	0
3	34958	59.71	0
3	35017	59.81	0
3	35076	59.91	0
3	35138	60.01	0
3	35197	60.11	0
3	35256	60.21	0
3	35315	60.31	0
3	35374	60.41	0
3	35433	60.51	0
3	35492	60.61	0
3	35551	60.71	0
3	35610	60.81	0
3	35669	60.91	0
3	35731	61.01	0
3	35790	61.11	0
3	35849	61.21	0
3	35908	61.31	0
3	35967	61.41	0
3	36026	61.51	0
3	36085	61.61	0
3	36144	61.71	0
3	36203	61.81	0
3	36262	61.91	0
3	36324	62.01	0
3	36383	62.11	0
3	36442	62.21	0
3	36501	62.31	0
3	36560	62.41	0
3	36619	62.51	0
3	36678	62.61	0
3	36737	62.71	0
3	36796	62.81	0
3	36855	62.91	0
3	36917	63.01	0
3	36976	63.11	0
3	37035	63.21	0
3	37094	63.31	0
3	37153	63.41	0
3	37212	63.51	0
3	37271	63.61	0
3	37330	63.71	0
3	37389	63.81	0
3	37448	63.91	0
3	37510	64.01	0
3	37569	64.11	0
3	37628	64.21	0
3	37687	64.31	0
3	37746	64.41	0
3	37805	64.51	0
3	37864	64.61	0
3	37923	64.71	0
3	37982	64.81	0
3	38041	64.91	0
3	38103	65.01	0
3	38162	65.11	0
3	38221	65.21	0
3	38280	65.31	0
3	38339	65.41	0
3	38398	65.51	0
3	38457	65.61	0
3	38516	65.71	0
3	38575	65.81	0
3	38634	65.91	0
3	38696	66.01	0
3	38755	66.11	0
3	38814	66.21	0
3	38873	66.31	0
3	38932	66.41	0
3	38991	66.51	0
3	39050	66.61	0
3	39109	66.71	0
3	39168	66.81	0
3	39227	66.91	0
3	39289	67.01	0
3	39348	67.11	0
3	39407	67.21	0
3	39466	67.31	0
3	39525	67.41	0
3	39584	67.51	0
3	39643	67.61	0
3	39702	67.71	0
3	39761	67.81	0
3	39820	67.91	0
3	39882	68.01	0
3	39941	68.11	0
3	40000	68.21	0
3	40059	68.31	0
3	40118	68.41	0
3	40177	68.51	0
3	40236	68.61	0
3	40295	68.71	0
3	40354	68.81	0
3	40413	68.91	0
3	40475	69.01	0
3	40534	69.11	0
3	40593	69.21	0
3	40652	69.31	0
3	40711	69.41	0
3	40770	69.51	0
3	40829	69.61	0
3	40888	69.71	0
3	40947	69.81	0
3	41006	69.91	0
3	41068	70.01	0
3	41127	70.11	0
3	41186	70.21	0
3	41245	70.31	0
3	41304	70.41	0
3	41363	70.51	0
3	41422	70.61	0
3	41481	70.71	0
3	41540	70.81	0
3	41599	70.91	0
3	41661	71.01	0
3	41720	71.11	0
3	41779	71.21	0
3	41838	71.31	0
3	41897	71.41	0
3	41956	71.51	0
3	42015	71.61	0
3	42074	71.71	0
3	42133	71.81	0
3	42192	71.91	0
3	42254	72.01	0
3	42313	72.11	0
3	42372	72.21	0
3	42431	72.31	0
3	42490	72.41	0
3	42549	72.51	0
3	42608	72.61	0
3	42667	72.71	0
3	42726	72.81	0
3	42785	72.91	0
3	42847	73.01	0
3	42906	73.11	0
3	42965	73.21	0
3	43024	73.31	0
3	43083	73.41	0
3	43142	73.51	0
3	43201	73.61	0
3	43260	73.71	0
3	43319	73.81	0
3	43378	73.91	0
3	43440	74.01	0
3	43499	74.11	0
3	43558	74.21	0
3	43617	74.31	0
3	43676	74.41	0
3	43735	74.51	0
3	43794	74.61	0
3	43853	74.71	0
3	43912	74.81	0
3	43971	74.91	0
3	44033	75.01	0
3	44092	75.11	0
3	44151	75.21	0
3	44210	75.31	0
3	44269	75.41	0
3	44328	75.51	0
3	44387	75.61	0
3	44446	75.71	0
3	44505	75.81	0
3	44564	75.91	0
3	44626	76.01	0
3	44685	76.11	0
3	44744	76.21	0
3	44803	76.31	0
3	44862	76.41	0
3	44921	76.51	0
3	44980	76.61	0
3	45039	76.71	0
3	45098	76.81	0
3	45157	76.91	0
3	45219	77.01	0
3	45278	77.11	0
3	45337	77.21	0
3	45396	77.31	0
3	45455	77.41	0
3	45514	77.51	0
3	45573	77.61	0
3	45632	77.71	0
3	45691	77.81	0
3	45750	77.91	0
3	45812	78.01	0
3	45871	78.11	0
3	45930	78.21	0
3	45989	78.31	0
3	46048	78.41	0
3	46107	78.51	0
3	46166	78.61	0
3	46225	78.71	0
3	46284	78.81	0
3	46343	78.91	0
3	46405	79.01	0
3	46464	79.11	0
3	46523	79.21	0
3	46582	79.31	0
3	46641	79.41	0
3	46700	79.51	0
3	46759	79.61	0
3	46818	79.71	0
3	46877	79.81	0
3	46936	79.91	0
3	46998	80.01	0
3	47057	80.11	0
3	47116	80.21	0
3	47175	80.31	0
3	47234	80.41	0
3	47293	80.51	0
3	47352	80.61	0
3	47411	80.71	0
3	47470	80.81	0
3	47529	80.91	0
3	47591	81.01	0
3	47650	81.11	0
3	47709	81.21	0
3	47768	81.31	0
3	47827	81.41	0
3	47886	81.51	0
3	47945	81.61	0
3	48004	81.71	0
3	48063	81.81	0
3	48122	81.91	0
3	48184	82.01	0
3	48243	82.11	0
3	48302	82.21	0
3	48361	82.31	0
3	48420	82.41	0
3	48479	82.51	0
3	48538	82.61	0
3	48597	82.71	0
3	48656	82.81	0
3	48715	82.91	0
3	48777	83.01	0
3	48836	83.11	0
3	48895	83.21	0
3	48954	83.31	0
3	49013	83.41	0
3	49072	83.51	0
3	49131	83.61	0
3	49190	83.71	0
3	49249	83.81	0
3	49308	83.91	0
3	49370	84.01	0
3	49429	84.11	0
3	49488	84.21	0
3	49547	84.31	0
3	49606	84.41	0
3	49665	84.51	0
3	49724	84.61	0
3	49783	84.71	0
3	49842	84.81	0
3	49901	84.91	0
3	49963	85.01	0
3	50022	85.11	0
3	50081	85.21	0
3	50140	85.31	0
3	50199	85.41	0
3	50258	85.51	0
3	50317	85.61	0
3	50376	85.71	0
3	50435	85.81	0
3	50494	85.91	0
3	50556	86.01	0
3	50615	86.11	0
3	50674	86.21	0
3	50733	86.31	0
3	50792	86.41	0
3	50851	86.51	0
3	50910	86.61	0
3	50969	86.71	0
3	51028	86.81	0
3	51087	86.91	0
3	51149	87.01	0
3	51208	87.11	0
3	51267	87.21	0
3	51326	87.31	0
3	51385	87.41	0
3	51444	87.51	0
3	51503	87.61	0
3	51562	87.71	0
3	51621	87.81	0
3	51680	87.91	0
3	51742	88.01	0
3	51801	88.11	0
3	51860	88.21	0
3	51919	88.31	0
3	51978	88.41	0
3	52037	88.51	0
3	52096	88.61	0
3	52155	88.71	0
3	52214	88.81	0
3	52273	88.91	0
3	52335	89.01	0
3	52394	89.11	0
3	52453	89.21	0
3	52512	89.31	0
3	52571	89.41	0
3	52630	89.51	0
3	52689	89.61	0
3	52748	89.71	0
3	52807	89.81	0
3	52866	89.91	0
3	52928	90.01	0
3	52987	90.11	0
3	53046	90.21	0
3	53105	90.31	0
3	53164	90.41	0
3	53223	90.51	0
3	53282	90.61	0
3	53341	90.71	0
3	53400	90.81	0
3	53459	90.91	0
3	53521	91.01	0
3	53580	91.11	0
3	53639	91.21	0
3	53698	91.31	0
3	53757	91.41	0
3	53816	91.51	0
3	53875	91.61	0
3	53934	91.71	0
3	53993	91.81	0
3	54052	91.91	0
3	54114	92.01	0
3	54173	92.11	0
3	54232	92.21	0
3	54291	92.31	0
3	54350	92.41	0
3	54409	92.51	0
3	54468	92.61	0
3	54527	92.71	0
3	54586	92.81	0
3	54645	92.91	0
3	54707	93.01	0
3	54766	93.11	0
3	54825	93.21	0
3	54884	93.31	0
3	54943	93.41	0
3	55002	93.51	0
3	55061	93.61	0
3	55120	93.71	0
3	55179	93.81	0
3	55238	93.91	0
3	55300	94.01	0
3	55359	94.11	0
3	55418	94.21	0
3	55477	94.31	0
3	55536	94.41	0
3	55595	94.51	0
3	55654	94.61	0
3	55713	94.71	0
3	55772	94.81	0
3	55831	94.91	0
3	55893	95.01	0
3	55952	95.11	0
3	56011	95.21	0
3	56070	95.31	0
3	56129	95.41	0
3	56188	95.51	0
3	56247	95.61	0
3	56306	95.71	0
3	56365	95.81	0
3	56424	95.91	0
3	56486	96.01	0
3	56545	96.11	0
3	56604	96.21	0
3	56663	96.31	0
3	56722	96.41	0
3	56781	96.51	0
3	56840	96.61	0
3	56899	96.71	0
3	56958	96.81	0
3	57017	96.91	0
3	57079	97.01	0
3	57138	97.11	0
3	57197	97.21	0
3	57256	97.31	0
3	57315	97.41	0
3	57374	97.51	0
3	57433	97.61	0
3	57492	97.71	0
3	57551	97.81	0
3	57610	97.91	0
3	57672	98.01	0
3	57731	98.11	0
3	57790	98.21	0
3	57849	98.31	0
3	57908	98.41	0
3	57967	98.51	0
3	58026	98.61	0
3	58085	98.71	0
3	58144	98.81	0
3	58203	98.91	0
3	58265	99.01	0
3	58324	99.11	0
3	58383	99.21	0
3	58442	99.31	0
3	58501	99.41	0
3	58560	99.51	0
3	58619	99.61	0
3	58678	99.71	0
3	58737	99.81	0
3	58796	99.91	0
4	113	1.11	0.00109259
4	172	1.21	0.00106709
4	231	1.31	0.00102704
4	290	1.41	0.000975759
4	349	1.51	0.00091619
4	408	1.61	0.000850891
4	467	1.71	0.000782061
4	526	1.81	0.00071157
4	585	1.91	0.00064098
4	647	2.01	0.000571575
4	706	2.11	0.000504387
4	765	2.21	0.000440223
4	824	2.31	0.000379691
4	883	2.41	0.000323223
4	942	2.51	0.000271102
4	1001	2.61	0.000223482
4	1060	2.71	0.000180409
4	1119	2.81	0.000141839
4	1178	2.91	0.000107653
4	1240	3.01	7.76787e-05
4	1299	3.11	5.16957e-05
4	1358	3.21	2.94534e-05
4	1417	3.31	1.06787e-05
4	1476	3.41	-4.91459e-06
4	1535	3.51	-1.76184e-05
4	1594	3.61	-2.7724e-05
4	1653	3.71	-3.55168e-05
4	1712	3.81	-4.12726e-05
4	1771	3.91	-4.52541e-05
4	1833	4.01	-4.77086e-05
4	1892	4.11	-4.88665e-05
4	1951	4.21	-4.89399e-05
4	2010	4.31	-4.81224e-05
4	2069	4.41	-4.65886e-05
4	2128	4.51	-4.44947e-05
4	2187	4.61	-4.1979e-05
4	2246	4.71	-3.91623e-05
4	2305	4.81	-3.61492e-05
4	2364	4.91	-3.3029e-05
4	2426	5.01	-2.9877e-05
4	2485	5.11	-2.67554e-05
4	2544	5.21	-2.37147e-05
4	2603	5.31	-2.07949e-05
4	2662	5.41	-1.80267e-05
4	2721	5.51	-1.54325e-05
4	2780	5.61	-1.30275e-05
4	2839	5.71	-1.0821e-05
4	2898	5.81	-8.81673e-06
4	2957	5.91	-7.01443e-06
4	3019	6.01	-5.4101e-06
4	3078	6.11	-3.99696e-06
4	3137	6.21	-2.766e-06
4	3196	6.31	-1.70658e-06
4	3255	6.41	-8.06872e-07
4	3314	6.51	-5.43281e-08
4	3373	6.61	5.63994e-07
4	3432	6.71	1.06112e-06
4	3491	6.81	1.4499e-06
4	3550	6.91	1.74283e-06
4	3612	7.01	1.95188e-06
4	3671	7.11	2.08836e-06
4	3730	7.21	2.16287e-06
4	3789	7.31	2.1852e-06
4	3848	7.41	2.16432e-06
4	3907	7.51	2.10838e-06
4	3966	7.61	2.02467e-06
4	4025	7.71	1.91968e-06
4	4084	7.81	1.79913e-06
4	4143	7.91	1.66796e-06
4	4205	8.01	1.53044e-06
4	4264	8.11	1.39018e-06
4	4323	8.21	1.25018e-06
4	4382	8.31	1.11291e-06
4	4441	8.41	9.80339e-07
4	4500	8.51	8.54002e-07
4	4559	8.61	7.35044e-07
4	4618	8.71	6.24274e-07
4	4677	8.81	5.22206e-07
4	4736	8.91	4.2911e-07
4	4798	9.01	3.45041e-07
4	4857	9.11	2.69888e-07
4	4916	9.21	2.03394e-07
4	4975	9.31	1.45199e-07
4	5034	9.41	9.48539e-08
4	5093	9.51	5.18526e-08
4	5152	9.61	1.56462e-08
4	5211	9.71	-1.43366e-08
4	5270	9.81	-3.86756e-08
4	5329	9.91	-5.79483e-08
4	5488	10.01	-7.27191e-08
4	5547	10.11	-8.35328e-08
4	5606	10.21	-9.09047e-08
4	5665	10.31	-9.53222e-08
4	5724	10.41	-9.72364e-08
4	5783	10.51	-9.7063e-08
4	5842	10.61	-9.51793e-08
4	5901	10.71	-9.19272e-08
4	5960	10.81	-8.76099e-08
4	6019	10.91	-8.24976e-08
4	6081	11.01	-7.68239e-08
4	6140	11.11	-7.07914e-08
4	6199	11.21	-6.45734e-08
4	6258	11.31	-5.83135e-08
4	6317	11.41	-5.21325e-08
4	6376	11.51	-4.6127e-08
4	6435	11.61	-4.0373e-08
4	6494	11.71	-3.49289e-08
4	6553	11.81	-2.98357e-08
4	6612	11.91	-2.51227e-08
4	6674	12.01	-2.08054e-08
4	6733	12.11	-1.6891e-08
4	6792	12.21	-1.33767e-08
4	6851	12.31	-1.02538e-08
4	6910	12.41	-7.50759e-09
4	6969	12.51	-5.12017e-09
4	7028	12.61	-3.07026e-09
4	7087	12.71	-1.33298e-09
4	7146	12.81	1.15818e-10
4	7205	12.91	1.30242e-09
4	7267	13.01	2.25242e-09
4	7326	13.11	2.99138e-09
4	7385	13.21	3.54419e-09
4	7444	13.31	3.93356e-09
4	7503	13.41	4.18297e-09
4	7562	13.51	4.31157e-09
4	7621	13.61	4.34071e-09
4	7680	13.71	4.28599e-09
4	7739	13.81	4.16449e-09
4	7798	13.91	3.99041e-09
4	7860	14.01	3.77582e-09
4	7919	14.11	3.53211e-09
4	7978	14.21	3.2685e-09
4	8037	14.31	2.99423e-09
4	8096	14.41	2.71498e-09
4	8155	14.51	2.43716e-09
4	8214	14.61	2.16573e-09
4	8273	14.71	1.90425e-09
4	8332	14.81	1.65556e-09
4	8391	14.91	1.4218e-09
4	8453	15.01	1.20437e-09
4	8512	15.11	1.00471e-09
4	8571	15.21	8.22808e-10
4	8630	15.31	6.57963e-10
4	8689	15.41	5.11591e-10
4	8748	15.51	3.82272e-10
4	8807	15.61	2.69296e-10
4	8866	15.71	1.71951e-10
4	8925	15.81	8.88178e-11
4	8984	15.91	1.84741e-11
4	9046	16.01	-3.90799e-11
4	9105	16.11	-8.52651e-11
4	9164	16.21	-1.22213e-10
4	9223	16.31	-1.49925e-10
4	9282	16.41	-1.7053e-10
4	9341	16.51	-1.84031e-10
4	9400	16.61	-1.91847e-10
4	9459	16.71	-1.94689e-10
4	9518	16.81	-1.93268e-10
4	9577	16.91	-1.89004e-10
4	9639	17.01	-1.81899e-10
4	9698	17.11	-1.73372e-10
4	9757	17.21	-1.62714e-10
4	9816	17.31	-1.51346e-10
4	9875	17.41	-1.39266e-10
4	9934	17.51	-1.26477e-10
4	9993	17.61	-1.14397e-10
4	10052	17.71	-1.02318e-10
4	10111	17.81	-9.02389e-11
4	10170	17.91	-7.88702e-11
4	10232	18.01	-6.89226e-11
4	10291	18.11	-5.8975e-11
4	10350	18.21	-4.9738e-11
4	10409	18.31	-4.1922e-11
4	10468	18.41	-3.41061e-11
4	10527	18.51	-2.70006e-11
4	10586	18.61	-2.13163e-11
4	10645	18.71	-1.56319e-11
4	10704	18.81	-1.06581e-11
4	10763	18.91	-7.10543e-12
4	10825	19.01	-3.55271e-12
4	10884	19.11	-7.10543e-13
4	10943	19.21	7.10543e-13
4	11002	19.31	2.84217e-12
4	11061	19.41	4.26326e-12
4	11120	19.51	4.9738e-12
4	11179	19.61	6.39488e-12
4	11238	19.71	7.81597e-12
4	11297	19.81	8.52651e-12
4	11356	19.91	9.23706e-12
4	11418	20.01	9.9476e-12
4	11477	20.11	1.06581e-11
4	11536	20.21	1.13687e-11
4	11595	20.31	1.20792e-11
4	11654	20.41	1.27898e-11
4	11713	20.51	1.35003e-11
4	11772	20.61	1.35003e-11
4	11831	20.71	1.42109e-11
4	11890	20.81	1.42109e-11
4	11949	20.91	1.49214e-11
4	12011	21.01	1.49214e-11
4	12070	21.11	1.49214e-11
4	12129	21.21	1.56319e-11
4	12188	21.31	1.56319e-11
4	12247	21.41	1.56319e-11
4	12306	21.51	1.63425e-11
4	12365	21.61	1.63425e-11
4	12424	21.71	1.63425e-11
4	12483	21.81	1.63425e-11
4	12542	21.91	1.63425e-11
4	12604	22.01	1.7053e-11
4	12663	22.11	1.7053e-11
4	12722	22.21	1.7053e-11
4	12781	22.31	1.7053e-11
4	12840	22.41	1.7053e-11
4	12899	22.51	1.7053e-11
4	12958	22.61	1.7053e-11
4	13017	22.71	1.7053e-11
4	13076	22.81	1.7053e-11
4	13135	22.91	1.7053e-11
4	13197	23.01	1.77636e-11
4	13256	23.11	1.77636e-11
4	13315	23.21	1.77636e-11
4	13374	23.31	1.77636e-11
4	13433	23.41	1.77636e-11
4	13492	23.51	1.77636e-11
4	13551	23.61	1.77636e-11
4	13610	23.71	1.77636e-11
4	13669	23.81	1.77636e-11
4	13728	23.91	1.77636e-11
4	13790	24.01	1.77636e-11
4	13849	24.11	1.77636e-11
4	13908	24.21	1.77636e-11
4	13967	24.31	1.77636e-11
4	14026	24.41	1.77636e-11
4	14085	24.51	1.77636e-11
4	14144	24.61	1.77636e-11
4	14203	24.71	1.77636e-11
4	14262	24.81	1.77636e-11
4	14321	24.91	1.77636e-11
4	14383	25.01	1.77636e-11
4	14442	25.11	1.77636e-11
4	14501	25.21	1.77636e-11
4	14560	25.31	1.77636e-11
4	14619	25.41	1.77636e-11
4	14678	25.51	1.77636e-11
4	14737	25.61	1.77636e-11
4	14796	25.71	1.77636e-11
4	14855	25.81	1.77636e-11
4	14914	25.91	1.77636e-11
4	14976	26.01	1.77636e-11
4	15035	26.11	1.77636e-11
4	15094	26.21	1.77636e-11
4	15153	26.31	1.77636e-11
4	15212	26.41	1.77636e-11
4	15271	26.51	1.77636e-11
4	15330	26.61	1.77636e-11
4	15389	26.71	1.77636e-11
4	15448	26.81	1.77636e-11
4	15507	26.91	1.77636e-11
4	15569	27.01	1.77636e-11
4	15628	27.11	1.77636e-11
4	15687	27.21	1.77636e-11
4	15746	27.31	1.77636e-11
4	15805	27.41	1.77636e-11
4	15864	27.51	1.77636e-11
4	15923	27.61	1.77636e-11
4	15982	27.71	1.77636e-11
4	16041	27.81	1.77636e-11
4	16100	27.91	1.77636e-11
4	16162	28.01	1.77636e-11
4	16221	28.11	1.77636e-11
4	16280	28.21	1.77636e-11
4	16339	28.31	1.77636e-11
[...]
27	46014	78.369548880244	1
27	46073	78.469547310036	1
27	46132	78.569545741904	1
27	46191	78.669544175847	1
27	46250	78.769542611865	1
27	46309	78.869541049959	1
27	46368	78.969539490129	1
27	46430	79.069550932374	1
27	46489	79.169549376694	1
27	46548	79.26954782309	1
27	46607	79.369546271562	1
27	46666	79.469544722109	1
27	46725	79.569543174731	1
27	46784	79.669541629429	1
27	46843	79.769540086203	1
27	46902	79.869551545052	1
27	46961	79.969550005976	1
27	47023	80.069548468976	1
27	47082	80.169546934052	1
27	47141	80.269545401203	1
27	47200	80.369543870429	1
27	47259	80.469542341731	1
27	47318	80.569540815109	1
27	47377	80.669539290562	1
27	47436	80.76955076809	1
27	47495	80.869549247694	1
27	47554	80.969547729374	1
27	47616	81.069546213129	1
27	47675	81.169544698959	1
27	47734	81.269543186865	1
27	47793	81.369541676847	1
27	47852	81.469540168904	1
27	47911	81.569551663037	1
27	47970	81.669550159245	1
27	48029	81.769548657529	1
27	48088	81.869547157888	1
27	48147	81.969545660323	1
27	48209	82.069544164833	1
27	48268	82.169542671419	1
27	48327	82.26954118008	1
27	48386	82.369539690817	1
27	48445	82.469551203629	1
27	48504	82.569549718517	1
27	48563	82.66954823548	1
27	48622	82.769546754519	1
27	48681	82.869545275633	1
27	48740	82.969543798823	1
27	48802	83.069542324088	1
27	48861	83.169540851429	1
27	48920	83.269539380845	1
27	48979	83.369550912337	1
27	49038	83.469549445904	1
27	49097	83.569547981547	1
27	49156	83.669546519265	1
27	49215	83.769545059059	1
27	49274	83.869543600928	1
27	49333	83.969542144873	1
27	49395	84.069540690893	1
27	49454	84.169539238989	1
27	49513	84.26955078916	1
27	49572	84.369549341407	1
27	49631	84.469547895729	1
27	49690	84.569546452127	1
27	49749	84.6695450106	1
27	49808	84.769543571149	1
27	49867	84.869542133773	1
27	49926	84.969540698473	1
27	49988	85.069539265248	1
27	50047	85.169550834099	1
27	50106	85.269549405025	1
27	50165	85.369547978027	1
27	50224	85.469546553104	1
27	50283	85.569545130257	1
27	50342	85.669543709485	1
27	50401	85.769542290789	1
27	50460	85.869540874168	1
27	50519	85.969539459623	1
27	50581	86.069551047153	1
27	50640	86.169549636759	1
27	50699	86.26954822844	1
27	50758	86.369546822197	1
27	50817	86.469545418029	1
27	50876	86.569544015937	1
27	50935	86.66954261592	1
27	50994	86.769541217979	1
27	51053	86.869539822113	1
27	51112	86.969551428323	1
27	51174	87.069550036608	1
27	51233	87.169548646969	1
27	51292	87.269547259405	1
27	51351	87.369545873917	1
27	51410	87.469544490504	1
27	51469	87.569543109167	1
27	51528	87.669541729905	1
27	51587	87.769540352719	1
27	51646	87.869538977608	1
27	51705	87.969550604573	1
27	51767	88.069549233613	1
27	51826	88.169547864729	1
27	51885	88.26954649792	1
27	51944	88.369545133187	1
27	52003	88.469543770529	1
27	52062	88.569542409947	1
27	52121	88.66954105144	1
27	52180	88.769539695009	1
27	52239	88.869551340653	1
27	52298	88.969549988373	1
27	52360	89.069548638168	1
27	52419	89.169547290039	1
27	52478	89.269545943985	1
27	52537	89.369544600007	1
27	52596	89.469543258104	1
27	52655	89.569541918277	1
27	52714	89.669540580525	1
27	52773	89.769539244849	1
27	52832	89.869550911248	1
27	52891	89.969549579723	1
27	52953	90.069548250273	1
27	53012	90.169546922899	1
27	53071	90.2695455976	1
27	53130	90.369544274377	1
27	53189	90.469542953229	1
27	53248	90.569541634157	1
27	53307	90.66954031716	1
27	53366	90.769539002239	1
27	53425	90.869550689393	1
27	53484	90.969549378623	1
27	53546	91.069548069928	1
27	53605	91.169546763309	1
27	53664	91.269545458765	1
27	53723	91.369544156297	1
27	53782	91.469542855904	1
27	53841	91.569541557587	1
27	53900	91.669540261345	1
27	53959	91.769538967179	1
27	54018	91.869550675088	1
27	54077	91.969549385073	1
27	54139	92.069548097133	1
27	54198	92.169546811269	1
27	54257	92.26954552748	1
27	54316	92.369544245767	1
27	54375	92.469542966129	1
27	54434	92.569541688567	1
27	54493	92.66954041308	1
27	54552	92.769539139669	1
27	54611	92.869550868333	1
27	54670	92.969549599073	1
27	54732	93.069548331888	1
27	54791	93.169547066779	1
27	54850	93.269545803745	1
27	54909	93.369544542787	1
27	54968	93.469543283904	1
27	55027	93.569542027097	1
27	55086	93.669540772365	1
27	55145	93.769539519709	1
27	55204	93.869551269128	1
27	55263	93.969550020623	1
27	55325	94.069548774193	1
27	55384	94.169547529839	1
27	55443	94.26954628756	1
27	55502	94.369545047357	1
27	55561	94.469543809229	1
27	55620	94.569542573177	1
27	55679	94.6695413392	1
27	55738	94.769540107299	1
27	55797	94.869538877473	1
27	55856	94.969550649723	1
27	55918	95.069549424048	1
27	55977	95.169548200449	1
27	56036	95.269546978925	1
27	56095	95.369545759477	1
27	56154	95.469544542105	1
27	56213	95.569543326808	1
27	56272	95.669542113586	1
27	56331	95.76954090244	1
27	56390	95.86953969337	1
27	56449	95.969551486375	1
27	56511	96.069550281455	1
27	56570	96.169549078611	1
27	56629	96.269547877843	1
27	56688	96.36954667915	1
27	56747	96.469545482532	1
27	56806	96.56954428799	1
27	56865	96.669543095524	1
27	56924	96.769541905133	1
27	56983	96.869540716817	1
27	57042	96.969539530577	1
27	57104	97.069551346413	1
27	57163	97.169550164324	1
27	57222	97.26954898431	1
27	57281	97.369547806372	1
27	57340	97.46954663051	1
27	57399	97.569545456723	1
27	57458	97.669544285011	1
27	57517	97.769543115375	1
27	57576	97.869541947815	1
27	57635	97.96954078233	1
27	57697	98.06953961892	1
27	57756	98.169551457586	1
27	57815	98.269550298328	1
27	57874	98.369549141145	1
27	57933	98.469547986037	1
27	57992	98.569546833005	1
27	58051	98.669545682049	1
27	58110	98.769544533168	1
27	58169	98.869543386362	1
27	58228	98.969542241632	1
27	58290	99.069541098978	1
27	58349	99.169539958399	1
27	58408	99.269551819895	1
27	58467	99.369550683467	1
27	58526	99.469549549115	1
27	58585	99.569548416838	1
27	58644	99.669547286636	1
27	58703	99.76954615851	1
27	58762	99.86954503246	1
27	58821	99.969543908485	1
28	639	2	0
28	1232	3	0
28	1825	4	0
28	2418	5	0
28	3011	6	0
28	3604	7	0
28	4197	8	0
28	4790	9	0
28	5385	10	0
28	6073	11	0
28	6666	12	0
28	7259	13	0
28	7852	14	0
28	8445	15	0
28	9038	16	0
28	9631	17	0
28	10224	18	0
28	10817	19	0
28	11410	20	0
28	12003	21	0
28	12596	22	0
28	13189	23	0
28	13782	24	0
28	14375	25	0
28	14968	26	0
28	15561	27	0
28	16154	28	0
28	16747	29	0
28	17340	30	0
28	17933	31	0
28	18526	32	0
28	19119	33	0
28	19712	34	0
28	20305	35	0
28	20898	36	0
28	21491	37	0
28	22084	38	0
28	22677	39	0
28	23270	40	0
28	23863	41	0
28	24456	42	0
28	25049	43	0
28	25642	44	0
28	26235	45	0
28	26828	46	0
28	27421	47	0
28	28014	48	0
28	28607	49	0
28	29200	50	0
28	29793	51	0
28	30386	52	0
28	30979	53	0
28	31572	54	0
28	32165	55	0
28	32758	56	0
28	33351	57	0
28	33944	58	0
28	34537	59	0
28	35130	60	0
28	35723	61	0
28	36316	62	0
28	36909	63	0
28	37502	64	0
28	38095	65	0
28	38688	66	0
28	39281	67	0
28	39874	68	0
28	40467	69	0
28	41060	70	0
28	41653	71	0
28	42246	72	0
28	42839	73	0
28	43432	74	0
28	44025	75	0
28	44618	76	0
28	45211	77	0
28	45804	78	0
28	46397	79	0
28	46990	80	0
28	47583	81	0
28	48176	82	0
28	48769	83	0
28	49362	84	0
28	49955	85	0
28	50548	86	0
28	51141	87	0
28	51734	88	0
28	52327	89	0
28	52920	90	0
28	53513	91	0
28	54106	92	0
28	54699	93	0
28	55292	94	0
28	55885	95	0
28	56478	96	0
28	57071	97	0
28	57664	98	0
28	58257	99	0
28	58850	100	0
29	639	2	0.005625
29	1232	3	0.00625
29	1825	4	0.00625
29	2418	5	0.00625
29	3011	6	0.00625
29	3604	7	0.00625
29	4197	8	0.00625
29	4790	9	0.00625
29	5385	10	0.00625
29	6073	11	0.00658804003
29	6666	12	0.00625
29	7259	13	0.00625
29	7852	14	0.00625
29	8445	15	0.00625
29	9038	16	0.00625
29	9631	17	0.00625
29	10224	18	0.00625
29	10817	19	0.00625
29	11410	20	0.00625
29	12003	21	0.00625
29	12596	22	0.00625
29	13189	23	0.00625
29	13782	24	0.00625
29	14375	25	0.00625
29	14968	26	0.00625
29	15561	27	0.00625
29	16154	28	0.00625
29	16747	29	0.00625
29	17340	30	0.00625
29	17933	31	0.00625
29	18526	32	0.00625
29	19119	33	0.00625
29	19712	34	0.00625
29	20305	35	0.00625
29	20898	36	0.00625
29	21491	37	0.00625
29	22084	38	0.00625
29	22677	39	0.00625
29	23270	40	0.00625
29	23863	41	0.00625
29	24456	42	0.00625
29	25049	43	0.00625
29	25642	44	0.00625
29	26235	45	0.00625
29	26828	46	0.00625
29	27421	47	0.00625
29	28014	48	0.00625
29	28607	49	0.00625
29	29200	50	0.00625
29	29793	51	0.00625
29	30386	52	0.00625
29	30979	53	0.00625
29	31572	54	0.00625
29	32165	55	0.00625
29	32758	56	0.00625
29	33351	57	0.00625
29	33944	58	0.00625
29	34537	59	0.00625
29	35130	60	0.00625
29	35723	61	0.00625
29	36316	62	0.00625
29	36909	63	0.00625
29	37502	64	0.00625
29	38095	65	0.00625
29	38688	66	0.00625
29	39281	67	0.00625
29	39874	68	0.00625
29	40467	69	0.00625
29	41060	70	0.00625
29	41653	71	0.00625
29	42246	72	0.00625
29	42839	73	0.00625
29	43432	74	0.00625
29	44025	75	0.00625
29	44618	76	0.00625
29	45211	77	0.00625
29	45804	78	0.00625
29	46397	79	0.00625
29	46990	80	0.00625
29	47583	81	0.00625
29	48176	82	0.00625
29	48769	83	0.00625
29	49362	84	0.00625
29	49955	85	0.00625
29	50548	86	0.00625
29	51141	87	0.00625
29	51734	88	0.00625
29	52327	89	0.00625
29	52920	90	0.00625
29	53513	91	0.00625
29	54106	92	0.00625
29	54699	93	0.00625
29	55292	94	0.00625
29	55885	95	0.00625
29	56478	96	0.00625
29	57071	97	0.00625
29	57664	98	0.00625
29	58257	99	0.00625
29	58850	100	0.00625
30	639	2	0
30	1232	3	0
30	1825	4	0
30	2418	5	0
30	3011	6	0
30	3604	7	0
30	4197	8	0
30	4790	9	0
30	5385	10	0
30	6073	11	0
30	6666	12	0
30	7259	13	0
30	7852	14	0
30	8445	15	0
30	9038	16	0
30	9631	17	0
30	10224	18	0
30	10817	19	0
30	11410	20	0
30	12003	21	0
30	12596	22	0
30	13189	23	0
30	13782	24	0
30	14375	25	0
30	14968	26	0
30	15561	27	0
30	16154	28	0
30	16747	29	0
30	17340	30	0
30	17933	31	0
30	18526	32	0
30	19119	33	0
30	19712	34	0
30	20305	35	0
30	20898	36	0
30	21491	37	0
30	22084	38	0
30	22677	39	0
30	23270	40	0
30	23863	41	0
30	24456	42	0
30	25049	43	0
30	25642	44	0
30	26235	45	0
30	26828	46	0
30	27421	47	0
30	28014	48	0
30	28607	49	0
30	29200	50	0
30	29793	51	0
30	30386	52	0
30	30979	53	0
30	31572	54	0
30	32165	55	0
30	32758	56	0
30	33351	57	0
30	33944	58	0
30	34537	59	0
30	35130	60	0
30	35723	61	0
30	36316	62	0
30	36909	63	0
30	37502	64	0
30	38095	65	0
30	38688	66	0
30	39281	67	0
30	39874	68	0
30	40467	69	0
30	41060	70	0
30	41653	71	0
30	42246	72	0
30	42839	73	0
30	43432	74	0
30	44025	75	0
30	44618	76	0
30	45211	77	0
30	45804	78	0
30	46397	79	0
30	46990	80	0
30	47583	81	0
30	48176	82	0
30	48769	83	0
30	49362	84	0
30	49955	85	0
30	50548	86	0
30	51141	87	0
30	51734	88	0
30	52327	89	0
30	52920	90	0
30	53513	91	0
30	54106	92	0
30	54699	93	0
30	55292	94	0
30	55885	95	0
30	56478	96	0
30	57071	97	0
30	57664	98	0
30	58257	99	0
30	58850	100	0
31	640	2	1
31	1233	3	1
31	1826	4	1
31	2419	5	1
31	3012	6	1
31	3605	7	1
31	4198	8	1
31	4791	9	1
31	5386	10	1
31	6074	11	1
31	6667	12	1
31	7260	13	1
31	7853	14	1
31	8446	15	1
31	9039	16	1
31	9632	17	1
31	10225	18	1
31	10818	19	1
31	11411	20	1
31	12004	21	1
31	12597	22	1
31	13190	23	1
31	13783	24	1
31	14376	25	1
31	14969	26	1
31	15562	27	1
31	16155	28	1
31	16748	29	1
31	17341	30	1
31	17934	31	1
31	18527	32	1
31	19120	33	1
31	19713	34	1
31	20306	35	1
31	20899	36	1
31	21492	37	1
31	22085	38	1
31	22678	39	1
31	23271	40	1
31	23864	41	1
31	24457	42	1
31	25050	43	1
31	25643	44	1
31	26236	45	1
31	26829	46	1
31	27422	47	1
31	28015	48	1
31	28608	49	1
31	29201	50	1
31	29794	51	1
31	30387	52	1
31	30980	53	1
31	31573	54	1
31	32166	55	1
31	32759	56	1
31	33352	57	1
31	33945	58	1
31	34538	59	1
31	35131	60	1
31	35724	61	1
31	36317	62	1
31	36910	63	1
31	37503	64	1
31	38096	65	1
31	38689	66	1
31	39282	67	1
31	39875	68	1
31	40468	69	1
31	41061	70	1
31	41654	71	1
31	42247	72	1
31	42840	73	1
31	43433	74	1
31	44026	75	1
31	44619	76	1
31	45212	77	1
31	45805	78	1
31	46398	79	1
31	46991	80	1
31	47584	81	1
31	48177	82	1
31	48770	83	1
31	49363	84	1
31	49956	85	1
31	50549	86	1
31	51142	87	1
31	51735	88	1
31	52328	89	1
31	52921	90	1
31	53514	91	1
31	54107	92	1
31	54700	93	1
31	55293	94	1
31	55886	95	1
31	56479	96	1
31	57072	97	1
31	57665	98	1
31	58258	99	1
31	58851	100	1
32	640	2	0.005625
32	1233	3	0.00625
32	1826	4	0.00625
32	2419	5	0.00625
32	3012	6	0.00625
32	3605	7	0.00625
32	4198	8	0.00625
32	4791	9	0.00625
32	5386	10	0.00625
32	6074	11	0.00658704003
32	6667	12	0.00625
32	7260	13	0.00625
32	7853	14	0.00625
32	8446	15	0.00625
32	9039	16	0.00625
32	9632	17	0.00625
32	10225	18	0.00625
32	10818	19	0.00625
32	11411	20	0.00625
32	12004	21	0.00625
32	12597	22	0.00625
32	13190	23	0.00625
32	13783	24	0.00625
32	14376	25	0.00625
32	14969	26	0.00625
32	15562	27	0.00625
32	16155	28	0.00625
32	16748	29	0.00625
32	17341	30	0.00625
32	17934	31	0.00625
32	18527	32	0.00625
32	19120	33	0.00625
32	19713	34	0.00625
32	20306	35	0.00625
32	20899	36	0.00625
32	21492	37	0.00625
32	22085	38	0.00625
32	22678	39	0.00625
32	23271	40	0.00625
32	23864	41	0.00625
32	24457	42	0.00625
32	25050	43	0.00625
32	25643	44	0.00625
32	26236	45	0.00625
32	26829	46	0.00625
32	27422	47	0.00625
32	28015	48	0.00625
32	28608	49	0.00625
32	29201	50	0.00625
32	29794	51	0.00625
32	30387	52	0.00625
32	30980	53	0.00625
32	31573	54	0.00625
32	32166	55	0.00625
32	32759	56	0.00625
32	33352	57	0.00625
32	33945	58	0.00625
32	34538	59	0.00625
32	35131	60	0.00625
32	35724	61	0.00625
32	36317	62	0.00625
32	36910	63	0.00625
32	37503	64	0.00625
32	38096	65	0.00625
32	38689	66	0.00625
32	39282	67	0.00625
32	39875	68	0.00625
32	40468	69	0.00625
32	41061	70	0.00625
32	41654	71	0.00625
32	42247	72	0.00625
32	42840	73	0.00625
32	43433	74	0.00625
32	44026	75	0.00625
32	44619	76	0.00625
32	45212	77	0.00625
32	45805	78	0.00625
32	46398	79	0.00625
32	46991	80	0.00625
32	47584	81	0.00625
32	48177	82	0.00625
32	48770	83	0.00625
32	49363	84	0.00625
32	49956	85	0.00625
32	50549	86	0.00625
32	51142	87	0.00625
32	51735	88	0.00625
32	52328	89	0.00625
32	52921	90	0.00625
32	53514	91	0.00625
32	54107	92	0.00625
32	54700	93	0.00625
32	55293	94	0.00625
32	55886	95	0.00625
32	56479	96	0.00625
32	57072	97	0.00625
32	57665	98	0.00625
32	58258	99	0.00625
32	58851	100	0.00625
33	640	2	0
33	1233	3	0
33	1826	4	0
33	2419	5	0
33	3012	6	0
33	3605	7	0
33	4198	8	0
33	4791	9	0
33	5386	10	0
33	6074	11	0
33	6667	12	0
33	7260	13	0
33	7853	14	0
33	8446	15	0
33	9039	16	0
33	9632	17	0
33	10225	18	0
33	10818	19	0
33	11411	20	0
33	12004	21	0
33	12597	22	0
33	13190	23	0
33	13783	24	0
33	14376	25	0
33	14969	26	0
33	15562	27	0
33	16155	28	0
33	16748	29	0
33	17341	30	0
33	17934	31	0
33	18527	32	0
33	19120	33	0
33	19713	34	0
33	20306	35	0
33	20899	36	0
33	21492	37	0
33	22085	38	0
33	22678	39	0
33	23271	40	0
33	23864	41	0
33	24457	42	0
33	25050	43	0
33	25643	44	0
33	26236	45	0
33	26829	46	0
33	27422	47	0
33	28015	48	0
33	28608	49	0
33	29201	50	0
33	29794	51	0
33	30387	52	0
33	30980	53	0
33	31573	54	0
33	32166	55	0
33	32759	56	0
33	33352	57	0
33	33945	58	0
33	34538	59	0
33	35131	60	0
33	35724	61	0
33	36317	62	0
33	36910	63	0
33	37503	64	0
33	38096	65	0
33	38689	66	0
33	39282	67	0
33	39875	68	0
33	40468	69	0
33	41061	70	0
33	41654	71	0
33	42247	72	0
33	42840	73	0
33	43433	74	0
33	44026	75	0
33	44619	76	0
33	45212	77	0
33	45805	78	0
33	46398	79	0
33	46991	80	0
33	47584	81	0
33	48177	82	0
33	48770	83	0
33	49363	84	0
33	49956	85	0
33	50549	86	0
33	51142	87	0
33	51735	88	0
33	52328	89	0
33	52921	90	0
33	53514	91	0
33	54107	92	0
33	54700	93	0
33	55293	94	0
33	55886	95	0
33	56479	96	0
33	57072	97	0
33	57665	98	0
33	58258	99	0
33	58851	100	0
34	641	2	2
34	1234	3	2
34	1827	4	2
34	2420	5	2
34	3013	6	2
34	3606	7	2
34	4199	8	2
34	4792	9	2
34	5387	10	2
34	6075	11	2
34	6668	12	2
34	7261	13	2
34	7854	14	2
34	8447	15	2
34	9040	16	2
34	9633	17	2
34	10226	18	2
34	10819	19	2
34	11412	20	2
34	12005	21	2
34	12598	22	2
34	13191	23	2
34	13784	24	2
34	14377	25	2
34	14970	26	2
34	15563	27	2
34	16156	28	2
34	16749	29	2
34	17342	30	2
34	17935	31	2
34	18528	32	2
34	19121	33	2
34	19714	34	2
34	20307	35	2
34	20900	36	2
34	21493	37	2
34	22086	38	2
34	22679	39	2
34	23272	40	2
34	23865	41	2
34	24458	42	2
34	25051	43	2
34	25644	44	2
34	26237	45	2
34	26830	46	2
34	27423	47	2
34	28016	48	2
34	28609	49	2
34	29202	50	2
34	29795	51	2
34	30388	52	2
34	30981	53	2
34	31574	54	2
34	32167	55	2
34	32760	56	2
34	33353	57	2
34	33946	58	2
34	34539	59	2
34	35132	60	2
34	35725	61	2
34	36318	62	2
34	36911	63	2
34	37504	64	2
34	38097	65	2
34	38690	66	2
34	39283	67	2
34	39876	68	2
34	40469	69	2
34	41062	70	2
34	41655	71	2
34	42248	72	2
34	42841	73	2
34	43434	74	2
34	44027	75	2
34	44620	76	2
34	45213	77	2
34	45806	78	2
34	46399	79	2
34	46992	80	2
34	47585	81	2
34	48178	82	2
34	48771	83	2
34	49364	84	2
34	49957	85	2
34	50550	86	2
34	51143	87	2
34	51736	88	2
34	52329	89	2
34	52922	90	2
34	53515	91	2
34	54108	92	2
34	54701	93	2
34	55294	94	2
34	55887	95	2
34	56480	96	2
34	57073	97	2
34	57666	98	2
34	58259	99	2
34	58852	100	2
35	641	2	0.002622
35	1234	3	0.003126
35	1827	4	0.003139
35	2420	5	0.003126
35	3013	6	0.003126
35	3606	7	0.003139
35	4199	8	0.003126
35	4792	9	0.003126
35	5387	10	0.003139
35	6075	11	0.003172
35	6668	12	0.003126
35	7261	13	0.003139
35	7854	14	0.003126
35	8447	15	0.003126
35	9040	16	0.003139
35	9633	17	0.003126
35	10226	18	0.003126
35	10819	19	0.003139
35	11412	20	0.003126
35	12005	21	0.003126
35	12598	22	0.003139
35	13191	23	0.003126
35	13784	24	0.003126
35	14377	25	0.003126
35	14970	26	0.003139
35	15563	27	0.003126
35	16156	28	0.003126
35	16749	29	0.003139
35	17342	30	0.003126
35	17935	31	0.003126
35	18528	32	0.003139
35	19121	33	0.003126
35	19714	34	0.003126
35	20307	35	0.003139
35	20900	36	0.003126
35	21493	37	0.003126
35	22086	38	0.003126
35	22679	39	0.003139
35	23272	40	0.003126
35	23865	41	0.003126
35	24458	42	0.003139
35	25051	43	0.003126
35	25644	44	0.003126
35	26237	45	0.003139
35	26830	46	0.003126
35	27423	47	0.003126
35	28016	48	0.003139
35	28609	49	0.003126
35	29202	50	0.003126
35	29795	51	0.003126
35	30388	52	0.003139
35	30981	53	0.003126
35	31574	54	0.003126
35	32167	55	0.003139
35	32760	56	0.003126
35	33353	57	0.003126
35	33946	58	0.003139
35	34539	59	0.003126
35	35132	60	0.003126
35	35725	61	0.003139
35	36318	62	0.003126
35	36911	63	0.003126
35	37504	64	0.003126
35	38097	65	0.003139
35	38690	66	0.003126
35	39283	67	0.003126
35	39876	68	0.003139
35	40469	69	0.003126
35	41062	70	0.003126
35	41655	71	0.003139
35	42248	72	0.003126
35	42841	73	0.003126
35	43434	74	0.003139
35	44027	75	0.003126
35	44620	76	0.003126
35	45213	77	0.003126
35	45806	78	0.003139
35	46399	79	0.003126
35	46992	80	0.003126
35	47585	81	0.003139
35	48178	82	0.003126
35	48771	83	0.003126
35	49364	84	0.003139
35	49957	85	0.003126
35	50550	86	0.003126
35	51143	87	0.003139
35	51736	88	0.003126
35	52329	89	0.003126
35	52922	90	0.003126
35	53515	91	0.003139
35	54108	92	0.003126
35	54701	93	0.003126
35	55294	94	0.003139
35	55887	95	0.003126
35	56480	96	0.003126
35	57073	97	0.003139
35	57666	98	0.003126
35	58259	99	0.003126
35	58852	100	0.003139
36	641	2	0
36	1234	3	0
36	1827	4	0
36	2420	5	0
36	3013	6	0
36	3606	7	0
36	4199	8	0
36	4792	9	0
36	5387	10	0
36	6075	11	0
36	6668	12	0
36	7261	13	0
36	7854	14	0
36	8447	15	0
36	9040	16	0
36	9633	17	0
36	10226	18	0
36	10819	19	0
36	11412	20	0
36	12005	21	0
36	12598	22	0
36	13191	23	0
36	13784	24	0
36	14377	25	0
36	14970	26	0
36	15563	27	0
36	16156	28	0
36	16749	29	0
36	17342	30	0
36	17935	31	0
36	18528	32	0
36	19121	33	0
36	19714	34	0
36	20307	35	0
36	20900	36	0
36	21493	37	0
36	22086	38	0
36	22679	39	0
36	23272	40	0
36	23865	41	0
36	24458	42	0
36	25051	43	0
36	25644	44	0
36	26237	45	0
36	26830	46	0
36	27423	47	0
36	28016	48	0
36	28609	49	0
36	29202	50	0
36	29795	51	0
36	30388	52	0
36	30981	53	0
36	31574	54	0
36	32167	55	0
36	32760	56	0
36	33353	57	0
36	33946	58	0
36	34539	59	0
36	35132	60	0
36	35725	61	0
36	36318	62	0
36	36911	63	0
36	37504	64	0
36	38097	65	0
36	38690	66	0
36	39283	67	0
36	39876	68	0
36	40469	69	0
36	41062	70	0
36	41655	71	0
36	42248	72	0
36	42841	73	0
36	43434	74	0
36	44027	75	0
36	44620	76	0
36	45213	77	0
36	45806	78	0
36	46399	79	0
36	46992	80	0
36	47585	81	0
36	48178	82	0
36	48771	83	0
36	49364	84	0
36	49957	85	0
36	50550	86	0
36	51143	87	0
36	51736	88	0
36	52329	89	0
36	52922	90	0
36	53515	91	0
36	54108	92	0
36	54701	93	0
36	55294	94	0
36	55887	95	0
36	56480	96	0
36	57073	97	0
36	57666	98	0
36	58259	99	0
36	58852	100	0

