version 3
run BreakRanksNoGui-96-20240710-13:40:02-257698
attr configname BreakRanksNoGui
attr datetime 20240710-13:40:02
attr datetimef 20240710-134002
attr experiment BreakRanksNoGui
attr inifile omnetpp.ini
attr iterationvars "$nCars=2, $platoonSize=2, $nLanes=1, $ploegH=0.5, $controller=1, $headway=0.1, $leaderHeadway=1.2, $leaderSpeed=110, $breakRanksSafetyDistance=3, $minSpeed=100, $maxSpeed=120, $beaconInterval=0.1, $priority=4, $packetSize=200, $sController=\"CACC\", $0=2, $1=0"
attr iterationvarsd nCars=2/platoonSize=2/nLanes=1/ploegH=0.5/controller=1/headway=0.1/leaderHeadway=1.2/leaderSpeed=110/breakRanksSafetyDistance=3/minSpeed=100/maxSpeed=120/beaconInterval=0.1/priority=4/packetSize=200/sController=CACC/2/0
attr iterationvarsf nCars=2,platoonSize=2,nLanes=1,ploegH=0.5,controller=1,headway=0.1,leaderHeadway=1.2,leaderSpeed=110,breakRanksSafetyDistance=3,minSpeed=100,maxSpeed=120,beaconInterval=0.1,priority=4,packetSize=200,sController=CACC,2,0-
attr measurement "$nCars=2, $platoonSize=2, $nLanes=1, $ploegH=0.5, $controller=1, $headway=0.1, $leaderHeadway=1.2, $leaderSpeed=110, $breakRanksSafetyDistance=3, $minSpeed=100, $maxSpeed=120, $beaconInterval=0.1, $priority=4, $packetSize=200, $sController=\"CACC\", $0=2, $1=0"
attr network Highway
attr processid 257698
attr repetition 6
attr replication #6
attr resultdir results
attr runnumber 96
attr seedset 6
itervar beaconInterval 0.1
itervar breakRanksSafetyDistance 3
itervar controller 1
itervar headway 0.1
itervar leaderHeadway 1.2
itervar leaderSpeed 110
itervar maxSpeed 120
itervar minSpeed 100
itervar nCars 2
itervar nLanes 1
itervar packetSize 200
itervar platoonSize 2
itervar ploegH 0.5
itervar priority 4
itervar sController "\"CACC\""
config image-path ../../../veins/images
config repeat 10
config extends BreakRanks
config *.manager.command "\"sumo\""
config *.manager.ignoreGuiCommands true
config output-vector-file "results/BreakRanks_1_0.1_110_3_2 /result_6.vec"
config output-scalar-file "results/BreakRanks_1_0.1_110_3_2 /result_6.sca"
config extends Platooning
config *.node[*].scenario_type "\"BreakRanksScenario\""
config *.manager.command "\"sumo-gui\""
config *.node[*].scenario_type "\"SimpleScenario\""
config cmdenv-express-mode true
config cmdenv-autoflush true
config cmdenv-status-frequency 15s
config num-rngs 6
config network Highway
config debug-on-errors true
config print-undisposed true
config *.playgroundSizeX 65000m
config *.playgroundSizeY 25000m
config *.playgroundSizeZ 50m
config sim-time-limit "100 s"
config *.annotations.draw false
config *.obstacles.debug false
config *.world.useTorus false
config *.world.use2D false
config *.manager.updateInterval 0.01s
config *.manager.host "\"localhost\""
config *.manager.moduleType "\"org.car2x.plexe.PlatoonCar\""
config *.manager.moduleName "\"node\""
config *.manager.moduleDisplayString "\"\""
config *.manager.autoShutdown true
config *.manager.margin 25
config *.connectionManager.sendDirect true
config *.connectionManager.maxInterfDist 2600m
config *.connectionManager.drawMaxIntfDist false
config *.**.nic.mac1609_4.useServiceChannel false
config *.**.nic.mac1609_4.txPower 100mW
config *.**.nic.mac1609_4.bitrate 6Mbps
config *.**.nic.mac1609_4.useAcks true
config *.**.nic.mac1609_4.ackErrorRate 0.0
config *.**.nic.mac1609_4.frameErrorRate 0.0
config *.**.nic.phy80211p.minPowerLevel -94dBm
config *.**.nic.phy80211p.maxTXPower 100mW
config *.**.nic.phy80211p.useNoiseFloor true
config *.**.nic.phy80211p.noiseFloor -95dBm
config *.**.nic.phy80211p.decider "xmldoc(\"config.xml\")"
config *.**.nic.phy80211p.analogueModels "xmldoc(\"config.xml\")"
config *.**.nic.phy80211p.usePropagationDelay true
config *.node[*].mobility.x 0
config *.node[*].mobility.y 0
config *.node[*].mobility.z 1.895
config seed-set 6
config **.seed 6
config *.node[*].prot.rng-0 2
config *.node[*].appl.rng-0 3
config *.node[*].scenario.rng-0 4
config **.traffic.rng-0 5
config *.manager.configFile "\"./sumocfg/freeway.sumo.cfg\""
config *.manager.launchConfig "xmldoc(\"./sumocfg/freeway.launchd.xml\")"
config **.numberOfCars 2
config **.numberOfCarsPerPlatoon 2
config **.numberOfLanes 1
config *.node[*].helper_type "\"PositionHelper\""
config *.node[*].scenario.caccC1 0.5
config *.node[*].scenario.caccXi 1
config *.node[*].scenario.caccOmegaN "0.2 Hz"
config *.node[*].scenario.caccSpacing "2 m"
config *.node[*].scenario.engineTau "0.5 s"
config *.node[*].scenario.ploegH 0.5s
config *.node[*].scenario.ploegKp 0.2
config *.node[*].scenario.ploegKd 0.7
config *.node[*].scenario.useRealisticEngine false
config *.node[*].scenario.useControllerAcceleration true
config *.node[*].scenario.nLanes 1
config **.numericController 1
config **.headway 0.1s
config *.node[*].scenario.accHeadway 0.1s
config *.node[*].scenario.leaderHeadway 1.2s
config *.node[*].scenario.leaderSpeed 110kmph
config *.node[*].appl_type "\"SimplePlatooningApp\""
config *.node[*].appl.*.scalar-recording true
config *.node[*].appl.*.vector-recording true
config *.node[0].appl.breakRanksSafetyDistance 3m
config *.node[*].appl.minSpeed 100kmph
config *.node[*].appl.maxSpeed 120kmph
config *.node[*].protocol_type "\"SimplePlatooningBeaconing\""
config *.node[*].prot.*.scalar-recording true
config *.node[*].prot.*.vector-recording true
config *.node[*].prot.beaconingInterval 0.1s
config *.node[*].prot.priority 4
config *.node[*].prot.packetSize 200
config **.traffic_type "\"PlatoonsTrafficManager\""
config **.traffic.platoonInsertTime "1 s"
config **.traffic.platoonInsertSpeed 110kmph
config **.traffic.nCars 2
config **.traffic.platoonSize 2
config **.traffic.nLanes 1
config **.traffic.platooningVType "\"vtypeauto\""
config **.traffic.controller "\"CACC\""
config **.traffic.platoonInsertDistance 2m
config **.traffic.platoonInsertHeadway 0s
config **.traffic.platoonLeaderHeadway 1.2s
config **.scalar-recording false
config **.vector-recording false

vector 0 Highway.node[0].appl distance ETV
vector 1 Highway.node[0].appl relativeSpeed ETV
vector 2 Highway.node[0].appl nodeId ETV
vector 3 Highway.node[0].appl acceleration ETV
vector 4 Highway.node[0].appl controllerAcceleration ETV
vector 5 Highway.node[0].appl speed ETV
vector 6 Highway.node[0].appl posx ETV
vector 7 Highway.node[0].appl posy ETV
vector 8 Highway.node[1].appl distance ETV
vector 9 Highway.node[1].appl relativeSpeed ETV
vector 10 Highway.node[1].appl nodeId ETV
vector 11 Highway.node[1].appl acceleration ETV
vector 12 Highway.node[1].appl controllerAcceleration ETV
vector 13 Highway.node[1].appl speed ETV
vector 14 Highway.node[1].appl posx ETV
vector 15 Highway.node[1].appl posy ETV
vector 16 Highway.node[1].prot leaderDelay ETV
vector 17 Highway.node[1].prot leaderDelayId ETV
vector 18 Highway.node[1].prot frontDelay ETV
vector 19 Highway.node[1].prot frontDelayId ETV
vector 20 Highway.node[0].prot nodeId ETV
vector 21 Highway.node[0].prot busyTime ETV
vector 22 Highway.node[0].prot collisions ETV
vector 23 Highway.node[1].prot nodeId ETV
vector 24 Highway.node[1].prot busyTime ETV
vector 25 Highway.node[1].prot collisions ETV
0	113	1.11	-1
0	161	1.21	-1
0	209	1.31	-1
0	257	1.41	-1
0	305	1.51	-1
0	353	1.61	-1
0	401	1.71	-1
0	449	1.81	-1
0	497	1.91	-1
0	547	2.01	-1
0	595	2.11	-1
0	643	2.21	-1
0	691	2.31	-1
0	739	2.41	-1
0	787	2.51	-1
0	835	2.61	-1
0	883	2.71	-1
0	931	2.81	-1
0	979	2.91	-1
0	1029	3.01	-1
0	1077	3.11	-1
0	1125	3.21	-1
0	1173	3.31	-1
0	1221	3.41	-1
0	1269	3.51	-1
0	1317	3.61	-1
0	1365	3.71	-1
0	1413	3.81	-1
0	1461	3.91	-1
0	1511	4.01	-1
0	1559	4.11	-1
0	1607	4.21	-1
0	1655	4.31	-1
0	1703	4.41	-1
0	1751	4.51	-1
0	1799	4.61	-1
0	1847	4.71	-1
0	1895	4.81	-1
0	1943	4.91	-1
0	1993	5.01	-1
0	2041	5.11	-1
0	2089	5.21	-1
0	2137	5.31	-1
0	2185	5.41	-1
0	2233	5.51	-1
0	2281	5.61	-1
0	2329	5.71	-1
0	2377	5.81	-1
0	2425	5.91	-1
0	2475	6.01	-1
0	2523	6.11	-1
0	2571	6.21	-1
0	2619	6.31	-1
0	2667	6.41	-1
0	2715	6.51	-1
0	2763	6.61	-1
0	2811	6.71	-1
0	2859	6.81	-1
0	2907	6.91	-1
0	2957	7.01	-1
0	3005	7.11	-1
0	3053	7.21	-1
0	3101	7.31	-1
0	3149	7.41	-1
0	3197	7.51	-1
0	3245	7.61	-1
0	3293	7.71	-1
0	3341	7.81	-1
0	3389	7.91	-1
0	3439	8.01	-1
0	3487	8.11	-1
0	3535	8.21	-1
0	3583	8.31	-1
0	3631	8.41	-1
0	3679	8.51	-1
0	3727	8.61	-1
0	3775	8.71	-1
0	3823	8.81	-1
0	3871	8.91	-1
0	3921	9.01	-1
0	3969	9.11	-1
0	4017	9.21	-1
0	4065	9.31	-1
0	4113	9.41	-1
0	4161	9.51	-1
0	4209	9.61	-1
0	4257	9.71	-1
0	4305	9.81	-1
0	4353	9.91	-1
0	4423	10.01	-1
0	4472	10.11	-1
0	4521	10.21	-1
0	4570	10.31	-1
0	4619	10.41	-1
0	4668	10.51	-1
0	4717	10.61	-1
0	4766	10.71	-1
0	4815	10.81	-1
0	4864	10.91	-1
0	4915	11.01	-1
0	4964	11.11	-1
0	5013	11.21	-1
0	5062	11.31	-1
0	5111	11.41	-1
0	5160	11.51	-1
0	5209	11.61	-1
0	5258	11.71	-1
0	5307	11.81	-1
0	5356	11.91	-1
0	5407	12.01	-1
0	5456	12.11	-1
0	5505	12.21	-1
0	5554	12.31	-1
0	5603	12.41	-1
0	5652	12.51	-1
0	5701	12.61	-1
0	5750	12.71	-1
0	5799	12.81	-1
0	5848	12.91	-1
0	5899	13.01	-1
0	5948	13.11	-1
0	5997	13.21	-1
0	6046	13.31	-1
0	6095	13.41	-1
0	6144	13.51	-1
0	6193	13.61	-1
0	6242	13.71	-1
0	6291	13.81	-1
0	6340	13.91	-1
0	6391	14.01	-1
0	6440	14.11	-1
0	6489	14.21	-1
0	6538	14.31	-1
0	6587	14.41	-1
0	6636	14.51	-1
0	6685	14.61	-1
0	6734	14.71	-1
0	6783	14.81	-1
0	6832	14.91	-1
0	6883	15.01	-1
0	6932	15.11	-1
0	6981	15.21	-1
0	7030	15.31	-1
0	7079	15.41	-1
0	7128	15.51	-1
0	7177	15.61	-1
0	7226	15.71	-1
0	7275	15.81	-1
0	7324	15.91	-1
0	7375	16.01	-1
0	7424	16.11	-1
0	7473	16.21	-1
0	7522	16.31	-1
0	7571	16.41	-1
0	7620	16.51	-1
0	7669	16.61	-1
0	7718	16.71	-1
0	7767	16.81	-1
0	7816	16.91	-1
0	7867	17.01	-1
0	7916	17.11	-1
0	7965	17.21	-1
0	8014	17.31	-1
0	8063	17.41	-1
0	8112	17.51	-1
0	8161	17.61	-1
0	8210	17.71	-1
0	8259	17.81	-1
0	8308	17.91	-1
0	8359	18.01	-1
0	8408	18.11	-1
0	8457	18.21	-1
0	8506	18.31	-1
0	8555	18.41	-1
0	8604	18.51	-1
0	8653	18.61	-1
0	8702	18.71	-1
0	8751	18.81	-1
0	8800	18.91	-1
0	8851	19.01	-1
0	8900	19.11	-1
0	8949	19.21	-1
0	8998	19.31	-1
0	9047	19.41	-1
0	9096	19.51	-1
0	9145	19.61	-1
0	9194	19.71	-1
0	9243	19.81	-1
0	9292	19.91	-1
0	9343	20.01	-1
0	9392	20.11	-1
0	9441	20.21	-1
0	9490	20.31	-1
0	9539	20.41	-1
0	9588	20.51	-1
0	9637	20.61	-1
0	9686	20.71	-1
0	9735	20.81	-1
0	9784	20.91	-1
0	9835	21.01	-1
0	9884	21.11	-1
0	9933	21.21	-1
0	9982	21.31	-1
0	10031	21.41	-1
0	10080	21.51	-1
0	10129	21.61	-1
0	10178	21.71	-1
0	10227	21.81	-1
0	10276	21.91	-1
0	10327	22.01	-1
0	10376	22.11	-1
0	10425	22.21	-1
0	10474	22.31	-1
0	10523	22.41	-1
0	10572	22.51	-1
0	10621	22.61	-1
0	10670	22.71	-1
0	10719	22.81	-1
0	10768	22.91	-1
0	10819	23.01	-1
0	10868	23.11	-1
0	10917	23.21	-1
0	10966	23.31	-1
0	11015	23.41	-1
0	11064	23.51	-1
0	11113	23.61	-1
0	11162	23.71	-1
0	11211	23.81	-1
0	11260	23.91	-1
0	11311	24.01	-1
0	11360	24.11	-1
0	11409	24.21	-1
0	11458	24.31	-1
0	11507	24.41	-1
0	11556	24.51	-1
0	11605	24.61	-1
0	11654	24.71	-1
0	11703	24.81	-1
0	11752	24.91	-1
0	11803	25.01	-1
0	11852	25.11	-1
0	11901	25.21	-1
0	11950	25.31	-1
0	11999	25.41	-1
0	12048	25.51	-1
0	12097	25.61	-1
0	12146	25.71	-1
0	12195	25.81	-1
0	12244	25.91	-1
0	12295	26.01	-1
0	12344	26.11	-1
0	12393	26.21	-1
0	12442	26.31	-1
0	12491	26.41	-1
0	12540	26.51	-1
0	12589	26.61	-1
0	12638	26.71	-1
0	12687	26.81	-1
0	12736	26.91	-1
0	12787	27.01	-1
0	12836	27.11	-1
0	12885	27.21	-1
0	12934	27.31	-1
0	12983	27.41	-1
0	13032	27.51	-1
0	13081	27.61	-1
0	13130	27.71	-1
0	13179	27.81	-1
0	13228	27.91	-1
0	13279	28.01	-1
0	13328	28.11	-1
0	13377	28.21	-1
0	13426	28.31	-1
0	13475	28.41	-1
0	13524	28.51	-1
0	13573	28.61	-1
0	13622	28.71	-1
0	13671	28.81	-1
0	13720	28.91	-1
0	13771	29.01	-1
0	13820	29.11	-1
0	13869	29.21	-1
0	13984	29.31	-1
0	14032	29.41	-1
0	14080	29.51	-1
0	14128	29.61	-1
0	14176	29.71	-1
0	14224	29.81	-1
0	14272	29.91	-1
0	14322	30.01	-1
0	14370	30.11	-1
0	14418	30.21	-1
0	14466	30.31	-1
0	14514	30.41	-1
0	14562	30.51	-1
0	14610	30.61	-1
0	14658	30.71	-1
0	14706	30.81	-1
0	14754	30.91	-1
0	14804	31.01	-1
0	14852	31.11	-1
0	14900	31.21	-1
0	14948	31.31	-1
0	14996	31.41	-1
0	15044	31.51	-1
0	15092	31.61	-1
0	15140	31.71	-1
0	15188	31.81	-1
0	15236	31.91	-1
0	15286	32.01	-1
0	15334	32.11	-1
0	15382	32.21	-1
0	15430	32.31	-1
0	15478	32.41	-1
0	15526	32.51	-1
0	15574	32.61	-1
0	15622	32.71	-1
0	15670	32.81	-1
0	15718	32.91	-1
0	15768	33.01	-1
0	15816	33.11	-1
0	15864	33.21	-1
0	15912	33.31	-1
0	15960	33.41	-1
0	16008	33.51	-1
0	16056	33.61	-1
0	16104	33.71	-1
0	16152	33.81	-1
0	16200	33.91	-1
0	16250	34.01	-1
0	16298	34.11	-1
0	16346	34.21	-1
0	16394	34.31	-1
0	16442	34.41	-1
0	16490	34.51	-1
0	16538	34.61	-1
0	16586	34.71	-1
0	16634	34.81	-1
0	16682	34.91	-1
0	16732	35.01	-1
0	16780	35.11	-1
0	16828	35.21	-1
0	16876	35.31	-1
0	16924	35.41	-1
0	16972	35.51	-1
0	17020	35.61	-1
0	17068	35.71	-1
0	17116	35.81	-1
0	17164	35.91	-1
0	17214	36.01	-1
0	17262	36.11	-1
0	17310	36.21	-1
0	17358	36.31	-1
0	17406	36.41	-1
0	17454	36.51	-1
0	17502	36.61	-1
0	17550	36.71	-1
0	17598	36.81	-1
0	17646	36.91	-1
0	17696	37.01	-1
0	17744	37.11	-1
0	17792	37.21	-1
0	17840	37.31	-1
0	17888	37.41	-1
0	17936	37.51	-1
0	17984	37.61	-1
0	18032	37.71	-1
0	18080	37.81	-1
0	18128	37.91	-1
0	18178	38.01	-1
0	18226	38.11	-1
0	18274	38.21	-1
0	18322	38.31	-1
0	18370	38.41	-1
0	18418	38.51	-1
0	18466	38.61	-1
0	18514	38.71	-1
0	18562	38.81	-1
0	18610	38.91	-1
0	18660	39.01	-1
0	18708	39.11	-1
0	18756	39.21	-1
0	18804	39.31	-1
0	18852	39.41	-1
0	18900	39.51	-1
0	18948	39.61	-1
0	18996	39.71	-1
0	19044	39.81	-1
0	19092	39.91	-1
0	19142	40.01	-1
0	19190	40.11	-1
0	19238	40.21	-1
0	19286	40.31	-1
0	19334	40.41	-1
0	19382	40.51	-1
0	19430	40.61	-1
0	19478	40.71	-1
0	19526	40.81	-1
0	19574	40.91	-1
0	19624	41.01	-1
0	19672	41.11	-1
0	19720	41.21	-1
0	19768	41.31	-1
0	19816	41.41	-1
0	19864	41.51	-1
0	19912	41.61	-1
0	19960	41.71	-1
0	20008	41.81	-1
0	20056	41.91	-1
0	20106	42.01	-1
0	20154	42.11	-1
0	20202	42.21	-1
0	20250	42.31	-1
0	20298	42.41	-1
0	20346	42.51	-1
0	20394	42.61	-1
0	20442	42.71	-1
0	20490	42.81	-1
0	20538	42.91	-1
0	20588	43.01	-1
0	20636	43.11	-1
0	20684	43.21	-1
0	20732	43.31	-1
0	20780	43.41	-1
0	20828	43.51	-1
0	20876	43.61	-1
0	20924	43.71	-1
0	20972	43.81	-1
0	21020	43.91	-1
0	21070	44.01	-1
0	21118	44.11	-1
0	21166	44.21	-1
0	21214	44.31	-1
0	21262	44.41	-1
0	21310	44.51	-1
0	21358	44.61	-1
0	21406	44.71	-1
0	21454	44.81	-1
0	21502	44.91	-1
0	21552	45.01	-1
0	21600	45.11	-1
0	21648	45.21	-1
0	21696	45.31	-1
0	21744	45.41	-1
0	21792	45.51	-1
0	21840	45.61	-1
0	21888	45.71	-1
0	21936	45.81	-1
0	21984	45.91	-1
0	22034	46.01	-1
0	22082	46.11	-1
0	22130	46.21	-1
0	22178	46.31	-1
0	22226	46.41	-1
0	22274	46.51	-1
0	22322	46.61	-1
0	22370	46.71	-1
0	22418	46.81	-1
0	22466	46.91	-1
0	22516	47.01	-1
0	22564	47.11	-1
0	22612	47.21	-1
0	22660	47.31	-1
0	22708	47.41	-1
0	22756	47.51	-1
0	22804	47.61	-1
0	22852	47.71	-1
0	22900	47.81	-1
0	22948	47.91	-1
0	22998	48.01	-1
0	23046	48.11	-1
0	23094	48.21	-1
0	23142	48.31	-1
0	23190	48.41	-1
0	23238	48.51	-1
0	23286	48.61	-1
0	23334	48.71	-1
0	23382	48.81	-1
0	23430	48.91	-1
0	23480	49.01	-1
0	23528	49.11	-1
0	23576	49.21	-1
0	23624	49.31	-1
0	23672	49.41	-1
0	23720	49.51	-1
0	23768	49.61	-1
0	23816	49.71	-1
0	23864	49.81	-1
0	23912	49.91	-1
0	23962	50.01	-1
0	24010	50.11	-1
0	24058	50.21	-1
0	24106	50.31	-1
0	24154	50.41	-1
0	24202	50.51	-1
0	24250	50.61	-1
0	24298	50.71	-1
0	24346	50.81	-1
0	24394	50.91	-1
0	24444	51.01	-1
0	24492	51.11	-1
0	24540	51.21	-1
0	24588	51.31	-1
0	24636	51.41	-1
0	24684	51.51	-1
0	24732	51.61	-1
0	24780	51.71	-1
0	24828	51.81	-1
0	24876	51.91	-1
0	24926	52.01	-1
0	24974	52.11	-1
0	25022	52.21	-1
0	25070	52.31	-1
0	25118	52.41	-1
0	25166	52.51	-1
0	25214	52.61	-1
0	25262	52.71	-1
0	25310	52.81	-1
0	25358	52.91	-1
0	25408	53.01	-1
0	25456	53.11	-1
0	25504	53.21	-1
0	25552	53.31	-1
0	25600	53.41	-1
0	25648	53.51	-1
0	25696	53.61	-1
0	25744	53.71	-1
0	25792	53.81	-1
0	25840	53.91	-1
0	25890	54.01	-1
0	25938	54.11	-1
0	25986	54.21	-1
0	26034	54.31	-1
0	26082	54.41	-1
0	26130	54.51	-1
0	26178	54.61	-1
0	26226	54.71	-1
0	26274	54.81	-1
0	26322	54.91	-1
0	26372	55.01	-1
0	26420	55.11	-1
0	26468	55.21	-1
0	26516	55.31	-1
0	26564	55.41	-1
0	26612	55.51	-1
0	26660	55.61	-1
0	26708	55.71	-1
0	26756	55.81	-1
0	26804	55.91	-1
0	26854	56.01	-1
0	26902	56.11	-1
0	26950	56.21	-1
0	26998	56.31	-1
0	27046	56.41	-1
0	27094	56.51	-1
0	27142	56.61	-1
0	27190	56.71	-1
0	27238	56.81	-1
0	27286	56.91	-1
0	27336	57.01	-1
0	27384	57.11	-1
0	27432	57.21	-1
0	27480	57.31	-1
0	27528	57.41	-1
0	27576	57.51	-1
0	27624	57.61	-1
0	27672	57.71	-1
0	27720	57.81	-1
0	27768	57.91	-1
0	27818	58.01	-1
0	27866	58.11	-1
0	27914	58.21	-1
0	27962	58.31	-1
0	28010	58.41	-1
0	28058	58.51	-1
0	28106	58.61	-1
0	28154	58.71	-1
0	28202	58.81	-1
0	28250	58.91	-1
0	28300	59.01	-1
0	28348	59.11	-1
0	28396	59.21	-1
0	28444	59.31	-1
0	28492	59.41	-1
0	28540	59.51	-1
0	28588	59.61	-1
0	28636	59.71	-1
0	28684	59.81	-1
0	28732	59.91	-1
0	28782	60.01	-1
0	28830	60.11	-1
0	28878	60.21	-1
0	28926	60.31	-1
0	28974	60.41	-1
0	29022	60.51	-1
0	29070	60.61	-1
0	29118	60.71	-1
0	29166	60.81	-1
0	29214	60.91	-1
0	29264	61.01	-1
0	29312	61.11	-1
0	29360	61.21	-1
0	29408	61.31	-1
0	29456	61.41	-1
0	29504	61.51	-1
0	29552	61.61	-1
0	29600	61.71	-1
0	29648	61.81	-1
0	29696	61.91	-1
0	29746	62.01	-1
0	29794	62.11	-1
0	29842	62.21	-1
0	29890	62.31	-1
0	29938	62.41	-1
0	29986	62.51	-1
0	30034	62.61	-1
0	30082	62.71	-1
0	30130	62.81	-1
0	30178	62.91	-1
0	30228	63.01	-1
0	30276	63.11	-1
0	30324	63.21	-1
0	30372	63.31	-1
0	30420	63.41	-1
0	30468	63.51	-1
0	30516	63.61	-1
0	30564	63.71	-1
0	30612	63.81	-1
0	30660	63.91	-1
0	30710	64.01	-1
0	30758	64.11	-1
0	30806	64.21	-1
0	30854	64.31	-1
0	30902	64.41	-1
0	30950	64.51	-1
0	30998	64.61	-1
0	31046	64.71	-1
0	31094	64.81	-1
0	31142	64.91	-1
0	31192	65.01	-1
0	31240	65.11	-1
0	31288	65.21	-1
0	31336	65.31	-1
0	31384	65.41	-1
0	31432	65.51	-1
0	31480	65.61	-1
0	31528	65.71	-1
0	31576	65.81	-1
0	31624	65.91	-1
0	31674	66.01	-1
0	31722	66.11	-1
0	31770	66.21	-1
0	31818	66.31	-1
0	31866	66.41	-1
0	31914	66.51	-1
0	31962	66.61	-1
0	32010	66.71	-1
0	32058	66.81	-1
0	32106	66.91	-1
0	32156	67.01	-1
0	32204	67.11	-1
0	32252	67.21	-1
0	32300	67.31	-1
0	32348	67.41	-1
0	32396	67.51	-1
0	32444	67.61	-1
0	32492	67.71	-1
0	32540	67.81	-1
0	32588	67.91	-1
0	32638	68.01	-1
0	32686	68.11	-1
0	32734	68.21	-1
0	32782	68.31	-1
0	32830	68.41	-1
0	32878	68.51	-1
0	32926	68.61	-1
0	32974	68.71	-1
0	33022	68.81	-1
0	33070	68.91	-1
0	33120	69.01	-1
0	33168	69.11	-1
0	33216	69.21	-1
0	33264	69.31	-1
0	33312	69.41	-1
0	33360	69.51	-1
0	33408	69.61	-1
0	33456	69.71	-1
0	33504	69.81	-1
0	33552	69.91	-1
0	33602	70.01	-1
0	33650	70.11	-1
0	33698	70.21	-1
0	33746	70.31	-1
0	33794	70.41	-1
0	33842	70.51	-1
0	33890	70.61	-1
0	33938	70.71	-1
0	33986	70.81	-1
0	34034	70.91	-1
0	34084	71.01	-1
0	34132	71.11	-1
0	34180	71.21	-1
0	34228	71.31	-1
0	34276	71.41	-1
0	34324	71.51	-1
0	34372	71.61	-1
0	34420	71.71	-1
0	34468	71.81	-1
0	34516	71.91	-1
0	34566	72.01	-1
0	34614	72.11	-1
0	34662	72.21	-1
0	34710	72.31	-1
0	34758	72.41	-1
0	34806	72.51	-1
0	34854	72.61	-1
0	34902	72.71	-1
0	34950	72.81	-1
0	34998	72.91	-1
0	35048	73.01	-1
0	35096	73.11	-1
0	35144	73.21	-1
0	35192	73.31	-1
0	35240	73.41	-1
0	35288	73.51	-1
0	35336	73.61	-1
0	35384	73.71	-1
0	35432	73.81	-1
0	35480	73.91	-1
0	35530	74.01	-1
0	35578	74.11	-1
0	35626	74.21	-1
0	35674	74.31	-1
0	35722	74.41	-1
0	35770	74.51	-1
0	35818	74.61	-1
0	35866	74.71	-1
0	35914	74.81	-1
0	35962	74.91	-1
0	36012	75.01	-1
0	36060	75.11	-1
0	36108	75.21	-1
0	36156	75.31	-1
0	36204	75.41	-1
0	36252	75.51	-1
0	36300	75.61	-1
0	36348	75.71	-1
0	36396	75.81	-1
0	36444	75.91	-1
0	36494	76.01	-1
0	36542	76.11	-1
0	36590	76.21	-1
0	36638	76.31	-1
0	36686	76.41	-1
0	36734	76.51	-1
0	36782	76.61	-1
0	36830	76.71	-1
0	36878	76.81	-1
0	36926	76.91	-1
0	36976	77.01	-1
0	37024	77.11	-1
0	37072	77.21	-1
0	37120	77.31	-1
0	37168	77.41	-1
0	37216	77.51	-1
0	37264	77.61	-1
0	37312	77.71	-1
0	37360	77.81	-1
0	37408	77.91	-1
0	37458	78.01	-1
0	37506	78.11	-1
0	37554	78.21	-1
0	37602	78.31	-1
0	37650	78.41	-1
0	37698	78.51	-1
0	37746	78.61	-1
0	37794	78.71	-1
0	37842	78.81	-1
0	37890	78.91	-1
0	37940	79.01	-1
0	37988	79.11	-1
0	38036	79.21	-1
0	38084	79.31	-1
0	38132	79.41	-1
0	38180	79.51	-1
0	38228	79.61	-1
0	38276	79.71	-1
0	38324	79.81	-1
0	38372	79.91	-1
0	38422	80.01	-1
0	38470	80.11	-1
0	38518	80.21	-1
0	38566	80.31	-1
0	38614	80.41	-1
0	38662	80.51	-1
0	38710	80.61	-1
0	38758	80.71	-1
0	38806	80.81	-1
0	38854	80.91	-1
0	38904	81.01	-1
0	38952	81.11	-1
0	39000	81.21	-1
0	39048	81.31	-1
0	39096	81.41	-1
0	39144	81.51	-1
0	39192	81.61	-1
0	39240	81.71	-1
0	39288	81.81	-1
0	39336	81.91	-1
0	39386	82.01	-1
0	39434	82.11	-1
0	39482	82.21	-1
0	39530	82.31	-1
0	39578	82.41	-1
0	39626	82.51	-1
0	39674	82.61	-1
0	39722	82.71	-1
0	39770	82.81	-1
0	39818	82.91	-1
0	39868	83.01	-1
0	39916	83.11	-1
0	39964	83.21	-1
0	40012	83.31	-1
0	40060	83.41	-1
0	40108	83.51	-1
0	40156	83.61	-1
0	40204	83.71	-1
0	40252	83.81	-1
0	40300	83.91	-1
0	40350	84.01	-1
0	40398	84.11	-1
0	40446	84.21	-1
0	40494	84.31	-1
0	40542	84.41	-1
0	40590	84.51	-1
0	40638	84.61	-1
0	40686	84.71	-1
0	40734	84.81	-1
0	40782	84.91	-1
0	40832	85.01	-1
0	40880	85.11	-1
0	40928	85.21	-1
0	40976	85.31	-1
0	41024	85.41	-1
0	41072	85.51	-1
0	41120	85.61	-1
0	41168	85.71	-1
0	41216	85.81	-1
0	41264	85.91	-1
0	41314	86.01	-1
0	41362	86.11	-1
0	41410	86.21	-1
0	41458	86.31	-1
0	41506	86.41	-1
0	41554	86.51	-1
0	41602	86.61	-1
0	41650	86.71	-1
0	41698	86.81	-1
0	41746	86.91	-1
0	41796	87.01	-1
0	41844	87.11	-1
0	41892	87.21	-1
0	41940	87.31	-1
0	41988	87.41	-1
0	42036	87.51	-1
0	42084	87.61	-1
0	42132	87.71	-1
0	42180	87.81	-1
0	42228	87.91	-1
0	42278	88.01	-1
0	42326	88.11	-1
0	42374	88.21	-1
0	42422	88.31	-1
0	42470	88.41	-1
0	42518	88.51	-1
0	42566	88.61	-1
0	42614	88.71	-1
0	42662	88.81	-1
0	42710	88.91	-1
0	42760	89.01	-1
0	42808	89.11	-1
0	42856	89.21	-1
0	42904	89.31	-1
0	42952	89.41	-1
0	43000	89.51	-1
0	43048	89.61	-1
0	43096	89.71	-1
0	43144	89.81	-1
0	43192	89.91	-1
0	43242	90.01	-1
0	43290	90.11	-1
0	43338	90.21	-1
0	43386	90.31	-1
0	43434	90.41	-1
0	43482	90.51	-1
0	43530	90.61	-1
0	43578	90.71	-1
0	43626	90.81	-1
0	43674	90.91	-1
0	43724	91.01	-1
0	43772	91.11	-1
0	43820	91.21	-1
0	43868	91.31	-1
0	43916	91.41	-1
0	43964	91.51	-1
0	44012	91.61	-1
0	44060	91.71	-1
0	44108	91.81	-1
0	44156	91.91	-1
0	44206	92.01	-1
0	44254	92.11	-1
0	44302	92.21	-1
0	44350	92.31	-1
0	44398	92.41	-1
0	44446	92.51	-1
0	44494	92.61	-1
0	44542	92.71	-1
0	44590	92.81	-1
0	44638	92.91	-1
0	44688	93.01	-1
0	44736	93.11	-1
0	44784	93.21	-1
0	44832	93.31	-1
0	44880	93.41	-1
0	44928	93.51	-1
0	44976	93.61	-1
0	45024	93.71	-1
0	45072	93.81	-1
0	45120	93.91	-1
0	45170	94.01	-1
0	45218	94.11	-1
0	45266	94.21	-1
0	45314	94.31	-1
0	45362	94.41	-1
0	45410	94.51	-1
0	45458	94.61	-1
0	45506	94.71	-1
0	45554	94.81	-1
0	45602	94.91	-1
0	45652	95.01	-1
0	45700	95.11	-1
0	45748	95.21	-1
0	45796	95.31	-1
0	45844	95.41	-1
0	45892	95.51	-1
0	45940	95.61	-1
0	45988	95.71	-1
0	46036	95.81	-1
0	46084	95.91	-1
0	46134	96.01	-1
0	46182	96.11	-1
0	46230	96.21	-1
0	46278	96.31	-1
0	46326	96.41	-1
0	46374	96.51	-1
0	46422	96.61	-1
0	46470	96.71	-1
0	46518	96.81	-1
0	46566	96.91	-1
0	46616	97.01	-1
0	46664	97.11	-1
0	46712	97.21	-1
0	46760	97.31	-1
0	46808	97.41	-1
0	46856	97.51	-1
0	46904	97.61	-1
0	46952	97.71	-1
0	47000	97.81	-1
0	47048	97.91	-1
0	47098	98.01	-1
0	47146	98.11	-1
0	47194	98.21	-1
0	47242	98.31	-1
0	47290	98.41	-1
0	47338	98.51	-1
0	47386	98.61	-1
0	47434	98.71	-1
0	47482	98.81	-1
0	47530	98.91	-1
0	47580	99.01	-1
0	47628	99.11	-1
0	47676	99.21	-1
0	47724	99.31	-1
0	47772	99.41	-1
0	47820	99.51	-1
0	47868	99.61	-1
0	47916	99.71	-1
0	47964	99.81	-1
0	48012	99.91	-1
1	113	1.11	0
1	161	1.21	0
1	209	1.31	0
1	257	1.41	0
1	305	1.51	0
1	353	1.61	0
1	401	1.71	0
1	449	1.81	0
1	497	1.91	0
1	547	2.01	0
1	595	2.11	0
1	643	2.21	0
1	691	2.31	0
1	739	2.41	0
1	787	2.51	0
1	835	2.61	0
1	883	2.71	0
1	931	2.81	0
1	979	2.91	0
1	1029	3.01	0
1	1077	3.11	0
1	1125	3.21	0
1	1173	3.31	0
1	1221	3.41	0
1	1269	3.51	0
1	1317	3.61	0
1	1365	3.71	0
1	1413	3.81	0
1	1461	3.91	0
1	1511	4.01	0
1	1559	4.11	0
1	1607	4.21	0
1	1655	4.31	0
1	1703	4.41	0
1	1751	4.51	0
1	1799	4.61	0
1	1847	4.71	0
1	1895	4.81	0
1	1943	4.91	0
1	1993	5.01	0
1	2041	5.11	0
1	2089	5.21	0
1	2137	5.31	0
1	2185	5.41	0
1	2233	5.51	0
1	2281	5.61	0
1	2329	5.71	0
1	2377	5.81	0
1	2425	5.91	0
1	2475	6.01	0
1	2523	6.11	0
1	2571	6.21	0
1	2619	6.31	0
1	2667	6.41	0
1	2715	6.51	0
1	2763	6.61	0
1	2811	6.71	0
1	2859	6.81	0
1	2907	6.91	0
1	2957	7.01	0
1	3005	7.11	0
1	3053	7.21	0
1	3101	7.31	0
1	3149	7.41	0
1	3197	7.51	0
1	3245	7.61	0
1	3293	7.71	0
1	3341	7.81	0
1	3389	7.91	0
1	3439	8.01	0
1	3487	8.11	0
1	3535	8.21	0
1	3583	8.31	0
1	3631	8.41	0
1	3679	8.51	0
1	3727	8.61	0
1	3775	8.71	0
1	3823	8.81	0
1	3871	8.91	0
1	3921	9.01	0
1	3969	9.11	0
1	4017	9.21	0
1	4065	9.31	0
1	4113	9.41	0
1	4161	9.51	0
1	4209	9.61	0
1	4257	9.71	0
1	4305	9.81	0
1	4353	9.91	0
1	4423	10.01	0
1	4472	10.11	0
1	4521	10.21	0
1	4570	10.31	0
1	4619	10.41	0
1	4668	10.51	0
1	4717	10.61	0
1	4766	10.71	0
1	4815	10.81	0
1	4864	10.91	0
1	4915	11.01	0
1	4964	11.11	0
1	5013	11.21	0
1	5062	11.31	0
1	5111	11.41	0
1	5160	11.51	0
1	5209	11.61	0
1	5258	11.71	0
1	5307	11.81	0
1	5356	11.91	0
1	5407	12.01	0
1	5456	12.11	0
1	5505	12.21	0
1	5554	12.31	0
1	5603	12.41	0
1	5652	12.51	0
1	5701	12.61	0
1	5750	12.71	0
1	5799	12.81	0
1	5848	12.91	0
1	5899	13.01	0
1	5948	13.11	0
1	5997	13.21	0
1	6046	13.31	0
1	6095	13.41	0
1	6144	13.51	0
1	6193	13.61	0
1	6242	13.71	0
1	6291	13.81	0
1	6340	13.91	0
1	6391	14.01	0
1	6440	14.11	0
1	6489	14.21	0
1	6538	14.31	0
1	6587	14.41	0
1	6636	14.51	0
1	6685	14.61	0
1	6734	14.71	0
1	6783	14.81	0
1	6832	14.91	0
1	6883	15.01	0
1	6932	15.11	0
1	6981	15.21	0
1	7030	15.31	0
1	7079	15.41	0
1	7128	15.51	0
1	7177	15.61	0
1	7226	15.71	0
1	7275	15.81	0
1	7324	15.91	0
1	7375	16.01	0
1	7424	16.11	0
1	7473	16.21	0
1	7522	16.31	0
1	7571	16.41	0
1	7620	16.51	0
1	7669	16.61	0
1	7718	16.71	0
1	7767	16.81	0
1	7816	16.91	0
1	7867	17.01	0
1	7916	17.11	0
1	7965	17.21	0
1	8014	17.31	0
1	8063	17.41	0
1	8112	17.51	0
1	8161	17.61	0
1	8210	17.71	0
1	8259	17.81	0
1	8308	17.91	0
1	8359	18.01	0
1	8408	18.11	0
1	8457	18.21	0
1	8506	18.31	0
1	8555	18.41	0
1	8604	18.51	0
1	8653	18.61	0
1	8702	18.71	0
1	8751	18.81	0
1	8800	18.91	0
1	8851	19.01	0
1	8900	19.11	0
1	8949	19.21	0
1	8998	19.31	0
1	9047	19.41	0
1	9096	19.51	0
1	9145	19.61	0
1	9194	19.71	0
1	9243	19.81	0
1	9292	19.91	0
1	9343	20.01	0
1	9392	20.11	0
1	9441	20.21	0
1	9490	20.31	0
1	9539	20.41	0
1	9588	20.51	0
1	9637	20.61	0
1	9686	20.71	0
1	9735	20.81	0
1	9784	20.91	0
1	9835	21.01	0
1	9884	21.11	0
1	9933	21.21	0
1	9982	21.31	0
1	10031	21.41	0
1	10080	21.51	0
1	10129	21.61	0
1	10178	21.71	0
1	10227	21.81	0
1	10276	21.91	0
1	10327	22.01	0
1	10376	22.11	0
1	10425	22.21	0
1	10474	22.31	0
1	10523	22.41	0
1	10572	22.51	0
1	10621	22.61	0
1	10670	22.71	0
1	10719	22.81	0
1	10768	22.91	0
1	10819	23.01	0
1	10868	23.11	0
1	10917	23.21	0
1	10966	23.31	0
1	11015	23.41	0
1	11064	23.51	0
1	11113	23.61	0
1	11162	23.71	0
1	11211	23.81	0
1	11260	23.91	0
1	11311	24.01	0
1	11360	24.11	0
1	11409	24.21	0
1	11458	24.31	0
1	11507	24.41	0
1	11556	24.51	0
1	11605	24.61	0
1	11654	24.71	0
1	11703	24.81	0
1	11752	24.91	0
1	11803	25.01	0
1	11852	25.11	0
1	11901	25.21	0
1	11950	25.31	0
1	11999	25.41	0
1	12048	25.51	0
1	12097	25.61	0
1	12146	25.71	0
1	12195	25.81	0
1	12244	25.91	0
1	12295	26.01	0
1	12344	26.11	0
1	12393	26.21	0
1	12442	26.31	0
1	12491	26.41	0
1	12540	26.51	0
1	12589	26.61	0
1	12638	26.71	0
1	12687	26.81	0
1	12736	26.91	0
1	12787	27.01	0
1	12836	27.11	0
1	12885	27.21	0
1	12934	27.31	0
1	12983	27.41	0
1	13032	27.51	0
1	13081	27.61	0
1	13130	27.71	0
1	13179	27.81	0
1	13228	27.91	0
1	13279	28.01	0
1	13328	28.11	0
1	13377	28.21	0
1	13426	28.31	0
1	13475	28.41	0
1	13524	28.51	0
1	13573	28.61	0
1	13622	28.71	0
1	13671	28.81	0
1	13720	28.91	0
1	13771	29.01	0
1	13820	29.11	0
1	13869	29.21	0
1	13984	29.31	0
1	14032	29.41	0
1	14080	29.51	0
1	14128	29.61	0
1	14176	29.71	0
1	14224	29.81	0
1	14272	29.91	0
1	14322	30.01	0
1	14370	30.11	0
1	14418	30.21	0
1	14466	30.31	0
1	14514	30.41	0
1	14562	30.51	0
1	14610	30.61	0
1	14658	30.71	0
1	14706	30.81	0
1	14754	30.91	0
1	14804	31.01	0
1	14852	31.11	0
1	14900	31.21	0
1	14948	31.31	0
1	14996	31.41	0
1	15044	31.51	0
1	15092	31.61	0
1	15140	31.71	0
1	15188	31.81	0
1	15236	31.91	0
1	15286	32.01	0
1	15334	32.11	0
1	15382	32.21	0
1	15430	32.31	0
1	15478	32.41	0
1	15526	32.51	0
1	15574	32.61	0
1	15622	32.71	0
1	15670	32.81	0
1	15718	32.91	0
1	15768	33.01	0
1	15816	33.11	0
1	15864	33.21	0
1	15912	33.31	0
1	15960	33.41	0
1	16008	33.51	0
1	16056	33.61	0
1	16104	33.71	0
1	16152	33.81	0
1	16200	33.91	0
1	16250	34.01	0
1	16298	34.11	0
1	16346	34.21	0
1	16394	34.31	0
1	16442	34.41	0
1	16490	34.51	0
1	16538	34.61	0
1	16586	34.71	0
1	16634	34.81	0
1	16682	34.91	0
1	16732	35.01	0
1	16780	35.11	0
1	16828	35.21	0
1	16876	35.31	0
1	16924	35.41	0
1	16972	35.51	0
1	17020	35.61	0
1	17068	35.71	0
1	17116	35.81	0
1	17164	35.91	0
1	17214	36.01	0
1	17262	36.11	0
1	17310	36.21	0
1	17358	36.31	0
1	17406	36.41	0
1	17454	36.51	0
1	17502	36.61	0
1	17550	36.71	0
1	17598	36.81	0
1	17646	36.91	0
1	17696	37.01	0
1	17744	37.11	0
1	17792	37.21	0
1	17840	37.31	0
1	17888	37.41	0
1	17936	37.51	0
1	17984	37.61	0
1	18032	37.71	0
1	18080	37.81	0
1	18128	37.91	0
1	18178	38.01	0
1	18226	38.11	0
1	18274	38.21	0
1	18322	38.31	0
1	18370	38.41	0
1	18418	38.51	0
1	18466	38.61	0
1	18514	38.71	0
1	18562	38.81	0
1	18610	38.91	0
1	18660	39.01	0
1	18708	39.11	0
1	18756	39.21	0
1	18804	39.31	0
1	18852	39.41	0
1	18900	39.51	0
1	18948	39.61	0
1	18996	39.71	0
1	19044	39.81	0
1	19092	39.91	0
1	19142	40.01	0
1	19190	40.11	0
1	19238	40.21	0
1	19286	40.31	0
1	19334	40.41	0
1	19382	40.51	0
1	19430	40.61	0
1	19478	40.71	0
1	19526	40.81	0
1	19574	40.91	0
1	19624	41.01	0
1	19672	41.11	0
1	19720	41.21	0
1	19768	41.31	0
1	19816	41.41	0
1	19864	41.51	0
1	19912	41.61	0
1	19960	41.71	0
1	20008	41.81	0
1	20056	41.91	0
1	20106	42.01	0
1	20154	42.11	0
1	20202	42.21	0
1	20250	42.31	0
1	20298	42.41	0
1	20346	42.51	0
1	20394	42.61	0
1	20442	42.71	0
1	20490	42.81	0
1	20538	42.91	0
1	20588	43.01	0
1	20636	43.11	0
1	20684	43.21	0
1	20732	43.31	0
1	20780	43.41	0
1	20828	43.51	0
1	20876	43.61	0
1	20924	43.71	0
1	20972	43.81	0
1	21020	43.91	0
1	21070	44.01	0
1	21118	44.11	0
1	21166	44.21	0
1	21214	44.31	0
1	21262	44.41	0
1	21310	44.51	0
1	21358	44.61	0
1	21406	44.71	0
1	21454	44.81	0
1	21502	44.91	0
1	21552	45.01	0
1	21600	45.11	0
1	21648	45.21	0
1	21696	45.31	0
1	21744	45.41	0
1	21792	45.51	0
1	21840	45.61	0
1	21888	45.71	0
1	21936	45.81	0
1	21984	45.91	0
1	22034	46.01	0
1	22082	46.11	0
1	22130	46.21	0
1	22178	46.31	0
1	22226	46.41	0
1	22274	46.51	0
1	22322	46.61	0
1	22370	46.71	0
1	22418	46.81	0
1	22466	46.91	0
1	22516	47.01	0
1	22564	47.11	0
1	22612	47.21	0
1	22660	47.31	0
1	22708	47.41	0
1	22756	47.51	0
1	22804	47.61	0
1	22852	47.71	0
1	22900	47.81	0
1	22948	47.91	0
1	22998	48.01	0
1	23046	48.11	0
1	23094	48.21	0
1	23142	48.31	0
1	23190	48.41	0
1	23238	48.51	0
1	23286	48.61	0
1	23334	48.71	0
1	23382	48.81	0
1	23430	48.91	0
1	23480	49.01	0
1	23528	49.11	0
1	23576	49.21	0
1	23624	49.31	0
1	23672	49.41	0
1	23720	49.51	0
1	23768	49.61	0
1	23816	49.71	0
1	23864	49.81	0
1	23912	49.91	0
1	23962	50.01	0
1	24010	50.11	0
1	24058	50.21	0
1	24106	50.31	0
1	24154	50.41	0
1	24202	50.51	0
1	24250	50.61	0
1	24298	50.71	0
1	24346	50.81	0
1	24394	50.91	0
1	24444	51.01	0
1	24492	51.11	0
1	24540	51.21	0
1	24588	51.31	0
1	24636	51.41	0
1	24684	51.51	0
1	24732	51.61	0
1	24780	51.71	0
1	24828	51.81	0
1	24876	51.91	0
1	24926	52.01	0
1	24974	52.11	0
1	25022	52.21	0
1	25070	52.31	0
1	25118	52.41	0
1	25166	52.51	0
1	25214	52.61	0
1	25262	52.71	0
1	25310	52.81	0
1	25358	52.91	0
1	25408	53.01	0
1	25456	53.11	0
1	25504	53.21	0
1	25552	53.31	0
1	25600	53.41	0
1	25648	53.51	0
1	25696	53.61	0
1	25744	53.71	0
1	25792	53.81	0
1	25840	53.91	0
1	25890	54.01	0
1	25938	54.11	0
1	25986	54.21	0
1	26034	54.31	0
1	26082	54.41	0
1	26130	54.51	0
1	26178	54.61	0
1	26226	54.71	0
1	26274	54.81	0
1	26322	54.91	0
1	26372	55.01	0
1	26420	55.11	0
1	26468	55.21	0
1	26516	55.31	0
1	26564	55.41	0
1	26612	55.51	0
1	26660	55.61	0
1	26708	55.71	0
1	26756	55.81	0
1	26804	55.91	0
1	26854	56.01	0
1	26902	56.11	0
1	26950	56.21	0
1	26998	56.31	0
1	27046	56.41	0
1	27094	56.51	0
1	27142	56.61	0
1	27190	56.71	0
1	27238	56.81	0
1	27286	56.91	0
1	27336	57.01	0
1	27384	57.11	0
1	27432	57.21	0
1	27480	57.31	0
1	27528	57.41	0
1	27576	57.51	0
1	27624	57.61	0
1	27672	57.71	0
1	27720	57.81	0
1	27768	57.91	0
1	27818	58.01	0
1	27866	58.11	0
1	27914	58.21	0
1	27962	58.31	0
1	28010	58.41	0
1	28058	58.51	0
1	28106	58.61	0
1	28154	58.71	0
1	28202	58.81	0
1	28250	58.91	0
1	28300	59.01	0
1	28348	59.11	0
1	28396	59.21	0
1	28444	59.31	0
1	28492	59.41	0
1	28540	59.51	0
1	28588	59.61	0
1	28636	59.71	0
1	28684	59.81	0
1	28732	59.91	0
1	28782	60.01	0
1	28830	60.11	0
1	28878	60.21	0
1	28926	60.31	0
1	28974	60.41	0
1	29022	60.51	0
1	29070	60.61	0
1	29118	60.71	0
1	29166	60.81	0
1	29214	60.91	0
1	29264	61.01	0
1	29312	61.11	0
1	29360	61.21	0
1	29408	61.31	0
1	29456	61.41	0
1	29504	61.51	0
1	29552	61.61	0
1	29600	61.71	0
1	29648	61.81	0
1	29696	61.91	0
1	29746	62.01	0
1	29794	62.11	0
1	29842	62.21	0
1	29890	62.31	0
1	29938	62.41	0
1	29986	62.51	0
1	30034	62.61	0
1	30082	62.71	0
1	30130	62.81	0
1	30178	62.91	0
1	30228	63.01	0
1	30276	63.11	0
1	30324	63.21	0
1	30372	63.31	0
1	30420	63.41	0
1	30468	63.51	0
1	30516	63.61	0
1	30564	63.71	0
1	30612	63.81	0
1	30660	63.91	0
1	30710	64.01	0
1	30758	64.11	0
1	30806	64.21	0
1	30854	64.31	0
1	30902	64.41	0
1	30950	64.51	0
1	30998	64.61	0
1	31046	64.71	0
1	31094	64.81	0
1	31142	64.91	0
1	31192	65.01	0
1	31240	65.11	0
1	31288	65.21	0
1	31336	65.31	0
1	31384	65.41	0
1	31432	65.51	0
1	31480	65.61	0
1	31528	65.71	0
1	31576	65.81	0
1	31624	65.91	0
1	31674	66.01	0
1	31722	66.11	0
1	31770	66.21	0
1	31818	66.31	0
1	31866	66.41	0
1	31914	66.51	0
1	31962	66.61	0
1	32010	66.71	0
1	32058	66.81	0
1	32106	66.91	0
1	32156	67.01	0
1	32204	67.11	0
1	32252	67.21	0
1	32300	67.31	0
1	32348	67.41	0
1	32396	67.51	0
1	32444	67.61	0
1	32492	67.71	0
1	32540	67.81	0
1	32588	67.91	0
1	32638	68.01	0
1	32686	68.11	0
1	32734	68.21	0
1	32782	68.31	0
1	32830	68.41	0
1	32878	68.51	0
1	32926	68.61	0
1	32974	68.71	0
1	33022	68.81	0
1	33070	68.91	0
1	33120	69.01	0
1	33168	69.11	0
1	33216	69.21	0
1	33264	69.31	0
1	33312	69.41	0
1	33360	69.51	0
1	33408	69.61	0
1	33456	69.71	0
1	33504	69.81	0
1	33552	69.91	0
1	33602	70.01	0
1	33650	70.11	0
1	33698	70.21	0
1	33746	70.31	0
1	33794	70.41	0
1	33842	70.51	0
1	33890	70.61	0
1	33938	70.71	0
1	33986	70.81	0
1	34034	70.91	0
1	34084	71.01	0
1	34132	71.11	0
1	34180	71.21	0
1	34228	71.31	0
1	34276	71.41	0
1	34324	71.51	0
1	34372	71.61	0
1	34420	71.71	0
1	34468	71.81	0
1	34516	71.91	0
1	34566	72.01	0
1	34614	72.11	0
1	34662	72.21	0
1	34710	72.31	0
1	34758	72.41	0
1	34806	72.51	0
1	34854	72.61	0
1	34902	72.71	0
1	34950	72.81	0
1	34998	72.91	0
1	35048	73.01	0
1	35096	73.11	0
1	35144	73.21	0
1	35192	73.31	0
1	35240	73.41	0
1	35288	73.51	0
1	35336	73.61	0
1	35384	73.71	0
1	35432	73.81	0
1	35480	73.91	0
1	35530	74.01	0
1	35578	74.11	0
1	35626	74.21	0
1	35674	74.31	0
1	35722	74.41	0
1	35770	74.51	0
1	35818	74.61	0
1	35866	74.71	0
1	35914	74.81	0
1	35962	74.91	0
1	36012	75.01	0
1	36060	75.11	0
1	36108	75.21	0
1	36156	75.31	0
1	36204	75.41	0
1	36252	75.51	0
1	36300	75.61	0
1	36348	75.71	0
1	36396	75.81	0
1	36444	75.91	0
1	36494	76.01	0
1	36542	76.11	0
1	36590	76.21	0
1	36638	76.31	0
1	36686	76.41	0
1	36734	76.51	0
1	36782	76.61	0
1	36830	76.71	0
1	36878	76.81	0
1	36926	76.91	0
1	36976	77.01	0
1	37024	77.11	0
1	37072	77.21	0
1	37120	77.31	0
1	37168	77.41	0
1	37216	77.51	0
1	37264	77.61	0
1	37312	77.71	0
1	37360	77.81	0
1	37408	77.91	0
1	37458	78.01	0
1	37506	78.11	0
1	37554	78.21	0
1	37602	78.31	0
1	37650	78.41	0
1	37698	78.51	0
1	37746	78.61	0
1	37794	78.71	0
1	37842	78.81	0
1	37890	78.91	0
1	37940	79.01	0
1	37988	79.11	0
1	38036	79.21	0
1	38084	79.31	0
1	38132	79.41	0
1	38180	79.51	0
1	38228	79.61	0
1	38276	79.71	0
1	38324	79.81	0
1	38372	79.91	0
1	38422	80.01	0
1	38470	80.11	0
1	38518	80.21	0
1	38566	80.31	0
1	38614	80.41	0
1	38662	80.51	0
1	38710	80.61	0
1	38758	80.71	0
1	38806	80.81	0
1	38854	80.91	0
1	38904	81.01	0
1	38952	81.11	0
1	39000	81.21	0
1	39048	81.31	0
1	39096	81.41	0
1	39144	81.51	0
1	39192	81.61	0
1	39240	81.71	0
1	39288	81.81	0
1	39336	81.91	0
1	39386	82.01	0
1	39434	82.11	0
1	39482	82.21	0
1	39530	82.31	0
1	39578	82.41	0
1	39626	82.51	0
1	39674	82.61	0
1	39722	82.71	0
1	39770	82.81	0
1	39818	82.91	0
1	39868	83.01	0
1	39916	83.11	0
1	39964	83.21	0
1	40012	83.31	0
1	40060	83.41	0
1	40108	83.51	0
1	40156	83.61	0
1	40204	83.71	0
1	40252	83.81	0
1	40300	83.91	0
1	40350	84.01	0
1	40398	84.11	0
1	40446	84.21	0
1	40494	84.31	0
1	40542	84.41	0
1	40590	84.51	0
1	40638	84.61	0
1	40686	84.71	0
1	40734	84.81	0
1	40782	84.91	0
1	40832	85.01	0
1	40880	85.11	0
1	40928	85.21	0
1	40976	85.31	0
1	41024	85.41	0
1	41072	85.51	0
1	41120	85.61	0
1	41168	85.71	0
1	41216	85.81	0
1	41264	85.91	0
1	41314	86.01	0
1	41362	86.11	0
1	41410	86.21	0
1	41458	86.31	0
1	41506	86.41	0
1	41554	86.51	0
1	41602	86.61	0
1	41650	86.71	0
1	41698	86.81	0
1	41746	86.91	0
1	41796	87.01	0
1	41844	87.11	0
1	41892	87.21	0
1	41940	87.31	0
1	41988	87.41	0
1	42036	87.51	0
1	42084	87.61	0
1	42132	87.71	0
1	42180	87.81	0
1	42228	87.91	0
1	42278	88.01	0
1	42326	88.11	0
1	42374	88.21	0
1	42422	88.31	0
1	42470	88.41	0
1	42518	88.51	0
1	42566	88.61	0
1	42614	88.71	0
1	42662	88.81	0
1	42710	88.91	0
1	42760	89.01	0
1	42808	89.11	0
1	42856	89.21	0
1	42904	89.31	0
1	42952	89.41	0
1	43000	89.51	0
1	43048	89.61	0
1	43096	89.71	0
1	43144	89.81	0
1	43192	89.91	0
1	43242	90.01	0
1	43290	90.11	0
1	43338	90.21	0
1	43386	90.31	0
1	43434	90.41	0
1	43482	90.51	0
1	43530	90.61	0
1	43578	90.71	0
1	43626	90.81	0
1	43674	90.91	0
1	43724	91.01	0
1	43772	91.11	0
1	43820	91.21	0
1	43868	91.31	0
1	43916	91.41	0
1	43964	91.51	0
1	44012	91.61	0
1	44060	91.71	0
1	44108	91.81	0
1	44156	91.91	0
1	44206	92.01	0
1	44254	92.11	0
1	44302	92.21	0
1	44350	92.31	0
1	44398	92.41	0
1	44446	92.51	0
1	44494	92.61	0
1	44542	92.71	0
1	44590	92.81	0
1	44638	92.91	0
1	44688	93.01	0
1	44736	93.11	0
1	44784	93.21	0
1	44832	93.31	0
1	44880	93.41	0
1	44928	93.51	0
1	44976	93.61	0
1	45024	93.71	0
1	45072	93.81	0
1	45120	93.91	0
1	45170	94.01	0
1	45218	94.11	0
1	45266	94.21	0
1	45314	94.31	0
1	45362	94.41	0
1	45410	94.51	0
1	45458	94.61	0
1	45506	94.71	0
1	45554	94.81	0
1	45602	94.91	0
1	45652	95.01	0
1	45700	95.11	0
1	45748	95.21	0
1	45796	95.31	0
1	45844	95.41	0
1	45892	95.51	0
1	45940	95.61	0
1	45988	95.71	0
1	46036	95.81	0
1	46084	95.91	0
1	46134	96.01	0
1	46182	96.11	0
1	46230	96.21	0
1	46278	96.31	0
1	46326	96.41	0
1	46374	96.51	0
1	46422	96.61	0
1	46470	96.71	0
1	46518	96.81	0
1	46566	96.91	0
1	46616	97.01	0
1	46664	97.11	0
1	46712	97.21	0
1	46760	97.31	0
1	46808	97.41	0
1	46856	97.51	0
1	46904	97.61	0
1	46952	97.71	0
1	47000	97.81	0
1	47048	97.91	0
1	47098	98.01	0
1	47146	98.11	0
1	47194	98.21	0
1	47242	98.31	0
1	47290	98.41	0
1	47338	98.51	0
1	47386	98.61	0
1	47434	98.71	0
1	47482	98.81	0
1	47530	98.91	0
1	47580	99.01	0
1	47628	99.11	0
1	47676	99.21	0
1	47724	99.31	0
1	47772	99.41	0
1	47820	99.51	0
1	47868	99.61	0
1	47916	99.71	0
1	47964	99.81	0
1	48012	99.91	0
2	113	1.11	0
2	161	1.21	0
2	209	1.31	0
2	257	1.41	0
2	305	1.51	0
2	353	1.61	0
2	401	1.71	0
2	449	1.81	0
2	497	1.91	0
2	547	2.01	0
2	595	2.11	0
2	643	2.21	0
2	691	2.31	0
2	739	2.41	0
2	787	2.51	0
2	835	2.61	0
2	883	2.71	0
2	931	2.81	0
2	979	2.91	0
2	1029	3.01	0
2	1077	3.11	0
2	1125	3.21	0
2	1173	3.31	0
2	1221	3.41	0
2	1269	3.51	0
2	1317	3.61	0
2	1365	3.71	0
2	1413	3.81	0
2	1461	3.91	0
2	1511	4.01	0
2	1559	4.11	0
2	1607	4.21	0
2	1655	4.31	0
2	1703	4.41	0
2	1751	4.51	0
2	1799	4.61	0
2	1847	4.71	0
2	1895	4.81	0
2	1943	4.91	0
2	1993	5.01	0
2	2041	5.11	0
2	2089	5.21	0
2	2137	5.31	0
2	2185	5.41	0
2	2233	5.51	0
2	2281	5.61	0
2	2329	5.71	0
2	2377	5.81	0
2	2425	5.91	0
2	2475	6.01	0
2	2523	6.11	0
2	2571	6.21	0
2	2619	6.31	0
2	2667	6.41	0
2	2715	6.51	0
2	2763	6.61	0
2	2811	6.71	0
2	2859	6.81	0
2	2907	6.91	0
2	2957	7.01	0
2	3005	7.11	0
2	3053	7.21	0
2	3101	7.31	0
2	3149	7.41	0
2	3197	7.51	0
2	3245	7.61	0
2	3293	7.71	0
2	3341	7.81	0
2	3389	7.91	0
2	3439	8.01	0
2	3487	8.11	0
2	3535	8.21	0
2	3583	8.31	0
2	3631	8.41	0
2	3679	8.51	0
2	3727	8.61	0
2	3775	8.71	0
2	3823	8.81	0
2	3871	8.91	0
2	3921	9.01	0
2	3969	9.11	0
2	4017	9.21	0
2	4065	9.31	0
2	4113	9.41	0
2	4161	9.51	0
2	4209	9.61	0
2	4257	9.71	0
2	4305	9.81	0
2	4353	9.91	0
2	4423	10.01	0
2	4472	10.11	0
2	4521	10.21	0
2	4570	10.31	0
2	4619	10.41	0
2	4668	10.51	0
2	4717	10.61	0
2	4766	10.71	0
2	4815	10.81	0
2	4864	10.91	0
2	4915	11.01	0
2	4964	11.11	0
2	5013	11.21	0
2	5062	11.31	0
2	5111	11.41	0
2	5160	11.51	0
2	5209	11.61	0
2	5258	11.71	0
2	5307	11.81	0
2	5356	11.91	0
2	5407	12.01	0
2	5456	12.11	0
2	5505	12.21	0
2	5554	12.31	0
2	5603	12.41	0
2	5652	12.51	0
2	5701	12.61	0
2	5750	12.71	0
2	5799	12.81	0
2	5848	12.91	0
2	5899	13.01	0
2	5948	13.11	0
2	5997	13.21	0
2	6046	13.31	0
2	6095	13.41	0
2	6144	13.51	0
2	6193	13.61	0
2	6242	13.71	0
2	6291	13.81	0
2	6340	13.91	0
2	6391	14.01	0
2	6440	14.11	0
2	6489	14.21	0
2	6538	14.31	0
2	6587	14.41	0
2	6636	14.51	0
2	6685	14.61	0
2	6734	14.71	0
2	6783	14.81	0
2	6832	14.91	0
2	6883	15.01	0
2	6932	15.11	0
2	6981	15.21	0
2	7030	15.31	0
2	7079	15.41	0
2	7128	15.51	0
2	7177	15.61	0
2	7226	15.71	0
2	7275	15.81	0
2	7324	15.91	0
2	7375	16.01	0
2	7424	16.11	0
2	7473	16.21	0
2	7522	16.31	0
2	7571	16.41	0
2	7620	16.51	0
2	7669	16.61	0
2	7718	16.71	0
2	7767	16.81	0
2	7816	16.91	0
2	7867	17.01	0
2	7916	17.11	0
2	7965	17.21	0
2	8014	17.31	0
2	8063	17.41	0
2	8112	17.51	0
2	8161	17.61	0
2	8210	17.71	0
2	8259	17.81	0
2	8308	17.91	0
2	8359	18.01	0
2	8408	18.11	0
2	8457	18.21	0
2	8506	18.31	0
2	8555	18.41	0
2	8604	18.51	0
2	8653	18.61	0
2	8702	18.71	0
2	8751	18.81	0
2	8800	18.91	0
2	8851	19.01	0
2	8900	19.11	0
2	8949	19.21	0
2	8998	19.31	0
2	9047	19.41	0
2	9096	19.51	0
2	9145	19.61	0
2	9194	19.71	0
2	9243	19.81	0
2	9292	19.91	0
2	9343	20.01	0
2	9392	20.11	0
2	9441	20.21	0
2	9490	20.31	0
2	9539	20.41	0
2	9588	20.51	0
2	9637	20.61	0
2	9686	20.71	0
2	9735	20.81	0
2	9784	20.91	0
2	9835	21.01	0
2	9884	21.11	0
2	9933	21.21	0
2	9982	21.31	0
2	10031	21.41	0
2	10080	21.51	0
2	10129	21.61	0
2	10178	21.71	0
2	10227	21.81	0
2	10276	21.91	0
2	10327	22.01	0
2	10376	22.11	0
2	10425	22.21	0
2	10474	22.31	0
2	10523	22.41	0
2	10572	22.51	0
2	10621	22.61	0
2	10670	22.71	0
2	10719	22.81	0
2	10768	22.91	0
2	10819	23.01	0
2	10868	23.11	0
2	10917	23.21	0
2	10966	23.31	0
2	11015	23.41	0
2	11064	23.51	0
2	11113	23.61	0
2	11162	23.71	0
2	11211	23.81	0
2	11260	23.91	0
2	11311	24.01	0
2	11360	24.11	0
2	11409	24.21	0
2	11458	24.31	0
2	11507	24.41	0
2	11556	24.51	0
2	11605	24.61	0
2	11654	24.71	0
2	11703	24.81	0
2	11752	24.91	0
2	11803	25.01	0
2	11852	25.11	0
2	11901	25.21	0
2	11950	25.31	0
2	11999	25.41	0
2	12048	25.51	0
2	12097	25.61	0
2	12146	25.71	0
2	12195	25.81	0
2	12244	25.91	0
2	12295	26.01	0
2	12344	26.11	0
2	12393	26.21	0
2	12442	26.31	0
2	12491	26.41	0
2	12540	26.51	0
2	12589	26.61	0
2	12638	26.71	0
2	12687	26.81	0
2	12736	26.91	0
2	12787	27.01	0
2	12836	27.11	0
2	12885	27.21	0
2	12934	27.31	0
2	12983	27.41	0
2	13032	27.51	0
2	13081	27.61	0
2	13130	27.71	0
2	13179	27.81	0
2	13228	27.91	0
2	13279	28.01	0
2	13328	28.11	0
2	13377	28.21	0
2	13426	28.31	0
2	13475	28.41	0
2	13524	28.51	0
2	13573	28.61	0
2	13622	28.71	0
2	13671	28.81	0
2	13720	28.91	0
2	13771	29.01	0
2	13820	29.11	0
2	13869	29.21	0
2	13984	29.31	0
2	14032	29.41	0
2	14080	29.51	0
2	14128	29.61	0
2	14176	29.71	0
2	14224	29.81	0
2	14272	29.91	0
2	14322	30.01	0
2	14370	30.11	0
2	14418	30.21	0
2	14466	30.31	0
2	14514	30.41	0
2	14562	30.51	0
2	14610	30.61	0
2	14658	30.71	0
2	14706	30.81	0
2	14754	30.91	0
2	14804	31.01	0
2	14852	31.11	0
2	14900	31.21	0
2	14948	31.31	0
2	14996	31.41	0
2	15044	31.51	0
2	15092	31.61	0
2	15140	31.71	0
2	15188	31.81	0
2	15236	31.91	0
2	15286	32.01	0
2	15334	32.11	0
2	15382	32.21	0
2	15430	32.31	0
2	15478	32.41	0
2	15526	32.51	0
2	15574	32.61	0
2	15622	32.71	0
2	15670	32.81	0
2	15718	32.91	0
2	15768	33.01	0
2	15816	33.11	0
2	15864	33.21	0
2	15912	33.31	0
2	15960	33.41	0
2	16008	33.51	0
2	16056	33.61	0
2	16104	33.71	0
2	16152	33.81	0
2	16200	33.91	0
2	16250	34.01	0
2	16298	34.11	0
2	16346	34.21	0
2	16394	34.31	0
2	16442	34.41	0
2	16490	34.51	0
2	16538	34.61	0
2	16586	34.71	0
2	16634	34.81	0
2	16682	34.91	0
2	16732	35.01	0
2	16780	35.11	0
2	16828	35.21	0
2	16876	35.31	0
2	16924	35.41	0
2	16972	35.51	0
2	17020	35.61	0
2	17068	35.71	0
2	17116	35.81	0
2	17164	35.91	0
2	17214	36.01	0
2	17262	36.11	0
2	17310	36.21	0
2	17358	36.31	0
2	17406	36.41	0
2	17454	36.51	0
2	17502	36.61	0
2	17550	36.71	0
2	17598	36.81	0
2	17646	36.91	0
2	17696	37.01	0
2	17744	37.11	0
2	17792	37.21	0
2	17840	37.31	0
2	17888	37.41	0
2	17936	37.51	0
2	17984	37.61	0
2	18032	37.71	0
2	18080	37.81	0
2	18128	37.91	0
2	18178	38.01	0
2	18226	38.11	0
2	18274	38.21	0
2	18322	38.31	0
2	18370	38.41	0
2	18418	38.51	0
2	18466	38.61	0
2	18514	38.71	0
2	18562	38.81	0
2	18610	38.91	0
2	18660	39.01	0
2	18708	39.11	0
2	18756	39.21	0
2	18804	39.31	0
2	18852	39.41	0
2	18900	39.51	0
2	18948	39.61	0
2	18996	39.71	0
2	19044	39.81	0
2	19092	39.91	0
2	19142	40.01	0
2	19190	40.11	0
2	19238	40.21	0
2	19286	40.31	0
2	19334	40.41	0
2	19382	40.51	0
2	19430	40.61	0
2	19478	40.71	0
2	19526	40.81	0
2	19574	40.91	0
2	19624	41.01	0
2	19672	41.11	0
2	19720	41.21	0
2	19768	41.31	0
2	19816	41.41	0
2	19864	41.51	0
2	19912	41.61	0
2	19960	41.71	0
2	20008	41.81	0
2	20056	41.91	0
2	20106	42.01	0
2	20154	42.11	0
2	20202	42.21	0
2	20250	42.31	0
2	20298	42.41	0
2	20346	42.51	0
2	20394	42.61	0
2	20442	42.71	0
2	20490	42.81	0
2	20538	42.91	0
2	20588	43.01	0
2	20636	43.11	0
2	20684	43.21	0
2	20732	43.31	0
2	20780	43.41	0
2	20828	43.51	0
2	20876	43.61	0
2	20924	43.71	0
2	20972	43.81	0
2	21020	43.91	0
2	21070	44.01	0
2	21118	44.11	0
2	21166	44.21	0
2	21214	44.31	0
2	21262	44.41	0
2	21310	44.51	0
2	21358	44.61	0
2	21406	44.71	0
2	21454	44.81	0
2	21502	44.91	0
2	21552	45.01	0
2	21600	45.11	0
2	21648	45.21	0
2	21696	45.31	0
2	21744	45.41	0
2	21792	45.51	0
2	21840	45.61	0
2	21888	45.71	0
2	21936	45.81	0
2	21984	45.91	0
2	22034	46.01	0
2	22082	46.11	0
2	22130	46.21	0
2	22178	46.31	0
2	22226	46.41	0
2	22274	46.51	0
2	22322	46.61	0
2	22370	46.71	0
2	22418	46.81	0
2	22466	46.91	0
2	22516	47.01	0
2	22564	47.11	0
2	22612	47.21	0
2	22660	47.31	0
2	22708	47.41	0
2	22756	47.51	0
2	22804	47.61	0
2	22852	47.71	0
2	22900	47.81	0
2	22948	47.91	0
2	22998	48.01	0
2	23046	48.11	0
2	23094	48.21	0
2	23142	48.31	0
2	23190	48.41	0
2	23238	48.51	0
2	23286	48.61	0
2	23334	48.71	0
2	23382	48.81	0
2	23430	48.91	0
2	23480	49.01	0
2	23528	49.11	0
2	23576	49.21	0
2	23624	49.31	0
2	23672	49.41	0
2	23720	49.51	0
2	23768	49.61	0
2	23816	49.71	0
2	23864	49.81	0
2	23912	49.91	0
2	23962	50.01	0
2	24010	50.11	0
2	24058	50.21	0
2	24106	50.31	0
2	24154	50.41	0
2	24202	50.51	0
2	24250	50.61	0
2	24298	50.71	0
2	24346	50.81	0
2	24394	50.91	0
2	24444	51.01	0
2	24492	51.11	0
2	24540	51.21	0
2	24588	51.31	0
2	24636	51.41	0
2	24684	51.51	0
2	24732	51.61	0
2	24780	51.71	0
2	24828	51.81	0
2	24876	51.91	0
2	24926	52.01	0
2	24974	52.11	0
2	25022	52.21	0
2	25070	52.31	0
2	25118	52.41	0
2	25166	52.51	0
2	25214	52.61	0
2	25262	52.71	0
2	25310	52.81	0
2	25358	52.91	0
2	25408	53.01	0
2	25456	53.11	0
2	25504	53.21	0
2	25552	53.31	0
2	25600	53.41	0
2	25648	53.51	0
2	25696	53.61	0
2	25744	53.71	0
2	25792	53.81	0
2	25840	53.91	0
2	25890	54.01	0
2	25938	54.11	0
2	25986	54.21	0
2	26034	54.31	0
2	26082	54.41	0
2	26130	54.51	0
2	26178	54.61	0
2	26226	54.71	0
2	26274	54.81	0
2	26322	54.91	0
2	26372	55.01	0
2	26420	55.11	0
2	26468	55.21	0
2	26516	55.31	0
2	26564	55.41	0
2	26612	55.51	0
2	26660	55.61	0
2	26708	55.71	0
2	26756	55.81	0
2	26804	55.91	0
2	26854	56.01	0
2	26902	56.11	0
2	26950	56.21	0
2	26998	56.31	0
2	27046	56.41	0
2	27094	56.51	0
2	27142	56.61	0
2	27190	56.71	0
2	27238	56.81	0
2	27286	56.91	0
2	27336	57.01	0
2	27384	57.11	0
2	27432	57.21	0
2	27480	57.31	0
2	27528	57.41	0
2	27576	57.51	0
2	27624	57.61	0
2	27672	57.71	0
2	27720	57.81	0
2	27768	57.91	0
2	27818	58.01	0
2	27866	58.11	0
2	27914	58.21	0
2	27962	58.31	0
2	28010	58.41	0
2	28058	58.51	0
2	28106	58.61	0
2	28154	58.71	0
2	28202	58.81	0
2	28250	58.91	0
2	28300	59.01	0
2	28348	59.11	0
2	28396	59.21	0
2	28444	59.31	0
2	28492	59.41	0
2	28540	59.51	0
2	28588	59.61	0
2	28636	59.71	0
2	28684	59.81	0
2	28732	59.91	0
2	28782	60.01	0
2	28830	60.11	0
2	28878	60.21	0
2	28926	60.31	0
2	28974	60.41	0
2	29022	60.51	0
2	29070	60.61	0
2	29118	60.71	0
2	29166	60.81	0
2	29214	60.91	0
2	29264	61.01	0
2	29312	61.11	0
2	29360	61.21	0
2	29408	61.31	0
2	29456	61.41	0
2	29504	61.51	0
2	29552	61.61	0
2	29600	61.71	0
2	29648	61.81	0
2	29696	61.91	0
2	29746	62.01	0
2	29794	62.11	0
2	29842	62.21	0
2	29890	62.31	0
2	29938	62.41	0
2	29986	62.51	0
2	30034	62.61	0
2	30082	62.71	0
2	30130	62.81	0
2	30178	62.91	0
2	30228	63.01	0
2	30276	63.11	0
2	30324	63.21	0
2	30372	63.31	0
2	30420	63.41	0
2	30468	63.51	0
2	30516	63.61	0
2	30564	63.71	0
2	30612	63.81	0
2	30660	63.91	0
2	30710	64.01	0
2	30758	64.11	0
2	30806	64.21	0
2	30854	64.31	0
2	30902	64.41	0
2	30950	64.51	0
2	30998	64.61	0
2	31046	64.71	0
2	31094	64.81	0
2	31142	64.91	0
2	31192	65.01	0
2	31240	65.11	0
2	31288	65.21	0
2	31336	65.31	0
2	31384	65.41	0
2	31432	65.51	0
2	31480	65.61	0
2	31528	65.71	0
2	31576	65.81	0
2	31624	65.91	0
2	31674	66.01	0
2	31722	66.11	0
2	31770	66.21	0
2	31818	66.31	0
2	31866	66.41	0
2	31914	66.51	0
2	31962	66.61	0
2	32010	66.71	0
2	32058	66.81	0
2	32106	66.91	0
2	32156	67.01	0
2	32204	67.11	0
2	32252	67.21	0
2	32300	67.31	0
2	32348	67.41	0
2	32396	67.51	0
2	32444	67.61	0
2	32492	67.71	0
2	32540	67.81	0
2	32588	67.91	0
2	32638	68.01	0
2	32686	68.11	0
2	32734	68.21	0
2	32782	68.31	0
2	32830	68.41	0
2	32878	68.51	0
2	32926	68.61	0
2	32974	68.71	0
2	33022	68.81	0
2	33070	68.91	0
2	33120	69.01	0
2	33168	69.11	0
2	33216	69.21	0
2	33264	69.31	0
2	33312	69.41	0
2	33360	69.51	0
2	33408	69.61	0
2	33456	69.71	0
2	33504	69.81	0
2	33552	69.91	0
2	33602	70.01	0
2	33650	70.11	0
2	33698	70.21	0
2	33746	70.31	0
2	33794	70.41	0
2	33842	70.51	0
2	33890	70.61	0
2	33938	70.71	0
2	33986	70.81	0
2	34034	70.91	0
2	34084	71.01	0
2	34132	71.11	0
2	34180	71.21	0
2	34228	71.31	0
2	34276	71.41	0
2	34324	71.51	0
2	34372	71.61	0
2	34420	71.71	0
2	34468	71.81	0
2	34516	71.91	0
2	34566	72.01	0
2	34614	72.11	0
2	34662	72.21	0
2	34710	72.31	0
2	34758	72.41	0
2	34806	72.51	0
2	34854	72.61	0
2	34902	72.71	0
2	34950	72.81	0
2	34998	72.91	0
2	35048	73.01	0
2	35096	73.11	0
2	35144	73.21	0
2	35192	73.31	0
2	35240	73.41	0
2	35288	73.51	0
2	35336	73.61	0
2	35384	73.71	0
2	35432	73.81	0
2	35480	73.91	0
2	35530	74.01	0
2	35578	74.11	0
2	35626	74.21	0
2	35674	74.31	0
2	35722	74.41	0
2	35770	74.51	0
2	35818	74.61	0
2	35866	74.71	0
2	35914	74.81	0
2	35962	74.91	0
2	36012	75.01	0
2	36060	75.11	0
2	36108	75.21	0
2	36156	75.31	0
2	36204	75.41	0
2	36252	75.51	0
2	36300	75.61	0
2	36348	75.71	0
2	36396	75.81	0
2	36444	75.91	0
2	36494	76.01	0
2	36542	76.11	0
2	36590	76.21	0
2	36638	76.31	0
2	36686	76.41	0
2	36734	76.51	0
2	36782	76.61	0
2	36830	76.71	0
2	36878	76.81	0
2	36926	76.91	0
2	36976	77.01	0
2	37024	77.11	0
2	37072	77.21	0
2	37120	77.31	0
2	37168	77.41	0
2	37216	77.51	0
2	37264	77.61	0
2	37312	77.71	0
2	37360	77.81	0
2	37408	77.91	0
2	37458	78.01	0
2	37506	78.11	0
2	37554	78.21	0
2	37602	78.31	0
2	37650	78.41	0
2	37698	78.51	0
2	37746	78.61	0
2	37794	78.71	0
2	37842	78.81	0
2	37890	78.91	0
2	37940	79.01	0
2	37988	79.11	0
2	38036	79.21	0
2	38084	79.31	0
2	38132	79.41	0
2	38180	79.51	0
2	38228	79.61	0
2	38276	79.71	0
2	38324	79.81	0
2	38372	79.91	0
2	38422	80.01	0
2	38470	80.11	0
2	38518	80.21	0
2	38566	80.31	0
2	38614	80.41	0
2	38662	80.51	0
2	38710	80.61	0
2	38758	80.71	0
2	38806	80.81	0
2	38854	80.91	0
2	38904	81.01	0
2	38952	81.11	0
2	39000	81.21	0
2	39048	81.31	0
2	39096	81.41	0
2	39144	81.51	0
2	39192	81.61	0
2	39240	81.71	0
2	39288	81.81	0
2	39336	81.91	0
2	39386	82.01	0
2	39434	82.11	0
2	39482	82.21	0
2	39530	82.31	0
2	39578	82.41	0
2	39626	82.51	0
2	39674	82.61	0
2	39722	82.71	0
2	39770	82.81	0
2	39818	82.91	0
2	39868	83.01	0
2	39916	83.11	0
2	39964	83.21	0
2	40012	83.31	0
2	40060	83.41	0
2	40108	83.51	0
2	40156	83.61	0
2	40204	83.71	0
2	40252	83.81	0
2	40300	83.91	0
2	40350	84.01	0
2	40398	84.11	0
2	40446	84.21	0
2	40494	84.31	0
2	40542	84.41	0
2	40590	84.51	0
2	40638	84.61	0
2	40686	84.71	0
2	40734	84.81	0
2	40782	84.91	0
2	40832	85.01	0
2	40880	85.11	0
2	40928	85.21	0
2	40976	85.31	0
2	41024	85.41	0
2	41072	85.51	0
2	41120	85.61	0
2	41168	85.71	0
2	41216	85.81	0
2	41264	85.91	0
2	41314	86.01	0
2	41362	86.11	0
2	41410	86.21	0
2	41458	86.31	0
2	41506	86.41	0
2	41554	86.51	0
2	41602	86.61	0
2	41650	86.71	0
2	41698	86.81	0
2	41746	86.91	0
2	41796	87.01	0
2	41844	87.11	0
2	41892	87.21	0
2	41940	87.31	0
2	41988	87.41	0
2	42036	87.51	0
2	42084	87.61	0
2	42132	87.71	0
2	42180	87.81	0
2	42228	87.91	0
2	42278	88.01	0
2	42326	88.11	0
2	42374	88.21	0
2	42422	88.31	0
2	42470	88.41	0
2	42518	88.51	0
2	42566	88.61	0
2	42614	88.71	0
2	42662	88.81	0
2	42710	88.91	0
2	42760	89.01	0
2	42808	89.11	0
2	42856	89.21	0
2	42904	89.31	0
2	42952	89.41	0
2	43000	89.51	0
2	43048	89.61	0
2	43096	89.71	0
2	43144	89.81	0
2	43192	89.91	0
2	43242	90.01	0
2	43290	90.11	0
2	43338	90.21	0
2	43386	90.31	0
2	43434	90.41	0
2	43482	90.51	0
2	43530	90.61	0
2	43578	90.71	0
2	43626	90.81	0
2	43674	90.91	0
2	43724	91.01	0
2	43772	91.11	0
2	43820	91.21	0
2	43868	91.31	0
2	43916	91.41	0
2	43964	91.51	0
2	44012	91.61	0
2	44060	91.71	0
2	44108	91.81	0
2	44156	91.91	0
2	44206	92.01	0
2	44254	92.11	0
2	44302	92.21	0
2	44350	92.31	0
2	44398	92.41	0
2	44446	92.51	0
2	44494	92.61	0
2	44542	92.71	0
2	44590	92.81	0
2	44638	92.91	0
2	44688	93.01	0
2	44736	93.11	0
2	44784	93.21	0
2	44832	93.31	0
2	44880	93.41	0
2	44928	93.51	0
2	44976	93.61	0
2	45024	93.71	0
2	45072	93.81	0
2	45120	93.91	0
2	45170	94.01	0
2	45218	94.11	0
2	45266	94.21	0
2	45314	94.31	0
2	45362	94.41	0
2	45410	94.51	0
2	45458	94.61	0
2	45506	94.71	0
2	45554	94.81	0
2	45602	94.91	0
2	45652	95.01	0
2	45700	95.11	0
2	45748	95.21	0
2	45796	95.31	0
2	45844	95.41	0
2	45892	95.51	0
2	45940	95.61	0
2	45988	95.71	0
2	46036	95.81	0
2	46084	95.91	0
2	46134	96.01	0
2	46182	96.11	0
2	46230	96.21	0
2	46278	96.31	0
2	46326	96.41	0
2	46374	96.51	0
2	46422	96.61	0
2	46470	96.71	0
2	46518	96.81	0
2	46566	96.91	0
2	46616	97.01	0
2	46664	97.11	0
2	46712	97.21	0
2	46760	97.31	0
2	46808	97.41	0
2	46856	97.51	0
2	46904	97.61	0
2	46952	97.71	0
2	47000	97.81	0
2	47048	97.91	0
2	47098	98.01	0
2	47146	98.11	0
2	47194	98.21	0
2	47242	98.31	0
2	47290	98.41	0
2	47338	98.51	0
2	47386	98.61	0
2	47434	98.71	0
2	47482	98.81	0
2	47530	98.91	0
2	47580	99.01	0
2	47628	99.11	0
2	47676	99.21	0
2	47724	99.31	0
2	47772	99.41	0
2	47820	99.51	0
2	47868	99.61	0
2	47916	99.71	0
2	47964	99.81	0
2	48012	99.91	0
3	113	1.11	-0.000716383
3	161	1.21	-0.00136341
3	209	1.31	-0.00186974
3	257	1.41	-0.00225157
3	305	1.51	-0.00252443
3	353	1.61	-0.00270298
3	401	1.71	-0.00280098
3	449	1.81	-0.00283113
3	497	1.91	-0.00280509
3	547	2.01	-0.00273342
3	595	2.11	-0.00262559
3	643	2.21	-0.00249005
3	691	2.31	-0.00233419
3	739	2.41	-0.00216447
3	787	2.51	-0.00198642
3	835	2.61	-0.00180472
3	883	2.71	-0.0016233
3	931	2.81	-0.00144536
3	979	2.91	-0.00127346
3	1029	3.01	-0.0011096
3	1077	3.11	-0.000955278
3	1125	3.21	-0.000811546
3	1173	3.31	-0.00067908
3	1221	3.41	-0.000558232
3	1269	3.51	-0.000449082
3	1317	3.61	-0.000351487
3	1365	3.71	-0.00026512
3	1413	3.81	-0.000189514
3	1461	3.91	-0.000124092
3	1511	4.01	-6.81972e-05
3	1559	4.11	-2.11209e-05
3	1607	4.21	1.78769e-05
3	1655	4.31	4.9548e-05
3	1703	4.41	7.46407e-05
3	1751	4.51	9.38867e-05
3	1799	4.61	0.000107991
3	1847	4.71	0.000117625
3	1895	4.81	0.000123418
3	1943	4.91	0.000125957
3	1993	5.01	0.000125781
3	2041	5.11	0.00012338
3	2089	5.21	0.000119198
3	2137	5.31	0.000113629
3	2185	5.41	0.000107022
3	2233	5.51	9.96832e-05
3	2281	5.61	9.18747e-05
3	2329	5.71	8.38211e-05
3	2377	5.81	7.57109e-05
3	2425	5.91	6.76999e-05
3	2475	6.01	5.99137e-05
3	2523	6.11	5.24518e-05
3	2571	6.21	4.53896e-05
3	2619	6.31	3.87821e-05
3	2667	6.41	3.2666e-05
3	2715	6.51	2.70628e-05
3	2763	6.61	2.19809e-05
3	2811	6.71	1.74176e-05
3	2859	6.81	1.33618e-05
3	2907	6.91	9.79494e-06
3	2957	7.01	6.6932e-06
3	3005	7.11	4.02864e-06
3	3053	7.21	1.77051e-06
3	3101	7.31	-1.13691e-07
3	3149	7.41	-1.65736e-06
3	3197	7.51	-2.89397e-06
3	3245	7.61	-3.85652e-06
3	3293	7.71	-4.57698e-06
3	3341	7.81	-5.08591e-06
3	3389	7.91	-5.41219e-06
3	3439	8.01	-5.58279e-06
3	3487	8.11	-5.6226e-06
3	3535	8.21	-5.55442e-06
3	3583	8.31	-5.39886e-06
3	3631	8.41	-5.17441e-06
3	3679	8.51	-4.89748e-06
3	3727	8.61	-4.58246e-06
3	3775	8.71	-4.24184e-06
3	3823	8.81	-3.88634e-06
3	3871	8.91	-3.52499e-06
3	3921	9.01	-3.16534e-06
3	3969	9.11	-2.81353e-06
3	4017	9.21	-2.47446e-06
3	4065	9.31	-2.15192e-06
3	4113	9.41	-1.84873e-06
3	4161	9.51	-1.56685e-06
3	4209	9.61	-1.30751e-06
3	4257	9.71	-1.0713e-06
3	4305	9.81	-8.58321e-07
3	4353	9.91	-6.68206e-07
3	4423	10.01	-5.0026e-07
3	4472	10.11	-3.53514e-07
3	4521	10.21	-2.2679e-07
3	4570	10.31	-1.18765e-07
3	4619	10.41	-2.80163e-08
3	4668	10.51	4.6931e-08
3	4717	10.61	1.07573e-07
3	4766	10.71	1.55391e-07
3	4815	10.81	1.91831e-07
3	4864	10.91	2.18284e-07
3	4915	11.01	2.3607e-07
3	4964	11.11	2.46427e-07
3	5013	11.21	2.50502e-07
3	5062	11.31	2.49353e-07
3	5111	11.41	2.43938e-07
3	5160	11.51	2.3512e-07
3	5209	11.61	2.23669e-07
3	5258	11.71	2.10264e-07
3	5307	11.81	1.95496e-07
3	5356	11.91	1.79874e-07
3	5407	12.01	1.63833e-07
3	5456	12.11	1.47736e-07
3	5505	12.21	1.3188e-07
3	5554	12.31	1.16508e-07
3	5603	12.41	1.01807e-07
3	5652	12.51	8.79222e-08
3	5701	12.61	7.49541e-08
3	5750	12.71	6.29711e-08
3	5799	12.81	5.20114e-08
3	5848	12.91	4.20883e-08
3	5899	13.01	3.3193e-08
3	5948	13.11	2.53003e-08
3	5997	13.21	1.83718e-08
3	6046	13.31	1.23581e-08
3	6095	13.41	7.20348e-09
3	6144	13.51	2.84537e-09
3	6193	13.61	-7.80886e-10
3	6242	13.71	-3.74136e-09
3	6291	13.81	-6.10285e-09
3	6340	13.91	-7.93072e-09
3	6391	14.01	-9.28821e-09
3	6440	14.11	-1.0235e-08
3	6489	14.21	-1.08283e-08
3	6538	14.31	-1.11211e-08
3	6587	14.41	-1.11612e-08
3	6636	14.51	-1.09946e-08
3	6685	14.61	-1.06599e-08
3	6734	14.71	-1.01945e-08
3	6783	14.81	-9.62999e-09
3	6832	14.91	-8.99405e-09
3	6883	15.01	-8.31086e-09
3	6932	15.11	-7.60103e-09
3	6981	15.21	-6.88338e-09
3	7030	15.31	-6.17071e-09
3	7079	15.41	-5.47544e-09
3	7128	15.51	-4.80682e-09
3	7177	15.61	-4.17266e-09
3	7226	15.71	-3.57687e-09
3	7275	15.81	-3.02443e-09
3	7324	15.91	-2.51674e-09
3	7375	16.01	-2.05489e-09
3	7424	16.11	-1.63958e-09
3	7473	16.21	-1.26903e-09
3	7522	16.31	-9.42535e-10
3	7571	16.41	-6.57963e-10
3	7620	16.51	-4.1247e-10
3	7669	16.61	-2.04636e-10
3	7718	16.71	-2.91323e-11
3	7767	16.81	1.14753e-10
3	7816	16.91	2.30926e-10
3	7867	17.01	3.22231e-10
3	7916	17.11	3.91154e-10
3	7965	17.21	4.40892e-10
3	8014	17.31	4.73577e-10
3	8063	17.41	4.92051e-10
3	8112	17.51	4.98446e-10
3	8161	17.61	4.94893e-10
3	8210	17.71	4.82814e-10
3	8259	17.81	4.6434e-10
3	8308	17.91	4.40892e-10
3	8359	18.01	4.13536e-10
3	8408	18.11	3.83693e-10
3	8457	18.21	3.51719e-10
3	8506	18.31	3.19744e-10
3	8555	18.41	2.8777e-10
3	8604	18.51	2.55795e-10
3	8653	18.61	2.25953e-10
3	8702	18.71	1.97531e-10
3	8751	18.81	1.6982e-10
3	8800	18.91	1.44951e-10
3	8851	19.01	1.21503e-10
3	8900	19.11	1.00187e-10
3	8949	19.21	8.10019e-11
3	8998	19.31	6.32383e-11
3	9047	19.41	4.86722e-11
3	9096	19.51	3.44613e-11
3	9145	19.61	2.34479e-11
3	9194	19.71	1.27898e-11
3	9243	19.81	4.9738e-12
3	9292	19.91	-2.13163e-12
3	9343	20.01	-8.17124e-12
3	9392	20.11	-1.1724e-11
3	9441	20.21	-1.52767e-11
3	9490	20.31	-1.88294e-11
3	9539	20.41	-2.02505e-11
3	9588	20.51	-2.02505e-11
3	9637	20.61	-2.02505e-11
3	9686	20.71	-2.02505e-11
3	9735	20.81	-2.02505e-11
3	9784	20.91	-2.02505e-11
3	9835	21.01	-2.02505e-11
3	9884	21.11	-2.02505e-11
3	9933	21.21	-2.02505e-11
3	9982	21.31	-1.88294e-11
3	10031	21.41	-1.7053e-11
3	10080	21.51	-1.52767e-11
3	10129	21.61	-1.38556e-11
3	10178	21.71	-1.24345e-11
3	10227	21.81	-1.13687e-11
3	10276	21.91	-1.03029e-11
3	10327	22.01	-9.23706e-12
3	10376	22.11	-8.52651e-12
3	10425	22.21	-7.4607e-12
3	10474	22.31	-6.75016e-12
3	10523	22.41	-6.03961e-12
3	10572	22.51	-5.68434e-12
3	10621	22.61	-4.9738e-12
3	10670	22.71	-4.61853e-12
3	10719	22.81	-4.26326e-12
3	10768	22.91	-3.90799e-12
3	10819	23.01	-3.55271e-12
3	10868	23.11	-3.19744e-12
3	10917	23.21	-2.84217e-12
3	10966	23.31	-2.4869e-12
3	11015	23.41	-2.13163e-12
3	11064	23.51	-2.13163e-12
3	11113	23.61	-1.77636e-12
3	11162	23.71	-1.77636e-12
3	11211	23.81	-1.42109e-12
3	11260	23.91	-1.42109e-12
3	11311	24.01	-1.06581e-12
3	11360	24.11	-1.06581e-12
3	11409	24.21	-1.06581e-12
3	11458	24.31	-1.06581e-12
3	11507	24.41	-7.10543e-13
3	11556	24.51	-7.10543e-13
3	11605	24.61	-7.10543e-13
3	11654	24.71	-7.10543e-13
3	11703	24.81	-7.10543e-13
3	11752	24.91	-3.55271e-13
3	11803	25.01	-3.55271e-13
3	11852	25.11	-3.55271e-13
3	11901	25.21	-3.55271e-13
3	11950	25.31	-3.55271e-13
3	11999	25.41	-3.55271e-13
3	12048	25.51	-3.55271e-13
3	12097	25.61	-3.55271e-13
3	12146	25.71	-3.55271e-13
3	12195	25.81	-3.55271e-13
3	12244	25.91	0
3	12295	26.01	0
3	12344	26.11	0
3	12393	26.21	0
3	12442	26.31	0
3	12491	26.41	0
3	12540	26.51	0
3	12589	26.61	0
3	12638	26.71	0
3	12687	26.81	0
3	12736	26.91	0
3	12787	27.01	0
3	12836	27.11	0
3	12885	27.21	0
3	12934	27.31	0
3	12983	27.41	0
3	13032	27.51	0
3	13081	27.61	0
3	13130	27.71	0
3	13179	27.81	0
3	13228	27.91	0
3	13279	28.01	0
3	13328	28.11	0
3	13377	28.21	0
3	13426	28.31	0
3	13475	28.41	0
3	13524	28.51	0
3	13573	28.61	0
3	13622	28.71	0
3	13671	28.81	0
3	13720	28.91	0
3	13771	29.01	0
3	13820	29.11	0
3	13869	29.21	0
3	13984	29.31	0
3	14032	29.41	0
3	14080	29.51	0
3	14128	29.61	0
3	14176	29.71	0
3	14224	29.81	0
3	14272	29.91	0
3	14322	30.01	0
3	14370	30.11	0
3	14418	30.21	0
3	14466	30.31	0
3	14514	30.41	0
3	14562	30.51	0
3	14610	30.61	0
3	14658	30.71	0
3	14706	30.81	0
3	14754	30.91	0
3	14804	31.01	0
3	14852	31.11	0
3	14900	31.21	0
3	14948	31.31	0
3	14996	31.41	0
3	15044	31.51	0
3	15092	31.61	0
3	15140	31.71	0
3	15188	31.81	0
3	15236	31.91	0
3	15286	32.01	0
3	15334	32.11	0
3	15382	32.21	0
3	15430	32.31	0
3	15478	32.41	0
3	15526	32.51	0
3	15574	32.61	0
3	15622	32.71	0
3	15670	32.81	0
3	15718	32.91	0
3	15768	33.01	0
3	15816	33.11	0
3	15864	33.21	0
3	15912	33.31	0
3	15960	33.41	0
3	16008	33.51	0
3	16056	33.61	0
3	16104	33.71	0
3	16152	33.81	0
3	16200	33.91	0
3	16250	34.01	0
3	16298	34.11	0
3	16346	34.21	0
3	16394	34.31	0
3	16442	34.41	0
3	16490	34.51	0
3	16538	34.61	0
3	16586	34.71	0
3	16634	34.81	0
3	16682	34.91	0
3	16732	35.01	0
3	16780	35.11	0
3	16828	35.21	0
3	16876	35.31	0
3	16924	35.41	0
3	16972	35.51	0
3	17020	35.61	0
3	17068	35.71	0
3	17116	35.81	0
3	17164	35.91	0
3	17214	36.01	0
3	17262	36.11	0
3	17310	36.21	0
3	17358	36.31	0
3	17406	36.41	0
3	17454	36.51	0
3	17502	36.61	0
3	17550	36.71	0
3	17598	36.81	0
3	17646	36.91	0
3	17696	37.01	0
3	17744	37.11	0
3	17792	37.21	0
3	17840	37.31	0
3	17888	37.41	0
3	17936	37.51	0
3	17984	37.61	0
3	18032	37.71	0
3	18080	37.81	0
3	18128	37.91	0
3	18178	38.01	0
3	18226	38.11	0
3	18274	38.21	0
3	18322	38.31	0
3	18370	38.41	0
3	18418	38.51	0
3	18466	38.61	0
3	18514	38.71	0
3	18562	38.81	0
3	18610	38.91	0
3	18660	39.01	0
3	18708	39.11	0
3	18756	39.21	0
3	18804	39.31	0
3	18852	39.41	0
3	18900	39.51	0
3	18948	39.61	0
3	18996	39.71	0
3	19044	39.81	0
3	19092	39.91	0
3	19142	40.01	0
3	19190	40.11	0
3	19238	40.21	0
3	19286	40.31	0
3	19334	40.41	0
3	19382	40.51	0
3	19430	40.61	0
3	19478	40.71	0
3	19526	40.81	0
3	19574	40.91	0
3	19624	41.01	0
3	19672	41.11	0
3	19720	41.21	0
3	19768	41.31	0
3	19816	41.41	0
3	19864	41.51	0
3	19912	41.61	0
3	19960	41.71	0
3	20008	41.81	0
3	20056	41.91	0
3	20106	42.01	0
3	20154	42.11	0
3	20202	42.21	0
3	20250	42.31	0
3	20298	42.41	0
3	20346	42.51	0
3	20394	42.61	0
3	20442	42.71	0
3	20490	42.81	0
3	20538	42.91	0
3	20588	43.01	0
3	20636	43.11	0
3	20684	43.21	0
3	20732	43.31	0
3	20780	43.41	0
3	20828	43.51	0
3	20876	43.61	0
3	20924	43.71	0
3	20972	43.81	0
3	21020	43.91	0
3	21070	44.01	0
3	21118	44.11	0
3	21166	44.21	0
3	21214	44.31	0
3	21262	44.41	0
3	21310	44.51	0
3	21358	44.61	0
3	21406	44.71	0
3	21454	44.81	0
3	21502	44.91	0
3	21552	45.01	0
3	21600	45.11	0
3	21648	45.21	0
3	21696	45.31	0
3	21744	45.41	0
3	21792	45.51	0
3	21840	45.61	0
3	21888	45.71	0
3	21936	45.81	0
3	21984	45.91	0
3	22034	46.01	0
3	22082	46.11	0
3	22130	46.21	0
3	22178	46.31	0
3	22226	46.41	0
3	22274	46.51	0
3	22322	46.61	0
3	22370	46.71	0
3	22418	46.81	0
3	22466	46.91	0
3	22516	47.01	0
3	22564	47.11	0
3	22612	47.21	0
3	22660	47.31	0
3	22708	47.41	0
3	22756	47.51	0
3	22804	47.61	0
3	22852	47.71	0
3	22900	47.81	0
3	22948	47.91	0
3	22998	48.01	0
3	23046	48.11	0
3	23094	48.21	0
3	23142	48.31	0
3	23190	48.41	0
3	23238	48.51	0
3	23286	48.61	0
3	23334	48.71	0
3	23382	48.81	0
3	23430	48.91	0
3	23480	49.01	0
3	23528	49.11	0
3	23576	49.21	0
3	23624	49.31	0
3	23672	49.41	0
3	23720	49.51	0
3	23768	49.61	0
3	23816	49.71	0
3	23864	49.81	0
3	23912	49.91	0
3	23962	50.01	0
3	24010	50.11	0
3	24058	50.21	0
3	24106	50.31	0
3	24154	50.41	0
3	24202	50.51	0
3	24250	50.61	0
3	24298	50.71	0
3	24346	50.81	0
3	24394	50.91	0
3	24444	51.01	0
3	24492	51.11	0
3	24540	51.21	0
3	24588	51.31	0
3	24636	51.41	0
3	24684	51.51	0
3	24732	51.61	0
3	24780	51.71	0
3	24828	51.81	0
3	24876	51.91	0
3	24926	52.01	0
3	24974	52.11	0
3	25022	52.21	0
3	25070	52.31	0
3	25118	52.41	0
3	25166	52.51	0
3	25214	52.61	0
3	25262	52.71	0
3	25310	52.81	0
3	25358	52.91	0
3	25408	53.01	0
3	25456	53.11	0
3	25504	53.21	0
3	25552	53.31	0
3	25600	53.41	0
3	25648	53.51	0
3	25696	53.61	0
3	25744	53.71	0
3	25792	53.81	0
3	25840	53.91	0
3	25890	54.01	0
3	25938	54.11	0
3	25986	54.21	0
3	26034	54.31	0
3	26082	54.41	0
3	26130	54.51	0
3	26178	54.61	0
3	26226	54.71	0
3	26274	54.81	0
3	26322	54.91	0
3	26372	55.01	0
3	26420	55.11	0
3	26468	55.21	0
3	26516	55.31	0
3	26564	55.41	0
3	26612	55.51	0
3	26660	55.61	0
3	26708	55.71	0
3	26756	55.81	0
3	26804	55.91	0
3	26854	56.01	0
3	26902	56.11	0
3	26950	56.21	0
3	26998	56.31	0
3	27046	56.41	0
3	27094	56.51	0
3	27142	56.61	0
3	27190	56.71	0
3	27238	56.81	0
3	27286	56.91	0
3	27336	57.01	0
3	27384	57.11	0
3	27432	57.21	0
3	27480	57.31	0
3	27528	57.41	0
3	27576	57.51	0
3	27624	57.61	0
3	27672	57.71	0
3	27720	57.81	0
3	27768	57.91	0
3	27818	58.01	0
3	27866	58.11	0
3	27914	58.21	0
3	27962	58.31	0
3	28010	58.41	0
3	28058	58.51	0
3	28106	58.61	0
3	28154	58.71	0
3	28202	58.81	0
3	28250	58.91	0
3	28300	59.01	0
3	28348	59.11	0
3	28396	59.21	0
3	28444	59.31	0
3	28492	59.41	0
3	28540	59.51	0
3	28588	59.61	0
3	28636	59.71	0
3	28684	59.81	0
3	28732	59.91	0
3	28782	60.01	0
3	28830	60.11	0
3	28878	60.21	0
3	28926	60.31	0
3	28974	60.41	0
3	29022	60.51	0
3	29070	60.61	0
3	29118	60.71	0
3	29166	60.81	0
3	29214	60.91	0
3	29264	61.01	0
3	29312	61.11	0
3	29360	61.21	0
3	29408	61.31	0
3	29456	61.41	0
3	29504	61.51	0
3	29552	61.61	0
3	29600	61.71	0
3	29648	61.81	0
3	29696	61.91	0
3	29746	62.01	0
3	29794	62.11	0
3	29842	62.21	0
3	29890	62.31	0
3	29938	62.41	0
3	29986	62.51	0
3	30034	62.61	0
3	30082	62.71	0
3	30130	62.81	0
3	30178	62.91	0
3	30228	63.01	0
3	30276	63.11	0
3	30324	63.21	0
3	30372	63.31	0
3	30420	63.41	0
3	30468	63.51	0
3	30516	63.61	0
3	30564	63.71	0
3	30612	63.81	0
3	30660	63.91	0
3	30710	64.01	0
3	30758	64.11	0
3	30806	64.21	0
3	30854	64.31	0
3	30902	64.41	0
3	30950	64.51	0
3	30998	64.61	0
3	31046	64.71	0
3	31094	64.81	0
3	31142	64.91	0
3	31192	65.01	0
3	31240	65.11	0
3	31288	65.21	0
3	31336	65.31	0
3	31384	65.41	0
3	31432	65.51	0
3	31480	65.61	0
3	31528	65.71	0
3	31576	65.81	0
3	31624	65.91	0
3	31674	66.01	0
3	31722	66.11	0
3	31770	66.21	0
3	31818	66.31	0
3	31866	66.41	0
3	31914	66.51	0
3	31962	66.61	0
3	32010	66.71	0
3	32058	66.81	0
3	32106	66.91	0
3	32156	67.01	0
3	32204	67.11	0
3	32252	67.21	0
3	32300	67.31	0
3	32348	67.41	0
3	32396	67.51	0
3	32444	67.61	0
3	32492	67.71	0
3	32540	67.81	0
3	32588	67.91	0
3	32638	68.01	0
3	32686	68.11	0
3	32734	68.21	0
3	32782	68.31	0
3	32830	68.41	0
3	32878	68.51	0
3	32926	68.61	0
3	32974	68.71	0
3	33022	68.81	0
3	33070	68.91	0
3	33120	69.01	0
3	33168	69.11	0
3	33216	69.21	0
3	33264	69.31	0
3	33312	69.41	0
3	33360	69.51	0
3	33408	69.61	0
3	33456	69.71	0
3	33504	69.81	0
3	33552	69.91	0
3	33602	70.01	0
3	33650	70.11	0
3	33698	70.21	0
3	33746	70.31	0
3	33794	70.41	0
3	33842	70.51	0
3	33890	70.61	0
3	33938	70.71	0
3	33986	70.81	0
3	34034	70.91	0
3	34084	71.01	0
3	34132	71.11	0
3	34180	71.21	0
3	34228	71.31	0
3	34276	71.41	0
3	34324	71.51	0
3	34372	71.61	0
3	34420	71.71	0
3	34468	71.81	0
3	34516	71.91	0
3	34566	72.01	0
3	34614	72.11	0
3	34662	72.21	0
3	34710	72.31	0
3	34758	72.41	0
3	34806	72.51	0
3	34854	72.61	0
3	34902	72.71	0
3	34950	72.81	0
3	34998	72.91	0
3	35048	73.01	0
3	35096	73.11	0
3	35144	73.21	0
3	35192	73.31	0
3	35240	73.41	0
3	35288	73.51	0
3	35336	73.61	0
3	35384	73.71	0
3	35432	73.81	0
3	35480	73.91	0
3	35530	74.01	0
3	35578	74.11	0
3	35626	74.21	0
3	35674	74.31	0
3	35722	74.41	0
3	35770	74.51	0
3	35818	74.61	0
3	35866	74.71	0
3	35914	74.81	0
3	35962	74.91	0
3	36012	75.01	0
3	36060	75.11	0
3	36108	75.21	0
3	36156	75.31	0
3	36204	75.41	0
3	36252	75.51	0
3	36300	75.61	0
3	36348	75.71	0
3	36396	75.81	0
3	36444	75.91	0
3	36494	76.01	0
3	36542	76.11	0
3	36590	76.21	0
3	36638	76.31	0
3	36686	76.41	0
3	36734	76.51	0
3	36782	76.61	0
3	36830	76.71	0
3	36878	76.81	0
3	36926	76.91	0
3	36976	77.01	0
3	37024	77.11	0
3	37072	77.21	0
3	37120	77.31	0
3	37168	77.41	0
3	37216	77.51	0
3	37264	77.61	0
3	37312	77.71	0
3	37360	77.81	0
3	37408	77.91	0
3	37458	78.01	0
3	37506	78.11	0
3	37554	78.21	0
3	37602	78.31	0
3	37650	78.41	0
3	37698	78.51	0
3	37746	78.61	0
3	37794	78.71	0
3	37842	78.81	0
3	37890	78.91	0
3	37940	79.01	0
3	37988	79.11	0
3	38036	79.21	0
3	38084	79.31	0
3	38132	79.41	0
3	38180	79.51	0
3	38228	79.61	0
3	38276	79.71	0
3	38324	79.81	0
3	38372	79.91	0
3	38422	80.01	0
3	38470	80.11	0
3	38518	80.21	0
3	38566	80.31	0
3	38614	80.41	0
3	38662	80.51	0
3	38710	80.61	0
3	38758	80.71	0
3	38806	80.81	0
3	38854	80.91	0
3	38904	81.01	0
3	38952	81.11	0
3	39000	81.21	0
3	39048	81.31	0
3	39096	81.41	0
3	39144	81.51	0
3	39192	81.61	0
3	39240	81.71	0
3	39288	81.81	0
3	39336	81.91	0
3	39386	82.01	0
3	39434	82.11	0
3	39482	82.21	0
3	39530	82.31	0
3	39578	82.41	0
3	39626	82.51	0
3	39674	82.61	0
3	39722	82.71	0
3	39770	82.81	0
3	39818	82.91	0
3	39868	83.01	0
3	39916	83.11	0
3	39964	83.21	0
3	40012	83.31	0
3	40060	83.41	0
3	40108	83.51	0
3	40156	83.61	0
3	40204	83.71	0
3	40252	83.81	0
3	40300	83.91	0
3	40350	84.01	0
3	40398	84.11	0
3	40446	84.21	0
3	40494	84.31	0
3	40542	84.41	0
3	40590	84.51	0
3	40638	84.61	0
3	40686	84.71	0
3	40734	84.81	0
3	40782	84.91	0
3	40832	85.01	0
3	40880	85.11	0
3	40928	85.21	0
3	40976	85.31	0
3	41024	85.41	0
3	41072	85.51	0
3	41120	85.61	0
3	41168	85.71	0
3	41216	85.81	0
3	41264	85.91	0
3	41314	86.01	0
3	41362	86.11	0
3	41410	86.21	0
3	41458	86.31	0
3	41506	86.41	0
3	41554	86.51	0
3	41602	86.61	0
3	41650	86.71	0
3	41698	86.81	0
3	41746	86.91	0
3	41796	87.01	0
3	41844	87.11	0
3	41892	87.21	0
3	41940	87.31	0
3	41988	87.41	0
3	42036	87.51	0
3	42084	87.61	0
3	42132	87.71	0
3	42180	87.81	0
3	42228	87.91	0
3	42278	88.01	0
3	42326	88.11	0
3	42374	88.21	0
3	42422	88.31	0
3	42470	88.41	0
3	42518	88.51	0
3	42566	88.61	0
3	42614	88.71	0
3	42662	88.81	0
3	42710	88.91	0
3	42760	89.01	0
3	42808	89.11	0
3	42856	89.21	0
3	42904	89.31	0
3	42952	89.41	0
3	43000	89.51	0
3	43048	89.61	0
3	43096	89.71	0
3	43144	89.81	0
3	43192	89.91	0
3	43242	90.01	0
3	43290	90.11	0
3	43338	90.21	0
3	43386	90.31	0
3	43434	90.41	0
3	43482	90.51	0
3	43530	90.61	0
3	43578	90.71	0
3	43626	90.81	0
3	43674	90.91	0
3	43724	91.01	0
3	43772	91.11	0
3	43820	91.21	0
3	43868	91.31	0
3	43916	91.41	0
3	43964	91.51	0
3	44012	91.61	0
3	44060	91.71	0
3	44108	91.81	0
3	44156	91.91	0
3	44206	92.01	0
3	44254	92.11	0
3	44302	92.21	0
3	44350	92.31	0
3	44398	92.41	0
3	44446	92.51	0
3	44494	92.61	0
3	44542	92.71	0
3	44590	92.81	0
3	44638	92.91	0
3	44688	93.01	0
3	44736	93.11	0
3	44784	93.21	0
3	44832	93.31	0
3	44880	93.41	0
3	44928	93.51	0
3	44976	93.61	0
3	45024	93.71	0
3	45072	93.81	0
3	45120	93.91	0
3	45170	94.01	0
3	45218	94.11	0
3	45266	94.21	0
3	45314	94.31	0
3	45362	94.41	0
3	45410	94.51	0
3	45458	94.61	0
3	45506	94.71	0
3	45554	94.81	0
3	45602	94.91	0
3	45652	95.01	0
3	45700	95.11	0
3	45748	95.21	0
3	45796	95.31	0
3	45844	95.41	0
3	45892	95.51	0
3	45940	95.61	0
3	45988	95.71	0
3	46036	95.81	0
3	46084	95.91	0
3	46134	96.01	0
3	46182	96.11	0
3	46230	96.21	0
3	46278	96.31	0
3	46326	96.41	0
3	46374	96.51	0
3	46422	96.61	0
3	46470	96.71	0
3	46518	96.81	0
3	46566	96.91	0
3	46616	97.01	0
3	46664	97.11	0
3	46712	97.21	0
3	46760	97.31	0
3	46808	97.41	0
3	46856	97.51	0
3	46904	97.61	0
3	46952	97.71	0
3	47000	97.81	0
3	47048	97.91	0
3	47098	98.01	0
3	47146	98.11	0
3	47194	98.21	0
3	47242	98.31	0
3	47290	98.41	0
3	47338	98.51	0
3	47386	98.61	0
3	47434	98.71	0
3	47482	98.81	0
3	47530	98.91	0
3	47580	99.01	0
3	47628	99.11	0
3	47676	99.21	0
3	47724	99.31	0
3	47772	99.41	0
3	47820	99.51	0
3	47868	99.61	0
3	47916	99.71	0
3	47964	99.81	0
3	48012	99.91	0
4	113	1.11	-0.00437036
4	161	1.21	-0.00426837
4	209	1.31	-0.00410815
4	257	1.41	-0.00390303
4	305	1.51	-0.00366476
4	353	1.61	-0.00340356
4	401	1.71	-0.00312825
4	449	1.81	-0.00284628
4	497	1.91	-0.00256392
4	547	2.01	-0.0022863
4	595	2.11	-0.00201755
4	643	2.21	-0.00176089
4	691	2.31	-0.00151876
4	739	2.41	-0.00129289
4	787	2.51	-0.00108441
4	835	2.61	-0.00089393
4	883	2.71	-0.000721638
4	931	2.81	-0.000567355
4	979	2.91	-0.000430614
4	1029	3.01	-0.000310715
4	1077	3.11	-0.000206783
4	1125	3.21	-0.000117814
4	1173	3.31	-4.27149e-05
4	1221	3.41	1.96584e-05
4	1269	3.51	7.04736e-05
4	1317	3.61	0.000110896
4	1365	3.71	0.000142067
4	1413	3.81	0.00016509
4	1461	3.91	0.000181016
4	1511	4.01	0.000190834
4	1559	4.11	0.000195466
4	1607	4.21	0.00019576
4	1655	4.31	0.000192489
4	1703	4.41	0.000186354
4	1751	4.51	0.000177979
4	1799	4.61	0.000167916
4	1847	4.71	0.000156649
4	1895	4.81	0.000144597
4	1943	4.91	0.000132116
4	1993	5.01	0.000119508
4	2041	5.11	0.000107021
4	2089	5.21	9.48587e-05
4	2137	5.31	8.31796e-05
4	2185	5.41	7.21068e-05
4	2233	5.51	6.17299e-05
4	2281	5.61	5.21101e-05
4	2329	5.71	4.32839e-05
4	2377	5.81	3.52669e-05
4	2425	5.91	2.80577e-05
4	2475	6.01	2.16404e-05
4	2523	6.11	1.59878e-05
4	2571	6.21	1.1064e-05
4	2619	6.31	6.82631e-06
4	2667	6.41	3.22748e-06
4	2715	6.51	2.17307e-07
4	2763	6.61	-2.25598e-06
4	2811	6.71	-4.24448e-06
4	2859	6.81	-5.79961e-06
4	2907	6.91	-6.97134e-06
4	2957	7.01	-7.80753e-06
4	3005	7.11	-8.35346e-06
4	3053	7.21	-8.65149e-06
4	3101	7.31	-8.7408e-06
4	3149	7.41	-8.6573e-06
4	3197	7.51	-8.43352e-06
4	3245	7.61	-8.09868e-06
4	3293	7.71	-7.67874e-06
4	3341	7.81	-7.19651e-06
4	3389	7.91	-6.67185e-06
4	3439	8.01	-6.12177e-06
4	3487	8.11	-5.56072e-06
4	3535	8.21	-5.00073e-06
4	3583	8.31	-4.45164e-06
4	3631	8.41	-3.92136e-06
4	3679	8.51	-3.41601e-06
4	3727	8.61	-2.94018e-06
4	3775	8.71	-2.4971e-06
4	3823	8.81	-2.08883e-06
4	3871	8.91	-1.71644e-06
4	3921	9.01	-1.38016e-06
4	3969	9.11	-1.07955e-06
4	4017	9.21	-8.13576e-07
4	4065	9.31	-5.80794e-07
4	4113	9.41	-3.79414e-07
4	4161	9.51	-2.07408e-07
4	4209	9.61	-6.25825e-08
4	4257	9.71	5.73472e-08
4	4305	9.81	1.54703e-07
4	4353	9.91	2.31794e-07
4	4423	10.01	2.90877e-07
4	4472	10.11	3.3413e-07
4	4521	10.21	3.63618e-07
4	4570	10.31	3.81288e-07
4	4619	10.41	3.88944e-07
4	4668	10.51	3.88249e-07
4	4717	10.61	3.80715e-07
4	4766	10.71	3.67706e-07
4	4815	10.81	3.50439e-07
4	4864	10.91	3.29989e-07
4	4915	11.01	3.07294e-07
4	4964	11.11	2.83164e-07
4	5013	11.21	2.58291e-07
4	5062	11.31	2.33253e-07
4	5111	11.41	2.0853e-07
4	5160	11.51	1.84509e-07
4	5209	11.61	1.61493e-07
4	5258	11.71	1.39716e-07
4	5307	11.81	1.19345e-07
4	5356	11.91	1.00493e-07
4	5407	12.01	8.32259e-08
4	5456	12.11	6.75676e-08
4	5505	12.21	5.35106e-08
4	5554	12.31	4.10193e-08
4	5603	12.41	3.00361e-08
4	5652	12.51	2.04874e-08
4	5701	12.61	1.22867e-08
4	5750	12.71	5.33902e-09
4	5799	12.81	-4.56524e-10
4	5848	12.91	-5.20259e-09
4	5899	13.01	-9.00258e-09
4	5948	13.11	-1.19588e-08
4	5997	13.21	-1.41693e-08
4	6046	13.31	-1.57286e-08
4	6095	13.41	-1.67255e-08
4	6144	13.51	-1.72435e-08
4	6193	13.61	-1.73589e-08
4	6242	13.71	-1.71426e-08
4	6291	13.81	-1.66573e-08
4	6340	13.91	-1.59606e-08
4	6391	14.01	-1.51029e-08
4	6440	14.11	-1.41284e-08
4	6489	14.21	-1.30754e-08
4	6538	14.31	-1.19773e-08
4	6587	14.41	-1.08614e-08
4	6636	14.51	-9.75113e-09
4	6685	14.61	-8.66542e-09
4	6734	14.71	-7.61951e-09
4	6783	14.81	-6.62475e-09
4	6832	14.91	-5.69003e-09
4	6883	15.01	-4.82103e-09
4	6932	15.11	-4.02167e-09
4	6981	15.21	-3.29372e-09
4	7030	15.31	-2.63753e-09
4	7079	15.41	-2.05205e-09
4	7128	15.51	-1.53477e-09
4	7177	15.61	-1.08287e-09
4	7226	15.71	-6.92779e-10
4	7275	15.81	-3.606e-10
4	7324	15.91	-8.13571e-11
4	7375	16.01	1.49214e-10
4	7424	16.11	3.35731e-10
4	7473	16.21	4.82459e-10
4	7522	16.31	5.94369e-10
4	7571	16.41	6.75726e-10
4	7620	16.51	7.30083e-10
4	7669	16.61	7.61702e-10
4	7718	16.71	7.73781e-10
4	7767	16.81	7.70228e-10
4	7816	16.91	7.53175e-10
4	7867	17.01	7.25819e-10
4	7916	17.11	6.90292e-10
4	7965	17.21	6.48726e-10
4	8014	17.31	6.03251e-10
4	8063	17.41	5.54934e-10
4	8112	17.51	5.05196e-10
4	8161	17.61	4.55458e-10
4	8210	17.71	4.0643e-10
4	8259	17.81	3.58824e-10
4	8308	17.91	3.13349e-10
4	8359	18.01	2.70717e-10
4	8408	18.11	2.30571e-10
4	8457	18.21	1.93623e-10
4	8506	18.31	1.59872e-10
4	8555	18.41	1.29319e-10
4	8604	18.51	1.01963e-10
4	8653	18.61	7.78044e-11
4	8702	18.71	5.64881e-11
4	8751	18.81	3.8014e-11
4	8800	18.91	2.20268e-11
4	8851	19.01	8.88178e-12
4	8900	19.11	-2.4869e-12
4	8949	19.21	-1.13687e-11
4	8998	19.31	-1.88294e-11
4	9047	19.41	-2.45137e-11
4	9096	19.51	-2.8777e-11
4	9145	19.61	-3.16192e-11
4	9194	19.71	-3.33955e-11
4	9243	19.81	-3.44613e-11
4	9292	19.91	-3.44613e-11
4	9343	20.01	-3.41061e-11
4	9392	20.11	-3.30402e-11
4	9441	20.21	-3.16192e-11
4	9490	20.31	-3.01981e-11
4	9539	20.41	-2.80664e-11
4	9588	20.51	-2.59348e-11
4	9637	20.61	-2.41585e-11
4	9686	20.71	-2.20268e-11
4	9735	20.81	-1.98952e-11
4	9784	20.91	-1.77636e-11
4	9835	21.01	-1.59872e-11
4	9884	21.11	-1.38556e-11
4	9933	21.21	-1.1724e-11
4	9982	21.31	-9.9476e-12
4	10031	21.41	-8.17124e-12
4	10080	21.51	-6.39488e-12
4	10129	21.61	-4.9738e-12
4	10178	21.71	-3.55271e-12
4	10227	21.81	-2.4869e-12
4	10276	21.91	-1.42109e-12
4	10327	22.01	-3.55271e-13
4	10376	22.11	3.55271e-13
4	10425	22.21	1.42109e-12
4	10474	22.31	2.13163e-12
4	10523	22.41	2.84217e-12
4	10572	22.51	3.19744e-12
4	10621	22.61	3.90799e-12
4	10670	22.71	4.26326e-12
4	10719	22.81	4.61853e-12
4	10768	22.91	4.9738e-12
4	10819	23.01	5.32907e-12
4	10868	23.11	5.68434e-12
4	10917	23.21	6.03961e-12
4	10966	23.31	6.39488e-12
4	11015	23.41	6.75016e-12
4	11064	23.51	6.75016e-12
4	11113	23.61	7.10543e-12
4	11162	23.71	7.10543e-12
4	11211	23.81	7.4607e-12
4	11260	23.91	7.4607e-12
4	11311	24.01	7.81597e-12
4	11360	24.11	7.81597e-12
4	11409	24.21	7.81597e-12
4	11458	24.31	7.81597e-12
4	11507	24.41	8.17124e-12
4	11556	24.51	8.17124e-12
4	11605	24.61	8.17124e-12
4	11654	24.71	8.17124e-12
4	11703	24.81	8.17124e-12
4	11752	24.91	8.52651e-12
4	11803	25.01	8.52651e-12
4	11852	25.11	8.52651e-12
4	11901	25.21	8.52651e-12
4	11950	25.31	8.52651e-12
4	11999	25.41	8.52651e-12
4	12048	25.51	8.52651e-12
4	12097	25.61	8.52651e-12
4	12146	25.71	8.52651e-12
4	12195	25.81	8.52651e-12
4	12244	25.91	8.88178e-12
4	12295	26.01	8.88178e-12
4	12344	26.11	8.88178e-12
4	12393	26.21	8.88178e-12
4	12442	26.31	8.88178e-12
4	12491	26.41	8.88178e-12
4	12540	26.51	8.88178e-12
4	12589	26.61	8.88178e-12
4	12638	26.71	8.88178e-12
4	12687	26.81	8.88178e-12
4	12736	26.91	8.88178e-12
4	12787	27.01	8.88178e-12
4	12836	27.11	8.88178e-12
4	12885	27.21	8.88178e-12
4	12934	27.31	8.88178e-12
4	12983	27.41	8.88178e-12
4	13032	27.51	8.88178e-12
4	13081	27.61	8.88178e-12
4	13130	27.71	8.88178e-12
4	13179	27.81	8.88178e-12
4	13228	27.91	8.88178e-12
4	13279	28.01	8.88178e-12
4	13328	28.11	8.88178e-12
4	13377	28.21	8.88178e-12
4	13426	28.31	8.88178e-12
4	13475	28.41	8.88178e-12
4	13524	28.51	8.88178e-12
4	13573	28.61	8.88178e-12
4	13622	28.71	8.88178e-12
4	13671	28.81	8.88178e-12
4	13720	28.91	8.88178e-12
4	13771	29.01	8.88178e-12
4	13820	29.11	8.88178e-12
4	13869	29.21	8.88178e-12
4	13984	29.31	8.88178e-12
4	14032	29.41	8.88178e-12
4	14080	29.51	8.88178e-12
4	14128	29.61	8.88178e-12
4	14176	29.71	8.88178e-12
4	14224	29.81	8.88178e-12
4	14272	29.91	8.88178e-12
[...]
19	31310	65.249412802406	1
19	31358	65.349410664523	1
19	31406	65.449408529012	1
19	31454	65.549406395873	1
19	31502	65.649417265106	1
19	31550	65.749415136711	1
19	31598	65.849413010688	1
19	31646	65.949410887039	1
19	31696	66.049408765762	1
19	31744	66.149406646857	1
19	31792	66.249417530324	1
19	31840	66.349415416163	1
19	31888	66.449413304374	1
19	31936	66.549411194957	1
19	31984	66.649409087912	1
19	32032	66.749406983239	1
19	32080	66.849417880938	1
19	32128	66.949415781009	1
19	32178	67.049413683452	1
19	32226	67.149411588267	1
19	32274	67.249409495454	1
19	32322	67.349407405013	1
19	32370	67.449418316944	1
19	32418	67.549416231247	1
19	32466	67.649414147922	1
19	32514	67.749412066969	1
19	32562	67.849409988388	1
19	32610	67.949407912179	1
19	32660	68.049418838342	1
19	32708	68.149416766877	1
19	32756	68.249414697784	1
19	32804	68.349412631063	1
19	32852	68.449410566714	1
19	32900	68.549408504737	1
19	32948	68.649406445132	1
19	32996	68.749417387899	1
19	33044	68.849415333038	1
19	33092	68.949413280549	1
19	33142	69.049411230432	1
19	33190	69.149409182687	1
19	33238	69.249407137314	1
19	33286	69.349418094313	1
19	33334	69.449416053684	1
19	33382	69.549414015427	1
19	33430	69.649411979542	1
19	33478	69.749409946029	1
19	33526	69.849407914888	1
19	33574	69.949418886119	1
19	33624	70.049416859722	1
19	33672	70.149414835697	1
19	33720	70.249412814044	1
19	33768	70.349410794763	1
19	33816	70.449408777854	1
19	33864	70.549406763317	1
19	33912	70.649417751152	1
19	33960	70.74941574136	1
19	34008	70.849413733941	1
19	34056	70.949411728894	1
19	34106	71.049409726219	1
19	34154	71.149407725916	1
19	34202	71.249418727985	1
19	34250	71.349416732426	1
19	34298	71.449414739239	1
19	34346	71.549412748424	1
19	34394	71.649410759981	1
19	34442	71.74940877391	1
19	34490	71.849406790211	1
19	34538	71.949417808884	1
19	34588	72.049415829929	1
19	34636	72.149413853346	1
19	34684	72.249411879135	1
19	34732	72.349409907296	1
19	34780	72.449407937829	1
19	34828	72.549418970734	1
19	34876	72.649417006011	1
19	34924	72.74941504366	1
19	34972	72.849413083681	1
19	35020	72.949411126074	1
19	35070	73.049409170839	1
19	35118	73.149407217976	1
19	35166	73.249418267485	1
19	35214	73.349416319366	1
19	35262	73.449414373619	1
19	35310	73.549412430244	1
19	35358	73.649410489241	1
19	35406	73.74940855061	1
19	35454	73.849406614351	1
19	35502	73.949417680464	1
19	35552	74.049415748949	1
19	35600	74.149413819806	1
19	35648	74.249411893035	1
19	35696	74.349409968636	1
19	35744	74.449408046609	1
19	35792	74.549406126954	1
19	35840	74.649417209671	1
19	35888	74.74941529476	1
19	35936	74.849413382221	1
19	35984	74.949411472054	1
19	36034	75.049409564259	1
19	36082	75.149407658836	1
19	36130	75.249418755785	1
19	36178	75.349416855106	1
19	36226	75.449414956799	1
19	36274	75.549413060864	1
19	36322	75.649411167302	1
19	36370	75.749409276113	1
19	36418	75.849407387296	1
19	36466	75.949418500851	1
19	36516	76.049416616778	1
19	36564	76.149414735077	1
19	36612	76.249412855748	1
19	36660	76.349410978791	1
19	36708	76.449409104206	1
19	36756	76.549407231993	1
19	36804	76.649418362152	1
19	36852	76.749416494683	1
19	36900	76.849414629586	1
19	36948	76.949412766861	1
19	36998	77.049410906508	1
19	37046	77.149409048527	1
19	37094	77.249407192918	1
19	37142	77.349418339681	1
19	37190	77.449416488816	1
19	37238	77.549414640323	1
19	37286	77.649412794202	1
19	37334	77.749410950453	1
19	37382	77.849409109076	1
19	37430	77.949407270071	1
19	37480	78.049418433438	1
19	37528	78.149416599177	1
19	37576	78.249414767288	1
19	37624	78.349412937771	1
19	37672	78.449411110626	1
19	37720	78.549409285853	1
19	37768	78.649407463452	1
19	37816	78.749418643423	1
19	37864	78.849416825766	1
19	37912	78.949415010481	1
19	37962	79.049413197568	1
19	38010	79.149411387027	1
19	38058	79.249409578858	1
19	38106	79.349407773061	1
19	38154	79.449418969636	1
19	38202	79.549417168583	1
19	38250	79.649415369902	1
19	38298	79.749413573593	1
19	38346	79.849411779656	1
19	38394	79.949409988091	1
19	38444	80.049408198898	1
19	38492	80.149406412077	1
19	38540	80.249417627628	1
19	38588	80.349415845551	1
19	38636	80.449414065846	1
19	38684	80.549412288515	1
19	38732	80.649410513556	1
19	38780	80.749408740969	1
19	38828	80.849406970754	1
19	38876	80.949418202911	1
19	38926	81.04941643744	1
19	38974	81.149414674341	1
19	39022	81.249412913614	1
19	39070	81.349411155259	1
19	39118	81.449409399276	1
19	39166	81.549407645665	1
19	39214	81.649418894426	1
19	39262	81.749417145559	1
19	39310	81.849415399064	1
19	39358	81.949413654941	1
19	39408	82.04941191319	1
19	39456	82.149410173811	1
19	39504	82.249408436804	1
19	39552	82.349406702169	1
19	39600	82.449417969906	1
19	39648	82.549416240015	1
19	39696	82.649414512496	1
19	39744	82.749412787349	1
19	39792	82.849411064574	1
19	39840	82.949409344171	1
19	39890	83.04940762614	1
19	39938	83.149418910481	1
19	39986	83.249417197194	1
19	40034	83.349415486279	1
19	40082	83.449413777736	1
19	40130	83.549412071565	1
19	40178	83.649410367766	1
19	40226	83.749408666339	1
19	40274	83.849406967284	1
19	40322	83.949418270601	1
19	40372	84.04941657629	1
19	40420	84.149414884351	1
19	40468	84.249413194784	1
19	40516	84.349411507589	1
19	40564	84.449409822766	1
19	40612	84.549408140315	1
19	40660	84.649406460236	1
19	40708	84.749417782529	1
19	40756	84.849416107194	1
19	40804	84.949414434231	1
19	40854	85.04941276364	1
19	40902	85.149411095421	1
19	40950	85.249409429574	1
19	40998	85.349407766099	1
19	41046	85.449419104998	1
19	41094	85.549417446269	1
19	41142	85.649415789912	1
19	41190	85.749414135927	1
19	41238	85.849412484314	1
19	41286	85.949410835073	1
19	41336	86.049409188204	1
19	41384	86.149407543707	1
19	41432	86.249418901582	1
19	41480	86.349417261829	1
19	41528	86.449415624448	1
19	41576	86.549413989439	1
19	41624	86.649412356802	1
19	41672	86.749410726537	1
19	41720	86.849409098644	1
19	41768	86.949407473123	1
19	41818	87.049418849974	1
19	41866	87.149417229197	1
19	41914	87.249415610792	1
19	41962	87.349413994759	1
19	42010	87.449412381098	1
19	42058	87.549410769809	1
19	42106	87.649409160892	1
19	42154	87.749407554347	1
19	42202	87.849418950174	1
19	42250	87.949417348373	1
19	42300	88.049415748944	1
19	42348	88.149414151887	1
19	42396	88.249412557202	1
19	42444	88.349410964889	1
19	42492	88.449409374948	1
19	42540	88.549407787379	1
19	42588	88.649419202182	1
19	42636	88.749417619357	1
19	42684	88.849416038904	1
19	42732	88.949414460823	1
19	42782	89.049412885114	1
19	42830	89.149411311777	1
19	42878	89.249409740812	1
19	42926	89.349408172219	1
19	42974	89.449406605998	1
19	43022	89.549418042149	1
19	43070	89.649416480672	1
19	43118	89.749414921567	1
19	43166	89.849413364834	1
19	43214	89.949411810473	1
19	43264	90.049410258484	1
19	43312	90.149408708867	1
19	43360	90.249407161622	1
19	43408	90.349418616751	1
19	43456	90.449417074252	1
19	43504	90.549415534125	1
19	43552	90.64941399637	1
19	43600	90.749412460987	1
19	43648	90.849410927976	1
19	43696	90.949409397337	1
19	43746	91.04940786907	1
19	43794	91.149406343175	1
19	43842	91.249417819652	1
19	43890	91.349416298501	1
19	43938	91.449414779722	1
19	43986	91.549413263315	1
19	44034	91.64941174928	1
19	44082	91.749410237617	1
19	44130	91.849408728326	1
19	44178	91.949407221407	1
19	44228	92.04941871686	1
19	44276	92.149417214685	1
19	44324	92.249415714882	1
19	44372	92.349414217451	1
19	44420	92.449412722392	1
19	44468	92.549411229705	1
19	44516	92.64940973939	1
19	44564	92.749408251447	1
19	44612	92.849406765876	1
19	44660	92.949418282677	1
19	44710	93.04941680185	1
19	44758	93.149415323395	1
19	44806	93.249413847312	1
19	44854	93.349412373601	1
19	44902	93.449410902262	1
19	44950	93.549409433295	1
19	44998	93.6494079667	1
19	45046	93.749406502477	1
19	45094	93.849418040626	1
19	45142	93.949416581147	1
19	45192	94.04941512404	1
19	45240	94.149413669305	1
19	45288	94.249412216942	1
19	45336	94.349410766951	1
19	45384	94.449409319332	1
19	45432	94.549407874085	1
19	45480	94.64940643121	1
19	45528	94.749417990707	1
19	45576	94.849416552576	1
19	45624	94.949415116817	1
19	45674	95.04941368343	1
19	45722	95.149412252416	1
19	45770	95.249410823775	1
19	45818	95.349409397506	1
19	45866	95.449407973609	1
19	45914	95.549406552084	1
19	45962	95.649418132931	1
19	46010	95.74941671615	1
19	46058	95.849415301741	1
19	46106	95.949413889704	1
19	46156	96.049412480039	1
19	46204	96.149411072746	1
19	46252	96.249409667825	1
19	46300	96.349408265276	1
19	46348	96.449406865099	1
19	46396	96.549418467294	1
19	46444	96.649417071861	1
19	46492	96.7494156788	1
19	46540	96.849414288111	1
19	46588	96.949412899794	1
19	46638	97.049411513849	1
19	46686	97.149410130276	1
19	46734	97.249408749075	1
19	46782	97.349407370246	1
19	46830	97.449418993789	1
19	46878	97.549417619704	1
19	46926	97.649416247991	1
19	46974	97.74941487865	1
19	47022	97.849413511681	1
19	47070	97.949412147084	1
19	47120	98.049410784859	1
19	47168	98.149409425006	1
19	47216	98.249408067525	1
19	47264	98.349406712416	1
19	47312	98.449418359679	1
19	47360	98.549417009314	1
19	47408	98.649415661321	1
19	47456	98.7494143157	1
19	47504	98.849412972451	1
19	47552	98.949411631574	1
19	47602	99.049410293069	1
19	47650	99.149408956936	1
19	47698	99.249407623175	1
19	47746	99.349419291786	1
19	47794	99.449417962769	1
19	47842	99.549416636124	1
19	47890	99.649415311851	1
19	47938	99.74941398995	1
19	47986	99.849412670421	1
19	48034	99.949411353264	1
20	534	2	0
20	1016	3	0
20	1498	4	0
20	1980	5	0
20	2462	6	0
20	2944	7	0
20	3426	8	0
20	3908	9	0
20	4391	10	0
20	4901	11	0
20	5393	12	0
20	5885	13	0
20	6377	14	0
20	6869	15	0
20	7361	16	0
20	7853	17	0
20	8345	18	0
20	8837	19	0
20	9329	20	0
20	9821	21	0
20	10313	22	0
20	10805	23	0
20	11297	24	0
20	11789	25	0
20	12281	26	0
20	12773	27	0
20	13265	28	0
20	13757	29	0
20	14309	30	0
20	14791	31	0
20	15273	32	0
20	15755	33	0
20	16237	34	0
20	16719	35	0
20	17201	36	0
20	17683	37	0
20	18165	38	0
20	18647	39	0
20	19129	40	0
20	19611	41	0
20	20093	42	0
20	20575	43	0
20	21057	44	0
20	21539	45	0
20	22021	46	0
20	22503	47	0
20	22985	48	0
20	23467	49	0
20	23949	50	0
20	24431	51	0
20	24913	52	0
20	25395	53	0
20	25877	54	0
20	26359	55	0
20	26841	56	0
20	27323	57	0
20	27805	58	0
20	28287	59	0
20	28769	60	0
20	29251	61	0
20	29733	62	0
20	30215	63	0
20	30697	64	0
20	31179	65	0
20	31661	66	0
20	32143	67	0
20	32625	68	0
20	33107	69	0
20	33589	70	0
20	34071	71	0
20	34553	72	0
20	35035	73	0
20	35517	74	0
20	35999	75	0
20	36481	76	0
20	36963	77	0
20	37445	78	0
20	37927	79	0
20	38409	80	0
20	38891	81	0
20	39373	82	0
20	39855	83	0
20	40337	84	0
20	40819	85	0
20	41301	86	0
20	41783	87	0
20	42265	88	0
20	42747	89	0
20	43229	90	0
20	43711	91	0
20	44193	92	0
20	44675	93	0
20	45157	94	0
20	45639	95	0
20	46121	96	0
20	46603	97	0
20	47085	98	0
20	47567	99	0
20	48049	100	0
21	534	2	0.005496639757
21	1016	3	0.006253599752
21	1498	4	0.00625359976
21	1980	5	0.00625359976
21	2462	6	0.00624059976
21	2944	7	0.00625359976
21	3426	8	0.00625359976
21	3908	9	0.00624059976
21	4391	10	0.00625359976
21	4901	11	0.006299599589
21	5393	12	0.006253598104
21	5885	13	0.006253594836
21	6377	14	0.006240590347
21	6869	15	0.006253585232
21	7361	16	0.006253579941
21	7853	17	0.006240574762
21	8345	18	0.006253569866
21	8837	19	0.00625356535
21	9329	20	0.006253561248
21	9821	21	0.006240557572
21	10313	22	0.006253554314
21	10805	23	0.006253551439
21	11297	24	0.006253548919
21	11789	25	0.006240546724
21	12281	26	0.006253544815
21	12773	27	0.00625354316
21	13265	28	0.006240541731
21	13757	29	0.0062535405
21	14309	30	0.006539502881
21	14791	31	0.006253451671
21	15273	32	0.006253335036
21	15755	33	0.006240139021
21	16237	34	0.006252906181
21	16719	35	0.006252667848
21	17201	36	0.006252431623
21	17683	37	0.006252196456
21	18165	38	0.006238961071
21	18647	39	0.006251735903
21	19129	40	0.006251498706
21	19611	41	0.00625126149
21	20093	42	0.006251024278
21	20575	43	0.00625078707
21	21057	44	0.00625054987
21	21539	45	0.00625031267
21	22021	46	0.00625007547
21	22503	47	0.006249838257
21	22985	48	0.00624960105
21	23467	49	0.00624936385
21	23949	50	0.00624912665
21	24431	51	0.00624888945
21	24913	52	0.006248652234
21	25395	53	0.00624841503
21	25877	54	0.00624817783
21	26359	55	0.00626094063
21	26841	56	0.00624770343
21	27323	57	0.006247466212
21	27805	58	0.00624722901
21	28287	59	0.00624699181
21	28769	60	0.00625975461
21	29251	61	0.006246517409
21	29733	62	0.00624628019
21	30215	63	0.00625904299
21	30697	64	0.00624580579
21	31179	65	0.00624556859
21	31661	66	0.006258331387
21	32143	67	0.00624509417
21	32625	68	0.00624485697
21	33107	69	0.00625761977
21	33589	70	0.00624438257
21	34071	71	0.006257145364
21	34553	72	0.00624390815
21	35035	73	0.00625667095
21	35517	74	0.00624343375
21	35999	75	0.00625619655
21	36481	76	0.006242959342
21	36963	77	0.00625572213
21	37445	78	0.00624248493
21	37927	79	0.00625524773
21	38409	80	0.00625501053
21	38891	81	0.006241773319
21	39373	82	0.00625453611
21	39855	83	0.00624129891
21	40337	84	0.00625406171
21	40819	85	0.00625382451
21	41301	86	0.006253587297
21	41783	87	0.00624035009
21	42265	88	0.00625311289
21	42747	89	0.00625287569
21	43229	90	0.00625263849
21	43711	91	0.006239401275
21	44193	92	0.00625216407
21	44675	93	0.00625192687
21	45157	94	0.00625168967
21	45639	95	0.00625145247
21	46121	96	0.006251215252
21	46603	97	0.00625097805
21	47085	98	0.00625074085
21	47567	99	0.00625050365
21	48049	100	0.00625026645
22	534	2	0
22	1016	3	0
22	1498	4	0
22	1980	5	0
22	2462	6	0
22	2944	7	0
22	3426	8	0
22	3908	9	0
22	4391	10	0
22	4901	11	0
22	5393	12	0
22	5885	13	0
22	6377	14	0
22	6869	15	0
22	7361	16	0
22	7853	17	0
22	8345	18	0
22	8837	19	0
22	9329	20	0
22	9821	21	0
22	10313	22	0
22	10805	23	0
22	11297	24	0
22	11789	25	0
22	12281	26	0
22	12773	27	0
22	13265	28	0
22	13757	29	0
22	14309	30	0
22	14791	31	0
22	15273	32	0
22	15755	33	0
22	16237	34	0
22	16719	35	0
22	17201	36	0
22	17683	37	0
22	18165	38	0
22	18647	39	0
22	19129	40	0
22	19611	41	0
22	20093	42	0
22	20575	43	0
22	21057	44	0
22	21539	45	0
22	22021	46	0
22	22503	47	0
22	22985	48	0
22	23467	49	0
22	23949	50	0
22	24431	51	0
22	24913	52	0
22	25395	53	0
22	25877	54	0
22	26359	55	0
22	26841	56	0
22	27323	57	0
22	27805	58	0
22	28287	59	0
22	28769	60	0
22	29251	61	0
22	29733	62	0
22	30215	63	0
22	30697	64	0
22	31179	65	0
22	31661	66	0
22	32143	67	0
22	32625	68	0
22	33107	69	0
22	33589	70	0
22	34071	71	0
22	34553	72	0
22	35035	73	0
22	35517	74	0
22	35999	75	0
22	36481	76	0
22	36963	77	0
22	37445	78	0
22	37927	79	0
22	38409	80	0
22	38891	81	0
22	39373	82	0
22	39855	83	0
22	40337	84	0
22	40819	85	0
22	41301	86	0
22	41783	87	0
22	42265	88	0
22	42747	89	0
22	43229	90	0
22	43711	91	0
22	44193	92	0
22	44675	93	0
22	45157	94	0
22	45639	95	0
22	46121	96	0
22	46603	97	0
22	47085	98	0
22	47567	99	0
22	48049	100	0
23	535	2	1
23	1017	3	1
23	1499	4	1
23	1981	5	1
23	2463	6	1
23	2945	7	1
23	3427	8	1
23	3909	9	1
23	4392	10	1
23	4902	11	1
23	5394	12	1
23	5886	13	1
23	6378	14	1
23	6870	15	1
23	7362	16	1
23	7854	17	1
23	8346	18	1
23	8838	19	1
23	9330	20	1
23	9822	21	1
23	10314	22	1
23	10806	23	1
23	11298	24	1
23	11790	25	1
23	12282	26	1
23	12774	27	1
23	13266	28	1
23	13758	29	1
23	14310	30	1
23	14792	31	1
23	15274	32	1
23	15756	33	1
23	16238	34	1
23	16720	35	1
23	17202	36	1
23	17684	37	1
23	18166	38	1
23	18648	39	1
23	19130	40	1
23	19612	41	1
23	20094	42	1
23	20576	43	1
23	21058	44	1
23	21540	45	1
23	22022	46	1
23	22504	47	1
23	22986	48	1
23	23468	49	1
23	23950	50	1
23	24432	51	1
23	24914	52	1
23	25396	53	1
23	25878	54	1
23	26360	55	1
23	26842	56	1
23	27324	57	1
23	27806	58	1
23	28288	59	1
23	28770	60	1
23	29252	61	1
23	29734	62	1
23	30216	63	1
23	30698	64	1
23	31180	65	1
23	31662	66	1
23	32144	67	1
23	32626	68	1
23	33108	69	1
23	33590	70	1
23	34072	71	1
23	34554	72	1
23	35036	73	1
23	35518	74	1
23	36000	75	1
23	36482	76	1
23	36964	77	1
23	37446	78	1
23	37928	79	1
23	38410	80	1
23	38892	81	1
23	39374	82	1
23	39856	83	1
23	40338	84	1
23	40820	85	1
23	41302	86	1
23	41784	87	1
23	42266	88	1
23	42748	89	1
23	43230	90	1
23	43712	91	1
23	44194	92	1
23	44676	93	1
23	45158	94	1
23	45640	95	1
23	46122	96	1
23	46604	97	1
23	47086	98	1
23	47568	99	1
23	48050	100	1
24	535	2	0.00549665977
24	1017	3	0.006253599751
24	1499	4	0.00625359976
24	1981	5	0.00625359976
24	2463	6	0.00624059976
24	2945	7	0.00625359976
24	3427	8	0.00625359976
24	3909	9	0.00624059976
24	4392	10	0.00625359976
24	4902	11	0.006298599617
24	5394	12	0.006253598223
24	5886	13	0.006253595034
24	6378	14	0.006240590591
24	6870	15	0.006253585495
24	7362	16	0.006253580205
24	7854	17	0.006240575015
24	8346	18	0.006253570102
24	8838	19	0.006253565567
24	9330	20	0.006253561442
24	9822	21	0.006240557746
24	10314	22	0.006253554468
24	10806	23	0.006253551574
24	11298	24	0.006253549037
24	11790	25	0.006240546826
24	12282	26	0.006253544905
24	12774	27	0.006253543237
24	13266	28	0.006240541797
24	13758	29	0.006253540558
24	14310	30	0.006539505805
24	14792	31	0.006253455175
24	15274	32	0.006253342996
24	15756	33	0.006240150081
24	16238	34	0.006252918094
24	16720	35	0.00625267972
24	17202	36	0.006252443394
24	17684	37	0.006252208214
24	18166	38	0.006238972852
24	18648	39	0.006251747196
24	19130	40	0.006251510567
24	19612	41	0.00625127335
24	20094	42	0.006251036139
24	20576	43	0.00625079893
24	21058	44	0.00625056173
24	21540	45	0.00625032453
24	22022	46	0.00625008733
24	22504	47	0.006249850118
24	22986	48	0.00624961291
24	23468	49	0.00624937571
24	23950	50	0.00624913851
24	24432	51	0.00624890131
24	24914	52	0.006248664095
24	25396	53	0.00624842689
24	25878	54	0.00624818969
24	26360	55	0.00626095249
24	26842	56	0.00624771529
24	27324	57	0.006247478073
24	27806	58	0.00624724087
24	28288	59	0.00624700367
24	28770	60	0.00625976647
24	29252	61	0.00624652927
24	29734	62	0.00624629205
24	30216	63	0.00625905485
24	30698	64	0.00624581765
24	31180	65	0.00624558045
24	31662	66	0.006258343248
24	32144	67	0.00624510603
24	32626	68	0.00624486883
24	33108	69	0.00625763163
24	33590	70	0.00624439443
24	34072	71	0.006257157225
24	34554	72	0.00624392001
24	35036	73	0.00625668281
24	35518	74	0.00624344561
24	36000	75	0.00625620841
24	36482	76	0.006242971203
24	36964	77	0.00625573399
24	37446	78	0.00624249679
24	37928	79	0.00625525959
24	38410	80	0.00625502239
24	38892	81	0.00624178518
24	39374	82	0.00625454797
24	39856	83	0.00624131077
24	40338	84	0.00625407357
24	40820	85	0.00625383637
24	41302	86	0.006253599158
24	41784	87	0.00624036195
24	42266	88	0.00625312475
24	42748	89	0.00625288755
24	43230	90	0.00625265035
24	43712	91	0.006239413136
24	44194	92	0.00625217593
24	44676	93	0.00625193873
24	45158	94	0.00625170153
24	45640	95	0.00625146433
24	46122	96	0.006251227113
24	46604	97	0.00625098991
24	47086	98	0.00625075271
24	47568	99	0.00625051551
24	48050	100	0.00625027831
25	535	2	0
25	1017	3	0
25	1499	4	0
25	1981	5	0
25	2463	6	0
25	2945	7	0
25	3427	8	0
25	3909	9	0
25	4392	10	0
25	4902	11	0
25	5394	12	0
25	5886	13	0
25	6378	14	0
25	6870	15	0
25	7362	16	0
25	7854	17	0
25	8346	18	0
25	8838	19	0
25	9330	20	0
25	9822	21	0
25	10314	22	0
25	10806	23	0
25	11298	24	0
25	11790	25	0
25	12282	26	0
25	12774	27	0
25	13266	28	0
25	13758	29	0
25	14310	30	0
25	14792	31	0
25	15274	32	0
25	15756	33	0
25	16238	34	0
25	16720	35	0
25	17202	36	0
25	17684	37	0
25	18166	38	0
25	18648	39	0
25	19130	40	0
25	19612	41	0
25	20094	42	0
25	20576	43	0
25	21058	44	0
25	21540	45	0
25	22022	46	0
25	22504	47	0
25	22986	48	0
25	23468	49	0
25	23950	50	0
25	24432	51	0
25	24914	52	0
25	25396	53	0
25	25878	54	0
25	26360	55	0
25	26842	56	0
25	27324	57	0
25	27806	58	0
25	28288	59	0
25	28770	60	0
25	29252	61	0
25	29734	62	0
25	30216	63	0
25	30698	64	0
25	31180	65	0
25	31662	66	0
25	32144	67	0
25	32626	68	0
25	33108	69	0
25	33590	70	0
25	34072	71	0
25	34554	72	0
25	35036	73	0
25	35518	74	0
25	36000	75	0
25	36482	76	0
25	36964	77	0
25	37446	78	0
25	37928	79	0
25	38410	80	0
25	38892	81	0
25	39374	82	0
25	39856	83	0
25	40338	84	0
25	40820	85	0
25	41302	86	0
25	41784	87	0
25	42266	88	0
25	42748	89	0
25	43230	90	0
25	43712	91	0
25	44194	92	0
25	44676	93	0
25	45158	94	0
25	45640	95	0
25	46122	96	0
25	46604	97	0
25	47086	98	0
25	47568	99	0
25	48050	100	0

