version 3
run BreakRanksNoGui-26-20240708-18:12:39-157812
attr configname BreakRanksNoGui
attr datetime 20240708-18:12:39
attr datetimef 20240708-181239
attr experiment BreakRanksNoGui
attr inifile omnetpp.ini
attr iterationvars "$nCars=8, $platoonSize=8, $nLanes=1, $ploegH=0.5, $controller=1, $headway=0.1, $leaderHeadway=1.2, $leaderSpeed=130, $breakRanksSafetyDistance=10, $minSpeed=120, $maxSpeed=140, $beaconInterval=0.1, $priority=4, $packetSize=200, $sController=\"CACC\", $0=2, $1=0"
attr iterationvarsd nCars=8/platoonSize=8/nLanes=1/ploegH=0.5/controller=1/headway=0.1/leaderHeadway=1.2/leaderSpeed=130/breakRanksSafetyDistance=10/minSpeed=120/maxSpeed=140/beaconInterval=0.1/priority=4/packetSize=200/sController=CACC/2/0
attr iterationvarsf nCars=8,platoonSize=8,nLanes=1,ploegH=0.5,controller=1,headway=0.1,leaderHeadway=1.2,leaderSpeed=130,breakRanksSafetyDistance=10,minSpeed=120,maxSpeed=140,beaconInterval=0.1,priority=4,packetSize=200,sController=CACC,2,0-
attr measurement "$nCars=8, $platoonSize=8, $nLanes=1, $ploegH=0.5, $controller=1, $headway=0.1, $leaderHeadway=1.2, $leaderSpeed=130, $breakRanksSafetyDistance=10, $minSpeed=120, $maxSpeed=140, $beaconInterval=0.1, $priority=4, $packetSize=200, $sController=\"CACC\", $0=2, $1=0"
attr network Highway
attr processid 157812
attr repetition 6
attr replication #6
attr resultdir results
attr runnumber 26
attr seedset 6
itervar beaconInterval 0.1
itervar breakRanksSafetyDistance 10
itervar controller 1
itervar headway 0.1
itervar leaderHeadway 1.2
itervar leaderSpeed 130
itervar maxSpeed 140
itervar minSpeed 120
itervar nCars 8
itervar nLanes 1
itervar packetSize 200
itervar platoonSize 8
itervar ploegH 0.5
itervar priority 4
itervar sController "\"CACC\""
config image-path ../../../veins/images
config repeat 10
config extends BreakRanks
config *.manager.command "\"sumo\""
config *.manager.ignoreGuiCommands true
config output-vector-file results/BreakRanks_1_0.1_130_10/result_6.vec
config output-scalar-file results/BreakRanks_1_0.1_130_10/result_6.sca
config extends Platooning
config *.node[*].scenario_type "\"BreakRanksScenario\""
config *.manager.command "\"sumo-gui\""
config *.node[*].scenario_type "\"SimpleScenario\""
config cmdenv-express-mode true
config cmdenv-autoflush true
config cmdenv-status-frequency 15s
config num-rngs 6
config network Highway
config debug-on-errors true
config print-undisposed true
config *.playgroundSizeX 65000m
config *.playgroundSizeY 25000m
config *.playgroundSizeZ 50m
config sim-time-limit "100 s"
config *.annotations.draw false
config *.obstacles.debug false
config *.world.useTorus false
config *.world.use2D false
config *.manager.updateInterval 0.01s
config *.manager.host "\"localhost\""
config *.manager.moduleType "\"org.car2x.plexe.PlatoonCar\""
config *.manager.moduleName "\"node\""
config *.manager.moduleDisplayString "\"\""
config *.manager.autoShutdown true
config *.manager.margin 25
config *.connectionManager.sendDirect true
config *.connectionManager.maxInterfDist 2600m
config *.connectionManager.drawMaxIntfDist false
config *.**.nic.mac1609_4.useServiceChannel false
config *.**.nic.mac1609_4.txPower 100mW
config *.**.nic.mac1609_4.bitrate 6Mbps
config *.**.nic.mac1609_4.useAcks true
config *.**.nic.mac1609_4.ackErrorRate 0.0
config *.**.nic.mac1609_4.frameErrorRate 0.0
config *.**.nic.phy80211p.minPowerLevel -94dBm
config *.**.nic.phy80211p.maxTXPower 100mW
config *.**.nic.phy80211p.useNoiseFloor true
config *.**.nic.phy80211p.noiseFloor -95dBm
config *.**.nic.phy80211p.decider "xmldoc(\"config.xml\")"
config *.**.nic.phy80211p.analogueModels "xmldoc(\"config.xml\")"
config *.**.nic.phy80211p.usePropagationDelay true
config *.node[*].mobility.x 0
config *.node[*].mobility.y 0
config *.node[*].mobility.z 1.895
config seed-set 6
config **.seed 6
config *.node[*].prot.rng-0 2
config *.node[*].appl.rng-0 3
config *.node[*].scenario.rng-0 4
config **.traffic.rng-0 5
config *.manager.configFile "\"./sumocfg/freeway.sumo.cfg\""
config *.manager.launchConfig "xmldoc(\"./sumocfg/freeway.launchd.xml\")"
config **.numberOfCars 8
config **.numberOfCarsPerPlatoon 8
config **.numberOfLanes 1
config *.node[*].helper_type "\"PositionHelper\""
config *.node[*].scenario.caccC1 0.5
config *.node[*].scenario.caccXi 1
config *.node[*].scenario.caccOmegaN "0.2 Hz"
config *.node[*].scenario.caccSpacing "2 m"
config *.node[*].scenario.engineTau "0.5 s"
config *.node[*].scenario.ploegH 0.5s
config *.node[*].scenario.ploegKp 0.2
config *.node[*].scenario.ploegKd 0.7
config *.node[*].scenario.useRealisticEngine false
config *.node[*].scenario.useControllerAcceleration true
config *.node[*].scenario.nLanes 1
config **.numericController 1
config **.headway 0.1s
config *.node[*].scenario.accHeadway 0.1s
config *.node[*].scenario.leaderHeadway 1.2s
config *.node[*].scenario.leaderSpeed 130kmph
config *.node[*].appl_type "\"SimplePlatooningApp\""
config *.node[*].appl.*.scalar-recording true
config *.node[*].appl.*.vector-recording true
config *.node[0].appl.breakRanksSafetyDistance 10m
config *.node[*].appl.minSpeed 120kmph
config *.node[*].appl.maxSpeed 140kmph
config *.node[*].protocol_type "\"SimplePlatooningBeaconing\""
config *.node[*].prot.*.scalar-recording true
config *.node[*].prot.*.vector-recording true
config *.node[*].prot.beaconingInterval 0.1s
config *.node[*].prot.priority 4
config *.node[*].prot.packetSize 200
config **.traffic_type "\"PlatoonsTrafficManager\""
config **.traffic.platoonInsertTime "1 s"
config **.traffic.platoonInsertSpeed 130kmph
config **.traffic.nCars 8
config **.traffic.platoonSize 8
config **.traffic.nLanes 1
config **.traffic.platooningVType "\"vtypeauto\""
config **.traffic.controller "\"CACC\""
config **.traffic.platoonInsertDistance 2m
config **.traffic.platoonInsertHeadway 0s
config **.traffic.platoonLeaderHeadway 1.2s
config **.scalar-recording false
config **.vector-recording false
config output-vector-file results/BreakRanksNoGui_1_0.1_130_10/result_6.vec
config output-scalar-file results/BreakRanksNoGui_1_0.1_130_10/result_6.sca

vector 0 Highway.node[0].appl distance ETV
vector 1 Highway.node[0].appl relativeSpeed ETV
vector 2 Highway.node[0].appl nodeId ETV
vector 3 Highway.node[0].appl acceleration ETV
vector 4 Highway.node[0].appl controllerAcceleration ETV
vector 5 Highway.node[0].appl speed ETV
vector 6 Highway.node[0].appl posx ETV
vector 7 Highway.node[0].appl posy ETV
vector 8 Highway.node[1].appl distance ETV
vector 9 Highway.node[1].appl relativeSpeed ETV
vector 10 Highway.node[1].appl nodeId ETV
vector 11 Highway.node[1].appl acceleration ETV
vector 12 Highway.node[1].appl controllerAcceleration ETV
vector 13 Highway.node[1].appl speed ETV
vector 14 Highway.node[1].appl posx ETV
vector 15 Highway.node[1].appl posy ETV
vector 16 Highway.node[2].appl distance ETV
vector 17 Highway.node[2].appl relativeSpeed ETV
vector 18 Highway.node[2].appl nodeId ETV
vector 19 Highway.node[2].appl acceleration ETV
vector 20 Highway.node[2].appl controllerAcceleration ETV
vector 21 Highway.node[2].appl speed ETV
vector 22 Highway.node[2].appl posx ETV
vector 23 Highway.node[2].appl posy ETV
vector 24 Highway.node[3].appl distance ETV
vector 25 Highway.node[3].appl relativeSpeed ETV
vector 26 Highway.node[3].appl nodeId ETV
vector 27 Highway.node[3].appl acceleration ETV
vector 28 Highway.node[3].appl controllerAcceleration ETV
vector 29 Highway.node[3].appl speed ETV
vector 30 Highway.node[3].appl posx ETV
vector 31 Highway.node[3].appl posy ETV
vector 32 Highway.node[4].appl distance ETV
vector 33 Highway.node[4].appl relativeSpeed ETV
vector 34 Highway.node[4].appl nodeId ETV
vector 35 Highway.node[4].appl acceleration ETV
vector 36 Highway.node[4].appl controllerAcceleration ETV
vector 37 Highway.node[4].appl speed ETV
vector 38 Highway.node[4].appl posx ETV
vector 39 Highway.node[4].appl posy ETV
vector 40 Highway.node[5].appl distance ETV
vector 41 Highway.node[5].appl relativeSpeed ETV
vector 42 Highway.node[5].appl nodeId ETV
vector 43 Highway.node[5].appl acceleration ETV
vector 44 Highway.node[5].appl controllerAcceleration ETV
vector 45 Highway.node[5].appl speed ETV
vector 46 Highway.node[5].appl posx ETV
vector 47 Highway.node[5].appl posy ETV
vector 48 Highway.node[6].appl distance ETV
vector 49 Highway.node[6].appl relativeSpeed ETV
vector 50 Highway.node[6].appl nodeId ETV
vector 51 Highway.node[6].appl acceleration ETV
vector 52 Highway.node[6].appl controllerAcceleration ETV
vector 53 Highway.node[6].appl speed ETV
vector 54 Highway.node[6].appl posx ETV
vector 55 Highway.node[6].appl posy ETV
vector 56 Highway.node[7].appl distance ETV
vector 57 Highway.node[7].appl relativeSpeed ETV
vector 58 Highway.node[7].appl nodeId ETV
vector 59 Highway.node[7].appl acceleration ETV
vector 60 Highway.node[7].appl controllerAcceleration ETV
vector 61 Highway.node[7].appl speed ETV
vector 62 Highway.node[7].appl posx ETV
vector 63 Highway.node[7].appl posy ETV
vector 64 Highway.node[1].prot leaderDelay ETV
vector 65 Highway.node[1].prot leaderDelayId ETV
vector 66 Highway.node[1].prot frontDelay ETV
vector 67 Highway.node[1].prot frontDelayId ETV
vector 68 Highway.node[2].prot leaderDelay ETV
vector 69 Highway.node[2].prot leaderDelayId ETV
vector 70 Highway.node[3].prot leaderDelay ETV
vector 71 Highway.node[3].prot leaderDelayId ETV
vector 72 Highway.node[4].prot leaderDelay ETV
vector 73 Highway.node[4].prot leaderDelayId ETV
vector 74 Highway.node[5].prot leaderDelay ETV
vector 75 Highway.node[5].prot leaderDelayId ETV
vector 76 Highway.node[6].prot leaderDelay ETV
vector 77 Highway.node[6].prot leaderDelayId ETV
vector 78 Highway.node[7].prot leaderDelay ETV
vector 79 Highway.node[7].prot leaderDelayId ETV
vector 80 Highway.node[7].prot frontDelay ETV
vector 81 Highway.node[7].prot frontDelayId ETV
vector 82 Highway.node[3].prot frontDelay ETV
vector 83 Highway.node[3].prot frontDelayId ETV
vector 84 Highway.node[6].prot frontDelay ETV
vector 85 Highway.node[6].prot frontDelayId ETV
vector 86 Highway.node[2].prot frontDelay ETV
vector 87 Highway.node[2].prot frontDelayId ETV
vector 88 Highway.node[4].prot frontDelay ETV
vector 89 Highway.node[4].prot frontDelayId ETV
vector 90 Highway.node[5].prot frontDelay ETV
vector 91 Highway.node[5].prot frontDelayId ETV
vector 92 Highway.node[0].prot nodeId ETV
vector 93 Highway.node[0].prot busyTime ETV
vector 94 Highway.node[0].prot collisions ETV
vector 95 Highway.node[1].prot nodeId ETV
vector 96 Highway.node[1].prot busyTime ETV
vector 97 Highway.node[1].prot collisions ETV
vector 98 Highway.node[2].prot nodeId ETV
vector 99 Highway.node[2].prot busyTime ETV
vector 100 Highway.node[2].prot collisions ETV
vector 101 Highway.node[3].prot nodeId ETV
vector 102 Highway.node[3].prot busyTime ETV
vector 103 Highway.node[3].prot collisions ETV
vector 104 Highway.node[4].prot nodeId ETV
vector 105 Highway.node[4].prot busyTime ETV
vector 106 Highway.node[4].prot collisions ETV
vector 107 Highway.node[5].prot nodeId ETV
vector 108 Highway.node[5].prot busyTime ETV
vector 109 Highway.node[5].prot collisions ETV
vector 110 Highway.node[6].prot nodeId ETV
vector 111 Highway.node[6].prot busyTime ETV
vector 112 Highway.node[6].prot collisions ETV
vector 113 Highway.node[7].prot nodeId ETV
vector 114 Highway.node[7].prot busyTime ETV
vector 115 Highway.node[7].prot collisions ETV
0	113	1.11	-1
0	659	1.21	-1
0	1205	1.31	-1
0	1751	1.41	-1
0	2297	1.51	-1
0	2843	1.61	-1
0	3389	1.71	-1
0	3935	1.81	-1
0	4481	1.91	-1
0	5035	2.01	-1
0	5581	2.11	-1
0	6127	2.21	-1
0	6673	2.31	-1
0	7219	2.41	-1
0	7765	2.51	-1
0	8311	2.61	-1
0	8857	2.71	-1
0	9403	2.81	-1
0	9949	2.91	-1
0	10503	3.01	-1
0	11049	3.11	-1
0	11595	3.21	-1
0	12141	3.31	-1
0	12687	3.41	-1
0	13233	3.51	-1
0	13779	3.61	-1
0	14325	3.71	-1
0	14871	3.81	-1
0	15417	3.91	-1
0	15971	4.01	-1
0	16517	4.11	-1
0	17063	4.21	-1
0	17609	4.31	-1
0	18155	4.41	-1
0	18701	4.51	-1
0	19247	4.61	-1
0	19793	4.71	-1
0	20339	4.81	-1
0	20885	4.91	-1
0	21439	5.01	-1
0	21985	5.11	-1
0	22531	5.21	-1
0	23077	5.31	-1
0	23623	5.41	-1
0	24169	5.51	-1
0	24715	5.61	-1
0	25261	5.71	-1
0	25807	5.81	-1
0	26353	5.91	-1
0	26907	6.01	-1
0	27453	6.11	-1
0	27999	6.21	-1
0	28545	6.31	-1
0	29091	6.41	-1
0	29637	6.51	-1
0	30183	6.61	-1
0	30729	6.71	-1
0	31275	6.81	-1
0	31821	6.91	-1
0	32375	7.01	-1
0	32921	7.11	-1
0	33467	7.21	-1
0	34013	7.31	-1
0	34559	7.41	-1
0	35105	7.51	-1
0	35651	7.61	-1
0	36197	7.71	-1
0	36743	7.81	-1
0	37289	7.91	-1
0	37843	8.01	-1
0	38389	8.11	-1
0	38935	8.21	-1
0	39481	8.31	-1
0	40027	8.41	-1
0	40573	8.51	-1
0	41119	8.61	-1
0	41665	8.71	-1
0	42211	8.81	-1
0	42757	8.91	-1
0	43311	9.01	-1
0	43857	9.11	-1
0	44403	9.21	-1
0	44949	9.31	-1
0	45495	9.41	-1
0	46041	9.51	-1
0	46587	9.61	-1
0	47133	9.71	-1
0	47679	9.81	-1
0	48225	9.91	-1
0	48853	10.01	-1
0	49406	10.11	-1
0	49959	10.21	-1
0	50512	10.31	-1
0	51065	10.41	-1
0	51618	10.51	-1
0	52171	10.61	-1
0	52724	10.71	-1
0	53277	10.81	-1
0	53830	10.91	-1
0	54391	11.01	-1
0	54944	11.11	-1
0	55497	11.21	-1
0	56050	11.31	-1
0	56603	11.41	-1
0	57156	11.51	-1
0	57709	11.61	-1
0	58262	11.71	-1
0	58815	11.81	-1
0	59368	11.91	-1
0	59929	12.01	-1
0	60482	12.11	-1
0	61035	12.21	-1
0	61588	12.31	-1
0	62141	12.41	-1
0	62694	12.51	-1
0	63247	12.61	-1
0	63800	12.71	-1
0	64353	12.81	-1
0	64906	12.91	-1
0	65467	13.01	-1
0	66020	13.11	-1
0	66573	13.21	-1
0	67126	13.31	-1
0	67679	13.41	-1
0	68232	13.51	-1
0	68785	13.61	-1
0	69338	13.71	-1
0	69891	13.81	-1
0	70444	13.91	-1
0	71005	14.01	-1
0	71558	14.11	-1
0	72111	14.21	-1
0	72664	14.31	-1
0	73217	14.41	-1
0	73770	14.51	-1
0	74323	14.61	-1
0	74876	14.71	-1
0	75429	14.81	-1
0	75982	14.91	-1
0	76543	15.01	-1
0	77096	15.11	-1
0	77649	15.21	-1
0	78202	15.31	-1
0	78755	15.41	-1
0	79308	15.51	-1
0	79861	15.61	-1
0	80414	15.71	-1
0	80967	15.81	-1
0	81520	15.91	-1
0	82081	16.01	-1
0	82634	16.11	-1
0	83187	16.21	-1
0	83740	16.31	-1
0	84293	16.41	-1
0	84846	16.51	-1
0	85399	16.61	-1
0	85952	16.71	-1
0	86505	16.81	-1
0	87058	16.91	-1
0	87619	17.01	-1
0	88172	17.11	-1
0	88725	17.21	-1
0	89278	17.31	-1
0	89831	17.41	-1
0	90384	17.51	-1
0	90937	17.61	-1
0	91490	17.71	-1
0	92043	17.81	-1
0	92596	17.91	-1
0	93157	18.01	-1
0	93710	18.11	-1
0	94263	18.21	-1
0	94816	18.31	-1
0	95369	18.41	-1
0	95922	18.51	-1
0	96475	18.61	-1
0	97028	18.71	-1
0	97581	18.81	-1
0	98134	18.91	-1
0	98695	19.01	-1
0	99248	19.11	-1
0	99801	19.21	-1
0	100354	19.31	-1
0	100907	19.41	-1
0	101460	19.51	-1
0	102013	19.61	-1
0	102566	19.71	-1
0	103119	19.81	-1
0	103672	19.91	-1
0	104233	20.01	-1
0	104786	20.11	-1
0	105339	20.21	-1
0	105892	20.31	-1
0	106445	20.41	-1
0	106998	20.51	-1
0	107551	20.61	-1
0	108104	20.71	-1
0	108657	20.81	-1
0	109210	20.91	-1
0	109771	21.01	-1
0	110324	21.11	-1
0	110877	21.21	-1
0	111430	21.31	-1
0	111983	21.41	-1
0	112536	21.51	-1
0	113089	21.61	-1
0	113642	21.71	-1
0	114195	21.81	-1
0	114748	21.91	-1
0	115309	22.01	-1
0	115862	22.11	-1
0	116415	22.21	-1
0	116968	22.31	-1
0	117521	22.41	-1
0	118074	22.51	-1
0	118627	22.61	-1
0	119180	22.71	-1
0	119733	22.81	-1
0	120286	22.91	-1
0	120847	23.01	-1
0	121400	23.11	-1
0	121953	23.21	-1
0	122506	23.31	-1
0	123059	23.41	-1
0	123612	23.51	-1
0	124165	23.61	-1
0	124718	23.71	-1
0	125271	23.81	-1
0	125824	23.91	-1
0	126385	24.01	-1
0	126938	24.11	-1
0	127491	24.21	-1
0	128044	24.31	-1
0	128597	24.41	-1
0	129150	24.51	-1
0	129703	24.61	-1
0	130256	24.71	-1
0	130809	24.81	-1
0	131362	24.91	-1
0	131923	25.01	-1
0	132476	25.11	-1
0	133029	25.21	-1
0	133582	25.31	-1
0	134135	25.41	-1
0	134688	25.51	-1
0	135241	25.61	-1
0	135794	25.71	-1
0	136347	25.81	-1
0	136900	25.91	-1
0	137461	26.01	-1
0	138014	26.11	-1
0	138567	26.21	-1
0	139120	26.31	-1
0	139673	26.41	-1
0	140226	26.51	-1
0	140779	26.61	-1
0	141332	26.71	-1
0	141885	26.81	-1
0	142438	26.91	-1
0	142999	27.01	-1
0	143552	27.11	-1
0	144105	27.21	-1
0	144658	27.31	-1
0	145211	27.41	-1
0	145764	27.51	-1
0	146317	27.61	-1
0	146870	27.71	-1
0	147423	27.81	-1
0	147976	27.91	-1
0	148537	28.01	-1
0	149090	28.11	-1
0	149643	28.21	-1
0	150196	28.31	-1
0	150749	28.41	-1
0	151302	28.51	-1
0	151855	28.61	-1
0	152408	28.71	-1
0	152961	28.81	-1
0	153514	28.91	-1
0	154075	29.01	-1
0	154628	29.11	-1
0	155181	29.21	-1
0	155734	29.31	-1
0	156287	29.41	-1
0	156840	29.51	-1
0	157393	29.61	-1
0	157946	29.71	-1
0	158499	29.81	-1
0	159052	29.91	-1
0	159613	30.01	-1
0	160166	30.11	-1
0	160719	30.21	-1
0	161272	30.31	-1
0	161825	30.41	-1
0	162378	30.51	-1
0	162931	30.61	-1
0	163484	30.71	-1
0	164037	30.81	-1
0	164590	30.91	-1
0	165151	31.01	-1
0	165704	31.11	-1
0	166257	31.21	-1
0	166810	31.31	-1
0	167363	31.41	-1
0	167916	31.51	-1
0	168469	31.61	-1
0	169022	31.71	-1
0	169575	31.81	-1
0	170128	31.91	-1
0	170689	32.01	-1
0	171242	32.11	-1
0	171795	32.21	-1
0	172348	32.31	-1
0	172901	32.41	-1
0	173454	32.51	-1
0	174007	32.61	-1
0	174560	32.71	-1
0	175113	32.81	-1
0	175666	32.91	-1
0	176227	33.01	-1
0	176780	33.11	-1
0	177333	33.21	-1
0	177886	33.31	-1
0	178439	33.41	-1
0	178992	33.51	-1
0	179545	33.61	-1
0	180098	33.71	-1
0	180651	33.81	-1
0	181204	33.91	-1
0	181765	34.01	-1
0	182318	34.11	-1
0	182871	34.21	-1
0	183424	34.31	-1
0	183977	34.41	-1
0	184530	34.51	-1
0	185083	34.61	-1
0	185636	34.71	-1
0	186189	34.81	-1
0	186742	34.91	-1
0	187303	35.01	-1
0	187856	35.11	-1
0	188409	35.21	-1
0	188962	35.31	-1
0	189515	35.41	-1
0	190068	35.51	-1
0	190621	35.61	-1
0	191174	35.71	-1
0	191727	35.81	-1
0	192280	35.91	-1
0	192841	36.01	-1
0	193394	36.11	-1
0	193947	36.21	-1
0	194500	36.31	-1
0	195053	36.41	-1
0	195606	36.51	-1
0	196159	36.61	-1
0	196712	36.71	-1
0	197265	36.81	-1
0	197818	36.91	-1
0	198379	37.01	-1
0	198932	37.11	-1
0	199485	37.21	-1
0	200038	37.31	-1
0	200591	37.41	-1
0	201144	37.51	-1
0	201697	37.61	-1
0	202250	37.71	-1
0	202803	37.81	-1
0	203356	37.91	-1
0	203917	38.01	-1
0	204470	38.11	-1
0	205023	38.21	-1
0	205576	38.31	-1
0	206129	38.41	-1
0	206682	38.51	-1
0	207235	38.61	-1
0	207788	38.71	-1
0	208341	38.81	-1
0	208894	38.91	-1
0	209455	39.01	-1
0	210008	39.11	-1
0	210561	39.21	-1
0	211114	39.31	-1
0	211667	39.41	-1
0	212220	39.51	-1
0	212773	39.61	-1
0	213326	39.71	-1
0	213879	39.81	-1
0	214432	39.91	-1
0	214993	40.01	-1
0	215546	40.11	-1
0	216099	40.21	-1
0	216652	40.31	-1
0	217205	40.41	-1
0	217758	40.51	-1
0	218311	40.61	-1
0	218864	40.71	-1
0	219417	40.81	-1
0	219970	40.91	-1
0	220531	41.01	-1
0	221084	41.11	-1
0	221637	41.21	-1
0	222190	41.31	-1
0	222743	41.41	-1
0	223296	41.51	-1
0	223849	41.61	-1
0	224402	41.71	-1
0	224955	41.81	-1
0	225508	41.91	-1
0	226069	42.01	-1
0	226622	42.11	-1
0	227175	42.21	-1
0	227728	42.31	-1
0	228281	42.41	-1
0	228834	42.51	-1
0	229387	42.61	-1
0	230033	42.71	-1
0	230585	42.81	-1
0	231137	42.91	-1
0	231697	43.01	-1
0	232249	43.11	-1
0	232801	43.21	-1
0	233353	43.31	-1
0	233905	43.41	-1
0	234457	43.51	-1
0	235009	43.61	-1
0	235561	43.71	-1
0	236113	43.81	-1
0	236665	43.91	-1
0	237225	44.01	-1
0	237777	44.11	-1
0	238329	44.21	-1
0	238881	44.31	-1
0	239433	44.41	-1
0	239985	44.51	-1
0	240537	44.61	-1
0	241089	44.71	-1
0	241641	44.81	-1
0	242193	44.91	-1
0	242753	45.01	-1
0	243305	45.11	-1
0	243857	45.21	-1
0	244409	45.31	-1
0	244961	45.41	-1
0	245513	45.51	-1
0	246065	45.61	-1
0	246617	45.71	-1
0	247169	45.81	-1
0	247721	45.91	-1
0	248281	46.01	-1
0	248833	46.11	-1
0	249385	46.21	-1
0	249937	46.31	-1
0	250489	46.41	-1
0	251041	46.51	-1
0	251593	46.61	-1
0	252145	46.71	-1
0	252697	46.81	-1
0	253249	46.91	-1
0	253809	47.01	-1
0	254361	47.11	-1
0	254913	47.21	-1
0	255465	47.31	-1
0	256017	47.41	-1
0	256569	47.51	-1
0	257121	47.61	-1
0	257673	47.71	-1
0	258225	47.81	-1
0	258777	47.91	-1
0	259337	48.01	-1
0	259889	48.11	-1
0	260441	48.21	-1
0	260993	48.31	-1
0	261545	48.41	-1
0	262190	48.51	-1
0	262741	48.61	-1
0	263292	48.71	-1
0	263843	48.81	-1
0	264394	48.91	-1
0	264953	49.01	-1
0	265504	49.11	-1
0	266055	49.21	-1
0	266606	49.31	-1
0	267157	49.41	-1
0	267708	49.51	-1
0	268259	49.61	-1
0	268810	49.71	-1
0	269361	49.81	-1
0	269912	49.91	-1
0	270471	50.01	-1
0	271022	50.11	-1
0	271573	50.21	-1
0	272124	50.31	-1
0	272675	50.41	-1
0	273226	50.51	-1
0	273777	50.61	-1
0	274328	50.71	-1
0	274879	50.81	-1
0	275430	50.91	-1
0	275989	51.01	-1
0	276540	51.11	-1
0	277091	51.21	-1
0	277642	51.31	-1
0	278193	51.41	-1
0	278744	51.51	-1
0	279295	51.61	-1
0	279846	51.71	-1
0	280397	51.81	-1
0	280948	51.91	-1
0	281507	52.01	-1
0	282058	52.11	-1
0	282609	52.21	-1
0	283160	52.31	-1
0	283711	52.41	-1
0	284262	52.51	-1
0	284813	52.61	-1
0	285364	52.71	-1
0	285915	52.81	-1
0	286466	52.91	-1
0	287025	53.01	-1
0	287576	53.11	-1
0	288127	53.21	-1
0	288678	53.31	-1
0	289229	53.41	-1
0	289780	53.51	-1
0	290331	53.61	-1
0	290882	53.71	-1
0	291526	53.81	-1
0	292076	53.91	-1
0	292634	54.01	-1
0	293184	54.11	-1
0	293734	54.21	-1
0	294284	54.31	-1
0	294834	54.41	-1
0	295384	54.51	-1
0	295934	54.61	-1
0	296484	54.71	-1
0	297034	54.81	-1
0	297584	54.91	-1
0	298142	55.01	-1
0	298692	55.11	-1
0	299242	55.21	-1
0	299792	55.31	-1
0	300342	55.41	-1
0	300892	55.51	-1
0	301442	55.61	-1
0	301992	55.71	-1
0	302542	55.81	-1
0	303092	55.91	-1
0	303650	56.01	-1
0	304200	56.11	-1
0	304750	56.21	-1
0	305300	56.31	-1
0	305850	56.41	-1
0	306400	56.51	-1
0	306950	56.61	-1
0	307500	56.71	-1
0	308050	56.81	-1
0	308600	56.91	-1
0	309158	57.01	-1
0	309708	57.11	-1
0	310258	57.21	-1
0	310808	57.31	-1
0	311358	57.41	-1
0	311908	57.51	-1
0	312458	57.61	-1
0	313008	57.71	-1
0	313558	57.81	-1
0	314108	57.91	-1
0	314666	58.01	-1
0	315216	58.11	-1
0	315766	58.21	-1
0	316316	58.31	-1
0	316866	58.41	-1
0	317416	58.51	-1
0	318076	58.61	-1
0	318625	58.71	-1
0	319174	58.81	-1
0	319723	58.91	-1
0	320280	59.01	-1
0	320829	59.11	-1
0	321378	59.21	-1
0	321927	59.31	-1
0	322476	59.41	-1
0	323025	59.51	-1
0	323574	59.61	-1
0	324123	59.71	-1
0	324672	59.81	-1
0	325221	59.91	-1
0	325778	60.01	-1
0	326327	60.11	-1
0	326876	60.21	-1
0	327425	60.31	-1
0	327974	60.41	-1
0	328523	60.51	-1
0	329072	60.61	-1
0	329621	60.71	-1
0	330170	60.81	-1
0	330719	60.91	-1
0	331276	61.01	-1
0	331825	61.11	-1
0	332374	61.21	-1
0	332923	61.31	-1
0	333472	61.41	-1
0	334021	61.51	-1
0	334570	61.61	-1
0	335119	61.71	-1
0	335668	61.81	-1
0	336217	61.91	-1
0	336774	62.01	-1
0	337323	62.11	-1
0	337872	62.21	-1
0	338421	62.31	-1
0	338970	62.41	-1
0	339519	62.51	-1
0	340068	62.61	-1
0	340617	62.71	-1
0	341166	62.81	-1
0	341715	62.91	-1
0	342272	63.01	-1
0	342821	63.11	-1
0	343370	63.21	-1
0	344012	63.31	-1
0	344560	63.41	-1
0	345108	63.51	-1
0	345656	63.61	-1
0	346204	63.71	-1
0	346752	63.81	-1
0	347300	63.91	-1
0	347856	64.01	-1
0	348404	64.11	-1
0	348952	64.21	-1
0	349500	64.31	-1
0	350048	64.41	-1
0	350596	64.51	-1
0	351144	64.61	-1
0	351692	64.71	-1
0	352240	64.81	-1
0	352788	64.91	-1
0	353344	65.01	-1
0	353892	65.11	-1
0	354440	65.21	-1
0	354988	65.31	-1
0	355536	65.41	-1
0	356084	65.51	-1
0	356632	65.61	-1
0	357180	65.71	-1
0	357728	65.81	-1
0	358276	65.91	-1
0	358832	66.01	-1
0	359380	66.11	-1
0	359928	66.21	-1
0	360476	66.31	-1
0	361024	66.41	-1
0	361572	66.51	-1
0	362120	66.61	-1
0	362668	66.71	-1
0	363216	66.81	-1
0	363764	66.91	-1
0	364320	67.01	-1
0	364868	67.11	-1
0	365416	67.21	-1
0	365964	67.31	-1
0	366512	67.41	-1
0	367060	67.51	-1
0	367608	67.61	-1
0	368156	67.71	-1
0	368797	67.81	-1
0	369344	67.91	-1
0	369899	68.01	-1
0	370446	68.11	-1
0	370993	68.21	-1
0	371540	68.31	-1
0	372087	68.41	-1
0	372634	68.51	-1
0	373181	68.61	-1
0	373728	68.71	-1
0	374275	68.81	-1
0	374822	68.91	-1
0	375377	69.01	-1
0	375924	69.11	-1
0	376471	69.21	-1
0	377018	69.31	-1
0	377565	69.41	-1
0	378112	69.51	-1
0	378659	69.61	-1
0	379206	69.71	-1
0	379753	69.81	-1
0	380300	69.91	-1
0	380855	70.01	-1
0	381402	70.11	-1
0	381949	70.21	-1
0	382496	70.31	-1
0	383043	70.41	-1
0	383590	70.51	-1
0	384137	70.61	-1
0	384684	70.71	-1
0	385231	70.81	-1
0	385778	70.91	-1
0	386333	71.01	-1
0	386880	71.11	-1
0	387427	71.21	-1
0	387974	71.31	-1
0	388521	71.41	-1
0	389068	71.51	-1
0	389615	71.61	-1
0	390162	71.71	-1
0	390709	71.81	-1
0	391256	71.91	-1
0	391811	72.01	-1
0	393128	72.11	-1
0	393674	72.21	-1
0	394220	72.31	-1
0	394766	72.41	-1
0	395312	72.51	-1
0	395858	72.61	-1
0	396404	72.71	-1
0	396950	72.81	-1
0	397496	72.91	-1
0	398050	73.01	-1
0	398596	73.11	-1
0	399142	73.21	-1
0	399688	73.31	-1
0	400234	73.41	-1
0	400780	73.51	-1
0	401326	73.61	-1
0	401872	73.71	-1
0	402418	73.81	-1
0	402964	73.91	-1
0	403518	74.01	-1
0	404064	74.11	-1
0	404610	74.21	-1
0	405156	74.31	-1
0	405702	74.41	-1
0	406248	74.51	-1
0	406794	74.61	-1
0	407340	74.71	-1
0	407886	74.81	-1
0	408432	74.91	-1
0	408986	75.01	-1
0	409532	75.11	-1
0	410078	75.21	-1
0	410624	75.31	-1
0	411170	75.41	-1
0	411716	75.51	-1
0	412262	75.61	-1
0	412808	75.71	-1
0	413354	75.81	-1
0	413900	75.91	-1
0	414454	76.01	-1
0	415000	76.11	-1
0	415546	76.21	-1
0	416092	76.31	-1
0	416638	76.41	-1
0	417184	76.51	-1
0	417730	76.61	-1
0	418276	76.71	-1
0	418822	76.81	-1
0	419368	76.91	-1
0	419922	77.01	-1
0	420468	77.11	-1
0	421014	77.21	-1
0	421560	77.31	-1
0	422106	77.41	-1
0	422652	77.51	-1
0	423198	77.61	-1
0	423744	77.71	-1
0	424290	77.81	-1
0	424836	77.91	-1
0	425390	78.01	-1
0	425936	78.11	-1
0	426482	78.21	-1
0	427028	78.31	-1
0	427574	78.41	-1
0	428120	78.51	-1
0	428666	78.61	-1
0	429212	78.71	-1
0	429758	78.81	-1
0	430304	78.91	-1
0	430858	79.01	-1
0	431404	79.11	-1
0	431950	79.21	-1
0	432496	79.31	-1
0	433042	79.41	-1
0	433588	79.51	-1
0	434134	79.61	-1
0	434680	79.71	-1
0	435226	79.81	-1
0	435772	79.91	-1
0	436326	80.01	-1
0	436872	80.11	-1
0	437418	80.21	-1
0	437964	80.31	-1
0	438510	80.41	-1
0	439056	80.51	-1
0	439602	80.61	-1
0	440148	80.71	-1
0	440694	80.81	-1
0	441240	80.91	-1
0	441794	81.01	-1
0	442340	81.11	-1
0	442886	81.21	-1
0	443432	81.31	-1
0	443978	81.41	-1
0	444524	81.51	-1
0	445070	81.61	-1
0	445616	81.71	-1
0	446162	81.81	-1
0	446708	81.91	-1
0	447262	82.01	-1
0	447808	82.11	-1
0	448354	82.21	-1
0	448900	82.31	-1
0	449446	82.41	-1
0	449992	82.51	-1
0	450538	82.61	-1
0	451084	82.71	-1
0	451630	82.81	-1
0	452176	82.91	-1
0	452730	83.01	-1
0	453276	83.11	-1
0	453822	83.21	-1
0	454368	83.31	-1
0	454914	83.41	-1
0	455460	83.51	-1
0	456006	83.61	-1
0	456552	83.71	-1
0	457098	83.81	-1
0	457644	83.91	-1
0	458198	84.01	-1
0	458744	84.11	-1
0	459290	84.21	-1
0	459836	84.31	-1
0	460382	84.41	-1
0	460928	84.51	-1
0	461474	84.61	-1
0	462020	84.71	-1
0	462566	84.81	-1
0	463112	84.91	-1
0	463666	85.01	-1
0	464212	85.11	-1
0	464758	85.21	-1
0	465304	85.31	-1
0	465850	85.41	-1
0	466396	85.51	-1
0	466942	85.61	-1
0	467488	85.71	-1
0	468034	85.81	-1
0	468580	85.91	-1
0	469134	86.01	-1
0	469680	86.11	-1
0	470226	86.21	-1
0	470772	86.31	-1
0	471318	86.41	-1
0	471864	86.51	-1
0	472410	86.61	-1
0	472956	86.71	-1
0	473502	86.81	-1
0	474048	86.91	-1
0	474602	87.01	-1
0	475148	87.11	-1
0	475694	87.21	-1
0	476240	87.31	-1
0	476786	87.41	-1
0	477332	87.51	-1
0	477878	87.61	-1
0	478424	87.71	-1
0	478970	87.81	-1
0	479516	87.91	-1
0	480070	88.01	-1
0	480616	88.11	-1
0	481162	88.21	-1
0	481708	88.31	-1
0	482254	88.41	-1
0	482800	88.51	-1
0	483346	88.61	-1
0	483892	88.71	-1
0	484438	88.81	-1
0	484984	88.91	-1
0	485538	89.01	-1
0	486084	89.11	-1
0	486630	89.21	-1
0	487176	89.31	-1
0	487722	89.41	-1
0	488268	89.51	-1
0	488814	89.61	-1
0	489360	89.71	-1
0	489906	89.81	-1
0	490452	89.91	-1
0	491006	90.01	-1
0	491552	90.11	-1
0	492098	90.21	-1
0	492644	90.31	-1
0	493190	90.41	-1
0	493736	90.51	-1
0	494282	90.61	-1
0	494828	90.71	-1
0	495374	90.81	-1
0	495920	90.91	-1
0	496474	91.01	-1
0	497020	91.11	-1
0	497566	91.21	-1
0	498112	91.31	-1
0	498658	91.41	-1
0	499204	91.51	-1
0	499750	91.61	-1
0	500296	91.71	-1
0	500842	91.81	-1
0	501388	91.91	-1
0	501942	92.01	-1
0	502488	92.11	-1
0	503034	92.21	-1
0	503580	92.31	-1
0	504126	92.41	-1
0	504672	92.51	-1
0	505218	92.61	-1
0	505764	92.71	-1
0	506310	92.81	-1
0	506856	92.91	-1
0	507410	93.01	-1
0	507956	93.11	-1
0	508502	93.21	-1
0	509048	93.31	-1
0	509594	93.41	-1
0	510140	93.51	-1
0	510686	93.61	-1
0	511232	93.71	-1
0	511778	93.81	-1
0	512324	93.91	-1
0	512878	94.01	-1
0	513424	94.11	-1
0	513970	94.21	-1
0	514516	94.31	-1
0	515062	94.41	-1
0	515608	94.51	-1
0	516154	94.61	-1
0	516700	94.71	-1
0	517246	94.81	-1
0	517792	94.91	-1
0	518346	95.01	-1
0	518892	95.11	-1
0	519438	95.21	-1
0	519984	95.31	-1
0	520530	95.41	-1
0	521076	95.51	-1
0	521622	95.61	-1
0	522168	95.71	-1
0	522714	95.81	-1
0	523260	95.91	-1
0	523814	96.01	-1
0	524360	96.11	-1
0	524906	96.21	-1
0	525452	96.31	-1
0	525998	96.41	-1
0	526544	96.51	-1
0	527090	96.61	-1
0	527636	96.71	-1
0	528182	96.81	-1
0	528728	96.91	-1
0	529282	97.01	-1
0	529828	97.11	-1
0	530374	97.21	-1
0	530920	97.31	-1
0	531466	97.41	-1
0	532012	97.51	-1
0	532558	97.61	-1
0	533104	97.71	-1
0	533650	97.81	-1
0	534196	97.91	-1
0	534750	98.01	-1
0	535296	98.11	-1
0	535842	98.21	-1
0	536388	98.31	-1
0	536934	98.41	-1
0	537480	98.51	-1
0	538026	98.61	-1
0	538572	98.71	-1
0	539118	98.81	-1
0	539664	98.91	-1
0	540218	99.01	-1
0	540764	99.11	-1
0	541310	99.21	-1
0	541856	99.31	-1
0	542402	99.41	-1
0	542948	99.51	-1
0	543494	99.61	-1
0	544040	99.71	-1
0	544586	99.81	-1
0	545132	99.91	-1
1	113	1.11	0
1	659	1.21	0
1	1205	1.31	0
1	1751	1.41	0
1	2297	1.51	0
1	2843	1.61	0
1	3389	1.71	0
1	3935	1.81	0
1	4481	1.91	0
1	5035	2.01	0
1	5581	2.11	0
1	6127	2.21	0
1	6673	2.31	0
1	7219	2.41	0
1	7765	2.51	0
1	8311	2.61	0
1	8857	2.71	0
1	9403	2.81	0
1	9949	2.91	0
1	10503	3.01	0
1	11049	3.11	0
1	11595	3.21	0
1	12141	3.31	0
1	12687	3.41	0
1	13233	3.51	0
1	13779	3.61	0
1	14325	3.71	0
1	14871	3.81	0
1	15417	3.91	0
1	15971	4.01	0
1	16517	4.11	0
1	17063	4.21	0
1	17609	4.31	0
1	18155	4.41	0
1	18701	4.51	0
1	19247	4.61	0
1	19793	4.71	0
1	20339	4.81	0
1	20885	4.91	0
1	21439	5.01	0
1	21985	5.11	0
1	22531	5.21	0
1	23077	5.31	0
1	23623	5.41	0
1	24169	5.51	0
1	24715	5.61	0
1	25261	5.71	0
1	25807	5.81	0
1	26353	5.91	0
1	26907	6.01	0
1	27453	6.11	0
1	27999	6.21	0
1	28545	6.31	0
1	29091	6.41	0
1	29637	6.51	0
1	30183	6.61	0
1	30729	6.71	0
1	31275	6.81	0
1	31821	6.91	0
1	32375	7.01	0
1	32921	7.11	0
1	33467	7.21	0
1	34013	7.31	0
1	34559	7.41	0
1	35105	7.51	0
1	35651	7.61	0
1	36197	7.71	0
1	36743	7.81	0
1	37289	7.91	0
1	37843	8.01	0
1	38389	8.11	0
1	38935	8.21	0
1	39481	8.31	0
1	40027	8.41	0
1	40573	8.51	0
1	41119	8.61	0
1	41665	8.71	0
1	42211	8.81	0
1	42757	8.91	0
1	43311	9.01	0
1	43857	9.11	0
1	44403	9.21	0
1	44949	9.31	0
1	45495	9.41	0
1	46041	9.51	0
1	46587	9.61	0
1	47133	9.71	0
1	47679	9.81	0
1	48225	9.91	0
1	48853	10.01	0
1	49406	10.11	0
1	49959	10.21	0
1	50512	10.31	0
1	51065	10.41	0
1	51618	10.51	0
1	52171	10.61	0
1	52724	10.71	0
1	53277	10.81	0
1	53830	10.91	0
1	54391	11.01	0
1	54944	11.11	0
1	55497	11.21	0
1	56050	11.31	0
1	56603	11.41	0
1	57156	11.51	0
1	57709	11.61	0
1	58262	11.71	0
1	58815	11.81	0
1	59368	11.91	0
1	59929	12.01	0
1	60482	12.11	0
1	61035	12.21	0
1	61588	12.31	0
1	62141	12.41	0
1	62694	12.51	0
1	63247	12.61	0
1	63800	12.71	0
1	64353	12.81	0
1	64906	12.91	0
1	65467	13.01	0
1	66020	13.11	0
1	66573	13.21	0
1	67126	13.31	0
1	67679	13.41	0
1	68232	13.51	0
1	68785	13.61	0
1	69338	13.71	0
1	69891	13.81	0
1	70444	13.91	0
1	71005	14.01	0
1	71558	14.11	0
1	72111	14.21	0
1	72664	14.31	0
1	73217	14.41	0
1	73770	14.51	0
1	74323	14.61	0
1	74876	14.71	0
1	75429	14.81	0
1	75982	14.91	0
1	76543	15.01	0
1	77096	15.11	0
1	77649	15.21	0
1	78202	15.31	0
1	78755	15.41	0
1	79308	15.51	0
1	79861	15.61	0
1	80414	15.71	0
1	80967	15.81	0
1	81520	15.91	0
1	82081	16.01	0
1	82634	16.11	0
1	83187	16.21	0
1	83740	16.31	0
1	84293	16.41	0
1	84846	16.51	0
1	85399	16.61	0
1	85952	16.71	0
1	86505	16.81	0
1	87058	16.91	0
1	87619	17.01	0
1	88172	17.11	0
1	88725	17.21	0
1	89278	17.31	0
1	89831	17.41	0
1	90384	17.51	0
1	90937	17.61	0
1	91490	17.71	0
1	92043	17.81	0
1	92596	17.91	0
1	93157	18.01	0
1	93710	18.11	0
1	94263	18.21	0
1	94816	18.31	0
1	95369	18.41	0
1	95922	18.51	0
1	96475	18.61	0
1	97028	18.71	0
1	97581	18.81	0
1	98134	18.91	0
1	98695	19.01	0
1	99248	19.11	0
1	99801	19.21	0
1	100354	19.31	0
1	100907	19.41	0
1	101460	19.51	0
1	102013	19.61	0
1	102566	19.71	0
1	103119	19.81	0
1	103672	19.91	0
1	104233	20.01	0
1	104786	20.11	0
1	105339	20.21	0
1	105892	20.31	0
1	106445	20.41	0
1	106998	20.51	0
1	107551	20.61	0
1	108104	20.71	0
1	108657	20.81	0
1	109210	20.91	0
1	109771	21.01	0
1	110324	21.11	0
1	110877	21.21	0
1	111430	21.31	0
1	111983	21.41	0
1	112536	21.51	0
1	113089	21.61	0
1	113642	21.71	0
1	114195	21.81	0
1	114748	21.91	0
1	115309	22.01	0
1	115862	22.11	0
1	116415	22.21	0
1	116968	22.31	0
1	117521	22.41	0
1	118074	22.51	0
1	118627	22.61	0
1	119180	22.71	0
1	119733	22.81	0
1	120286	22.91	0
1	120847	23.01	0
1	121400	23.11	0
1	121953	23.21	0
1	122506	23.31	0
1	123059	23.41	0
1	123612	23.51	0
1	124165	23.61	0
1	124718	23.71	0
1	125271	23.81	0
1	125824	23.91	0
1	126385	24.01	0
1	126938	24.11	0
1	127491	24.21	0
1	128044	24.31	0
1	128597	24.41	0
1	129150	24.51	0
1	129703	24.61	0
1	130256	24.71	0
1	130809	24.81	0
1	131362	24.91	0
1	131923	25.01	0
1	132476	25.11	0
1	133029	25.21	0
1	133582	25.31	0
1	134135	25.41	0
1	134688	25.51	0
1	135241	25.61	0
1	135794	25.71	0
1	136347	25.81	0
1	136900	25.91	0
1	137461	26.01	0
1	138014	26.11	0
1	138567	26.21	0
1	139120	26.31	0
1	139673	26.41	0
1	140226	26.51	0
1	140779	26.61	0
1	141332	26.71	0
1	141885	26.81	0
1	142438	26.91	0
1	142999	27.01	0
1	143552	27.11	0
1	144105	27.21	0
1	144658	27.31	0
1	145211	27.41	0
1	145764	27.51	0
1	146317	27.61	0
1	146870	27.71	0
1	147423	27.81	0
1	147976	27.91	0
1	148537	28.01	0
1	149090	28.11	0
1	149643	28.21	0
1	150196	28.31	0
1	150749	28.41	0
1	151302	28.51	0
1	151855	28.61	0
1	152408	28.71	0
1	152961	28.81	0
1	153514	28.91	0
1	154075	29.01	0
1	154628	29.11	0
1	155181	29.21	0
1	155734	29.31	0
1	156287	29.41	0
1	156840	29.51	0
1	157393	29.61	0
1	157946	29.71	0
1	158499	29.81	0
1	159052	29.91	0
1	159613	30.01	0
1	160166	30.11	0
1	160719	30.21	0
1	161272	30.31	0
1	161825	30.41	0
1	162378	30.51	0
1	162931	30.61	0
1	163484	30.71	0
1	164037	30.81	0
1	164590	30.91	0
1	165151	31.01	0
1	165704	31.11	0
1	166257	31.21	0
1	166810	31.31	0
1	167363	31.41	0
1	167916	31.51	0
1	168469	31.61	0
1	169022	31.71	0
1	169575	31.81	0
1	170128	31.91	0
1	170689	32.01	0
1	171242	32.11	0
1	171795	32.21	0
1	172348	32.31	0
1	172901	32.41	0
1	173454	32.51	0
1	174007	32.61	0
1	174560	32.71	0
1	175113	32.81	0
1	175666	32.91	0
1	176227	33.01	0
1	176780	33.11	0
1	177333	33.21	0
1	177886	33.31	0
1	178439	33.41	0
1	178992	33.51	0
1	179545	33.61	0
1	180098	33.71	0
1	180651	33.81	0
1	181204	33.91	0
1	181765	34.01	0
1	182318	34.11	0
1	182871	34.21	0
1	183424	34.31	0
1	183977	34.41	0
1	184530	34.51	0
1	185083	34.61	0
1	185636	34.71	0
1	186189	34.81	0
1	186742	34.91	0
1	187303	35.01	0
1	187856	35.11	0
1	188409	35.21	0
1	188962	35.31	0
1	189515	35.41	0
1	190068	35.51	0
1	190621	35.61	0
1	191174	35.71	0
1	191727	35.81	0
1	192280	35.91	0
1	192841	36.01	0
1	193394	36.11	0
1	193947	36.21	0
1	194500	36.31	0
1	195053	36.41	0
1	195606	36.51	0
1	196159	36.61	0
1	196712	36.71	0
1	197265	36.81	0
1	197818	36.91	0
1	198379	37.01	0
1	198932	37.11	0
1	199485	37.21	0
1	200038	37.31	0
1	200591	37.41	0
1	201144	37.51	0
1	201697	37.61	0
1	202250	37.71	0
1	202803	37.81	0
1	203356	37.91	0
1	203917	38.01	0
1	204470	38.11	0
1	205023	38.21	0
1	205576	38.31	0
1	206129	38.41	0
1	206682	38.51	0
1	207235	38.61	0
1	207788	38.71	0
1	208341	38.81	0
1	208894	38.91	0
1	209455	39.01	0
1	210008	39.11	0
1	210561	39.21	0
1	211114	39.31	0
1	211667	39.41	0
1	212220	39.51	0
1	212773	39.61	0
1	213326	39.71	0
1	213879	39.81	0
1	214432	39.91	0
1	214993	40.01	0
1	215546	40.11	0
1	216099	40.21	0
1	216652	40.31	0
1	217205	40.41	0
1	217758	40.51	0
1	218311	40.61	0
1	218864	40.71	0
1	219417	40.81	0
1	219970	40.91	0
1	220531	41.01	0
1	221084	41.11	0
1	221637	41.21	0
1	222190	41.31	0
1	222743	41.41	0
1	223296	41.51	0
1	223849	41.61	0
1	224402	41.71	0
1	224955	41.81	0
1	225508	41.91	0
1	226069	42.01	0
1	226622	42.11	0
1	227175	42.21	0
1	227728	42.31	0
1	228281	42.41	0
1	228834	42.51	0
1	229387	42.61	0
1	230033	42.71	0
1	230585	42.81	0
1	231137	42.91	0
1	231697	43.01	0
1	232249	43.11	0
1	232801	43.21	0
1	233353	43.31	0
1	233905	43.41	0
1	234457	43.51	0
1	235009	43.61	0
1	235561	43.71	0
1	236113	43.81	0
1	236665	43.91	0
1	237225	44.01	0
1	237777	44.11	0
1	238329	44.21	0
1	238881	44.31	0
1	239433	44.41	0
1	239985	44.51	0
1	240537	44.61	0
1	241089	44.71	0
1	241641	44.81	0
1	242193	44.91	0
1	242753	45.01	0
1	243305	45.11	0
1	243857	45.21	0
1	244409	45.31	0
1	244961	45.41	0
1	245513	45.51	0
1	246065	45.61	0
1	246617	45.71	0
1	247169	45.81	0
1	247721	45.91	0
1	248281	46.01	0
1	248833	46.11	0
1	249385	46.21	0
1	249937	46.31	0
1	250489	46.41	0
1	251041	46.51	0
1	251593	46.61	0
1	252145	46.71	0
1	252697	46.81	0
1	253249	46.91	0
1	253809	47.01	0
1	254361	47.11	0
1	254913	47.21	0
1	255465	47.31	0
1	256017	47.41	0
1	256569	47.51	0
1	257121	47.61	0
1	257673	47.71	0
1	258225	47.81	0
1	258777	47.91	0
1	259337	48.01	0
1	259889	48.11	0
1	260441	48.21	0
1	260993	48.31	0
1	261545	48.41	0
1	262190	48.51	0
1	262741	48.61	0
1	263292	48.71	0
1	263843	48.81	0
1	264394	48.91	0
1	264953	49.01	0
1	265504	49.11	0
1	266055	49.21	0
1	266606	49.31	0
1	267157	49.41	0
1	267708	49.51	0
1	268259	49.61	0
1	268810	49.71	0
1	269361	49.81	0
1	269912	49.91	0
1	270471	50.01	0
1	271022	50.11	0
1	271573	50.21	0
1	272124	50.31	0
1	272675	50.41	0
1	273226	50.51	0
1	273777	50.61	0
1	274328	50.71	0
1	274879	50.81	0
1	275430	50.91	0
1	275989	51.01	0
1	276540	51.11	0
1	277091	51.21	0
1	277642	51.31	0
1	278193	51.41	0
1	278744	51.51	0
1	279295	51.61	0
1	279846	51.71	0
1	280397	51.81	0
1	280948	51.91	0
1	281507	52.01	0
1	282058	52.11	0
1	282609	52.21	0
1	283160	52.31	0
1	283711	52.41	0
1	284262	52.51	0
1	284813	52.61	0
1	285364	52.71	0
1	285915	52.81	0
1	286466	52.91	0
1	287025	53.01	0
1	287576	53.11	0
1	288127	53.21	0
1	288678	53.31	0
1	289229	53.41	0
1	289780	53.51	0
1	290331	53.61	0
1	290882	53.71	0
1	291526	53.81	0
1	292076	53.91	0
1	292634	54.01	0
1	293184	54.11	0
1	293734	54.21	0
1	294284	54.31	0
1	294834	54.41	0
1	295384	54.51	0
1	295934	54.61	0
1	296484	54.71	0
1	297034	54.81	0
1	297584	54.91	0
1	298142	55.01	0
1	298692	55.11	0
1	299242	55.21	0
1	299792	55.31	0
1	300342	55.41	0
1	300892	55.51	0
1	301442	55.61	0
1	301992	55.71	0
1	302542	55.81	0
1	303092	55.91	0
1	303650	56.01	0
1	304200	56.11	0
1	304750	56.21	0
1	305300	56.31	0
1	305850	56.41	0
1	306400	56.51	0
1	306950	56.61	0
1	307500	56.71	0
1	308050	56.81	0
1	308600	56.91	0
1	309158	57.01	0
1	309708	57.11	0
1	310258	57.21	0
1	310808	57.31	0
1	311358	57.41	0
1	311908	57.51	0
1	312458	57.61	0
1	313008	57.71	0
1	313558	57.81	0
1	314108	57.91	0
1	314666	58.01	0
1	315216	58.11	0
1	315766	58.21	0
1	316316	58.31	0
1	316866	58.41	0
1	317416	58.51	0
1	318076	58.61	0
1	318625	58.71	0
1	319174	58.81	0
1	319723	58.91	0
1	320280	59.01	0
1	320829	59.11	0
1	321378	59.21	0
1	321927	59.31	0
1	322476	59.41	0
1	323025	59.51	0
1	323574	59.61	0
1	324123	59.71	0
1	324672	59.81	0
1	325221	59.91	0
1	325778	60.01	0
1	326327	60.11	0
1	326876	60.21	0
1	327425	60.31	0
1	327974	60.41	0
1	328523	60.51	0
1	329072	60.61	0
1	329621	60.71	0
1	330170	60.81	0
1	330719	60.91	0
1	331276	61.01	0
1	331825	61.11	0
1	332374	61.21	0
1	332923	61.31	0
1	333472	61.41	0
1	334021	61.51	0
1	334570	61.61	0
1	335119	61.71	0
1	335668	61.81	0
1	336217	61.91	0
1	336774	62.01	0
1	337323	62.11	0
1	337872	62.21	0
1	338421	62.31	0
1	338970	62.41	0
1	339519	62.51	0
1	340068	62.61	0
1	340617	62.71	0
1	341166	62.81	0
1	341715	62.91	0
1	342272	63.01	0
1	342821	63.11	0
1	343370	63.21	0
1	344012	63.31	0
1	344560	63.41	0
1	345108	63.51	0
1	345656	63.61	0
1	346204	63.71	0
1	346752	63.81	0
1	347300	63.91	0
1	347856	64.01	0
1	348404	64.11	0
1	348952	64.21	0
1	349500	64.31	0
1	350048	64.41	0
1	350596	64.51	0
1	351144	64.61	0
1	351692	64.71	0
1	352240	64.81	0
1	352788	64.91	0
1	353344	65.01	0
1	353892	65.11	0
1	354440	65.21	0
1	354988	65.31	0
1	355536	65.41	0
1	356084	65.51	0
1	356632	65.61	0
1	357180	65.71	0
1	357728	65.81	0
1	358276	65.91	0
1	358832	66.01	0
1	359380	66.11	0
1	359928	66.21	0
1	360476	66.31	0
1	361024	66.41	0
1	361572	66.51	0
1	362120	66.61	0
1	362668	66.71	0
1	363216	66.81	0
1	363764	66.91	0
1	364320	67.01	0
1	364868	67.11	0
1	365416	67.21	0
1	365964	67.31	0
1	366512	67.41	0
1	367060	67.51	0
1	367608	67.61	0
1	368156	67.71	0
1	368797	67.81	0
1	369344	67.91	0
1	369899	68.01	0
1	370446	68.11	0
1	370993	68.21	0
1	371540	68.31	0
1	372087	68.41	0
1	372634	68.51	0
1	373181	68.61	0
1	373728	68.71	0
1	374275	68.81	0
1	374822	68.91	0
1	375377	69.01	0
1	375924	69.11	0
1	376471	69.21	0
1	377018	69.31	0
1	377565	69.41	0
1	378112	69.51	0
1	378659	69.61	0
1	379206	69.71	0
1	379753	69.81	0
1	380300	69.91	0
1	380855	70.01	0
1	381402	70.11	0
1	381949	70.21	0
1	382496	70.31	0
1	383043	70.41	0
1	383590	70.51	0
1	384137	70.61	0
1	384684	70.71	0
1	385231	70.81	0
1	385778	70.91	0
1	386333	71.01	0
1	386880	71.11	0
1	387427	71.21	0
1	387974	71.31	0
1	388521	71.41	0
1	389068	71.51	0
1	389615	71.61	0
1	390162	71.71	0
1	390709	71.81	0
1	391256	71.91	0
1	391811	72.01	0
1	393128	72.11	0
1	393674	72.21	0
1	394220	72.31	0
1	394766	72.41	0
1	395312	72.51	0
1	395858	72.61	0
1	396404	72.71	0
1	396950	72.81	0
1	397496	72.91	0
1	398050	73.01	0
1	398596	73.11	0
1	399142	73.21	0
1	399688	73.31	0
1	400234	73.41	0
1	400780	73.51	0
1	401326	73.61	0
1	401872	73.71	0
1	402418	73.81	0
1	402964	73.91	0
1	403518	74.01	0
1	404064	74.11	0
1	404610	74.21	0
1	405156	74.31	0
1	405702	74.41	0
1	406248	74.51	0
1	406794	74.61	0
1	407340	74.71	0
1	407886	74.81	0
1	408432	74.91	0
1	408986	75.01	0
1	409532	75.11	0
1	410078	75.21	0
1	410624	75.31	0
1	411170	75.41	0
1	411716	75.51	0
1	412262	75.61	0
1	412808	75.71	0
1	413354	75.81	0
1	413900	75.91	0
1	414454	76.01	0
1	415000	76.11	0
1	415546	76.21	0
1	416092	76.31	0
1	416638	76.41	0
1	417184	76.51	0
1	417730	76.61	0
1	418276	76.71	0
1	418822	76.81	0
1	419368	76.91	0
1	419922	77.01	0
1	420468	77.11	0
1	421014	77.21	0
1	421560	77.31	0
1	422106	77.41	0
1	422652	77.51	0
1	423198	77.61	0
1	423744	77.71	0
1	424290	77.81	0
1	424836	77.91	0
1	425390	78.01	0
1	425936	78.11	0
1	426482	78.21	0
1	427028	78.31	0
1	427574	78.41	0
1	428120	78.51	0
1	428666	78.61	0
1	429212	78.71	0
1	429758	78.81	0
1	430304	78.91	0
1	430858	79.01	0
1	431404	79.11	0
1	431950	79.21	0
1	432496	79.31	0
1	433042	79.41	0
1	433588	79.51	0
1	434134	79.61	0
1	434680	79.71	0
1	435226	79.81	0
1	435772	79.91	0
1	436326	80.01	0
1	436872	80.11	0
1	437418	80.21	0
1	437964	80.31	0
1	438510	80.41	0
1	439056	80.51	0
1	439602	80.61	0
1	440148	80.71	0
1	440694	80.81	0
1	441240	80.91	0
1	441794	81.01	0
1	442340	81.11	0
1	442886	81.21	0
1	443432	81.31	0
1	443978	81.41	0
1	444524	81.51	0
1	445070	81.61	0
1	445616	81.71	0
1	446162	81.81	0
1	446708	81.91	0
1	447262	82.01	0
1	447808	82.11	0
1	448354	82.21	0
1	448900	82.31	0
1	449446	82.41	0
1	449992	82.51	0
1	450538	82.61	0
1	451084	82.71	0
1	451630	82.81	0
1	452176	82.91	0
1	452730	83.01	0
1	453276	83.11	0
1	453822	83.21	0
1	454368	83.31	0
1	454914	83.41	0
1	455460	83.51	0
1	456006	83.61	0
1	456552	83.71	0
1	457098	83.81	0
1	457644	83.91	0
1	458198	84.01	0
1	458744	84.11	0
1	459290	84.21	0
1	459836	84.31	0
1	460382	84.41	0
1	460928	84.51	0
1	461474	84.61	0
1	462020	84.71	0
1	462566	84.81	0
1	463112	84.91	0
1	463666	85.01	0
1	464212	85.11	0
1	464758	85.21	0
1	465304	85.31	0
1	465850	85.41	0
1	466396	85.51	0
1	466942	85.61	0
1	467488	85.71	0
1	468034	85.81	0
1	468580	85.91	0
1	469134	86.01	0
1	469680	86.11	0
1	470226	86.21	0
1	470772	86.31	0
1	471318	86.41	0
1	471864	86.51	0
1	472410	86.61	0
1	472956	86.71	0
1	473502	86.81	0
1	474048	86.91	0
1	474602	87.01	0
1	475148	87.11	0
1	475694	87.21	0
1	476240	87.31	0
1	476786	87.41	0
1	477332	87.51	0
1	477878	87.61	0
1	478424	87.71	0
1	478970	87.81	0
1	479516	87.91	0
1	480070	88.01	0
1	480616	88.11	0
1	481162	88.21	0
1	481708	88.31	0
1	482254	88.41	0
1	482800	88.51	0
1	483346	88.61	0
1	483892	88.71	0
1	484438	88.81	0
1	484984	88.91	0
1	485538	89.01	0
1	486084	89.11	0
1	486630	89.21	0
1	487176	89.31	0
1	487722	89.41	0
1	488268	89.51	0
1	488814	89.61	0
1	489360	89.71	0
1	489906	89.81	0
1	490452	89.91	0
1	491006	90.01	0
1	491552	90.11	0
1	492098	90.21	0
1	492644	90.31	0
1	493190	90.41	0
1	493736	90.51	0
1	494282	90.61	0
1	494828	90.71	0
1	495374	90.81	0
1	495920	90.91	0
1	496474	91.01	0
1	497020	91.11	0
1	497566	91.21	0
1	498112	91.31	0
1	498658	91.41	0
1	499204	91.51	0
1	499750	91.61	0
1	500296	91.71	0
1	500842	91.81	0
1	501388	91.91	0
1	501942	92.01	0
1	502488	92.11	0
1	503034	92.21	0
1	503580	92.31	0
1	504126	92.41	0
1	504672	92.51	0
1	505218	92.61	0
1	505764	92.71	0
1	506310	92.81	0
1	506856	92.91	0
1	507410	93.01	0
1	507956	93.11	0
1	508502	93.21	0
1	509048	93.31	0
1	509594	93.41	0
1	510140	93.51	0
1	510686	93.61	0
1	511232	93.71	0
1	511778	93.81	0
1	512324	93.91	0
1	512878	94.01	0
1	513424	94.11	0
1	513970	94.21	0
1	514516	94.31	0
1	515062	94.41	0
1	515608	94.51	0
1	516154	94.61	0
1	516700	94.71	0
1	517246	94.81	0
1	517792	94.91	0
1	518346	95.01	0
1	518892	95.11	0
1	519438	95.21	0
1	519984	95.31	0
1	520530	95.41	0
1	521076	95.51	0
1	521622	95.61	0
1	522168	95.71	0
1	522714	95.81	0
1	523260	95.91	0
1	523814	96.01	0
1	524360	96.11	0
1	524906	96.21	0
1	525452	96.31	0
1	525998	96.41	0
1	526544	96.51	0
1	527090	96.61	0
1	527636	96.71	0
1	528182	96.81	0
1	528728	96.91	0
1	529282	97.01	0
1	529828	97.11	0
1	530374	97.21	0
1	530920	97.31	0
1	531466	97.41	0
1	532012	97.51	0
1	532558	97.61	0
1	533104	97.71	0
1	533650	97.81	0
1	534196	97.91	0
1	534750	98.01	0
1	535296	98.11	0
1	535842	98.21	0
1	536388	98.31	0
1	536934	98.41	0
1	537480	98.51	0
1	538026	98.61	0
1	538572	98.71	0
1	539118	98.81	0
1	539664	98.91	0
1	540218	99.01	0
1	540764	99.11	0
1	541310	99.21	0
1	541856	99.31	0
1	542402	99.41	0
1	542948	99.51	0
1	543494	99.61	0
1	544040	99.71	0
1	544586	99.81	0
1	545132	99.91	0
2	113	1.11	0
2	659	1.21	0
2	1205	1.31	0
2	1751	1.41	0
2	2297	1.51	0
2	2843	1.61	0
2	3389	1.71	0
2	3935	1.81	0
2	4481	1.91	0
2	5035	2.01	0
2	5581	2.11	0
2	6127	2.21	0
2	6673	2.31	0
2	7219	2.41	0
2	7765	2.51	0
2	8311	2.61	0
2	8857	2.71	0
2	9403	2.81	0
2	9949	2.91	0
2	10503	3.01	0
2	11049	3.11	0
2	11595	3.21	0
2	12141	3.31	0
2	12687	3.41	0
2	13233	3.51	0
2	13779	3.61	0
2	14325	3.71	0
2	14871	3.81	0
2	15417	3.91	0
2	15971	4.01	0
2	16517	4.11	0
2	17063	4.21	0
2	17609	4.31	0
2	18155	4.41	0
2	18701	4.51	0
2	19247	4.61	0
2	19793	4.71	0
2	20339	4.81	0
2	20885	4.91	0
2	21439	5.01	0
2	21985	5.11	0
2	22531	5.21	0
2	23077	5.31	0
2	23623	5.41	0
2	24169	5.51	0
2	24715	5.61	0
2	25261	5.71	0
2	25807	5.81	0
2	26353	5.91	0
2	26907	6.01	0
2	27453	6.11	0
2	27999	6.21	0
2	28545	6.31	0
2	29091	6.41	0
2	29637	6.51	0
2	30183	6.61	0
2	30729	6.71	0
2	31275	6.81	0
2	31821	6.91	0
2	32375	7.01	0
2	32921	7.11	0
2	33467	7.21	0
2	34013	7.31	0
2	34559	7.41	0
2	35105	7.51	0
2	35651	7.61	0
2	36197	7.71	0
2	36743	7.81	0
2	37289	7.91	0
2	37843	8.01	0
2	38389	8.11	0
2	38935	8.21	0
2	39481	8.31	0
2	40027	8.41	0
2	40573	8.51	0
2	41119	8.61	0
2	41665	8.71	0
2	42211	8.81	0
2	42757	8.91	0
2	43311	9.01	0
2	43857	9.11	0
2	44403	9.21	0
2	44949	9.31	0
2	45495	9.41	0
2	46041	9.51	0
2	46587	9.61	0
2	47133	9.71	0
2	47679	9.81	0
2	48225	9.91	0
2	48853	10.01	0
2	49406	10.11	0
2	49959	10.21	0
2	50512	10.31	0
2	51065	10.41	0
2	51618	10.51	0
2	52171	10.61	0
2	52724	10.71	0
2	53277	10.81	0
2	53830	10.91	0
2	54391	11.01	0
2	54944	11.11	0
2	55497	11.21	0
2	56050	11.31	0
2	56603	11.41	0
2	57156	11.51	0
2	57709	11.61	0
2	58262	11.71	0
2	58815	11.81	0
2	59368	11.91	0
2	59929	12.01	0
2	60482	12.11	0
2	61035	12.21	0
2	61588	12.31	0
2	62141	12.41	0
2	62694	12.51	0
2	63247	12.61	0
2	63800	12.71	0
2	64353	12.81	0
2	64906	12.91	0
2	65467	13.01	0
2	66020	13.11	0
2	66573	13.21	0
2	67126	13.31	0
2	67679	13.41	0
2	68232	13.51	0
2	68785	13.61	0
2	69338	13.71	0
2	69891	13.81	0
2	70444	13.91	0
2	71005	14.01	0
2	71558	14.11	0
2	72111	14.21	0
2	72664	14.31	0
2	73217	14.41	0
2	73770	14.51	0
2	74323	14.61	0
2	74876	14.71	0
2	75429	14.81	0
2	75982	14.91	0
2	76543	15.01	0
2	77096	15.11	0
2	77649	15.21	0
2	78202	15.31	0
2	78755	15.41	0
2	79308	15.51	0
2	79861	15.61	0
2	80414	15.71	0
2	80967	15.81	0
2	81520	15.91	0
2	82081	16.01	0
2	82634	16.11	0
2	83187	16.21	0
2	83740	16.31	0
2	84293	16.41	0
2	84846	16.51	0
2	85399	16.61	0
2	85952	16.71	0
2	86505	16.81	0
2	87058	16.91	0
2	87619	17.01	0
2	88172	17.11	0
2	88725	17.21	0
2	89278	17.31	0
2	89831	17.41	0
2	90384	17.51	0
2	90937	17.61	0
2	91490	17.71	0
2	92043	17.81	0
2	92596	17.91	0
2	93157	18.01	0
2	93710	18.11	0
2	94263	18.21	0
2	94816	18.31	0
2	95369	18.41	0
2	95922	18.51	0
2	96475	18.61	0
2	97028	18.71	0
2	97581	18.81	0
2	98134	18.91	0
2	98695	19.01	0
2	99248	19.11	0
2	99801	19.21	0
2	100354	19.31	0
2	100907	19.41	0
2	101460	19.51	0
2	102013	19.61	0
2	102566	19.71	0
2	103119	19.81	0
2	103672	19.91	0
2	104233	20.01	0
2	104786	20.11	0
2	105339	20.21	0
2	105892	20.31	0
2	106445	20.41	0
2	106998	20.51	0
2	107551	20.61	0
2	108104	20.71	0
2	108657	20.81	0
2	109210	20.91	0
2	109771	21.01	0
2	110324	21.11	0
2	110877	21.21	0
2	111430	21.31	0
2	111983	21.41	0
2	112536	21.51	0
2	113089	21.61	0
2	113642	21.71	0
2	114195	21.81	0
2	114748	21.91	0
2	115309	22.01	0
2	115862	22.11	0
2	116415	22.21	0
2	116968	22.31	0
2	117521	22.41	0
2	118074	22.51	0
2	118627	22.61	0
2	119180	22.71	0
2	119733	22.81	0
2	120286	22.91	0
2	120847	23.01	0
2	121400	23.11	0
2	121953	23.21	0
2	122506	23.31	0
2	123059	23.41	0
2	123612	23.51	0
2	124165	23.61	0
2	124718	23.71	0
2	125271	23.81	0
2	125824	23.91	0
2	126385	24.01	0
2	126938	24.11	0
2	127491	24.21	0
2	128044	24.31	0
2	128597	24.41	0
2	129150	24.51	0
2	129703	24.61	0
2	130256	24.71	0
2	130809	24.81	0
2	131362	24.91	0
2	131923	25.01	0
2	132476	25.11	0
2	133029	25.21	0
2	133582	25.31	0
2	134135	25.41	0
2	134688	25.51	0
2	135241	25.61	0
2	135794	25.71	0
2	136347	25.81	0
2	136900	25.91	0
2	137461	26.01	0
2	138014	26.11	0
2	138567	26.21	0
2	139120	26.31	0
2	139673	26.41	0
2	140226	26.51	0
2	140779	26.61	0
2	141332	26.71	0
2	141885	26.81	0
2	142438	26.91	0
2	142999	27.01	0
2	143552	27.11	0
2	144105	27.21	0
2	144658	27.31	0
2	145211	27.41	0
2	145764	27.51	0
2	146317	27.61	0
2	146870	27.71	0
2	147423	27.81	0
2	147976	27.91	0
2	148537	28.01	0
2	149090	28.11	0
2	149643	28.21	0
2	150196	28.31	0
2	150749	28.41	0
2	151302	28.51	0
2	151855	28.61	0
2	152408	28.71	0
2	152961	28.81	0
2	153514	28.91	0
2	154075	29.01	0
2	154628	29.11	0
2	155181	29.21	0
2	155734	29.31	0
2	156287	29.41	0
2	156840	29.51	0
2	157393	29.61	0
2	157946	29.71	0
2	158499	29.81	0
2	159052	29.91	0
2	159613	30.01	0
2	160166	30.11	0
2	160719	30.21	0
2	161272	30.31	0
2	161825	30.41	0
2	162378	30.51	0
2	162931	30.61	0
2	163484	30.71	0
2	164037	30.81	0
2	164590	30.91	0
2	165151	31.01	0
2	165704	31.11	0
2	166257	31.21	0
2	166810	31.31	0
2	167363	31.41	0
2	167916	31.51	0
2	168469	31.61	0
2	169022	31.71	0
2	169575	31.81	0
2	170128	31.91	0
2	170689	32.01	0
2	171242	32.11	0
2	171795	32.21	0
2	172348	32.31	0
2	172901	32.41	0
2	173454	32.51	0
2	174007	32.61	0
2	174560	32.71	0
2	175113	32.81	0
2	175666	32.91	0
2	176227	33.01	0
2	176780	33.11	0
2	177333	33.21	0
2	177886	33.31	0
2	178439	33.41	0
2	178992	33.51	0
2	179545	33.61	0
2	180098	33.71	0
2	180651	33.81	0
2	181204	33.91	0
2	181765	34.01	0
2	182318	34.11	0
2	182871	34.21	0
2	183424	34.31	0
2	183977	34.41	0
2	184530	34.51	0
2	185083	34.61	0
2	185636	34.71	0
2	186189	34.81	0
2	186742	34.91	0
2	187303	35.01	0
2	187856	35.11	0
2	188409	35.21	0
2	188962	35.31	0
2	189515	35.41	0
2	190068	35.51	0
2	190621	35.61	0
2	191174	35.71	0
2	191727	35.81	0
2	192280	35.91	0
2	192841	36.01	0
2	193394	36.11	0
2	193947	36.21	0
2	194500	36.31	0
2	195053	36.41	0
2	195606	36.51	0
2	196159	36.61	0
2	196712	36.71	0
2	197265	36.81	0
2	197818	36.91	0
2	198379	37.01	0
2	198932	37.11	0
2	199485	37.21	0
2	200038	37.31	0
2	200591	37.41	0
2	201144	37.51	0
2	201697	37.61	0
2	202250	37.71	0
2	202803	37.81	0
2	203356	37.91	0
2	203917	38.01	0
2	204470	38.11	0
2	205023	38.21	0
2	205576	38.31	0
2	206129	38.41	0
2	206682	38.51	0
2	207235	38.61	0
2	207788	38.71	0
2	208341	38.81	0
2	208894	38.91	0
2	209455	39.01	0
2	210008	39.11	0
2	210561	39.21	0
2	211114	39.31	0
2	211667	39.41	0
2	212220	39.51	0
2	212773	39.61	0
2	213326	39.71	0
2	213879	39.81	0
2	214432	39.91	0
2	214993	40.01	0
2	215546	40.11	0
2	216099	40.21	0
2	216652	40.31	0
2	217205	40.41	0
2	217758	40.51	0
2	218311	40.61	0
2	218864	40.71	0
2	219417	40.81	0
2	219970	40.91	0
2	220531	41.01	0
2	221084	41.11	0
2	221637	41.21	0
2	222190	41.31	0
2	222743	41.41	0
2	223296	41.51	0
2	223849	41.61	0
2	224402	41.71	0
2	224955	41.81	0
2	225508	41.91	0
2	226069	42.01	0
2	226622	42.11	0
2	227175	42.21	0
2	227728	42.31	0
2	228281	42.41	0
2	228834	42.51	0
2	229387	42.61	0
2	230033	42.71	0
2	230585	42.81	0
2	231137	42.91	0
2	231697	43.01	0
2	232249	43.11	0
2	232801	43.21	0
2	233353	43.31	0
2	233905	43.41	0
2	234457	43.51	0
2	235009	43.61	0
2	235561	43.71	0
2	236113	43.81	0
2	236665	43.91	0
2	237225	44.01	0
2	237777	44.11	0
2	238329	44.21	0
2	238881	44.31	0
2	239433	44.41	0
2	239985	44.51	0
2	240537	44.61	0
2	241089	44.71	0
2	241641	44.81	0
2	242193	44.91	0
2	242753	45.01	0
2	243305	45.11	0
2	243857	45.21	0
2	244409	45.31	0
2	244961	45.41	0
2	245513	45.51	0
2	246065	45.61	0
2	246617	45.71	0
2	247169	45.81	0
2	247721	45.91	0
2	248281	46.01	0
2	248833	46.11	0
2	249385	46.21	0
2	249937	46.31	0
2	250489	46.41	0
2	251041	46.51	0
2	251593	46.61	0
2	252145	46.71	0
2	252697	46.81	0
2	253249	46.91	0
2	253809	47.01	0
2	254361	47.11	0
2	254913	47.21	0
2	255465	47.31	0
2	256017	47.41	0
2	256569	47.51	0
2	257121	47.61	0
2	257673	47.71	0
2	258225	47.81	0
2	258777	47.91	0
2	259337	48.01	0
2	259889	48.11	0
2	260441	48.21	0
2	260993	48.31	0
2	261545	48.41	0
2	262190	48.51	0
2	262741	48.61	0
2	263292	48.71	0
2	263843	48.81	0
2	264394	48.91	0
2	264953	49.01	0
2	265504	49.11	0
2	266055	49.21	0
2	266606	49.31	0
2	267157	49.41	0
2	267708	49.51	0
2	268259	49.61	0
2	268810	49.71	0
2	269361	49.81	0
2	269912	49.91	0
2	270471	50.01	0
2	271022	50.11	0
2	271573	50.21	0
2	272124	50.31	0
2	272675	50.41	0
2	273226	50.51	0
2	273777	50.61	0
2	274328	50.71	0
2	274879	50.81	0
2	275430	50.91	0
2	275989	51.01	0
2	276540	51.11	0
2	277091	51.21	0
2	277642	51.31	0
2	278193	51.41	0
2	278744	51.51	0
2	279295	51.61	0
2	279846	51.71	0
2	280397	51.81	0
2	280948	51.91	0
2	281507	52.01	0
2	282058	52.11	0
2	282609	52.21	0
2	283160	52.31	0
2	283711	52.41	0
2	284262	52.51	0
2	284813	52.61	0
2	285364	52.71	0
2	285915	52.81	0
2	286466	52.91	0
2	287025	53.01	0
2	287576	53.11	0
2	288127	53.21	0
2	288678	53.31	0
2	289229	53.41	0
2	289780	53.51	0
2	290331	53.61	0
2	290882	53.71	0
2	291526	53.81	0
2	292076	53.91	0
2	292634	54.01	0
2	293184	54.11	0
2	293734	54.21	0
2	294284	54.31	0
2	294834	54.41	0
2	295384	54.51	0
2	295934	54.61	0
2	296484	54.71	0
2	297034	54.81	0
2	297584	54.91	0
2	298142	55.01	0
2	298692	55.11	0
2	299242	55.21	0
2	299792	55.31	0
2	300342	55.41	0
2	300892	55.51	0
2	301442	55.61	0
2	301992	55.71	0
2	302542	55.81	0
2	303092	55.91	0
2	303650	56.01	0
2	304200	56.11	0
2	304750	56.21	0
2	305300	56.31	0
2	305850	56.41	0
2	306400	56.51	0
2	306950	56.61	0
2	307500	56.71	0
2	308050	56.81	0
2	308600	56.91	0
2	309158	57.01	0
2	309708	57.11	0
2	310258	57.21	0
2	310808	57.31	0
2	311358	57.41	0
2	311908	57.51	0
2	312458	57.61	0
2	313008	57.71	0
2	313558	57.81	0
2	314108	57.91	0
2	314666	58.01	0
2	315216	58.11	0
2	315766	58.21	0
2	316316	58.31	0
2	316866	58.41	0
2	317416	58.51	0
2	318076	58.61	0
2	318625	58.71	0
2	319174	58.81	0
2	319723	58.91	0
2	320280	59.01	0
2	320829	59.11	0
2	321378	59.21	0
2	321927	59.31	0
2	322476	59.41	0
2	323025	59.51	0
2	323574	59.61	0
2	324123	59.71	0
2	324672	59.81	0
2	325221	59.91	0
2	325778	60.01	0
2	326327	60.11	0
2	326876	60.21	0
2	327425	60.31	0
2	327974	60.41	0
2	328523	60.51	0
2	329072	60.61	0
2	329621	60.71	0
2	330170	60.81	0
2	330719	60.91	0
2	331276	61.01	0
2	331825	61.11	0
2	332374	61.21	0
2	332923	61.31	0
2	333472	61.41	0
2	334021	61.51	0
2	334570	61.61	0
2	335119	61.71	0
2	335668	61.81	0
2	336217	61.91	0
2	336774	62.01	0
2	337323	62.11	0
2	337872	62.21	0
2	338421	62.31	0
2	338970	62.41	0
2	339519	62.51	0
2	340068	62.61	0
2	340617	62.71	0
2	341166	62.81	0
2	341715	62.91	0
2	342272	63.01	0
2	342821	63.11	0
2	343370	63.21	0
2	344012	63.31	0
2	344560	63.41	0
2	345108	63.51	0
2	345656	63.61	0
2	346204	63.71	0
2	346752	63.81	0
2	347300	63.91	0
2	347856	64.01	0
2	348404	64.11	0
2	348952	64.21	0
2	349500	64.31	0
2	350048	64.41	0
2	350596	64.51	0
2	351144	64.61	0
2	351692	64.71	0
2	352240	64.81	0
2	352788	64.91	0
2	353344	65.01	0
2	353892	65.11	0
2	354440	65.21	0
2	354988	65.31	0
2	355536	65.41	0
2	356084	65.51	0
2	356632	65.61	0
2	357180	65.71	0
2	357728	65.81	0
2	358276	65.91	0
2	358832	66.01	0
2	359380	66.11	0
2	359928	66.21	0
2	360476	66.31	0
2	361024	66.41	0
2	361572	66.51	0
2	362120	66.61	0
2	362668	66.71	0
2	363216	66.81	0
2	363764	66.91	0
2	364320	67.01	0
2	364868	67.11	0
2	365416	67.21	0
2	365964	67.31	0
2	366512	67.41	0
2	367060	67.51	0
2	367608	67.61	0
2	368156	67.71	0
2	368797	67.81	0
2	369344	67.91	0
2	369899	68.01	0
2	370446	68.11	0
2	370993	68.21	0
2	371540	68.31	0
2	372087	68.41	0
2	372634	68.51	0
2	373181	68.61	0
2	373728	68.71	0
2	374275	68.81	0
2	374822	68.91	0
2	375377	69.01	0
2	375924	69.11	0
2	376471	69.21	0
2	377018	69.31	0
2	377565	69.41	0
2	378112	69.51	0
2	378659	69.61	0
2	379206	69.71	0
2	379753	69.81	0
2	380300	69.91	0
2	380855	70.01	0
2	381402	70.11	0
2	381949	70.21	0
2	382496	70.31	0
2	383043	70.41	0
2	383590	70.51	0
2	384137	70.61	0
2	384684	70.71	0
2	385231	70.81	0
2	385778	70.91	0
2	386333	71.01	0
2	386880	71.11	0
2	387427	71.21	0
2	387974	71.31	0
2	388521	71.41	0
2	389068	71.51	0
2	389615	71.61	0
2	390162	71.71	0
2	390709	71.81	0
2	391256	71.91	0
2	391811	72.01	0
2	393128	72.11	0
2	393674	72.21	0
2	394220	72.31	0
2	394766	72.41	0
2	395312	72.51	0
2	395858	72.61	0
2	396404	72.71	0
2	396950	72.81	0
2	397496	72.91	0
2	398050	73.01	0
2	398596	73.11	0
2	399142	73.21	0
2	399688	73.31	0
2	400234	73.41	0
2	400780	73.51	0
2	401326	73.61	0
2	401872	73.71	0
2	402418	73.81	0
2	402964	73.91	0
2	403518	74.01	0
2	404064	74.11	0
2	404610	74.21	0
2	405156	74.31	0
2	405702	74.41	0
2	406248	74.51	0
2	406794	74.61	0
2	407340	74.71	0
2	407886	74.81	0
2	408432	74.91	0
2	408986	75.01	0
2	409532	75.11	0
2	410078	75.21	0
2	410624	75.31	0
2	411170	75.41	0
2	411716	75.51	0
2	412262	75.61	0
2	412808	75.71	0
2	413354	75.81	0
2	413900	75.91	0
2	414454	76.01	0
2	415000	76.11	0
2	415546	76.21	0
2	416092	76.31	0
2	416638	76.41	0
2	417184	76.51	0
2	417730	76.61	0
2	418276	76.71	0
2	418822	76.81	0
2	419368	76.91	0
2	419922	77.01	0
2	420468	77.11	0
2	421014	77.21	0
2	421560	77.31	0
2	422106	77.41	0
2	422652	77.51	0
2	423198	77.61	0
2	423744	77.71	0
2	424290	77.81	0
2	424836	77.91	0
2	425390	78.01	0
2	425936	78.11	0
2	426482	78.21	0
2	427028	78.31	0
2	427574	78.41	0
2	428120	78.51	0
2	428666	78.61	0
2	429212	78.71	0
2	429758	78.81	0
2	430304	78.91	0
2	430858	79.01	0
2	431404	79.11	0
2	431950	79.21	0
2	432496	79.31	0
2	433042	79.41	0
2	433588	79.51	0
2	434134	79.61	0
2	434680	79.71	0
2	435226	79.81	0
2	435772	79.91	0
2	436326	80.01	0
2	436872	80.11	0
2	437418	80.21	0
2	437964	80.31	0
2	438510	80.41	0
2	439056	80.51	0
2	439602	80.61	0
2	440148	80.71	0
2	440694	80.81	0
2	441240	80.91	0
2	441794	81.01	0
2	442340	81.11	0
2	442886	81.21	0
2	443432	81.31	0
2	443978	81.41	0
2	444524	81.51	0
2	445070	81.61	0
2	445616	81.71	0
2	446162	81.81	0
2	446708	81.91	0
2	447262	82.01	0
2	447808	82.11	0
2	448354	82.21	0
2	448900	82.31	0
2	449446	82.41	0
2	449992	82.51	0
2	450538	82.61	0
2	451084	82.71	0
2	451630	82.81	0
2	452176	82.91	0
2	452730	83.01	0
2	453276	83.11	0
2	453822	83.21	0
2	454368	83.31	0
2	454914	83.41	0
2	455460	83.51	0
2	456006	83.61	0
2	456552	83.71	0
2	457098	83.81	0
2	457644	83.91	0
2	458198	84.01	0
2	458744	84.11	0
2	459290	84.21	0
2	459836	84.31	0
2	460382	84.41	0
2	460928	84.51	0
2	461474	84.61	0
2	462020	84.71	0
2	462566	84.81	0
2	463112	84.91	0
2	463666	85.01	0
2	464212	85.11	0
2	464758	85.21	0
2	465304	85.31	0
2	465850	85.41	0
2	466396	85.51	0
2	466942	85.61	0
2	467488	85.71	0
2	468034	85.81	0
2	468580	85.91	0
2	469134	86.01	0
2	469680	86.11	0
2	470226	86.21	0
2	470772	86.31	0
2	471318	86.41	0
2	471864	86.51	0
2	472410	86.61	0
2	472956	86.71	0
2	473502	86.81	0
2	474048	86.91	0
2	474602	87.01	0
2	475148	87.11	0
2	475694	87.21	0
2	476240	87.31	0
2	476786	87.41	0
2	477332	87.51	0
2	477878	87.61	0
2	478424	87.71	0
2	478970	87.81	0
2	479516	87.91	0
2	480070	88.01	0
2	480616	88.11	0
2	481162	88.21	0
2	481708	88.31	0
2	482254	88.41	0
2	482800	88.51	0
2	483346	88.61	0
2	483892	88.71	0
2	484438	88.81	0
2	484984	88.91	0
2	485538	89.01	0
2	486084	89.11	0
2	486630	89.21	0
2	487176	89.31	0
2	487722	89.41	0
2	488268	89.51	0
2	488814	89.61	0
2	489360	89.71	0
2	489906	89.81	0
2	490452	89.91	0
2	491006	90.01	0
2	491552	90.11	0
2	492098	90.21	0
2	492644	90.31	0
2	493190	90.41	0
2	493736	90.51	0
2	494282	90.61	0
2	494828	90.71	0
2	495374	90.81	0
2	495920	90.91	0
2	496474	91.01	0
2	497020	91.11	0
2	497566	91.21	0
2	498112	91.31	0
2	498658	91.41	0
2	499204	91.51	0
2	499750	91.61	0
2	500296	91.71	0
2	500842	91.81	0
2	501388	91.91	0
2	501942	92.01	0
2	502488	92.11	0
2	503034	92.21	0
2	503580	92.31	0
2	504126	92.41	0
2	504672	92.51	0
2	505218	92.61	0
2	505764	92.71	0
2	506310	92.81	0
2	506856	92.91	0
2	507410	93.01	0
2	507956	93.11	0
2	508502	93.21	0
2	509048	93.31	0
2	509594	93.41	0
2	510140	93.51	0
2	510686	93.61	0
2	511232	93.71	0
2	511778	93.81	0
2	512324	93.91	0
2	512878	94.01	0
2	513424	94.11	0
2	513970	94.21	0
2	514516	94.31	0
2	515062	94.41	0
2	515608	94.51	0
2	516154	94.61	0
2	516700	94.71	0
2	517246	94.81	0
2	517792	94.91	0
2	518346	95.01	0
2	518892	95.11	0
2	519438	95.21	0
2	519984	95.31	0
2	520530	95.41	0
2	521076	95.51	0
2	521622	95.61	0
2	522168	95.71	0
2	522714	95.81	0
2	523260	95.91	0
2	523814	96.01	0
2	524360	96.11	0
2	524906	96.21	0
2	525452	96.31	0
2	525998	96.41	0
2	526544	96.51	0
2	527090	96.61	0
2	527636	96.71	0
2	528182	96.81	0
2	528728	96.91	0
2	529282	97.01	0
2	529828	97.11	0
2	530374	97.21	0
2	530920	97.31	0
2	531466	97.41	0
2	532012	97.51	0
2	532558	97.61	0
2	533104	97.71	0
2	533650	97.81	0
2	534196	97.91	0
2	534750	98.01	0
2	535296	98.11	0
2	535842	98.21	0
2	536388	98.31	0
2	536934	98.41	0
2	537480	98.51	0
2	538026	98.61	0
2	538572	98.71	0
2	539118	98.81	0
2	539664	98.91	0
2	540218	99.01	0
2	540764	99.11	0
2	541310	99.21	0
2	541856	99.31	0
2	542402	99.41	0
2	542948	99.51	0
2	543494	99.61	0
2	544040	99.71	0
2	544586	99.81	0
2	545132	99.91	0
3	113	1.11	0.000179096
3	659	1.21	0.000340852
3	1205	1.31	0.000467435
3	1751	1.41	0.000562893
3	2297	1.51	0.000631106
3	2843	1.61	0.000675745
3	3389	1.71	0.000700245
3	3935	1.81	0.000707784
3	4481	1.91	0.000701273
3	5035	2.01	0.000683354
3	5581	2.11	0.000656398
3	6127	2.21	0.000622512
3	6673	2.31	0.000583548
3	7219	2.41	0.000541117
3	7765	2.51	0.000496604
3	8311	2.61	0.000451181
3	8857	2.71	0.000405825
3	9403	2.81	0.00036134
3	9949	2.91	0.000318365
3	10503	3.01	0.0002774
3	11049	3.11	0.00023882
3	11595	3.21	0.000202887
3	12141	3.31	0.00016977
3	12687	3.41	0.000139558
3	13233	3.51	0.000112271
3	13779	3.61	8.78717e-05
3	14325	3.71	6.628e-05
3	14871	3.81	4.73785e-05
3	15417	3.91	3.1023e-05
3	15971	4.01	1.70493e-05
3	16517	4.11	5.28023e-06
3	17063	4.21	-4.46922e-06
3	17609	4.31	-1.2387e-05
3	18155	4.41	-1.86602e-05
3	18701	4.51	-2.34717e-05
3	19247	4.61	-2.69978e-05
3	19793	4.71	-2.94062e-05
3	20339	4.81	-3.08545e-05
3	20885	4.91	-3.14892e-05
3	21439	5.01	-3.14451e-05
3	21985	5.11	-3.0845e-05
3	22531	5.21	-2.97994e-05
3	23077	5.31	-2.84072e-05
3	23623	5.41	-2.67556e-05
3	24169	5.51	-2.49208e-05
3	24715	5.61	-2.29687e-05
3	25261	5.71	-2.09553e-05
3	25807	5.81	-1.89277e-05
3	26353	5.91	-1.6925e-05
3	26907	6.01	-1.49784e-05
3	27453	6.11	-1.31129e-05
3	27999	6.21	-1.13474e-05
3	28545	6.31	-9.69553e-06
3	29091	6.41	-8.16651e-06
3	29637	6.51	-6.76571e-06
3	30183	6.61	-5.49522e-06
3	30729	6.71	-4.35441e-06
3	31275	6.81	-3.34045e-06
3	31821	6.91	-2.44874e-06
3	32375	7.01	-1.6733e-06
3	32921	7.11	-1.00716e-06
3	33467	7.21	-4.42628e-07
3	34013	7.31	2.84224e-08
3	34559	7.41	4.14339e-07
3	35105	7.51	7.23492e-07
3	35651	7.61	9.6413e-07
3	36197	7.71	1.14424e-06
3	36743	7.81	1.27148e-06
3	37289	7.91	1.35305e-06
3	37843	8.01	1.3957e-06
3	38389	8.11	1.40565e-06
3	38935	8.21	1.3886e-06
3	39481	8.31	1.34971e-06
3	40027	8.41	1.2936e-06
3	40573	8.51	1.22437e-06
3	41119	8.61	1.14561e-06
3	41665	8.71	1.06046e-06
3	42211	8.81	9.71582e-07
3	42757	8.91	8.81246e-07
3	43311	9.01	7.91334e-07
3	43857	9.11	7.03381e-07
3	44403	9.21	6.18613e-07
3	44949	9.31	5.37979e-07
3	45495	9.41	4.62183e-07
3	46041	9.51	3.91714e-07
3	46587	9.61	3.26878e-07
3	47133	9.71	2.67827e-07
3	47679	9.81	2.14581e-07
3	48225	9.91	1.67052e-07
3	48853	10.01	1.25066e-07
3	49406	10.11	8.83794e-08
3	49959	10.21	5.66978e-08
3	50512	10.31	2.96922e-08
3	51065	10.41	7.00453e-09
3	51618	10.51	-1.17325e-08
3	52171	10.61	-2.68933e-08
3	52724	10.71	-3.88482e-08
3	53277	10.81	-4.79581e-08
3	53830	10.91	-5.45704e-08
3	54391	11.01	-5.90177e-08
3	54944	11.11	-6.16069e-08
3	55497	11.21	-6.26265e-08
3	56050	11.31	-6.23395e-08
3	56603	11.41	-6.09859e-08
3	57156	11.51	-5.87811e-08
3	57709	11.61	-5.59183e-08
3	58262	11.71	-5.25674e-08
3	58815	11.81	-4.88761e-08
3	59368	11.91	-4.4971e-08
3	59929	12.01	-4.09599e-08
3	60482	12.11	-3.69354e-08
3	61035	12.21	-3.29713e-08
3	61588	12.31	-2.9128e-08
3	62141	12.41	-2.54531e-08
3	62694	12.51	-2.19821e-08
3	63247	12.61	-1.87399e-08
3	63800	12.71	-1.57428e-08
3	64353	12.81	-1.30029e-08
3	64906	12.91	-1.05217e-08
3	65467	13.01	-8.29772e-09
3	66020	13.11	-6.32454e-09
3	66573	13.21	-4.59224e-09
3	67126	13.31	-3.08802e-09
3	67679	13.41	-1.79838e-09
3	68232	13.51	-7.08411e-10
3	68785	13.61	1.98241e-10
3	69338	13.71	9.37916e-10
3	69891	13.81	1.52767e-09
3	70444	13.91	1.98384e-09
3	71005	14.01	2.32276e-09
3	71558	14.11	2.55937e-09
3	72111	14.21	2.70788e-09
3	72664	14.31	2.78249e-09
3	73217	14.41	2.79243e-09
3	73770	14.51	2.7498e-09
3	74323	14.61	2.66525e-09
3	74876	14.71	2.54872e-09
3	75429	14.81	2.40803e-09
3	75982	14.91	2.24887e-09
3	76543	15.01	2.07763e-09
3	77096	15.11	1.89999e-09
3	77649	15.21	1.72236e-09
3	78202	15.31	1.54472e-09
3	78755	15.41	1.37064e-09
3	79308	15.51	1.20295e-09
3	79861	15.61	1.04379e-09
3	80414	15.71	8.94573e-10
3	80967	15.81	7.56017e-10
3	81520	15.91	6.29541e-10
3	82081	16.01	5.13012e-10
3	82634	16.11	4.09273e-10
3	83187	16.21	3.16902e-10
3	83740	16.31	2.3519e-10
3	84293	16.41	1.63425e-10
3	84846	16.51	1.02318e-10
3	85399	16.61	4.9738e-11
3	85952	16.71	5.68434e-12
3	86505	16.81	-3.05533e-11
3	87058	16.91	-5.8975e-11
3	87619	17.01	-8.10019e-11
3	88172	17.11	-9.80549e-11
3	88725	17.21	-1.11555e-10
3	89278	17.31	-1.18661e-10
3	89831	17.41	-1.23634e-10
3	90384	17.51	-1.23634e-10
3	90937	17.61	-1.23634e-10
3	91490	17.71	-1.21503e-10
3	92043	17.81	-1.14397e-10
3	92596	17.91	-1.07292e-10
3	93157	18.01	-1.00187e-10
3	93710	18.11	-9.30811e-11
3	94263	18.21	-8.59757e-11
3	94816	18.31	-7.88702e-11
3	95369	18.41	-7.17648e-11
3	95922	18.51	-6.46594e-11
3	96475	18.61	-5.7554e-11
3	97028	18.71	-5.04485e-11
3	97581	18.81	-4.33431e-11
3	98134	18.91	-3.62377e-11
3	98695	19.01	-2.91323e-11
3	99248	19.11	-2.20268e-11
3	99801	19.21	-1.7053e-11
3	100354	19.31	-1.49214e-11
3	100907	19.41	-1.35003e-11
3	101460	19.51	-1.27898e-11
3	102013	19.61	-1.13687e-11
3	102566	19.71	-9.9476e-12
3	103119	19.81	-9.23706e-12
3	103672	19.91	-8.52651e-12
3	104233	20.01	-7.81597e-12
3	104786	20.11	-7.10543e-12
3	105339	20.21	-6.39488e-12
3	105892	20.31	-5.68434e-12
3	106445	20.41	-4.9738e-12
3	106998	20.51	-4.26326e-12
3	107551	20.61	-4.26326e-12
3	108104	20.71	-3.55271e-12
3	108657	20.81	-3.55271e-12
3	109210	20.91	-2.84217e-12
3	109771	21.01	-2.84217e-12
3	110324	21.11	-2.84217e-12
3	110877	21.21	-2.13163e-12
3	111430	21.31	-2.13163e-12
3	111983	21.41	-2.13163e-12
3	112536	21.51	-1.42109e-12
3	113089	21.61	-1.42109e-12
3	113642	21.71	-1.42109e-12
3	114195	21.81	-1.42109e-12
3	114748	21.91	-1.42109e-12
3	115309	22.01	-7.10543e-13
3	115862	22.11	-7.10543e-13
3	116415	22.21	-7.10543e-13
3	116968	22.31	-7.10543e-13
3	117521	22.41	-7.10543e-13
3	118074	22.51	-7.10543e-13
3	118627	22.61	-7.10543e-13
3	119180	22.71	-7.10543e-13
3	119733	22.81	-7.10543e-13
3	120286	22.91	-7.10543e-13
3	120847	23.01	0
3	121400	23.11	0
3	121953	23.21	0
3	122506	23.31	0
3	123059	23.41	0
3	123612	23.51	0
3	124165	23.61	0
3	124718	23.71	0
3	125271	23.81	0
3	125824	23.91	0
3	126385	24.01	0
3	126938	24.11	0
3	127491	24.21	0
3	128044	24.31	0
3	128597	24.41	0
3	129150	24.51	0
3	129703	24.61	0
3	130256	24.71	0
3	130809	24.81	0
3	131362	24.91	0
3	131923	25.01	0
3	132476	25.11	0
3	133029	25.21	0
3	133582	25.31	0
3	134135	25.41	0
3	134688	25.51	0
3	135241	25.61	0
3	135794	25.71	0
3	136347	25.81	0
3	136900	25.91	0
3	137461	26.01	0
3	138014	26.11	0
3	138567	26.21	0
3	139120	26.31	0
3	139673	26.41	0
3	140226	26.51	0
3	140779	26.61	0
3	141332	26.71	0
3	141885	26.81	0
3	142438	26.91	0
3	142999	27.01	0
3	143552	27.11	0
3	144105	27.21	0
3	144658	27.31	0
3	145211	27.41	0
3	145764	27.51	0
3	146317	27.61	0
3	146870	27.71	0
3	147423	27.81	0
3	147976	27.91	0
3	148537	28.01	0
3	149090	28.11	0
3	149643	28.21	0
3	150196	28.31	0
3	150749	28.41	0
3	151302	28.51	0
3	151855	28.61	0
3	152408	28.71	0
3	152961	28.81	0
3	153514	28.91	0
3	154075	29.01	0
3	154628	29.11	0
3	155181	29.21	0
3	155734	29.31	0
3	156287	29.41	0
3	156840	29.51	0
3	157393	29.61	0
3	157946	29.71	0
3	158499	29.81	0
3	159052	29.91	0
3	159613	30.01	0
3	160166	30.11	0
3	160719	30.21	0
3	161272	30.31	0
3	161825	30.41	0
3	162378	30.51	0
3	162931	30.61	0
3	163484	30.71	0
3	164037	30.81	0
3	164590	30.91	0
3	165151	31.01	0
3	165704	31.11	0
3	166257	31.21	0
3	166810	31.31	0
3	167363	31.41	0
3	167916	31.51	0
3	168469	31.61	0
3	169022	31.71	0
3	169575	31.81	0
3	170128	31.91	0
3	170689	32.01	0
3	171242	32.11	0
3	171795	32.21	0
3	172348	32.31	0
3	172901	32.41	0
3	173454	32.51	0
3	174007	32.61	0
3	174560	32.71	0
3	175113	32.81	0
3	175666	32.91	0
3	176227	33.01	0
3	176780	33.11	0
3	177333	33.21	0
3	177886	33.31	0
3	178439	33.41	0
3	178992	33.51	0
3	179545	33.61	0
3	180098	33.71	0
3	180651	33.81	0
3	181204	33.91	0
3	181765	34.01	0
3	182318	34.11	0
3	182871	34.21	0
3	183424	34.31	0
3	183977	34.41	0
3	184530	34.51	0
3	185083	34.61	0
3	185636	34.71	0
3	186189	34.81	0
3	186742	34.91	0
3	187303	35.01	0
3	187856	35.11	0
3	188409	35.21	0
3	188962	35.31	0
3	189515	35.41	0
3	190068	35.51	0
3	190621	35.61	0
3	191174	35.71	0
3	191727	35.81	0
3	192280	35.91	0
3	192841	36.01	0
3	193394	36.11	0
3	193947	36.21	0
3	194500	36.31	0
3	195053	36.41	0
3	195606	36.51	0
3	196159	36.61	0
3	196712	36.71	0
3	197265	36.81	0
3	197818	36.91	0
3	198379	37.01	0
3	198932	37.11	0
3	199485	37.21	0
3	200038	37.31	0
3	200591	37.41	0
3	201144	37.51	0
3	201697	37.61	0
3	202250	37.71	0
3	202803	37.81	0
3	203356	37.91	0
3	203917	38.01	0
3	204470	38.11	0
3	205023	38.21	0
3	205576	38.31	0
3	206129	38.41	0
3	206682	38.51	0
3	207235	38.61	0
3	207788	38.71	0
3	208341	38.81	0
3	208894	38.91	0
3	209455	39.01	0
3	210008	39.11	0
3	210561	39.21	0
3	211114	39.31	0
3	211667	39.41	0
3	212220	39.51	0
3	212773	39.61	0
3	213326	39.71	0
3	213879	39.81	0
3	214432	39.91	0
3	214993	40.01	0
3	215546	40.11	0
3	216099	40.21	0
3	216652	40.31	0
3	217205	40.41	0
3	217758	40.51	0
3	218311	40.61	0
3	218864	40.71	0
3	219417	40.81	0
3	219970	40.91	0
3	220531	41.01	0
3	221084	41.11	0
3	221637	41.21	0
3	222190	41.31	0
3	222743	41.41	0
3	223296	41.51	0
3	223849	41.61	0
3	224402	41.71	0
3	224955	41.81	0
3	225508	41.91	0
3	226069	42.01	0
3	226622	42.11	0
3	227175	42.21	0
3	227728	42.31	0
3	228281	42.41	0
3	228834	42.51	0
3	229387	42.61	0
3	230033	42.71	0
3	230585	42.81	0
3	231137	42.91	0
3	231697	43.01	0
3	232249	43.11	0
3	232801	43.21	0
3	233353	43.31	0
3	233905	43.41	0
3	234457	43.51	0
3	235009	43.61	0
3	235561	43.71	0
3	236113	43.81	0
3	236665	43.91	0
3	237225	44.01	0
3	237777	44.11	0
3	238329	44.21	0
3	238881	44.31	0
3	239433	44.41	0
3	239985	44.51	0
3	240537	44.61	0
3	241089	44.71	0
3	241641	44.81	0
3	242193	44.91	0
3	242753	45.01	0
3	243305	45.11	0
3	243857	45.21	0
3	244409	45.31	0
3	244961	45.41	0
3	245513	45.51	0
3	246065	45.61	0
3	246617	45.71	0
3	247169	45.81	0
3	247721	45.91	0
3	248281	46.01	0
3	248833	46.11	0
3	249385	46.21	0
3	249937	46.31	0
3	250489	46.41	0
3	251041	46.51	0
3	251593	46.61	0
3	252145	46.71	0
3	252697	46.81	0
3	253249	46.91	0
3	253809	47.01	0
3	254361	47.11	0
3	254913	47.21	0
3	255465	47.31	0
3	256017	47.41	0
3	256569	47.51	0
3	257121	47.61	0
3	257673	47.71	0
3	258225	47.81	0
3	258777	47.91	0
3	259337	48.01	0
3	259889	48.11	0
3	260441	48.21	0
3	260993	48.31	0
3	261545	48.41	0
3	262190	48.51	0
3	262741	48.61	0
3	263292	48.71	0
3	263843	48.81	0
3	264394	48.91	0
3	264953	49.01	0
3	265504	49.11	0
3	266055	49.21	0
3	266606	49.31	0
3	267157	49.41	0
3	267708	49.51	0
3	268259	49.61	0
3	268810	49.71	0
3	269361	49.81	0
3	269912	49.91	0
3	270471	50.01	0
3	271022	50.11	0
3	271573	50.21	0
3	272124	50.31	0
3	272675	50.41	0
3	273226	50.51	0
3	273777	50.61	0
3	274328	50.71	0
3	274879	50.81	0
3	275430	50.91	0
3	275989	51.01	0
3	276540	51.11	0
3	277091	51.21	0
3	277642	51.31	0
3	278193	51.41	0
3	278744	51.51	0
3	279295	51.61	0
3	279846	51.71	0
3	280397	51.81	0
3	280948	51.91	0
3	281507	52.01	0
3	282058	52.11	0
3	282609	52.21	0
3	283160	52.31	0
3	283711	52.41	0
3	284262	52.51	0
3	284813	52.61	0
3	285364	52.71	0
3	285915	52.81	0
3	286466	52.91	0
3	287025	53.01	0
3	287576	53.11	0
3	288127	53.21	0
3	288678	53.31	0
3	289229	53.41	0
3	289780	53.51	0
3	290331	53.61	0
3	290882	53.71	0
3	291526	53.81	0
3	292076	53.91	0
3	292634	54.01	0
3	293184	54.11	0
3	293734	54.21	0
3	294284	54.31	0
3	294834	54.41	0
3	295384	54.51	0
3	295934	54.61	0
3	296484	54.71	0
3	297034	54.81	0
3	297584	54.91	0
3	298142	55.01	0
3	298692	55.11	0
3	299242	55.21	0
3	299792	55.31	0
3	300342	55.41	0
3	300892	55.51	0
3	301442	55.61	0
3	301992	55.71	0
3	302542	55.81	0
3	303092	55.91	0
3	303650	56.01	0
3	304200	56.11	0
3	304750	56.21	0
3	305300	56.31	0
3	305850	56.41	0
3	306400	56.51	0
3	306950	56.61	0
3	307500	56.71	0
3	308050	56.81	0
3	308600	56.91	0
3	309158	57.01	0
3	309708	57.11	0
3	310258	57.21	0
3	310808	57.31	0
3	311358	57.41	0
3	311908	57.51	0
3	312458	57.61	0
3	313008	57.71	0
3	313558	57.81	0
3	314108	57.91	0
3	314666	58.01	0
3	315216	58.11	0
3	315766	58.21	0
3	316316	58.31	0
3	316866	58.41	0
3	317416	58.51	0
3	318076	58.61	0
3	318625	58.71	0
3	319174	58.81	0
3	319723	58.91	0
3	320280	59.01	0
3	320829	59.11	0
3	321378	59.21	0
3	321927	59.31	0
3	322476	59.41	0
3	323025	59.51	0
3	323574	59.61	0
3	324123	59.71	0
3	324672	59.81	0
3	325221	59.91	0
3	325778	60.01	0
3	326327	60.11	0
3	326876	60.21	0
3	327425	60.31	0
3	327974	60.41	0
3	328523	60.51	0
3	329072	60.61	0
3	329621	60.71	0
3	330170	60.81	0
3	330719	60.91	0
3	331276	61.01	0
3	331825	61.11	0
3	332374	61.21	0
3	332923	61.31	0
3	333472	61.41	0
3	334021	61.51	0
3	334570	61.61	0
3	335119	61.71	0
3	335668	61.81	0
3	336217	61.91	0
3	336774	62.01	0
3	337323	62.11	0
3	337872	62.21	0
3	338421	62.31	0
3	338970	62.41	0
3	339519	62.51	0
3	340068	62.61	0
3	340617	62.71	0
3	341166	62.81	0
3	341715	62.91	0
3	342272	63.01	0
3	342821	63.11	0
3	343370	63.21	0
3	344012	63.31	0
3	344560	63.41	0
3	345108	63.51	0
3	345656	63.61	0
3	346204	63.71	0
3	346752	63.81	0
3	347300	63.91	0
3	347856	64.01	0
3	348404	64.11	0
3	348952	64.21	0
3	349500	64.31	0
3	350048	64.41	0
3	350596	64.51	0
3	351144	64.61	0
3	351692	64.71	0
3	352240	64.81	0
3	352788	64.91	0
3	353344	65.01	0
3	353892	65.11	0
3	354440	65.21	0
3	354988	65.31	0
3	355536	65.41	0
3	356084	65.51	0
3	356632	65.61	0
3	357180	65.71	0
3	357728	65.81	0
3	358276	65.91	0
3	358832	66.01	0
3	359380	66.11	0
3	359928	66.21	0
3	360476	66.31	0
3	361024	66.41	0
3	361572	66.51	0
3	362120	66.61	0
3	362668	66.71	0
3	363216	66.81	0
3	363764	66.91	0
3	364320	67.01	0
3	364868	67.11	0
3	365416	67.21	0
3	365964	67.31	0
3	366512	67.41	0
3	367060	67.51	0
3	367608	67.61	0
3	368156	67.71	0
3	368797	67.81	0
3	369344	67.91	0
3	369899	68.01	0
3	370446	68.11	0
3	370993	68.21	0
3	371540	68.31	0
3	372087	68.41	0
3	372634	68.51	0
3	373181	68.61	0
3	373728	68.71	0
3	374275	68.81	0
3	374822	68.91	0
3	375377	69.01	0
3	375924	69.11	0
3	376471	69.21	0
3	377018	69.31	0
3	377565	69.41	0
3	378112	69.51	0
3	378659	69.61	0
3	379206	69.71	0
3	379753	69.81	0
3	380300	69.91	0
3	380855	70.01	0
3	381402	70.11	0
3	381949	70.21	0
3	382496	70.31	0
3	383043	70.41	0
3	383590	70.51	0
3	384137	70.61	0
3	384684	70.71	0
3	385231	70.81	0
3	385778	70.91	0
3	386333	71.01	0
3	386880	71.11	0
3	387427	71.21	0
3	387974	71.31	0
3	388521	71.41	0
3	389068	71.51	0
3	389615	71.61	0
3	390162	71.71	0
3	390709	71.81	0
3	391256	71.91	0
3	391811	72.01	0
3	393128	72.11	0
3	393674	72.21	0
3	394220	72.31	0
3	394766	72.41	0
3	395312	72.51	0
3	395858	72.61	0
3	396404	72.71	0
3	396950	72.81	0
3	397496	72.91	0
3	398050	73.01	0
3	398596	73.11	0
3	399142	73.21	0
3	399688	73.31	0
3	400234	73.41	0
3	400780	73.51	0
3	401326	73.61	0
3	401872	73.71	0
3	402418	73.81	0
3	402964	73.91	0
3	403518	74.01	0
3	404064	74.11	0
3	404610	74.21	0
3	405156	74.31	0
3	405702	74.41	0
3	406248	74.51	0
3	406794	74.61	0
3	407340	74.71	0
3	407886	74.81	0
3	408432	74.91	0
3	408986	75.01	0
3	409532	75.11	0
3	410078	75.21	0
3	410624	75.31	0
3	411170	75.41	0
3	411716	75.51	0
3	412262	75.61	0
3	412808	75.71	0
3	413354	75.81	0
3	413900	75.91	0
3	414454	76.01	0
3	415000	76.11	0
3	415546	76.21	0
3	416092	76.31	0
3	416638	76.41	0
3	417184	76.51	0
3	417730	76.61	0
3	418276	76.71	0
3	418822	76.81	0
3	419368	76.91	0
3	419922	77.01	0
3	420468	77.11	0
3	421014	77.21	0
3	421560	77.31	0
3	422106	77.41	0
3	422652	77.51	0
3	423198	77.61	0
3	423744	77.71	0
3	424290	77.81	0
3	424836	77.91	0
3	425390	78.01	0
3	425936	78.11	0
3	426482	78.21	0
3	427028	78.31	0
3	427574	78.41	0
3	428120	78.51	0
3	428666	78.61	0
3	429212	78.71	0
3	429758	78.81	0
3	430304	78.91	0
3	430858	79.01	0
3	431404	79.11	0
3	431950	79.21	0
3	432496	79.31	0
3	433042	79.41	0
3	433588	79.51	0
3	434134	79.61	0
3	434680	79.71	0
3	435226	79.81	0
3	435772	79.91	0
3	436326	80.01	0
3	436872	80.11	0
3	437418	80.21	0
3	437964	80.31	0
3	438510	80.41	0
3	439056	80.51	0
3	439602	80.61	0
3	440148	80.71	0
3	440694	80.81	0
3	441240	80.91	0
3	441794	81.01	0
3	442340	81.11	0
3	442886	81.21	0
3	443432	81.31	0
3	443978	81.41	0
3	444524	81.51	0
3	445070	81.61	0
3	445616	81.71	0
3	446162	81.81	0
3	446708	81.91	0
3	447262	82.01	0
3	447808	82.11	0
3	448354	82.21	0
3	448900	82.31	0
3	449446	82.41	0
3	449992	82.51	0
3	450538	82.61	0
3	451084	82.71	0
3	451630	82.81	0
3	452176	82.91	0
3	452730	83.01	0
3	453276	83.11	0
3	453822	83.21	0
3	454368	83.31	0
3	454914	83.41	0
3	455460	83.51	0
3	456006	83.61	0
3	456552	83.71	0
3	457098	83.81	0
3	457644	83.91	0
3	458198	84.01	0
3	458744	84.11	0
3	459290	84.21	0
3	459836	84.31	0
3	460382	84.41	0
3	460928	84.51	0
3	461474	84.61	0
3	462020	84.71	0
3	462566	84.81	0
3	463112	84.91	0
3	463666	85.01	0
3	464212	85.11	0
3	464758	85.21	0
3	465304	85.31	0
3	465850	85.41	0
3	466396	85.51	0
3	466942	85.61	0
3	467488	85.71	0
3	468034	85.81	0
3	468580	85.91	0
3	469134	86.01	0
3	469680	86.11	0
3	470226	86.21	0
3	470772	86.31	0
3	471318	86.41	0
3	471864	86.51	0
3	472410	86.61	0
3	472956	86.71	0
3	473502	86.81	0
3	474048	86.91	0
3	474602	87.01	0
3	475148	87.11	0
3	475694	87.21	0
3	476240	87.31	0
3	476786	87.41	0
3	477332	87.51	0
3	477878	87.61	0
3	478424	87.71	0
3	478970	87.81	0
3	479516	87.91	0
3	480070	88.01	0
3	480616	88.11	0
3	481162	88.21	0
3	481708	88.31	0
3	482254	88.41	0
3	482800	88.51	0
3	483346	88.61	0
3	483892	88.71	0
3	484438	88.81	0
3	484984	88.91	0
3	485538	89.01	0
3	486084	89.11	0
3	486630	89.21	0
3	487176	89.31	0
3	487722	89.41	0
3	488268	89.51	0
3	488814	89.61	0
3	489360	89.71	0
3	489906	89.81	0
3	490452	89.91	0
3	491006	90.01	0
3	491552	90.11	0
3	492098	90.21	0
3	492644	90.31	0
3	493190	90.41	0
3	493736	90.51	0
3	494282	90.61	0
3	494828	90.71	0
3	495374	90.81	0
3	495920	90.91	0
3	496474	91.01	0
3	497020	91.11	0
3	497566	91.21	0
3	498112	91.31	0
3	498658	91.41	0
3	499204	91.51	0
3	499750	91.61	0
3	500296	91.71	0
3	500842	91.81	0
3	501388	91.91	0
3	501942	92.01	0
3	502488	92.11	0
3	503034	92.21	0
3	503580	92.31	0
3	504126	92.41	0
3	504672	92.51	0
3	505218	92.61	0
3	505764	92.71	0
3	506310	92.81	0
3	506856	92.91	0
3	507410	93.01	0
3	507956	93.11	0
3	508502	93.21	0
3	509048	93.31	0
3	509594	93.41	0
3	510140	93.51	0
3	510686	93.61	0
3	511232	93.71	0
3	511778	93.81	0
3	512324	93.91	0
3	512878	94.01	0
3	513424	94.11	0
3	513970	94.21	0
3	514516	94.31	0
3	515062	94.41	0
3	515608	94.51	0
3	516154	94.61	0
3	516700	94.71	0
3	517246	94.81	0
3	517792	94.91	0
3	518346	95.01	0
3	518892	95.11	0
3	519438	95.21	0
3	519984	95.31	0
3	520530	95.41	0
3	521076	95.51	0
3	521622	95.61	0
3	522168	95.71	0
[...]
105	441548	81	0.024969578094
105	447016	82	0.024969259385
105	452484	83	0.024968965469
105	457952	84	0.024968695807
105	463420	85	0.02496844938
105	468888	86	0.02496822488
105	474356	87	0.02498102075
105	479824	88	0.024967835351
105	485292	89	0.024967667057
105	490760	90	0.02496751435
105	496228	91	0.024967375819
105	501696	92	0.024980250149
105	507164	93	0.024967135135
105	512632	94	0.024967026581
105	518100	95	0.024966921579
105	523568	96	0.024966819272
105	529036	97	0.024979719496
105	534504	98	0.024966622129
105	539972	99	0.024966526986
105	545440	100	0.024979433848
106	4789	2	0
106	10257	3	0
106	15725	4	0
106	21193	5	0
106	26661	6	0
106	32129	7	0
106	37597	8	0
106	43065	9	0
106	48534	10	0
106	54138	11	0
106	59676	12	0
106	65214	13	0
106	70752	14	0
106	76290	15	0
106	81828	16	0
106	87366	17	0
106	92904	18	0
106	98442	19	0
106	103980	20	0
106	109518	21	0
106	115056	22	0
106	120594	23	0
106	126132	24	0
106	131670	25	0
106	137208	26	0
106	142746	27	0
106	148284	28	0
106	153822	29	0
106	159360	30	0
106	164898	31	0
106	170436	32	0
106	175974	33	0
106	181512	34	0
106	187050	35	0
106	192588	36	0
106	198126	37	0
106	203664	38	0
106	209202	39	0
106	214740	40	0
106	220278	41	0
106	225816	42	0
106	231445	43	0
106	236973	44	0
106	242501	45	0
106	248029	46	0
106	253557	47	0
106	259085	48	0
106	264702	49	0
106	270220	50	0
106	275738	51	0
106	281256	52	0
106	286774	53	0
106	292384	54	0
106	297892	55	0
106	303400	56	0
106	308908	57	0
106	314416	58	0
106	320031	59	0
106	325529	60	0
106	331027	61	0
106	336525	62	0
106	342023	63	0
106	347608	64	0
106	353096	65	0
106	358584	66	0
106	364072	67	0
106	369652	68	0
106	375130	69	0
106	380608	70	0
106	386086	71	0
106	391564	72	0
106	397804	73	0
106	403272	74	0
106	408740	75	0
106	414208	76	0
106	419676	77	0
106	425144	78	0
106	430612	79	0
106	436080	80	0
106	441548	81	0
106	447016	82	0
106	452484	83	0
106	457952	84	0
106	463420	85	0
106	468888	86	0
106	474356	87	0
106	479824	88	0
106	485292	89	0
106	490760	90	0
106	496228	91	0
106	501696	92	0
106	507164	93	0
106	512632	94	0
106	518100	95	0
106	523568	96	0
106	529036	97	0
106	534504	98	0
106	539972	99	0
106	545440	100	0
107	4790	2	5
107	10258	3	5
107	15726	4	5
107	21194	5	5
107	26662	6	5
107	32130	7	5
107	37598	8	5
107	43066	9	5
107	48535	10	5
107	54139	11	5
107	59677	12	5
107	65215	13	5
107	70753	14	5
107	76291	15	5
107	81829	16	5
107	87367	17	5
107	92905	18	5
107	98443	19	5
107	103981	20	5
107	109519	21	5
107	115057	22	5
107	120595	23	5
107	126133	24	5
107	131671	25	5
107	137209	26	5
107	142747	27	5
107	148285	28	5
107	153823	29	5
107	159361	30	5
107	164899	31	5
107	170437	32	5
107	175975	33	5
107	181513	34	5
107	187051	35	5
107	192589	36	5
107	198127	37	5
107	203665	38	5
107	209203	39	5
107	214741	40	5
107	220279	41	5
107	225817	42	5
107	231446	43	5
107	236974	44	5
107	242502	45	5
107	248030	46	5
107	253558	47	5
107	259086	48	5
107	264703	49	5
107	270221	50	5
107	275739	51	5
107	281257	52	5
107	286775	53	5
107	292385	54	5
107	297893	55	5
107	303401	56	5
107	308909	57	5
107	314417	58	5
107	320032	59	5
107	325530	60	5
107	331028	61	5
107	336526	62	5
107	342024	63	5
107	347609	64	5
107	353097	65	5
107	358585	66	5
107	364073	67	5
107	369653	68	5
107	375131	69	5
107	380609	70	5
107	386087	71	5
107	391565	72	5
107	397805	73	5
107	403273	74	5
107	408741	75	5
107	414209	76	5
107	419677	77	5
107	425145	78	5
107	430613	79	5
107	436081	80	5
107	441549	81	5
107	447017	82	5
107	452485	83	5
107	457953	84	5
107	463421	85	5
107	468889	86	5
107	474357	87	5
107	479825	88	5
107	485293	89	5
107	490761	90	5
107	496229	91	5
107	501697	92	5
107	507165	93	5
107	512633	94	5
107	518101	95	5
107	523569	96	5
107	529037	97	5
107	534505	98	5
107	539973	99	5
107	545441	100	5
108	4790	2	0.021463536907
108	10258	3	0.024964796364
108	15726	4	0.02497779636
108	21194	5	0.024964796355
108	26662	6	0.024977796343
108	32130	7	0.02496479634
108	37598	8	0.02496479634
108	43066	9	0.02497779634
108	48535	10	0.02496479634
108	54139	11	0.025022753745
108	59677	12	0.024964759546
108	65215	13	0.024977666064
108	70753	14	0.024964514456
108	76291	15	0.024977313504
108	81829	16	0.02496407297
108	87367	17	0.024963802237
108	92905	18	0.024976509849
108	98443	19	0.024976203403
108	103981	20	0.024962889449
108	109519	21	0.024975573508
108	115057	22	0.024962260149
108	120595	23	0.024974953046
108	126133	24	0.024961655078
108	131671	25	0.024974368439
108	137209	26	0.024974094698
108	142747	27	0.024973834944
108	148285	28	0.024960589841
108	153823	29	0.024973359677
108	159361	30	0.02497314449
108	164899	31	0.024972944081
108	170437	32	0.024959758092
108	175975	33	0.024972586029
108	181513	34	0.024972427281
108	187051	35	0.024972281211
108	192589	36	0.024972147114
108	198127	37	0.024959024275
108	203665	38	0.024971911968
108	209203	39	0.024971809496
108	214741	40	0.024971716133
108	220279	41	0.024971631212
108	225817	42	0.024971554077
108	231446	43	0.025075391378
108	236974	44	0.024971420728
108	242502	45	0.024971363377
108	248030	46	0.024971311549
108	253558	47	0.024971264745
108	259086	48	0.024971222538
108	264703	49	0.025074998632
108	270221	50	0.024971150257
108	275739	51	0.024971119446
108	281257	52	0.024971091757
108	286775	53	0.02497106689
108	292385	54	0.025087951289
108	297893	55	0.024958024552
108	303401	56	0.024971006613
108	308909	57	0.024970990551
108	314417	58	0.024970976162
108	320032	59	0.025087869958
108	325530	60	0.024970951792
108	331028	61	0.024970941513
108	336526	62	0.024970932332
108	342024	63	0.024957924145
108	347609	64	0.025121289129
108	353097	65	0.024970910312
108	358585	66	0.024970904507
108	364073	67	0.024970899324
108	369653	68	0.025074335742
108	375131	69	0.024970890616
108	380609	70	0.02497088696
108	386087	71	0.024970883709
108	391565	72	0.024970880826
108	397805	73	0.025897252169
108	403273	74	0.024970770119
108	408741	75	0.024970805992
108	414209	76	0.024970817848
108	419677	77	0.024970754699
108	425145	78	0.024970567995
108	430613	79	0.024970267085
108	436081	80	0.024969919384
108	441549	81	0.024969578094
108	447017	82	0.024969259385
108	452485	83	0.024968965469
108	457953	84	0.024968695807
108	463421	85	0.02496844938
108	468889	86	0.02496822488
108	474357	87	0.02498102075
108	479825	88	0.024967835351
108	485293	89	0.024967667057
108	490761	90	0.02496751435
108	496229	91	0.024967375819
108	501697	92	0.024980250149
108	507165	93	0.024967135135
108	512633	94	0.024967026581
108	518101	95	0.024966921579
108	523569	96	0.024966819272
108	529037	97	0.024979719496
108	534505	98	0.024966622129
108	539973	99	0.024966526986
108	545441	100	0.024979433848
109	4790	2	0
109	10258	3	0
109	15726	4	0
109	21194	5	0
109	26662	6	0
109	32130	7	0
109	37598	8	0
109	43066	9	0
109	48535	10	0
109	54139	11	0
109	59677	12	0
109	65215	13	0
109	70753	14	0
109	76291	15	0
109	81829	16	0
109	87367	17	0
109	92905	18	0
109	98443	19	0
109	103981	20	0
109	109519	21	0
109	115057	22	0
109	120595	23	0
109	126133	24	0
109	131671	25	0
109	137209	26	0
109	142747	27	0
109	148285	28	0
109	153823	29	0
109	159361	30	0
109	164899	31	0
109	170437	32	0
109	175975	33	0
109	181513	34	0
109	187051	35	0
109	192589	36	0
109	198127	37	0
109	203665	38	0
109	209203	39	0
109	214741	40	0
109	220279	41	0
109	225817	42	0
109	231446	43	0
109	236974	44	0
109	242502	45	0
109	248030	46	0
109	253558	47	0
109	259086	48	0
109	264703	49	0
109	270221	50	0
109	275739	51	0
109	281257	52	0
109	286775	53	0
109	292385	54	0
109	297893	55	0
109	303401	56	0
109	308909	57	0
109	314417	58	0
109	320032	59	0
109	325530	60	0
109	331028	61	0
109	336526	62	0
109	342024	63	0
109	347609	64	0
109	353097	65	0
109	358585	66	0
109	364073	67	0
109	369653	68	0
109	375131	69	0
109	380609	70	0
109	386087	71	0
109	391565	72	0
109	397805	73	0
109	403273	74	0
109	408741	75	0
109	414209	76	0
109	419677	77	0
109	425145	78	0
109	430613	79	0
109	436081	80	0
109	441549	81	0
109	447017	82	0
109	452485	83	0
109	457953	84	0
109	463421	85	0
109	468889	86	0
109	474357	87	0
109	479825	88	0
109	485293	89	0
109	490761	90	0
109	496229	91	0
109	501697	92	0
109	507165	93	0
109	512633	94	0
109	518101	95	0
109	523569	96	0
109	529037	97	0
109	534505	98	0
109	539973	99	0
109	545441	100	0
110	4791	2	6
110	10259	3	6
110	15727	4	6
110	21195	5	6
110	26663	6	6
110	32131	7	6
110	37599	8	6
110	43067	9	6
110	48536	10	6
110	54140	11	6
110	59678	12	6
110	65216	13	6
110	70754	14	6
110	76292	15	6
110	81830	16	6
110	87368	17	6
110	92906	18	6
110	98444	19	6
110	103982	20	6
110	109520	21	6
110	115058	22	6
110	120596	23	6
110	126134	24	6
110	131672	25	6
110	137210	26	6
110	142748	27	6
110	148286	28	6
110	153824	29	6
110	159362	30	6
110	164900	31	6
110	170438	32	6
110	175976	33	6
110	181514	34	6
110	187052	35	6
110	192590	36	6
110	198128	37	6
110	203666	38	6
110	209204	39	6
110	214742	40	6
110	220280	41	6
110	225818	42	6
110	231447	43	6
110	236975	44	6
110	242503	45	6
110	248031	46	6
110	253559	47	6
110	259087	48	6
110	264704	49	6
110	270222	50	6
110	275740	51	6
110	281258	52	6
110	286776	53	6
110	292386	54	6
110	297894	55	6
110	303402	56	6
110	308910	57	6
110	314418	58	6
110	320033	59	6
110	325531	60	6
110	331029	61	6
110	336527	62	6
110	342025	63	6
110	347610	64	6
110	353098	65	6
110	358586	66	6
110	364074	67	6
110	369654	68	6
110	375132	69	6
110	380610	70	6
110	386088	71	6
110	391566	72	6
110	397806	73	6
110	403274	74	6
110	408742	75	6
110	414210	76	6
110	419678	77	6
110	425146	78	6
110	430614	79	6
110	436082	80	6
110	441550	81	6
110	447018	82	6
110	452486	83	6
110	457954	84	6
110	463422	85	6
110	468890	86	6
110	474358	87	6
110	479826	88	6
110	485294	89	6
110	490762	90	6
110	496230	91	6
110	501698	92	6
110	507166	93	6
110	512634	94	6
110	518102	95	6
110	523570	96	6
110	529038	97	6
110	534506	98	6
110	539974	99	6
110	545442	100	6
111	4791	2	0.021463516893
111	10259	3	0.024964796364
111	15727	4	0.02497779636
111	21195	5	0.024964796355
111	26663	6	0.024977796343
111	32131	7	0.02496479634
111	37599	8	0.02496479634
111	43067	9	0.02497779634
111	48536	10	0.02496479634
111	54140	11	0.025022753748
111	59678	12	0.024964759526
111	65216	13	0.024977665986
111	70754	14	0.024964514297
111	76292	15	0.024977313251
111	81830	16	0.024964072616
111	87368	17	0.024963801778
111	92906	18	0.024976509287
111	98444	19	0.024976202744
111	103982	20	0.024962888702
111	109520	21	0.024975572683
111	115058	22	0.02496225926
111	120596	23	0.024974952105
111	126134	24	0.024961654098
111	131672	25	0.024974367434
111	137210	26	0.024974093679
111	142748	27	0.024973833923
111	148286	28	0.024960588828
111	153824	29	0.024973358679
111	159362	30	0.024973143516
111	164900	31	0.024972943137
111	170438	32	0.024959757182
111	175976	33	0.024972585157
111	181514	34	0.024972426449
111	187052	35	0.024972280423
111	192590	36	0.024972146368
111	198128	37	0.024959023574
111	203666	38	0.024971911311
111	209204	39	0.024971808881
111	214742	40	0.024971715561
111	220280	41	0.02497163068
111	225818	42	0.024971553584
111	231447	43	0.025075390922
111	236975	44	0.024971420308
111	242503	45	0.024971362991
111	248031	46	0.024971311194
111	253559	47	0.024971264419
111	259087	48	0.024971222241
111	264704	49	0.02507499836
111	270222	50	0.024971150008
111	275740	51	0.02497111922
111	281258	52	0.024971091552
111	286776	53	0.024971066703
111	292386	54	0.025087951119
111	297894	55	0.024958024399
111	303402	56	0.024971006474
111	308910	57	0.024970990425
111	314418	58	0.024970976049
111	320033	59	0.025087869855
111	325531	60	0.0249709517
111	331029	61	0.02497094143
111	336527	62	0.024970932257
111	342025	63	0.024957924077
111	347610	64	0.025087823403
111	353098	65	0.024970910258
111	358586	66	0.024970904458
111	364074	67	0.02497089928
111	369654	68	0.025107894681
111	375132	69	0.024970890581
111	380610	70	0.024970886928
111	386088	71	0.024970883681
111	391566	72	0.024970880801
111	397806	73	0.025897250378
111	403274	74	0.024970766854
111	408742	75	0.024970797729
111	414210	76	0.02497080463
111	419678	77	0.024970738847
111	425146	78	0.024970552044
111	430614	79	0.024970252471
111	436082	80	0.024969906449
111	441550	81	0.024969566644
111	447018	82	0.024969249136
111	452486	83	0.024968956221
111	457954	84	0.024968687442
111	463422	85	0.024968441822
111	468890	86	0.02496821806
111	474358	87	0.024981014603
111	479826	88	0.024967829816
111	485294	89	0.024967662076
111	490762	90	0.024967509871
111	496230	91	0.024967371794
111	501698	92	0.024980246529
111	507166	93	0.024967131768
111	512634	94	0.024967023275
111	518102	95	0.024966918262
111	523570	96	0.024966815943
111	529038	97	0.024979716163
111	534506	98	0.024966618797
111	539974	99	0.024966523653
111	545442	100	0.024979430516
112	4791	2	0
112	10259	3	0
112	15727	4	0
112	21195	5	0
112	26663	6	0
112	32131	7	0
112	37599	8	0
112	43067	9	0
112	48536	10	0
112	54140	11	0
112	59678	12	0
112	65216	13	0
112	70754	14	0
112	76292	15	0
112	81830	16	0
112	87368	17	0
112	92906	18	0
112	98444	19	0
112	103982	20	0
112	109520	21	0
112	115058	22	0
112	120596	23	0
112	126134	24	0
112	131672	25	0
112	137210	26	0
112	142748	27	0
112	148286	28	0
112	153824	29	0
112	159362	30	0
112	164900	31	0
112	170438	32	0
112	175976	33	0
112	181514	34	0
112	187052	35	0
112	192590	36	0
112	198128	37	0
112	203666	38	0
112	209204	39	0
112	214742	40	0
112	220280	41	0
112	225818	42	0
112	231447	43	0
112	236975	44	0
112	242503	45	0
112	248031	46	0
112	253559	47	0
112	259087	48	0
112	264704	49	0
112	270222	50	0
112	275740	51	0
112	281258	52	0
112	286776	53	0
112	292386	54	0
112	297894	55	0
112	303402	56	0
112	308910	57	0
112	314418	58	0
112	320033	59	0
112	325531	60	0
112	331029	61	0
112	336527	62	0
112	342025	63	0
112	347610	64	0
112	353098	65	0
112	358586	66	0
112	364074	67	0
112	369654	68	0
112	375132	69	0
112	380610	70	0
112	386088	71	0
112	391566	72	0
112	397806	73	0
112	403274	74	0
112	408742	75	0
112	414210	76	0
112	419678	77	0
112	425146	78	0
112	430614	79	0
112	436082	80	0
112	441550	81	0
112	447018	82	0
112	452486	83	0
112	457954	84	0
112	463422	85	0
112	468890	86	0
112	474358	87	0
112	479826	88	0
112	485294	89	0
112	490762	90	0
112	496230	91	0
112	501698	92	0
112	507166	93	0
112	512634	94	0
112	518102	95	0
112	523570	96	0
112	529038	97	0
112	534506	98	0
112	539974	99	0
112	545442	100	0
113	4792	2	7
113	10260	3	7
113	15728	4	7
113	21196	5	7
113	26664	6	7
113	32132	7	7
113	37600	8	7
113	43068	9	7
113	48537	10	7
113	54141	11	7
113	59679	12	7
113	65217	13	7
113	70755	14	7
113	76293	15	7
113	81831	16	7
113	87369	17	7
113	92907	18	7
113	98445	19	7
113	103983	20	7
113	109521	21	7
113	115059	22	7
113	120597	23	7
113	126135	24	7
113	131673	25	7
113	137211	26	7
113	142749	27	7
113	148287	28	7
113	153825	29	7
113	159363	30	7
113	164901	31	7
113	170439	32	7
113	175977	33	7
113	181515	34	7
113	187053	35	7
113	192591	36	7
113	198129	37	7
113	203667	38	7
113	209205	39	7
113	214743	40	7
113	220281	41	7
113	225819	42	7
113	231448	43	7
113	236976	44	7
113	242504	45	7
113	248032	46	7
113	253560	47	7
113	259088	48	7
113	264705	49	7
113	270223	50	7
113	275741	51	7
113	281259	52	7
113	286777	53	7
113	292387	54	7
113	297895	55	7
113	303403	56	7
113	308911	57	7
113	314419	58	7
113	320034	59	7
113	325532	60	7
113	331030	61	7
113	336528	62	7
113	342026	63	7
113	347611	64	7
113	353099	65	7
113	358587	66	7
113	364075	67	7
113	369655	68	7
113	375133	69	7
113	380611	70	7
113	386089	71	7
113	391567	72	7
113	397807	73	7
113	403275	74	7
113	408743	75	7
113	414211	76	7
113	419679	77	7
113	425147	78	7
113	430615	79	7
113	436083	80	7
113	441551	81	7
113	447019	82	7
113	452487	83	7
113	457955	84	7
113	463423	85	7
113	468891	86	7
113	474359	87	7
113	479827	88	7
113	485295	89	7
113	490763	90	7
113	496231	91	7
113	501699	92	7
113	507167	93	7
113	512635	94	7
113	518103	95	7
113	523571	96	7
113	529039	97	7
113	534507	98	7
113	539975	99	7
113	545443	100	7
114	4792	2	0.021463496879
114	10260	3	0.024964796364
114	15728	4	0.02497779636
114	21196	5	0.024964796355
114	26664	6	0.024977796343
114	32132	7	0.02496479634
114	37600	8	0.02496479634
114	43068	9	0.02497779634
114	48537	10	0.02496479634
114	54141	11	0.025022753741
114	59679	12	0.024964759504
114	65217	13	0.024977665938
114	70755	14	0.024964514208
114	76293	15	0.024977313104
114	81831	16	0.024964072397
114	87369	17	0.02496380148
114	92907	18	0.024976508904
114	98445	19	0.024976202275
114	103983	20	0.024962888148
114	109521	21	0.02497557205
114	115059	22	0.024962258554
114	120597	23	0.024974951335
114	126135	24	0.024961653274
114	131673	25	0.024974366565
114	137211	26	0.024974092776
114	142749	27	0.024973832996
114	148287	28	0.024960587887
114	153825	29	0.024973357733
114	159363	30	0.024973142572
114	164901	31	0.024972942203
114	170439	32	0.024959756264
114	175977	33	0.024972584262
114	181515	34	0.024972425582
114	187053	35	0.024972279584
114	192591	36	0.024972145564
114	198129	37	0.024959022805
114	203667	38	0.024971910578
114	209205	39	0.024971808187
114	214743	40	0.024971714905
114	220281	41	0.024971630062
114	225819	42	0.024971553003
114	231448	43	0.025075390379
114	236976	44	0.024971419801
114	242504	45	0.024971362518
114	248032	46	0.024971310754
114	253560	47	0.024971264012
114	259088	48	0.024971221864
114	264705	49	0.025074998011
114	270223	50	0.024971149688
114	275741	51	0.024971118925
114	281259	52	0.024971091279
114	286777	53	0.024971066455
114	292387	54	0.025087950891
114	297895	55	0.02495802419
114	303403	56	0.024971006283
114	308911	57	0.024970990251
114	314419	58	0.02497097589
114	320034	59	0.024823590692
114	325532	60	0.024970951568
114	331030	61	0.024970941311
114	336528	62	0.024970932149
114	342026	63	0.024957923979
114	347611	64	0.025087823314
114	353099	65	0.024970910177
114	358587	66	0.024970904386
114	364075	67	0.024970899214
114	369655	68	0.025074335644
114	375133	69	0.024970890528
114	380611	70	0.02497088688
114	386089	71	0.024970883638
114	391567	72	0.024970880761
114	397807	73	0.025930903569
114	403275	74	0.02497076888
114	408743	75	0.024970804053
114	414211	76	0.024970815811
114	419679	77	0.024970752842
114	425147	78	0.024970566355
114	430615	79	0.024970265624
114	436083	80	0.024969918067
114	441551	81	0.024969576901
114	447019	82	0.024969258302
114	452487	83	0.024968964488
114	457955	84	0.024968694919
114	463423	85	0.024968448576
114	468891	86	0.024968224151
114	474359	87	0.024981020091
114	479827	88	0.024967834754
114	485295	89	0.024967666516
114	490763	90	0.024967513861
114	496231	91	0.024967375375
114	501699	92	0.024980249748
114	507167	93	0.024967134772
114	512635	94	0.024967026252
114	518103	95	0.024966921281
114	523571	96	0.024966819002
114	529039	97	0.024979719251
114	534507	98	0.024966621908
114	539975	99	0.024966526786
114	545443	100	0.024979433667
115	4792	2	0
115	10260	3	0
115	15728	4	0
115	21196	5	0
115	26664	6	0
115	32132	7	0
115	37600	8	0
115	43068	9	0
115	48537	10	0
115	54141	11	0
115	59679	12	0
115	65217	13	0
115	70755	14	0
115	76293	15	0
115	81831	16	0
115	87369	17	0
115	92907	18	0
115	98445	19	0
115	103983	20	0
115	109521	21	0
115	115059	22	0
115	120597	23	0
115	126135	24	0
115	131673	25	0
115	137211	26	0
115	142749	27	0
115	148287	28	0
115	153825	29	0
115	159363	30	0
115	164901	31	0
115	170439	32	0
115	175977	33	0
115	181515	34	0
115	187053	35	0
115	192591	36	0
115	198129	37	0
115	203667	38	0
115	209205	39	0
115	214743	40	0
115	220281	41	0
115	225819	42	0
115	231448	43	0
115	236976	44	0
115	242504	45	0
115	248032	46	0
115	253560	47	0
115	259088	48	0
115	264705	49	0
115	270223	50	0
115	275741	51	0
115	281259	52	0
115	286777	53	0
115	292387	54	0
115	297895	55	0
115	303403	56	0
115	308911	57	0
115	314419	58	0
115	320034	59	0
115	325532	60	0
115	331030	61	0
115	336528	62	0
115	342026	63	0
115	347611	64	0
115	353099	65	0
115	358587	66	0
115	364075	67	0
115	369655	68	0
115	375133	69	0
115	380611	70	0
115	386089	71	0
115	391567	72	0
115	397807	73	0
115	403275	74	0
115	408743	75	0
115	414211	76	0
115	419679	77	0
115	425147	78	0
115	430615	79	0
115	436083	80	0
115	441551	81	0
115	447019	82	0
115	452487	83	0
115	457955	84	0
115	463423	85	0
115	468891	86	0
115	474359	87	0
115	479827	88	0
115	485295	89	0
115	490763	90	0
115	496231	91	0
115	501699	92	0
115	507167	93	0
115	512635	94	0
115	518103	95	0
115	523571	96	0
115	529039	97	0
115	534507	98	0
115	539975	99	0
115	545443	100	0

