file 2453785 1720455104                                         
version 3
run BreakRanksNoGui-21-20240708-18:11:32-157735
attr configname BreakRanksNoGui
attr datetime 20240708-18:11:32
attr datetimef 20240708-181132
attr experiment BreakRanksNoGui
attr inifile omnetpp.ini
attr iterationvars "$nCars=8, $platoonSize=8, $nLanes=1, $ploegH=0.5, $controller=1, $headway=0.1, $leaderHeadway=1.2, $leaderSpeed=130, $breakRanksSafetyDistance=10, $minSpeed=120, $maxSpeed=140, $beaconInterval=0.1, $priority=4, $packetSize=200, $sController=\"CACC\", $0=2, $1=0"
attr iterationvarsd nCars=8/platoonSize=8/nLanes=1/ploegH=0.5/controller=1/headway=0.1/leaderHeadway=1.2/leaderSpeed=130/breakRanksSafetyDistance=10/minSpeed=120/maxSpeed=140/beaconInterval=0.1/priority=4/packetSize=200/sController=CACC/2/0
attr iterationvarsf nCars=8,platoonSize=8,nLanes=1,ploegH=0.5,controller=1,headway=0.1,leaderHeadway=1.2,leaderSpeed=130,breakRanksSafetyDistance=10,minSpeed=120,maxSpeed=140,beaconInterval=0.1,priority=4,packetSize=200,sController=CACC,2,0-
attr measurement "$nCars=8, $platoonSize=8, $nLanes=1, $ploegH=0.5, $controller=1, $headway=0.1, $leaderHeadway=1.2, $leaderSpeed=130, $breakRanksSafetyDistance=10, $minSpeed=120, $maxSpeed=140, $beaconInterval=0.1, $priority=4, $packetSize=200, $sController=\"CACC\", $0=2, $1=0"
attr network Highway
attr processid 157735
attr repetition 1
attr replication #1
attr resultdir results
attr runnumber 21
attr seedset 1
itervar beaconInterval 0.1
itervar breakRanksSafetyDistance 10
itervar controller 1
itervar headway 0.1
itervar leaderHeadway 1.2
itervar leaderSpeed 130
itervar maxSpeed 140
itervar minSpeed 120
itervar nCars 8
itervar nLanes 1
itervar packetSize 200
itervar platoonSize 8
itervar ploegH 0.5
itervar priority 4
itervar sController "\"CACC\""
config image-path ../../../veins/images
config repeat 10
config extends BreakRanks
config *.manager.command "\"sumo\""
config *.manager.ignoreGuiCommands true
config output-vector-file results/BreakRanks_1_0.1_130_10/result_1.vec
config output-scalar-file results/BreakRanks_1_0.1_130_10/result_1.sca
config extends Platooning
config *.node[*].scenario_type "\"BreakRanksScenario\""
config *.manager.command "\"sumo-gui\""
config *.node[*].scenario_type "\"SimpleScenario\""
config cmdenv-express-mode true
config cmdenv-autoflush true
config cmdenv-status-frequency 15s
config num-rngs 6
config network Highway
config debug-on-errors true
config print-undisposed true
config *.playgroundSizeX 65000m
config *.playgroundSizeY 25000m
config *.playgroundSizeZ 50m
config sim-time-limit "100 s"
config *.annotations.draw false
config *.obstacles.debug false
config *.world.useTorus false
config *.world.use2D false
config *.manager.updateInterval 0.01s
config *.manager.host "\"localhost\""
config *.manager.moduleType "\"org.car2x.plexe.PlatoonCar\""
config *.manager.moduleName "\"node\""
config *.manager.moduleDisplayString "\"\""
config *.manager.autoShutdown true
config *.manager.margin 25
config *.connectionManager.sendDirect true
config *.connectionManager.maxInterfDist 2600m
config *.connectionManager.drawMaxIntfDist false
config *.**.nic.mac1609_4.useServiceChannel false
config *.**.nic.mac1609_4.txPower 100mW
config *.**.nic.mac1609_4.bitrate 6Mbps
config *.**.nic.mac1609_4.useAcks true
config *.**.nic.mac1609_4.ackErrorRate 0.0
config *.**.nic.mac1609_4.frameErrorRate 0.0
config *.**.nic.phy80211p.minPowerLevel -94dBm
config *.**.nic.phy80211p.maxTXPower 100mW
config *.**.nic.phy80211p.useNoiseFloor true
config *.**.nic.phy80211p.noiseFloor -95dBm
config *.**.nic.phy80211p.decider "xmldoc(\"config.xml\")"
config *.**.nic.phy80211p.analogueModels "xmldoc(\"config.xml\")"
config *.**.nic.phy80211p.usePropagationDelay true
config *.node[*].mobility.x 0
config *.node[*].mobility.y 0
config *.node[*].mobility.z 1.895
config seed-set 1
config **.seed 1
config *.node[*].prot.rng-0 2
config *.node[*].appl.rng-0 3
config *.node[*].scenario.rng-0 4
config **.traffic.rng-0 5
config *.manager.configFile "\"./sumocfg/freeway.sumo.cfg\""
config *.manager.launchConfig "xmldoc(\"./sumocfg/freeway.launchd.xml\")"
config **.numberOfCars 8
config **.numberOfCarsPerPlatoon 8
config **.numberOfLanes 1
config *.node[*].helper_type "\"PositionHelper\""
config *.node[*].scenario.caccC1 0.5
config *.node[*].scenario.caccXi 1
config *.node[*].scenario.caccOmegaN "0.2 Hz"
config *.node[*].scenario.caccSpacing "2 m"
config *.node[*].scenario.engineTau "0.5 s"
config *.node[*].scenario.ploegH 0.5s
config *.node[*].scenario.ploegKp 0.2
config *.node[*].scenario.ploegKd 0.7
config *.node[*].scenario.useRealisticEngine false
config *.node[*].scenario.useControllerAcceleration true
config *.node[*].scenario.nLanes 1
config **.numericController 1
config **.headway 0.1s
config *.node[*].scenario.accHeadway 0.1s
config *.node[*].scenario.leaderHeadway 1.2s
config *.node[*].scenario.leaderSpeed 130kmph
config *.node[*].appl_type "\"SimplePlatooningApp\""
config *.node[*].appl.*.scalar-recording true
config *.node[*].appl.*.vector-recording true
config *.node[0].appl.breakRanksSafetyDistance 10m
config *.node[*].appl.minSpeed 120kmph
config *.node[*].appl.maxSpeed 140kmph
config *.node[*].protocol_type "\"SimplePlatooningBeaconing\""
config *.node[*].prot.*.scalar-recording true
config *.node[*].prot.*.vector-recording true
config *.node[*].prot.beaconingInterval 0.1s
config *.node[*].prot.priority 4
config *.node[*].prot.packetSize 200
config **.traffic_type "\"PlatoonsTrafficManager\""
config **.traffic.platoonInsertTime "1 s"
config **.traffic.platoonInsertSpeed 130kmph
config **.traffic.nCars 8
config **.traffic.platoonSize 8
config **.traffic.nLanes 1
config **.traffic.platooningVType "\"vtypeauto\""
config **.traffic.controller "\"CACC\""
config **.traffic.platoonInsertDistance 2m
config **.traffic.platoonInsertHeadway 0s
config **.traffic.platoonLeaderHeadway 1.2s
config **.scalar-recording false
config **.vector-recording false
config output-vector-file results/BreakRanksNoGui_1_0.1_130_10/result_1.vec
config output-scalar-file results/BreakRanksNoGui_1_0.1_130_10/result_1.sca

vector 0 Highway.node[0].appl distance ETV
vector 1 Highway.node[0].appl relativeSpeed ETV
vector 2 Highway.node[0].appl nodeId ETV
vector 3 Highway.node[0].appl acceleration ETV
vector 4 Highway.node[0].appl controllerAcceleration ETV
vector 5 Highway.node[0].appl speed ETV
vector 6 Highway.node[0].appl posx ETV
vector 7 Highway.node[0].appl posy ETV
vector 8 Highway.node[1].appl distance ETV
vector 9 Highway.node[1].appl relativeSpeed ETV
vector 10 Highway.node[1].appl nodeId ETV
vector 11 Highway.node[1].appl acceleration ETV
vector 12 Highway.node[1].appl controllerAcceleration ETV
vector 13 Highway.node[1].appl speed ETV
vector 14 Highway.node[1].appl posx ETV
vector 15 Highway.node[1].appl posy ETV
vector 16 Highway.node[2].appl distance ETV
vector 17 Highway.node[2].appl relativeSpeed ETV
vector 18 Highway.node[2].appl nodeId ETV
vector 19 Highway.node[2].appl acceleration ETV
vector 20 Highway.node[2].appl controllerAcceleration ETV
vector 21 Highway.node[2].appl speed ETV
vector 22 Highway.node[2].appl posx ETV
vector 23 Highway.node[2].appl posy ETV
vector 24 Highway.node[3].appl distance ETV
vector 25 Highway.node[3].appl relativeSpeed ETV
vector 26 Highway.node[3].appl nodeId ETV
vector 27 Highway.node[3].appl acceleration ETV
vector 28 Highway.node[3].appl controllerAcceleration ETV
vector 29 Highway.node[3].appl speed ETV
vector 30 Highway.node[3].appl posx ETV
vector 31 Highway.node[3].appl posy ETV
vector 32 Highway.node[4].appl distance ETV
vector 33 Highway.node[4].appl relativeSpeed ETV
vector 34 Highway.node[4].appl nodeId ETV
vector 35 Highway.node[4].appl acceleration ETV
vector 36 Highway.node[4].appl controllerAcceleration ETV
vector 37 Highway.node[4].appl speed ETV
vector 38 Highway.node[4].appl posx ETV
vector 39 Highway.node[4].appl posy ETV
vector 40 Highway.node[5].appl distance ETV
vector 41 Highway.node[5].appl relativeSpeed ETV
vector 42 Highway.node[5].appl nodeId ETV
vector 43 Highway.node[5].appl acceleration ETV
vector 44 Highway.node[5].appl controllerAcceleration ETV
vector 45 Highway.node[5].appl speed ETV
vector 46 Highway.node[5].appl posx ETV
vector 47 Highway.node[5].appl posy ETV
vector 48 Highway.node[6].appl distance ETV
vector 49 Highway.node[6].appl relativeSpeed ETV
vector 50 Highway.node[6].appl nodeId ETV
vector 51 Highway.node[6].appl acceleration ETV
vector 52 Highway.node[6].appl controllerAcceleration ETV
vector 53 Highway.node[6].appl speed ETV
vector 54 Highway.node[6].appl posx ETV
vector 55 Highway.node[6].appl posy ETV
vector 56 Highway.node[7].appl distance ETV
vector 57 Highway.node[7].appl relativeSpeed ETV
vector 58 Highway.node[7].appl nodeId ETV
vector 59 Highway.node[7].appl acceleration ETV
vector 60 Highway.node[7].appl controllerAcceleration ETV
vector 61 Highway.node[7].appl speed ETV
vector 62 Highway.node[7].appl posx ETV
vector 63 Highway.node[7].appl posy ETV
vector 64 Highway.node[2].prot frontDelay ETV
vector 65 Highway.node[2].prot frontDelayId ETV
vector 66 Highway.node[4].prot frontDelay ETV
vector 67 Highway.node[4].prot frontDelayId ETV
vector 68 Highway.node[6].prot frontDelay ETV
vector 69 Highway.node[6].prot frontDelayId ETV
vector 70 Highway.node[7].prot frontDelay ETV
vector 71 Highway.node[7].prot frontDelayId ETV
vector 72 Highway.node[5].prot frontDelay ETV
vector 73 Highway.node[5].prot frontDelayId ETV
vector 74 Highway.node[1].prot leaderDelay ETV
vector 75 Highway.node[1].prot leaderDelayId ETV
vector 76 Highway.node[1].prot frontDelay ETV
vector 77 Highway.node[1].prot frontDelayId ETV
vector 78 Highway.node[2].prot leaderDelay ETV
vector 79 Highway.node[2].prot leaderDelayId ETV
vector 80 Highway.node[3].prot leaderDelay ETV
vector 81 Highway.node[3].prot leaderDelayId ETV
vector 82 Highway.node[4].prot leaderDelay ETV
vector 83 Highway.node[4].prot leaderDelayId ETV
vector 84 Highway.node[5].prot leaderDelay ETV
vector 85 Highway.node[5].prot leaderDelayId ETV
vector 86 Highway.node[6].prot leaderDelay ETV
vector 87 Highway.node[6].prot leaderDelayId ETV
vector 88 Highway.node[7].prot leaderDelay ETV
vector 89 Highway.node[7].prot leaderDelayId ETV
vector 90 Highway.node[3].prot frontDelay ETV
vector 91 Highway.node[3].prot frontDelayId ETV
vector 92 Highway.node[0].prot nodeId ETV
vector 93 Highway.node[0].prot busyTime ETV
vector 94 Highway.node[0].prot collisions ETV
vector 95 Highway.node[1].prot nodeId ETV
vector 96 Highway.node[1].prot busyTime ETV
vector 97 Highway.node[1].prot collisions ETV
vector 98 Highway.node[2].prot nodeId ETV
vector 99 Highway.node[2].prot busyTime ETV
vector 100 Highway.node[2].prot collisions ETV
vector 101 Highway.node[3].prot nodeId ETV
vector 102 Highway.node[3].prot busyTime ETV
vector 103 Highway.node[3].prot collisions ETV
vector 104 Highway.node[4].prot nodeId ETV
vector 105 Highway.node[4].prot busyTime ETV
vector 106 Highway.node[4].prot collisions ETV
vector 107 Highway.node[5].prot nodeId ETV
vector 108 Highway.node[5].prot busyTime ETV
vector 109 Highway.node[5].prot collisions ETV
vector 110 Highway.node[6].prot nodeId ETV
vector 111 Highway.node[6].prot busyTime ETV
vector 112 Highway.node[6].prot collisions ETV
vector 113 Highway.node[7].prot nodeId ETV
vector 114 Highway.node[7].prot busyTime ETV
vector 115 Highway.node[7].prot collisions ETV
0	11345 17510 113 545087 1.11 99.91 989 -1 -1 -989 989
1	28855 16521 113 545087 1.11 99.91 989 0 0 0 0
2	45376 16521 113 545087 1.11 99.91 989 0 0 0 0
3	61897 18809 113 545087 1.11 99.91 989 -3.14892e-05 0.000707784 0.010991577126781 6.0508064149601e-06
4	80706 26467 113 545087 1.11 99.91 989 -4.89399e-05 0.00109259 0.010614843047836 8.6815283230331e-06
5	107173 22448 113 545087 1.11 99.91 989 36.11 36.1111 35713.866699999 1289666.6073546
6	129621 22343 113 545087 1.11 99.91 989 52.8599 3620.64 1816542.9908 4387737902.1858
7	151964 21466 113 545087 1.11 99.91 989 242.45 242.45 239783.05 58135400.472499
8	173430 20974 114 545088 1.11 99.91 989 -1 9.99897 5305.50623 50735.922829406
9	194404 22513 114 545088 1.11 99.91 989 -2.36679e-05 0.636957 79.989793063748 33.699902831101
10	216917 17510 114 545088 1.11 99.91 989 1 1 989 989
11	234427 26731 114 545088 1.11 99.91 989 -0.71465 0.0514707 -11.060722892323 7.5227117559728
12	261158 26748 114 545088 1.11 99.91 989 -1.09866 0.0518937 -10.272771356029 10.105628702646
13	287906 22468 114 545088 1.11 99.91 989 34.9505 36.1111 35334.1944 1262609.4627554
14	310374 23367 114 545088 1.11 99.91 989 46.8599 3576.72 1800170.6212 4311907069.3489
15	333741 22455 114 545088 1.11 99.91 989 242.45 245.75 240703.75 58584886.2125
16	356196 23277 115 545089 1.11 99.91 989 2 43.8404 15807.38751 446744.32996841
17	379473 25170 115 545089 1.11 99.91 989 0 1.8278 278.48793490081 238.9790549733
18	404643 17510 115 545089 1.11 99.91 989 2 2 1978 3956
19	422153 25954 115 545089 1.11 99.91 989 -1.15548 0.202257 -1.42085110039 21.36871076583
20	448107 25944 115 545089 1.11 99.91 989 -1.76184 0.228156 -0.3312118035699 28.644112747668
21	474051 23321 115 545089 1.11 99.91 989 34.2833 36.1111 35355.3905 1264107.9996323
22	497372 23312 115 545089 1.11 99.91 989 40.8599 3572.8 1788355.107 4265799807.4691
23	520684 22455 115 545089 1.11 99.91 989 242.45 242.45 239783.05 58135400.472499
24	543139 23324 116 545090 1.11 99.91 989 1.99931 42.6524 13906.22887 346796.7004369
25	566463 25002 116 545090 1.11 99.91 989 -0.00285191 2.86372 406.65631153131 583.36656228743
26	591465 17510 116 545090 1.11 99.91 989 3 3 2967 8901
27	608975 25704 116 545090 1.11 99.91 989 -2.19153 0.467436 -4.0518225945902 92.980521898102
28	634679 25723 116 545090 1.11 99.91 989 -2.93495 0.500714 -2.432493509987 114.62884395852
29	660402 23331 116 545090 1.11 99.91 989 31.5342 36.1111 34948.7353 1236098.1188063
30	683733 23327 116 545090 1.11 99.91 989 34.8599 3526.14 1770492.974 4180172962.3547
31	707060 22455 116 545090 1.11 99.91 989 242.45 242.45 239783.05 58135400.472499
32	729515 21780 117 545091 1.11 99.91 989 -1 9.98191 4707.77267 42372.098041028
33	751295 23143 117 545091 1.11 99.91 989 -1.39994e-06 0.372707 79.820245850535 20.44441987215
34	774438 17510 117 545091 1.11 99.91 989 4 4 3956 15824
35	791948 26344 117 545091 1.11 99.91 989 -0.490967 0.102894 -1.0624493347832 7.6131175923737
36	818292 26421 117 545091 1.11 99.91 989 -0.597268 0.103284 -0.5234296051272 8.4170706989064
37	844713 22331 117 545091 1.11 99.91 989 34.314 36.1111 35363.8098 1264777.7466091
38	867044 23349 117 545091 1.11 99.91 989 28.8599 3561.64 1768012.7048 4191803100.5674
39	890393 22455 117 545091 1.11 99.91 989 242.45 249.05 241624.45 59040448.572501
40	912848 23307 118 545092 1.11 99.91 989 1.99828 69.0528 16176.16242 556175.0894952
41	936155 24842 118 545092 1.11 99.91 989 -0.616405 2.69765 532.05697915359 948.48061330126
42	960997 17510 118 545092 1.11 99.91 989 5 5 4945 24725
43	978507 25915 118 545092 1.11 99.91 989 -2.02987 0.608035 -31.055591891026 118.63851420687
44	1004422 25958 118 545092 1.11 99.91 989 -2.14706 0.64259 -30.039692238273 132.24197922736
45	1030380 22831 118 545092 1.11 99.91 989 30.0783 36.1111 34336.8552 1194550.6300289
46	1053211 23362 118 545092 1.11 99.91 989 22.8599 3453.09 1742533.9101 4056683378.229
47	1076573 22455 118 545092 1.11 99.91 989 242.45 242.45 239783.05 58135400.472499
48	1099028 23159 119 545093 1.11 99.91 989 2 65.8765 19068.03082 797972.04245532
49	1122187 25148 119 545093 1.11 99.91 989 -2.18005 0.30643 -124.77502011843 252.76794032839
50	1147335 17510 119 545093 1.11 99.91 989 6 6 5934 35604
51	1164845 25795 119 545093 1.11 99.91 989 -0.525732 0.960186 -9.5653467073738 21.621325307649
52	1190640 25824 119 545093 1.11 99.91 989 -0.625053 1.5 -8.4765666205685 31.332020527314
53	1216464 23312 119 545093 1.11 99.91 989 33.873 37.2073 35139.6137 1249054.7864411
54	1239776 23340 119 545093 1.11 99.91 989 16.8599 3527.26 1745445.292 4100969933.8564
55	1263116 22455 119 545093 1.11 99.91 989 242.45 245.75 240703.75 58584886.2125
56	1285571 22569 120 545094 1.11 99.91 989 -1 57.7275 12595.94494 426804.49610571
57	1308140 24029 120 545094 1.11 99.91 989 -0.0001754 2.01176 331.82535794297 382.11637091939
58	1332169 17510 120 545094 1.11 99.91 989 7 7 6923 48461
59	1349679 26143 120 545094 1.11 99.91 989 -1.24587 0.104402 -21.057904477144 30.558416212671
60	1375822 26145 120 545094 1.11 99.91 989 -1.5 0.104568 -20.138026529457 37.757190733521
61	1401967 22482 120 545094 1.11 99.91 989 33.7119 36.1111 34589.5333 1210576.244773
62	1424449 23332 120 545094 1.11 99.91 989 10.8599 3466.31 1726870.9382 4009121718.5248
63	1447781 22455 120 545094 1.11 99.91 989 242.45 252.35 241400.05 58931593.4525
64	1470236 40013 702 545124 1.212421340237 99.912419194727 988 0.099987320224 0.100009112361 98.799998174713 9.8799996439605
65	1510249 27259 702 545124 1.212421340237 99.912419194727 988 2 2 1976 3952
66	1537508 40051 770 545198 1.235022380265 99.935020467142 988 0.099987320225 0.100009112367 98.7999984071 9.8799996909857
67	1577559 27286 770 545198 1.235022380265 99.935020467142 988 4 4 3952 15808
68	1604845 40034 837 545271 1.248692420293 99.948690838571 988 0.099987320225 0.100009112385 98.799998738501 9.8799997572671
69	1644879 27285 837 545271 1.248692420293 99.948690838571 988 6 6 5928 35568
70	1672164 40011 905 545351 1.263870440307 99.96386904211 988 0.099987320226 0.100009208655 98.799998922026 9.8799997937553
71	1712175 27260 905 545351 1.263870440307 99.96386904211 988 7 7 6916 48412
72	1739435 39997 1040 545498 1.297372520363 99.997371724515 988 0.099987320224 0.10000901416 98.799999524375 9.8799999139488
73	1779432 27263 1040 545498 1.297372520363 99.997371724515 988 5 5 4940 24700
74	1806695 40004 1100 545528 1.297782600418 99.997794706163 988 0.099987320223 0.100009303638 98.799999425968 9.8799998945826
75	1846699 27261 1100 545528 1.297782600418 99.997794706163 988 1 1 988 988
76	1873960 40004 1100 545528 1.297782600418 99.997794706163 988 0.099987320223 0.100009303638 98.799999425968 9.8799998945826
77	1913964 27261 1100 545528 1.297782600418 99.997794706163 988 1 1 988 988
78	1941225 40042 1106 545534 1.297782620432 99.997794718567 988 0.099987320223 0.100009303638 98.799999418358 9.8799998930606
79	1981267 27289 1106 545534 1.297782620432 99.997794718567 988 2 2 1976 3952
80	2008556 40023 1112 545552 1.297782640446 99.997794874262 988 0.099987320223 0.100009303639 98.799999554039 9.8799999201968
81	2048579 27283 1112 545552 1.297782640446 99.997794874262 988 3 3 2964 8892
82	2075862 40036 1118 545540 1.297782660459 99.997794757009 988 0.099987320223 0.100009303641 98.799999416773 9.8799998927436
83	2115898 27284 1118 545540 1.297782660459 99.997794757009 988 4 4 3952 15808
84	2143182 40040 1124 545564 1.297782680473 99.99779511875 988 0.099987320223 0.100009303642 98.7999997585 9.879999961089
85	2183222 27294 1124 545564 1.297782680473 99.99779511875 988 5 5 4940 24700
86	2210516 40035 1130 545546 1.297782700487 99.997794870901 988 0.099987320223 0.100009303646 98.799999490637 9.8799999075164
87	2250551 27289 1130 545546 1.297782700487 99.997794870901 988 6 6 5928 35568
88	2277840 40005 1136 545558 1.297782720501 99.997795074478 988 0.099987320223 0.100009303652 98.7999996742 9.879999944229
89	2317845 27266 1136 545558 1.297782720501 99.997795074478 988 7 7 6916 48412
90	2345111 39971 1173 545067 1.307201640446 99.907199316138 987 0.099987320226 0.100009208632 98.699997995915 9.8699996085328
91	2385082 27232 1173 545067 1.307201640446 99.907199316138 987 3 3 2961 8883
92	2412314 1459 4960 545566 2 100 99 0 0 0 0
93	2413773 2068 4960 545566 2 100 99 0.022161 0.026131612028 2.471295612028 0.061699280405182
94	2415841 1459 4960 545566 2 100 99 0 0 0 0
95	2417300 1459 4961 545567 2 100 99 1 1 99 99
96	2418759 2068 4961 545567 2 100 99 0.022161 0.025898 2.470902092734 0.061679099152037
97	2420827 1459 4961 545567 2 100 99 0 0 0 0
98	2422286 1459 4962 545568 2 100 99 2 2 198 396
99	2423745 2067 4962 545568 2 100 99 0.02216 0.025898 2.470901185864 0.061679059508983
100	2425812 1558 4962 545568 2 100 99 0 0 0 0
101	2427370 1558 4963 545569 2 100 99 3 3 297 891
102	2428928 2167 4963 545569 2 100 99 0.022161 0.025898 2.470902279106 0.061679108513572
103	2431095 1558 4963 545569 2 100 99 0 0 0 0
104	2432653 1558 4964 545570 2 100 99 4 4 396 1584
105	2434211 2167 4964 545570 2 100 99 0.022161 0.025898 2.470902372366 0.061679113198083
106	2436378 1558 4964 545570 2 100 99 0 0 0 0
107	2437936 1558 4965 545571 2 100 99 5 5 495 2475
108	2439494 2167 4965 545571 2 100 99 0.022161 0.025898 2.470902465668 0.06167911788472
109	2441661 1558 4965 545571 2 100 99 0 0 0 0
110	2443219 1558 4966 545572 2 100 99 6 6 594 3564
111	2444777 2167 4966 545572 2 100 99 0.022161 0.025898 2.470902558966 0.061679122571175
112	2446944 1558 4966 545572 2 100 99 0 0 0 0
113	2448502 1558 4967 545573 2 100 99 7 7 693 4851
114	2450060 2166 4967 545573 2 100 99 0.022161 0.02593165228 2.47090265228 0.061679182178971
115	2452226 1558 4967 545573 2 100 99 0 0 0 0

