file 2460879 1720455173                                         
version 3
run BreakRanksNoGui-26-20240708-18:12:39-157812
attr configname BreakRanksNoGui
attr datetime 20240708-18:12:39
attr datetimef 20240708-181239
attr experiment BreakRanksNoGui
attr inifile omnetpp.ini
attr iterationvars "$nCars=8, $platoonSize=8, $nLanes=1, $ploegH=0.5, $controller=1, $headway=0.1, $leaderHeadway=1.2, $leaderSpeed=130, $breakRanksSafetyDistance=10, $minSpeed=120, $maxSpeed=140, $beaconInterval=0.1, $priority=4, $packetSize=200, $sController=\"CACC\", $0=2, $1=0"
attr iterationvarsd nCars=8/platoonSize=8/nLanes=1/ploegH=0.5/controller=1/headway=0.1/leaderHeadway=1.2/leaderSpeed=130/breakRanksSafetyDistance=10/minSpeed=120/maxSpeed=140/beaconInterval=0.1/priority=4/packetSize=200/sController=CACC/2/0
attr iterationvarsf nCars=8,platoonSize=8,nLanes=1,ploegH=0.5,controller=1,headway=0.1,leaderHeadway=1.2,leaderSpeed=130,breakRanksSafetyDistance=10,minSpeed=120,maxSpeed=140,beaconInterval=0.1,priority=4,packetSize=200,sController=CACC,2,0-
attr measurement "$nCars=8, $platoonSize=8, $nLanes=1, $ploegH=0.5, $controller=1, $headway=0.1, $leaderHeadway=1.2, $leaderSpeed=130, $breakRanksSafetyDistance=10, $minSpeed=120, $maxSpeed=140, $beaconInterval=0.1, $priority=4, $packetSize=200, $sController=\"CACC\", $0=2, $1=0"
attr network Highway
attr processid 157812
attr repetition 6
attr replication #6
attr resultdir results
attr runnumber 26
attr seedset 6
itervar beaconInterval 0.1
itervar breakRanksSafetyDistance 10
itervar controller 1
itervar headway 0.1
itervar leaderHeadway 1.2
itervar leaderSpeed 130
itervar maxSpeed 140
itervar minSpeed 120
itervar nCars 8
itervar nLanes 1
itervar packetSize 200
itervar platoonSize 8
itervar ploegH 0.5
itervar priority 4
itervar sController "\"CACC\""
config image-path ../../../veins/images
config repeat 10
config extends BreakRanks
config *.manager.command "\"sumo\""
config *.manager.ignoreGuiCommands true
config output-vector-file results/BreakRanks_1_0.1_130_10/result_6.vec
config output-scalar-file results/BreakRanks_1_0.1_130_10/result_6.sca
config extends Platooning
config *.node[*].scenario_type "\"BreakRanksScenario\""
config *.manager.command "\"sumo-gui\""
config *.node[*].scenario_type "\"SimpleScenario\""
config cmdenv-express-mode true
config cmdenv-autoflush true
config cmdenv-status-frequency 15s
config num-rngs 6
config network Highway
config debug-on-errors true
config print-undisposed true
config *.playgroundSizeX 65000m
config *.playgroundSizeY 25000m
config *.playgroundSizeZ 50m
config sim-time-limit "100 s"
config *.annotations.draw false
config *.obstacles.debug false
config *.world.useTorus false
config *.world.use2D false
config *.manager.updateInterval 0.01s
config *.manager.host "\"localhost\""
config *.manager.moduleType "\"org.car2x.plexe.PlatoonCar\""
config *.manager.moduleName "\"node\""
config *.manager.moduleDisplayString "\"\""
config *.manager.autoShutdown true
config *.manager.margin 25
config *.connectionManager.sendDirect true
config *.connectionManager.maxInterfDist 2600m
config *.connectionManager.drawMaxIntfDist false
config *.**.nic.mac1609_4.useServiceChannel false
config *.**.nic.mac1609_4.txPower 100mW
config *.**.nic.mac1609_4.bitrate 6Mbps
config *.**.nic.mac1609_4.useAcks true
config *.**.nic.mac1609_4.ackErrorRate 0.0
config *.**.nic.mac1609_4.frameErrorRate 0.0
config *.**.nic.phy80211p.minPowerLevel -94dBm
config *.**.nic.phy80211p.maxTXPower 100mW
config *.**.nic.phy80211p.useNoiseFloor true
config *.**.nic.phy80211p.noiseFloor -95dBm
config *.**.nic.phy80211p.decider "xmldoc(\"config.xml\")"
config *.**.nic.phy80211p.analogueModels "xmldoc(\"config.xml\")"
config *.**.nic.phy80211p.usePropagationDelay true
config *.node[*].mobility.x 0
config *.node[*].mobility.y 0
config *.node[*].mobility.z 1.895
config seed-set 6
config **.seed 6
config *.node[*].prot.rng-0 2
config *.node[*].appl.rng-0 3
config *.node[*].scenario.rng-0 4
config **.traffic.rng-0 5
config *.manager.configFile "\"./sumocfg/freeway.sumo.cfg\""
config *.manager.launchConfig "xmldoc(\"./sumocfg/freeway.launchd.xml\")"
config **.numberOfCars 8
config **.numberOfCarsPerPlatoon 8
config **.numberOfLanes 1
config *.node[*].helper_type "\"PositionHelper\""
config *.node[*].scenario.caccC1 0.5
config *.node[*].scenario.caccXi 1
config *.node[*].scenario.caccOmegaN "0.2 Hz"
config *.node[*].scenario.caccSpacing "2 m"
config *.node[*].scenario.engineTau "0.5 s"
config *.node[*].scenario.ploegH 0.5s
config *.node[*].scenario.ploegKp 0.2
config *.node[*].scenario.ploegKd 0.7
config *.node[*].scenario.useRealisticEngine false
config *.node[*].scenario.useControllerAcceleration true
config *.node[*].scenario.nLanes 1
config **.numericController 1
config **.headway 0.1s
config *.node[*].scenario.accHeadway 0.1s
config *.node[*].scenario.leaderHeadway 1.2s
config *.node[*].scenario.leaderSpeed 130kmph
config *.node[*].appl_type "\"SimplePlatooningApp\""
config *.node[*].appl.*.scalar-recording true
config *.node[*].appl.*.vector-recording true
config *.node[0].appl.breakRanksSafetyDistance 10m
config *.node[*].appl.minSpeed 120kmph
config *.node[*].appl.maxSpeed 140kmph
config *.node[*].protocol_type "\"SimplePlatooningBeaconing\""
config *.node[*].prot.*.scalar-recording true
config *.node[*].prot.*.vector-recording true
config *.node[*].prot.beaconingInterval 0.1s
config *.node[*].prot.priority 4
config *.node[*].prot.packetSize 200
config **.traffic_type "\"PlatoonsTrafficManager\""
config **.traffic.platoonInsertTime "1 s"
config **.traffic.platoonInsertSpeed 130kmph
config **.traffic.nCars 8
config **.traffic.platoonSize 8
config **.traffic.nLanes 1
config **.traffic.platooningVType "\"vtypeauto\""
config **.traffic.controller "\"CACC\""
config **.traffic.platoonInsertDistance 2m
config **.traffic.platoonInsertHeadway 0s
config **.traffic.platoonLeaderHeadway 1.2s
config **.scalar-recording false
config **.vector-recording false
config output-vector-file results/BreakRanksNoGui_1_0.1_130_10/result_6.vec
config output-scalar-file results/BreakRanksNoGui_1_0.1_130_10/result_6.sca

vector 0 Highway.node[0].appl distance ETV
vector 1 Highway.node[0].appl relativeSpeed ETV
vector 2 Highway.node[0].appl nodeId ETV
vector 3 Highway.node[0].appl acceleration ETV
vector 4 Highway.node[0].appl controllerAcceleration ETV
vector 5 Highway.node[0].appl speed ETV
vector 6 Highway.node[0].appl posx ETV
vector 7 Highway.node[0].appl posy ETV
vector 8 Highway.node[1].appl distance ETV
vector 9 Highway.node[1].appl relativeSpeed ETV
vector 10 Highway.node[1].appl nodeId ETV
vector 11 Highway.node[1].appl acceleration ETV
vector 12 Highway.node[1].appl controllerAcceleration ETV
vector 13 Highway.node[1].appl speed ETV
vector 14 Highway.node[1].appl posx ETV
vector 15 Highway.node[1].appl posy ETV
vector 16 Highway.node[2].appl distance ETV
vector 17 Highway.node[2].appl relativeSpeed ETV
vector 18 Highway.node[2].appl nodeId ETV
vector 19 Highway.node[2].appl acceleration ETV
vector 20 Highway.node[2].appl controllerAcceleration ETV
vector 21 Highway.node[2].appl speed ETV
vector 22 Highway.node[2].appl posx ETV
vector 23 Highway.node[2].appl posy ETV
vector 24 Highway.node[3].appl distance ETV
vector 25 Highway.node[3].appl relativeSpeed ETV
vector 26 Highway.node[3].appl nodeId ETV
vector 27 Highway.node[3].appl acceleration ETV
vector 28 Highway.node[3].appl controllerAcceleration ETV
vector 29 Highway.node[3].appl speed ETV
vector 30 Highway.node[3].appl posx ETV
vector 31 Highway.node[3].appl posy ETV
vector 32 Highway.node[4].appl distance ETV
vector 33 Highway.node[4].appl relativeSpeed ETV
vector 34 Highway.node[4].appl nodeId ETV
vector 35 Highway.node[4].appl acceleration ETV
vector 36 Highway.node[4].appl controllerAcceleration ETV
vector 37 Highway.node[4].appl speed ETV
vector 38 Highway.node[4].appl posx ETV
vector 39 Highway.node[4].appl posy ETV
vector 40 Highway.node[5].appl distance ETV
vector 41 Highway.node[5].appl relativeSpeed ETV
vector 42 Highway.node[5].appl nodeId ETV
vector 43 Highway.node[5].appl acceleration ETV
vector 44 Highway.node[5].appl controllerAcceleration ETV
vector 45 Highway.node[5].appl speed ETV
vector 46 Highway.node[5].appl posx ETV
vector 47 Highway.node[5].appl posy ETV
vector 48 Highway.node[6].appl distance ETV
vector 49 Highway.node[6].appl relativeSpeed ETV
vector 50 Highway.node[6].appl nodeId ETV
vector 51 Highway.node[6].appl acceleration ETV
vector 52 Highway.node[6].appl controllerAcceleration ETV
vector 53 Highway.node[6].appl speed ETV
vector 54 Highway.node[6].appl posx ETV
vector 55 Highway.node[6].appl posy ETV
vector 56 Highway.node[7].appl distance ETV
vector 57 Highway.node[7].appl relativeSpeed ETV
vector 58 Highway.node[7].appl nodeId ETV
vector 59 Highway.node[7].appl acceleration ETV
vector 60 Highway.node[7].appl controllerAcceleration ETV
vector 61 Highway.node[7].appl speed ETV
vector 62 Highway.node[7].appl posx ETV
vector 63 Highway.node[7].appl posy ETV
vector 64 Highway.node[1].prot leaderDelay ETV
vector 65 Highway.node[1].prot leaderDelayId ETV
vector 66 Highway.node[1].prot frontDelay ETV
vector 67 Highway.node[1].prot frontDelayId ETV
vector 68 Highway.node[2].prot leaderDelay ETV
vector 69 Highway.node[2].prot leaderDelayId ETV
vector 70 Highway.node[3].prot leaderDelay ETV
vector 71 Highway.node[3].prot leaderDelayId ETV
vector 72 Highway.node[4].prot leaderDelay ETV
vector 73 Highway.node[4].prot leaderDelayId ETV
vector 74 Highway.node[5].prot leaderDelay ETV
vector 75 Highway.node[5].prot leaderDelayId ETV
vector 76 Highway.node[6].prot leaderDelay ETV
vector 77 Highway.node[6].prot leaderDelayId ETV
vector 78 Highway.node[7].prot leaderDelay ETV
vector 79 Highway.node[7].prot leaderDelayId ETV
vector 80 Highway.node[7].prot frontDelay ETV
vector 81 Highway.node[7].prot frontDelayId ETV
vector 82 Highway.node[3].prot frontDelay ETV
vector 83 Highway.node[3].prot frontDelayId ETV
vector 84 Highway.node[6].prot frontDelay ETV
vector 85 Highway.node[6].prot frontDelayId ETV
vector 86 Highway.node[2].prot frontDelay ETV
vector 87 Highway.node[2].prot frontDelayId ETV
vector 88 Highway.node[4].prot frontDelay ETV
vector 89 Highway.node[4].prot frontDelayId ETV
vector 90 Highway.node[5].prot frontDelay ETV
vector 91 Highway.node[5].prot frontDelayId ETV
vector 92 Highway.node[0].prot nodeId ETV
vector 93 Highway.node[0].prot busyTime ETV
vector 94 Highway.node[0].prot collisions ETV
vector 95 Highway.node[1].prot nodeId ETV
vector 96 Highway.node[1].prot busyTime ETV
vector 97 Highway.node[1].prot collisions ETV
vector 98 Highway.node[2].prot nodeId ETV
vector 99 Highway.node[2].prot busyTime ETV
vector 100 Highway.node[2].prot collisions ETV
vector 101 Highway.node[3].prot nodeId ETV
vector 102 Highway.node[3].prot busyTime ETV
vector 103 Highway.node[3].prot collisions ETV
vector 104 Highway.node[4].prot nodeId ETV
vector 105 Highway.node[4].prot busyTime ETV
vector 106 Highway.node[4].prot collisions ETV
vector 107 Highway.node[5].prot nodeId ETV
vector 108 Highway.node[5].prot busyTime ETV
vector 109 Highway.node[5].prot collisions ETV
vector 110 Highway.node[6].prot nodeId ETV
vector 111 Highway.node[6].prot busyTime ETV
vector 112 Highway.node[6].prot collisions ETV
vector 113 Highway.node[7].prot nodeId ETV
vector 114 Highway.node[7].prot busyTime ETV
vector 115 Highway.node[7].prot collisions ETV
0	11345 17510 113 545132 1.11 99.91 989 -1 -1 -989 989
1	28855 16521 113 545132 1.11 99.91 989 0 0 0 0
2	45376 16521 113 545132 1.11 99.91 989 0 0 0 0
3	61897 18809 113 545132 1.11 99.91 989 -3.14892e-05 0.000707784 0.010991577126781 6.0508064149601e-06
4	80706 26467 113 545132 1.11 99.91 989 -4.89399e-05 0.00109259 0.010614843047836 8.6815283230331e-06
5	107173 22448 113 545132 1.11 99.91 989 36.11 36.1111 35713.866699999 1289666.6073546
6	129621 22344 113 545132 1.11 99.91 989 54.2699 3622.05 1817937.4804 4392862519.5697
7	151965 21466 113 545132 1.11 99.91 989 242.45 242.45 239783.05 58135400.472499
8	173431 20996 114 545133 1.11 99.91 989 -1 9.99899 5316.48999 50834.802670948
9	194427 22527 114 545133 1.11 99.91 989 -1.39742e-05 0.636964 79.989955636214 33.700669799791
10	216954 17510 114 545133 1.11 99.91 989 1 1 989 989
11	234464 26742 114 545133 1.11 99.91 989 -0.24225 0.0514713 -1.0683844518037 1.4163494653211
12	261206 26793 114 545133 1.11 99.91 989 -0.318924 0.0518943 -0.62292107512936 1.6341884013412
13	287999 22348 114 545133 1.11 99.91 989 35.4741 36.1111 35603.7553 1281751.140863
14	310347 23348 114 545133 1.11 99.91 989 48.2699 3605.04 1805199.1146 4340783422.1411
15	333695 22455 114 545133 1.11 99.91 989 242.45 245.75 240700.45 58583275.1525
16	356150 23316 115 545134 1.11 99.91 989 2 43.8255 15770.3468 444889.32225297
17	379466 25168 115 545134 1.11 99.91 989 -5.58466e-08 1.8278 278.33950746596 239.04810750449
18	404634 17510 115 545134 1.11 99.91 989 2 2 1978 3956
19	422144 25960 115 545134 1.11 99.91 989 -1.15548 0.202257 -1.435584666961 21.378902934059
20	448104 25944 115 545134 1.11 99.91 989 -1.76184 0.228156 -0.34540000567887 28.609885366083
21	474048 23334 115 545134 1.11 99.91 989 34.2833 36.1111 35355.5356 1264118.566146
22	497382 23293 115 545134 1.11 99.91 989 42.2699 3574.22 1789772.6416 4270965024.815
23	520675 22455 115 545134 1.11 99.91 989 242.45 242.45 239783.05 58135400.472499
24	543130 23303 116 545135 1.11 99.91 989 2 42.6257 13873.99144 345076.91211866
25	566433 25001 116 545135 1.11 99.91 989 -1.06603e-07 2.86371 406.39117148506 583.20630540865
26	591434 17510 116 545135 1.11 99.91 989 3 3 2967 8901
27	608944 25714 116 545135 1.11 99.91 989 -2.19154 0.467435 -4.092794062494 92.967497510382
28	634658 25735 116 545135 1.11 99.91 989 -2.93496 0.500713 -2.470762012962 114.64795500557
29	660393 23320 116 545135 1.11 99.91 989 31.5342 36.1111 34949.147 1236127.6423834
30	683713 23333 116 545135 1.11 99.91 989 36.2699 3527.59 1771942.7151 4185475687.4746
31	707046 22455 116 545135 1.11 99.91 989 242.45 242.45 239783.05 58135400.472499
32	729501 21875 117 545136 1.11 99.91 989 -1 9.98213 4715.96545 42444.250680211
33	751376 23159 117 545136 1.11 99.91 989 -2.56116e-05 0.373774 79.822421731943 20.507049677286
34	774535 17510 117 545136 1.11 99.91 989 4 4 3956 15824
35	792045 26326 117 545136 1.11 99.91 989 -0.490888 0.102957 -1.0624550880447 7.6123203074824
36	818371 26415 117 545136 1.11 99.91 989 -0.594681 0.103386 -0.52361945045159 8.3656282617162
37	844786 22321 117 545136 1.11 99.91 989 34.3137 36.1111 35363.9161 1264785.4803191
38	867107 23348 117 545136 1.11 99.91 989 30.2699 3563.06 1769415.7618 4196817684.2008
39	890455 22455 117 545136 1.11 99.91 989 242.45 249.05 241617.85 59037204.672501
40	912910 23321 118 545137 1.11 99.91 989 1.99847 51.9967 19249.16591 790956.41738309
41	936231 25931 118 545137 1.11 99.91 989 -0.00319971 0.335146 80.235401951003 18.558284442715
42	962162 17510 118 545137 1.11 99.91 989 5 5 4945 24725
43	979672 26191 118 545137 1.11 99.91 989 -0.515325 0.106103 -1.0434691899675 9.016080691524
44	1005863 26301 118 545137 1.11 99.91 989 -0.61257 0.106458 -0.12314906057815 9.7203818236322
45	1032164 22308 118 545137 1.11 99.91 989 34.0689 36.1111 35283.8175 1259167.800399
46	1054472 23371 118 545137 1.11 99.91 989 24.2699 3549.05 1757882.1431 4150259096.1231
47	1077843 22455 118 545137 1.11 99.91 989 242.45 245.75 240700.45 58583275.1525
48	1100298 23265 119 545138 1.11 99.91 989 1.99923 46.7862 15902.78851 499754.91573192
49	1123563 24954 119 545138 1.11 99.91 989 -1.51549 1.01396 168.72591652807 127.03905459759
50	1148517 17510 119 545138 1.11 99.91 989 6 6 5934 35604
51	1166027 25586 119 545138 1.11 99.91 989 -1.70016 0.524383 -11.033403393839 86.230461808031
52	1191613 25610 119 545138 1.11 99.91 989 -1.82773 0.558206 -9.7246116869775 93.621845007121
53	1217223 23252 119 545138 1.11 99.91 989 31.0912 36.1111 34620.938 1213309.2483761
54	1240475 23342 119 545138 1.11 99.91 989 18.2699 3476.81 1736606.7375 4041686576.7813
55	1263817 22455 119 545138 1.11 99.91 989 242.45 242.45 239783.05 58135400.472499
56	1286272 23227 120 545139 1.11 99.91 989 1.99999 44.6723 16189.75959 535227.21087487
57	1309499 24984 120 545139 1.11 99.91 989 -7.15619e-06 0.624501 147.68678614723 40.955883374835
58	1334483 17510 120 545139 1.11 99.91 989 7 7 6923 48461
59	1351993 25667 120 545139 1.11 99.91 989 -0.533048 0.104546 -1.586404831545 13.060632068689
60	1377660 25689 120 545139 1.11 99.91 989 -0.621369 0.104689 -0.943808003582 14.647099500293
61	1403349 23335 120 545139 1.11 99.91 989 33.7079 36.1111 35057.169 1243211.054948
62	1426684 23339 120 545139 1.11 99.91 989 12.2699 3514.38 1734187.6317 4051759671.4701
63	1450023 22455 120 545139 1.11 99.91 989 242.45 249.05 241617.85 59037204.672501
64	1472478 39988 699 545172 1.249406540374 99.949415839498 988 0.099987520364 0.100009576132 98.800009819484 9.8800019768794
65	1512466 27257 699 545172 1.249406540374 99.949415839498 988 1 1 988 988
66	1539723 39988 699 545172 1.249406540374 99.949415839498 988 0.099987520364 0.100009576132 98.800009819484 9.8800019768794
67	1579711 27257 699 545172 1.249406540374 99.949415839498 988 1 1 988 988
68	1606968 40014 705 545178 1.249406560388 99.94941594125 988 0.099987520364 0.100009576134 98.800009901222 9.880001993227
69	1646982 27279 705 545178 1.249406560388 99.94941594125 988 2 2 1976 3952
70	1674261 40014 711 545196 1.249406580402 99.949416096812 988 0.099987520364 0.100009576136 98.80001003677 9.8800020203366
71	1714275 27271 711 545196 1.249406580402 99.949416096812 988 3 3 2964 8892
72	1741546 40011 717 545184 1.249406600415 99.949415979712 988 0.099987520364 0.10000957614 98.800009899657 9.880001992914
73	1781557 27277 717 545184 1.249406600415 99.949415979712 988 4 4 3952 15808
74	1808834 40027 723 545190 1.249406620429 99.949416025465 988 0.099987520364 0.100009576146 98.800009925396 9.8800019980618
75	1848861 27282 723 545190 1.249406620429 99.949416025465 988 5 5 4940 24700
76	1876143 40001 729 545208 1.249406640443 99.949416266309 988 0.099987520364 0.100009576157 98.800010146226 9.8800020422278
77	1916144 27271 729 545208 1.249406640443 99.949416266309 988 6 6 5928 35568
78	1943415 40040 735 545202 1.249406660457 99.949416141518 988 0.099987520364 0.100009576171 98.800010001421 9.8800020132668
79	1983455 27275 735 545202 1.249406660457 99.949416141518 988 7 7 6916 48412
80	2010730 39996 841 545308 1.280893700485 99.980903396437 988 0.099987520364 0.100009576199 98.800010216312 9.880002056456
81	2050726 27266 841 545308 1.280893700485 99.980903396437 988 7 7 6916 48412
82	2077992 40024 908 545393 1.29643578054 99.996432749726 988 0.09998752036 0.100003560395 98.799997489546 9.8799995106146
83	2118016 27279 908 545393 1.29643578054 99.996432749726 988 3 3 2964 8892
84	2145295 39958 978 544929 1.300069840582 99.900078259222 987 0.099987520364 0.100009769661 98.700008939 9.8700018011402
85	2185253 27233 978 544929 1.300069840582 99.900078259222 987 6 6 5922 35532
86	2212486 39909 1041 544968 1.300453920637 99.900475308212 986 0.099137991305 0.199997779989 98.699969907935 9.88999712473
87	2252395 27216 1041 544968 1.300453920637 99.900475308212 986 2 2 1972 3944
88	2279611 39984 1107 545040 1.301721960665 99.901717583705 987 0.099766808937 0.100224144739 98.6999961434 9.8699993459854
89	2319595 27256 1107 545040 1.301721960665 99.901717583705 987 4 4 3948 15792
90	2346851 39991 1173 545100 1.304796980679 99.904792631716 987 0.099987520363 0.100009367342 98.699996171397 9.869999247398
91	2386842 27260 1173 545100 1.304796980679 99.904792631716 987 5 5 4935 24675
92	2414102 1459 4785 545436 2 100 99 0 0 0 0
93	2415561 2730 4785 545436 2 100 99 0.021463436837 0.02613186378 2.470605689477 0.061669233504919
94	2418291 1459 4785 545436 2 100 99 0 0 0 0
95	2419750 1459 4786 545437 2 100 99 1 1 99 99
96	2421209 2730 4786 545437 2 100 99 0.021462456851 0.025897252078 2.47021022716 0.061648959921773
97	2423939 1459 4786 545437 2 100 99 0 0 0 0
98	2425398 1459 4787 545438 2 100 99 2 2 198 396
99	2426857 2731 4787 545438 2 100 99 0.021463476865 0.025897252457 2.470211515624 0.06164901713571
100	2429588 1558 4787 545438 2 100 99 0 0 0 0
101	2431146 1558 4788 545439 2 100 99 3 3 297 891
102	2432704 2829 4788 545439 2 100 99 0.021462496879 0.025897252859 2.470210714105 0.061648984892192
103	2435533 1558 4788 545439 2 100 99 0 0 0 0
104	2437091 1558 4789 545440 2 100 99 4 4 396 1584
105	2438649 2827 4789 545440 2 100 99 0.021462516893 0.025897250821 2.470211924576 0.061649045547107
106	2441476 1558 4789 545440 2 100 99 0 0 0 0
107	2443034 1558 4790 545441 2 100 99 5 5 495 2475
108	2444592 2832 4790 545441 2 100 99 0.021463536907 0.025897252169 2.470212065888 0.061649045174224
109	2447424 1558 4790 545441 2 100 99 0 0 0 0
110	2448982 1558 4791 545442 2 100 99 6 6 594 3564
111	2450540 2830 4791 545442 2 100 99 0.021463516893 0.025897250378 2.470211917689 0.061649037032836
112	2453370 1558 4791 545442 2 100 99 0 0 0 0
113	2454928 1558 4792 545443 2 100 99 7 7 693 4851
114	2456486 2834 4792 545443 2 100 99 0.021463496879 0.025930903569 2.469947857335 0.061635912954699
115	2459320 1558 4792 545443 2 100 99 0 0 0 0

