version 3
run BreakRanksNoGui-289-20240711-15:37:26-295399
attr configname BreakRanksNoGui
attr datetime 20240711-15:37:26
attr datetimef 20240711-153726
attr experiment BreakRanksNoGui
attr inifile omnetpp.ini
attr iterationvars "$nCars=9, $platoonSize=8, $nLanes=1, $ploegH=0.5, $controller=1, $headway=0.1, $leaderHeadway=1.2, $leaderSpeed=130, $breakRanksSafetyDistance=15, $minSpeed=120, $maxSpeed=140, $beaconInterval=0.1, $priority=4, $packetSize=200, $sController=\"CACC\", $0=2, $1=0"
attr iterationvarsd nCars=9/platoonSize=8/nLanes=1/ploegH=0.5/controller=1/headway=0.1/leaderHeadway=1.2/leaderSpeed=130/breakRanksSafetyDistance=15/minSpeed=120/maxSpeed=140/beaconInterval=0.1/priority=4/packetSize=200/sController=CACC/2/0
attr iterationvarsf nCars=9,platoonSize=8,nLanes=1,ploegH=0.5,controller=1,headway=0.1,leaderHeadway=1.2,leaderSpeed=130,breakRanksSafetyDistance=15,minSpeed=120,maxSpeed=140,beaconInterval=0.1,priority=4,packetSize=200,sController=CACC,2,0-
attr measurement "$nCars=9, $platoonSize=8, $nLanes=1, $ploegH=0.5, $controller=1, $headway=0.1, $leaderHeadway=1.2, $leaderSpeed=130, $breakRanksSafetyDistance=15, $minSpeed=120, $maxSpeed=140, $beaconInterval=0.1, $priority=4, $packetSize=200, $sController=\"CACC\", $0=2, $1=0"
attr network Highway
attr processid 295399
attr repetition 9
attr replication #9
attr resultdir results
attr runnumber 289
attr seedset 9
itervar beaconInterval 0.1
itervar breakRanksSafetyDistance 15
itervar controller 1
itervar headway 0.1
itervar leaderHeadway 1.2
itervar leaderSpeed 130
itervar maxSpeed 140
itervar minSpeed 120
itervar nCars 9
itervar nLanes 1
itervar packetSize 200
itervar platoonSize 8
itervar ploegH 0.5
itervar priority 4
itervar sController "\"CACC\""
config image-path ../../../veins/images
config repeat 10
config extends BreakRanks
config *.manager.command "\"sumo\""
config *.manager.ignoreGuiCommands true
config output-vector-file "results/BreakRanks_1_0.1_130_15_8 /result_9.vec"
config output-scalar-file "results/BreakRanks_1_0.1_130_15_8 /result_9.sca"
config extends Platooning
config *.node[*].scenario_type "\"BreakRanksScenario\""
config *.manager.command "\"sumo-gui\""
config *.node[*].scenario_type "\"SimpleScenario\""
config cmdenv-express-mode true
config cmdenv-autoflush true
config cmdenv-status-frequency 15s
config num-rngs 6
config network Highway
config debug-on-errors true
config print-undisposed true
config *.playgroundSizeX 65000m
config *.playgroundSizeY 25000m
config *.playgroundSizeZ 50m
config sim-time-limit "100 s"
config *.annotations.draw false
config *.obstacles.debug false
config *.world.useTorus false
config *.world.use2D false
config *.manager.updateInterval 0.01s
config *.manager.host "\"localhost\""
config *.manager.moduleType "\"org.car2x.plexe.PlatoonCar\""
config *.manager.moduleName "\"node\""
config *.manager.moduleDisplayString "\"\""
config *.manager.autoShutdown true
config *.manager.margin 25
config *.connectionManager.sendDirect true
config *.connectionManager.maxInterfDist 2600m
config *.connectionManager.drawMaxIntfDist false
config *.**.nic.mac1609_4.useServiceChannel false
config *.**.nic.mac1609_4.txPower 100mW
config *.**.nic.mac1609_4.bitrate 6Mbps
config *.**.nic.mac1609_4.useAcks true
config *.**.nic.mac1609_4.ackErrorRate 0.0
config *.**.nic.mac1609_4.frameErrorRate 0.0
config *.**.nic.phy80211p.minPowerLevel -94dBm
config *.**.nic.phy80211p.maxTXPower 100mW
config *.**.nic.phy80211p.useNoiseFloor true
config *.**.nic.phy80211p.noiseFloor -95dBm
config *.**.nic.phy80211p.decider "xmldoc(\"config.xml\")"
config *.**.nic.phy80211p.analogueModels "xmldoc(\"config.xml\")"
config *.**.nic.phy80211p.usePropagationDelay true
config *.node[*].mobility.x 0
config *.node[*].mobility.y 0
config *.node[*].mobility.z 1.895
config seed-set 9
config **.seed 9
config *.node[*].prot.rng-0 2
config *.node[*].appl.rng-0 3
config *.node[*].scenario.rng-0 4
config **.traffic.rng-0 5
config *.manager.configFile "\"./sumocfg/freeway.sumo.cfg\""
config *.manager.launchConfig "xmldoc(\"./sumocfg/freeway.launchd.xml\")"
config **.numberOfCars 9
config **.numberOfCarsPerPlatoon 8
config **.numberOfLanes 1
config *.node[*].helper_type "\"PositionHelper\""
config *.node[*].scenario.caccC1 0.5
config *.node[*].scenario.caccXi 1
config *.node[*].scenario.caccOmegaN "0.2 Hz"
config *.node[*].scenario.caccSpacing "2 m"
config *.node[*].scenario.engineTau "0.5 s"
config *.node[*].scenario.ploegH 0.5s
config *.node[*].scenario.ploegKp 0.2
config *.node[*].scenario.ploegKd 0.7
config *.node[*].scenario.useRealisticEngine false
config *.node[*].scenario.useControllerAcceleration true
config *.node[*].scenario.nLanes 1
config **.numericController 1
config **.headway 0.1s
config *.node[*].scenario.accHeadway 0.1s
config *.node[*].scenario.leaderHeadway 1.2s
config *.node[*].scenario.leaderSpeed 130kmph
config *.node[*].appl_type "\"SimplePlatooningApp\""
config *.node[*].appl.*.scalar-recording true
config *.node[*].appl.*.vector-recording true
config *.node[0].appl.breakRanksSafetyDistance 15m
config *.node[*].appl.minSpeed 120kmph
config *.node[*].appl.maxSpeed 140kmph
config *.node[*].protocol_type "\"SimplePlatooningBeaconing\""
config *.node[*].prot.*.scalar-recording true
config *.node[*].prot.*.vector-recording true
config *.node[*].prot.beaconingInterval 0.1s
config *.node[*].prot.priority 4
config *.node[*].prot.packetSize 200
config **.traffic_type "\"PlatoonsTrafficManager\""
config **.traffic.platoonInsertTime "1 s"
config **.traffic.platoonInsertSpeed 130kmph
config **.traffic.nCars 9
config **.traffic.platoonSize 8
config **.traffic.nLanes 1
config **.traffic.platooningVType "\"vtypeauto\""
config **.traffic.controller "\"CACC\""
config **.traffic.platoonInsertDistance 2m
config **.traffic.platoonInsertHeadway 0s
config **.traffic.platoonLeaderHeadway 1.2s
config **.scalar-recording false
config **.vector-recording false

vector 0 Highway.node[0].appl distance ETV
vector 1 Highway.node[0].appl relativeSpeed ETV
vector 2 Highway.node[0].appl nodeId ETV
vector 3 Highway.node[0].appl acceleration ETV
vector 4 Highway.node[0].appl controllerAcceleration ETV
vector 5 Highway.node[0].appl speed ETV
vector 6 Highway.node[0].appl posx ETV
vector 7 Highway.node[0].appl posy ETV
vector 8 Highway.node[1].appl distance ETV
vector 9 Highway.node[1].appl relativeSpeed ETV
vector 10 Highway.node[1].appl nodeId ETV
vector 11 Highway.node[1].appl acceleration ETV
vector 12 Highway.node[1].appl controllerAcceleration ETV
vector 13 Highway.node[1].appl speed ETV
vector 14 Highway.node[1].appl posx ETV
vector 15 Highway.node[1].appl posy ETV
vector 16 Highway.node[2].appl distance ETV
vector 17 Highway.node[2].appl relativeSpeed ETV
vector 18 Highway.node[2].appl nodeId ETV
vector 19 Highway.node[2].appl acceleration ETV
vector 20 Highway.node[2].appl controllerAcceleration ETV
vector 21 Highway.node[2].appl speed ETV
vector 22 Highway.node[2].appl posx ETV
vector 23 Highway.node[2].appl posy ETV
vector 24 Highway.node[3].appl distance ETV
vector 25 Highway.node[3].appl relativeSpeed ETV
vector 26 Highway.node[3].appl nodeId ETV
vector 27 Highway.node[3].appl acceleration ETV
vector 28 Highway.node[3].appl controllerAcceleration ETV
vector 29 Highway.node[3].appl speed ETV
vector 30 Highway.node[3].appl posx ETV
vector 31 Highway.node[3].appl posy ETV
vector 32 Highway.node[4].appl distance ETV
vector 33 Highway.node[4].appl relativeSpeed ETV
vector 34 Highway.node[4].appl nodeId ETV
vector 35 Highway.node[4].appl acceleration ETV
vector 36 Highway.node[4].appl controllerAcceleration ETV
vector 37 Highway.node[4].appl speed ETV
vector 38 Highway.node[4].appl posx ETV
vector 39 Highway.node[4].appl posy ETV
vector 40 Highway.node[5].appl distance ETV
vector 41 Highway.node[5].appl relativeSpeed ETV
vector 42 Highway.node[5].appl nodeId ETV
vector 43 Highway.node[5].appl acceleration ETV
vector 44 Highway.node[5].appl controllerAcceleration ETV
vector 45 Highway.node[5].appl speed ETV
vector 46 Highway.node[5].appl posx ETV
vector 47 Highway.node[5].appl posy ETV
vector 48 Highway.node[6].appl distance ETV
vector 49 Highway.node[6].appl relativeSpeed ETV
vector 50 Highway.node[6].appl nodeId ETV
vector 51 Highway.node[6].appl acceleration ETV
vector 52 Highway.node[6].appl controllerAcceleration ETV
vector 53 Highway.node[6].appl speed ETV
vector 54 Highway.node[6].appl posx ETV
vector 55 Highway.node[6].appl posy ETV
vector 56 Highway.node[7].appl distance ETV
vector 57 Highway.node[7].appl relativeSpeed ETV
vector 58 Highway.node[7].appl nodeId ETV
vector 59 Highway.node[7].appl acceleration ETV
vector 60 Highway.node[7].appl controllerAcceleration ETV
vector 61 Highway.node[7].appl speed ETV
vector 62 Highway.node[7].appl posx ETV
vector 63 Highway.node[7].appl posy ETV
vector 64 Highway.node[8].appl distance ETV
vector 65 Highway.node[8].appl relativeSpeed ETV
vector 66 Highway.node[8].appl nodeId ETV
vector 67 Highway.node[8].appl acceleration ETV
vector 68 Highway.node[8].appl controllerAcceleration ETV
vector 69 Highway.node[8].appl speed ETV
vector 70 Highway.node[8].appl posx ETV
vector 71 Highway.node[8].appl posy ETV
vector 72 Highway.node[2].prot frontDelay ETV
vector 73 Highway.node[2].prot frontDelayId ETV
vector 74 Highway.node[7].prot frontDelay ETV
vector 75 Highway.node[7].prot frontDelayId ETV
vector 76 Highway.node[3].prot frontDelay ETV
vector 77 Highway.node[3].prot frontDelayId ETV
vector 78 Highway.node[6].prot frontDelay ETV
vector 79 Highway.node[6].prot frontDelayId ETV
vector 80 Highway.node[5].prot frontDelay ETV
vector 81 Highway.node[5].prot frontDelayId ETV
vector 82 Highway.node[4].prot frontDelay ETV
vector 83 Highway.node[4].prot frontDelayId ETV
vector 84 Highway.node[1].prot leaderDelay ETV
vector 85 Highway.node[1].prot leaderDelayId ETV
vector 86 Highway.node[1].prot frontDelay ETV
vector 87 Highway.node[1].prot frontDelayId ETV
vector 88 Highway.node[2].prot leaderDelay ETV
vector 89 Highway.node[2].prot leaderDelayId ETV
vector 90 Highway.node[3].prot leaderDelay ETV
vector 91 Highway.node[3].prot leaderDelayId ETV
vector 92 Highway.node[4].prot leaderDelay ETV
vector 93 Highway.node[4].prot leaderDelayId ETV
vector 94 Highway.node[5].prot leaderDelay ETV
vector 95 Highway.node[5].prot leaderDelayId ETV
vector 96 Highway.node[6].prot leaderDelay ETV
vector 97 Highway.node[6].prot leaderDelayId ETV
vector 98 Highway.node[7].prot leaderDelay ETV
vector 99 Highway.node[7].prot leaderDelayId ETV
vector 100 Highway.node[0].prot nodeId ETV
vector 101 Highway.node[0].prot busyTime ETV
vector 102 Highway.node[0].prot collisions ETV
vector 103 Highway.node[1].prot nodeId ETV
vector 104 Highway.node[1].prot busyTime ETV
vector 105 Highway.node[1].prot collisions ETV
vector 106 Highway.node[2].prot nodeId ETV
vector 107 Highway.node[2].prot busyTime ETV
vector 108 Highway.node[2].prot collisions ETV
vector 109 Highway.node[3].prot nodeId ETV
vector 110 Highway.node[3].prot busyTime ETV
vector 111 Highway.node[3].prot collisions ETV
vector 112 Highway.node[4].prot nodeId ETV
vector 113 Highway.node[4].prot busyTime ETV
vector 114 Highway.node[4].prot collisions ETV
vector 115 Highway.node[5].prot nodeId ETV
vector 116 Highway.node[5].prot busyTime ETV
vector 117 Highway.node[5].prot collisions ETV
vector 118 Highway.node[6].prot nodeId ETV
vector 119 Highway.node[6].prot busyTime ETV
vector 120 Highway.node[6].prot collisions ETV
vector 121 Highway.node[7].prot nodeId ETV
vector 122 Highway.node[7].prot busyTime ETV
vector 123 Highway.node[7].prot collisions ETV
vector 124 Highway.node[8].prot nodeId ETV
vector 125 Highway.node[8].prot busyTime ETV
vector 126 Highway.node[8].prot collisions ETV
0	113	1.11	9305.17
0	670	1.21	9305.17
0	1227	1.31	9305.17
0	1784	1.41	9305.17
0	2341	1.51	9305.17
0	2898	1.61	9305.17
0	3455	1.71	-1
0	4012	1.81	-1
0	4569	1.91	-1
0	5135	2.01	-1
0	5692	2.11	-1
0	6249	2.21	-1
0	6806	2.31	-1
0	7363	2.41	-1
0	7920	2.51	-1
0	8477	2.61	-1
0	9034	2.71	-1
0	9591	2.81	-1
0	10148	2.91	-1
0	10714	3.01	-1
0	11271	3.11	-1
0	11828	3.21	-1
0	12385	3.31	-1
0	12942	3.41	-1
0	13499	3.51	-1
0	14056	3.61	-1
0	14613	3.71	-1
0	15170	3.81	-1
0	15727	3.91	-1
0	16293	4.01	-1
0	16850	4.11	-1
0	17407	4.21	-1
0	17964	4.31	-1
0	18521	4.41	-1
0	19078	4.51	-1
0	19635	4.61	-1
0	20192	4.71	-1
0	20749	4.81	-1
0	21306	4.91	-1
0	21872	5.01	-1
0	22429	5.11	-1
0	22986	5.21	-1
0	23543	5.31	-1
0	24100	5.41	-1
0	24657	5.51	-1
0	25214	5.61	-1
0	25771	5.71	-1
0	26328	5.81	-1
0	26885	5.91	-1
0	27451	6.01	-1
0	28008	6.11	-1
0	28565	6.21	-1
0	29122	6.31	-1
0	29679	6.41	-1
0	30236	6.51	-1
0	30793	6.61	-1
0	31350	6.71	-1
0	31907	6.81	-1
0	32464	6.91	-1
0	33030	7.01	-1
0	33587	7.11	-1
0	34144	7.21	-1
0	34701	7.31	-1
0	35258	7.41	-1
0	35815	7.51	-1
0	36372	7.61	-1
0	36929	7.71	-1
0	37486	7.81	-1
0	38043	7.91	-1
0	38609	8.01	-1
0	39166	8.11	-1
0	39723	8.21	-1
0	40280	8.31	-1
0	40837	8.41	-1
0	41394	8.51	-1
0	41951	8.61	-1
0	42508	8.71	-1
0	43065	8.81	-1
0	43622	8.91	-1
0	44188	9.01	-1
0	44745	9.11	-1
0	45302	9.21	-1
0	45859	9.31	-1
0	46416	9.41	-1
0	46973	9.51	-1
0	47530	9.61	-1
0	48087	9.71	-1
0	48644	9.81	-1
0	49201	9.91	-1
0	49852	10.01	-1
0	50416	10.11	-1
0	50980	10.21	-1
0	51544	10.31	-1
0	52108	10.41	-1
0	52672	10.51	-1
0	53236	10.61	-1
0	53800	10.71	-1
0	54364	10.81	-1
0	54928	10.91	-1
0	55501	11.01	-1
0	56065	11.11	-1
0	56629	11.21	-1
0	57193	11.31	-1
0	57757	11.41	-1
0	58321	11.51	-1
0	58885	11.61	-1
0	59449	11.71	-1
0	60013	11.81	-1
0	60577	11.91	-1
0	61150	12.01	-1
0	61714	12.11	-1
0	62278	12.21	-1
0	62842	12.31	-1
0	63406	12.41	-1
0	63970	12.51	-1
0	64534	12.61	-1
0	65098	12.71	-1
0	65662	12.81	-1
0	66226	12.91	-1
0	66799	13.01	-1
0	67363	13.11	-1
0	67927	13.21	-1
0	68491	13.31	-1
0	69055	13.41	-1
0	69619	13.51	-1
0	70183	13.61	-1
0	70747	13.71	-1
0	71311	13.81	-1
0	71875	13.91	-1
0	72448	14.01	-1
0	73012	14.11	-1
0	73576	14.21	-1
0	74140	14.31	-1
0	74704	14.41	-1
0	75268	14.51	-1
0	75832	14.61	-1
0	76396	14.71	-1
0	76960	14.81	-1
0	77524	14.91	-1
0	78097	15.01	-1
0	78661	15.11	-1
0	79225	15.21	-1
0	79789	15.31	-1
0	80353	15.41	-1
0	80917	15.51	-1
0	81481	15.61	-1
0	82045	15.71	-1
0	82609	15.81	-1
0	83173	15.91	-1
0	83746	16.01	-1
0	84310	16.11	-1
0	84874	16.21	-1
0	85438	16.31	-1
0	86002	16.41	-1
0	86566	16.51	-1
0	87130	16.61	-1
0	87694	16.71	-1
0	88258	16.81	-1
0	88822	16.91	-1
0	89395	17.01	-1
0	89959	17.11	-1
0	90523	17.21	-1
0	91087	17.31	-1
0	91651	17.41	-1
0	92215	17.51	-1
0	92779	17.61	-1
0	93343	17.71	-1
0	93907	17.81	-1
0	94471	17.91	-1
0	95044	18.01	-1
0	95608	18.11	-1
0	96172	18.21	-1
0	96736	18.31	-1
0	97300	18.41	-1
0	97864	18.51	-1
0	98428	18.61	-1
0	98992	18.71	-1
0	99556	18.81	-1
0	100120	18.91	-1
0	100693	19.01	-1
0	101257	19.11	-1
0	101821	19.21	-1
0	102385	19.31	-1
0	102949	19.41	-1
0	103513	19.51	-1
0	104077	19.61	-1
0	104641	19.71	-1
0	105205	19.81	-1
0	105769	19.91	-1
0	106342	20.01	-1
0	106906	20.11	-1
0	107470	20.21	-1
0	108034	20.31	-1
0	108598	20.41	-1
0	109162	20.51	-1
0	109726	20.61	-1
0	110290	20.71	-1
0	110854	20.81	-1
0	111418	20.91	-1
0	111991	21.01	-1
0	112555	21.11	-1
0	113119	21.21	-1
0	113683	21.31	-1
0	114247	21.41	-1
0	114811	21.51	-1
0	115375	21.61	-1
0	115939	21.71	-1
0	116503	21.81	-1
0	117067	21.91	-1
0	117640	22.01	-1
0	118204	22.11	-1
0	118768	22.21	-1
0	119332	22.31	-1
0	119896	22.41	-1
0	120460	22.51	-1
0	121024	22.61	-1
0	121588	22.71	-1
0	122152	22.81	-1
0	122716	22.91	-1
0	123289	23.01	-1
0	123853	23.11	-1
0	124417	23.21	-1
0	124981	23.31	-1
0	125545	23.41	-1
0	126109	23.51	-1
0	126673	23.61	-1
0	127237	23.71	-1
0	127801	23.81	-1
0	128365	23.91	-1
0	128938	24.01	-1
0	129502	24.11	-1
0	130066	24.21	-1
0	130630	24.31	-1
0	131194	24.41	-1
0	131758	24.51	-1
0	132322	24.61	-1
0	132886	24.71	-1
0	133450	24.81	-1
0	134014	24.91	-1
0	134587	25.01	-1
0	135151	25.11	-1
0	135715	25.21	-1
0	136279	25.31	-1
0	136843	25.41	-1
0	137407	25.51	-1
0	137971	25.61	-1
0	138535	25.71	-1
0	139099	25.81	-1
0	139663	25.91	-1
0	140236	26.01	-1
0	140800	26.11	-1
0	141364	26.21	-1
0	141928	26.31	-1
0	142492	26.41	-1
0	143056	26.51	-1
0	143620	26.61	-1
0	144184	26.71	-1
0	144748	26.81	-1
0	145312	26.91	-1
0	145885	27.01	-1
0	146449	27.11	-1
0	147013	27.21	-1
0	147577	27.31	-1
0	148141	27.41	-1
0	148705	27.51	-1
0	149269	27.61	-1
0	149833	27.71	-1
0	150397	27.81	-1
0	150961	27.91	-1
0	151534	28.01	-1
0	152098	28.11	-1
0	152662	28.21	-1
0	153226	28.31	-1
0	153790	28.41	-1
0	154354	28.51	-1
0	154918	28.61	-1
0	155482	28.71	-1
0	156046	28.81	-1
0	156610	28.91	-1
0	157183	29.01	-1
0	157747	29.11	-1
0	158311	29.21	-1
0	158875	29.31	-1
0	159439	29.41	-1
0	160003	29.51	-1
0	160567	29.61	-1
0	161131	29.71	-1
0	161695	29.81	-1
0	162259	29.91	-1
0	162832	30.01	-1
0	163396	30.11	-1
0	163960	30.21	-1
0	164524	30.31	-1
0	165088	30.41	-1
0	165652	30.51	-1
0	166216	30.61	-1
0	166780	30.71	-1
0	167344	30.81	-1
0	167908	30.91	-1
0	168481	31.01	-1
0	169045	31.11	-1
0	169609	31.21	-1
0	170173	31.31	-1
0	170737	31.41	-1
0	171301	31.51	-1
0	171865	31.61	-1
0	172429	31.71	-1
0	172993	31.81	-1
0	173557	31.91	-1
0	174130	32.01	-1
0	174694	32.11	-1
0	175258	32.21	-1
0	175822	32.31	-1
0	176386	32.41	-1
0	176950	32.51	-1
0	177514	32.61	-1
0	178078	32.71	-1
0	178642	32.81	-1
0	179206	32.91	-1
0	179779	33.01	-1
0	180343	33.11	-1
0	180907	33.21	-1
0	181471	33.31	-1
0	182035	33.41	-1
0	182599	33.51	-1
0	183163	33.61	-1
0	183727	33.71	-1
0	184291	33.81	-1
0	184855	33.91	-1
0	185428	34.01	-1
0	185992	34.11	-1
0	186556	34.21	-1
0	187120	34.31	-1
0	187684	34.41	-1
0	188248	34.51	-1
0	188812	34.61	-1
0	189376	34.71	-1
0	189940	34.81	-1
0	190504	34.91	-1
0	191077	35.01	-1
0	191641	35.11	-1
0	192205	35.21	-1
0	192769	35.31	-1
0	193333	35.41	-1
0	193897	35.51	-1
0	194461	35.61	-1
0	195025	35.71	-1
0	195589	35.81	-1
0	196153	35.91	-1
0	196726	36.01	-1
0	197290	36.11	-1
0	197854	36.21	-1
0	198418	36.31	-1
0	198982	36.41	-1
0	199546	36.51	-1
0	200110	36.61	-1
0	200674	36.71	-1
0	201238	36.81	-1
0	201802	36.91	-1
0	202375	37.01	-1
0	202939	37.11	-1
0	203503	37.21	-1
0	204067	37.31	-1
0	204631	37.41	-1
0	205195	37.51	-1
0	205759	37.61	-1
0	206323	37.71	-1
0	206887	37.81	-1
0	207451	37.91	-1
0	208024	38.01	-1
0	208588	38.11	-1
0	209152	38.21	-1
0	209716	38.31	-1
0	210280	38.41	-1
0	210844	38.51	-1
0	211408	38.61	-1
0	211972	38.71	-1
0	212536	38.81	-1
0	213100	38.91	-1
0	213673	39.01	-1
0	214237	39.11	-1
0	214801	39.21	-1
0	215365	39.31	-1
0	215929	39.41	-1
0	216493	39.51	-1
0	217057	39.61	-1
0	217621	39.71	-1
0	218185	39.81	-1
0	218749	39.91	-1
0	219322	40.01	-1
0	219886	40.11	-1
0	220450	40.21	-1
0	221014	40.31	-1
0	221578	40.41	-1
0	222142	40.51	-1
0	222706	40.61	-1
0	223270	40.71	-1
0	223834	40.81	-1
0	224398	40.91	-1
0	224971	41.01	-1
0	225535	41.11	-1
0	226099	41.21	-1
0	226663	41.31	-1
0	227227	41.41	-1
0	227791	41.51	-1
0	228355	41.61	-1
0	228919	41.71	-1
0	229483	41.81	-1
0	230047	41.91	-1
0	230620	42.01	-1
0	231184	42.11	-1
0	231748	42.21	-1
0	232312	42.31	-1
0	232876	42.41	-1
0	233440	42.51	-1
0	234004	42.61	-1
0	234568	42.71	-1
0	235132	42.81	-1
0	235696	42.91	-1
0	236269	43.01	-1
0	236833	43.11	-1
0	237397	43.21	-1
0	237961	43.31	-1
0	238525	43.41	-1
0	239089	43.51	-1
0	239653	43.61	-1
0	240217	43.71	-1
0	240781	43.81	-1
0	241345	43.91	-1
0	241918	44.01	-1
0	242482	44.11	-1
0	243046	44.21	-1
0	243610	44.31	-1
0	244174	44.41	-1
0	244738	44.51	-1
0	245302	44.61	-1
0	245866	44.71	-1
0	246430	44.81	-1
0	246994	44.91	-1
0	247567	45.01	-1
0	248131	45.11	-1
0	248695	45.21	-1
0	249259	45.31	-1
0	249823	45.41	-1
0	250387	45.51	-1
0	250951	45.61	-1
0	251515	45.71	-1
0	252172	45.81	-1
0	252735	45.91	-1
0	253307	46.01	-1
0	253870	46.11	-1
0	254433	46.21	-1
0	254996	46.31	-1
0	255559	46.41	-1
0	256122	46.51	-1
0	256685	46.61	-1
0	257248	46.71	-1
0	257811	46.81	-1
0	258374	46.91	-1
0	258946	47.01	-1
0	259509	47.11	-1
0	260072	47.21	-1
0	260635	47.31	-1
0	261198	47.41	-1
0	261761	47.51	-1
0	262324	47.61	-1
0	262887	47.71	-1
0	263450	47.81	-1
0	264013	47.91	-1
0	264585	48.01	-1
0	265148	48.11	-1
0	265711	48.21	-1
0	266274	48.31	-1
0	266837	48.41	-1
0	267400	48.51	-1
0	267963	48.61	-1
0	268526	48.71	-1
0	269089	48.81	-1
0	269652	48.91	-1
0	270224	49.01	-1
0	270787	49.11	-1
0	271350	49.21	-1
0	271913	49.31	-1
0	272476	49.41	-1
0	273039	49.51	-1
0	273602	49.61	-1
0	274165	49.71	-1
0	274728	49.81	-1
0	275291	49.91	-1
0	275863	50.01	-1
0	276426	50.11	-1
0	276989	50.21	-1
0	277552	50.31	-1
0	278115	50.41	-1
0	278678	50.51	-1
0	279241	50.61	-1
0	279804	50.71	-1
0	280367	50.81	-1
0	280930	50.91	-1
0	281502	51.01	-1
0	282065	51.11	-1
0	282628	51.21	-1
0	283191	51.31	-1
0	283754	51.41	-1
0	284317	51.51	-1
0	284880	51.61	-1
0	285443	51.71	-1
0	286006	51.81	-1
0	286662	51.91	-1
0	287233	52.01	-1
0	287795	52.11	-1
0	288357	52.21	-1
0	288919	52.31	-1
0	289481	52.41	-1
0	290043	52.51	-1
0	290605	52.61	-1
0	291167	52.71	-1
0	291729	52.81	-1
0	292291	52.91	-1
0	292862	53.01	-1
0	293424	53.11	-1
0	293986	53.21	-1
0	294548	53.31	-1
0	295110	53.41	-1
0	295672	53.51	-1
0	296234	53.61	-1
0	296796	53.71	-1
0	297358	53.81	-1
0	297920	53.91	-1
0	298491	54.01	-1
0	299053	54.11	-1
0	299615	54.21	-1
0	300177	54.31	-1
0	300739	54.41	-1
0	301301	54.51	-1
0	301863	54.61	-1
0	302425	54.71	-1
0	302987	54.81	-1
0	303549	54.91	-1
0	304120	55.01	-1
0	304682	55.11	-1
0	305244	55.21	-1
0	305806	55.31	-1
0	306368	55.41	-1
0	306930	55.51	-1
0	307492	55.61	-1
0	308054	55.71	-1
0	308616	55.81	-1
0	309178	55.91	-1
0	309749	56.01	-1
0	310311	56.11	-1
0	310873	56.21	-1
0	311435	56.31	-1
0	311997	56.41	-1
0	312559	56.51	-1
0	313121	56.61	-1
0	313683	56.71	-1
0	314245	56.81	-1
0	314807	56.91	-1
0	315378	57.01	-1
0	315940	57.11	-1
0	316502	57.21	-1
0	317064	57.31	-1
0	317719	57.41	-1
0	318280	57.51	-1
0	318841	57.61	-1
0	319402	57.71	-1
0	319963	57.81	-1
0	320524	57.91	-1
0	321094	58.01	-1
0	321655	58.11	-1
0	322216	58.21	-1
0	322777	58.31	-1
0	323338	58.41	-1
0	323899	58.51	-1
0	324460	58.61	-1
0	325021	58.71	-1
0	325582	58.81	-1
0	326143	58.91	-1
0	326713	59.01	-1
0	327274	59.11	-1
0	327835	59.21	-1
0	328396	59.31	-1
0	328957	59.41	-1
0	329518	59.51	-1
0	330079	59.61	-1
0	330640	59.71	-1
0	331201	59.81	-1
0	331762	59.91	-1
0	332332	60.01	-1
0	332893	60.11	-1
0	333454	60.21	-1
0	334015	60.31	-1
0	334576	60.41	-1
0	335137	60.51	-1
0	335698	60.61	-1
0	336259	60.71	-1
0	336820	60.81	-1
0	337381	60.91	-1
0	337951	61.01	-1
0	338512	61.11	-1
0	339073	61.21	-1
0	339634	61.31	-1
0	340195	61.41	-1
0	340756	61.51	-1
0	341317	61.61	-1
0	341878	61.71	-1
0	342439	61.81	-1
0	343000	61.91	-1
0	343570	62.01	-1
0	344131	62.11	-1
0	344692	62.21	-1
0	345253	62.31	-1
0	345814	62.41	-1
0	346468	62.51	-1
0	347028	62.61	-1
0	347588	62.71	-1
0	348148	62.81	-1
0	348708	62.91	-1
0	349277	63.01	-1
0	349837	63.11	-1
0	350397	63.21	-1
0	350957	63.31	-1
0	351517	63.41	-1
0	352077	63.51	-1
0	352637	63.61	-1
0	353197	63.71	-1
0	353757	63.81	-1
0	354317	63.91	-1
0	354886	64.01	-1
0	355446	64.11	-1
0	356006	64.21	-1
0	356566	64.31	-1
0	357126	64.41	-1
0	357686	64.51	-1
0	358246	64.61	-1
0	358806	64.71	-1
0	359366	64.81	-1
0	359926	64.91	-1
0	360495	65.01	-1
0	361055	65.11	-1
0	361615	65.21	-1
0	362175	65.31	-1
0	362735	65.41	-1
0	363295	65.51	-1
0	363855	65.61	-1
0	364415	65.71	-1
0	364975	65.81	-1
0	365535	65.91	-1
0	366104	66.01	-1
0	366664	66.11	-1
0	367224	66.21	-1
0	367784	66.31	-1
0	368344	66.41	-1
0	368904	66.51	-1
0	369464	66.61	-1
0	370024	66.71	-1
0	370584	66.81	-1
0	371144	66.91	-1
0	371713	67.01	-1
0	372273	67.11	-1
0	372833	67.21	-1
0	373486	67.31	-1
0	374045	67.41	-1
0	374604	67.51	-1
0	375163	67.61	-1
0	375722	67.71	-1
0	376281	67.81	-1
0	376840	67.91	-1
0	377408	68.01	-1
0	377967	68.11	-1
0	378526	68.21	-1
0	379085	68.31	-1
0	379644	68.41	-1
0	380203	68.51	-1
0	380762	68.61	-1
0	381321	68.71	-1
0	381880	68.81	-1
0	382439	68.91	-1
0	383007	69.01	-1
0	383566	69.11	-1
0	384125	69.21	-1
0	384684	69.31	-1
0	385243	69.41	-1
0	385802	69.51	-1
0	386361	69.61	-1
0	386920	69.71	-1
0	387479	69.81	-1
0	388038	69.91	-1
0	388606	70.01	-1
0	389165	70.11	-1
0	389724	70.21	-1
0	390283	70.31	-1
0	390842	70.41	-1
0	391401	70.51	-1
0	391960	70.61	-1
0	392519	70.71	-1
0	393078	70.81	-1
0	393637	70.91	-1
0	394205	71.01	-1
0	394764	71.11	-1
0	395323	71.21	-1
0	395882	71.31	-1
0	396441	71.41	-1
0	397000	71.51	-1
0	397559	71.61	-1
0	398118	71.71	-1
0	398677	71.81	-1
0	399329	71.91	-1
0	399896	72.01	-1
0	400454	72.11	-1
0	401012	72.21	-1
0	401570	72.31	-1
0	402128	72.41	-1
0	402686	72.51	-1
0	403244	72.61	-1
0	403802	72.71	-1
0	404360	72.81	-1
0	404918	72.91	-1
0	405485	73.01	-1
0	406043	73.11	-1
0	406601	73.21	-1
0	407159	73.31	-1
0	407717	73.41	-1
0	408275	73.51	-1
0	408833	73.61	-1
0	409391	73.71	-1
0	409949	73.81	-1
0	410507	73.91	-1
0	411074	74.01	-1
0	411632	74.11	-1
0	412190	74.21	-1
0	412748	74.31	-1
0	413306	74.41	-1
0	413864	74.51	-1
0	414422	74.61	-1
0	414980	74.71	-1
0	415538	74.81	-1
0	416096	74.91	-1
0	416663	75.01	-1
0	417221	75.11	-1
0	417779	75.21	-1
0	418337	75.31	-1
0	418895	75.41	-1
0	419453	75.51	-1
0	420011	75.61	-1
0	420569	75.71	-1
0	421127	75.81	-1
0	421685	75.91	-1
0	422252	76.01	-1
0	422810	76.11	-1
0	423368	76.21	-1
0	423926	76.31	-1
0	425228	76.41	-1
0	425785	76.51	-1
0	426342	76.61	-1
0	426899	76.71	-1
0	427456	76.81	-1
0	428013	76.91	-1
0	428579	77.01	-1
0	429136	77.11	-1
0	429693	77.21	-1
0	430250	77.31	-1
0	430807	77.41	-1
0	431364	77.51	-1
0	431921	77.61	-1
0	432478	77.71	-1
0	433035	77.81	-1
0	433592	77.91	-1
0	434158	78.01	-1
0	434715	78.11	-1
0	435272	78.21	-1
0	435829	78.31	-1
0	436386	78.41	-1
0	436943	78.51	-1
0	437500	78.61	-1
0	438057	78.71	-1
0	438614	78.81	-1
0	439171	78.91	-1
0	439737	79.01	-1
0	440294	79.11	-1
0	440851	79.21	-1
0	441408	79.31	-1
0	441965	79.41	-1
0	442522	79.51	-1
0	443079	79.61	-1
0	443636	79.71	-1
0	444193	79.81	-1
0	444750	79.91	-1
0	445316	80.01	-1
0	445873	80.11	-1
0	446430	80.21	-1
0	446987	80.31	-1
0	447544	80.41	-1
0	448101	80.51	-1
0	448658	80.61	-1
0	449215	80.71	-1
0	449772	80.81	-1
0	450329	80.91	-1
0	450895	81.01	-1
0	451452	81.11	-1
0	452009	81.21	-1
0	452566	81.31	-1
0	453123	81.41	-1
0	453680	81.51	-1
0	454237	81.61	-1
0	454794	81.71	-1
0	455351	81.81	-1
0	455908	81.91	-1
0	456474	82.01	-1
0	457031	82.11	-1
0	457588	82.21	-1
0	458145	82.31	-1
0	458702	82.41	-1
0	459259	82.51	-1
0	459816	82.61	-1
0	460373	82.71	-1
0	460930	82.81	-1
0	461487	82.91	-1
0	462053	83.01	-1
0	462610	83.11	-1
0	463167	83.21	-1
0	463724	83.31	-1
0	464281	83.41	-1
0	464838	83.51	-1
0	465395	83.61	-1
0	465952	83.71	-1
0	466509	83.81	-1
0	467066	83.91	-1
0	467632	84.01	-1
0	468189	84.11	-1
0	468746	84.21	-1
0	469303	84.31	-1
0	469860	84.41	-1
0	470417	84.51	-1
0	470974	84.61	-1
0	471531	84.71	-1
0	472088	84.81	-1
0	472645	84.91	-1
0	473211	85.01	-1
0	473768	85.11	-1
0	474325	85.21	-1
0	474882	85.31	-1
0	475439	85.41	-1
0	475996	85.51	-1
0	476553	85.61	-1
0	477110	85.71	-1
0	477667	85.81	-1
0	478224	85.91	-1
0	478790	86.01	-1
0	479347	86.11	-1
0	479904	86.21	-1
0	480461	86.31	-1
0	481018	86.41	-1
0	481575	86.51	-1
0	482132	86.61	-1
0	482689	86.71	-1
0	483246	86.81	-1
0	483803	86.91	-1
0	484369	87.01	-1
0	484926	87.11	-1
0	485483	87.21	-1
0	486040	87.31	-1
0	486597	87.41	-1
0	487154	87.51	-1
0	487711	87.61	-1
0	488268	87.71	-1
0	488825	87.81	-1
0	489382	87.91	-1
0	489948	88.01	-1
0	490505	88.11	-1
0	491062	88.21	-1
0	491619	88.31	-1
0	492176	88.41	-1
0	492733	88.51	-1
0	493290	88.61	-1
0	493847	88.71	-1
0	494404	88.81	-1
0	494961	88.91	-1
0	495527	89.01	-1
0	496084	89.11	-1
0	496641	89.21	-1
0	497198	89.31	-1
0	497755	89.41	-1
0	498312	89.51	-1
0	498869	89.61	-1
0	499426	89.71	-1
0	499983	89.81	-1
0	500540	89.91	-1
0	501106	90.01	-1
0	501663	90.11	-1
0	502220	90.21	-1
0	502777	90.31	-1
0	503334	90.41	-1
0	503891	90.51	-1
0	504448	90.61	-1
0	505005	90.71	-1
0	505562	90.81	-1
0	506119	90.91	-1
0	506685	91.01	-1
0	507242	91.11	-1
0	507799	91.21	-1
0	508356	91.31	-1
0	508913	91.41	-1
0	509470	91.51	-1
0	510027	91.61	-1
0	510584	91.71	-1
0	511141	91.81	-1
0	511698	91.91	-1
0	512264	92.01	-1
0	512821	92.11	-1
0	513378	92.21	-1
0	513935	92.31	-1
0	514492	92.41	-1
0	515049	92.51	-1
0	515606	92.61	-1
0	516163	92.71	-1
0	516720	92.81	-1
0	517277	92.91	-1
0	517843	93.01	-1
0	518400	93.11	-1
0	518957	93.21	-1
0	519514	93.31	-1
0	520071	93.41	-1
0	520628	93.51	-1
0	521185	93.61	-1
0	521742	93.71	-1
0	522299	93.81	-1
0	522856	93.91	-1
0	523422	94.01	-1
0	523979	94.11	-1
0	524536	94.21	-1
0	525093	94.31	-1
0	525650	94.41	-1
0	526207	94.51	-1
0	526764	94.61	-1
0	527321	94.71	-1
0	527878	94.81	-1
0	528435	94.91	-1
0	529001	95.01	-1
0	529558	95.11	-1
0	530115	95.21	-1
0	530672	95.31	-1
0	531229	95.41	-1
0	531786	95.51	-1
0	532343	95.61	-1
0	532900	95.71	-1
0	533457	95.81	-1
0	534014	95.91	-1
0	534580	96.01	-1
0	535137	96.11	-1
0	535694	96.21	-1
0	536251	96.31	-1
0	536808	96.41	-1
0	537365	96.51	-1
0	537922	96.61	-1
0	538479	96.71	-1
0	539036	96.81	-1
0	539593	96.91	-1
0	540159	97.01	-1
0	540716	97.11	-1
0	541273	97.21	-1
0	541830	97.31	-1
0	542387	97.41	-1
0	542944	97.51	-1
0	543501	97.61	-1
0	544058	97.71	-1
0	544615	97.81	-1
0	545172	97.91	-1
0	545738	98.01	-1
0	546295	98.11	-1
0	546852	98.21	-1
0	547409	98.31	-1
0	547966	98.41	-1
0	548523	98.51	-1
0	549080	98.61	-1
0	549637	98.71	-1
0	550194	98.81	-1
0	550751	98.91	-1
0	551317	99.01	-1
0	551874	99.11	-1
0	552431	99.21	-1
0	552988	99.31	-1
0	553545	99.41	-1
0	554102	99.51	-1
0	554659	99.61	-1
0	555216	99.71	-1
0	555773	99.81	-1
0	556330	99.91	-1
1	113	1.11	0
1	670	1.21	0
1	1227	1.31	0
1	1784	1.41	0
1	2341	1.51	0
1	2898	1.61	0
1	3455	1.71	0
1	4012	1.81	0
1	4569	1.91	0
1	5135	2.01	0
1	5692	2.11	0
1	6249	2.21	0
1	6806	2.31	0
1	7363	2.41	0
1	7920	2.51	0
1	8477	2.61	0
1	9034	2.71	0
1	9591	2.81	0
1	10148	2.91	0
1	10714	3.01	0
1	11271	3.11	0
1	11828	3.21	0
1	12385	3.31	0
1	12942	3.41	0
1	13499	3.51	0
1	14056	3.61	0
1	14613	3.71	0
1	15170	3.81	0
1	15727	3.91	0
1	16293	4.01	0
1	16850	4.11	0
1	17407	4.21	0
1	17964	4.31	0
1	18521	4.41	0
1	19078	4.51	0
1	19635	4.61	0
1	20192	4.71	0
1	20749	4.81	0
1	21306	4.91	0
1	21872	5.01	0
1	22429	5.11	0
1	22986	5.21	0
1	23543	5.31	0
1	24100	5.41	0
1	24657	5.51	0
1	25214	5.61	0
1	25771	5.71	0
1	26328	5.81	0
1	26885	5.91	0
1	27451	6.01	0
1	28008	6.11	0
1	28565	6.21	0
1	29122	6.31	0
1	29679	6.41	0
1	30236	6.51	0
1	30793	6.61	0
1	31350	6.71	0
1	31907	6.81	0
1	32464	6.91	0
1	33030	7.01	0
1	33587	7.11	0
1	34144	7.21	0
1	34701	7.31	0
1	35258	7.41	0
1	35815	7.51	0
1	36372	7.61	0
1	36929	7.71	0
1	37486	7.81	0
1	38043	7.91	0
1	38609	8.01	0
1	39166	8.11	0
1	39723	8.21	0
1	40280	8.31	0
1	40837	8.41	0
1	41394	8.51	0
1	41951	8.61	0
1	42508	8.71	0
1	43065	8.81	0
1	43622	8.91	0
1	44188	9.01	0
1	44745	9.11	0
1	45302	9.21	0
1	45859	9.31	0
1	46416	9.41	0
1	46973	9.51	0
1	47530	9.61	0
1	48087	9.71	0
1	48644	9.81	0
1	49201	9.91	0
1	49852	10.01	0
1	50416	10.11	0
1	50980	10.21	0
1	51544	10.31	0
1	52108	10.41	0
1	52672	10.51	0
1	53236	10.61	0
1	53800	10.71	0
1	54364	10.81	0
1	54928	10.91	0
1	55501	11.01	0
1	56065	11.11	0
1	56629	11.21	0
1	57193	11.31	0
1	57757	11.41	0
1	58321	11.51	0
1	58885	11.61	0
1	59449	11.71	0
1	60013	11.81	0
1	60577	11.91	0
1	61150	12.01	0
1	61714	12.11	0
1	62278	12.21	0
1	62842	12.31	0
1	63406	12.41	0
1	63970	12.51	0
1	64534	12.61	0
1	65098	12.71	0
1	65662	12.81	0
1	66226	12.91	0
1	66799	13.01	0
1	67363	13.11	0
1	67927	13.21	0
1	68491	13.31	0
1	69055	13.41	0
1	69619	13.51	0
1	70183	13.61	0
1	70747	13.71	0
1	71311	13.81	0
1	71875	13.91	0
1	72448	14.01	0
1	73012	14.11	0
1	73576	14.21	0
1	74140	14.31	0
1	74704	14.41	0
1	75268	14.51	0
1	75832	14.61	0
1	76396	14.71	0
1	76960	14.81	0
1	77524	14.91	0
1	78097	15.01	0
1	78661	15.11	0
1	79225	15.21	0
1	79789	15.31	0
1	80353	15.41	0
1	80917	15.51	0
1	81481	15.61	0
1	82045	15.71	0
1	82609	15.81	0
1	83173	15.91	0
1	83746	16.01	0
1	84310	16.11	0
1	84874	16.21	0
1	85438	16.31	0
1	86002	16.41	0
1	86566	16.51	0
1	87130	16.61	0
1	87694	16.71	0
1	88258	16.81	0
1	88822	16.91	0
1	89395	17.01	0
1	89959	17.11	0
1	90523	17.21	0
1	91087	17.31	0
1	91651	17.41	0
1	92215	17.51	0
1	92779	17.61	0
1	93343	17.71	0
1	93907	17.81	0
1	94471	17.91	0
1	95044	18.01	0
1	95608	18.11	0
1	96172	18.21	0
1	96736	18.31	0
1	97300	18.41	0
1	97864	18.51	0
1	98428	18.61	0
1	98992	18.71	0
1	99556	18.81	0
1	100120	18.91	0
1	100693	19.01	0
1	101257	19.11	0
1	101821	19.21	0
1	102385	19.31	0
1	102949	19.41	0
1	103513	19.51	0
1	104077	19.61	0
1	104641	19.71	0
1	105205	19.81	0
1	105769	19.91	0
1	106342	20.01	0
1	106906	20.11	0
1	107470	20.21	0
1	108034	20.31	0
1	108598	20.41	0
1	109162	20.51	0
1	109726	20.61	0
1	110290	20.71	0
1	110854	20.81	0
1	111418	20.91	0
1	111991	21.01	0
1	112555	21.11	0
1	113119	21.21	0
1	113683	21.31	0
1	114247	21.41	0
1	114811	21.51	0
1	115375	21.61	0
1	115939	21.71	0
1	116503	21.81	0
1	117067	21.91	0
1	117640	22.01	0
1	118204	22.11	0
1	118768	22.21	0
1	119332	22.31	0
1	119896	22.41	0
1	120460	22.51	0
1	121024	22.61	0
1	121588	22.71	0
1	122152	22.81	0
1	122716	22.91	0
1	123289	23.01	0
1	123853	23.11	0
1	124417	23.21	0
1	124981	23.31	0
1	125545	23.41	0
1	126109	23.51	0
1	126673	23.61	0
1	127237	23.71	0
1	127801	23.81	0
1	128365	23.91	0
1	128938	24.01	0
1	129502	24.11	0
1	130066	24.21	0
1	130630	24.31	0
1	131194	24.41	0
1	131758	24.51	0
1	132322	24.61	0
1	132886	24.71	0
1	133450	24.81	0
1	134014	24.91	0
1	134587	25.01	0
1	135151	25.11	0
1	135715	25.21	0
1	136279	25.31	0
1	136843	25.41	0
1	137407	25.51	0
1	137971	25.61	0
1	138535	25.71	0
1	139099	25.81	0
1	139663	25.91	0
1	140236	26.01	0
1	140800	26.11	0
1	141364	26.21	0
1	141928	26.31	0
1	142492	26.41	0
1	143056	26.51	0
1	143620	26.61	0
1	144184	26.71	0
1	144748	26.81	0
1	145312	26.91	0
1	145885	27.01	0
1	146449	27.11	0
1	147013	27.21	0
1	147577	27.31	0
1	148141	27.41	0
1	148705	27.51	0
1	149269	27.61	0
1	149833	27.71	0
1	150397	27.81	0
1	150961	27.91	0
1	151534	28.01	0
1	152098	28.11	0
1	152662	28.21	0
1	153226	28.31	0
1	153790	28.41	0
1	154354	28.51	0
1	154918	28.61	0
1	155482	28.71	0
1	156046	28.81	0
1	156610	28.91	0
1	157183	29.01	0
1	157747	29.11	0
1	158311	29.21	0
1	158875	29.31	0
1	159439	29.41	0
1	160003	29.51	0
1	160567	29.61	0
1	161131	29.71	0
1	161695	29.81	0
1	162259	29.91	0
1	162832	30.01	0
1	163396	30.11	0
1	163960	30.21	0
1	164524	30.31	0
1	165088	30.41	0
1	165652	30.51	0
1	166216	30.61	0
1	166780	30.71	0
1	167344	30.81	0
1	167908	30.91	0
1	168481	31.01	0
1	169045	31.11	0
1	169609	31.21	0
1	170173	31.31	0
1	170737	31.41	0
1	171301	31.51	0
1	171865	31.61	0
1	172429	31.71	0
1	172993	31.81	0
1	173557	31.91	0
1	174130	32.01	0
1	174694	32.11	0
1	175258	32.21	0
1	175822	32.31	0
1	176386	32.41	0
1	176950	32.51	0
1	177514	32.61	0
1	178078	32.71	0
1	178642	32.81	0
1	179206	32.91	0
1	179779	33.01	0
1	180343	33.11	0
1	180907	33.21	0
1	181471	33.31	0
1	182035	33.41	0
1	182599	33.51	0
1	183163	33.61	0
1	183727	33.71	0
1	184291	33.81	0
1	184855	33.91	0
1	185428	34.01	0
1	185992	34.11	0
1	186556	34.21	0
1	187120	34.31	0
1	187684	34.41	0
1	188248	34.51	0
1	188812	34.61	0
1	189376	34.71	0
1	189940	34.81	0
1	190504	34.91	0
1	191077	35.01	0
1	191641	35.11	0
1	192205	35.21	0
1	192769	35.31	0
1	193333	35.41	0
1	193897	35.51	0
1	194461	35.61	0
1	195025	35.71	0
1	195589	35.81	0
1	196153	35.91	0
1	196726	36.01	0
1	197290	36.11	0
1	197854	36.21	0
1	198418	36.31	0
1	198982	36.41	0
1	199546	36.51	0
1	200110	36.61	0
1	200674	36.71	0
1	201238	36.81	0
1	201802	36.91	0
1	202375	37.01	0
1	202939	37.11	0
1	203503	37.21	0
1	204067	37.31	0
1	204631	37.41	0
1	205195	37.51	0
1	205759	37.61	0
1	206323	37.71	0
1	206887	37.81	0
1	207451	37.91	0
1	208024	38.01	0
1	208588	38.11	0
1	209152	38.21	0
1	209716	38.31	0
1	210280	38.41	0
1	210844	38.51	0
1	211408	38.61	0
1	211972	38.71	0
1	212536	38.81	0
1	213100	38.91	0
1	213673	39.01	0
1	214237	39.11	0
1	214801	39.21	0
1	215365	39.31	0
1	215929	39.41	0
1	216493	39.51	0
1	217057	39.61	0
1	217621	39.71	0
1	218185	39.81	0
1	218749	39.91	0
1	219322	40.01	0
1	219886	40.11	0
1	220450	40.21	0
1	221014	40.31	0
1	221578	40.41	0
1	222142	40.51	0
1	222706	40.61	0
1	223270	40.71	0
1	223834	40.81	0
1	224398	40.91	0
1	224971	41.01	0
1	225535	41.11	0
1	226099	41.21	0
1	226663	41.31	0
1	227227	41.41	0
1	227791	41.51	0
1	228355	41.61	0
1	228919	41.71	0
1	229483	41.81	0
1	230047	41.91	0
1	230620	42.01	0
1	231184	42.11	0
1	231748	42.21	0
1	232312	42.31	0
1	232876	42.41	0
1	233440	42.51	0
1	234004	42.61	0
1	234568	42.71	0
1	235132	42.81	0
1	235696	42.91	0
1	236269	43.01	0
1	236833	43.11	0
1	237397	43.21	0
1	237961	43.31	0
1	238525	43.41	0
1	239089	43.51	0
1	239653	43.61	0
1	240217	43.71	0
1	240781	43.81	0
1	241345	43.91	0
1	241918	44.01	0
1	242482	44.11	0
1	243046	44.21	0
1	243610	44.31	0
1	244174	44.41	0
1	244738	44.51	0
1	245302	44.61	0
1	245866	44.71	0
1	246430	44.81	0
1	246994	44.91	0
1	247567	45.01	0
1	248131	45.11	0
1	248695	45.21	0
1	249259	45.31	0
1	249823	45.41	0
1	250387	45.51	0
1	250951	45.61	0
1	251515	45.71	0
1	252172	45.81	0
1	252735	45.91	0
1	253307	46.01	0
1	253870	46.11	0
1	254433	46.21	0
1	254996	46.31	0
1	255559	46.41	0
1	256122	46.51	0
1	256685	46.61	0
1	257248	46.71	0
1	257811	46.81	0
1	258374	46.91	0
1	258946	47.01	0
1	259509	47.11	0
1	260072	47.21	0
1	260635	47.31	0
1	261198	47.41	0
1	261761	47.51	0
1	262324	47.61	0
1	262887	47.71	0
1	263450	47.81	0
1	264013	47.91	0
1	264585	48.01	0
1	265148	48.11	0
1	265711	48.21	0
1	266274	48.31	0
1	266837	48.41	0
1	267400	48.51	0
1	267963	48.61	0
1	268526	48.71	0
1	269089	48.81	0
1	269652	48.91	0
1	270224	49.01	0
1	270787	49.11	0
1	271350	49.21	0
1	271913	49.31	0
1	272476	49.41	0
1	273039	49.51	0
1	273602	49.61	0
1	274165	49.71	0
1	274728	49.81	0
1	275291	49.91	0
1	275863	50.01	0
1	276426	50.11	0
1	276989	50.21	0
1	277552	50.31	0
1	278115	50.41	0
1	278678	50.51	0
1	279241	50.61	0
1	279804	50.71	0
1	280367	50.81	0
1	280930	50.91	0
1	281502	51.01	0
1	282065	51.11	0
1	282628	51.21	0
1	283191	51.31	0
1	283754	51.41	0
1	284317	51.51	0
1	284880	51.61	0
1	285443	51.71	0
1	286006	51.81	0
1	286662	51.91	0
1	287233	52.01	0
1	287795	52.11	0
1	288357	52.21	0
1	288919	52.31	0
1	289481	52.41	0
1	290043	52.51	0
1	290605	52.61	0
1	291167	52.71	0
1	291729	52.81	0
1	292291	52.91	0
1	292862	53.01	0
1	293424	53.11	0
1	293986	53.21	0
1	294548	53.31	0
1	295110	53.41	0
1	295672	53.51	0
1	296234	53.61	0
1	296796	53.71	0
1	297358	53.81	0
1	297920	53.91	0
1	298491	54.01	0
1	299053	54.11	0
1	299615	54.21	0
1	300177	54.31	0
1	300739	54.41	0
1	301301	54.51	0
1	301863	54.61	0
1	302425	54.71	0
1	302987	54.81	0
1	303549	54.91	0
1	304120	55.01	0
1	304682	55.11	0
1	305244	55.21	0
1	305806	55.31	0
1	306368	55.41	0
1	306930	55.51	0
1	307492	55.61	0
1	308054	55.71	0
1	308616	55.81	0
1	309178	55.91	0
1	309749	56.01	0
1	310311	56.11	0
1	310873	56.21	0
1	311435	56.31	0
1	311997	56.41	0
1	312559	56.51	0
1	313121	56.61	0
1	313683	56.71	0
1	314245	56.81	0
1	314807	56.91	0
1	315378	57.01	0
1	315940	57.11	0
1	316502	57.21	0
1	317064	57.31	0
1	317719	57.41	0
1	318280	57.51	0
1	318841	57.61	0
1	319402	57.71	0
1	319963	57.81	0
1	320524	57.91	0
1	321094	58.01	0
1	321655	58.11	0
1	322216	58.21	0
1	322777	58.31	0
1	323338	58.41	0
1	323899	58.51	0
1	324460	58.61	0
1	325021	58.71	0
1	325582	58.81	0
1	326143	58.91	0
1	326713	59.01	0
1	327274	59.11	0
1	327835	59.21	0
1	328396	59.31	0
1	328957	59.41	0
1	329518	59.51	0
1	330079	59.61	0
1	330640	59.71	0
1	331201	59.81	0
1	331762	59.91	0
1	332332	60.01	0
1	332893	60.11	0
1	333454	60.21	0
1	334015	60.31	0
1	334576	60.41	0
1	335137	60.51	0
1	335698	60.61	0
1	336259	60.71	0
1	336820	60.81	0
1	337381	60.91	0
1	337951	61.01	0
1	338512	61.11	0
1	339073	61.21	0
1	339634	61.31	0
1	340195	61.41	0
1	340756	61.51	0
1	341317	61.61	0
1	341878	61.71	0
1	342439	61.81	0
1	343000	61.91	0
1	343570	62.01	0
1	344131	62.11	0
1	344692	62.21	0
1	345253	62.31	0
1	345814	62.41	0
1	346468	62.51	0
1	347028	62.61	0
1	347588	62.71	0
1	348148	62.81	0
1	348708	62.91	0
1	349277	63.01	0
1	349837	63.11	0
1	350397	63.21	0
1	350957	63.31	0
1	351517	63.41	0
1	352077	63.51	0
1	352637	63.61	0
1	353197	63.71	0
1	353757	63.81	0
1	354317	63.91	0
1	354886	64.01	0
1	355446	64.11	0
1	356006	64.21	0
1	356566	64.31	0
1	357126	64.41	0
1	357686	64.51	0
1	358246	64.61	0
1	358806	64.71	0
1	359366	64.81	0
1	359926	64.91	0
1	360495	65.01	0
1	361055	65.11	0
1	361615	65.21	0
1	362175	65.31	0
1	362735	65.41	0
1	363295	65.51	0
1	363855	65.61	0
1	364415	65.71	0
1	364975	65.81	0
1	365535	65.91	0
1	366104	66.01	0
1	366664	66.11	0
1	367224	66.21	0
1	367784	66.31	0
1	368344	66.41	0
1	368904	66.51	0
1	369464	66.61	0
1	370024	66.71	0
1	370584	66.81	0
1	371144	66.91	0
1	371713	67.01	0
1	372273	67.11	0
1	372833	67.21	0
1	373486	67.31	0
1	374045	67.41	0
1	374604	67.51	0
1	375163	67.61	0
1	375722	67.71	0
1	376281	67.81	0
1	376840	67.91	0
1	377408	68.01	0
1	377967	68.11	0
1	378526	68.21	0
1	379085	68.31	0
1	379644	68.41	0
1	380203	68.51	0
1	380762	68.61	0
1	381321	68.71	0
1	381880	68.81	0
1	382439	68.91	0
1	383007	69.01	0
1	383566	69.11	0
1	384125	69.21	0
1	384684	69.31	0
1	385243	69.41	0
1	385802	69.51	0
1	386361	69.61	0
1	386920	69.71	0
1	387479	69.81	0
1	388038	69.91	0
1	388606	70.01	0
1	389165	70.11	0
1	389724	70.21	0
1	390283	70.31	0
1	390842	70.41	0
1	391401	70.51	0
1	391960	70.61	0
1	392519	70.71	0
1	393078	70.81	0
1	393637	70.91	0
1	394205	71.01	0
1	394764	71.11	0
1	395323	71.21	0
1	395882	71.31	0
1	396441	71.41	0
1	397000	71.51	0
1	397559	71.61	0
1	398118	71.71	0
1	398677	71.81	0
1	399329	71.91	0
1	399896	72.01	0
1	400454	72.11	0
1	401012	72.21	0
1	401570	72.31	0
1	402128	72.41	0
1	402686	72.51	0
1	403244	72.61	0
1	403802	72.71	0
1	404360	72.81	0
1	404918	72.91	0
1	405485	73.01	0
1	406043	73.11	0
1	406601	73.21	0
1	407159	73.31	0
1	407717	73.41	0
1	408275	73.51	0
1	408833	73.61	0
1	409391	73.71	0
1	409949	73.81	0
1	410507	73.91	0
1	411074	74.01	0
1	411632	74.11	0
1	412190	74.21	0
1	412748	74.31	0
1	413306	74.41	0
1	413864	74.51	0
1	414422	74.61	0
1	414980	74.71	0
1	415538	74.81	0
1	416096	74.91	0
1	416663	75.01	0
1	417221	75.11	0
1	417779	75.21	0
1	418337	75.31	0
1	418895	75.41	0
1	419453	75.51	0
1	420011	75.61	0
1	420569	75.71	0
1	421127	75.81	0
1	421685	75.91	0
1	422252	76.01	0
1	422810	76.11	0
1	423368	76.21	0
1	423926	76.31	0
1	425228	76.41	0
1	425785	76.51	0
1	426342	76.61	0
1	426899	76.71	0
1	427456	76.81	0
1	428013	76.91	0
1	428579	77.01	0
1	429136	77.11	0
1	429693	77.21	0
1	430250	77.31	0
1	430807	77.41	0
1	431364	77.51	0
1	431921	77.61	0
1	432478	77.71	0
1	433035	77.81	0
1	433592	77.91	0
1	434158	78.01	0
1	434715	78.11	0
1	435272	78.21	0
1	435829	78.31	0
1	436386	78.41	0
1	436943	78.51	0
1	437500	78.61	0
1	438057	78.71	0
1	438614	78.81	0
1	439171	78.91	0
1	439737	79.01	0
1	440294	79.11	0
1	440851	79.21	0
1	441408	79.31	0
1	441965	79.41	0
1	442522	79.51	0
1	443079	79.61	0
1	443636	79.71	0
1	444193	79.81	0
1	444750	79.91	0
1	445316	80.01	0
1	445873	80.11	0
1	446430	80.21	0
1	446987	80.31	0
1	447544	80.41	0
1	448101	80.51	0
1	448658	80.61	0
1	449215	80.71	0
1	449772	80.81	0
1	450329	80.91	0
1	450895	81.01	0
1	451452	81.11	0
1	452009	81.21	0
1	452566	81.31	0
1	453123	81.41	0
1	453680	81.51	0
1	454237	81.61	0
1	454794	81.71	0
1	455351	81.81	0
1	455908	81.91	0
1	456474	82.01	0
1	457031	82.11	0
1	457588	82.21	0
1	458145	82.31	0
1	458702	82.41	0
1	459259	82.51	0
1	459816	82.61	0
1	460373	82.71	0
1	460930	82.81	0
1	461487	82.91	0
1	462053	83.01	0
1	462610	83.11	0
1	463167	83.21	0
1	463724	83.31	0
1	464281	83.41	0
1	464838	83.51	0
1	465395	83.61	0
1	465952	83.71	0
1	466509	83.81	0
1	467066	83.91	0
1	467632	84.01	0
1	468189	84.11	0
1	468746	84.21	0
1	469303	84.31	0
1	469860	84.41	0
1	470417	84.51	0
1	470974	84.61	0
1	471531	84.71	0
1	472088	84.81	0
1	472645	84.91	0
1	473211	85.01	0
1	473768	85.11	0
1	474325	85.21	0
1	474882	85.31	0
1	475439	85.41	0
1	475996	85.51	0
1	476553	85.61	0
1	477110	85.71	0
1	477667	85.81	0
1	478224	85.91	0
1	478790	86.01	0
1	479347	86.11	0
1	479904	86.21	0
1	480461	86.31	0
1	481018	86.41	0
1	481575	86.51	0
1	482132	86.61	0
1	482689	86.71	0
1	483246	86.81	0
1	483803	86.91	0
1	484369	87.01	0
1	484926	87.11	0
1	485483	87.21	0
1	486040	87.31	0
1	486597	87.41	0
1	487154	87.51	0
1	487711	87.61	0
1	488268	87.71	0
1	488825	87.81	0
1	489382	87.91	0
1	489948	88.01	0
1	490505	88.11	0
1	491062	88.21	0
1	491619	88.31	0
1	492176	88.41	0
1	492733	88.51	0
1	493290	88.61	0
1	493847	88.71	0
1	494404	88.81	0
1	494961	88.91	0
1	495527	89.01	0
1	496084	89.11	0
1	496641	89.21	0
1	497198	89.31	0
1	497755	89.41	0
1	498312	89.51	0
1	498869	89.61	0
1	499426	89.71	0
1	499983	89.81	0
1	500540	89.91	0
1	501106	90.01	0
1	501663	90.11	0
1	502220	90.21	0
1	502777	90.31	0
1	503334	90.41	0
1	503891	90.51	0
1	504448	90.61	0
1	505005	90.71	0
1	505562	90.81	0
1	506119	90.91	0
1	506685	91.01	0
1	507242	91.11	0
1	507799	91.21	0
1	508356	91.31	0
1	508913	91.41	0
1	509470	91.51	0
1	510027	91.61	0
1	510584	91.71	0
1	511141	91.81	0
1	511698	91.91	0
1	512264	92.01	0
1	512821	92.11	0
1	513378	92.21	0
1	513935	92.31	0
1	514492	92.41	0
1	515049	92.51	0
1	515606	92.61	0
1	516163	92.71	0
1	516720	92.81	0
1	517277	92.91	0
1	517843	93.01	0
1	518400	93.11	0
1	518957	93.21	0
1	519514	93.31	0
1	520071	93.41	0
1	520628	93.51	0
1	521185	93.61	0
1	521742	93.71	0
1	522299	93.81	0
1	522856	93.91	0
1	523422	94.01	0
1	523979	94.11	0
1	524536	94.21	0
1	525093	94.31	0
1	525650	94.41	0
1	526207	94.51	0
1	526764	94.61	0
1	527321	94.71	0
1	527878	94.81	0
1	528435	94.91	0
1	529001	95.01	0
1	529558	95.11	0
1	530115	95.21	0
1	530672	95.31	0
1	531229	95.41	0
1	531786	95.51	0
1	532343	95.61	0
1	532900	95.71	0
1	533457	95.81	0
1	534014	95.91	0
1	534580	96.01	0
1	535137	96.11	0
1	535694	96.21	0
1	536251	96.31	0
1	536808	96.41	0
1	537365	96.51	0
1	537922	96.61	0
1	538479	96.71	0
1	539036	96.81	0
1	539593	96.91	0
1	540159	97.01	0
1	540716	97.11	0
1	541273	97.21	0
1	541830	97.31	0
1	542387	97.41	0
1	542944	97.51	0
1	543501	97.61	0
1	544058	97.71	0
1	544615	97.81	0
1	545172	97.91	0
1	545738	98.01	0
1	546295	98.11	0
1	546852	98.21	0
1	547409	98.31	0
1	547966	98.41	0
1	548523	98.51	0
1	549080	98.61	0
1	549637	98.71	0
1	550194	98.81	0
1	550751	98.91	0
1	551317	99.01	0
1	551874	99.11	0
1	552431	99.21	0
1	552988	99.31	0
1	553545	99.41	0
1	554102	99.51	0
1	554659	99.61	0
1	555216	99.71	0
1	555773	99.81	0
1	556330	99.91	0
2	113	1.11	0
2	670	1.21	0
2	1227	1.31	0
2	1784	1.41	0
2	2341	1.51	0
2	2898	1.61	0
2	3455	1.71	0
2	4012	1.81	0
2	4569	1.91	0
2	5135	2.01	0
2	5692	2.11	0
2	6249	2.21	0
2	6806	2.31	0
2	7363	2.41	0
2	7920	2.51	0
2	8477	2.61	0
2	9034	2.71	0
2	9591	2.81	0
2	10148	2.91	0
2	10714	3.01	0
2	11271	3.11	0
2	11828	3.21	0
2	12385	3.31	0
2	12942	3.41	0
2	13499	3.51	0
2	14056	3.61	0
2	14613	3.71	0
2	15170	3.81	0
2	15727	3.91	0
2	16293	4.01	0
2	16850	4.11	0
2	17407	4.21	0
2	17964	4.31	0
2	18521	4.41	0
2	19078	4.51	0
2	19635	4.61	0
2	20192	4.71	0
2	20749	4.81	0
2	21306	4.91	0
2	21872	5.01	0
2	22429	5.11	0
2	22986	5.21	0
2	23543	5.31	0
2	24100	5.41	0
2	24657	5.51	0
2	25214	5.61	0
2	25771	5.71	0
2	26328	5.81	0
2	26885	5.91	0
2	27451	6.01	0
2	28008	6.11	0
2	28565	6.21	0
2	29122	6.31	0
2	29679	6.41	0
2	30236	6.51	0
2	30793	6.61	0
2	31350	6.71	0
2	31907	6.81	0
2	32464	6.91	0
2	33030	7.01	0
2	33587	7.11	0
2	34144	7.21	0
2	34701	7.31	0
2	35258	7.41	0
2	35815	7.51	0
2	36372	7.61	0
2	36929	7.71	0
2	37486	7.81	0
2	38043	7.91	0
2	38609	8.01	0
2	39166	8.11	0
2	39723	8.21	0
2	40280	8.31	0
2	40837	8.41	0
2	41394	8.51	0
2	41951	8.61	0
2	42508	8.71	0
2	43065	8.81	0
2	43622	8.91	0
2	44188	9.01	0
2	44745	9.11	0
2	45302	9.21	0
2	45859	9.31	0
2	46416	9.41	0
2	46973	9.51	0
2	47530	9.61	0
2	48087	9.71	0
2	48644	9.81	0
2	49201	9.91	0
2	49852	10.01	0
2	50416	10.11	0
2	50980	10.21	0
2	51544	10.31	0
2	52108	10.41	0
2	52672	10.51	0
2	53236	10.61	0
2	53800	10.71	0
2	54364	10.81	0
2	54928	10.91	0
2	55501	11.01	0
2	56065	11.11	0
2	56629	11.21	0
2	57193	11.31	0
2	57757	11.41	0
2	58321	11.51	0
2	58885	11.61	0
2	59449	11.71	0
2	60013	11.81	0
2	60577	11.91	0
2	61150	12.01	0
2	61714	12.11	0
2	62278	12.21	0
2	62842	12.31	0
2	63406	12.41	0
2	63970	12.51	0
2	64534	12.61	0
2	65098	12.71	0
2	65662	12.81	0
2	66226	12.91	0
2	66799	13.01	0
2	67363	13.11	0
2	67927	13.21	0
2	68491	13.31	0
2	69055	13.41	0
2	69619	13.51	0
2	70183	13.61	0
2	70747	13.71	0
2	71311	13.81	0
2	71875	13.91	0
2	72448	14.01	0
2	73012	14.11	0
2	73576	14.21	0
2	74140	14.31	0
2	74704	14.41	0
2	75268	14.51	0
2	75832	14.61	0
2	76396	14.71	0
2	76960	14.81	0
2	77524	14.91	0
2	78097	15.01	0
2	78661	15.11	0
2	79225	15.21	0
2	79789	15.31	0
2	80353	15.41	0
2	80917	15.51	0
2	81481	15.61	0
2	82045	15.71	0
2	82609	15.81	0
2	83173	15.91	0
2	83746	16.01	0
2	84310	16.11	0
2	84874	16.21	0
2	85438	16.31	0
2	86002	16.41	0
2	86566	16.51	0
2	87130	16.61	0
2	87694	16.71	0
2	88258	16.81	0
2	88822	16.91	0
2	89395	17.01	0
2	89959	17.11	0
2	90523	17.21	0
2	91087	17.31	0
2	91651	17.41	0
2	92215	17.51	0
2	92779	17.61	0
2	93343	17.71	0
2	93907	17.81	0
2	94471	17.91	0
2	95044	18.01	0
2	95608	18.11	0
2	96172	18.21	0
2	96736	18.31	0
2	97300	18.41	0
2	97864	18.51	0
2	98428	18.61	0
2	98992	18.71	0
2	99556	18.81	0
2	100120	18.91	0
2	100693	19.01	0
2	101257	19.11	0
2	101821	19.21	0
2	102385	19.31	0
2	102949	19.41	0
2	103513	19.51	0
2	104077	19.61	0
2	104641	19.71	0
2	105205	19.81	0
2	105769	19.91	0
2	106342	20.01	0
2	106906	20.11	0
2	107470	20.21	0
2	108034	20.31	0
2	108598	20.41	0
2	109162	20.51	0
2	109726	20.61	0
2	110290	20.71	0
2	110854	20.81	0
2	111418	20.91	0
2	111991	21.01	0
2	112555	21.11	0
2	113119	21.21	0
2	113683	21.31	0
2	114247	21.41	0
2	114811	21.51	0
2	115375	21.61	0
2	115939	21.71	0
2	116503	21.81	0
2	117067	21.91	0
2	117640	22.01	0
2	118204	22.11	0
2	118768	22.21	0
2	119332	22.31	0
2	119896	22.41	0
2	120460	22.51	0
2	121024	22.61	0
2	121588	22.71	0
2	122152	22.81	0
2	122716	22.91	0
2	123289	23.01	0
2	123853	23.11	0
2	124417	23.21	0
2	124981	23.31	0
2	125545	23.41	0
2	126109	23.51	0
2	126673	23.61	0
2	127237	23.71	0
2	127801	23.81	0
2	128365	23.91	0
2	128938	24.01	0
2	129502	24.11	0
2	130066	24.21	0
2	130630	24.31	0
2	131194	24.41	0
2	131758	24.51	0
2	132322	24.61	0
2	132886	24.71	0
2	133450	24.81	0
2	134014	24.91	0
2	134587	25.01	0
2	135151	25.11	0
2	135715	25.21	0
2	136279	25.31	0
2	136843	25.41	0
2	137407	25.51	0
2	137971	25.61	0
2	138535	25.71	0
2	139099	25.81	0
2	139663	25.91	0
2	140236	26.01	0
2	140800	26.11	0
2	141364	26.21	0
2	141928	26.31	0
2	142492	26.41	0
2	143056	26.51	0
2	143620	26.61	0
2	144184	26.71	0
2	144748	26.81	0
2	145312	26.91	0
2	145885	27.01	0
2	146449	27.11	0
2	147013	27.21	0
2	147577	27.31	0
2	148141	27.41	0
2	148705	27.51	0
2	149269	27.61	0
2	149833	27.71	0
2	150397	27.81	0
2	150961	27.91	0
2	151534	28.01	0
2	152098	28.11	0
2	152662	28.21	0
2	153226	28.31	0
2	153790	28.41	0
2	154354	28.51	0
2	154918	28.61	0
2	155482	28.71	0
2	156046	28.81	0
2	156610	28.91	0
2	157183	29.01	0
2	157747	29.11	0
2	158311	29.21	0
2	158875	29.31	0
2	159439	29.41	0
2	160003	29.51	0
2	160567	29.61	0
2	161131	29.71	0
2	161695	29.81	0
2	162259	29.91	0
2	162832	30.01	0
2	163396	30.11	0
2	163960	30.21	0
2	164524	30.31	0
2	165088	30.41	0
2	165652	30.51	0
2	166216	30.61	0
2	166780	30.71	0
2	167344	30.81	0
2	167908	30.91	0
2	168481	31.01	0
2	169045	31.11	0
2	169609	31.21	0
2	170173	31.31	0
2	170737	31.41	0
2	171301	31.51	0
2	171865	31.61	0
2	172429	31.71	0
2	172993	31.81	0
2	173557	31.91	0
2	174130	32.01	0
2	174694	32.11	0
2	175258	32.21	0
2	175822	32.31	0
2	176386	32.41	0
2	176950	32.51	0
2	177514	32.61	0
2	178078	32.71	0
2	178642	32.81	0
2	179206	32.91	0
2	179779	33.01	0
2	180343	33.11	0
2	180907	33.21	0
2	181471	33.31	0
2	182035	33.41	0
2	182599	33.51	0
2	183163	33.61	0
2	183727	33.71	0
2	184291	33.81	0
2	184855	33.91	0
2	185428	34.01	0
2	185992	34.11	0
2	186556	34.21	0
2	187120	34.31	0
2	187684	34.41	0
2	188248	34.51	0
2	188812	34.61	0
2	189376	34.71	0
2	189940	34.81	0
2	190504	34.91	0
2	191077	35.01	0
2	191641	35.11	0
2	192205	35.21	0
2	192769	35.31	0
2	193333	35.41	0
2	193897	35.51	0
2	194461	35.61	0
2	195025	35.71	0
2	195589	35.81	0
2	196153	35.91	0
2	196726	36.01	0
2	197290	36.11	0
2	197854	36.21	0
2	198418	36.31	0
2	198982	36.41	0
2	199546	36.51	0
2	200110	36.61	0
2	200674	36.71	0
2	201238	36.81	0
2	201802	36.91	0
2	202375	37.01	0
2	202939	37.11	0
2	203503	37.21	0
2	204067	37.31	0
2	204631	37.41	0
2	205195	37.51	0
2	205759	37.61	0
2	206323	37.71	0
2	206887	37.81	0
2	207451	37.91	0
2	208024	38.01	0
2	208588	38.11	0
2	209152	38.21	0
2	209716	38.31	0
2	210280	38.41	0
2	210844	38.51	0
2	211408	38.61	0
2	211972	38.71	0
2	212536	38.81	0
2	213100	38.91	0
2	213673	39.01	0
2	214237	39.11	0
2	214801	39.21	0
2	215365	39.31	0
2	215929	39.41	0
2	216493	39.51	0
2	217057	39.61	0
2	217621	39.71	0
2	218185	39.81	0
2	218749	39.91	0
2	219322	40.01	0
2	219886	40.11	0
2	220450	40.21	0
2	221014	40.31	0
2	221578	40.41	0
2	222142	40.51	0
2	222706	40.61	0
2	223270	40.71	0
2	223834	40.81	0
2	224398	40.91	0
2	224971	41.01	0
2	225535	41.11	0
2	226099	41.21	0
2	226663	41.31	0
2	227227	41.41	0
2	227791	41.51	0
2	228355	41.61	0
2	228919	41.71	0
2	229483	41.81	0
2	230047	41.91	0
2	230620	42.01	0
2	231184	42.11	0
2	231748	42.21	0
2	232312	42.31	0
2	232876	42.41	0
2	233440	42.51	0
2	234004	42.61	0
2	234568	42.71	0
2	235132	42.81	0
2	235696	42.91	0
2	236269	43.01	0
2	236833	43.11	0
2	237397	43.21	0
2	237961	43.31	0
2	238525	43.41	0
2	239089	43.51	0
2	239653	43.61	0
2	240217	43.71	0
2	240781	43.81	0
2	241345	43.91	0
2	241918	44.01	0
2	242482	44.11	0
2	243046	44.21	0
2	243610	44.31	0
2	244174	44.41	0
2	244738	44.51	0
2	245302	44.61	0
2	245866	44.71	0
2	246430	44.81	0
2	246994	44.91	0
2	247567	45.01	0
2	248131	45.11	0
2	248695	45.21	0
2	249259	45.31	0
2	249823	45.41	0
2	250387	45.51	0
2	250951	45.61	0
2	251515	45.71	0
2	252172	45.81	0
2	252735	45.91	0
2	253307	46.01	0
2	253870	46.11	0
2	254433	46.21	0
2	254996	46.31	0
2	255559	46.41	0
2	256122	46.51	0
2	256685	46.61	0
2	257248	46.71	0
2	257811	46.81	0
2	258374	46.91	0
2	258946	47.01	0
2	259509	47.11	0
2	260072	47.21	0
2	260635	47.31	0
2	261198	47.41	0
2	261761	47.51	0
2	262324	47.61	0
2	262887	47.71	0
2	263450	47.81	0
2	264013	47.91	0
2	264585	48.01	0
2	265148	48.11	0
2	265711	48.21	0
2	266274	48.31	0
2	266837	48.41	0
2	267400	48.51	0
2	267963	48.61	0
2	268526	48.71	0
2	269089	48.81	0
2	269652	48.91	0
2	270224	49.01	0
2	270787	49.11	0
2	271350	49.21	0
2	271913	49.31	0
2	272476	49.41	0
2	273039	49.51	0
2	273602	49.61	0
2	274165	49.71	0
2	274728	49.81	0
2	275291	49.91	0
2	275863	50.01	0
2	276426	50.11	0
2	276989	50.21	0
2	277552	50.31	0
2	278115	50.41	0
2	278678	50.51	0
2	279241	50.61	0
2	279804	50.71	0
2	280367	50.81	0
2	280930	50.91	0
2	281502	51.01	0
2	282065	51.11	0
2	282628	51.21	0
2	283191	51.31	0
2	283754	51.41	0
2	284317	51.51	0
2	284880	51.61	0
2	285443	51.71	0
2	286006	51.81	0
2	286662	51.91	0
2	287233	52.01	0
2	287795	52.11	0
2	288357	52.21	0
2	288919	52.31	0
2	289481	52.41	0
2	290043	52.51	0
2	290605	52.61	0
2	291167	52.71	0
2	291729	52.81	0
2	292291	52.91	0
2	292862	53.01	0
2	293424	53.11	0
2	293986	53.21	0
2	294548	53.31	0
2	295110	53.41	0
2	295672	53.51	0
2	296234	53.61	0
2	296796	53.71	0
2	297358	53.81	0
2	297920	53.91	0
2	298491	54.01	0
2	299053	54.11	0
2	299615	54.21	0
2	300177	54.31	0
2	300739	54.41	0
2	301301	54.51	0
2	301863	54.61	0
2	302425	54.71	0
2	302987	54.81	0
2	303549	54.91	0
2	304120	55.01	0
2	304682	55.11	0
2	305244	55.21	0
2	305806	55.31	0
2	306368	55.41	0
2	306930	55.51	0
2	307492	55.61	0
2	308054	55.71	0
2	308616	55.81	0
2	309178	55.91	0
2	309749	56.01	0
2	310311	56.11	0
2	310873	56.21	0
2	311435	56.31	0
2	311997	56.41	0
2	312559	56.51	0
2	313121	56.61	0
2	313683	56.71	0
2	314245	56.81	0
2	314807	56.91	0
2	315378	57.01	0
2	315940	57.11	0
2	316502	57.21	0
2	317064	57.31	0
2	317719	57.41	0
2	318280	57.51	0
2	318841	57.61	0
2	319402	57.71	0
2	319963	57.81	0
2	320524	57.91	0
2	321094	58.01	0
2	321655	58.11	0
2	322216	58.21	0
2	322777	58.31	0
2	323338	58.41	0
2	323899	58.51	0
2	324460	58.61	0
2	325021	58.71	0
2	325582	58.81	0
2	326143	58.91	0
2	326713	59.01	0
2	327274	59.11	0
2	327835	59.21	0
2	328396	59.31	0
2	328957	59.41	0
2	329518	59.51	0
2	330079	59.61	0
2	330640	59.71	0
2	331201	59.81	0
2	331762	59.91	0
2	332332	60.01	0
2	332893	60.11	0
2	333454	60.21	0
2	334015	60.31	0
2	334576	60.41	0
2	335137	60.51	0
2	335698	60.61	0
2	336259	60.71	0
2	336820	60.81	0
2	337381	60.91	0
2	337951	61.01	0
2	338512	61.11	0
2	339073	61.21	0
2	339634	61.31	0
2	340195	61.41	0
2	340756	61.51	0
2	341317	61.61	0
2	341878	61.71	0
2	342439	61.81	0
2	343000	61.91	0
2	343570	62.01	0
2	344131	62.11	0
2	344692	62.21	0
2	345253	62.31	0
2	345814	62.41	0
2	346468	62.51	0
2	347028	62.61	0
2	347588	62.71	0
2	348148	62.81	0
2	348708	62.91	0
2	349277	63.01	0
2	349837	63.11	0
2	350397	63.21	0
2	350957	63.31	0
2	351517	63.41	0
2	352077	63.51	0
2	352637	63.61	0
2	353197	63.71	0
2	353757	63.81	0
2	354317	63.91	0
2	354886	64.01	0
2	355446	64.11	0
2	356006	64.21	0
2	356566	64.31	0
2	357126	64.41	0
2	357686	64.51	0
2	358246	64.61	0
2	358806	64.71	0
2	359366	64.81	0
2	359926	64.91	0
2	360495	65.01	0
2	361055	65.11	0
2	361615	65.21	0
2	362175	65.31	0
2	362735	65.41	0
2	363295	65.51	0
2	363855	65.61	0
2	364415	65.71	0
2	364975	65.81	0
2	365535	65.91	0
2	366104	66.01	0
2	366664	66.11	0
2	367224	66.21	0
2	367784	66.31	0
2	368344	66.41	0
2	368904	66.51	0
2	369464	66.61	0
2	370024	66.71	0
2	370584	66.81	0
2	371144	66.91	0
2	371713	67.01	0
2	372273	67.11	0
2	372833	67.21	0
2	373486	67.31	0
2	374045	67.41	0
2	374604	67.51	0
2	375163	67.61	0
2	375722	67.71	0
2	376281	67.81	0
2	376840	67.91	0
2	377408	68.01	0
2	377967	68.11	0
2	378526	68.21	0
2	379085	68.31	0
2	379644	68.41	0
2	380203	68.51	0
2	380762	68.61	0
2	381321	68.71	0
2	381880	68.81	0
2	382439	68.91	0
2	383007	69.01	0
2	383566	69.11	0
2	384125	69.21	0
2	384684	69.31	0
2	385243	69.41	0
2	385802	69.51	0
2	386361	69.61	0
2	386920	69.71	0
2	387479	69.81	0
2	388038	69.91	0
2	388606	70.01	0
2	389165	70.11	0
2	389724	70.21	0
2	390283	70.31	0
2	390842	70.41	0
2	391401	70.51	0
2	391960	70.61	0
2	392519	70.71	0
2	393078	70.81	0
2	393637	70.91	0
2	394205	71.01	0
2	394764	71.11	0
2	395323	71.21	0
2	395882	71.31	0
2	396441	71.41	0
2	397000	71.51	0
2	397559	71.61	0
2	398118	71.71	0
2	398677	71.81	0
2	399329	71.91	0
2	399896	72.01	0
2	400454	72.11	0
2	401012	72.21	0
2	401570	72.31	0
2	402128	72.41	0
2	402686	72.51	0
2	403244	72.61	0
2	403802	72.71	0
2	404360	72.81	0
2	404918	72.91	0
2	405485	73.01	0
2	406043	73.11	0
2	406601	73.21	0
2	407159	73.31	0
2	407717	73.41	0
2	408275	73.51	0
2	408833	73.61	0
2	409391	73.71	0
2	409949	73.81	0
2	410507	73.91	0
2	411074	74.01	0
2	411632	74.11	0
2	412190	74.21	0
2	412748	74.31	0
2	413306	74.41	0
2	413864	74.51	0
2	414422	74.61	0
2	414980	74.71	0
2	415538	74.81	0
2	416096	74.91	0
2	416663	75.01	0
2	417221	75.11	0
2	417779	75.21	0
2	418337	75.31	0
2	418895	75.41	0
2	419453	75.51	0
2	420011	75.61	0
2	420569	75.71	0
2	421127	75.81	0
2	421685	75.91	0
2	422252	76.01	0
2	422810	76.11	0
2	423368	76.21	0
2	423926	76.31	0
2	425228	76.41	0
2	425785	76.51	0
2	426342	76.61	0
2	426899	76.71	0
2	427456	76.81	0
2	428013	76.91	0
2	428579	77.01	0
2	429136	77.11	0
2	429693	77.21	0
2	430250	77.31	0
2	430807	77.41	0
2	431364	77.51	0
2	431921	77.61	0
2	432478	77.71	0
2	433035	77.81	0
2	433592	77.91	0
2	434158	78.01	0
2	434715	78.11	0
2	435272	78.21	0
2	435829	78.31	0
2	436386	78.41	0
2	436943	78.51	0
2	437500	78.61	0
2	438057	78.71	0
2	438614	78.81	0
2	439171	78.91	0
2	439737	79.01	0
2	440294	79.11	0
2	440851	79.21	0
2	441408	79.31	0
2	441965	79.41	0
2	442522	79.51	0
2	443079	79.61	0
2	443636	79.71	0
2	444193	79.81	0
2	444750	79.91	0
2	445316	80.01	0
2	445873	80.11	0
2	446430	80.21	0
2	446987	80.31	0
2	447544	80.41	0
2	448101	80.51	0
2	448658	80.61	0
2	449215	80.71	0
2	449772	80.81	0
2	450329	80.91	0
2	450895	81.01	0
2	451452	81.11	0
2	452009	81.21	0
2	452566	81.31	0
2	453123	81.41	0
2	453680	81.51	0
2	454237	81.61	0
2	454794	81.71	0
2	455351	81.81	0
2	455908	81.91	0
2	456474	82.01	0
2	457031	82.11	0
2	457588	82.21	0
2	458145	82.31	0
2	458702	82.41	0
2	459259	82.51	0
2	459816	82.61	0
2	460373	82.71	0
2	460930	82.81	0
2	461487	82.91	0
2	462053	83.01	0
2	462610	83.11	0
2	463167	83.21	0
2	463724	83.31	0
2	464281	83.41	0
2	464838	83.51	0
2	465395	83.61	0
2	465952	83.71	0
2	466509	83.81	0
2	467066	83.91	0
2	467632	84.01	0
2	468189	84.11	0
2	468746	84.21	0
2	469303	84.31	0
2	469860	84.41	0
2	470417	84.51	0
2	470974	84.61	0
2	471531	84.71	0
2	472088	84.81	0
2	472645	84.91	0
2	473211	85.01	0
2	473768	85.11	0
2	474325	85.21	0
2	474882	85.31	0
2	475439	85.41	0
2	475996	85.51	0
2	476553	85.61	0
2	477110	85.71	0
2	477667	85.81	0
2	478224	85.91	0
2	478790	86.01	0
2	479347	86.11	0
2	479904	86.21	0
2	480461	86.31	0
2	481018	86.41	0
2	481575	86.51	0
2	482132	86.61	0
2	482689	86.71	0
2	483246	86.81	0
2	483803	86.91	0
2	484369	87.01	0
2	484926	87.11	0
2	485483	87.21	0
2	486040	87.31	0
2	486597	87.41	0
2	487154	87.51	0
2	487711	87.61	0
2	488268	87.71	0
2	488825	87.81	0
2	489382	87.91	0
2	489948	88.01	0
2	490505	88.11	0
2	491062	88.21	0
2	491619	88.31	0
2	492176	88.41	0
2	492733	88.51	0
2	493290	88.61	0
2	493847	88.71	0
2	494404	88.81	0
2	494961	88.91	0
2	495527	89.01	0
2	496084	89.11	0
2	496641	89.21	0
2	497198	89.31	0
2	497755	89.41	0
2	498312	89.51	0
2	498869	89.61	0
2	499426	89.71	0
2	499983	89.81	0
2	500540	89.91	0
2	501106	90.01	0
2	501663	90.11	0
2	502220	90.21	0
2	502777	90.31	0
2	503334	90.41	0
2	503891	90.51	0
2	504448	90.61	0
2	505005	90.71	0
2	505562	90.81	0
2	506119	90.91	0
2	506685	91.01	0
2	507242	91.11	0
2	507799	91.21	0
2	508356	91.31	0
2	508913	91.41	0
2	509470	91.51	0
2	510027	91.61	0
2	510584	91.71	0
2	511141	91.81	0
2	511698	91.91	0
2	512264	92.01	0
2	512821	92.11	0
2	513378	92.21	0
2	513935	92.31	0
2	514492	92.41	0
2	515049	92.51	0
2	515606	92.61	0
2	516163	92.71	0
2	516720	92.81	0
2	517277	92.91	0
2	517843	93.01	0
2	518400	93.11	0
2	518957	93.21	0
2	519514	93.31	0
2	520071	93.41	0
2	520628	93.51	0
2	521185	93.61	0
2	521742	93.71	0
2	522299	93.81	0
2	522856	93.91	0
2	523422	94.01	0
2	523979	94.11	0
2	524536	94.21	0
2	525093	94.31	0
2	525650	94.41	0
2	526207	94.51	0
2	526764	94.61	0
2	527321	94.71	0
2	527878	94.81	0
2	528435	94.91	0
2	529001	95.01	0
2	529558	95.11	0
2	530115	95.21	0
2	530672	95.31	0
2	531229	95.41	0
2	531786	95.51	0
2	532343	95.61	0
2	532900	95.71	0
2	533457	95.81	0
2	534014	95.91	0
2	534580	96.01	0
2	535137	96.11	0
2	535694	96.21	0
2	536251	96.31	0
2	536808	96.41	0
2	537365	96.51	0
2	537922	96.61	0
2	538479	96.71	0
2	539036	96.81	0
2	539593	96.91	0
2	540159	97.01	0
2	540716	97.11	0
2	541273	97.21	0
2	541830	97.31	0
2	542387	97.41	0
2	542944	97.51	0
2	543501	97.61	0
2	544058	97.71	0
2	544615	97.81	0
2	545172	97.91	0
2	545738	98.01	0
2	546295	98.11	0
2	546852	98.21	0
2	547409	98.31	0
2	547966	98.41	0
2	548523	98.51	0
2	549080	98.61	0
2	549637	98.71	0
2	550194	98.81	0
2	550751	98.91	0
2	551317	99.01	0
2	551874	99.11	0
2	552431	99.21	0
2	552988	99.31	0
2	553545	99.41	0
2	554102	99.51	0
2	554659	99.61	0
2	555216	99.71	0
2	555773	99.81	0
2	556330	99.91	0
3	113	1.11	0.000179096
3	670	1.21	0.000340852
3	1227	1.31	0.000467435
3	1784	1.41	0.000562893
3	2341	1.51	0.000631106
3	2898	1.61	0.000675745
3	3455	1.71	0.000700245
3	4012	1.81	0.000707784
3	4569	1.91	0.000701273
3	5135	2.01	0.000683354
3	5692	2.11	0.000656398
3	6249	2.21	0.000622512
3	6806	2.31	0.000583548
3	7363	2.41	0.000541117
3	7920	2.51	0.000496604
3	8477	2.61	0.000451181
3	9034	2.71	0.000405825
3	9591	2.81	0.00036134
3	10148	2.91	0.000318365
3	10714	3.01	0.0002774
3	11271	3.11	0.00023882
3	11828	3.21	0.000202887
3	12385	3.31	0.00016977
3	12942	3.41	0.000139558
3	13499	3.51	0.000112271
3	14056	3.61	8.78717e-05
3	14613	3.71	6.628e-05
3	15170	3.81	4.73785e-05
3	15727	3.91	3.1023e-05
3	16293	4.01	1.70493e-05
3	16850	4.11	5.28023e-06
3	17407	4.21	-4.46922e-06
3	17964	4.31	-1.2387e-05
3	18521	4.41	-1.86602e-05
3	19078	4.51	-2.34717e-05
3	19635	4.61	-2.69978e-05
3	20192	4.71	-2.94062e-05
3	20749	4.81	-3.08545e-05
3	21306	4.91	-3.14892e-05
3	21872	5.01	-3.14451e-05
3	22429	5.11	-3.0845e-05
3	22986	5.21	-2.97994e-05
3	23543	5.31	-2.84072e-05
3	24100	5.41	-2.67556e-05
3	24657	5.51	-2.49208e-05
3	25214	5.61	-2.29687e-05
3	25771	5.71	-2.09553e-05
3	26328	5.81	-1.89277e-05
3	26885	5.91	-1.6925e-05
3	27451	6.01	-1.49784e-05
3	28008	6.11	-1.31129e-05
3	28565	6.21	-1.13474e-05
3	29122	6.31	-9.69553e-06
3	29679	6.41	-8.16651e-06
3	30236	6.51	-6.76571e-06
3	30793	6.61	-5.49522e-06
3	31350	6.71	-4.35441e-06
3	31907	6.81	-3.34045e-06
3	32464	6.91	-2.44874e-06
3	33030	7.01	-1.6733e-06
3	33587	7.11	-1.00716e-06
3	34144	7.21	-4.42628e-07
3	34701	7.31	2.84224e-08
3	35258	7.41	4.14339e-07
3	35815	7.51	7.23492e-07
3	36372	7.61	9.6413e-07
3	36929	7.71	1.14424e-06
3	37486	7.81	1.27148e-06
3	38043	7.91	1.35305e-06
3	38609	8.01	1.3957e-06
3	39166	8.11	1.40565e-06
3	39723	8.21	1.3886e-06
3	40280	8.31	1.34971e-06
3	40837	8.41	1.2936e-06
3	41394	8.51	1.22437e-06
3	41951	8.61	1.14561e-06
3	42508	8.71	1.06046e-06
3	43065	8.81	9.71582e-07
3	43622	8.91	8.81246e-07
3	44188	9.01	7.91334e-07
3	44745	9.11	7.03381e-07
3	45302	9.21	6.18613e-07
3	45859	9.31	5.37979e-07
3	46416	9.41	4.62183e-07
3	46973	9.51	3.91714e-07
3	47530	9.61	3.26878e-07
3	48087	9.71	2.67827e-07
3	48644	9.81	2.14581e-07
3	49201	9.91	1.67052e-07
3	49852	10.01	1.25066e-07
3	50416	10.11	8.83794e-08
3	50980	10.21	5.66978e-08
3	51544	10.31	2.96922e-08
3	52108	10.41	7.00453e-09
3	52672	10.51	-1.17325e-08
3	53236	10.61	-2.68933e-08
3	53800	10.71	-3.88482e-08
3	54364	10.81	-4.79581e-08
3	54928	10.91	-5.45704e-08
3	55501	11.01	-5.90177e-08
3	56065	11.11	-6.16069e-08
3	56629	11.21	-6.26265e-08
3	57193	11.31	-6.23395e-08
3	57757	11.41	-6.09859e-08
3	58321	11.51	-5.87811e-08
3	58885	11.61	-5.59183e-08
3	59449	11.71	-5.25674e-08
3	60013	11.81	-4.88761e-08
3	60577	11.91	-4.4971e-08
3	61150	12.01	-4.09599e-08
3	61714	12.11	-3.69354e-08
3	62278	12.21	-3.29713e-08
3	62842	12.31	-2.9128e-08
3	63406	12.41	-2.54531e-08
3	63970	12.51	-2.19821e-08
3	64534	12.61	-1.87399e-08
3	65098	12.71	-1.57428e-08
3	65662	12.81	-1.30029e-08
3	66226	12.91	-1.05217e-08
3	66799	13.01	-8.29772e-09
3	67363	13.11	-6.32454e-09
3	67927	13.21	-4.59224e-09
3	68491	13.31	-3.08802e-09
3	69055	13.41	-1.79838e-09
3	69619	13.51	-7.08411e-10
3	70183	13.61	1.98241e-10
3	70747	13.71	9.37916e-10
3	71311	13.81	1.52767e-09
3	71875	13.91	1.98384e-09
3	72448	14.01	2.32276e-09
3	73012	14.11	2.55937e-09
3	73576	14.21	2.70788e-09
3	74140	14.31	2.78249e-09
3	74704	14.41	2.79243e-09
3	75268	14.51	2.7498e-09
3	75832	14.61	2.66525e-09
3	76396	14.71	2.54872e-09
3	76960	14.81	2.40803e-09
3	77524	14.91	2.24887e-09
3	78097	15.01	2.07763e-09
3	78661	15.11	1.89999e-09
3	79225	15.21	1.72236e-09
3	79789	15.31	1.54472e-09
3	80353	15.41	1.37064e-09
3	80917	15.51	1.20295e-09
3	81481	15.61	1.04379e-09
3	82045	15.71	8.94573e-10
3	82609	15.81	7.56017e-10
3	83173	15.91	6.29541e-10
3	83746	16.01	5.13012e-10
3	84310	16.11	4.09273e-10
3	84874	16.21	3.16902e-10
3	85438	16.31	2.3519e-10
3	86002	16.41	1.63425e-10
3	86566	16.51	1.02318e-10
3	87130	16.61	4.9738e-11
3	87694	16.71	5.68434e-12
3	88258	16.81	-3.05533e-11
3	88822	16.91	-5.8975e-11
3	89395	17.01	-8.10019e-11
3	89959	17.11	-9.80549e-11
3	90523	17.21	-1.11555e-10
3	91087	17.31	-1.18661e-10
3	91651	17.41	-1.23634e-10
3	92215	17.51	-1.23634e-10
3	92779	17.61	-1.23634e-10
3	93343	17.71	-1.21503e-10
3	93907	17.81	-1.14397e-10
3	94471	17.91	-1.07292e-10
3	95044	18.01	-1.00187e-10
3	95608	18.11	-9.30811e-11
3	96172	18.21	-8.59757e-11
3	96736	18.31	-7.88702e-11
3	97300	18.41	-7.17648e-11
3	97864	18.51	-6.46594e-11
3	98428	18.61	-5.7554e-11
3	98992	18.71	-5.04485e-11
3	99556	18.81	-4.33431e-11
3	100120	18.91	-3.62377e-11
3	100693	19.01	-2.91323e-11
3	101257	19.11	-2.20268e-11
3	101821	19.21	-1.7053e-11
3	102385	19.31	-1.49214e-11
3	102949	19.41	-1.35003e-11
3	103513	19.51	-1.27898e-11
3	104077	19.61	-1.13687e-11
3	104641	19.71	-9.9476e-12
3	105205	19.81	-9.23706e-12
3	105769	19.91	-8.52651e-12
3	106342	20.01	-7.81597e-12
3	106906	20.11	-7.10543e-12
3	107470	20.21	-6.39488e-12
3	108034	20.31	-5.68434e-12
3	108598	20.41	-4.9738e-12
3	109162	20.51	-4.26326e-12
3	109726	20.61	-4.26326e-12
3	110290	20.71	-3.55271e-12
3	110854	20.81	-3.55271e-12
3	111418	20.91	-2.84217e-12
3	111991	21.01	-2.84217e-12
3	112555	21.11	-2.84217e-12
3	113119	21.21	-2.13163e-12
3	113683	21.31	-2.13163e-12
3	114247	21.41	-2.13163e-12
3	114811	21.51	-1.42109e-12
3	115375	21.61	-1.42109e-12
3	115939	21.71	-1.42109e-12
3	116503	21.81	-1.42109e-12
3	117067	21.91	-1.42109e-12
3	117640	22.01	-7.10543e-13
3	118204	22.11	-7.10543e-13
3	118768	22.21	-7.10543e-13
3	119332	22.31	-7.10543e-13
3	119896	22.41	-7.10543e-13
3	120460	22.51	-7.10543e-13
3	121024	22.61	-7.10543e-13
3	121588	22.71	-7.10543e-13
3	122152	22.81	-7.10543e-13
3	122716	22.91	-7.10543e-13
3	123289	23.01	0
3	123853	23.11	0
3	124417	23.21	0
3	124981	23.31	0
3	125545	23.41	0
3	126109	23.51	0
3	126673	23.61	0
3	127237	23.71	0
3	127801	23.81	0
3	128365	23.91	0
3	128938	24.01	0
3	129502	24.11	0
3	130066	24.21	0
3	130630	24.31	0
3	131194	24.41	0
3	131758	24.51	0
3	132322	24.61	0
3	132886	24.71	0
3	133450	24.81	0
3	134014	24.91	0
3	134587	25.01	0
3	135151	25.11	0
3	135715	25.21	0
3	136279	25.31	0
3	136843	25.41	0
3	137407	25.51	0
3	137971	25.61	0
3	138535	25.71	0
3	139099	25.81	0
3	139663	25.91	0
3	140236	26.01	0
3	140800	26.11	0
3	141364	26.21	0
3	141928	26.31	0
3	142492	26.41	0
3	143056	26.51	0
3	143620	26.61	0
3	144184	26.71	0
3	144748	26.81	0
3	145312	26.91	0
3	145885	27.01	0
3	146449	27.11	0
3	147013	27.21	0
3	147577	27.31	0
3	148141	27.41	0
3	148705	27.51	0
3	149269	27.61	0
3	149833	27.71	0
3	150397	27.81	0
3	150961	27.91	0
3	151534	28.01	0
3	152098	28.11	0
3	152662	28.21	0
3	153226	28.31	0
3	153790	28.41	0
3	154354	28.51	0
3	154918	28.61	0
3	155482	28.71	0
3	156046	28.81	0
3	156610	28.91	0
3	157183	29.01	0
3	157747	29.11	0
3	158311	29.21	0
3	158875	29.31	0
3	159439	29.41	0
3	160003	29.51	0
3	160567	29.61	0
3	161131	29.71	0
3	161695	29.81	0
3	162259	29.91	0
3	162832	30.01	0
3	163396	30.11	0
3	163960	30.21	0
3	164524	30.31	0
3	165088	30.41	0
3	165652	30.51	0
3	166216	30.61	0
3	166780	30.71	0
3	167344	30.81	0
3	167908	30.91	0
3	168481	31.01	0
3	169045	31.11	0
3	169609	31.21	0
3	170173	31.31	0
3	170737	31.41	0
3	171301	31.51	0
3	171865	31.61	0
3	172429	31.71	0
3	172993	31.81	0
3	173557	31.91	0
3	174130	32.01	0
3	174694	32.11	0
3	175258	32.21	0
3	175822	32.31	0
3	176386	32.41	0
3	176950	32.51	0
3	177514	32.61	0
3	178078	32.71	0
3	178642	32.81	0
3	179206	32.91	0
3	179779	33.01	0
3	180343	33.11	0
3	180907	33.21	0
3	181471	33.31	0
3	182035	33.41	0
3	182599	33.51	0
3	183163	33.61	0
3	183727	33.71	0
3	184291	33.81	0
3	184855	33.91	0
3	185428	34.01	0
3	185992	34.11	0
3	186556	34.21	0
3	187120	34.31	0
3	187684	34.41	0
3	188248	34.51	0
3	188812	34.61	0
3	189376	34.71	0
3	189940	34.81	0
3	190504	34.91	0
3	191077	35.01	0
3	191641	35.11	0
3	192205	35.21	0
3	192769	35.31	0
3	193333	35.41	0
3	193897	35.51	0
3	194461	35.61	0
3	195025	35.71	0
3	195589	35.81	0
3	196153	35.91	0
3	196726	36.01	0
3	197290	36.11	0
3	197854	36.21	0
3	198418	36.31	0
3	198982	36.41	0
3	199546	36.51	0
3	200110	36.61	0
3	200674	36.71	0
3	201238	36.81	0
3	201802	36.91	0
3	202375	37.01	0
3	202939	37.11	0
3	203503	37.21	0
3	204067	37.31	0
3	204631	37.41	0
3	205195	37.51	0
3	205759	37.61	0
3	206323	37.71	0
3	206887	37.81	0
3	207451	37.91	0
3	208024	38.01	0
3	208588	38.11	0
3	209152	38.21	0
3	209716	38.31	0
3	210280	38.41	0
3	210844	38.51	0
3	211408	38.61	0
3	211972	38.71	0
3	212536	38.81	0
3	213100	38.91	0
3	213673	39.01	0
3	214237	39.11	0
3	214801	39.21	0
3	215365	39.31	0
3	215929	39.41	0
3	216493	39.51	0
3	217057	39.61	0
3	217621	39.71	0
3	218185	39.81	0
3	218749	39.91	0
3	219322	40.01	0
3	219886	40.11	0
3	220450	40.21	0
3	221014	40.31	0
3	221578	40.41	0
3	222142	40.51	0
3	222706	40.61	0
3	223270	40.71	0
3	223834	40.81	0
3	224398	40.91	0
3	224971	41.01	0
3	225535	41.11	0
3	226099	41.21	0
3	226663	41.31	0
3	227227	41.41	0
3	227791	41.51	0
3	228355	41.61	0
3	228919	41.71	0
3	229483	41.81	0
3	230047	41.91	0
3	230620	42.01	0
3	231184	42.11	0
3	231748	42.21	0
3	232312	42.31	0
3	232876	42.41	0
3	233440	42.51	0
3	234004	42.61	0
3	234568	42.71	0
3	235132	42.81	0
3	235696	42.91	0
3	236269	43.01	0
3	236833	43.11	0
3	237397	43.21	0
3	237961	43.31	0
3	238525	43.41	0
3	239089	43.51	0
3	239653	43.61	0
3	240217	43.71	0
3	240781	43.81	0
3	241345	43.91	0
3	241918	44.01	0
3	242482	44.11	0
3	243046	44.21	0
3	243610	44.31	0
3	244174	44.41	0
3	244738	44.51	0
3	245302	44.61	0
3	245866	44.71	0
3	246430	44.81	0
3	246994	44.91	0
3	247567	45.01	0
3	248131	45.11	0
3	248695	45.21	0
3	249259	45.31	0
3	249823	45.41	0
3	250387	45.51	0
3	250951	45.61	0
3	251515	45.71	0
3	252172	45.81	0
3	252735	45.91	0
3	253307	46.01	0
3	253870	46.11	0
3	254433	46.21	0
3	254996	46.31	0
3	255559	46.41	0
3	256122	46.51	0
3	256685	46.61	0
3	257248	46.71	0
3	257811	46.81	0
3	258374	46.91	0
3	258946	47.01	0
3	259509	47.11	0
3	260072	47.21	0
3	260635	47.31	0
3	261198	47.41	0
3	261761	47.51	0
3	262324	47.61	0
3	262887	47.71	0
3	263450	47.81	0
3	264013	47.91	0
3	264585	48.01	0
3	265148	48.11	0
3	265711	48.21	0
3	266274	48.31	0
3	266837	48.41	0
3	267400	48.51	0
3	267963	48.61	0
3	268526	48.71	0
3	269089	48.81	0
3	269652	48.91	0
3	270224	49.01	0
3	270787	49.11	0
3	271350	49.21	0
3	271913	49.31	0
3	272476	49.41	0
3	273039	49.51	0
3	273602	49.61	0
3	274165	49.71	0
3	274728	49.81	0
3	275291	49.91	0
3	275863	50.01	0
3	276426	50.11	0
3	276989	50.21	0
3	277552	50.31	0
3	278115	50.41	0
3	278678	50.51	0
3	279241	50.61	0
3	279804	50.71	0
3	280367	50.81	0
3	280930	50.91	0
3	281502	51.01	0
3	282065	51.11	0
3	282628	51.21	0
3	283191	51.31	0
3	283754	51.41	0
3	284317	51.51	0
3	284880	51.61	0
3	285443	51.71	0
3	286006	51.81	0
3	286662	51.91	0
3	287233	52.01	0
3	287795	52.11	0
3	288357	52.21	0
3	288919	52.31	0
3	289481	52.41	0
3	290043	52.51	0
3	290605	52.61	0
3	291167	52.71	0
3	291729	52.81	0
3	292291	52.91	0
3	292862	53.01	0
3	293424	53.11	0
3	293986	53.21	0
3	294548	53.31	0
3	295110	53.41	0
3	295672	53.51	0
3	296234	53.61	0
3	296796	53.71	0
3	297358	53.81	0
3	297920	53.91	0
3	298491	54.01	0
3	299053	54.11	0
3	299615	54.21	0
3	300177	54.31	0
3	300739	54.41	0
3	301301	54.51	0
3	301863	54.61	0
3	302425	54.71	0
3	302987	54.81	0
3	303549	54.91	0
3	304120	55.01	0
3	304682	55.11	0
3	305244	55.21	0
3	305806	55.31	0
3	306368	55.41	0
3	306930	55.51	0
3	307492	55.61	0
3	308054	55.71	0
3	308616	55.81	0
3	309178	55.91	0
3	309749	56.01	0
3	310311	56.11	0
3	310873	56.21	0
3	311435	56.31	0
3	311997	56.41	0
3	312559	56.51	0
3	313121	56.61	0
3	313683	56.71	0
3	314245	56.81	0
3	314807	56.91	0
3	315378	57.01	0
3	315940	57.11	0
3	316502	57.21	0
3	317064	57.31	0
3	317719	57.41	0
3	318280	57.51	0
3	318841	57.61	0
3	319402	57.71	0
3	319963	57.81	0
3	320524	57.91	0
3	321094	58.01	0
3	321655	58.11	0
3	322216	58.21	0
3	322777	58.31	0
3	323338	58.41	0
3	323899	58.51	0
3	324460	58.61	0
3	325021	58.71	0
3	325582	58.81	0
3	326143	58.91	0
3	326713	59.01	0
3	327274	59.11	0
3	327835	59.21	0
3	328396	59.31	0
3	328957	59.41	0
3	329518	59.51	0
3	330079	59.61	0
3	330640	59.71	0
3	331201	59.81	0
3	331762	59.91	0
3	332332	60.01	0
3	332893	60.11	0
3	333454	60.21	0
3	334015	60.31	0
3	334576	60.41	0
3	335137	60.51	0
3	335698	60.61	0
3	336259	60.71	0
3	336820	60.81	0
3	337381	60.91	0
3	337951	61.01	0
3	338512	61.11	0
3	339073	61.21	0
3	339634	61.31	0
3	340195	61.41	0
3	340756	61.51	0
3	341317	61.61	0
3	341878	61.71	0
3	342439	61.81	0
3	343000	61.91	0
3	343570	62.01	0
3	344131	62.11	0
3	344692	62.21	0
3	345253	62.31	0
3	345814	62.41	0
3	346468	62.51	0
3	347028	62.61	0
3	347588	62.71	0
3	348148	62.81	0
3	348708	62.91	0
3	349277	63.01	0
3	349837	63.11	0
3	350397	63.21	0
3	350957	63.31	0
3	351517	63.41	0
3	352077	63.51	0
3	352637	63.61	0
3	353197	63.71	0
3	353757	63.81	0
3	354317	63.91	0
3	354886	64.01	0
3	355446	64.11	0
3	356006	64.21	0
3	356566	64.31	0
3	357126	64.41	0
3	357686	64.51	0
3	358246	64.61	0
3	358806	64.71	0
3	359366	64.81	0
3	359926	64.91	0
3	360495	65.01	0
3	361055	65.11	0
3	361615	65.21	0
3	362175	65.31	0
3	362735	65.41	0
3	363295	65.51	0
3	363855	65.61	0
3	364415	65.71	0
3	364975	65.81	0
3	365535	65.91	0
3	366104	66.01	0
3	366664	66.11	0
3	367224	66.21	0
3	367784	66.31	0
3	368344	66.41	0
3	368904	66.51	0
3	369464	66.61	0
3	370024	66.71	0
3	370584	66.81	0
3	371144	66.91	0
3	371713	67.01	0
3	372273	67.11	0
3	372833	67.21	0
3	373486	67.31	0
3	374045	67.41	0
3	374604	67.51	0
3	375163	67.61	0
3	375722	67.71	0
3	376281	67.81	0
3	376840	67.91	0
3	377408	68.01	0
3	377967	68.11	0
3	378526	68.21	0
3	379085	68.31	0
3	379644	68.41	0
3	380203	68.51	0
3	380762	68.61	0
3	381321	68.71	0
3	381880	68.81	0
3	382439	68.91	0
3	383007	69.01	0
3	383566	69.11	0
3	384125	69.21	0
3	384684	69.31	0
3	385243	69.41	0
3	385802	69.51	0
3	386361	69.61	0
3	386920	69.71	0
3	387479	69.81	0
3	388038	69.91	0
3	388606	70.01	0
3	389165	70.11	0
3	389724	70.21	0
3	390283	70.31	0
3	390842	70.41	0
3	391401	70.51	0
3	391960	70.61	0
3	392519	70.71	0
3	393078	70.81	0
3	393637	70.91	0
3	394205	71.01	0
3	394764	71.11	0
3	395323	71.21	0
3	395882	71.31	0
3	396441	71.41	0
3	397000	71.51	0
3	397559	71.61	0
3	398118	71.71	0
3	398677	71.81	0
3	399329	71.91	0
3	399896	72.01	0
3	400454	72.11	0
3	401012	72.21	0
3	401570	72.31	0
3	402128	72.41	0
3	402686	72.51	0
3	403244	72.61	0
3	403802	72.71	0
3	404360	72.81	0
3	404918	72.91	0
3	405485	73.01	0
3	406043	73.11	0
3	406601	73.21	0
3	407159	73.31	0
3	407717	73.41	0
3	408275	73.51	0
3	408833	73.61	0
3	409391	73.71	0
3	409949	73.81	0
3	410507	73.91	0
3	411074	74.01	0
3	411632	74.11	0
3	412190	74.21	0
3	412748	74.31	0
3	413306	74.41	0
3	413864	74.51	0
3	414422	74.61	0
3	414980	74.71	0
3	415538	74.81	0
3	416096	74.91	0
3	416663	75.01	0
3	417221	75.11	0
3	417779	75.21	0
3	418337	75.31	0
3	418895	75.41	0
3	419453	75.51	0
3	420011	75.61	0
3	420569	75.71	0
3	421127	75.81	0
3	421685	75.91	0
3	422252	76.01	0
3	422810	76.11	0
3	423368	76.21	0
3	423926	76.31	0
3	425228	76.41	0
3	425785	76.51	0
3	426342	76.61	0
3	426899	76.71	0
3	427456	76.81	0
3	428013	76.91	0
3	428579	77.01	0
3	429136	77.11	0
3	429693	77.21	0
3	430250	77.31	0
3	430807	77.41	0
3	431364	77.51	0
3	431921	77.61	0
3	432478	77.71	0
3	433035	77.81	0
3	433592	77.91	0
3	434158	78.01	0
3	434715	78.11	0
3	435272	78.21	0
3	435829	78.31	0
3	436386	78.41	0
3	436943	78.51	0
3	437500	78.61	0
3	438057	78.71	0
3	438614	78.81	0
3	439171	78.91	0
3	439737	79.01	0
3	440294	79.11	0
3	440851	79.21	0
3	441408	79.31	0
3	441965	79.41	0
3	442522	79.51	0
3	443079	79.61	0
3	443636	79.71	0
3	444193	79.81	0
3	444750	79.91	0
3	445316	80.01	0
3	445873	80.11	0
3	446430	80.21	0
3	446987	80.31	0
3	447544	80.41	0
3	448101	80.51	0
3	448658	80.61	0
3	449215	80.71	0
3	449772	80.81	0
3	450329	80.91	0
3	450895	81.01	0
3	451452	81.11	0
3	452009	81.21	0
3	452566	81.31	0
3	453123	81.41	0
3	453680	81.51	0
3	454237	81.61	0
3	454794	81.71	0
3	455351	81.81	0
3	455908	81.91	0
3	456474	82.01	0
3	457031	82.11	0
3	457588	82.21	0
3	458145	82.31	0
3	458702	82.41	0
3	459259	82.51	0
3	459816	82.61	0
3	460373	82.71	0
3	460930	82.81	0
3	461487	82.91	0
3	462053	83.01	0
3	462610	83.11	0
3	463167	83.21	0
3	463724	83.31	0
3	464281	83.41	0
3	464838	83.51	0
3	465395	83.61	0
3	465952	83.71	0
3	466509	83.81	0
3	467066	83.91	0
3	467632	84.01	0
3	468189	84.11	0
3	468746	84.21	0
3	469303	84.31	0
3	469860	84.41	0
3	470417	84.51	0
3	470974	84.61	0
3	471531	84.71	0
3	472088	84.81	0
3	472645	84.91	0
3	473211	85.01	0
3	473768	85.11	0
3	474325	85.21	0
3	474882	85.31	0
3	475439	85.41	0
3	475996	85.51	0
3	476553	85.61	0
3	477110	85.71	0
3	477667	85.81	0
3	478224	85.91	0
3	478790	86.01	0
3	479347	86.11	0
3	479904	86.21	0
3	480461	86.31	0
3	481018	86.41	0
3	481575	86.51	0
3	482132	86.61	0
3	482689	86.71	0
3	483246	86.81	0
3	483803	86.91	0
3	484369	87.01	0
3	484926	87.11	0
3	485483	87.21	0
3	486040	87.31	0
3	486597	87.41	0
3	487154	87.51	0
3	487711	87.61	0
3	488268	87.71	0
3	488825	87.81	0
3	489382	87.91	0
3	489948	88.01	0
3	490505	88.11	0
3	491062	88.21	0
3	491619	88.31	0
3	492176	88.41	0
3	492733	88.51	0
3	493290	88.61	0
3	493847	88.71	0
3	494404	88.81	0
3	494961	88.91	0
3	495527	89.01	0
3	496084	89.11	0
3	496641	89.21	0
3	497198	89.31	0
3	497755	89.41	0
3	498312	89.51	0
3	498869	89.61	0
3	499426	89.71	0
3	499983	89.81	0
3	500540	89.91	0
3	501106	90.01	0
3	501663	90.11	0
3	502220	90.21	0
3	502777	90.31	0
3	503334	90.41	0
3	503891	90.51	0
3	504448	90.61	0
3	505005	90.71	0
3	505562	90.81	0
3	506119	90.91	0
3	506685	91.01	0
3	507242	91.11	0
3	507799	91.21	0
3	508356	91.31	0
3	508913	91.41	0
3	509470	91.51	0
3	510027	91.61	0
3	510584	91.71	0
3	511141	91.81	0
3	511698	91.91	0
3	512264	92.01	0
3	512821	92.11	0
3	513378	92.21	0
3	513935	92.31	0
3	514492	92.41	0
3	515049	92.51	0
3	515606	92.61	0
3	516163	92.71	0
3	516720	92.81	0
3	517277	92.91	0
3	517843	93.01	0
3	518400	93.11	0
3	518957	93.21	0
3	519514	93.31	0
[...]
115	416591	75	5
115	422180	76	5
115	428508	77	5
115	434087	78	5
115	439666	79	5
115	445245	80	5
115	450824	81	5
115	456403	82	5
115	461982	83	5
115	467561	84	5
115	473140	85	5
115	478719	86	5
115	484298	87	5
115	489877	88	5
115	495456	89	5
115	501035	90	5
115	506614	91	5
115	512193	92	5
115	517772	93	5
115	523351	94	5
115	528930	95	5
115	534509	96	5
115	540088	97	5
115	545667	98	5
115	551246	99	5
115	556825	100	5
116	5064	2	0.022161
116	10643	3	0.02497
116	16222	4	0.02497
116	21801	5	0.02497
116	27380	6	0.02497
116	32959	7	0.02497
116	38538	8	0.02497
116	44117	9	0.02497
116	49698	10	0.02497
116	55423	11	0.025018
116	61072	12	0.02497
116	66721	13	0.02497
116	72370	14	0.02497
116	78019	15	0.02497
116	83668	16	0.02497
116	89317	17	0.02497
116	94966	18	0.02497
116	100615	19	0.02497
116	106264	20	0.02497
116	111913	21	0.02497
116	117562	22	0.02497
116	123211	23	0.02497
116	128860	24	0.02497
116	134509	25	0.02497
116	140158	26	0.02497
116	145807	27	0.02497
116	151456	28	0.02497
116	157105	29	0.02497
116	162754	30	0.02497
116	168403	31	0.02497
116	174052	32	0.02497
116	179701	33	0.02497
116	185350	34	0.02497
116	190999	35	0.02497
116	196648	36	0.02497
116	202297	37	0.02497
116	207946	38	0.02497
116	213595	39	0.02497
116	219244	40	0.02497
116	224893	41	0.02497
116	230542	42	0.02497
116	236191	43	0.02497
116	241840	44	0.02497
116	247489	45	0.02497
116	253230	46	0.025082
116	258869	47	0.02497
116	264508	48	0.02497
116	270147	49	0.02497
116	275786	50	0.02497
116	281425	51	0.02497
116	287157	52	0.025082
116	292786	53	0.02497
116	298415	54	0.02497
116	304044	55	0.02497
116	309673	56	0.02497
116	315302	57	0.02497
116	321019	58	0.025082
116	326638	59	0.02497
116	332257	60	0.02497
116	337876	61	0.02497
116	343495	62	0.02497
116	349203	63	0.025082
116	354812	64	0.02497
116	360421	65	0.02497
116	366030	66	0.02497
116	371639	67	0.02497
116	377335	68	0.025115632478
116	382934	69	0.02497
116	388533	70	0.02497
116	394132	71	0.02497
116	399824	72	0.025082
116	405413	73	0.02497
116	411002	74	0.02497
116	416591	75	0.02497
116	422180	76	0.02497
116	428508	77	0.025898
116	434087	78	0.02497
116	439666	79	0.02497
116	445245	80	0.02497
116	450824	81	0.02497
116	456403	82	0.02497
116	461982	83	0.02497
116	467561	84	0.02497
116	473140	85	0.02497
116	478719	86	0.02497
116	484298	87	0.02497
116	489877	88	0.02497
116	495456	89	0.02497
116	501035	90	0.02497
116	506614	91	0.02497
116	512193	92	0.02497
116	517772	93	0.02497
116	523351	94	0.02497
116	528930	95	0.02497
116	534509	96	0.02497
116	540088	97	0.02497
116	545667	98	0.02497
116	551246	99	0.02497
116	556825	100	0.02497
117	5064	2	0
117	10643	3	0
117	16222	4	0
117	21801	5	0
117	27380	6	0
117	32959	7	0
117	38538	8	0
117	44117	9	0
117	49698	10	0
117	55423	11	0
117	61072	12	0
117	66721	13	0
117	72370	14	0
117	78019	15	0
117	83668	16	0
117	89317	17	0
117	94966	18	0
117	100615	19	0
117	106264	20	0
117	111913	21	0
117	117562	22	0
117	123211	23	0
117	128860	24	0
117	134509	25	0
117	140158	26	0
117	145807	27	0
117	151456	28	0
117	157105	29	0
117	162754	30	0
117	168403	31	0
117	174052	32	0
117	179701	33	0
117	185350	34	0
117	190999	35	0
117	196648	36	0
117	202297	37	0
117	207946	38	0
117	213595	39	0
117	219244	40	0
117	224893	41	0
117	230542	42	0
117	236191	43	0
117	241840	44	0
117	247489	45	0
117	253230	46	0
117	258869	47	0
117	264508	48	0
117	270147	49	0
117	275786	50	0
117	281425	51	0
117	287157	52	0
117	292786	53	0
117	298415	54	0
117	304044	55	0
117	309673	56	0
117	315302	57	0
117	321019	58	0
117	326638	59	0
117	332257	60	0
117	337876	61	0
117	343495	62	0
117	349203	63	0
117	354812	64	0
117	360421	65	0
117	366030	66	0
117	371639	67	0
117	377335	68	0
117	382934	69	0
117	388533	70	0
117	394132	71	0
117	399824	72	0
117	405413	73	0
117	411002	74	0
117	416591	75	0
117	422180	76	0
117	428508	77	0
117	434087	78	0
117	439666	79	0
117	445245	80	0
117	450824	81	0
117	456403	82	0
117	461982	83	0
117	467561	84	0
117	473140	85	0
117	478719	86	0
117	484298	87	0
117	489877	88	0
117	495456	89	0
117	501035	90	0
117	506614	91	0
117	512193	92	0
117	517772	93	0
117	523351	94	0
117	528930	95	0
117	534509	96	0
117	540088	97	0
117	545667	98	0
117	551246	99	0
117	556825	100	0
118	5065	2	6
118	10644	3	6
118	16223	4	6
118	21802	5	6
118	27381	6	6
118	32960	7	6
118	38539	8	6
118	44118	9	6
118	49699	10	6
118	55424	11	6
118	61073	12	6
118	66722	13	6
118	72371	14	6
118	78020	15	6
118	83669	16	6
118	89318	17	6
118	94967	18	6
118	100616	19	6
118	106265	20	6
118	111914	21	6
118	117563	22	6
118	123212	23	6
118	128861	24	6
118	134510	25	6
118	140159	26	6
118	145808	27	6
118	151457	28	6
118	157106	29	6
118	162755	30	6
118	168404	31	6
118	174053	32	6
118	179702	33	6
118	185351	34	6
118	191000	35	6
118	196649	36	6
118	202298	37	6
118	207947	38	6
118	213596	39	6
118	219245	40	6
118	224894	41	6
118	230543	42	6
118	236192	43	6
118	241841	44	6
118	247490	45	6
118	253231	46	6
118	258870	47	6
118	264509	48	6
118	270148	49	6
118	275787	50	6
118	281426	51	6
118	287158	52	6
118	292787	53	6
118	298416	54	6
118	304045	55	6
118	309674	56	6
118	315303	57	6
118	321020	58	6
118	326639	59	6
118	332258	60	6
118	337877	61	6
118	343496	62	6
118	349204	63	6
118	354813	64	6
118	360422	65	6
118	366031	66	6
118	371640	67	6
118	377336	68	6
118	382935	69	6
118	388534	70	6
118	394133	71	6
118	399825	72	6
118	405414	73	6
118	411003	74	6
118	416592	75	6
118	422181	76	6
118	428509	77	6
118	434088	78	6
118	439667	79	6
118	445246	80	6
118	450825	81	6
118	456404	82	6
118	461983	83	6
118	467562	84	6
118	473141	85	6
118	478720	86	6
118	484299	87	6
118	489878	88	6
118	495457	89	6
118	501036	90	6
118	506615	91	6
118	512194	92	6
118	517773	93	6
118	523352	94	6
118	528931	95	6
118	534510	96	6
118	540089	97	6
118	545668	98	6
118	551247	99	6
118	556826	100	6
119	5065	2	0.022161
119	10644	3	0.02497
119	16223	4	0.02497
119	21802	5	0.02497
119	27381	6	0.02497
119	32960	7	0.02497
119	38539	8	0.02497
119	44118	9	0.02497
119	49699	10	0.02497
119	55424	11	0.025018
119	61073	12	0.02497
119	66722	13	0.02497
119	72371	14	0.02497
119	78020	15	0.02497
119	83669	16	0.02497
119	89318	17	0.02497
119	94967	18	0.02497
119	100616	19	0.02497
119	106265	20	0.02497
119	111914	21	0.02497
119	117563	22	0.02497
119	123212	23	0.02497
119	128861	24	0.02497
119	134510	25	0.02497
119	140159	26	0.02497
119	145808	27	0.02497
119	151457	28	0.02497
119	157106	29	0.02497
119	162755	30	0.02497
119	168404	31	0.02497
119	174053	32	0.02497
119	179702	33	0.02497
119	185351	34	0.02497
119	191000	35	0.02497
119	196649	36	0.02497
119	202298	37	0.02497
119	207947	38	0.02497
119	213596	39	0.02497
119	219245	40	0.02497
119	224894	41	0.02497
119	230543	42	0.02497
119	236192	43	0.02497
119	241841	44	0.02497
119	247490	45	0.02497
119	253231	46	0.025082
119	258870	47	0.02497
119	264509	48	0.02497
119	270148	49	0.02497
119	275787	50	0.02497
119	281426	51	0.02497
119	287158	52	0.025082
119	292787	53	0.02497
119	298416	54	0.02497
119	304045	55	0.02497
119	309674	56	0.02497
119	315303	57	0.02497
119	321020	58	0.025082
119	326639	59	0.02497
119	332258	60	0.02497
119	337877	61	0.02497
119	343496	62	0.02497
119	349204	63	0.025082
119	354813	64	0.02497
119	360422	65	0.02497
119	366031	66	0.02497
119	371640	67	0.02497
119	377336	68	0.025082
119	382935	69	0.02497
119	388534	70	0.02497
119	394133	71	0.02497
119	399825	72	0.025115759142
119	405414	73	0.02497
119	411003	74	0.02497
119	416592	75	0.02497
119	422181	76	0.02497
119	428509	77	0.025898
119	434088	78	0.02497
119	439667	79	0.02497
119	445246	80	0.02497
119	450825	81	0.02497
119	456404	82	0.02497
119	461983	83	0.02497
119	467562	84	0.02497
119	473141	85	0.02497
119	478720	86	0.02497
119	484299	87	0.02497
119	489878	88	0.02497
119	495457	89	0.02497
119	501036	90	0.02497
119	506615	91	0.02497
119	512194	92	0.02497
119	517773	93	0.02497
119	523352	94	0.02497
119	528931	95	0.02497
119	534510	96	0.02497
119	540089	97	0.02497
119	545668	98	0.02497
119	551247	99	0.02497
119	556826	100	0.02497
120	5065	2	0
120	10644	3	0
120	16223	4	0
120	21802	5	0
120	27381	6	0
120	32960	7	0
120	38539	8	0
120	44118	9	0
120	49699	10	0
120	55424	11	0
120	61073	12	0
120	66722	13	0
120	72371	14	0
120	78020	15	0
120	83669	16	0
120	89318	17	0
120	94967	18	0
120	100616	19	0
120	106265	20	0
120	111914	21	0
120	117563	22	0
120	123212	23	0
120	128861	24	0
120	134510	25	0
120	140159	26	0
120	145808	27	0
120	151457	28	0
120	157106	29	0
120	162755	30	0
120	168404	31	0
120	174053	32	0
120	179702	33	0
120	185351	34	0
120	191000	35	0
120	196649	36	0
120	202298	37	0
120	207947	38	0
120	213596	39	0
120	219245	40	0
120	224894	41	0
120	230543	42	0
120	236192	43	0
120	241841	44	0
120	247490	45	0
120	253231	46	0
120	258870	47	0
120	264509	48	0
120	270148	49	0
120	275787	50	0
120	281426	51	0
120	287158	52	0
120	292787	53	0
120	298416	54	0
120	304045	55	0
120	309674	56	0
120	315303	57	0
120	321020	58	0
120	326639	59	0
120	332258	60	0
120	337877	61	0
120	343496	62	0
120	349204	63	0
120	354813	64	0
120	360422	65	0
120	366031	66	0
120	371640	67	0
120	377336	68	0
120	382935	69	0
120	388534	70	0
120	394133	71	0
120	399825	72	0
120	405414	73	0
120	411003	74	0
120	416592	75	0
120	422181	76	0
120	428509	77	0
120	434088	78	0
120	439667	79	0
120	445246	80	0
120	450825	81	0
120	456404	82	0
120	461983	83	0
120	467562	84	0
120	473141	85	0
120	478720	86	0
120	484299	87	0
120	489878	88	0
120	495457	89	0
120	501036	90	0
120	506615	91	0
120	512194	92	0
120	517773	93	0
120	523352	94	0
120	528931	95	0
120	534510	96	0
120	540089	97	0
120	545668	98	0
120	551247	99	0
120	556826	100	0
121	5066	2	7
121	10645	3	7
121	16224	4	7
121	21803	5	7
121	27382	6	7
121	32961	7	7
121	38540	8	7
121	44119	9	7
121	49700	10	7
121	55425	11	7
121	61074	12	7
121	66723	13	7
121	72372	14	7
121	78021	15	7
121	83670	16	7
121	89319	17	7
121	94968	18	7
121	100617	19	7
121	106266	20	7
121	111915	21	7
121	117564	22	7
121	123213	23	7
121	128862	24	7
121	134511	25	7
121	140160	26	7
121	145809	27	7
121	151458	28	7
121	157107	29	7
121	162756	30	7
121	168405	31	7
121	174054	32	7
121	179703	33	7
121	185352	34	7
121	191001	35	7
121	196650	36	7
121	202299	37	7
121	207948	38	7
121	213597	39	7
121	219246	40	7
121	224895	41	7
121	230544	42	7
121	236193	43	7
121	241842	44	7
121	247491	45	7
121	253232	46	7
121	258871	47	7
121	264510	48	7
121	270149	49	7
121	275788	50	7
121	281427	51	7
121	287159	52	7
121	292788	53	7
121	298417	54	7
121	304046	55	7
121	309675	56	7
121	315304	57	7
121	321021	58	7
121	326640	59	7
121	332259	60	7
121	337878	61	7
121	343497	62	7
121	349205	63	7
121	354814	64	7
121	360423	65	7
121	366032	66	7
121	371641	67	7
121	377337	68	7
121	382936	69	7
121	388535	70	7
121	394134	71	7
121	399826	72	7
121	405415	73	7
121	411004	74	7
121	416593	75	7
121	422182	76	7
121	428510	77	7
121	434089	78	7
121	439668	79	7
121	445247	80	7
121	450826	81	7
121	456405	82	7
121	461984	83	7
121	467563	84	7
121	473142	85	7
121	478721	86	7
121	484300	87	7
121	489879	88	7
121	495458	89	7
121	501037	90	7
121	506616	91	7
121	512195	92	7
121	517774	93	7
121	523353	94	7
121	528932	95	7
121	534511	96	7
121	540090	97	7
121	545669	98	7
121	551248	99	7
121	556827	100	7
122	5066	2	0.022161
122	10645	3	0.02497
122	16224	4	0.02497
122	21803	5	0.02497
122	27382	6	0.02497
122	32961	7	0.02497
122	38540	8	0.02497
122	44119	9	0.02497
122	49700	10	0.02497
122	55425	11	0.025018
122	61074	12	0.02497
122	66723	13	0.02497
122	72372	14	0.02497
122	78021	15	0.02497
122	83670	16	0.02497
122	89319	17	0.02497
122	94968	18	0.02497
122	100617	19	0.02497
122	106266	20	0.02497
122	111915	21	0.02497
122	117564	22	0.02497
122	123213	23	0.02497
122	128862	24	0.02497
122	134511	25	0.02497
122	140160	26	0.02497
122	145809	27	0.02497
122	151458	28	0.02497
122	157107	29	0.02497
122	162756	30	0.02497
122	168405	31	0.02497
122	174054	32	0.02497
122	179703	33	0.02497
122	185352	34	0.02497
122	191001	35	0.02497
122	196650	36	0.02497
122	202299	37	0.02497
122	207948	38	0.02497
122	213597	39	0.02497
122	219246	40	0.02497
122	224895	41	0.02497
122	230544	42	0.02497
122	236193	43	0.02497
122	241842	44	0.02497
122	247491	45	0.02497
122	253232	46	0.025082
122	258871	47	0.02497
122	264510	48	0.02497
122	270149	49	0.02497
122	275788	50	0.02497
122	281427	51	0.02497
122	287159	52	0.025082
122	292788	53	0.02497
122	298417	54	0.02497
122	304046	55	0.02497
122	309675	56	0.02497
122	315304	57	0.02497
122	321021	58	0.025082
122	326640	59	0.02497
122	332259	60	0.02497
122	337878	61	0.02497
122	343497	62	0.02497
122	349205	63	0.025082
122	354814	64	0.02497
122	360423	65	0.02497
122	366032	66	0.02497
122	371641	67	0.02497
122	377337	68	0.025082
122	382936	69	0.02497
122	388535	70	0.02497
122	394134	71	0.02497
122	399826	72	0.025082
122	405415	73	0.02497
122	411004	74	0.02497
122	416593	75	0.02497
122	422182	76	0.02497
122	428510	77	0.025931885824
122	434089	78	0.02497
122	439668	79	0.02497
122	445247	80	0.02497
122	450826	81	0.02497
122	456405	82	0.02497
122	461984	83	0.02497
122	467563	84	0.02497
122	473142	85	0.02497
122	478721	86	0.02497
122	484300	87	0.02497
122	489879	88	0.02497
122	495458	89	0.02497
122	501037	90	0.02497
122	506616	91	0.02497
122	512195	92	0.02497
122	517774	93	0.02497
122	523353	94	0.02497
122	528932	95	0.02497
122	534511	96	0.02497
122	540090	97	0.02497
122	545669	98	0.02497
122	551248	99	0.02497
122	556827	100	0.02497
123	5066	2	0
123	10645	3	0
123	16224	4	0
123	21803	5	0
123	27382	6	0
123	32961	7	0
123	38540	8	0
123	44119	9	0
123	49700	10	0
123	55425	11	0
123	61074	12	0
123	66723	13	0
123	72372	14	0
123	78021	15	0
123	83670	16	0
123	89319	17	0
123	94968	18	0
123	100617	19	0
123	106266	20	0
123	111915	21	0
123	117564	22	0
123	123213	23	0
123	128862	24	0
123	134511	25	0
123	140160	26	0
123	145809	27	0
123	151458	28	0
123	157107	29	0
123	162756	30	0
123	168405	31	0
123	174054	32	0
123	179703	33	0
123	185352	34	0
123	191001	35	0
123	196650	36	0
123	202299	37	0
123	207948	38	0
123	213597	39	0
123	219246	40	0
123	224895	41	0
123	230544	42	0
123	236193	43	0
123	241842	44	0
123	247491	45	0
123	253232	46	0
123	258871	47	0
123	264510	48	0
123	270149	49	0
123	275788	50	0
123	281427	51	0
123	287159	52	0
123	292788	53	0
123	298417	54	0
123	304046	55	0
123	309675	56	0
123	315304	57	0
123	321021	58	0
123	326640	59	0
123	332259	60	0
123	337878	61	0
123	343497	62	0
123	349205	63	0
123	354814	64	0
123	360423	65	0
123	366032	66	0
123	371641	67	0
123	377337	68	0
123	382936	69	0
123	388535	70	0
123	394134	71	0
123	399826	72	0
123	405415	73	0
123	411004	74	0
123	416593	75	0
123	422182	76	0
123	428510	77	0
123	434089	78	0
123	439668	79	0
123	445247	80	0
123	450826	81	0
123	456405	82	0
123	461984	83	0
123	467563	84	0
123	473142	85	0
123	478721	86	0
123	484300	87	0
123	489879	88	0
123	495458	89	0
123	501037	90	0
123	506616	91	0
123	512195	92	0
123	517774	93	0
123	523353	94	0
123	528932	95	0
123	534511	96	0
123	540090	97	0
123	545669	98	0
123	551248	99	0
123	556827	100	0
124	5067	2	8
124	10646	3	8
124	16225	4	8
124	21804	5	8
124	27383	6	8
124	32962	7	8
124	38541	8	8
124	44120	9	8
124	49701	10	8
124	55426	11	8
124	61075	12	8
124	66724	13	8
124	72373	14	8
124	78022	15	8
124	83671	16	8
124	89320	17	8
124	94969	18	8
124	100618	19	8
124	106267	20	8
124	111916	21	8
124	117565	22	8
124	123214	23	8
124	128863	24	8
124	134512	25	8
124	140161	26	8
124	145810	27	8
124	151459	28	8
124	157108	29	8
124	162757	30	8
124	168406	31	8
124	174055	32	8
124	179704	33	8
124	185353	34	8
124	191002	35	8
124	196651	36	8
124	202300	37	8
124	207949	38	8
124	213598	39	8
124	219247	40	8
124	224896	41	8
124	230545	42	8
124	236194	43	8
124	241843	44	8
124	247492	45	8
124	253233	46	8
124	258872	47	8
124	264511	48	8
124	270150	49	8
124	275789	50	8
124	281428	51	8
124	287160	52	8
124	292789	53	8
124	298418	54	8
124	304047	55	8
124	309676	56	8
124	315305	57	8
124	321022	58	8
124	326641	59	8
124	332260	60	8
124	337879	61	8
124	343498	62	8
124	349206	63	8
124	354815	64	8
124	360424	65	8
124	366033	66	8
124	371642	67	8
124	377338	68	8
124	382937	69	8
124	388536	70	8
124	394135	71	8
124	399827	72	8
124	405416	73	8
124	411005	74	8
124	416594	75	8
124	422183	76	8
124	428511	77	8
124	434090	78	8
124	439669	79	8
124	445248	80	8
124	450827	81	8
124	456406	82	8
124	461985	83	8
124	467564	84	8
124	473143	85	8
124	478722	86	8
124	484301	87	8
124	489880	88	8
124	495459	89	8
124	501038	90	8
124	506617	91	8
124	512196	92	8
124	517775	93	8
124	523354	94	8
124	528933	95	8
124	534512	96	8
124	540091	97	8
124	545670	98	8
124	551249	99	8
124	556828	100	8
125	5067	2	0.002817
125	10646	3	0.00313
125	16225	4	0.00313
125	21804	5	0.00313
125	27383	6	0.00313
125	32962	7	0.00313
125	38541	8	0.00313
125	44120	9	0.00313
125	49701	10	0.00313
125	55426	11	0.003179
125	61075	12	0.00313
125	66724	13	0.00313
125	72373	14	0.00313
125	78022	15	0.00313
125	83671	16	0.00313
125	89320	17	0.00313
125	94969	18	0.00313
125	100618	19	0.00313
125	106267	20	0.00313
125	111916	21	0.00313
125	117565	22	0.00313
125	123214	23	0.00313
125	128863	24	0.00313
125	134512	25	0.00313
125	140161	26	0.00313
125	145810	27	0.00313
125	151459	28	0.00313
125	157108	29	0.00313
125	162757	30	0.00313
125	168406	31	0.00313
125	174055	32	0.00313
125	179704	33	0.00313
125	185353	34	0.00313
125	191002	35	0.00313
125	196651	36	0.00313
125	202300	37	0.00313
125	207949	38	0.00313
125	213598	39	0.00313
125	219247	40	0.00313
125	224896	41	0.00313
125	230545	42	0.00313
125	236194	43	0.00313
125	241843	44	0.00313
125	247492	45	0.00313
125	253233	46	0.00313
125	258872	47	0.00313
125	264511	48	0.00313
125	270150	49	0.00313
125	275789	50	0.00313
125	281428	51	0.00313
125	287160	52	0.00313
125	292789	53	0.00313
125	298418	54	0.00313
125	304047	55	0.00313
125	309676	56	0.00313
125	315305	57	0.00313
125	321022	58	0.00313
125	326641	59	0.00313
125	332260	60	0.00313
125	337879	61	0.00313
125	343498	62	0.00313
125	349206	63	0.00313
125	354815	64	0.00313
125	360424	65	0.00313
125	366033	66	0.00313
125	371642	67	0.00313
125	377338	68	0.00313
125	382937	69	0.00313
125	388536	70	0.00313
125	394135	71	0.00313
125	399827	72	0.00313
125	405416	73	0.00313
125	411005	74	0.00313
125	416594	75	0.00313
125	422183	76	0.00313
125	428511	77	0.00313
125	434090	78	0.00313
125	439669	79	0.00313
125	445248	80	0.00313
125	450827	81	0.00313
125	456406	82	0.00313
125	461985	83	0.00313
125	467564	84	0.00313
125	473143	85	0.00313
125	478722	86	0.00313
125	484301	87	0.00313
125	489880	88	0.00313
125	495459	89	0.00313
125	501038	90	0.00313
125	506617	91	0.00313
125	512196	92	0.00313
125	517775	93	0.00313
125	523354	94	0.00313
125	528933	95	0.00313
125	534512	96	0.00313
125	540091	97	0.00313
125	545670	98	0.00313
125	551249	99	0.00313
125	556828	100	0.00313
126	5067	2	0
126	10646	3	0
126	16225	4	0
126	21804	5	0
126	27383	6	0
126	32962	7	0
126	38541	8	0
126	44120	9	0
126	49701	10	0
126	55426	11	0
126	61075	12	0
126	66724	13	0
126	72373	14	0
126	78022	15	0
126	83671	16	0
126	89320	17	0
126	94969	18	0
126	100618	19	0
126	106267	20	0
126	111916	21	0
126	117565	22	0
126	123214	23	0
126	128863	24	0
126	134512	25	0
126	140161	26	0
126	145810	27	0
126	151459	28	0
126	157108	29	0
126	162757	30	0
126	168406	31	0
126	174055	32	0
126	179704	33	0
126	185353	34	0
126	191002	35	0
126	196651	36	0
126	202300	37	0
126	207949	38	0
126	213598	39	0
126	219247	40	0
126	224896	41	0
126	230545	42	0
126	236194	43	0
126	241843	44	0
126	247492	45	0
126	253233	46	0
126	258872	47	0
126	264511	48	0
126	270150	49	0
126	275789	50	0
126	281428	51	0
126	287160	52	0
126	292789	53	0
126	298418	54	0
126	304047	55	0
126	309676	56	0
126	315305	57	0
126	321022	58	0
126	326641	59	0
126	332260	60	0
126	337879	61	0
126	343498	62	0
126	349206	63	0
126	354815	64	0
126	360424	65	0
126	366033	66	0
126	371642	67	0
126	377338	68	0
126	382937	69	0
126	388536	70	0
126	394135	71	0
126	399827	72	0
126	405416	73	0
126	411005	74	0
126	416594	75	0
126	422183	76	0
126	428511	77	0
126	434090	78	0
126	439669	79	0
126	445248	80	0
126	450827	81	0
126	456406	82	0
126	461985	83	0
126	467564	84	0
126	473143	85	0
126	478722	86	0
126	484301	87	0
126	489880	88	0
126	495459	89	0
126	501038	90	0
126	506617	91	0
126	512196	92	0
126	517775	93	0
126	523354	94	0
126	528933	95	0
126	534512	96	0
126	540091	97	0
126	545670	98	0
126	551249	99	0
126	556828	100	0

