version 3
run BreakRanksNoGui-111-20240710-15:12:31-259190
attr configname BreakRanksNoGui
attr datetime 20240710-15:12:31
attr datetimef 20240710-151231
attr experiment BreakRanksNoGui
attr inifile omnetpp.ini
attr iterationvars "$nCars=3, $platoonSize=3, $nLanes=1, $ploegH=0.5, $controller=1, $headway=0.1, $leaderHeadway=1.2, $leaderSpeed=110, $breakRanksSafetyDistance=10, $minSpeed=100, $maxSpeed=120, $beaconInterval=0.1, $priority=4, $packetSize=200, $sController=\"CACC\", $0=2, $1=0"
attr iterationvarsd nCars=3/platoonSize=3/nLanes=1/ploegH=0.5/controller=1/headway=0.1/leaderHeadway=1.2/leaderSpeed=110/breakRanksSafetyDistance=10/minSpeed=100/maxSpeed=120/beaconInterval=0.1/priority=4/packetSize=200/sController=CACC/2/0
attr iterationvarsf nCars=3,platoonSize=3,nLanes=1,ploegH=0.5,controller=1,headway=0.1,leaderHeadway=1.2,leaderSpeed=110,breakRanksSafetyDistance=10,minSpeed=100,maxSpeed=120,beaconInterval=0.1,priority=4,packetSize=200,sController=CACC,2,0-
attr measurement "$nCars=3, $platoonSize=3, $nLanes=1, $ploegH=0.5, $controller=1, $headway=0.1, $leaderHeadway=1.2, $leaderSpeed=110, $breakRanksSafetyDistance=10, $minSpeed=100, $maxSpeed=120, $beaconInterval=0.1, $priority=4, $packetSize=200, $sController=\"CACC\", $0=2, $1=0"
attr network Highway
attr processid 259190
attr repetition 1
attr replication #1
attr resultdir results
attr runnumber 111
attr seedset 1
itervar beaconInterval 0.1
itervar breakRanksSafetyDistance 10
itervar controller 1
itervar headway 0.1
itervar leaderHeadway 1.2
itervar leaderSpeed 110
itervar maxSpeed 120
itervar minSpeed 100
itervar nCars 3
itervar nLanes 1
itervar packetSize 200
itervar platoonSize 3
itervar ploegH 0.5
itervar priority 4
itervar sController "\"CACC\""
config image-path ../../../veins/images
config repeat 10
config extends BreakRanks
config *.manager.command "\"sumo\""
config *.manager.ignoreGuiCommands true
config output-vector-file "results/BreakRanks_1_0.1_110_10_3 /result_1.vec"
config output-scalar-file "results/BreakRanks_1_0.1_110_10_3 /result_1.sca"
config extends Platooning
config *.node[*].scenario_type "\"BreakRanksScenario\""
config *.manager.command "\"sumo-gui\""
config *.node[*].scenario_type "\"SimpleScenario\""
config cmdenv-express-mode true
config cmdenv-autoflush true
config cmdenv-status-frequency 15s
config num-rngs 6
config network Highway
config debug-on-errors true
config print-undisposed true
config *.playgroundSizeX 65000m
config *.playgroundSizeY 25000m
config *.playgroundSizeZ 50m
config sim-time-limit "100 s"
config *.annotations.draw false
config *.obstacles.debug false
config *.world.useTorus false
config *.world.use2D false
config *.manager.updateInterval 0.01s
config *.manager.host "\"localhost\""
config *.manager.moduleType "\"org.car2x.plexe.PlatoonCar\""
config *.manager.moduleName "\"node\""
config *.manager.moduleDisplayString "\"\""
config *.manager.autoShutdown true
config *.manager.margin 25
config *.connectionManager.sendDirect true
config *.connectionManager.maxInterfDist 2600m
config *.connectionManager.drawMaxIntfDist false
config *.**.nic.mac1609_4.useServiceChannel false
config *.**.nic.mac1609_4.txPower 100mW
config *.**.nic.mac1609_4.bitrate 6Mbps
config *.**.nic.mac1609_4.useAcks true
config *.**.nic.mac1609_4.ackErrorRate 0.0
config *.**.nic.mac1609_4.frameErrorRate 0.0
config *.**.nic.phy80211p.minPowerLevel -94dBm
config *.**.nic.phy80211p.maxTXPower 100mW
config *.**.nic.phy80211p.useNoiseFloor true
config *.**.nic.phy80211p.noiseFloor -95dBm
config *.**.nic.phy80211p.decider "xmldoc(\"config.xml\")"
config *.**.nic.phy80211p.analogueModels "xmldoc(\"config.xml\")"
config *.**.nic.phy80211p.usePropagationDelay true
config *.node[*].mobility.x 0
config *.node[*].mobility.y 0
config *.node[*].mobility.z 1.895
config seed-set 1
config **.seed 1
config *.node[*].prot.rng-0 2
config *.node[*].appl.rng-0 3
config *.node[*].scenario.rng-0 4
config **.traffic.rng-0 5
config *.manager.configFile "\"./sumocfg/freeway.sumo.cfg\""
config *.manager.launchConfig "xmldoc(\"./sumocfg/freeway.launchd.xml\")"
config **.numberOfCars 3
config **.numberOfCarsPerPlatoon 3
config **.numberOfLanes 1
config *.node[*].helper_type "\"PositionHelper\""
config *.node[*].scenario.caccC1 0.5
config *.node[*].scenario.caccXi 1
config *.node[*].scenario.caccOmegaN "0.2 Hz"
config *.node[*].scenario.caccSpacing "2 m"
config *.node[*].scenario.engineTau "0.5 s"
config *.node[*].scenario.ploegH 0.5s
config *.node[*].scenario.ploegKp 0.2
config *.node[*].scenario.ploegKd 0.7
config *.node[*].scenario.useRealisticEngine false
config *.node[*].scenario.useControllerAcceleration true
config *.node[*].scenario.nLanes 1
config **.numericController 1
config **.headway 0.1s
config *.node[*].scenario.accHeadway 0.1s
config *.node[*].scenario.leaderHeadway 1.2s
config *.node[*].scenario.leaderSpeed 110kmph
config *.node[*].appl_type "\"SimplePlatooningApp\""
config *.node[*].appl.*.scalar-recording true
config *.node[*].appl.*.vector-recording true
config *.node[0].appl.breakRanksSafetyDistance 10m
config *.node[*].appl.minSpeed 100kmph
config *.node[*].appl.maxSpeed 120kmph
config *.node[*].protocol_type "\"SimplePlatooningBeaconing\""
config *.node[*].prot.*.scalar-recording true
config *.node[*].prot.*.vector-recording true
config *.node[*].prot.beaconingInterval 0.1s
config *.node[*].prot.priority 4
config *.node[*].prot.packetSize 200
config **.traffic_type "\"PlatoonsTrafficManager\""
config **.traffic.platoonInsertTime "1 s"
config **.traffic.platoonInsertSpeed 110kmph
config **.traffic.nCars 3
config **.traffic.platoonSize 3
config **.traffic.nLanes 1
config **.traffic.platooningVType "\"vtypeauto\""
config **.traffic.controller "\"CACC\""
config **.traffic.platoonInsertDistance 2m
config **.traffic.platoonInsertHeadway 0s
config **.traffic.platoonLeaderHeadway 1.2s
config **.scalar-recording false
config **.vector-recording false

vector 0 Highway.node[0].appl distance ETV
vector 1 Highway.node[0].appl relativeSpeed ETV
vector 2 Highway.node[0].appl nodeId ETV
vector 3 Highway.node[0].appl acceleration ETV
vector 4 Highway.node[0].appl controllerAcceleration ETV
vector 5 Highway.node[0].appl speed ETV
vector 6 Highway.node[0].appl posx ETV
vector 7 Highway.node[0].appl posy ETV
vector 8 Highway.node[1].appl distance ETV
vector 9 Highway.node[1].appl relativeSpeed ETV
vector 10 Highway.node[1].appl nodeId ETV
vector 11 Highway.node[1].appl acceleration ETV
vector 12 Highway.node[1].appl controllerAcceleration ETV
vector 13 Highway.node[1].appl speed ETV
vector 14 Highway.node[1].appl posx ETV
vector 15 Highway.node[1].appl posy ETV
vector 16 Highway.node[2].appl distance ETV
vector 17 Highway.node[2].appl relativeSpeed ETV
vector 18 Highway.node[2].appl nodeId ETV
vector 19 Highway.node[2].appl acceleration ETV
vector 20 Highway.node[2].appl controllerAcceleration ETV
vector 21 Highway.node[2].appl speed ETV
vector 22 Highway.node[2].appl posx ETV
vector 23 Highway.node[2].appl posy ETV
vector 24 Highway.node[2].prot frontDelay ETV
vector 25 Highway.node[2].prot frontDelayId ETV
vector 26 Highway.node[1].prot leaderDelay ETV
vector 27 Highway.node[1].prot leaderDelayId ETV
vector 28 Highway.node[1].prot frontDelay ETV
vector 29 Highway.node[1].prot frontDelayId ETV
vector 30 Highway.node[2].prot leaderDelay ETV
vector 31 Highway.node[2].prot leaderDelayId ETV
vector 32 Highway.node[0].prot nodeId ETV
vector 33 Highway.node[0].prot busyTime ETV
vector 34 Highway.node[0].prot collisions ETV
vector 35 Highway.node[1].prot nodeId ETV
vector 36 Highway.node[1].prot busyTime ETV
vector 37 Highway.node[1].prot collisions ETV
vector 38 Highway.node[2].prot nodeId ETV
vector 39 Highway.node[2].prot busyTime ETV
vector 40 Highway.node[2].prot collisions ETV
0	113	1.11	-1
0	204	1.21	-1
0	295	1.31	-1
0	386	1.41	-1
0	477	1.51	-1
0	568	1.61	-1
0	659	1.71	-1
0	750	1.81	-1
0	841	1.91	-1
0	935	2.01	-1
0	1026	2.11	-1
0	1117	2.21	-1
0	1208	2.31	-1
0	1299	2.41	-1
0	1390	2.51	-1
0	1481	2.61	-1
0	1572	2.71	-1
0	1663	2.81	-1
0	1754	2.91	-1
0	1848	3.01	-1
0	1939	3.11	-1
0	2030	3.21	-1
0	2121	3.31	-1
0	2212	3.41	-1
0	2303	3.51	-1
0	2394	3.61	-1
0	2485	3.71	-1
0	2576	3.81	-1
0	2667	3.91	-1
0	2761	4.01	-1
0	2852	4.11	-1
0	2943	4.21	-1
0	3034	4.31	-1
0	3125	4.41	-1
0	3216	4.51	-1
0	3307	4.61	-1
0	3398	4.71	-1
0	3489	4.81	-1
0	3580	4.91	-1
0	3674	5.01	-1
0	3765	5.11	-1
0	3856	5.21	-1
0	3947	5.31	-1
0	4038	5.41	-1
0	4129	5.51	-1
0	4220	5.61	-1
0	4311	5.71	-1
0	4402	5.81	-1
0	4493	5.91	-1
0	4587	6.01	-1
0	4678	6.11	-1
0	4769	6.21	-1
0	4860	6.31	-1
0	4951	6.41	-1
0	5042	6.51	-1
0	5133	6.61	-1
0	5224	6.71	-1
0	5315	6.81	-1
0	5406	6.91	-1
0	5500	7.01	-1
0	5591	7.11	-1
0	5682	7.21	-1
0	5773	7.31	-1
0	5864	7.41	-1
0	5955	7.51	-1
0	6046	7.61	-1
0	6137	7.71	-1
0	6228	7.81	-1
0	6319	7.91	-1
0	6413	8.01	-1
0	6504	8.11	-1
0	6595	8.21	-1
0	6686	8.31	-1
0	6777	8.41	-1
0	6868	8.51	-1
0	6959	8.61	-1
0	7050	8.71	-1
0	7141	8.81	-1
0	7232	8.91	-1
0	7326	9.01	-1
0	7417	9.11	-1
0	7508	9.21	-1
0	7599	9.31	-1
0	7690	9.41	-1
0	7781	9.51	-1
0	7872	9.61	-1
0	7963	9.71	-1
0	8054	9.81	-1
0	8145	9.91	-1
0	8268	10.01	-1
0	8361	10.11	-1
0	8454	10.21	-1
0	8547	10.31	-1
0	8640	10.41	-1
0	8733	10.51	-1
0	8826	10.61	-1
0	8919	10.71	-1
0	9012	10.81	-1
0	9105	10.91	-1
0	9201	11.01	-1
0	9294	11.11	-1
0	9387	11.21	-1
0	9480	11.31	-1
0	9573	11.41	-1
0	9666	11.51	-1
0	9759	11.61	-1
0	9852	11.71	-1
0	9945	11.81	-1
0	10038	11.91	-1
0	10134	12.01	-1
0	10227	12.11	-1
0	10320	12.21	-1
0	10413	12.31	-1
0	10506	12.41	-1
0	10599	12.51	-1
0	10692	12.61	-1
0	10785	12.71	-1
0	10878	12.81	-1
0	10971	12.91	-1
0	11067	13.01	-1
0	11160	13.11	-1
0	11253	13.21	-1
0	11346	13.31	-1
0	11439	13.41	-1
0	11532	13.51	-1
0	11625	13.61	-1
0	11718	13.71	-1
0	11811	13.81	-1
0	11904	13.91	-1
0	12000	14.01	-1
0	12093	14.11	-1
0	12186	14.21	-1
0	12279	14.31	-1
0	12372	14.41	-1
0	12465	14.51	-1
0	12558	14.61	-1
0	12651	14.71	-1
0	12744	14.81	-1
0	12837	14.91	-1
0	12933	15.01	-1
0	13026	15.11	-1
0	13119	15.21	-1
0	13212	15.31	-1
0	13305	15.41	-1
0	13398	15.51	-1
0	13491	15.61	-1
0	13584	15.71	-1
0	13677	15.81	-1
0	13770	15.91	-1
0	13866	16.01	-1
0	13959	16.11	-1
0	14052	16.21	-1
0	14145	16.31	-1
0	14238	16.41	-1
0	14331	16.51	-1
0	14424	16.61	-1
0	14517	16.71	-1
0	14610	16.81	-1
0	14703	16.91	-1
0	14799	17.01	-1
0	14892	17.11	-1
0	14985	17.21	-1
0	15078	17.31	-1
0	15171	17.41	-1
0	15264	17.51	-1
0	15357	17.61	-1
0	15450	17.71	-1
0	15543	17.81	-1
0	15636	17.91	-1
0	15732	18.01	-1
0	15825	18.11	-1
0	15918	18.21	-1
0	16011	18.31	-1
0	16104	18.41	-1
0	16197	18.51	-1
0	16290	18.61	-1
0	16383	18.71	-1
0	16476	18.81	-1
0	16569	18.91	-1
0	16665	19.01	-1
0	16758	19.11	-1
0	16851	19.21	-1
0	16944	19.31	-1
0	17037	19.41	-1
0	17130	19.51	-1
0	17223	19.61	-1
0	17316	19.71	-1
0	17409	19.81	-1
0	17502	19.91	-1
0	17598	20.01	-1
0	17691	20.11	-1
0	17784	20.21	-1
0	17877	20.31	-1
0	17970	20.41	-1
0	18063	20.51	-1
0	18156	20.61	-1
0	18249	20.71	-1
0	18342	20.81	-1
0	18435	20.91	-1
0	18531	21.01	-1
0	18624	21.11	-1
0	18717	21.21	-1
0	18810	21.31	-1
0	18903	21.41	-1
0	18996	21.51	-1
0	19089	21.61	-1
0	19182	21.71	-1
0	19275	21.81	-1
0	19368	21.91	-1
0	19464	22.01	-1
0	19557	22.11	-1
0	19650	22.21	-1
0	19743	22.31	-1
0	19836	22.41	-1
0	19929	22.51	-1
0	20022	22.61	-1
0	20115	22.71	-1
0	20208	22.81	-1
0	20301	22.91	-1
0	20397	23.01	-1
0	20490	23.11	-1
0	20583	23.21	-1
0	20676	23.31	-1
0	20769	23.41	-1
0	20862	23.51	-1
0	20955	23.61	-1
0	21048	23.71	-1
0	21141	23.81	-1
0	21234	23.91	-1
0	21330	24.01	-1
0	21423	24.11	-1
0	21516	24.21	-1
0	21609	24.31	-1
0	21702	24.41	-1
0	21795	24.51	-1
0	21888	24.61	-1
0	21981	24.71	-1
0	22074	24.81	-1
0	22167	24.91	-1
0	22263	25.01	-1
0	22356	25.11	-1
0	22449	25.21	-1
0	22542	25.31	-1
0	22635	25.41	-1
0	22728	25.51	-1
0	22821	25.61	-1
0	22914	25.71	-1
0	23007	25.81	-1
0	23100	25.91	-1
0	23196	26.01	-1
0	23289	26.11	-1
0	23382	26.21	-1
0	23475	26.31	-1
0	23568	26.41	-1
0	23661	26.51	-1
0	23754	26.61	-1
0	23847	26.71	-1
0	23940	26.81	-1
0	24033	26.91	-1
0	24129	27.01	-1
0	24222	27.11	-1
0	24315	27.21	-1
0	24408	27.31	-1
0	24501	27.41	-1
0	24594	27.51	-1
0	24687	27.61	-1
0	24780	27.71	-1
0	24873	27.81	-1
0	24966	27.91	-1
0	25062	28.01	-1
0	25155	28.11	-1
0	25248	28.21	-1
0	25341	28.31	-1
0	25434	28.41	-1
0	25527	28.51	-1
0	25620	28.61	-1
0	25713	28.71	-1
0	25806	28.81	-1
0	25899	28.91	-1
0	25995	29.01	-1
0	26088	29.11	-1
0	26181	29.21	-1
0	26274	29.31	-1
0	26367	29.41	-1
0	26460	29.51	-1
0	26553	29.61	-1
0	26646	29.71	-1
0	26739	29.81	-1
0	26832	29.91	-1
0	26928	30.01	-1
0	27021	30.11	-1
0	27114	30.21	-1
0	27207	30.31	-1
0	27300	30.41	-1
0	27393	30.51	-1
0	27486	30.61	-1
0	27579	30.71	-1
0	27672	30.81	-1
0	27765	30.91	-1
0	27861	31.01	-1
0	27954	31.11	-1
0	28047	31.21	-1
0	28140	31.31	-1
0	28233	31.41	-1
0	28326	31.51	-1
0	28419	31.61	-1
0	28512	31.71	-1
0	28605	31.81	-1
0	28698	31.91	-1
0	28794	32.01	-1
0	28887	32.11	-1
0	28980	32.21	-1
0	29073	32.31	-1
0	29166	32.41	-1
0	29259	32.51	-1
0	29352	32.61	-1
0	29445	32.71	-1
0	29538	32.81	-1
0	29631	32.91	-1
0	29727	33.01	-1
0	29820	33.11	-1
0	29913	33.21	-1
0	30006	33.31	-1
0	30099	33.41	-1
0	30192	33.51	-1
0	30285	33.61	-1
0	30378	33.71	-1
0	30471	33.81	-1
0	30564	33.91	-1
0	30660	34.01	-1
0	30753	34.11	-1
0	30846	34.21	-1
0	30939	34.31	-1
0	31032	34.41	-1
0	31125	34.51	-1
0	31218	34.61	-1
0	31311	34.71	-1
0	31404	34.81	-1
0	31497	34.91	-1
0	31593	35.01	-1
0	31686	35.11	-1
0	31779	35.21	-1
0	31872	35.31	-1
0	31965	35.41	-1
0	32058	35.51	-1
0	32151	35.61	-1
0	32244	35.71	-1
0	32337	35.81	-1
0	32430	35.91	-1
0	32526	36.01	-1
0	32619	36.11	-1
0	32712	36.21	-1
0	32805	36.31	-1
0	32898	36.41	-1
0	32991	36.51	-1
0	33084	36.61	-1
0	33177	36.71	-1
0	33270	36.81	-1
0	33363	36.91	-1
0	33459	37.01	-1
0	33552	37.11	-1
0	33645	37.21	-1
0	33738	37.31	-1
0	33831	37.41	-1
0	33924	37.51	-1
0	34017	37.61	-1
0	34110	37.71	-1
0	34203	37.81	-1
0	34296	37.91	-1
0	34392	38.01	-1
0	34485	38.11	-1
0	34578	38.21	-1
0	34671	38.31	-1
0	34764	38.41	-1
0	34857	38.51	-1
0	34950	38.61	-1
0	35043	38.71	-1
0	35136	38.81	-1
0	35229	38.91	-1
0	35325	39.01	-1
0	35418	39.11	-1
0	35511	39.21	-1
0	35604	39.31	-1
0	35697	39.41	-1
0	35790	39.51	-1
0	35883	39.61	-1
0	35976	39.71	-1
0	36069	39.81	-1
0	36162	39.91	-1
0	36258	40.01	-1
0	36351	40.11	-1
0	36444	40.21	-1
0	36537	40.31	-1
0	36630	40.41	-1
0	36723	40.51	-1
0	36816	40.61	-1
0	36909	40.71	-1
0	37002	40.81	-1
0	37095	40.91	-1
0	37191	41.01	-1
0	37284	41.11	-1
0	37377	41.21	-1
0	37470	41.31	-1
0	37563	41.41	-1
0	37656	41.51	-1
0	37749	41.61	-1
0	37842	41.71	-1
0	37935	41.81	-1
0	38028	41.91	-1
0	38124	42.01	-1
0	38217	42.11	-1
0	38310	42.21	-1
0	38403	42.31	-1
0	38496	42.41	-1
0	38589	42.51	-1
0	38682	42.61	-1
0	38818	42.71	-1
0	38910	42.81	-1
0	39002	42.91	-1
0	39097	43.01	-1
0	39189	43.11	-1
0	39281	43.21	-1
0	39373	43.31	-1
0	39465	43.41	-1
0	39557	43.51	-1
0	39649	43.61	-1
0	39741	43.71	-1
0	39833	43.81	-1
0	39925	43.91	-1
0	40020	44.01	-1
0	40112	44.11	-1
0	40204	44.21	-1
0	40296	44.31	-1
0	40388	44.41	-1
0	40480	44.51	-1
0	40572	44.61	-1
0	40664	44.71	-1
0	40756	44.81	-1
0	40848	44.91	-1
0	40943	45.01	-1
0	41035	45.11	-1
0	41127	45.21	-1
0	41219	45.31	-1
0	41311	45.41	-1
0	41403	45.51	-1
0	41495	45.61	-1
0	41587	45.71	-1
0	41679	45.81	-1
0	41771	45.91	-1
0	41866	46.01	-1
0	41958	46.11	-1
0	42050	46.21	-1
0	42142	46.31	-1
0	42234	46.41	-1
0	42326	46.51	-1
0	42418	46.61	-1
0	42510	46.71	-1
0	42602	46.81	-1
0	42694	46.91	-1
0	42789	47.01	-1
0	42881	47.11	-1
0	42973	47.21	-1
0	43065	47.31	-1
0	43157	47.41	-1
0	43249	47.51	-1
0	43341	47.61	-1
0	43433	47.71	-1
0	43525	47.81	-1
0	43617	47.91	-1
0	43712	48.01	-1
0	43804	48.11	-1
0	43896	48.21	-1
0	43988	48.31	-1
0	44080	48.41	-1
0	44301	48.51	-1
0	44392	48.61	-1
0	44483	48.71	-1
0	44574	48.81	-1
0	44665	48.91	-1
0	44759	49.01	-1
0	44850	49.11	-1
0	44941	49.21	-1
0	45032	49.31	-1
0	45123	49.41	-1
0	45214	49.51	-1
0	45305	49.61	-1
0	45396	49.71	-1
0	45487	49.81	-1
0	45578	49.91	-1
0	45672	50.01	-1
0	45763	50.11	-1
0	45854	50.21	-1
0	45945	50.31	-1
0	46036	50.41	-1
0	46127	50.51	-1
0	46218	50.61	-1
0	46309	50.71	-1
0	46400	50.81	-1
0	46491	50.91	-1
0	46585	51.01	-1
0	46676	51.11	-1
0	46767	51.21	-1
0	46858	51.31	-1
0	46949	51.41	-1
0	47040	51.51	-1
0	47131	51.61	-1
0	47222	51.71	-1
0	47313	51.81	-1
0	47404	51.91	-1
0	47498	52.01	-1
0	47589	52.11	-1
0	47680	52.21	-1
0	47771	52.31	-1
0	47862	52.41	-1
0	47953	52.51	-1
0	48044	52.61	-1
0	48135	52.71	-1
0	48226	52.81	-1
0	48317	52.91	-1
0	48411	53.01	-1
0	48502	53.11	-1
0	48593	53.21	-1
0	48684	53.31	-1
0	48775	53.41	-1
0	48866	53.51	-1
0	48957	53.61	-1
0	49048	53.71	-1
0	49139	53.81	-1
0	49230	53.91	-1
0	49324	54.01	-1
0	49415	54.11	-1
0	49506	54.21	-1
0	49597	54.31	-1
0	49688	54.41	-1
0	49779	54.51	-1
0	49870	54.61	-1
0	49961	54.71	-1
0	50052	54.81	-1
0	50143	54.91	-1
0	50237	55.01	-1
0	50328	55.11	-1
0	50419	55.21	-1
0	50510	55.31	-1
0	50601	55.41	-1
0	50692	55.51	-1
0	50783	55.61	-1
0	50874	55.71	-1
0	50965	55.81	-1
0	51056	55.91	-1
0	51150	56.01	-1
0	51241	56.11	-1
0	51332	56.21	-1
0	51423	56.31	-1
0	51514	56.41	-1
0	51605	56.51	-1
0	51696	56.61	-1
0	51787	56.71	-1
0	51878	56.81	-1
0	51969	56.91	-1
0	52063	57.01	-1
0	52154	57.11	-1
0	52245	57.21	-1
0	52336	57.31	-1
0	52427	57.41	-1
0	52518	57.51	-1
0	52609	57.61	-1
0	52700	57.71	-1
0	52791	57.81	-1
0	52882	57.91	-1
0	52976	58.01	-1
0	53067	58.11	-1
0	53158	58.21	-1
0	53249	58.31	-1
0	53340	58.41	-1
0	53431	58.51	-1
0	53522	58.61	-1
0	53613	58.71	-1
0	53704	58.81	-1
0	53795	58.91	-1
0	53889	59.01	-1
0	53980	59.11	-1
0	54071	59.21	-1
0	54162	59.31	-1
0	54253	59.41	-1
0	54344	59.51	-1
0	54435	59.61	-1
0	54526	59.71	-1
0	54617	59.81	-1
0	54708	59.91	-1
0	54802	60.01	-1
0	54893	60.11	-1
0	54984	60.21	-1
0	55075	60.31	-1
0	55166	60.41	-1
0	55257	60.51	-1
0	55348	60.61	-1
0	55439	60.71	-1
0	55530	60.81	-1
0	55621	60.91	-1
0	55715	61.01	-1
0	55806	61.11	-1
0	55897	61.21	-1
0	55988	61.31	-1
0	56079	61.41	-1
0	56170	61.51	-1
0	56261	61.61	-1
0	56352	61.71	-1
0	56443	61.81	-1
0	56534	61.91	-1
0	56628	62.01	-1
0	56719	62.11	-1
0	56810	62.21	-1
0	56901	62.31	-1
0	56992	62.41	-1
0	57083	62.51	-1
0	57174	62.61	-1
0	57265	62.71	-1
0	57356	62.81	-1
0	57447	62.91	-1
0	57541	63.01	-1
0	57632	63.11	-1
0	57723	63.21	-1
0	57814	63.31	-1
0	57905	63.41	-1
0	57996	63.51	-1
0	58087	63.61	-1
0	58178	63.71	-1
0	58269	63.81	-1
0	58360	63.91	-1
0	58454	64.01	-1
0	58545	64.11	-1
0	58636	64.21	-1
0	58727	64.31	-1
0	58818	64.41	-1
0	58909	64.51	-1
0	59000	64.61	-1
0	59091	64.71	-1
0	59182	64.81	-1
0	59273	64.91	-1
0	59367	65.01	-1
0	59458	65.11	-1
0	59549	65.21	-1
0	59640	65.31	-1
0	59731	65.41	-1
0	59822	65.51	-1
0	59913	65.61	-1
0	60004	65.71	-1
0	60095	65.81	-1
0	60186	65.91	-1
0	60280	66.01	-1
0	60371	66.11	21.9277
0	60462	66.21	22.1721
0	60553	66.31	22.4166
0	60644	66.41	22.661
0	60735	66.51	22.9055
0	60826	66.61	23.1499
0	60917	66.71	23.3943
0	61008	66.81	23.6388
0	61099	66.91	23.8832
0	61193	67.01	24.1277
0	61284	67.11	24.3721
0	61375	67.21	24.6165
0	61466	67.31	24.861
0	61557	67.41	25.1054
0	61648	67.51	25.3499
0	61739	67.61	25.5943
0	61830	67.71	25.8387
0	61921	67.81	26.0832
0	62012	67.91	26.3276
0	62106	68.01	26.5721
0	62197	68.11	26.8165
0	62288	68.21	27.0609
0	62379	68.31	27.3054
0	62470	68.41	27.5498
0	62561	68.51	27.7943
0	62652	68.61	28.0387
0	62743	68.71	28.2831
0	62834	68.81	28.5276
0	62925	68.91	28.772
0	63019	69.01	29.0165
0	63110	69.11	29.2609
0	63201	69.21	29.5053
0	63292	69.31	29.7498
0	63383	69.41	29.9942
0	63474	69.51	30.2387
0	63565	69.61	30.4831
0	63656	69.71	30.7275
0	63747	69.81	30.972
0	63838	69.91	31.2164
0	63932	70.01	31.4609
0	64023	70.11	31.7053
0	64114	70.21	31.9497
0	64205	70.31	32.1942
0	64296	70.41	32.4386
0	64387	70.51	32.6831
0	64478	70.61	32.9275
0	64569	70.71	33.1719
0	64660	70.81	33.4164
0	64751	70.91	33.6608
0	64845	71.01	33.9053
0	64936	71.11	34.1497
0	65027	71.21	34.3941
0	65118	71.31	34.6386
0	65209	71.41	34.883
0	65300	71.51	35.1275
0	65391	71.61	35.3719
0	65482	71.71	35.6163
0	65573	71.81	35.8608
0	65664	71.91	36.1052
0	65758	72.01	36.3497
0	65849	72.11	36.5941
0	65940	72.21	36.8385
0	66031	72.31	37.083
0	66122	72.41	37.3274
0	66213	72.51	37.5719
0	66304	72.61	37.8163
0	66395	72.71	38.0607
0	66486	72.81	38.3052
0	66577	72.91	38.5496
0	66671	73.01	38.7941
0	66762	73.11	39.0385
0	66853	73.21	39.2829
0	66944	73.31	39.5274
0	67035	73.41	39.7718
0	67126	73.51	40.0163
0	67217	73.61	40.2607
0	67308	73.71	40.5051
0	67399	73.81	40.7496
0	67490	73.91	40.994
0	67584	74.01	41.2385
0	67675	74.11	41.4829
0	67766	74.21	41.7273
0	67857	74.31	41.9718
0	67948	74.41	42.2162
0	68039	74.51	42.4607
0	68130	74.61	42.7051
0	68221	74.71	42.9495
0	68312	74.81	43.194
0	68403	74.91	43.4384
0	68497	75.01	43.6829
0	68588	75.11	43.9273
0	68679	75.21	44.1717
0	68770	75.31	44.4162
0	68861	75.41	44.6606
0	68952	75.51	44.9051
0	69043	75.61	45.1495
0	69134	75.71	45.3939
0	69225	75.81	45.6384
0	69316	75.91	45.8828
0	69410	76.01	46.1273
0	69501	76.11	46.3717
0	69592	76.21	46.6161
0	69683	76.31	46.8606
0	69774	76.41	47.105
0	69865	76.51	47.3495
0	69956	76.61	47.5939
0	70047	76.71	47.8383
0	70138	76.81	48.0828
0	70229	76.91	48.3272
0	70323	77.01	48.5717
0	70414	77.11	48.8161
0	70505	77.21	49.0605
0	70596	77.31	49.305
0	70687	77.41	49.5494
0	70778	77.51	49.7939
0	70869	77.61	50.0383
0	70960	77.71	50.2827
0	71051	77.81	50.5272
0	71142	77.91	50.7716
0	71236	78.01	51.0161
0	71327	78.11	51.2605
0	71418	78.21	51.5049
0	71509	78.31	51.7494
0	71600	78.41	51.9938
0	71691	78.51	52.2383
0	71782	78.61	52.4827
0	71873	78.71	52.7271
0	71964	78.81	52.9716
0	72055	78.91	53.216
0	72149	79.01	53.4605
0	72240	79.11	53.7049
0	72331	79.21	53.9493
0	72422	79.31	54.1938
0	72513	79.41	54.4382
0	72604	79.51	54.6827
0	72695	79.61	54.9271
0	72786	79.71	55.1715
0	72877	79.81	55.416
0	72968	79.91	55.6604
0	73062	80.01	55.9049
0	73153	80.11	56.1493
0	73244	80.21	56.3937
0	73335	80.31	56.6382
0	73426	80.41	56.8826
0	73517	80.51	57.1271
0	73608	80.61	57.3715
0	73699	80.71	57.6159
0	73790	80.81	57.8604
0	73881	80.91	58.1048
0	73975	81.01	58.3493
0	74066	81.11	58.5937
0	74157	81.21	58.8381
0	74248	81.31	59.0826
0	74339	81.41	59.327
0	74430	81.51	59.5715
0	74521	81.61	59.8159
0	74612	81.71	60.0603
0	74703	81.81	60.3048
0	74794	81.91	60.5492
0	74888	82.01	60.7937
0	74979	82.11	61.0381
0	75070	82.21	61.2825
0	75161	82.31	61.527
0	75252	82.41	61.7714
0	75343	82.51	62.0159
0	75434	82.61	62.2603
0	75525	82.71	62.5047
0	75616	82.81	62.7492
0	75707	82.91	62.9936
0	75801	83.01	63.2381
0	75892	83.11	63.4825
0	75983	83.21	63.7269
0	76074	83.31	63.9714
0	76165	83.41	64.2158
0	76256	83.51	64.4603
0	76347	83.61	64.7047
0	76438	83.71	64.9491
0	76529	83.81	65.1936
0	76620	83.91	65.438
0	76714	84.01	65.6825
0	76805	84.11	65.9269
0	76896	84.21	66.1713
0	76987	84.31	66.4158
0	77078	84.41	66.6602
0	77169	84.51	66.9047
0	77260	84.61	67.1491
0	77351	84.71	67.3935
0	77442	84.81	67.638
0	77533	84.91	67.8824
0	77627	85.01	68.1269
0	77718	85.11	68.3713
0	77809	85.21	68.6157
0	77900	85.31	68.8602
0	77991	85.41	69.1046
0	78082	85.51	69.3491
0	78173	85.61	69.5935
0	78264	85.71	69.8379
0	78355	85.81	70.0824
0	78446	85.91	70.3268
0	78540	86.01	70.5713
0	78631	86.11	70.8157
0	78722	86.21	71.0601
0	78813	86.31	71.3046
0	78904	86.41	71.549
0	78995	86.51	71.7935
0	79086	86.61	72.0379
0	79177	86.71	72.2823
0	79268	86.81	72.5268
0	79359	86.91	72.7712
0	79453	87.01	73.0157
0	79544	87.11	73.2601
0	79635	87.21	73.5045
0	79726	87.31	73.749
0	79817	87.41	73.9934
0	79908	87.51	74.2379
0	79999	87.61	74.4823
0	80090	87.71	74.7267
0	80181	87.81	74.9712
0	80272	87.91	75.2156
0	80366	88.01	75.4601
0	80457	88.11	75.7045
0	80548	88.21	75.9489
0	80639	88.31	76.1934
0	80730	88.41	76.4378
0	80821	88.51	76.6823
0	80912	88.61	76.9267
0	81003	88.71	77.1711
0	81094	88.81	77.4156
0	81185	88.91	77.66
0	81279	89.01	77.9045
0	81370	89.11	78.1489
0	81461	89.21	78.3933
0	81552	89.31	78.6378
0	81643	89.41	78.8822
0	81734	89.51	79.1267
0	81825	89.61	79.3711
0	81916	89.71	79.6155
0	82007	89.81	79.86
0	82098	89.91	80.1044
0	82192	90.01	80.3489
0	82283	90.11	80.5933
0	82374	90.21	80.8377
0	82465	90.31	81.0822
0	82556	90.41	81.3266
0	82647	90.51	81.5711
0	82738	90.61	81.8155
0	82829	90.71	82.0599
0	82920	90.81	82.3044
0	83011	90.91	82.5488
0	83105	91.01	82.7933
0	83196	91.11	83.0377
0	83287	91.21	83.2821
0	83378	91.31	83.5266
0	83469	91.41	83.771
0	83560	91.51	84.0155
0	83651	91.61	84.2599
0	83742	91.71	84.5043
0	83833	91.81	84.7488
0	83924	91.91	84.9932
0	84018	92.01	85.2377
0	84109	92.11	85.4821
0	84200	92.21	85.7265
0	84291	92.31	85.971
0	84382	92.41	86.2154
0	84473	92.51	86.4599
0	84564	92.61	86.7043
0	84655	92.71	86.9487
0	84746	92.81	87.1932
0	84837	92.91	87.4376
0	84931	93.01	87.6821
0	85022	93.11	87.9265
0	85113	93.21	88.1709
0	85204	93.31	88.4154
0	85295	93.41	88.6598
0	85386	93.51	88.9043
0	85477	93.61	89.1487
0	85568	93.71	89.3931
0	85659	93.81	89.6376
0	85750	93.91	89.882
0	85844	94.01	90.1265
0	85935	94.11	90.3709
0	86026	94.21	90.6153
0	86117	94.31	90.8598
0	86208	94.41	91.1042
0	86299	94.51	91.3487
0	86390	94.61	91.5931
0	86481	94.71	91.8375
0	86572	94.81	92.082
0	86663	94.91	92.3264
0	86757	95.01	92.5709
0	86848	95.11	92.8153
0	86939	95.21	93.0597
0	87030	95.31	93.3042
0	87121	95.41	93.5486
0	87212	95.51	93.7931
0	87303	95.61	94.0375
0	87394	95.71	94.2819
0	87485	95.81	94.5264
0	87576	95.91	94.7708
0	87670	96.01	95.0153
0	87761	96.11	95.2597
0	87852	96.21	95.5041
0	87943	96.31	95.7486
0	88034	96.41	95.993
0	88125	96.51	96.2375
0	88216	96.61	96.4819
0	88307	96.71	96.7263
0	88398	96.81	96.9708
0	88489	96.91	97.2152
0	88583	97.01	97.4597
0	88674	97.11	97.7041
0	88765	97.21	97.9485
0	88856	97.31	98.193
0	88947	97.41	98.4374
0	89038	97.51	98.6819
0	89129	97.61	98.9263
0	89220	97.71	99.1707
0	89311	97.81	99.4152
0	89402	97.91	99.6596
0	89496	98.01	99.9041
0	89587	98.11	100.149
0	89678	98.21	100.393
0	89769	98.31	100.637
0	89860	98.41	100.882
0	89951	98.51	101.126
0	90042	98.61	101.371
0	90133	98.71	101.615
0	90224	98.81	101.86
0	90315	98.91	102.104
0	90409	99.01	102.348
0	90500	99.11	102.593
0	90591	99.21	102.837
0	90682	99.31	103.082
0	90773	99.41	103.326
0	90864	99.51	103.571
0	90955	99.61	103.815
0	91046	99.71	104.06
0	91137	99.81	104.304
0	91228	99.91	104.548
1	113	1.11	0
1	204	1.21	0
1	295	1.31	0
1	386	1.41	0
1	477	1.51	0
1	568	1.61	0
1	659	1.71	0
1	750	1.81	0
1	841	1.91	0
1	935	2.01	0
1	1026	2.11	0
1	1117	2.21	0
1	1208	2.31	0
1	1299	2.41	0
1	1390	2.51	0
1	1481	2.61	0
1	1572	2.71	0
1	1663	2.81	0
1	1754	2.91	0
1	1848	3.01	0
1	1939	3.11	0
1	2030	3.21	0
1	2121	3.31	0
1	2212	3.41	0
1	2303	3.51	0
1	2394	3.61	0
1	2485	3.71	0
1	2576	3.81	0
1	2667	3.91	0
1	2761	4.01	0
1	2852	4.11	0
1	2943	4.21	0
1	3034	4.31	0
1	3125	4.41	0
1	3216	4.51	0
1	3307	4.61	0
1	3398	4.71	0
1	3489	4.81	0
1	3580	4.91	0
1	3674	5.01	0
1	3765	5.11	0
1	3856	5.21	0
1	3947	5.31	0
1	4038	5.41	0
1	4129	5.51	0
1	4220	5.61	0
1	4311	5.71	0
1	4402	5.81	0
1	4493	5.91	0
1	4587	6.01	0
1	4678	6.11	0
1	4769	6.21	0
1	4860	6.31	0
1	4951	6.41	0
1	5042	6.51	0
1	5133	6.61	0
1	5224	6.71	0
1	5315	6.81	0
1	5406	6.91	0
1	5500	7.01	0
1	5591	7.11	0
1	5682	7.21	0
1	5773	7.31	0
1	5864	7.41	0
1	5955	7.51	0
1	6046	7.61	0
1	6137	7.71	0
1	6228	7.81	0
1	6319	7.91	0
1	6413	8.01	0
1	6504	8.11	0
1	6595	8.21	0
1	6686	8.31	0
1	6777	8.41	0
1	6868	8.51	0
1	6959	8.61	0
1	7050	8.71	0
1	7141	8.81	0
1	7232	8.91	0
1	7326	9.01	0
1	7417	9.11	0
1	7508	9.21	0
1	7599	9.31	0
1	7690	9.41	0
1	7781	9.51	0
1	7872	9.61	0
1	7963	9.71	0
1	8054	9.81	0
1	8145	9.91	0
1	8268	10.01	0
1	8361	10.11	0
1	8454	10.21	0
1	8547	10.31	0
1	8640	10.41	0
1	8733	10.51	0
1	8826	10.61	0
1	8919	10.71	0
1	9012	10.81	0
1	9105	10.91	0
1	9201	11.01	0
1	9294	11.11	0
1	9387	11.21	0
1	9480	11.31	0
1	9573	11.41	0
1	9666	11.51	0
1	9759	11.61	0
1	9852	11.71	0
1	9945	11.81	0
1	10038	11.91	0
1	10134	12.01	0
1	10227	12.11	0
1	10320	12.21	0
1	10413	12.31	0
1	10506	12.41	0
1	10599	12.51	0
1	10692	12.61	0
1	10785	12.71	0
1	10878	12.81	0
1	10971	12.91	0
1	11067	13.01	0
1	11160	13.11	0
1	11253	13.21	0
1	11346	13.31	0
1	11439	13.41	0
1	11532	13.51	0
1	11625	13.61	0
1	11718	13.71	0
1	11811	13.81	0
1	11904	13.91	0
1	12000	14.01	0
1	12093	14.11	0
1	12186	14.21	0
1	12279	14.31	0
1	12372	14.41	0
1	12465	14.51	0
1	12558	14.61	0
1	12651	14.71	0
1	12744	14.81	0
1	12837	14.91	0
1	12933	15.01	0
1	13026	15.11	0
1	13119	15.21	0
1	13212	15.31	0
1	13305	15.41	0
1	13398	15.51	0
1	13491	15.61	0
1	13584	15.71	0
1	13677	15.81	0
1	13770	15.91	0
1	13866	16.01	0
1	13959	16.11	0
1	14052	16.21	0
1	14145	16.31	0
1	14238	16.41	0
1	14331	16.51	0
1	14424	16.61	0
1	14517	16.71	0
1	14610	16.81	0
1	14703	16.91	0
1	14799	17.01	0
1	14892	17.11	0
1	14985	17.21	0
1	15078	17.31	0
1	15171	17.41	0
1	15264	17.51	0
1	15357	17.61	0
1	15450	17.71	0
1	15543	17.81	0
1	15636	17.91	0
1	15732	18.01	0
1	15825	18.11	0
1	15918	18.21	0
1	16011	18.31	0
1	16104	18.41	0
1	16197	18.51	0
1	16290	18.61	0
1	16383	18.71	0
1	16476	18.81	0
1	16569	18.91	0
1	16665	19.01	0
1	16758	19.11	0
1	16851	19.21	0
1	16944	19.31	0
1	17037	19.41	0
1	17130	19.51	0
1	17223	19.61	0
1	17316	19.71	0
1	17409	19.81	0
1	17502	19.91	0
1	17598	20.01	0
1	17691	20.11	0
1	17784	20.21	0
1	17877	20.31	0
1	17970	20.41	0
1	18063	20.51	0
1	18156	20.61	0
1	18249	20.71	0
1	18342	20.81	0
1	18435	20.91	0
1	18531	21.01	0
1	18624	21.11	0
1	18717	21.21	0
1	18810	21.31	0
1	18903	21.41	0
1	18996	21.51	0
1	19089	21.61	0
1	19182	21.71	0
1	19275	21.81	0
1	19368	21.91	0
1	19464	22.01	0
1	19557	22.11	0
1	19650	22.21	0
1	19743	22.31	0
1	19836	22.41	0
1	19929	22.51	0
1	20022	22.61	0
1	20115	22.71	0
1	20208	22.81	0
1	20301	22.91	0
1	20397	23.01	0
1	20490	23.11	0
1	20583	23.21	0
1	20676	23.31	0
1	20769	23.41	0
1	20862	23.51	0
1	20955	23.61	0
1	21048	23.71	0
1	21141	23.81	0
1	21234	23.91	0
1	21330	24.01	0
1	21423	24.11	0
1	21516	24.21	0
1	21609	24.31	0
1	21702	24.41	0
1	21795	24.51	0
1	21888	24.61	0
1	21981	24.71	0
1	22074	24.81	0
1	22167	24.91	0
1	22263	25.01	0
1	22356	25.11	0
1	22449	25.21	0
1	22542	25.31	0
1	22635	25.41	0
1	22728	25.51	0
1	22821	25.61	0
1	22914	25.71	0
1	23007	25.81	0
1	23100	25.91	0
1	23196	26.01	0
1	23289	26.11	0
1	23382	26.21	0
1	23475	26.31	0
1	23568	26.41	0
1	23661	26.51	0
1	23754	26.61	0
1	23847	26.71	0
1	23940	26.81	0
1	24033	26.91	0
1	24129	27.01	0
1	24222	27.11	0
1	24315	27.21	0
1	24408	27.31	0
1	24501	27.41	0
1	24594	27.51	0
1	24687	27.61	0
1	24780	27.71	0
1	24873	27.81	0
1	24966	27.91	0
1	25062	28.01	0
1	25155	28.11	0
1	25248	28.21	0
1	25341	28.31	0
1	25434	28.41	0
1	25527	28.51	0
1	25620	28.61	0
1	25713	28.71	0
1	25806	28.81	0
1	25899	28.91	0
1	25995	29.01	0
1	26088	29.11	0
1	26181	29.21	0
1	26274	29.31	0
1	26367	29.41	0
1	26460	29.51	0
1	26553	29.61	0
1	26646	29.71	0
1	26739	29.81	0
1	26832	29.91	0
1	26928	30.01	0
1	27021	30.11	0
1	27114	30.21	0
1	27207	30.31	0
1	27300	30.41	0
1	27393	30.51	0
1	27486	30.61	0
1	27579	30.71	0
1	27672	30.81	0
1	27765	30.91	0
1	27861	31.01	0
1	27954	31.11	0
1	28047	31.21	0
1	28140	31.31	0
1	28233	31.41	0
1	28326	31.51	0
1	28419	31.61	0
1	28512	31.71	0
1	28605	31.81	0
1	28698	31.91	0
1	28794	32.01	0
1	28887	32.11	0
1	28980	32.21	0
1	29073	32.31	0
1	29166	32.41	0
1	29259	32.51	0
1	29352	32.61	0
1	29445	32.71	0
1	29538	32.81	0
1	29631	32.91	0
1	29727	33.01	0
1	29820	33.11	0
1	29913	33.21	0
1	30006	33.31	0
1	30099	33.41	0
1	30192	33.51	0
1	30285	33.61	0
1	30378	33.71	0
1	30471	33.81	0
1	30564	33.91	0
1	30660	34.01	0
1	30753	34.11	0
1	30846	34.21	0
1	30939	34.31	0
1	31032	34.41	0
1	31125	34.51	0
1	31218	34.61	0
1	31311	34.71	0
1	31404	34.81	0
1	31497	34.91	0
1	31593	35.01	0
1	31686	35.11	0
1	31779	35.21	0
1	31872	35.31	0
1	31965	35.41	0
1	32058	35.51	0
1	32151	35.61	0
1	32244	35.71	0
1	32337	35.81	0
1	32430	35.91	0
1	32526	36.01	0
1	32619	36.11	0
1	32712	36.21	0
1	32805	36.31	0
1	32898	36.41	0
1	32991	36.51	0
1	33084	36.61	0
1	33177	36.71	0
1	33270	36.81	0
1	33363	36.91	0
1	33459	37.01	0
1	33552	37.11	0
1	33645	37.21	0
1	33738	37.31	0
1	33831	37.41	0
1	33924	37.51	0
1	34017	37.61	0
1	34110	37.71	0
1	34203	37.81	0
1	34296	37.91	0
1	34392	38.01	0
1	34485	38.11	0
1	34578	38.21	0
1	34671	38.31	0
1	34764	38.41	0
1	34857	38.51	0
1	34950	38.61	0
1	35043	38.71	0
1	35136	38.81	0
1	35229	38.91	0
1	35325	39.01	0
1	35418	39.11	0
1	35511	39.21	0
1	35604	39.31	0
1	35697	39.41	0
1	35790	39.51	0
1	35883	39.61	0
1	35976	39.71	0
1	36069	39.81	0
1	36162	39.91	0
1	36258	40.01	0
1	36351	40.11	0
1	36444	40.21	0
1	36537	40.31	0
1	36630	40.41	0
1	36723	40.51	0
1	36816	40.61	0
1	36909	40.71	0
1	37002	40.81	0
1	37095	40.91	0
1	37191	41.01	0
1	37284	41.11	0
1	37377	41.21	0
1	37470	41.31	0
1	37563	41.41	0
1	37656	41.51	0
1	37749	41.61	0
1	37842	41.71	0
1	37935	41.81	0
1	38028	41.91	0
1	38124	42.01	0
1	38217	42.11	0
1	38310	42.21	0
1	38403	42.31	0
1	38496	42.41	0
1	38589	42.51	0
1	38682	42.61	0
1	38818	42.71	0
1	38910	42.81	0
1	39002	42.91	0
1	39097	43.01	0
1	39189	43.11	0
1	39281	43.21	0
1	39373	43.31	0
1	39465	43.41	0
1	39557	43.51	0
1	39649	43.61	0
1	39741	43.71	0
1	39833	43.81	0
1	39925	43.91	0
1	40020	44.01	0
1	40112	44.11	0
1	40204	44.21	0
1	40296	44.31	0
1	40388	44.41	0
1	40480	44.51	0
1	40572	44.61	0
1	40664	44.71	0
1	40756	44.81	0
1	40848	44.91	0
1	40943	45.01	0
1	41035	45.11	0
1	41127	45.21	0
1	41219	45.31	0
1	41311	45.41	0
1	41403	45.51	0
1	41495	45.61	0
1	41587	45.71	0
1	41679	45.81	0
1	41771	45.91	0
1	41866	46.01	0
1	41958	46.11	0
1	42050	46.21	0
1	42142	46.31	0
1	42234	46.41	0
1	42326	46.51	0
1	42418	46.61	0
1	42510	46.71	0
1	42602	46.81	0
1	42694	46.91	0
1	42789	47.01	0
1	42881	47.11	0
1	42973	47.21	0
1	43065	47.31	0
1	43157	47.41	0
1	43249	47.51	0
1	43341	47.61	0
1	43433	47.71	0
1	43525	47.81	0
1	43617	47.91	0
1	43712	48.01	0
1	43804	48.11	0
1	43896	48.21	0
1	43988	48.31	0
1	44080	48.41	0
1	44301	48.51	0
1	44392	48.61	0
1	44483	48.71	0
1	44574	48.81	0
1	44665	48.91	0
1	44759	49.01	0
1	44850	49.11	0
1	44941	49.21	0
1	45032	49.31	0
1	45123	49.41	0
1	45214	49.51	0
1	45305	49.61	0
1	45396	49.71	0
1	45487	49.81	0
1	45578	49.91	0
1	45672	50.01	0
1	45763	50.11	0
1	45854	50.21	0
1	45945	50.31	0
1	46036	50.41	0
1	46127	50.51	0
1	46218	50.61	0
1	46309	50.71	0
1	46400	50.81	0
1	46491	50.91	0
1	46585	51.01	0
1	46676	51.11	0
1	46767	51.21	0
1	46858	51.31	0
1	46949	51.41	0
1	47040	51.51	0
1	47131	51.61	0
1	47222	51.71	0
1	47313	51.81	0
1	47404	51.91	0
1	47498	52.01	0
1	47589	52.11	0
1	47680	52.21	0
1	47771	52.31	0
1	47862	52.41	0
1	47953	52.51	0
1	48044	52.61	0
1	48135	52.71	0
1	48226	52.81	0
1	48317	52.91	0
1	48411	53.01	0
1	48502	53.11	0
1	48593	53.21	0
1	48684	53.31	0
1	48775	53.41	0
1	48866	53.51	0
1	48957	53.61	0
1	49048	53.71	0
1	49139	53.81	0
1	49230	53.91	0
1	49324	54.01	0
1	49415	54.11	0
1	49506	54.21	0
1	49597	54.31	0
1	49688	54.41	0
1	49779	54.51	0
1	49870	54.61	0
1	49961	54.71	0
1	50052	54.81	0
1	50143	54.91	0
1	50237	55.01	0
1	50328	55.11	0
1	50419	55.21	0
1	50510	55.31	0
1	50601	55.41	0
1	50692	55.51	0
1	50783	55.61	0
1	50874	55.71	0
1	50965	55.81	0
1	51056	55.91	0
1	51150	56.01	0
1	51241	56.11	0
1	51332	56.21	0
1	51423	56.31	0
1	51514	56.41	0
1	51605	56.51	0
1	51696	56.61	0
1	51787	56.71	0
1	51878	56.81	0
1	51969	56.91	0
1	52063	57.01	0
1	52154	57.11	0
1	52245	57.21	0
1	52336	57.31	0
1	52427	57.41	0
1	52518	57.51	0
1	52609	57.61	0
1	52700	57.71	0
1	52791	57.81	0
1	52882	57.91	0
1	52976	58.01	0
1	53067	58.11	0
1	53158	58.21	0
1	53249	58.31	0
1	53340	58.41	0
1	53431	58.51	0
1	53522	58.61	0
1	53613	58.71	0
1	53704	58.81	0
1	53795	58.91	0
1	53889	59.01	0
1	53980	59.11	0
1	54071	59.21	0
1	54162	59.31	0
1	54253	59.41	0
1	54344	59.51	0
1	54435	59.61	0
1	54526	59.71	0
1	54617	59.81	0
1	54708	59.91	0
1	54802	60.01	0
1	54893	60.11	0
1	54984	60.21	0
1	55075	60.31	0
1	55166	60.41	0
1	55257	60.51	0
1	55348	60.61	0
1	55439	60.71	0
1	55530	60.81	0
1	55621	60.91	0
1	55715	61.01	0
1	55806	61.11	0
1	55897	61.21	0
1	55988	61.31	0
1	56079	61.41	0
1	56170	61.51	0
1	56261	61.61	0
1	56352	61.71	0
1	56443	61.81	0
1	56534	61.91	0
1	56628	62.01	0
1	56719	62.11	0
1	56810	62.21	0
1	56901	62.31	0
1	56992	62.41	0
1	57083	62.51	0
1	57174	62.61	0
1	57265	62.71	0
1	57356	62.81	0
1	57447	62.91	0
1	57541	63.01	0
1	57632	63.11	0
1	57723	63.21	0
1	57814	63.31	0
1	57905	63.41	0
1	57996	63.51	0
1	58087	63.61	0
1	58178	63.71	0
1	58269	63.81	0
1	58360	63.91	0
1	58454	64.01	0
1	58545	64.11	0
1	58636	64.21	0
1	58727	64.31	0
1	58818	64.41	0
1	58909	64.51	0
1	59000	64.61	0
1	59091	64.71	0
1	59182	64.81	0
1	59273	64.91	0
1	59367	65.01	0
1	59458	65.11	0
1	59549	65.21	0
1	59640	65.31	0
1	59731	65.41	0
1	59822	65.51	0
1	59913	65.61	0
1	60004	65.71	0
1	60095	65.81	0
1	60186	65.91	0
1	60280	66.01	0
1	60371	66.11	2.4444
1	60462	66.21	2.4444
1	60553	66.31	2.4444
1	60644	66.41	2.4444
1	60735	66.51	2.4444
1	60826	66.61	2.4444
1	60917	66.71	2.4444
1	61008	66.81	2.4444
1	61099	66.91	2.4444
1	61193	67.01	2.4444
1	61284	67.11	2.4444
1	61375	67.21	2.4444
1	61466	67.31	2.4444
1	61557	67.41	2.4444
1	61648	67.51	2.4444
1	61739	67.61	2.4444
1	61830	67.71	2.4444
1	61921	67.81	2.4444
1	62012	67.91	2.4444
1	62106	68.01	2.4444
1	62197	68.11	2.4444
1	62288	68.21	2.4444
1	62379	68.31	2.4444
1	62470	68.41	2.4444
1	62561	68.51	2.4444
1	62652	68.61	2.4444
1	62743	68.71	2.4444
1	62834	68.81	2.4444
1	62925	68.91	2.4444
1	63019	69.01	2.4444
1	63110	69.11	2.4444
1	63201	69.21	2.4444
1	63292	69.31	2.4444
1	63383	69.41	2.4444
1	63474	69.51	2.4444
1	63565	69.61	2.4444
1	63656	69.71	2.4444
1	63747	69.81	2.4444
1	63838	69.91	2.4444
1	63932	70.01	2.4444
1	64023	70.11	2.4444
1	64114	70.21	2.4444
1	64205	70.31	2.4444
1	64296	70.41	2.4444
1	64387	70.51	2.4444
1	64478	70.61	2.4444
1	64569	70.71	2.4444
1	64660	70.81	2.4444
1	64751	70.91	2.4444
1	64845	71.01	2.4444
1	64936	71.11	2.4444
1	65027	71.21	2.4444
1	65118	71.31	2.4444
1	65209	71.41	2.4444
1	65300	71.51	2.4444
1	65391	71.61	2.4444
1	65482	71.71	2.4444
1	65573	71.81	2.4444
1	65664	71.91	2.4444
1	65758	72.01	2.4444
1	65849	72.11	2.4444
1	65940	72.21	2.4444
1	66031	72.31	2.4444
1	66122	72.41	2.4444
1	66213	72.51	2.4444
1	66304	72.61	2.4444
1	66395	72.71	2.4444
1	66486	72.81	2.4444
1	66577	72.91	2.4444
1	66671	73.01	2.4444
1	66762	73.11	2.4444
1	66853	73.21	2.4444
1	66944	73.31	2.4444
1	67035	73.41	2.4444
1	67126	73.51	2.4444
1	67217	73.61	2.4444
1	67308	73.71	2.4444
1	67399	73.81	2.4444
1	67490	73.91	2.4444
1	67584	74.01	2.4444
1	67675	74.11	2.4444
1	67766	74.21	2.4444
1	67857	74.31	2.4444
1	67948	74.41	2.4444
1	68039	74.51	2.4444
1	68130	74.61	2.4444
1	68221	74.71	2.4444
1	68312	74.81	2.4444
1	68403	74.91	2.4444
1	68497	75.01	2.4444
1	68588	75.11	2.4444
1	68679	75.21	2.4444
1	68770	75.31	2.4444
1	68861	75.41	2.4444
1	68952	75.51	2.4444
1	69043	75.61	2.4444
1	69134	75.71	2.4444
1	69225	75.81	2.4444
1	69316	75.91	2.4444
1	69410	76.01	2.4444
1	69501	76.11	2.4444
1	69592	76.21	2.4444
1	69683	76.31	2.4444
1	69774	76.41	2.4444
1	69865	76.51	2.4444
1	69956	76.61	2.4444
1	70047	76.71	2.4444
1	70138	76.81	2.4444
1	70229	76.91	2.4444
1	70323	77.01	2.4444
1	70414	77.11	2.4444
1	70505	77.21	2.4444
1	70596	77.31	2.4444
1	70687	77.41	2.4444
1	70778	77.51	2.4444
1	70869	77.61	2.4444
1	70960	77.71	2.4444
1	71051	77.81	2.4444
1	71142	77.91	2.4444
1	71236	78.01	2.4444
1	71327	78.11	2.4444
1	71418	78.21	2.4444
1	71509	78.31	2.4444
1	71600	78.41	2.4444
1	71691	78.51	2.4444
1	71782	78.61	2.4444
1	71873	78.71	2.4444
1	71964	78.81	2.4444
1	72055	78.91	2.4444
1	72149	79.01	2.4444
1	72240	79.11	2.4444
1	72331	79.21	2.4444
1	72422	79.31	2.4444
1	72513	79.41	2.4444
1	72604	79.51	2.4444
1	72695	79.61	2.4444
1	72786	79.71	2.4444
1	72877	79.81	2.4444
1	72968	79.91	2.4444
1	73062	80.01	2.4444
1	73153	80.11	2.4444
1	73244	80.21	2.4444
1	73335	80.31	2.4444
1	73426	80.41	2.4444
1	73517	80.51	2.4444
1	73608	80.61	2.4444
1	73699	80.71	2.4444
1	73790	80.81	2.4444
1	73881	80.91	2.4444
1	73975	81.01	2.4444
1	74066	81.11	2.4444
1	74157	81.21	2.4444
1	74248	81.31	2.4444
1	74339	81.41	2.4444
1	74430	81.51	2.4444
1	74521	81.61	2.4444
1	74612	81.71	2.4444
1	74703	81.81	2.4444
1	74794	81.91	2.4444
1	74888	82.01	2.4444
1	74979	82.11	2.4444
1	75070	82.21	2.4444
1	75161	82.31	2.4444
1	75252	82.41	2.4444
1	75343	82.51	2.4444
1	75434	82.61	2.4444
1	75525	82.71	2.4444
1	75616	82.81	2.4444
1	75707	82.91	2.4444
1	75801	83.01	2.4444
1	75892	83.11	2.4444
1	75983	83.21	2.4444
1	76074	83.31	2.4444
1	76165	83.41	2.4444
1	76256	83.51	2.4444
1	76347	83.61	2.4444
1	76438	83.71	2.4444
1	76529	83.81	2.4444
1	76620	83.91	2.4444
1	76714	84.01	2.4444
1	76805	84.11	2.4444
1	76896	84.21	2.4444
1	76987	84.31	2.4444
1	77078	84.41	2.4444
1	77169	84.51	2.4444
1	77260	84.61	2.4444
1	77351	84.71	2.4444
1	77442	84.81	2.4444
1	77533	84.91	2.4444
1	77627	85.01	2.4444
1	77718	85.11	2.4444
1	77809	85.21	2.4444
1	77900	85.31	2.4444
1	77991	85.41	2.4444
1	78082	85.51	2.4444
1	78173	85.61	2.4444
1	78264	85.71	2.4444
1	78355	85.81	2.4444
1	78446	85.91	2.4444
1	78540	86.01	2.4444
1	78631	86.11	2.4444
1	78722	86.21	2.4444
1	78813	86.31	2.4444
1	78904	86.41	2.4444
1	78995	86.51	2.4444
1	79086	86.61	2.4444
1	79177	86.71	2.4444
1	79268	86.81	2.4444
1	79359	86.91	2.4444
1	79453	87.01	2.4444
1	79544	87.11	2.4444
1	79635	87.21	2.4444
1	79726	87.31	2.4444
1	79817	87.41	2.4444
1	79908	87.51	2.4444
1	79999	87.61	2.4444
1	80090	87.71	2.4444
1	80181	87.81	2.4444
1	80272	87.91	2.4444
1	80366	88.01	2.4444
1	80457	88.11	2.4444
1	80548	88.21	2.4444
1	80639	88.31	2.4444
1	80730	88.41	2.4444
1	80821	88.51	2.4444
1	80912	88.61	2.4444
1	81003	88.71	2.4444
1	81094	88.81	2.4444
1	81185	88.91	2.4444
1	81279	89.01	2.4444
1	81370	89.11	2.4444
1	81461	89.21	2.4444
1	81552	89.31	2.4444
1	81643	89.41	2.4444
1	81734	89.51	2.4444
1	81825	89.61	2.4444
1	81916	89.71	2.4444
1	82007	89.81	2.4444
1	82098	89.91	2.4444
1	82192	90.01	2.4444
1	82283	90.11	2.4444
1	82374	90.21	2.4444
1	82465	90.31	2.4444
1	82556	90.41	2.4444
1	82647	90.51	2.4444
1	82738	90.61	2.4444
1	82829	90.71	2.4444
1	82920	90.81	2.4444
1	83011	90.91	2.4444
1	83105	91.01	2.4444
1	83196	91.11	2.4444
1	83287	91.21	2.4444
1	83378	91.31	2.4444
1	83469	91.41	2.4444
1	83560	91.51	2.4444
1	83651	91.61	2.4444
1	83742	91.71	2.4444
1	83833	91.81	2.4444
1	83924	91.91	2.4444
1	84018	92.01	2.4444
1	84109	92.11	2.4444
1	84200	92.21	2.4444
1	84291	92.31	2.4444
1	84382	92.41	2.4444
1	84473	92.51	2.4444
1	84564	92.61	2.4444
1	84655	92.71	2.4444
1	84746	92.81	2.4444
1	84837	92.91	2.4444
1	84931	93.01	2.4444
1	85022	93.11	2.4444
1	85113	93.21	2.4444
1	85204	93.31	2.4444
1	85295	93.41	2.4444
1	85386	93.51	2.4444
1	85477	93.61	2.4444
1	85568	93.71	2.4444
1	85659	93.81	2.4444
1	85750	93.91	2.4444
1	85844	94.01	2.4444
1	85935	94.11	2.4444
1	86026	94.21	2.4444
1	86117	94.31	2.4444
1	86208	94.41	2.4444
1	86299	94.51	2.4444
1	86390	94.61	2.4444
1	86481	94.71	2.4444
1	86572	94.81	2.4444
1	86663	94.91	2.4444
1	86757	95.01	2.4444
1	86848	95.11	2.4444
1	86939	95.21	2.4444
1	87030	95.31	2.4444
1	87121	95.41	2.4444
1	87212	95.51	2.4444
1	87303	95.61	2.4444
1	87394	95.71	2.4444
1	87485	95.81	2.4444
1	87576	95.91	2.4444
1	87670	96.01	2.4444
1	87761	96.11	2.4444
1	87852	96.21	2.4444
1	87943	96.31	2.4444
1	88034	96.41	2.4444
1	88125	96.51	2.4444
1	88216	96.61	2.4444
1	88307	96.71	2.4444
1	88398	96.81	2.4444
1	88489	96.91	2.4444
1	88583	97.01	2.4444
1	88674	97.11	2.4444
1	88765	97.21	2.4444
1	88856	97.31	2.4444
1	88947	97.41	2.4444
1	89038	97.51	2.4444
1	89129	97.61	2.4444
1	89220	97.71	2.4444
1	89311	97.81	2.4444
1	89402	97.91	2.4444
1	89496	98.01	2.4444
1	89587	98.11	2.4444
1	89678	98.21	2.4444
1	89769	98.31	2.4444
1	89860	98.41	2.4444
1	89951	98.51	2.4444
1	90042	98.61	2.4444
1	90133	98.71	2.4444
1	90224	98.81	2.4444
1	90315	98.91	2.4444
1	90409	99.01	2.4444
1	90500	99.11	2.4444
1	90591	99.21	2.4444
1	90682	99.31	2.4444
1	90773	99.41	2.4444
1	90864	99.51	2.4444
1	90955	99.61	2.4444
1	91046	99.71	2.4444
1	91137	99.81	2.4444
1	91228	99.91	2.4444
2	113	1.11	0
2	204	1.21	0
2	295	1.31	0
2	386	1.41	0
2	477	1.51	0
2	568	1.61	0
2	659	1.71	0
2	750	1.81	0
2	841	1.91	0
2	935	2.01	0
2	1026	2.11	0
2	1117	2.21	0
2	1208	2.31	0
2	1299	2.41	0
2	1390	2.51	0
2	1481	2.61	0
2	1572	2.71	0
2	1663	2.81	0
2	1754	2.91	0
2	1848	3.01	0
2	1939	3.11	0
2	2030	3.21	0
2	2121	3.31	0
2	2212	3.41	0
2	2303	3.51	0
2	2394	3.61	0
2	2485	3.71	0
2	2576	3.81	0
2	2667	3.91	0
2	2761	4.01	0
2	2852	4.11	0
2	2943	4.21	0
2	3034	4.31	0
2	3125	4.41	0
2	3216	4.51	0
2	3307	4.61	0
2	3398	4.71	0
2	3489	4.81	0
2	3580	4.91	0
2	3674	5.01	0
2	3765	5.11	0
2	3856	5.21	0
2	3947	5.31	0
2	4038	5.41	0
2	4129	5.51	0
2	4220	5.61	0
2	4311	5.71	0
2	4402	5.81	0
2	4493	5.91	0
2	4587	6.01	0
2	4678	6.11	0
2	4769	6.21	0
2	4860	6.31	0
2	4951	6.41	0
2	5042	6.51	0
2	5133	6.61	0
2	5224	6.71	0
2	5315	6.81	0
2	5406	6.91	0
2	5500	7.01	0
2	5591	7.11	0
2	5682	7.21	0
2	5773	7.31	0
2	5864	7.41	0
2	5955	7.51	0
2	6046	7.61	0
2	6137	7.71	0
2	6228	7.81	0
2	6319	7.91	0
2	6413	8.01	0
2	6504	8.11	0
2	6595	8.21	0
2	6686	8.31	0
2	6777	8.41	0
2	6868	8.51	0
2	6959	8.61	0
2	7050	8.71	0
2	7141	8.81	0
2	7232	8.91	0
2	7326	9.01	0
2	7417	9.11	0
2	7508	9.21	0
2	7599	9.31	0
2	7690	9.41	0
2	7781	9.51	0
2	7872	9.61	0
2	7963	9.71	0
2	8054	9.81	0
2	8145	9.91	0
2	8268	10.01	0
2	8361	10.11	0
2	8454	10.21	0
2	8547	10.31	0
2	8640	10.41	0
2	8733	10.51	0
2	8826	10.61	0
2	8919	10.71	0
2	9012	10.81	0
2	9105	10.91	0
2	9201	11.01	0
2	9294	11.11	0
2	9387	11.21	0
2	9480	11.31	0
2	9573	11.41	0
2	9666	11.51	0
2	9759	11.61	0
2	9852	11.71	0
2	9945	11.81	0
2	10038	11.91	0
2	10134	12.01	0
2	10227	12.11	0
2	10320	12.21	0
2	10413	12.31	0
2	10506	12.41	0
2	10599	12.51	0
2	10692	12.61	0
2	10785	12.71	0
2	10878	12.81	0
2	10971	12.91	0
2	11067	13.01	0
2	11160	13.11	0
2	11253	13.21	0
2	11346	13.31	0
2	11439	13.41	0
2	11532	13.51	0
2	11625	13.61	0
2	11718	13.71	0
2	11811	13.81	0
2	11904	13.91	0
2	12000	14.01	0
2	12093	14.11	0
2	12186	14.21	0
2	12279	14.31	0
2	12372	14.41	0
2	12465	14.51	0
2	12558	14.61	0
2	12651	14.71	0
2	12744	14.81	0
2	12837	14.91	0
2	12933	15.01	0
2	13026	15.11	0
2	13119	15.21	0
2	13212	15.31	0
2	13305	15.41	0
2	13398	15.51	0
2	13491	15.61	0
2	13584	15.71	0
2	13677	15.81	0
2	13770	15.91	0
2	13866	16.01	0
2	13959	16.11	0
2	14052	16.21	0
2	14145	16.31	0
2	14238	16.41	0
2	14331	16.51	0
2	14424	16.61	0
2	14517	16.71	0
2	14610	16.81	0
2	14703	16.91	0
2	14799	17.01	0
2	14892	17.11	0
2	14985	17.21	0
2	15078	17.31	0
2	15171	17.41	0
2	15264	17.51	0
2	15357	17.61	0
2	15450	17.71	0
2	15543	17.81	0
2	15636	17.91	0
2	15732	18.01	0
2	15825	18.11	0
2	15918	18.21	0
2	16011	18.31	0
2	16104	18.41	0
2	16197	18.51	0
2	16290	18.61	0
2	16383	18.71	0
2	16476	18.81	0
2	16569	18.91	0
2	16665	19.01	0
2	16758	19.11	0
2	16851	19.21	0
2	16944	19.31	0
2	17037	19.41	0
2	17130	19.51	0
2	17223	19.61	0
2	17316	19.71	0
2	17409	19.81	0
2	17502	19.91	0
2	17598	20.01	0
2	17691	20.11	0
2	17784	20.21	0
2	17877	20.31	0
2	17970	20.41	0
2	18063	20.51	0
2	18156	20.61	0
2	18249	20.71	0
2	18342	20.81	0
2	18435	20.91	0
2	18531	21.01	0
2	18624	21.11	0
2	18717	21.21	0
2	18810	21.31	0
2	18903	21.41	0
2	18996	21.51	0
2	19089	21.61	0
2	19182	21.71	0
2	19275	21.81	0
2	19368	21.91	0
2	19464	22.01	0
2	19557	22.11	0
2	19650	22.21	0
2	19743	22.31	0
2	19836	22.41	0
2	19929	22.51	0
2	20022	22.61	0
2	20115	22.71	0
2	20208	22.81	0
2	20301	22.91	0
2	20397	23.01	0
2	20490	23.11	0
2	20583	23.21	0
2	20676	23.31	0
2	20769	23.41	0
2	20862	23.51	0
2	20955	23.61	0
2	21048	23.71	0
2	21141	23.81	0
2	21234	23.91	0
2	21330	24.01	0
2	21423	24.11	0
2	21516	24.21	0
2	21609	24.31	0
2	21702	24.41	0
2	21795	24.51	0
2	21888	24.61	0
2	21981	24.71	0
2	22074	24.81	0
2	22167	24.91	0
2	22263	25.01	0
2	22356	25.11	0
2	22449	25.21	0
2	22542	25.31	0
2	22635	25.41	0
2	22728	25.51	0
2	22821	25.61	0
2	22914	25.71	0
2	23007	25.81	0
2	23100	25.91	0
2	23196	26.01	0
2	23289	26.11	0
2	23382	26.21	0
2	23475	26.31	0
2	23568	26.41	0
2	23661	26.51	0
2	23754	26.61	0
2	23847	26.71	0
2	23940	26.81	0
2	24033	26.91	0
2	24129	27.01	0
2	24222	27.11	0
2	24315	27.21	0
2	24408	27.31	0
2	24501	27.41	0
2	24594	27.51	0
2	24687	27.61	0
2	24780	27.71	0
2	24873	27.81	0
2	24966	27.91	0
2	25062	28.01	0
2	25155	28.11	0
2	25248	28.21	0
2	25341	28.31	0
2	25434	28.41	0
2	25527	28.51	0
2	25620	28.61	0
2	25713	28.71	0
2	25806	28.81	0
2	25899	28.91	0
2	25995	29.01	0
2	26088	29.11	0
2	26181	29.21	0
2	26274	29.31	0
2	26367	29.41	0
2	26460	29.51	0
2	26553	29.61	0
2	26646	29.71	0
2	26739	29.81	0
2	26832	29.91	0
2	26928	30.01	0
2	27021	30.11	0
2	27114	30.21	0
2	27207	30.31	0
2	27300	30.41	0
2	27393	30.51	0
2	27486	30.61	0
2	27579	30.71	0
2	27672	30.81	0
2	27765	30.91	0
2	27861	31.01	0
2	27954	31.11	0
2	28047	31.21	0
2	28140	31.31	0
2	28233	31.41	0
2	28326	31.51	0
2	28419	31.61	0
2	28512	31.71	0
2	28605	31.81	0
2	28698	31.91	0
2	28794	32.01	0
2	28887	32.11	0
2	28980	32.21	0
2	29073	32.31	0
2	29166	32.41	0
2	29259	32.51	0
2	29352	32.61	0
2	29445	32.71	0
2	29538	32.81	0
2	29631	32.91	0
2	29727	33.01	0
2	29820	33.11	0
2	29913	33.21	0
2	30006	33.31	0
2	30099	33.41	0
2	30192	33.51	0
2	30285	33.61	0
2	30378	33.71	0
2	30471	33.81	0
2	30564	33.91	0
2	30660	34.01	0
2	30753	34.11	0
2	30846	34.21	0
2	30939	34.31	0
2	31032	34.41	0
2	31125	34.51	0
2	31218	34.61	0
2	31311	34.71	0
2	31404	34.81	0
2	31497	34.91	0
2	31593	35.01	0
2	31686	35.11	0
2	31779	35.21	0
2	31872	35.31	0
2	31965	35.41	0
2	32058	35.51	0
2	32151	35.61	0
2	32244	35.71	0
2	32337	35.81	0
2	32430	35.91	0
2	32526	36.01	0
2	32619	36.11	0
2	32712	36.21	0
2	32805	36.31	0
2	32898	36.41	0
2	32991	36.51	0
2	33084	36.61	0
2	33177	36.71	0
2	33270	36.81	0
2	33363	36.91	0
2	33459	37.01	0
2	33552	37.11	0
2	33645	37.21	0
2	33738	37.31	0
2	33831	37.41	0
2	33924	37.51	0
2	34017	37.61	0
2	34110	37.71	0
2	34203	37.81	0
2	34296	37.91	0
2	34392	38.01	0
2	34485	38.11	0
2	34578	38.21	0
2	34671	38.31	0
2	34764	38.41	0
2	34857	38.51	0
2	34950	38.61	0
2	35043	38.71	0
2	35136	38.81	0
2	35229	38.91	0
2	35325	39.01	0
2	35418	39.11	0
2	35511	39.21	0
2	35604	39.31	0
2	35697	39.41	0
2	35790	39.51	0
2	35883	39.61	0
2	35976	39.71	0
2	36069	39.81	0
2	36162	39.91	0
2	36258	40.01	0
2	36351	40.11	0
2	36444	40.21	0
2	36537	40.31	0
2	36630	40.41	0
2	36723	40.51	0
2	36816	40.61	0
2	36909	40.71	0
2	37002	40.81	0
2	37095	40.91	0
2	37191	41.01	0
2	37284	41.11	0
2	37377	41.21	0
2	37470	41.31	0
2	37563	41.41	0
2	37656	41.51	0
2	37749	41.61	0
2	37842	41.71	0
2	37935	41.81	0
2	38028	41.91	0
2	38124	42.01	0
2	38217	42.11	0
2	38310	42.21	0
2	38403	42.31	0
2	38496	42.41	0
2	38589	42.51	0
2	38682	42.61	0
2	38818	42.71	0
2	38910	42.81	0
2	39002	42.91	0
2	39097	43.01	0
2	39189	43.11	0
2	39281	43.21	0
2	39373	43.31	0
2	39465	43.41	0
2	39557	43.51	0
2	39649	43.61	0
2	39741	43.71	0
2	39833	43.81	0
2	39925	43.91	0
2	40020	44.01	0
2	40112	44.11	0
2	40204	44.21	0
2	40296	44.31	0
2	40388	44.41	0
2	40480	44.51	0
2	40572	44.61	0
2	40664	44.71	0
2	40756	44.81	0
2	40848	44.91	0
2	40943	45.01	0
2	41035	45.11	0
2	41127	45.21	0
2	41219	45.31	0
2	41311	45.41	0
2	41403	45.51	0
2	41495	45.61	0
2	41587	45.71	0
2	41679	45.81	0
2	41771	45.91	0
2	41866	46.01	0
2	41958	46.11	0
2	42050	46.21	0
2	42142	46.31	0
2	42234	46.41	0
2	42326	46.51	0
2	42418	46.61	0
2	42510	46.71	0
2	42602	46.81	0
2	42694	46.91	0
2	42789	47.01	0
2	42881	47.11	0
2	42973	47.21	0
2	43065	47.31	0
2	43157	47.41	0
2	43249	47.51	0
2	43341	47.61	0
2	43433	47.71	0
2	43525	47.81	0
2	43617	47.91	0
2	43712	48.01	0
2	43804	48.11	0
2	43896	48.21	0
2	43988	48.31	0
2	44080	48.41	0
2	44301	48.51	0
2	44392	48.61	0
2	44483	48.71	0
2	44574	48.81	0
2	44665	48.91	0
2	44759	49.01	0
2	44850	49.11	0
2	44941	49.21	0
2	45032	49.31	0
2	45123	49.41	0
2	45214	49.51	0
2	45305	49.61	0
2	45396	49.71	0
2	45487	49.81	0
2	45578	49.91	0
2	45672	50.01	0
2	45763	50.11	0
2	45854	50.21	0
2	45945	50.31	0
2	46036	50.41	0
2	46127	50.51	0
2	46218	50.61	0
2	46309	50.71	0
2	46400	50.81	0
2	46491	50.91	0
2	46585	51.01	0
2	46676	51.11	0
2	46767	51.21	0
2	46858	51.31	0
2	46949	51.41	0
2	47040	51.51	0
2	47131	51.61	0
2	47222	51.71	0
2	47313	51.81	0
2	47404	51.91	0
2	47498	52.01	0
2	47589	52.11	0
2	47680	52.21	0
2	47771	52.31	0
2	47862	52.41	0
2	47953	52.51	0
2	48044	52.61	0
2	48135	52.71	0
2	48226	52.81	0
2	48317	52.91	0
2	48411	53.01	0
2	48502	53.11	0
2	48593	53.21	0
2	48684	53.31	0
2	48775	53.41	0
2	48866	53.51	0
2	48957	53.61	0
2	49048	53.71	0
2	49139	53.81	0
2	49230	53.91	0
2	49324	54.01	0
2	49415	54.11	0
2	49506	54.21	0
2	49597	54.31	0
2	49688	54.41	0
2	49779	54.51	0
2	49870	54.61	0
2	49961	54.71	0
2	50052	54.81	0
2	50143	54.91	0
2	50237	55.01	0
2	50328	55.11	0
2	50419	55.21	0
2	50510	55.31	0
2	50601	55.41	0
2	50692	55.51	0
2	50783	55.61	0
2	50874	55.71	0
2	50965	55.81	0
2	51056	55.91	0
2	51150	56.01	0
2	51241	56.11	0
2	51332	56.21	0
2	51423	56.31	0
2	51514	56.41	0
2	51605	56.51	0
2	51696	56.61	0
2	51787	56.71	0
2	51878	56.81	0
2	51969	56.91	0
2	52063	57.01	0
2	52154	57.11	0
2	52245	57.21	0
2	52336	57.31	0
2	52427	57.41	0
2	52518	57.51	0
2	52609	57.61	0
2	52700	57.71	0
2	52791	57.81	0
2	52882	57.91	0
2	52976	58.01	0
2	53067	58.11	0
2	53158	58.21	0
2	53249	58.31	0
2	53340	58.41	0
2	53431	58.51	0
2	53522	58.61	0
2	53613	58.71	0
2	53704	58.81	0
2	53795	58.91	0
2	53889	59.01	0
2	53980	59.11	0
2	54071	59.21	0
2	54162	59.31	0
2	54253	59.41	0
2	54344	59.51	0
2	54435	59.61	0
2	54526	59.71	0
2	54617	59.81	0
2	54708	59.91	0
2	54802	60.01	0
2	54893	60.11	0
2	54984	60.21	0
2	55075	60.31	0
2	55166	60.41	0
2	55257	60.51	0
2	55348	60.61	0
2	55439	60.71	0
2	55530	60.81	0
2	55621	60.91	0
2	55715	61.01	0
2	55806	61.11	0
2	55897	61.21	0
2	55988	61.31	0
2	56079	61.41	0
2	56170	61.51	0
2	56261	61.61	0
2	56352	61.71	0
2	56443	61.81	0
2	56534	61.91	0
2	56628	62.01	0
2	56719	62.11	0
2	56810	62.21	0
2	56901	62.31	0
2	56992	62.41	0
2	57083	62.51	0
2	57174	62.61	0
2	57265	62.71	0
2	57356	62.81	0
2	57447	62.91	0
2	57541	63.01	0
2	57632	63.11	0
2	57723	63.21	0
2	57814	63.31	0
2	57905	63.41	0
2	57996	63.51	0
2	58087	63.61	0
2	58178	63.71	0
2	58269	63.81	0
2	58360	63.91	0
2	58454	64.01	0
2	58545	64.11	0
2	58636	64.21	0
2	58727	64.31	0
2	58818	64.41	0
2	58909	64.51	0
2	59000	64.61	0
2	59091	64.71	0
2	59182	64.81	0
2	59273	64.91	0
2	59367	65.01	0
2	59458	65.11	0
2	59549	65.21	0
2	59640	65.31	0
2	59731	65.41	0
2	59822	65.51	0
2	59913	65.61	0
2	60004	65.71	0
2	60095	65.81	0
2	60186	65.91	0
2	60280	66.01	0
2	60371	66.11	0
2	60462	66.21	0
2	60553	66.31	0
2	60644	66.41	0
2	60735	66.51	0
2	60826	66.61	0
2	60917	66.71	0
2	61008	66.81	0
2	61099	66.91	0
2	61193	67.01	0
2	61284	67.11	0
2	61375	67.21	0
2	61466	67.31	0
2	61557	67.41	0
2	61648	67.51	0
2	61739	67.61	0
2	61830	67.71	0
2	61921	67.81	0
2	62012	67.91	0
2	62106	68.01	0
2	62197	68.11	0
2	62288	68.21	0
2	62379	68.31	0
2	62470	68.41	0
2	62561	68.51	0
2	62652	68.61	0
2	62743	68.71	0
2	62834	68.81	0
2	62925	68.91	0
2	63019	69.01	0
2	63110	69.11	0
2	63201	69.21	0
2	63292	69.31	0
2	63383	69.41	0
2	63474	69.51	0
2	63565	69.61	0
2	63656	69.71	0
2	63747	69.81	0
2	63838	69.91	0
2	63932	70.01	0
2	64023	70.11	0
2	64114	70.21	0
2	64205	70.31	0
2	64296	70.41	0
2	64387	70.51	0
2	64478	70.61	0
2	64569	70.71	0
2	64660	70.81	0
2	64751	70.91	0
2	64845	71.01	0
2	64936	71.11	0
2	65027	71.21	0
2	65118	71.31	0
2	65209	71.41	0
2	65300	71.51	0
2	65391	71.61	0
2	65482	71.71	0
2	65573	71.81	0
2	65664	71.91	0
2	65758	72.01	0
2	65849	72.11	0
2	65940	72.21	0
2	66031	72.31	0
2	66122	72.41	0
2	66213	72.51	0
2	66304	72.61	0
2	66395	72.71	0
2	66486	72.81	0
2	66577	72.91	0
2	66671	73.01	0
2	66762	73.11	0
2	66853	73.21	0
2	66944	73.31	0
2	67035	73.41	0
2	67126	73.51	0
2	67217	73.61	0
2	67308	73.71	0
2	67399	73.81	0
2	67490	73.91	0
2	67584	74.01	0
2	67675	74.11	0
2	67766	74.21	0
2	67857	74.31	0
2	67948	74.41	0
2	68039	74.51	0
2	68130	74.61	0
2	68221	74.71	0
2	68312	74.81	0
2	68403	74.91	0
2	68497	75.01	0
2	68588	75.11	0
2	68679	75.21	0
2	68770	75.31	0
2	68861	75.41	0
2	68952	75.51	0
2	69043	75.61	0
2	69134	75.71	0
2	69225	75.81	0
2	69316	75.91	0
2	69410	76.01	0
2	69501	76.11	0
2	69592	76.21	0
2	69683	76.31	0
2	69774	76.41	0
2	69865	76.51	0
2	69956	76.61	0
2	70047	76.71	0
2	70138	76.81	0
2	70229	76.91	0
2	70323	77.01	0
2	70414	77.11	0
2	70505	77.21	0
2	70596	77.31	0
2	70687	77.41	0
2	70778	77.51	0
2	70869	77.61	0
2	70960	77.71	0
2	71051	77.81	0
2	71142	77.91	0
2	71236	78.01	0
2	71327	78.11	0
2	71418	78.21	0
2	71509	78.31	0
2	71600	78.41	0
2	71691	78.51	0
2	71782	78.61	0
2	71873	78.71	0
2	71964	78.81	0
2	72055	78.91	0
2	72149	79.01	0
2	72240	79.11	0
2	72331	79.21	0
2	72422	79.31	0
2	72513	79.41	0
2	72604	79.51	0
2	72695	79.61	0
2	72786	79.71	0
2	72877	79.81	0
2	72968	79.91	0
2	73062	80.01	0
2	73153	80.11	0
2	73244	80.21	0
2	73335	80.31	0
2	73426	80.41	0
2	73517	80.51	0
2	73608	80.61	0
2	73699	80.71	0
2	73790	80.81	0
2	73881	80.91	0
2	73975	81.01	0
2	74066	81.11	0
2	74157	81.21	0
2	74248	81.31	0
2	74339	81.41	0
2	74430	81.51	0
2	74521	81.61	0
2	74612	81.71	0
2	74703	81.81	0
2	74794	81.91	0
2	74888	82.01	0
2	74979	82.11	0
2	75070	82.21	0
2	75161	82.31	0
2	75252	82.41	0
2	75343	82.51	0
2	75434	82.61	0
2	75525	82.71	0
2	75616	82.81	0
2	75707	82.91	0
2	75801	83.01	0
2	75892	83.11	0
2	75983	83.21	0
2	76074	83.31	0
2	76165	83.41	0
2	76256	83.51	0
2	76347	83.61	0
2	76438	83.71	0
2	76529	83.81	0
2	76620	83.91	0
2	76714	84.01	0
2	76805	84.11	0
2	76896	84.21	0
2	76987	84.31	0
2	77078	84.41	0
2	77169	84.51	0
2	77260	84.61	0
2	77351	84.71	0
2	77442	84.81	0
2	77533	84.91	0
2	77627	85.01	0
2	77718	85.11	0
2	77809	85.21	0
2	77900	85.31	0
2	77991	85.41	0
2	78082	85.51	0
2	78173	85.61	0
2	78264	85.71	0
2	78355	85.81	0
2	78446	85.91	0
2	78540	86.01	0
2	78631	86.11	0
2	78722	86.21	0
2	78813	86.31	0
2	78904	86.41	0
2	78995	86.51	0
2	79086	86.61	0
2	79177	86.71	0
2	79268	86.81	0
2	79359	86.91	0
2	79453	87.01	0
2	79544	87.11	0
2	79635	87.21	0
2	79726	87.31	0
2	79817	87.41	0
2	79908	87.51	0
2	79999	87.61	0
2	80090	87.71	0
2	80181	87.81	0
2	80272	87.91	0
2	80366	88.01	0
2	80457	88.11	0
2	80548	88.21	0
2	80639	88.31	0
2	80730	88.41	0
2	80821	88.51	0
2	80912	88.61	0
2	81003	88.71	0
2	81094	88.81	0
2	81185	88.91	0
2	81279	89.01	0
2	81370	89.11	0
2	81461	89.21	0
2	81552	89.31	0
2	81643	89.41	0
2	81734	89.51	0
2	81825	89.61	0
2	81916	89.71	0
2	82007	89.81	0
2	82098	89.91	0
2	82192	90.01	0
2	82283	90.11	0
2	82374	90.21	0
2	82465	90.31	0
2	82556	90.41	0
2	82647	90.51	0
2	82738	90.61	0
2	82829	90.71	0
2	82920	90.81	0
2	83011	90.91	0
2	83105	91.01	0
2	83196	91.11	0
2	83287	91.21	0
2	83378	91.31	0
2	83469	91.41	0
2	83560	91.51	0
2	83651	91.61	0
2	83742	91.71	0
2	83833	91.81	0
2	83924	91.91	0
2	84018	92.01	0
2	84109	92.11	0
2	84200	92.21	0
2	84291	92.31	0
2	84382	92.41	0
2	84473	92.51	0
2	84564	92.61	0
2	84655	92.71	0
2	84746	92.81	0
2	84837	92.91	0
2	84931	93.01	0
2	85022	93.11	0
2	85113	93.21	0
2	85204	93.31	0
2	85295	93.41	0
2	85386	93.51	0
2	85477	93.61	0
2	85568	93.71	0
2	85659	93.81	0
2	85750	93.91	0
2	85844	94.01	0
2	85935	94.11	0
2	86026	94.21	0
2	86117	94.31	0
2	86208	94.41	0
2	86299	94.51	0
2	86390	94.61	0
2	86481	94.71	0
2	86572	94.81	0
2	86663	94.91	0
2	86757	95.01	0
2	86848	95.11	0
2	86939	95.21	0
2	87030	95.31	0
2	87121	95.41	0
2	87212	95.51	0
2	87303	95.61	0
2	87394	95.71	0
2	87485	95.81	0
2	87576	95.91	0
2	87670	96.01	0
2	87761	96.11	0
2	87852	96.21	0
2	87943	96.31	0
2	88034	96.41	0
2	88125	96.51	0
2	88216	96.61	0
2	88307	96.71	0
2	88398	96.81	0
2	88489	96.91	0
2	88583	97.01	0
2	88674	97.11	0
2	88765	97.21	0
2	88856	97.31	0
2	88947	97.41	0
2	89038	97.51	0
2	89129	97.61	0
2	89220	97.71	0
2	89311	97.81	0
2	89402	97.91	0
2	89496	98.01	0
2	89587	98.11	0
2	89678	98.21	0
2	89769	98.31	0
2	89860	98.41	0
2	89951	98.51	0
2	90042	98.61	0
2	90133	98.71	0
2	90224	98.81	0
2	90315	98.91	0
2	90409	99.01	0
2	90500	99.11	0
2	90591	99.21	0
2	90682	99.31	0
2	90773	99.41	0
2	90864	99.51	0
2	90955	99.61	0
2	91046	99.71	0
2	91137	99.81	0
2	91228	99.91	0
3	113	1.11	-0.000716383
3	204	1.21	-0.00136341
3	295	1.31	-0.00186974
3	386	1.41	-0.00225157
3	477	1.51	-0.00252443
3	568	1.61	-0.00270298
3	659	1.71	-0.00280098
3	750	1.81	-0.00283113
3	841	1.91	-0.00280509
3	935	2.01	-0.00273342
3	1026	2.11	-0.00262559
3	1117	2.21	-0.00249005
3	1208	2.31	-0.00233419
3	1299	2.41	-0.00216447
3	1390	2.51	-0.00198642
3	1481	2.61	-0.00180472
3	1572	2.71	-0.0016233
3	1663	2.81	-0.00144536
3	1754	2.91	-0.00127346
3	1848	3.01	-0.0011096
3	1939	3.11	-0.000955278
3	2030	3.21	-0.000811546
3	2121	3.31	-0.00067908
3	2212	3.41	-0.000558232
3	2303	3.51	-0.000449082
3	2394	3.61	-0.000351487
3	2485	3.71	-0.00026512
3	2576	3.81	-0.000189514
3	2667	3.91	-0.000124092
3	2761	4.01	-6.81972e-05
3	2852	4.11	-2.11209e-05
3	2943	4.21	1.78769e-05
3	3034	4.31	4.9548e-05
3	3125	4.41	7.46407e-05
3	3216	4.51	9.38867e-05
3	3307	4.61	0.000107991
3	3398	4.71	0.000117625
3	3489	4.81	0.000123418
3	3580	4.91	0.000125957
3	3674	5.01	0.000125781
3	3765	5.11	0.00012338
3	3856	5.21	0.000119198
3	3947	5.31	0.000113629
3	4038	5.41	0.000107022
3	4129	5.51	9.96832e-05
3	4220	5.61	9.18747e-05
3	4311	5.71	8.38211e-05
3	4402	5.81	7.57109e-05
3	4493	5.91	6.76999e-05
3	4587	6.01	5.99137e-05
3	4678	6.11	5.24518e-05
3	4769	6.21	4.53896e-05
3	4860	6.31	3.87821e-05
3	4951	6.41	3.2666e-05
3	5042	6.51	2.70628e-05
3	5133	6.61	2.19809e-05
3	5224	6.71	1.74176e-05
3	5315	6.81	1.33618e-05
3	5406	6.91	9.79494e-06
3	5500	7.01	6.6932e-06
3	5591	7.11	4.02864e-06
3	5682	7.21	1.77051e-06
3	5773	7.31	-1.13691e-07
3	5864	7.41	-1.65736e-06
3	5955	7.51	-2.89397e-06
3	6046	7.61	-3.85652e-06
3	6137	7.71	-4.57698e-06
3	6228	7.81	-5.08591e-06
3	6319	7.91	-5.41219e-06
3	6413	8.01	-5.58279e-06
3	6504	8.11	-5.6226e-06
3	6595	8.21	-5.55442e-06
3	6686	8.31	-5.39886e-06
3	6777	8.41	-5.17441e-06
3	6868	8.51	-4.89748e-06
3	6959	8.61	-4.58246e-06
3	7050	8.71	-4.24184e-06
3	7141	8.81	-3.88634e-06
3	7232	8.91	-3.52499e-06
3	7326	9.01	-3.16534e-06
3	7417	9.11	-2.81353e-06
3	7508	9.21	-2.47446e-06
3	7599	9.31	-2.15192e-06
3	7690	9.41	-1.84873e-06
3	7781	9.51	-1.56685e-06
3	7872	9.61	-1.30751e-06
3	7963	9.71	-1.0713e-06
3	8054	9.81	-8.58321e-07
3	8145	9.91	-6.68206e-07
3	8268	10.01	-5.0026e-07
3	8361	10.11	-3.53514e-07
3	8454	10.21	-2.2679e-07
3	8547	10.31	-1.18765e-07
3	8640	10.41	-2.80163e-08
3	8733	10.51	4.6931e-08
3	8826	10.61	1.07573e-07
3	8919	10.71	1.55391e-07
3	9012	10.81	1.91831e-07
3	9105	10.91	2.18284e-07
3	9201	11.01	2.3607e-07
3	9294	11.11	2.46427e-07
3	9387	11.21	2.50502e-07
3	9480	11.31	2.49353e-07
3	9573	11.41	2.43938e-07
3	9666	11.51	2.3512e-07
3	9759	11.61	2.23669e-07
3	9852	11.71	2.10264e-07
3	9945	11.81	1.95496e-07
3	10038	11.91	1.79874e-07
3	10134	12.01	1.63833e-07
3	10227	12.11	1.47736e-07
3	10320	12.21	1.3188e-07
3	10413	12.31	1.16508e-07
3	10506	12.41	1.01807e-07
3	10599	12.51	8.79222e-08
3	10692	12.61	7.49541e-08
3	10785	12.71	6.29711e-08
3	10878	12.81	5.20114e-08
3	10971	12.91	4.20883e-08
3	11067	13.01	3.3193e-08
3	11160	13.11	2.53003e-08
3	11253	13.21	1.83718e-08
3	11346	13.31	1.23581e-08
3	11439	13.41	7.20348e-09
3	11532	13.51	2.84537e-09
3	11625	13.61	-7.80886e-10
3	11718	13.71	-3.74136e-09
3	11811	13.81	-6.10285e-09
3	11904	13.91	-7.93072e-09
3	12000	14.01	-9.28821e-09
3	12093	14.11	-1.0235e-08
3	12186	14.21	-1.08283e-08
3	12279	14.31	-1.11211e-08
3	12372	14.41	-1.11612e-08
3	12465	14.51	-1.09946e-08
3	12558	14.61	-1.06599e-08
3	12651	14.71	-1.01945e-08
3	12744	14.81	-9.62999e-09
3	12837	14.91	-8.99405e-09
3	12933	15.01	-8.31086e-09
3	13026	15.11	-7.60103e-09
3	13119	15.21	-6.88338e-09
3	13212	15.31	-6.17071e-09
3	13305	15.41	-5.47544e-09
3	13398	15.51	-4.80682e-09
3	13491	15.61	-4.17266e-09
3	13584	15.71	-3.57687e-09
3	13677	15.81	-3.02443e-09
3	13770	15.91	-2.51674e-09
3	13866	16.01	-2.05489e-09
3	13959	16.11	-1.63958e-09
3	14052	16.21	-1.26903e-09
3	14145	16.31	-9.42535e-10
3	14238	16.41	-6.57963e-10
3	14331	16.51	-4.1247e-10
3	14424	16.61	-2.04636e-10
3	14517	16.71	-2.91323e-11
3	14610	16.81	1.14753e-10
3	14703	16.91	2.30926e-10
3	14799	17.01	3.22231e-10
3	14892	17.11	3.91154e-10
3	14985	17.21	4.40892e-10
3	15078	17.31	4.73577e-10
3	15171	17.41	4.92051e-10
3	15264	17.51	4.98446e-10
3	15357	17.61	4.94893e-10
3	15450	17.71	4.82814e-10
3	15543	17.81	4.6434e-10
3	15636	17.91	4.40892e-10
3	15732	18.01	4.13536e-10
3	15825	18.11	3.83693e-10
3	15918	18.21	3.51719e-10
3	16011	18.31	3.19744e-10
3	16104	18.41	2.8777e-10
3	16197	18.51	2.55795e-10
3	16290	18.61	2.25953e-10
3	16383	18.71	1.97531e-10
3	16476	18.81	1.6982e-10
3	16569	18.91	1.44951e-10
3	16665	19.01	1.21503e-10
3	16758	19.11	1.00187e-10
3	16851	19.21	8.10019e-11
3	16944	19.31	6.32383e-11
3	17037	19.41	4.86722e-11
3	17130	19.51	3.44613e-11
3	17223	19.61	2.34479e-11
3	17316	19.71	1.27898e-11
3	17409	19.81	4.9738e-12
3	17502	19.91	-2.13163e-12
3	17598	20.01	-8.17124e-12
3	17691	20.11	-1.1724e-11
3	17784	20.21	-1.52767e-11
3	17877	20.31	-1.88294e-11
3	17970	20.41	-2.02505e-11
3	18063	20.51	-2.02505e-11
3	18156	20.61	-2.02505e-11
3	18249	20.71	-2.02505e-11
3	18342	20.81	-2.02505e-11
3	18435	20.91	-2.02505e-11
3	18531	21.01	-2.02505e-11
3	18624	21.11	-2.02505e-11
3	18717	21.21	-2.02505e-11
3	18810	21.31	-1.88294e-11
3	18903	21.41	-1.7053e-11
3	18996	21.51	-1.52767e-11
3	19089	21.61	-1.38556e-11
3	19182	21.71	-1.24345e-11
3	19275	21.81	-1.13687e-11
3	19368	21.91	-1.03029e-11
3	19464	22.01	-9.23706e-12
3	19557	22.11	-8.52651e-12
3	19650	22.21	-7.4607e-12
3	19743	22.31	-6.75016e-12
3	19836	22.41	-6.03961e-12
3	19929	22.51	-5.68434e-12
3	20022	22.61	-4.9738e-12
3	20115	22.71	-4.61853e-12
3	20208	22.81	-4.26326e-12
3	20301	22.91	-3.90799e-12
3	20397	23.01	-3.55271e-12
3	20490	23.11	-3.19744e-12
3	20583	23.21	-2.84217e-12
3	20676	23.31	-2.4869e-12
3	20769	23.41	-2.13163e-12
3	20862	23.51	-2.13163e-12
3	20955	23.61	-1.77636e-12
3	21048	23.71	-1.77636e-12
3	21141	23.81	-1.42109e-12
3	21234	23.91	-1.42109e-12
3	21330	24.01	-1.06581e-12
3	21423	24.11	-1.06581e-12
3	21516	24.21	-1.06581e-12
3	21609	24.31	-1.06581e-12
3	21702	24.41	-7.10543e-13
3	21795	24.51	-7.10543e-13
3	21888	24.61	-7.10543e-13
3	21981	24.71	-7.10543e-13
3	22074	24.81	-7.10543e-13
3	22167	24.91	-3.55271e-13
3	22263	25.01	-3.55271e-13
3	22356	25.11	-3.55271e-13
3	22449	25.21	-3.55271e-13
3	22542	25.31	-3.55271e-13
3	22635	25.41	-3.55271e-13
3	22728	25.51	-3.55271e-13
3	22821	25.61	-3.55271e-13
3	22914	25.71	-3.55271e-13
3	23007	25.81	-3.55271e-13
3	23100	25.91	0
3	23196	26.01	0
3	23289	26.11	0
3	23382	26.21	0
3	23475	26.31	0
3	23568	26.41	0
3	23661	26.51	0
3	23754	26.61	0
3	23847	26.71	0
3	23940	26.81	0
3	24033	26.91	0
3	24129	27.01	0
3	24222	27.11	0
3	24315	27.21	0
3	24408	27.31	0
3	24501	27.41	0
3	24594	27.51	0
3	24687	27.61	0
3	24780	27.71	0
3	24873	27.81	0
3	24966	27.91	0
3	25062	28.01	0
3	25155	28.11	0
3	25248	28.21	0
3	25341	28.31	0
3	25434	28.41	0
3	25527	28.51	0
3	25620	28.61	0
3	25713	28.71	0
3	25806	28.81	0
3	25899	28.91	0
3	25995	29.01	0
3	26088	29.11	0
3	26181	29.21	0
3	26274	29.31	0
3	26367	29.41	0
3	26460	29.51	0
3	26553	29.61	0
3	26646	29.71	0
3	26739	29.81	0
3	26832	29.91	0
3	26928	30.01	0
3	27021	30.11	0
3	27114	30.21	0
3	27207	30.31	0
3	27300	30.41	0
3	27393	30.51	0
3	27486	30.61	0
3	27579	30.71	0
3	27672	30.81	0
3	27765	30.91	0
3	27861	31.01	0
3	27954	31.11	0
3	28047	31.21	0
3	28140	31.31	0
3	28233	31.41	0
3	28326	31.51	0
3	28419	31.61	0
3	28512	31.71	0
3	28605	31.81	0
3	28698	31.91	0
3	28794	32.01	0
3	28887	32.11	0
3	28980	32.21	0
3	29073	32.31	0
3	29166	32.41	0
3	29259	32.51	0
3	29352	32.61	0
3	29445	32.71	0
3	29538	32.81	0
3	29631	32.91	0
3	29727	33.01	0
3	29820	33.11	0
3	29913	33.21	0
3	30006	33.31	0
3	30099	33.41	0
3	30192	33.51	0
3	30285	33.61	0
3	30378	33.71	0
3	30471	33.81	0
3	30564	33.91	0
3	30660	34.01	0
3	30753	34.11	0
3	30846	34.21	0
3	30939	34.31	0
3	31032	34.41	0
3	31125	34.51	0
3	31218	34.61	0
3	31311	34.71	0
3	31404	34.81	0
3	31497	34.91	0
3	31593	35.01	0
3	31686	35.11	0
3	31779	35.21	0
3	31872	35.31	0
3	31965	35.41	0
3	32058	35.51	0
3	32151	35.61	0
3	32244	35.71	0
3	32337	35.81	0
3	32430	35.91	0
3	32526	36.01	0
3	32619	36.11	0
3	32712	36.21	0
3	32805	36.31	0
3	32898	36.41	0
3	32991	36.51	0
3	33084	36.61	0
3	33177	36.71	0
3	33270	36.81	0
3	33363	36.91	0
3	33459	37.01	0
3	33552	37.11	0
3	33645	37.21	0
3	33738	37.31	0
3	33831	37.41	0
3	33924	37.51	0
3	34017	37.61	0
3	34110	37.71	0
3	34203	37.81	0
3	34296	37.91	0
3	34392	38.01	0
3	34485	38.11	0
3	34578	38.21	0
3	34671	38.31	0
3	34764	38.41	0
3	34857	38.51	0
3	34950	38.61	0
3	35043	38.71	0
3	35136	38.81	0
3	35229	38.91	0
3	35325	39.01	0
3	35418	39.11	0
3	35511	39.21	0
3	35604	39.31	0
3	35697	39.41	0
3	35790	39.51	0
3	35883	39.61	0
3	35976	39.71	0
3	36069	39.81	0
3	36162	39.91	0
3	36258	40.01	0
3	36351	40.11	0
3	36444	40.21	0
3	36537	40.31	0
3	36630	40.41	0
3	36723	40.51	0
3	36816	40.61	0
3	36909	40.71	0
3	37002	40.81	0
3	37095	40.91	0
3	37191	41.01	0
3	37284	41.11	0
3	37377	41.21	0
3	37470	41.31	0
3	37563	41.41	0
3	37656	41.51	0
3	37749	41.61	0
3	37842	41.71	0
3	37935	41.81	0
3	38028	41.91	0
3	38124	42.01	0
3	38217	42.11	0
3	38310	42.21	0
3	38403	42.31	0
3	38496	42.41	0
3	38589	42.51	0
3	38682	42.61	0
3	38818	42.71	0
3	38910	42.81	0
3	39002	42.91	0
3	39097	43.01	0
3	39189	43.11	0
3	39281	43.21	0
3	39373	43.31	0
3	39465	43.41	0
3	39557	43.51	0
3	39649	43.61	0
3	39741	43.71	0
3	39833	43.81	0
3	39925	43.91	0
3	40020	44.01	0
3	40112	44.11	0
3	40204	44.21	0
3	40296	44.31	0
3	40388	44.41	0
3	40480	44.51	0
3	40572	44.61	0
3	40664	44.71	0
3	40756	44.81	0
3	40848	44.91	0
3	40943	45.01	0
3	41035	45.11	0
3	41127	45.21	0
3	41219	45.31	0
3	41311	45.41	0
3	41403	45.51	0
3	41495	45.61	0
3	41587	45.71	0
3	41679	45.81	0
3	41771	45.91	0
3	41866	46.01	0
3	41958	46.11	0
3	42050	46.21	0
3	42142	46.31	0
3	42234	46.41	0
3	42326	46.51	0
3	42418	46.61	0
3	42510	46.71	0
3	42602	46.81	0
3	42694	46.91	0
3	42789	47.01	0
3	42881	47.11	0
3	42973	47.21	0
3	43065	47.31	0
3	43157	47.41	0
3	43249	47.51	0
3	43341	47.61	0
3	43433	47.71	0
3	43525	47.81	0
3	43617	47.91	0
3	43712	48.01	0
3	43804	48.11	0
3	43896	48.21	0
3	43988	48.31	0
3	44080	48.41	0
3	44301	48.51	0
3	44392	48.61	0
3	44483	48.71	0
3	44574	48.81	0
3	44665	48.91	0
3	44759	49.01	0
3	44850	49.11	0
3	44941	49.21	0
3	45032	49.31	0
3	45123	49.41	0
3	45214	49.51	0
3	45305	49.61	0
3	45396	49.71	0
3	45487	49.81	0
3	45578	49.91	0
3	45672	50.01	0
3	45763	50.11	0
3	45854	50.21	0
3	45945	50.31	0
3	46036	50.41	0
3	46127	50.51	0
3	46218	50.61	0
3	46309	50.71	0
3	46400	50.81	0
3	46491	50.91	0
3	46585	51.01	0
3	46676	51.11	0
3	46767	51.21	0
3	46858	51.31	0
3	46949	51.41	0
3	47040	51.51	0
3	47131	51.61	0
3	47222	51.71	0
3	47313	51.81	0
3	47404	51.91	0
3	47498	52.01	0
3	47589	52.11	0
3	47680	52.21	0
3	47771	52.31	0
3	47862	52.41	0
3	47953	52.51	0
3	48044	52.61	0
3	48135	52.71	0
3	48226	52.81	0
3	48317	52.91	0
3	48411	53.01	0
3	48502	53.11	0
3	48593	53.21	0
3	48684	53.31	0
3	48775	53.41	0
3	48866	53.51	0
3	48957	53.61	0
3	49048	53.71	0
3	49139	53.81	0
3	49230	53.91	0
3	49324	54.01	0
3	49415	54.11	0
3	49506	54.21	0
3	49597	54.31	0
3	49688	54.41	0
3	49779	54.51	0
3	49870	54.61	0
3	49961	54.71	0
3	50052	54.81	0
3	50143	54.91	0
3	50237	55.01	0
3	50328	55.11	0
3	50419	55.21	0
3	50510	55.31	0
3	50601	55.41	0
3	50692	55.51	0
3	50783	55.61	0
3	50874	55.71	0
3	50965	55.81	0
3	51056	55.91	0
3	51150	56.01	0
3	51241	56.11	0
3	51332	56.21	0
3	51423	56.31	0
3	51514	56.41	0
3	51605	56.51	0
3	51696	56.61	0
3	51787	56.71	0
3	51878	56.81	0
3	51969	56.91	0
3	52063	57.01	0
3	52154	57.11	0
3	52245	57.21	0
3	52336	57.31	0
3	52427	57.41	0
3	52518	57.51	0
3	52609	57.61	0
3	52700	57.71	0
3	52791	57.81	0
3	52882	57.91	0
3	52976	58.01	0
3	53067	58.11	0
3	53158	58.21	0
3	53249	58.31	0
3	53340	58.41	0
3	53431	58.51	0
3	53522	58.61	0
3	53613	58.71	0
3	53704	58.81	0
3	53795	58.91	0
3	53889	59.01	0
3	53980	59.11	0
3	54071	59.21	0
3	54162	59.31	0
3	54253	59.41	0
3	54344	59.51	0
3	54435	59.61	0
3	54526	59.71	0
3	54617	59.81	0
3	54708	59.91	0
3	54802	60.01	0
3	54893	60.11	0
3	54984	60.21	0
3	55075	60.31	0
3	55166	60.41	0
3	55257	60.51	0
3	55348	60.61	0
3	55439	60.71	0
3	55530	60.81	0
3	55621	60.91	0
3	55715	61.01	0
3	55806	61.11	0
3	55897	61.21	0
3	55988	61.31	0
3	56079	61.41	0
3	56170	61.51	0
3	56261	61.61	0
3	56352	61.71	0
3	56443	61.81	0
3	56534	61.91	0
3	56628	62.01	0
3	56719	62.11	0
3	56810	62.21	0
3	56901	62.31	0
3	56992	62.41	0
3	57083	62.51	0
3	57174	62.61	0
3	57265	62.71	0
3	57356	62.81	0
3	57447	62.91	0
3	57541	63.01	0
3	57632	63.11	0
3	57723	63.21	0
3	57814	63.31	0
3	57905	63.41	0
3	57996	63.51	0
3	58087	63.61	0
3	58178	63.71	0
3	58269	63.81	0
3	58360	63.91	0
3	58454	64.01	0
3	58545	64.11	0
3	58636	64.21	0
3	58727	64.31	0
3	58818	64.41	0
3	58909	64.51	0
3	59000	64.61	0
3	59091	64.71	0
3	59182	64.81	0
3	59273	64.91	0
3	59367	65.01	0
3	59458	65.11	0
3	59549	65.21	0
3	59640	65.31	0
3	59731	65.41	0
3	59822	65.51	0
3	59913	65.61	0
3	60004	65.71	0
3	60095	65.81	0
3	60186	65.91	0
3	60280	66.01	0
3	60371	66.11	0
3	60462	66.21	0
3	60553	66.31	0
3	60644	66.41	0
3	60735	66.51	0
3	60826	66.61	0
3	60917	66.71	0
3	61008	66.81	0
3	61099	66.91	0
3	61193	67.01	0
3	61284	67.11	0
3	61375	67.21	0
3	61466	67.31	0
3	61557	67.41	0
3	61648	67.51	0
3	61739	67.61	0
3	61830	67.71	0
3	61921	67.81	0
3	62012	67.91	0
3	62106	68.01	0
3	62197	68.11	0
3	62288	68.21	0
3	62379	68.31	0
3	62470	68.41	0
3	62561	68.51	0
3	62652	68.61	0
3	62743	68.71	0
3	62834	68.81	0
3	62925	68.91	0
3	63019	69.01	0
3	63110	69.11	0
3	63201	69.21	0
3	63292	69.31	0
3	63383	69.41	0
3	63474	69.51	0
3	63565	69.61	0
3	63656	69.71	0
3	63747	69.81	0
3	63838	69.91	0
3	63932	70.01	0
3	64023	70.11	0
3	64114	70.21	0
3	64205	70.31	0
3	64296	70.41	0
3	64387	70.51	0
3	64478	70.61	0
3	64569	70.71	0
3	64660	70.81	0
3	64751	70.91	0
3	64845	71.01	0
3	64936	71.11	0
3	65027	71.21	0
3	65118	71.31	0
3	65209	71.41	0
3	65300	71.51	0
3	65391	71.61	0
3	65482	71.71	0
3	65573	71.81	0
3	65664	71.91	0
3	65758	72.01	0
3	65849	72.11	0
3	65940	72.21	0
3	66031	72.31	0
3	66122	72.41	0
3	66213	72.51	0
3	66304	72.61	0
3	66395	72.71	0
3	66486	72.81	0
3	66577	72.91	0
3	66671	73.01	0
3	66762	73.11	0
3	66853	73.21	0
3	66944	73.31	0
3	67035	73.41	0
3	67126	73.51	0
3	67217	73.61	0
3	67308	73.71	0
3	67399	73.81	0
3	67490	73.91	0
3	67584	74.01	0
3	67675	74.11	0
3	67766	74.21	0
3	67857	74.31	0
3	67948	74.41	0
3	68039	74.51	0
3	68130	74.61	0
3	68221	74.71	0
3	68312	74.81	0
3	68403	74.91	0
3	68497	75.01	0
3	68588	75.11	0
3	68679	75.21	0
3	68770	75.31	0
3	68861	75.41	0
3	68952	75.51	0
3	69043	75.61	0
3	69134	75.71	0
3	69225	75.81	0
3	69316	75.91	0
3	69410	76.01	0
3	69501	76.11	0
3	69592	76.21	0
3	69683	76.31	0
3	69774	76.41	0
3	69865	76.51	0
3	69956	76.61	0
3	70047	76.71	0
3	70138	76.81	0
3	70229	76.91	0
3	70323	77.01	0
3	70414	77.11	0
3	70505	77.21	0
3	70596	77.31	0
3	70687	77.41	0
3	70778	77.51	0
3	70869	77.61	0
3	70960	77.71	0
3	71051	77.81	0
3	71142	77.91	0
3	71236	78.01	0
3	71327	78.11	0
3	71418	78.21	0
3	71509	78.31	0
3	71600	78.41	0
3	71691	78.51	0
3	71782	78.61	0
3	71873	78.71	0
3	71964	78.81	0
3	72055	78.91	0
3	72149	79.01	0
3	72240	79.11	0
3	72331	79.21	0
3	72422	79.31	0
3	72513	79.41	0
3	72604	79.51	0
3	72695	79.61	0
3	72786	79.71	0
3	72877	79.81	0
3	72968	79.91	0
3	73062	80.01	0
3	73153	80.11	0
3	73244	80.21	0
3	73335	80.31	0
3	73426	80.41	0
3	73517	80.51	0
3	73608	80.61	0
3	73699	80.71	0
3	73790	80.81	0
3	73881	80.91	0
3	73975	81.01	0
3	74066	81.11	0
3	74157	81.21	0
3	74248	81.31	0
3	74339	81.41	0
3	74430	81.51	0
3	74521	81.61	0
3	74612	81.71	0
3	74703	81.81	0
3	74794	81.91	0
3	74888	82.01	0
3	74979	82.11	0
3	75070	82.21	0
3	75161	82.31	0
3	75252	82.41	0
3	75343	82.51	0
3	75434	82.61	0
3	75525	82.71	0
3	75616	82.81	0
3	75707	82.91	0
3	75801	83.01	0
3	75892	83.11	0
3	75983	83.21	0
3	76074	83.31	0
3	76165	83.41	0
3	76256	83.51	0
3	76347	83.61	0
3	76438	83.71	0
3	76529	83.81	0
3	76620	83.91	0
3	76714	84.01	0
3	76805	84.11	0
3	76896	84.21	0
3	76987	84.31	0
3	77078	84.41	0
3	77169	84.51	0
3	77260	84.61	0
3	77351	84.71	0
3	77442	84.81	0
3	77533	84.91	0
3	77627	85.01	0
3	77718	85.11	0
3	77809	85.21	0
3	77900	85.31	0
3	77991	85.41	0
3	78082	85.51	0
3	78173	85.61	0
3	78264	85.71	0
3	78355	85.81	0
3	78446	85.91	0
3	78540	86.01	0
3	78631	86.11	0
3	78722	86.21	0
3	78813	86.31	0
3	78904	86.41	0
3	78995	86.51	0
3	79086	86.61	0
3	79177	86.71	0
3	79268	86.81	0
3	79359	86.91	0
3	79453	87.01	0
3	79544	87.11	0
3	79635	87.21	0
3	79726	87.31	0
3	79817	87.41	0
3	79908	87.51	0
3	79999	87.61	0
3	80090	87.71	0
3	80181	87.81	0
3	80272	87.91	0
3	80366	88.01	0
3	80457	88.11	0
3	80548	88.21	0
3	80639	88.31	0
3	80730	88.41	0
3	80821	88.51	0
3	80912	88.61	0
3	81003	88.71	0
3	81094	88.81	0
3	81185	88.91	0
3	81279	89.01	0
3	81370	89.11	0
3	81461	89.21	0
3	81552	89.31	0
3	81643	89.41	0
3	81734	89.51	0
3	81825	89.61	0
3	81916	89.71	0
3	82007	89.81	0
3	82098	89.91	0
3	82192	90.01	0
3	82283	90.11	0
3	82374	90.21	0
3	82465	90.31	0
3	82556	90.41	0
3	82647	90.51	0
3	82738	90.61	0
3	82829	90.71	0
3	82920	90.81	0
3	83011	90.91	0
3	83105	91.01	0
3	83196	91.11	0
3	83287	91.21	0
3	83378	91.31	0
3	83469	91.41	0
3	83560	91.51	0
3	83651	91.61	0
3	83742	91.71	0
3	83833	91.81	0
3	83924	91.91	0
3	84018	92.01	0
3	84109	92.11	0
3	84200	92.21	0
3	84291	92.31	0
3	84382	92.41	0
3	84473	92.51	0
3	84564	92.61	0
3	84655	92.71	0
3	84746	92.81	0
3	84837	92.91	0
3	84931	93.01	0
3	85022	93.11	0
3	85113	93.21	0
3	85204	93.31	0
3	85295	93.41	0
3	85386	93.51	0
3	85477	93.61	0
3	85568	93.71	0
3	85659	93.81	0
3	85750	93.91	0
3	85844	94.01	0
3	85935	94.11	0
3	86026	94.21	0
3	86117	94.31	0
3	86208	94.41	0
3	86299	94.51	0
3	86390	94.61	0
3	86481	94.71	0
3	86572	94.81	0
3	86663	94.91	0
3	86757	95.01	0
3	86848	95.11	0
3	86939	95.21	0
3	87030	95.31	0
3	87121	95.41	0
3	87212	95.51	0
3	87303	95.61	0
3	87394	95.71	0
3	87485	95.81	0
3	87576	95.91	0
3	87670	96.01	0
3	87761	96.11	0
3	87852	96.21	0
3	87943	96.31	0
3	88034	96.41	0
3	88125	96.51	0
3	88216	96.61	0
3	88307	96.71	0
3	88398	96.81	0
3	88489	96.91	0
3	88583	97.01	0
3	88674	97.11	0
3	88765	97.21	0
3	88856	97.31	0
3	88947	97.41	0
3	89038	97.51	0
3	89129	97.61	0
3	89220	97.71	0
3	89311	97.81	0
3	89402	97.91	0
3	89496	98.01	0
3	89587	98.11	0
3	89678	98.21	0
3	89769	98.31	0
3	89860	98.41	0
3	89951	98.51	0
3	90042	98.61	0
3	90133	98.71	0
3	90224	98.81	0
3	90315	98.91	0
3	90409	99.01	0
3	90500	99.11	0
3	90591	99.21	0
3	90682	99.31	0
3	90773	99.41	0
3	90864	99.51	0
3	90955	99.61	0
3	91046	99.71	0
3	91137	99.81	0
3	91228	99.91	0
4	113	1.11	-0.00437036
4	204	1.21	-0.00426837
4	295	1.31	-0.00410815
4	386	1.41	-0.00390303
4	477	1.51	-0.00366476
4	568	1.61	-0.00340356
4	659	1.71	-0.00312825
4	750	1.81	-0.00284628
4	841	1.91	-0.00256392
4	935	2.01	-0.0022863
4	1026	2.11	-0.00201755
4	1117	2.21	-0.00176089
4	1208	2.31	-0.00151876
4	1299	2.41	-0.00129289
4	1390	2.51	-0.00108441
4	1481	2.61	-0.00089393
4	1572	2.71	-0.000721638
4	1663	2.81	-0.000567355
4	1754	2.91	-0.000430614
4	1848	3.01	-0.000310715
4	1939	3.11	-0.000206783
4	2030	3.21	-0.000117814
4	2121	3.31	-4.27149e-05
4	2212	3.41	1.96584e-05
4	2303	3.51	7.04736e-05
4	2394	3.61	0.000110896
4	2485	3.71	0.000142067
4	2576	3.81	0.00016509
4	2667	3.91	0.000181016
4	2761	4.01	0.000190834
4	2852	4.11	0.000195466
4	2943	4.21	0.00019576
4	3034	4.31	0.000192489
4	3125	4.41	0.000186354
4	3216	4.51	0.000177979
4	3307	4.61	0.000167916
4	3398	4.71	0.000156649
4	3489	4.81	0.000144597
4	3580	4.91	0.000132116
4	3674	5.01	0.000119508
4	3765	5.11	0.000107021
4	3856	5.21	9.48587e-05
4	3947	5.31	8.31796e-05
4	4038	5.41	7.21068e-05
4	4129	5.51	6.17299e-05
4	4220	5.61	5.21101e-05
4	4311	5.71	4.32839e-05
4	4402	5.81	3.52669e-05
4	4493	5.91	2.80577e-05
4	4587	6.01	2.16404e-05
4	4678	6.11	1.59878e-05
4	4769	6.21	1.1064e-05
4	4860	6.31	6.82631e-06
4	4951	6.41	3.22748e-06
4	5042	6.51	2.17307e-07
4	5133	6.61	-2.25598e-06
4	5224	6.71	-4.24448e-06
4	5315	6.81	-5.79961e-06
4	5406	6.91	-6.97134e-06
4	5500	7.01	-7.80753e-06
4	5591	7.11	-8.35346e-06
4	5682	7.21	-8.65149e-06
4	5773	7.31	-8.7408e-06
4	5864	7.41	-8.6573e-06
4	5955	7.51	-8.43352e-06
4	6046	7.61	-8.09868e-06
4	6137	7.71	-7.67874e-06
4	6228	7.81	-7.19651e-06
4	6319	7.91	-6.67185e-06
4	6413	8.01	-6.12177e-06
4	6504	8.11	-5.56072e-06
4	6595	8.21	-5.00073e-06
4	6686	8.31	-4.45164e-06
4	6777	8.41	-3.92136e-06
4	6868	8.51	-3.41601e-06
4	6959	8.61	-2.94018e-06
4	7050	8.71	-2.4971e-06
4	7141	8.81	-2.08883e-06
4	7232	8.91	-1.71644e-06
4	7326	9.01	-1.38016e-06
4	7417	9.11	-1.07955e-06
4	7508	9.21	-8.13576e-07
4	7599	9.31	-5.80794e-07
4	7690	9.41	-3.79414e-07
4	7781	9.51	-2.07408e-07
4	7872	9.61	-6.25825e-08
4	7963	9.71	5.73472e-08
4	8054	9.81	1.54703e-07
4	8145	9.91	2.31794e-07
4	8268	10.01	2.90877e-07
4	8361	10.11	3.3413e-07
4	8454	10.21	3.63618e-07
4	8547	10.31	3.81288e-07
4	8640	10.41	3.88944e-07
4	8733	10.51	3.88249e-07
4	8826	10.61	3.80715e-07
4	8919	10.71	3.67706e-07
4	9012	10.81	3.50439e-07
4	9105	10.91	3.29989e-07
4	9201	11.01	3.07294e-07
4	9294	11.11	2.83164e-07
4	9387	11.21	2.58291e-07
4	9480	11.31	2.33253e-07
4	9573	11.41	2.0853e-07
4	9666	11.51	1.84509e-07
4	9759	11.61	1.61493e-07
4	9852	11.71	1.39716e-07
4	9945	11.81	1.19345e-07
4	10038	11.91	1.00493e-07
4	10134	12.01	8.32259e-08
4	10227	12.11	6.75676e-08
4	10320	12.21	5.35106e-08
4	10413	12.31	4.10193e-08
4	10506	12.41	3.00361e-08
4	10599	12.51	2.04874e-08
[...]
31	71480	78.297786021816	2
31	71571	78.39779106692	2
31	71662	78.497783115359	2
31	71753	78.597788167134	2
31	71844	78.697793222245	2
31	71935	78.797785280692	2
31	72026	78.897790342474	2
31	72117	78.997795407592	2
31	72211	79.097787476045	2
31	72302	79.197792547833	2
31	72393	79.297784622958	2
31	72484	79.397789701418	2
31	72575	79.497794783214	2
31	72666	79.597786868345	2
31	72757	79.697791956812	2
31	72848	79.797784048615	2
31	72939	79.897789143754	2
31	73030	79.997794242228	2
31	73124	80.097786344038	2
31	73215	80.197791449183	2
31	73306	80.297783557663	2
31	73397	80.39778866948	2
31	73488	80.497793784632	2
31	73579	80.59778590312	2
31	73670	80.697791024943	2
31	73761	80.797783150102	2
31	73852	80.897788278597	2
31	73943	80.997793410428	2
31	74037	81.097785545594	2
31	74128	81.197790684097	2
31	74219	81.297795825934	2
31	74310	81.397787971107	2
31	74401	81.497793119616	2
31	74492	81.59778527146	2
31	74583	81.69779042664	2
31	74674	81.797795585155	2
31	74765	81.897787747006	2
31	74856	81.997792912193	2
31	74950	82.097785080716	2
31	75041	82.197790252574	2
31	75132	82.297795427769	2
31	75223	82.397787606298	2
31	75314	82.497792788163	2
31	75405	82.597784973364	2
31	75496	82.6977901619	2
31	75587	82.797795353772	2
31	75678	82.897787548979	2
31	75769	82.997792747522	2
31	75863	83.097784949401	2
31	75954	83.197790154616	2
31	76045	83.297795363166	2
31	76136	83.397787575053	2
31	76227	83.497792790274	2
31	76318	83.597785008831	2
31	76409	83.697790230724	2
31	76500	83.797795455952	2
31	76591	83.897787684516	2
31	76682	83.997792916415	2
31	76776	84.09778515165	2
31	76867	84.197790390221	2
31	76958	84.297795632128	2
31	77049	84.39778787737	2
31	77140	84.497793125949	2
31	77231	84.597785377862	2
31	77322	84.697790633111	2
31	77413	84.797795891696	2
31	77504	84.897788153616	2
31	77595	84.997793418873	2
31	77689	85.097785687465	2
31	77780	85.197790959392	2
31	77871	85.297783234655	2
31	77962	85.397788513254	2
31	78053	85.497793795188	2
31	78144	85.597786080459	2
31	78235	85.697791369064	2
31	78326	85.797783661005	2
31	78417	85.897788956282	2
31	78508	85.997794254894	2
31	78602	86.097786556843	2
31	78693	86.197791862127	2
31	78784	86.297784170746	2
31	78875	86.397789482701	2
31	78966	86.497794797992	2
31	79057	86.597787116618	2
31	79148	86.697792438581	2
31	79239	86.797784763878	2
31	79330	86.897790092511	2
31	79421	86.99779542448	2
31	79515	87.097787759785	2
31	79606	87.197793098426	2
31	79697	87.297785440402	2
31	79788	87.397790785713	2
31	79879	87.49778313436	2
31	79970	87.597788486343	2
31	80061	87.697793841661	2
31	80152	87.797786200316	2
31	80243	87.897791562305	2
31	80334	87.99778392763	2
31	80428	88.097789296291	2
31	80519	88.197794668288	2
31	80610	88.297787043621	2
31	80701	88.397792422289	2
31	80792	88.497784804292	2
31	80883	88.597790189631	2
31	80974	88.697795578306	2
31	81065	88.797787970316	2
31	81156	88.897793365663	2
31	81247	88.997785764345	2
31	81341	89.097791166362	2
31	81432	89.197783571715	2
31	81523	89.297788980404	2
31	81614	89.397794392429	2
31	81705	89.497786807789	2
31	81796	89.597792226484	2
31	81887	89.697784648515	2
31	81978	89.797790073882	2
31	82069	89.897795502584	2
31	82160	89.997787934623	2
31	82254	90.097793369997	2
31	82345	90.197785808706	2
31	82436	90.297791250751	2
31	82527	90.397783696132	2
31	82618	90.497789144849	2
31	82709	90.597794596901	2
31	82800	90.697787052288	2
31	82891	90.797792511011	2
31	82982	90.89778497307	2
31	83073	90.997790438464	2
31	83167	91.097795907195	2
31	83258	91.197788379261	2
31	83349	91.297793854662	2
31	83440	91.397786333399	2
31	83531	91.497791815472	2
31	83622	91.597784300881	2
31	83713	91.697789789626	2
31	83804	91.797795281705	2
31	83895	91.89778777712	2
31	83986	91.997793275871	2
31	84080	92.097785777957	2
31	84171	92.19779128338	2
31	84262	92.297783792138	2
31	84353	92.397789304231	2
31	84444	92.49779481966	2
31	84535	92.597787338425	2
31	84626	92.697792860526	2
31	84717	92.797785385963	2
31	84808	92.897790914735	2
31	84899	92.997783446842	2
31	84993	93.097788982285	2
31	85084	93.197794521063	2
31	85175	93.297787063178	2
31	85266	93.397792608628	2
31	85357	93.497785157413	2
31	85448	93.597790709534	2
31	85539	93.697783264991	2
31	85630	93.797788823784	2
31	85721	93.897794385913	2
31	85812	93.997786951377	2
31	85906	94.097792520176	2
31	85997	94.197785092311	2
31	86088	94.297790667781	2
31	86179	94.397783246588	2
31	86270	94.49778882873	2
31	86361	94.597794414207	2
31	86452	94.69778700302	2
31	86543	94.797792595169	2
31	86634	94.897785190654	2
31	86725	94.997790789475	2
31	86819	95.097783391631	2
31	86910	95.197788997122	2
31	87001	95.297794605949	2
31	87092	95.397787218111	2
31	87183	95.49779283361	2
31	87274	95.597785452444	2
31	87365	95.697791074613	2
31	87456	95.797783700118	2
31	87547	95.897789328959	2
31	87638	95.997794961136	2
31	87732	96.097787596649	2
31	87823	96.197793235497	2
31	87914	96.297785877681	2
31	88005	96.3977915232	2
31	88096	96.497784172054	2
31	88187	96.597789824245	2
31	88278	96.697795479771	2
31	88369	96.797788138633	2
31	88460	96.89779380083	2
31	88551	96.997786466363	2
31	88645	97.097792135232	2
31	88736	97.197784807437	2
31	88827	97.297790482977	2
31	88918	97.397783161853	2
31	89009	97.497788844064	2
31	89100	97.59779452961	2
31	89191	97.697787218493	2
31	89282	97.797792910711	2
31	89373	97.897785606265	2
31	89464	97.997791305154	2
31	89558	98.097784007379	2
31	89649	98.19778971294	2
31	89740	98.297795421837	2
31	89831	98.397788134069	2
31	89922	98.497793849637	2
31	90013	98.59778656854	2
31	90104	98.697792290778	2
31	90195	98.797785016353	2
31	90286	98.897790745263	2
31	90377	98.997783477509	2
31	90471	99.09778921309	2
31	90562	99.197794952007	2
31	90653	99.29778769426	2
31	90744	99.397793439849	2
31	90835	99.497786188773	2
31	90926	99.597791941033	2
31	91017	99.697784696628	2
31	91108	99.797790455558	2
31	91199	99.897783217825	2
31	91290	99.997788983427	2
32	905	2	0
32	1818	3	0
32	2731	4	0
32	3644	5	0
32	4557	6	0
32	5470	7	0
32	6383	8	0
32	7296	9	0
32	8210	10	0
32	9169	11	0
32	10102	12	0
32	11035	13	0
32	11968	14	0
32	12901	15	0
32	13834	16	0
32	14767	17	0
32	15700	18	0
32	16633	19	0
32	17566	20	0
32	18499	21	0
32	19432	22	0
32	20365	23	0
32	21298	24	0
32	22231	25	0
32	23164	26	0
32	24097	27	0
32	25030	28	0
32	25963	29	0
32	26896	30	0
32	27829	31	0
32	28762	32	0
32	29695	33	0
32	30628	34	0
32	31561	35	0
32	32494	36	0
32	33427	37	0
32	34360	38	0
32	35293	39	0
32	36226	40	0
32	37159	41	0
32	38092	42	0
32	39066	43	0
32	39989	44	0
32	40912	45	0
32	41835	46	0
32	42758	47	0
32	43681	48	0
32	44729	49	0
32	45642	50	0
32	46555	51	0
32	47468	52	0
32	48381	53	0
32	49294	54	0
32	50207	55	0
32	51120	56	0
32	52033	57	0
32	52946	58	0
32	53859	59	0
32	54772	60	0
32	55685	61	0
32	56598	62	0
32	57511	63	0
32	58424	64	0
32	59337	65	0
32	60250	66	0
32	61163	67	0
32	62076	68	0
32	62989	69	0
32	63902	70	0
32	64815	71	0
32	65728	72	0
32	66641	73	0
32	67554	74	0
32	68467	75	0
32	69380	76	0
32	70293	77	0
32	71206	78	0
32	72119	79	0
32	73032	80	0
32	73945	81	0
32	74858	82	0
32	75771	83	0
32	76684	84	0
32	77597	85	0
32	78510	86	0
32	79423	87	0
32	80336	88	0
32	81249	89	0
32	82162	90	0
32	83075	91	0
32	83988	92	0
32	84901	93	0
32	85814	94	0
32	86727	95	0
32	87640	96	0
32	88553	97	0
32	89466	98	0
32	90379	99	0
32	91292	100	0
33	905	2	0.008121
33	1818	3	0.00937
33	2731	4	0.00937
33	3644	5	0.00937
33	4557	6	0.00937
33	5470	7	0.00937
33	6383	8	0.00937
33	7296	9	0.00937
33	8210	10	0.00937
33	9169	11	0.009419
33	10102	12	0.00937
33	11035	13	0.00937
33	11968	14	0.00937
33	12901	15	0.00937
33	13834	16	0.00937
33	14767	17	0.00937
33	15700	18	0.00937
33	16633	19	0.00937
33	17566	20	0.00937
33	18499	21	0.00937
33	19432	22	0.00937
33	20365	23	0.00937
33	21298	24	0.00937
33	22231	25	0.00937
33	23164	26	0.00937
33	24097	27	0.00937
33	25030	28	0.00937
33	25963	29	0.00937
33	26896	30	0.00937
33	27829	31	0.00937
33	28762	32	0.00937
33	29695	33	0.00937
33	30628	34	0.00937
33	31561	35	0.00937
33	32494	36	0.00937
33	33427	37	0.00937
33	34360	38	0.00937
33	35293	39	0.00937
33	36226	40	0.00937
33	37159	41	0.00937
33	38092	42	0.00937
33	39066	43	0.009514
33	39989	44	0.00937
33	40912	45	0.00937
33	41835	46	0.00937
33	42758	47	0.00937
33	43681	48	0.00937
33	44729	49	0.009804278994
33	45642	50	0.00937
33	46555	51	0.00937
33	47468	52	0.00937
33	48381	53	0.00937
33	49294	54	0.00937
33	50207	55	0.00937
33	51120	56	0.00937
33	52033	57	0.00937
33	52946	58	0.00937
33	53859	59	0.00937
33	54772	60	0.00937
33	55685	61	0.00937
33	56598	62	0.00937
33	57511	63	0.00937
33	58424	64	0.00937
33	59337	65	0.00937
33	60250	66	0.00937
33	61163	67	0.00937
33	62076	68	0.00937
33	62989	69	0.00937
33	63902	70	0.00937
33	64815	71	0.00937
33	65728	72	0.00937
33	66641	73	0.00937
33	67554	74	0.00937
33	68467	75	0.00937
33	69380	76	0.00937
33	70293	77	0.00937
33	71206	78	0.00937
33	72119	79	0.00937
33	73032	80	0.00937
33	73945	81	0.00937
33	74858	82	0.00937
33	75771	83	0.00937
33	76684	84	0.00937
33	77597	85	0.00937
33	78510	86	0.00937
33	79423	87	0.00937
33	80336	88	0.00937
33	81249	89	0.00937
33	82162	90	0.00937
33	83075	91	0.00937
33	83988	92	0.00937
33	84901	93	0.00937
33	85814	94	0.00937
33	86727	95	0.00937
33	87640	96	0.00937
33	88553	97	0.00937
33	89466	98	0.00937
33	90379	99	0.00937
33	91292	100	0.00937
34	905	2	0
34	1818	3	0
34	2731	4	0
34	3644	5	0
34	4557	6	0
34	5470	7	0
34	6383	8	0
34	7296	9	0
34	8210	10	0
34	9169	11	0
34	10102	12	0
34	11035	13	0
34	11968	14	0
34	12901	15	0
34	13834	16	0
34	14767	17	0
34	15700	18	0
34	16633	19	0
34	17566	20	0
34	18499	21	0
34	19432	22	0
34	20365	23	0
34	21298	24	0
34	22231	25	0
34	23164	26	0
34	24097	27	0
34	25030	28	0
34	25963	29	0
34	26896	30	0
34	27829	31	0
34	28762	32	0
34	29695	33	0
34	30628	34	0
34	31561	35	0
34	32494	36	0
34	33427	37	0
34	34360	38	0
34	35293	39	0
34	36226	40	0
34	37159	41	0
34	38092	42	0
34	39066	43	0
34	39989	44	0
34	40912	45	0
34	41835	46	0
34	42758	47	0
34	43681	48	0
34	44729	49	0
34	45642	50	0
34	46555	51	0
34	47468	52	0
34	48381	53	0
34	49294	54	0
34	50207	55	0
34	51120	56	0
34	52033	57	0
34	52946	58	0
34	53859	59	0
34	54772	60	0
34	55685	61	0
34	56598	62	0
34	57511	63	0
34	58424	64	0
34	59337	65	0
34	60250	66	0
34	61163	67	0
34	62076	68	0
34	62989	69	0
34	63902	70	0
34	64815	71	0
34	65728	72	0
34	66641	73	0
34	67554	74	0
34	68467	75	0
34	69380	76	0
34	70293	77	0
34	71206	78	0
34	72119	79	0
34	73032	80	0
34	73945	81	0
34	74858	82	0
34	75771	83	0
34	76684	84	0
34	77597	85	0
34	78510	86	0
34	79423	87	0
34	80336	88	0
34	81249	89	0
34	82162	90	0
34	83075	91	0
34	83988	92	0
34	84901	93	0
34	85814	94	0
34	86727	95	0
34	87640	96	0
34	88553	97	0
34	89466	98	0
34	90379	99	0
34	91292	100	0
35	906	2	1
35	1819	3	1
35	2732	4	1
35	3645	5	1
35	4558	6	1
35	5471	7	1
35	6384	8	1
35	7297	9	1
35	8211	10	1
35	9170	11	1
35	10103	12	1
35	11036	13	1
35	11969	14	1
35	12902	15	1
35	13835	16	1
35	14768	17	1
35	15701	18	1
35	16634	19	1
35	17567	20	1
35	18500	21	1
35	19433	22	1
35	20366	23	1
35	21299	24	1
35	22232	25	1
35	23165	26	1
35	24098	27	1
35	25031	28	1
35	25964	29	1
35	26897	30	1
35	27830	31	1
35	28763	32	1
35	29696	33	1
35	30629	34	1
35	31562	35	1
35	32495	36	1
35	33428	37	1
35	34361	38	1
35	35294	39	1
35	36227	40	1
35	37160	41	1
35	38093	42	1
35	39067	43	1
35	39990	44	1
35	40913	45	1
35	41836	46	1
35	42759	47	1
35	43682	48	1
35	44730	49	1
35	45643	50	1
35	46556	51	1
35	47469	52	1
35	48382	53	1
35	49295	54	1
35	50208	55	1
35	51121	56	1
35	52034	57	1
35	52947	58	1
35	53860	59	1
35	54773	60	1
35	55686	61	1
35	56599	62	1
35	57512	63	1
35	58425	64	1
35	59338	65	1
35	60251	66	1
35	61164	67	1
35	62077	68	1
35	62990	69	1
35	63903	70	1
35	64816	71	1
35	65729	72	1
35	66642	73	1
35	67555	74	1
35	68468	75	1
35	69381	76	1
35	70294	77	1
35	71207	78	1
35	72120	79	1
35	73033	80	1
35	73946	81	1
35	74859	82	1
35	75772	83	1
35	76685	84	1
35	77598	85	1
35	78511	86	1
35	79424	87	1
35	80337	88	1
35	81250	89	1
35	82163	90	1
35	83076	91	1
35	83989	92	1
35	84902	93	1
35	85815	94	1
35	86728	95	1
35	87641	96	1
35	88554	97	1
35	89467	98	1
35	90380	99	1
35	91293	100	1
36	906	2	0.008121
36	1819	3	0.00937
36	2732	4	0.00937
36	3645	5	0.00937
36	4558	6	0.00937
36	5471	7	0.00937
36	6384	8	0.00937
36	7297	9	0.00937
36	8211	10	0.00937
36	9170	11	0.009418
36	10103	12	0.00937
36	11036	13	0.00937
36	11969	14	0.00937
36	12902	15	0.00937
36	13835	16	0.00937
36	14768	17	0.00937
36	15701	18	0.00937
36	16634	19	0.00937
36	17567	20	0.00937
36	18500	21	0.00937
36	19433	22	0.00937
36	20366	23	0.00937
36	21299	24	0.00937
36	22232	25	0.00937
36	23165	26	0.00937
36	24098	27	0.00937
36	25031	28	0.00937
36	25964	29	0.00937
36	26897	30	0.00937
36	27830	31	0.00937
36	28763	32	0.00937
36	29696	33	0.00937
36	30629	34	0.00937
36	31562	35	0.00937
36	32495	36	0.00937
36	33428	37	0.00937
36	34361	38	0.00937
36	35294	39	0.00937
36	36227	40	0.00937
36	37160	41	0.00937
36	38093	42	0.00937
36	39067	43	0.009515092734
36	39990	44	0.00937
36	40913	45	0.00937
36	41836	46	0.00937
36	42759	47	0.00937
36	43682	48	0.00937
36	44730	49	0.009738
36	45643	50	0.00937
36	46556	51	0.00937
36	47469	52	0.00937
36	48382	53	0.00937
36	49295	54	0.00937
36	50208	55	0.00937
36	51121	56	0.00937
36	52034	57	0.00937
36	52947	58	0.00937
36	53860	59	0.00937
36	54773	60	0.00937
36	55686	61	0.00937
36	56599	62	0.00937
36	57512	63	0.00937
36	58425	64	0.00937
36	59338	65	0.00937
36	60251	66	0.00937
36	61164	67	0.00937
36	62077	68	0.00937
36	62990	69	0.00937
36	63903	70	0.00937
36	64816	71	0.00937
36	65729	72	0.00937
36	66642	73	0.00937
36	67555	74	0.00937
36	68468	75	0.00937
36	69381	76	0.00937
36	70294	77	0.00937
36	71207	78	0.00937
36	72120	79	0.00937
36	73033	80	0.00937
36	73946	81	0.00937
36	74859	82	0.00937
36	75772	83	0.00937
36	76685	84	0.00937
36	77598	85	0.00937
36	78511	86	0.00937
36	79424	87	0.00937
36	80337	88	0.00937
36	81250	89	0.00937
36	82163	90	0.00937
36	83076	91	0.00937
36	83989	92	0.00937
36	84902	93	0.00937
36	85815	94	0.00937
36	86728	95	0.00937
36	87641	96	0.00937
36	88554	97	0.00937
36	89467	98	0.00937
36	90380	99	0.00937
36	91293	100	0.00937
37	906	2	0
37	1819	3	0
37	2732	4	0
37	3645	5	0
37	4558	6	0
37	5471	7	0
37	6384	8	0
37	7297	9	0
37	8211	10	0
37	9170	11	0
37	10103	12	0
37	11036	13	0
37	11969	14	0
37	12902	15	0
37	13835	16	0
37	14768	17	0
37	15701	18	0
37	16634	19	0
37	17567	20	0
37	18500	21	0
37	19433	22	0
37	20366	23	0
37	21299	24	0
37	22232	25	0
37	23165	26	0
37	24098	27	0
37	25031	28	0
37	25964	29	0
37	26897	30	0
37	27830	31	0
37	28763	32	0
37	29696	33	0
37	30629	34	0
37	31562	35	0
37	32495	36	0
37	33428	37	0
37	34361	38	0
37	35294	39	0
37	36227	40	0
37	37160	41	0
37	38093	42	0
37	39067	43	0
37	39990	44	0
37	40913	45	0
37	41836	46	0
37	42759	47	0
37	43682	48	0
37	44730	49	0
37	45643	50	0
37	46556	51	0
37	47469	52	0
37	48382	53	0
37	49295	54	0
37	50208	55	0
37	51121	56	0
37	52034	57	0
37	52947	58	0
37	53860	59	0
37	54773	60	0
37	55686	61	0
37	56599	62	0
37	57512	63	0
37	58425	64	0
37	59338	65	0
37	60251	66	0
37	61164	67	0
37	62077	68	0
37	62990	69	0
37	63903	70	0
37	64816	71	0
37	65729	72	0
37	66642	73	0
37	67555	74	0
37	68468	75	0
37	69381	76	0
37	70294	77	0
37	71207	78	0
37	72120	79	0
37	73033	80	0
37	73946	81	0
37	74859	82	0
37	75772	83	0
37	76685	84	0
37	77598	85	0
37	78511	86	0
37	79424	87	0
37	80337	88	0
37	81250	89	0
37	82163	90	0
37	83076	91	0
37	83989	92	0
37	84902	93	0
37	85815	94	0
37	86728	95	0
37	87641	96	0
37	88554	97	0
37	89467	98	0
37	90380	99	0
37	91293	100	0
38	907	2	2
38	1820	3	2
38	2733	4	2
38	3646	5	2
38	4559	6	2
38	5472	7	2
38	6385	8	2
38	7298	9	2
38	8212	10	2
38	9171	11	2
38	10104	12	2
38	11037	13	2
38	11970	14	2
38	12903	15	2
38	13836	16	2
38	14769	17	2
38	15702	18	2
38	16635	19	2
38	17568	20	2
38	18501	21	2
38	19434	22	2
38	20367	23	2
38	21300	24	2
38	22233	25	2
38	23166	26	2
38	24099	27	2
38	25032	28	2
38	25965	29	2
38	26898	30	2
38	27831	31	2
38	28764	32	2
38	29697	33	2
38	30630	34	2
38	31563	35	2
38	32496	36	2
38	33429	37	2
38	34362	38	2
38	35295	39	2
38	36228	40	2
38	37161	41	2
38	38094	42	2
38	39068	43	2
38	39991	44	2
38	40914	45	2
38	41837	46	2
38	42760	47	2
38	43683	48	2
38	44731	49	2
38	45644	50	2
38	46557	51	2
38	47470	52	2
38	48383	53	2
38	49296	54	2
38	50209	55	2
38	51122	56	2
38	52035	57	2
38	52948	58	2
38	53861	59	2
38	54774	60	2
38	55687	61	2
38	56600	62	2
38	57513	63	2
38	58426	64	2
38	59339	65	2
38	60252	66	2
38	61165	67	2
38	62078	68	2
38	62991	69	2
38	63904	70	2
38	64817	71	2
38	65730	72	2
38	66643	73	2
38	67556	74	2
38	68469	75	2
38	69382	76	2
38	70295	77	2
38	71208	78	2
38	72121	79	2
38	73034	80	2
38	73947	81	2
38	74860	82	2
38	75773	83	2
38	76686	84	2
38	77599	85	2
38	78512	86	2
38	79425	87	2
38	80338	88	2
38	81251	89	2
38	82164	90	2
38	83077	91	2
38	83990	92	2
38	84903	93	2
38	85816	94	2
38	86729	95	2
38	87642	96	2
38	88555	97	2
38	89468	98	2
38	90381	99	2
38	91294	100	2
39	907	2	0.00812
39	1820	3	0.00937
39	2733	4	0.00937
39	3646	5	0.00937
39	4559	6	0.00937
39	5472	7	0.00937
39	6385	8	0.00937
39	7298	9	0.00937
39	8212	10	0.00937
39	9171	11	0.009418
39	10104	12	0.00937
39	11037	13	0.00937
39	11970	14	0.00937
39	12903	15	0.00937
39	13836	16	0.00937
39	14769	17	0.00937
39	15702	18	0.00937
39	16635	19	0.00937
39	17568	20	0.00937
39	18501	21	0.00937
39	19434	22	0.00937
39	20367	23	0.00937
39	21300	24	0.00937
39	22233	25	0.00937
39	23166	26	0.00937
39	24099	27	0.00937
39	25032	28	0.00937
39	25965	29	0.00937
39	26898	30	0.00937
39	27831	31	0.00937
39	28764	32	0.00937
39	29697	33	0.00937
39	30630	34	0.00937
39	31563	35	0.00937
39	32496	36	0.00937
39	33429	37	0.00937
39	34362	38	0.00937
39	35295	39	0.00937
39	36228	40	0.00937
39	37161	41	0.00937
39	38094	42	0.00937
39	39068	43	0.009482
39	39991	44	0.00937
39	40914	45	0.00937
39	41837	46	0.00937
39	42760	47	0.00937
39	43683	48	0.00937
39	44731	49	0.009771185864
39	45644	50	0.00937
39	46557	51	0.00937
39	47470	52	0.00937
39	48383	53	0.00937
39	49296	54	0.00937
39	50209	55	0.00937
39	51122	56	0.00937
39	52035	57	0.00937
39	52948	58	0.00937
39	53861	59	0.00937
39	54774	60	0.00937
39	55687	61	0.00937
39	56600	62	0.00937
39	57513	63	0.00937
39	58426	64	0.00937
39	59339	65	0.00937
39	60252	66	0.00937
39	61165	67	0.00937
39	62078	68	0.00937
39	62991	69	0.00937
39	63904	70	0.00937
39	64817	71	0.00937
39	65730	72	0.00937
39	66643	73	0.00937
39	67556	74	0.00937
39	68469	75	0.00937
39	69382	76	0.00937
39	70295	77	0.00937
39	71208	78	0.00937
39	72121	79	0.00937
39	73034	80	0.00937
39	73947	81	0.00937
39	74860	82	0.00937
39	75773	83	0.00937
39	76686	84	0.00937
39	77599	85	0.00937
39	78512	86	0.00937
39	79425	87	0.00937
39	80338	88	0.00937
39	81251	89	0.00937
39	82164	90	0.00937
39	83077	91	0.00937
39	83990	92	0.00937
39	84903	93	0.00937
39	85816	94	0.00937
39	86729	95	0.00937
39	87642	96	0.00937
39	88555	97	0.00937
39	89468	98	0.00937
39	90381	99	0.00937
39	91294	100	0.00937
40	907	2	0
40	1820	3	0
40	2733	4	0
40	3646	5	0
40	4559	6	0
40	5472	7	0
40	6385	8	0
40	7298	9	0
40	8212	10	0
40	9171	11	0
40	10104	12	0
40	11037	13	0
40	11970	14	0
40	12903	15	0
40	13836	16	0
40	14769	17	0
40	15702	18	0
40	16635	19	0
40	17568	20	0
40	18501	21	0
40	19434	22	0
40	20367	23	0
40	21300	24	0
40	22233	25	0
40	23166	26	0
40	24099	27	0
40	25032	28	0
40	25965	29	0
40	26898	30	0
40	27831	31	0
40	28764	32	0
40	29697	33	0
40	30630	34	0
40	31563	35	0
40	32496	36	0
40	33429	37	0
40	34362	38	0
40	35295	39	0
40	36228	40	0
40	37161	41	0
40	38094	42	0
40	39068	43	0
40	39991	44	0
40	40914	45	0
40	41837	46	0
40	42760	47	0
40	43683	48	0
40	44731	49	0
40	45644	50	0
40	46557	51	0
40	47470	52	0
40	48383	53	0
40	49296	54	0
40	50209	55	0
40	51122	56	0
40	52035	57	0
40	52948	58	0
40	53861	59	0
40	54774	60	0
40	55687	61	0
40	56600	62	0
40	57513	63	0
40	58426	64	0
40	59339	65	0
40	60252	66	0
40	61165	67	0
40	62078	68	0
40	62991	69	0
40	63904	70	0
40	64817	71	0
40	65730	72	0
40	66643	73	0
40	67556	74	0
40	68469	75	0
40	69382	76	0
40	70295	77	0
40	71208	78	0
40	72121	79	0
40	73034	80	0
40	73947	81	0
40	74860	82	0
40	75773	83	0
40	76686	84	0
40	77599	85	0
40	78512	86	0
40	79425	87	0
40	80338	88	0
40	81251	89	0
40	82164	90	0
40	83077	91	0
40	83990	92	0
40	84903	93	0
40	85816	94	0
40	86729	95	0
40	87642	96	0
40	88555	97	0
40	89468	98	0
40	90381	99	0
40	91294	100	0

