file 2395011 1720453572                                         
version 3
run BreakRanksNoGui-29-20240708-17:45:58-155277
attr configname BreakRanksNoGui
attr datetime 20240708-17:45:58
attr datetimef 20240708-174558
attr experiment BreakRanksNoGui
attr inifile omnetpp.ini
attr iterationvars "$nCars=8, $platoonSize=8, $nLanes=1, $ploegH=0.5, $controller=1, $headway=0.1, $leaderHeadway=1.2, $leaderSpeed=130, $breakRanksSafetyDistance=2, $minSpeed=120, $maxSpeed=140, $beaconInterval=0.1, $priority=4, $packetSize=200, $sController=\"CACC\", $0=2, $1=0"
attr iterationvarsd nCars=8/platoonSize=8/nLanes=1/ploegH=0.5/controller=1/headway=0.1/leaderHeadway=1.2/leaderSpeed=130/breakRanksSafetyDistance=2/minSpeed=120/maxSpeed=140/beaconInterval=0.1/priority=4/packetSize=200/sController=CACC/2/0
attr iterationvarsf nCars=8,platoonSize=8,nLanes=1,ploegH=0.5,controller=1,headway=0.1,leaderHeadway=1.2,leaderSpeed=130,breakRanksSafetyDistance=2,minSpeed=120,maxSpeed=140,beaconInterval=0.1,priority=4,packetSize=200,sController=CACC,2,0-
attr measurement "$nCars=8, $platoonSize=8, $nLanes=1, $ploegH=0.5, $controller=1, $headway=0.1, $leaderHeadway=1.2, $leaderSpeed=130, $breakRanksSafetyDistance=2, $minSpeed=120, $maxSpeed=140, $beaconInterval=0.1, $priority=4, $packetSize=200, $sController=\"CACC\", $0=2, $1=0"
attr network Highway
attr processid 155277
attr repetition 9
attr replication #9
attr resultdir results
attr runnumber 29
attr seedset 9
itervar beaconInterval 0.1
itervar breakRanksSafetyDistance 2
itervar controller 1
itervar headway 0.1
itervar leaderHeadway 1.2
itervar leaderSpeed 130
itervar maxSpeed 140
itervar minSpeed 120
itervar nCars 8
itervar nLanes 1
itervar packetSize 200
itervar platoonSize 8
itervar ploegH 0.5
itervar priority 4
itervar sController "\"CACC\""
config image-path ../../../veins/images
config repeat 10
config extends BreakRanks
config *.manager.command "\"sumo\""
config *.manager.ignoreGuiCommands true
config output-vector-file results/BreakRanks_1_0.1_130_2/result_9.vec
config output-scalar-file results/BreakRanks_1_0.1_130_2/result_9.sca
config extends Platooning
config *.node[*].scenario_type "\"BreakRanksScenario\""
config *.manager.command "\"sumo-gui\""
config *.node[*].scenario_type "\"SimpleScenario\""
config cmdenv-express-mode true
config cmdenv-autoflush true
config cmdenv-status-frequency 15s
config num-rngs 6
config network Highway
config debug-on-errors true
config print-undisposed true
config *.playgroundSizeX 65000m
config *.playgroundSizeY 25000m
config *.playgroundSizeZ 50m
config sim-time-limit "100 s"
config *.annotations.draw false
config *.obstacles.debug false
config *.world.useTorus false
config *.world.use2D false
config *.manager.updateInterval 0.01s
config *.manager.host "\"localhost\""
config *.manager.moduleType "\"org.car2x.plexe.PlatoonCar\""
config *.manager.moduleName "\"node\""
config *.manager.moduleDisplayString "\"\""
config *.manager.autoShutdown true
config *.manager.margin 25
config *.connectionManager.sendDirect true
config *.connectionManager.maxInterfDist 2600m
config *.connectionManager.drawMaxIntfDist false
config *.**.nic.mac1609_4.useServiceChannel false
config *.**.nic.mac1609_4.txPower 100mW
config *.**.nic.mac1609_4.bitrate 6Mbps
config *.**.nic.mac1609_4.useAcks true
config *.**.nic.mac1609_4.ackErrorRate 0.0
config *.**.nic.mac1609_4.frameErrorRate 0.0
config *.**.nic.phy80211p.minPowerLevel -94dBm
config *.**.nic.phy80211p.maxTXPower 100mW
config *.**.nic.phy80211p.useNoiseFloor true
config *.**.nic.phy80211p.noiseFloor -95dBm
config *.**.nic.phy80211p.decider "xmldoc(\"config.xml\")"
config *.**.nic.phy80211p.analogueModels "xmldoc(\"config.xml\")"
config *.**.nic.phy80211p.usePropagationDelay true
config *.node[*].mobility.x 0
config *.node[*].mobility.y 0
config *.node[*].mobility.z 1.895
config seed-set 9
config **.seed 9
config *.node[*].prot.rng-0 2
config *.node[*].appl.rng-0 3
config *.node[*].scenario.rng-0 4
config **.traffic.rng-0 5
config *.manager.configFile "\"./sumocfg/freeway.sumo.cfg\""
config *.manager.launchConfig "xmldoc(\"./sumocfg/freeway.launchd.xml\")"
config **.numberOfCars 8
config **.numberOfCarsPerPlatoon 8
config **.numberOfLanes 1
config *.node[*].helper_type "\"PositionHelper\""
config *.node[*].scenario.caccC1 0.5
config *.node[*].scenario.caccXi 1
config *.node[*].scenario.caccOmegaN "0.2 Hz"
config *.node[*].scenario.caccSpacing "2 m"
config *.node[*].scenario.engineTau "0.5 s"
config *.node[*].scenario.ploegH 0.5s
config *.node[*].scenario.ploegKp 0.2
config *.node[*].scenario.ploegKd 0.7
config *.node[*].scenario.useRealisticEngine false
config *.node[*].scenario.useControllerAcceleration true
config *.node[*].scenario.nLanes 1
config **.numericController 1
config **.headway 0.1s
config *.node[*].scenario.accHeadway 0.1s
config *.node[*].scenario.leaderHeadway 1.2s
config *.node[*].scenario.leaderSpeed 130kmph
config *.node[*].appl_type "\"SimplePlatooningApp\""
config *.node[*].appl.*.scalar-recording true
config *.node[*].appl.*.vector-recording true
config *.node[0].appl.breakRanksSafetyDistance 2m
config *.node[*].appl.minSpeed 120kmph
config *.node[*].appl.maxSpeed 140kmph
config *.node[*].protocol_type "\"SimplePlatooningBeaconing\""
config *.node[*].prot.*.scalar-recording true
config *.node[*].prot.*.vector-recording true
config *.node[*].prot.beaconingInterval 0.1s
config *.node[*].prot.priority 4
config *.node[*].prot.packetSize 200
config **.traffic_type "\"PlatoonsTrafficManager\""
config **.traffic.platoonInsertTime "1 s"
config **.traffic.platoonInsertSpeed 130kmph
config **.traffic.nCars 8
config **.traffic.platoonSize 8
config **.traffic.nLanes 1
config **.traffic.platooningVType "\"vtypeauto\""
config **.traffic.controller "\"CACC\""
config **.traffic.platoonInsertDistance 2m
config **.traffic.platoonInsertHeadway 0s
config **.traffic.platoonLeaderHeadway 1.2s
config **.scalar-recording false
config **.vector-recording false
config output-vector-file results/BreakRanksNoGui_1_0.1_130_2/result_9.vec
config output-scalar-file results/BreakRanksNoGui_1_0.1_130_2/result_9.sca

vector 0 Highway.node[0].appl distance ETV
vector 1 Highway.node[0].appl relativeSpeed ETV
vector 2 Highway.node[0].appl nodeId ETV
vector 3 Highway.node[0].appl acceleration ETV
vector 4 Highway.node[0].appl controllerAcceleration ETV
vector 5 Highway.node[0].appl speed ETV
vector 6 Highway.node[0].appl posx ETV
vector 7 Highway.node[0].appl posy ETV
vector 8 Highway.node[1].appl distance ETV
vector 9 Highway.node[1].appl relativeSpeed ETV
vector 10 Highway.node[1].appl nodeId ETV
vector 11 Highway.node[1].appl acceleration ETV
vector 12 Highway.node[1].appl controllerAcceleration ETV
vector 13 Highway.node[1].appl speed ETV
vector 14 Highway.node[1].appl posx ETV
vector 15 Highway.node[1].appl posy ETV
vector 16 Highway.node[2].appl distance ETV
vector 17 Highway.node[2].appl relativeSpeed ETV
vector 18 Highway.node[2].appl nodeId ETV
vector 19 Highway.node[2].appl acceleration ETV
vector 20 Highway.node[2].appl controllerAcceleration ETV
vector 21 Highway.node[2].appl speed ETV
vector 22 Highway.node[2].appl posx ETV
vector 23 Highway.node[2].appl posy ETV
vector 24 Highway.node[3].appl distance ETV
vector 25 Highway.node[3].appl relativeSpeed ETV
vector 26 Highway.node[3].appl nodeId ETV
vector 27 Highway.node[3].appl acceleration ETV
vector 28 Highway.node[3].appl controllerAcceleration ETV
vector 29 Highway.node[3].appl speed ETV
vector 30 Highway.node[3].appl posx ETV
vector 31 Highway.node[3].appl posy ETV
vector 32 Highway.node[4].appl distance ETV
vector 33 Highway.node[4].appl relativeSpeed ETV
vector 34 Highway.node[4].appl nodeId ETV
vector 35 Highway.node[4].appl acceleration ETV
vector 36 Highway.node[4].appl controllerAcceleration ETV
vector 37 Highway.node[4].appl speed ETV
vector 38 Highway.node[4].appl posx ETV
vector 39 Highway.node[4].appl posy ETV
vector 40 Highway.node[5].appl distance ETV
vector 41 Highway.node[5].appl relativeSpeed ETV
vector 42 Highway.node[5].appl nodeId ETV
vector 43 Highway.node[5].appl acceleration ETV
vector 44 Highway.node[5].appl controllerAcceleration ETV
vector 45 Highway.node[5].appl speed ETV
vector 46 Highway.node[5].appl posx ETV
vector 47 Highway.node[5].appl posy ETV
vector 48 Highway.node[6].appl distance ETV
vector 49 Highway.node[6].appl relativeSpeed ETV
vector 50 Highway.node[6].appl nodeId ETV
vector 51 Highway.node[6].appl acceleration ETV
vector 52 Highway.node[6].appl controllerAcceleration ETV
vector 53 Highway.node[6].appl speed ETV
vector 54 Highway.node[6].appl posx ETV
vector 55 Highway.node[6].appl posy ETV
vector 56 Highway.node[7].appl distance ETV
vector 57 Highway.node[7].appl relativeSpeed ETV
vector 58 Highway.node[7].appl nodeId ETV
vector 59 Highway.node[7].appl acceleration ETV
vector 60 Highway.node[7].appl controllerAcceleration ETV
vector 61 Highway.node[7].appl speed ETV
vector 62 Highway.node[7].appl posx ETV
vector 63 Highway.node[7].appl posy ETV
vector 64 Highway.node[2].prot frontDelay ETV
vector 65 Highway.node[2].prot frontDelayId ETV
vector 66 Highway.node[7].prot frontDelay ETV
vector 67 Highway.node[7].prot frontDelayId ETV
vector 68 Highway.node[3].prot frontDelay ETV
vector 69 Highway.node[3].prot frontDelayId ETV
vector 70 Highway.node[6].prot frontDelay ETV
vector 71 Highway.node[6].prot frontDelayId ETV
vector 72 Highway.node[5].prot frontDelay ETV
vector 73 Highway.node[5].prot frontDelayId ETV
vector 74 Highway.node[4].prot frontDelay ETV
vector 75 Highway.node[4].prot frontDelayId ETV
vector 76 Highway.node[1].prot leaderDelay ETV
vector 77 Highway.node[1].prot leaderDelayId ETV
vector 78 Highway.node[1].prot frontDelay ETV
vector 79 Highway.node[1].prot frontDelayId ETV
vector 80 Highway.node[2].prot leaderDelay ETV
vector 81 Highway.node[2].prot leaderDelayId ETV
vector 82 Highway.node[3].prot leaderDelay ETV
vector 83 Highway.node[3].prot leaderDelayId ETV
vector 84 Highway.node[4].prot leaderDelay ETV
vector 85 Highway.node[4].prot leaderDelayId ETV
vector 86 Highway.node[5].prot leaderDelay ETV
vector 87 Highway.node[5].prot leaderDelayId ETV
vector 88 Highway.node[6].prot leaderDelay ETV
vector 89 Highway.node[6].prot leaderDelayId ETV
vector 90 Highway.node[7].prot leaderDelay ETV
vector 91 Highway.node[7].prot leaderDelayId ETV
vector 92 Highway.node[0].prot nodeId ETV
vector 93 Highway.node[0].prot busyTime ETV
vector 94 Highway.node[0].prot collisions ETV
vector 95 Highway.node[1].prot nodeId ETV
vector 96 Highway.node[1].prot busyTime ETV
vector 97 Highway.node[1].prot collisions ETV
vector 98 Highway.node[2].prot nodeId ETV
vector 99 Highway.node[2].prot busyTime ETV
vector 100 Highway.node[2].prot collisions ETV
vector 101 Highway.node[3].prot nodeId ETV
vector 102 Highway.node[3].prot busyTime ETV
vector 103 Highway.node[3].prot collisions ETV
vector 104 Highway.node[4].prot nodeId ETV
vector 105 Highway.node[4].prot busyTime ETV
vector 106 Highway.node[4].prot collisions ETV
vector 107 Highway.node[5].prot nodeId ETV
vector 108 Highway.node[5].prot busyTime ETV
vector 109 Highway.node[5].prot collisions ETV
vector 110 Highway.node[6].prot nodeId ETV
vector 111 Highway.node[6].prot busyTime ETV
vector 112 Highway.node[6].prot collisions ETV
vector 113 Highway.node[7].prot nodeId ETV
vector 114 Highway.node[7].prot busyTime ETV
vector 115 Highway.node[7].prot collisions ETV
0	11335 17512 113 542180 1.11 99.91 989 -1 -1 -989 989
1	28847 16523 113 542180 1.11 99.91 989 0 0 0 0
2	45370 16523 113 542180 1.11 99.91 989 0 0 0 0
3	61893 18811 113 542180 1.11 99.91 989 -3.14892e-05 0.000707784 0.010991577126781 6.0508064149601e-06
4	80704 26469 113 542180 1.11 99.91 989 -4.89399e-05 0.00109259 0.010614843047836 8.6815283230331e-06
5	107173 22450 113 542180 1.11 99.91 989 36.11 36.1111 35713.866699999 1289666.6073546
6	129623 22398 113 542180 1.11 99.91 989 67.7299 3635.51 1831249.4266 4441980589.1543
7	152021 21468 113 542180 1.11 99.91 989 242.45 242.45 239783.05 58135400.472499
8	173489 20977 114 542181 1.11 99.91 989 -1 82.2251 32825.10492 1855637.3220171
9	194466 20730 114 542181 1.11 99.91 989 -2.49398e-05 1.20963 688.92742138436 752.56553606944
10	215196 17512 114 542181 1.11 99.91 989 1 1 989 989
11	232708 25666 114 542181 1.11 99.91 989 -0.71473 0.0892133 -11.062833583753 6.5647652433345
12	258374 27287 114 542181 1.11 99.91 989 -1.09776 0.110549 -10.357963055467 9.1299523567499
13	285661 20365 114 542181 1.11 99.91 989 34.8466 36.1111 34719.7509 1218977.5485725
14	306026 22456 114 542181 1.11 99.91 989 61.7299 3530.15 1781158.5354 4196782481.1427
15	328482 22457 114 542181 1.11 99.91 989 242.45 245.75 240664.15 58565553.492499
16	350939 23343 115 542182 1.11 99.91 989 2 94.3151 50062.8361 3173206.8515486
17	374282 21389 115 542182 1.11 99.91 989 0 3.1981 1210.063891405 1940.942809432
18	395671 17512 115 542182 1.11 99.91 989 2 2 1978 3956
19	413183 23972 115 542182 1.11 99.91 989 -2.02228 0.353912 -21.04532944902 52.055375605264
20	437155 27217 115 542182 1.11 99.91 989 -3.08596 0.399174 -19.632994856661 73.251349603714
21	464372 20039 115 542182 1.11 99.91 989 32.913 36.1111 33796.0998 1155301.063388
22	484411 23421 115 542182 1.11 99.91 989 55.7299 3431.83 1732431.2277 3968393456.2627
23	507832 22457 115 542182 1.11 99.91 989 242.45 242.45 239783.05 58135400.472499
24	530289 23291 116 542183 1.11 99.91 989 2 42.7936 33834.88702 1348204.519877
25	553580 25261 116 542183 1.11 99.91 989 0 3.57768 407.93631132823 791.20405824208
26	578841 17512 116 542183 1.11 99.91 989 3 3 2967 8901
27	596353 26173 116 542183 1.11 99.91 989 -2.88427 0.676211 -21.047404730211 160.14033496449
28	622526 26179 116 542183 1.11 99.91 989 -3.60523 0.726201 -19.480930649192 194.60930086941
29	648705 23330 116 542183 1.11 99.91 989 29.6066 36.1111 33388.1637 1128540.9267033
30	672035 23354 116 542183 1.11 99.91 989 49.7299 3385.04 1694643.2099 3816442952.8234
31	695389 22457 116 542183 1.11 99.91 989 242.45 242.45 239783.05 58135400.472499
32	717846 23317 117 542184 1.11 99.91 989 2 99.0462 49692.9349 3322424.5912833
33	741163 24484 117 542184 1.11 99.91 989 -7.55471e-07 3.51461 970.96155676584 1342.6965231132
34	765647 17512 117 542184 1.11 99.91 989 4 4 3956 15824
35	783159 22722 117 542184 1.11 99.91 989 -3.14921 0.939132 -31.04101309382 269.18978251122
36	805881 26739 117 542184 1.11 99.91 989 -3.60808 0.98886 -29.474464986751 305.48195194543
37	832620 20389 117 542184 1.11 99.91 989 26.6616 36.1111 32417.2023 1065541.1909873
38	853009 23396 117 542184 1.11 99.91 989 43.7299 3281.99 1640991.4332 3581801513.6247
39	876405 22457 117 542184 1.11 99.91 989 242.45 242.45 239783.05 58135400.472499
40	898862 22759 118 542185 1.11 99.91 989 -1 166.003 67985.33775 7201392.0474648
41	921621 19560 118 542185 1.11 99.91 989 -1.66036e-06 3.46658 1391.6203026271 2624.6928688859
42	941181 17512 118 542185 1.11 99.91 989 5 5 4945 24725
43	958693 21673 118 542185 1.11 99.91 989 -3.2027 1.06953 -21.011893950498 134.53938765944
44	980366 27204 118 542185 1.11 99.91 989 -3.60808 1.5 -19.662924975685 212.63098202867
45	1007570 19621 118 542185 1.11 99.91 989 31.5755 36.1111 33768.4013 1153484.9042208
46	1027191 23424 118 542185 1.11 99.91 989 37.7299 3411.06 1712159.3961 3896929927.6387
47	1050615 22457 118 542185 1.11 99.91 989 242.45 245.75 242700.25 59559577.5125
48	1073072 19713 119 542186 1.11 99.91 989 -1 49.1012 7623.37971 393277.66984274
49	1092785 19348 119 542186 1.11 99.91 989 -1.39198e-06 0.1111 18.776425702339 2.0860025051929
50	1112133 17512 119 542186 1.11 99.91 989 6 6 5934 35604
51	1129645 21613 119 542186 1.11 99.91 989 -3.08478 1.43079 -1.0089708461459 109.76426672209
52	1151258 27727 119 542186 1.11 99.91 989 -3.60808 1.5 0.65747199364754 191.66130860177
53	1178985 19580 119 542186 1.11 99.91 989 32.927 36.1111 35542.8014 1277503.9816553
54	1198565 22428 119 542186 1.11 99.91 989 31.7299 3582.4 1784895.7387 4263710114.7682
55	1220993 22457 119 542186 1.11 99.91 989 242.45 249.05 243165.55 59793401.6525
56	1243450 18405 120 542187 1.11 99.91 989 -1 2 -701 1277
57	1261855 18487 120 542187 1.11 99.91 989 -2.94465e-06 2.33117e-06 -9.9115819999999e-07 1.5431146106677e-10
58	1280342 17512 120 542187 1.11 99.91 989 7 7 6923 48461
59	1297854 21698 120 542187 1.11 99.91 989 -2.48147 0.990163 -1.0113337809755 41.801616182707
60	1319552 27875 120 542187 1.11 99.91 989 -3.60808 1.5 1.3287269174398 104.30065742379
61	1347427 19507 120 542187 1.11 99.91 989 34.4604 36.1111 35589.4317 1280725.2303646
62	1366934 23431 120 542187 1.11 99.91 989 25.7299 3581.07 1783048.604 4258716599.968
63	1390365 22457 120 542187 1.11 99.91 989 242.45 252.35 246260.95 61327880.532501
64	1412822 39951 703 542230 1.22081946032 99.920815154818 988 0.099987440306 0.100003836768 98.799996134804 9.8799992468878
65	1452773 27265 703 542230 1.22081946032 99.920815154818 988 2 2 1976 3952
66	1480038 39971 770 542285 1.230758560389 99.930767013055 988 0.09998744031 0.100003840844 98.800008892972 9.8800017984155
67	1520009 27280 770 542285 1.230758560389 99.930767013055 988 7 7 6916 48412
68	1547289 39952 837 542358 1.244324640444 99.944333659713 988 0.099987440309 0.100003841511 98.800009459575 9.8800019117436
69	1587241 27290 837 542358 1.244324640444 99.944333659713 988 3 3 2964 8892
70	1614531 39948 904 542449 1.252209700486 99.952206145744 988 0.099987440306 0.100003842178 98.799996885564 9.8799993970499
71	1654479 27263 904 542449 1.252209700486 99.952206145744 988 6 6 5928 35568
72	1681742 39954 1038 542559 1.278015800556 99.978013570445 988 0.099987440307 0.100003839436 98.799998210195 9.8799996619584
73	1721696 27270 1038 542559 1.278015800556 99.978013570445 988 5 5 4940 24700
74	1748966 39958 1106 542633 1.29367482057 99.993672827523 988 0.099987440306 0.100003843844 98.799998447259 9.8799997093518
75	1788924 27274 1106 542633 1.29367482057 99.993672827523 988 4 4 3952 15808
76	1816198 39930 1167 542154 1.308748880612 99.908756826807 987 0.09998744031 0.10000384051 98.700008386501 9.8700016970452
77	1856128 27256 1167 542154 1.308748880612 99.908756826807 987 1 1 987 987
78	1883384 39930 1167 542154 1.308748880612 99.908756826807 987 0.09998744031 0.10000384051 98.700008386501 9.8700016970452
79	1923314 27256 1167 542154 1.308748880612 99.908756826807 987 1 1 987 987
80	1950570 39906 1173 542160 1.308748900626 99.908757154751 987 0.09998744031 0.100003840844 98.700008694431 9.8700017586312
81	1990476 27234 1173 542160 1.308748900626 99.908757154751 987 2 2 1974 3948
82	2017710 39904 1179 542172 1.30874892064 99.908757310838 987 0.09998744031 0.100003840845 98.700008830504 9.8700017858459
83	2057614 27243 1179 542172 1.30874892064 99.908757310838 987 3 3 2961 8883
84	2084857 39918 1185 542178 1.308748940653 99.908757654563 987 0.09998744031 0.100003841178 98.700009154216 9.8700018505883
85	2124775 27252 1185 542178 1.308748940653 99.908757654563 987 4 4 3948 15792
86	2152027 39934 1191 542166 1.308748960667 99.908757224113 987 0.09998744031 0.100003840844 98.700008703752 9.8700017604954
87	2191961 27243 1191 542166 1.308748960667 99.908757224113 987 5 5 4935 24675
88	2219204 39923 1197 542142 1.308748980681 99.908756652503 987 0.09998744031 0.100003840177 98.700008112128 9.8700016421707
89	2259127 27259 1197 542142 1.308748980681 99.908756652503 987 6 6 5922 35532
90	2286386 39944 1203 542148 1.308749000695 99.908756657296 987 0.09998744031 0.100003840177 98.700008096907 9.8700016391264
91	2326330 27267 1203 542148 1.308749000695 99.908756657296 987 7 7 6909 48363
92	2353597 1459 4960 542659 2 100 99 0 0 0 0
93	2355056 2060 4960 542659 2 100 99 0.02216 0.027187521078 2.471437521078 0.061709814202367
94	2357116 1459 4960 542659 2 100 99 0 0 0 0
95	2358575 1459 4961 542660 2 100 99 1 1 99 99
96	2360034 2061 4961 542660 2 100 99 0.022161 0.026890200142 2.471141200142 0.061693780084677
97	2362095 1459 4961 542660 2 100 99 0 0 0 0
98	2363554 1459 4962 542661 2 100 99 2 2 198 396
99	2365013 2061 4962 542661 2 100 99 0.022161 0.026950320226 2.471201320226 0.061697016981284
100	2367074 1558 4962 542661 2 100 99 0 0 0 0
101	2368632 1558 4963 542662 2 100 99 3 3 297 891
102	2370190 2159 4963 542662 2 100 99 0.022161 0.02689024017 2.47114124017 0.0616937822374
103	2372349 1558 4963 542662 2 100 99 0 0 0 0
104	2373907 1558 4964 542663 2 100 99 4 4 396 1584
105	2375465 2160 4964 542663 2 100 99 0.022161 0.027045280198 2.471296280198 0.061702144401988
106	2377625 1558 4964 542663 2 100 99 0 0 0 0
107	2379183 1558 4965 542664 2 100 99 5 5 495 2475
108	2380741 2160 4965 542664 2 100 99 0.022161 0.027045280198 2.471296280198 0.061702144401988
109	2382901 1558 4965 542664 2 100 99 0 0 0 0
110	2384459 1558 4966 542665 2 100 99 6 6 594 3564
111	2386017 2159 4966 542665 2 100 99 0.022161 0.02689024017 2.47114124017 0.0616937822374
112	2388176 1558 4966 542665 2 100 99 0 0 0 0
113	2389734 1558 4967 542666 2 100 99 7 7 693 4851
114	2391292 2160 4967 542666 2 100 99 0.022161 0.026890280198 2.471141280198 0.061693784390127
115	2393452 1558 4967 542666 2 100 99 0 0 0 0

