file 5087474 1720697646                                         
version 3
run BreakRanksNoGui-591-20240711-13:33:45-288906
attr configname BreakRanksNoGui
attr datetime 20240711-13:33:45
attr datetimef 20240711-133345
attr experiment BreakRanksNoGui
attr inifile omnetpp.ini
attr iterationvars "$nCars=16, $platoonSize=12, $nLanes=1, $ploegH=0.5, $controller=1, $headway=0.1, $leaderHeadway=1.2, $leaderSpeed=130, $breakRanksSafetyDistance=10, $minSpeed=120, $maxSpeed=140, $beaconInterval=0.1, $priority=4, $packetSize=200, $sController=\"CACC\", $0=2, $1=0"
attr iterationvarsd nCars=16/platoonSize=12/nLanes=1/ploegH=0.5/controller=1/headway=0.1/leaderHeadway=1.2/leaderSpeed=130/breakRanksSafetyDistance=10/minSpeed=120/maxSpeed=140/beaconInterval=0.1/priority=4/packetSize=200/sController=CACC/2/0
attr iterationvarsf nCars=16,platoonSize=12,nLanes=1,ploegH=0.5,controller=1,headway=0.1,leaderHeadway=1.2,leaderSpeed=130,breakRanksSafetyDistance=10,minSpeed=120,maxSpeed=140,beaconInterval=0.1,priority=4,packetSize=200,sController=CACC,2,0-
attr measurement "$nCars=16, $platoonSize=12, $nLanes=1, $ploegH=0.5, $controller=1, $headway=0.1, $leaderHeadway=1.2, $leaderSpeed=130, $breakRanksSafetyDistance=10, $minSpeed=120, $maxSpeed=140, $beaconInterval=0.1, $priority=4, $packetSize=200, $sController=\"CACC\", $0=2, $1=0"
attr network Highway
attr processid 288906
attr repetition 1
attr replication #1
attr resultdir results
attr runnumber 591
attr seedset 1
itervar beaconInterval 0.1
itervar breakRanksSafetyDistance 10
itervar controller 1
itervar headway 0.1
itervar leaderHeadway 1.2
itervar leaderSpeed 130
itervar maxSpeed 140
itervar minSpeed 120
itervar nCars 16
itervar nLanes 1
itervar packetSize 200
itervar platoonSize 12
itervar ploegH 0.5
itervar priority 4
itervar sController "\"CACC\""
config image-path ../../../veins/images
config repeat 10
config extends BreakRanks
config *.manager.command "\"sumo\""
config *.manager.ignoreGuiCommands true
config output-vector-file "results/BreakRanks_1_0.1_130_10_12 /result_1.vec"
config output-scalar-file "results/BreakRanks_1_0.1_130_10_12 /result_1.sca"
config extends Platooning
config *.node[*].scenario_type "\"BreakRanksScenario\""
config *.manager.command "\"sumo-gui\""
config *.node[*].scenario_type "\"SimpleScenario\""
config cmdenv-express-mode true
config cmdenv-autoflush true
config cmdenv-status-frequency 15s
config num-rngs 6
config network Highway
config debug-on-errors true
config print-undisposed true
config *.playgroundSizeX 65000m
config *.playgroundSizeY 25000m
config *.playgroundSizeZ 50m
config sim-time-limit "100 s"
config *.annotations.draw false
config *.obstacles.debug false
config *.world.useTorus false
config *.world.use2D false
config *.manager.updateInterval 0.01s
config *.manager.host "\"localhost\""
config *.manager.moduleType "\"org.car2x.plexe.PlatoonCar\""
config *.manager.moduleName "\"node\""
config *.manager.moduleDisplayString "\"\""
config *.manager.autoShutdown true
config *.manager.margin 25
config *.connectionManager.sendDirect true
config *.connectionManager.maxInterfDist 2600m
config *.connectionManager.drawMaxIntfDist false
config *.**.nic.mac1609_4.useServiceChannel false
config *.**.nic.mac1609_4.txPower 100mW
config *.**.nic.mac1609_4.bitrate 6Mbps
config *.**.nic.mac1609_4.useAcks true
config *.**.nic.mac1609_4.ackErrorRate 0.0
config *.**.nic.mac1609_4.frameErrorRate 0.0
config *.**.nic.phy80211p.minPowerLevel -94dBm
config *.**.nic.phy80211p.maxTXPower 100mW
config *.**.nic.phy80211p.useNoiseFloor true
config *.**.nic.phy80211p.noiseFloor -95dBm
config *.**.nic.phy80211p.decider "xmldoc(\"config.xml\")"
config *.**.nic.phy80211p.analogueModels "xmldoc(\"config.xml\")"
config *.**.nic.phy80211p.usePropagationDelay true
config *.node[*].mobility.x 0
config *.node[*].mobility.y 0
config *.node[*].mobility.z 1.895
config seed-set 1
config **.seed 1
config *.node[*].prot.rng-0 2
config *.node[*].appl.rng-0 3
config *.node[*].scenario.rng-0 4
config **.traffic.rng-0 5
config *.manager.configFile "\"./sumocfg/freeway.sumo.cfg\""
config *.manager.launchConfig "xmldoc(\"./sumocfg/freeway.launchd.xml\")"
config **.numberOfCars 16
config **.numberOfCarsPerPlatoon 12
config **.numberOfLanes 1
config *.node[*].helper_type "\"PositionHelper\""
config *.node[*].scenario.caccC1 0.5
config *.node[*].scenario.caccXi 1
config *.node[*].scenario.caccOmegaN "0.2 Hz"
config *.node[*].scenario.caccSpacing "2 m"
config *.node[*].scenario.engineTau "0.5 s"
config *.node[*].scenario.ploegH 0.5s
config *.node[*].scenario.ploegKp 0.2
config *.node[*].scenario.ploegKd 0.7
config *.node[*].scenario.useRealisticEngine false
config *.node[*].scenario.useControllerAcceleration true
config *.node[*].scenario.nLanes 1
config **.numericController 1
config **.headway 0.1s
config *.node[*].scenario.accHeadway 0.1s
config *.node[*].scenario.leaderHeadway 1.2s
config *.node[*].scenario.leaderSpeed 130kmph
config *.node[*].appl_type "\"SimplePlatooningApp\""
config *.node[*].appl.*.scalar-recording true
config *.node[*].appl.*.vector-recording true
config *.node[0].appl.breakRanksSafetyDistance 10m
config *.node[*].appl.minSpeed 120kmph
config *.node[*].appl.maxSpeed 140kmph
config *.node[*].protocol_type "\"SimplePlatooningBeaconing\""
config *.node[*].prot.*.scalar-recording true
config *.node[*].prot.*.vector-recording true
config *.node[*].prot.beaconingInterval 0.1s
config *.node[*].prot.priority 4
config *.node[*].prot.packetSize 200
config **.traffic_type "\"PlatoonsTrafficManager\""
config **.traffic.platoonInsertTime "1 s"
config **.traffic.platoonInsertSpeed 130kmph
config **.traffic.nCars 16
config **.traffic.platoonSize 12
config **.traffic.nLanes 1
config **.traffic.platooningVType "\"vtypeauto\""
config **.traffic.controller "\"CACC\""
config **.traffic.platoonInsertDistance 2m
config **.traffic.platoonInsertHeadway 0s
config **.traffic.platoonLeaderHeadway 1.2s
config **.scalar-recording false
config **.vector-recording false

vector 0 Highway.node[0].appl distance ETV
vector 1 Highway.node[0].appl relativeSpeed ETV
vector 2 Highway.node[0].appl nodeId ETV
vector 3 Highway.node[0].appl acceleration ETV
vector 4 Highway.node[0].appl controllerAcceleration ETV
vector 5 Highway.node[0].appl speed ETV
vector 6 Highway.node[0].appl posx ETV
vector 7 Highway.node[0].appl posy ETV
vector 8 Highway.node[1].appl distance ETV
vector 9 Highway.node[1].appl relativeSpeed ETV
vector 10 Highway.node[1].appl nodeId ETV
vector 11 Highway.node[1].appl acceleration ETV
vector 12 Highway.node[1].appl controllerAcceleration ETV
vector 13 Highway.node[1].appl speed ETV
vector 14 Highway.node[1].appl posx ETV
vector 15 Highway.node[1].appl posy ETV
vector 16 Highway.node[2].appl distance ETV
vector 17 Highway.node[2].appl relativeSpeed ETV
vector 18 Highway.node[2].appl nodeId ETV
vector 19 Highway.node[2].appl acceleration ETV
vector 20 Highway.node[2].appl controllerAcceleration ETV
vector 21 Highway.node[2].appl speed ETV
vector 22 Highway.node[2].appl posx ETV
vector 23 Highway.node[2].appl posy ETV
vector 24 Highway.node[3].appl distance ETV
vector 25 Highway.node[3].appl relativeSpeed ETV
vector 26 Highway.node[3].appl nodeId ETV
vector 27 Highway.node[3].appl acceleration ETV
vector 28 Highway.node[3].appl controllerAcceleration ETV
vector 29 Highway.node[3].appl speed ETV
vector 30 Highway.node[3].appl posx ETV
vector 31 Highway.node[3].appl posy ETV
vector 32 Highway.node[4].appl distance ETV
vector 33 Highway.node[4].appl relativeSpeed ETV
vector 34 Highway.node[4].appl nodeId ETV
vector 35 Highway.node[4].appl acceleration ETV
vector 36 Highway.node[4].appl controllerAcceleration ETV
vector 37 Highway.node[4].appl speed ETV
vector 38 Highway.node[4].appl posx ETV
vector 39 Highway.node[4].appl posy ETV
vector 40 Highway.node[5].appl distance ETV
vector 41 Highway.node[5].appl relativeSpeed ETV
vector 42 Highway.node[5].appl nodeId ETV
vector 43 Highway.node[5].appl acceleration ETV
vector 44 Highway.node[5].appl controllerAcceleration ETV
vector 45 Highway.node[5].appl speed ETV
vector 46 Highway.node[5].appl posx ETV
vector 47 Highway.node[5].appl posy ETV
vector 48 Highway.node[6].appl distance ETV
vector 49 Highway.node[6].appl relativeSpeed ETV
vector 50 Highway.node[6].appl nodeId ETV
vector 51 Highway.node[6].appl acceleration ETV
vector 52 Highway.node[6].appl controllerAcceleration ETV
vector 53 Highway.node[6].appl speed ETV
vector 54 Highway.node[6].appl posx ETV
vector 55 Highway.node[6].appl posy ETV
vector 56 Highway.node[7].appl distance ETV
vector 57 Highway.node[7].appl relativeSpeed ETV
vector 58 Highway.node[7].appl nodeId ETV
vector 59 Highway.node[7].appl acceleration ETV
vector 60 Highway.node[7].appl controllerAcceleration ETV
vector 61 Highway.node[7].appl speed ETV
vector 62 Highway.node[7].appl posx ETV
vector 63 Highway.node[7].appl posy ETV
vector 64 Highway.node[8].appl distance ETV
vector 65 Highway.node[8].appl relativeSpeed ETV
vector 66 Highway.node[8].appl nodeId ETV
vector 67 Highway.node[8].appl acceleration ETV
vector 68 Highway.node[8].appl controllerAcceleration ETV
vector 69 Highway.node[8].appl speed ETV
vector 70 Highway.node[8].appl posx ETV
vector 71 Highway.node[8].appl posy ETV
vector 72 Highway.node[9].appl distance ETV
vector 73 Highway.node[9].appl relativeSpeed ETV
vector 74 Highway.node[9].appl nodeId ETV
vector 75 Highway.node[9].appl acceleration ETV
vector 76 Highway.node[9].appl controllerAcceleration ETV
vector 77 Highway.node[9].appl speed ETV
vector 78 Highway.node[9].appl posx ETV
vector 79 Highway.node[9].appl posy ETV
vector 80 Highway.node[10].appl distance ETV
vector 81 Highway.node[10].appl relativeSpeed ETV
vector 82 Highway.node[10].appl nodeId ETV
vector 83 Highway.node[10].appl acceleration ETV
vector 84 Highway.node[10].appl controllerAcceleration ETV
vector 85 Highway.node[10].appl speed ETV
vector 86 Highway.node[10].appl posx ETV
vector 87 Highway.node[10].appl posy ETV
vector 88 Highway.node[11].appl distance ETV
vector 89 Highway.node[11].appl relativeSpeed ETV
vector 90 Highway.node[11].appl nodeId ETV
vector 91 Highway.node[11].appl acceleration ETV
vector 92 Highway.node[11].appl controllerAcceleration ETV
vector 93 Highway.node[11].appl speed ETV
vector 94 Highway.node[11].appl posx ETV
vector 95 Highway.node[11].appl posy ETV
vector 96 Highway.node[12].appl distance ETV
vector 97 Highway.node[12].appl relativeSpeed ETV
vector 98 Highway.node[12].appl nodeId ETV
vector 99 Highway.node[12].appl acceleration ETV
vector 100 Highway.node[12].appl controllerAcceleration ETV
vector 101 Highway.node[12].appl speed ETV
vector 102 Highway.node[12].appl posx ETV
vector 103 Highway.node[12].appl posy ETV
vector 104 Highway.node[13].appl distance ETV
vector 105 Highway.node[13].appl relativeSpeed ETV
vector 106 Highway.node[13].appl nodeId ETV
vector 107 Highway.node[13].appl acceleration ETV
vector 108 Highway.node[13].appl controllerAcceleration ETV
vector 109 Highway.node[13].appl speed ETV
vector 110 Highway.node[13].appl posx ETV
vector 111 Highway.node[13].appl posy ETV
vector 112 Highway.node[14].appl distance ETV
vector 113 Highway.node[14].appl relativeSpeed ETV
vector 114 Highway.node[14].appl nodeId ETV
vector 115 Highway.node[14].appl acceleration ETV
vector 116 Highway.node[14].appl controllerAcceleration ETV
vector 117 Highway.node[14].appl speed ETV
vector 118 Highway.node[14].appl posx ETV
vector 119 Highway.node[14].appl posy ETV
vector 120 Highway.node[15].appl distance ETV
vector 121 Highway.node[15].appl relativeSpeed ETV
vector 122 Highway.node[15].appl nodeId ETV
vector 123 Highway.node[15].appl acceleration ETV
vector 124 Highway.node[15].appl controllerAcceleration ETV
vector 125 Highway.node[15].appl speed ETV
vector 126 Highway.node[15].appl posx ETV
vector 127 Highway.node[15].appl posy ETV
vector 128 Highway.node[8].prot frontDelay ETV
vector 129 Highway.node[8].prot frontDelayId ETV
vector 130 Highway.node[11].prot frontDelay ETV
vector 131 Highway.node[11].prot frontDelayId ETV
vector 132 Highway.node[9].prot frontDelay ETV
vector 133 Highway.node[9].prot frontDelayId ETV
vector 134 Highway.node[6].prot frontDelay ETV
vector 135 Highway.node[6].prot frontDelayId ETV
vector 136 Highway.node[2].prot frontDelay ETV
vector 137 Highway.node[2].prot frontDelayId ETV
vector 138 Highway.node[15].prot frontDelay ETV
vector 139 Highway.node[15].prot frontDelayId ETV
vector 140 Highway.node[10].prot frontDelay ETV
vector 141 Highway.node[10].prot frontDelayId ETV
vector 142 Highway.node[13].prot frontDelay ETV
vector 143 Highway.node[13].prot frontDelayId ETV
vector 144 Highway.node[7].prot frontDelay ETV
vector 145 Highway.node[7].prot frontDelayId ETV
vector 146 Highway.node[12].prot frontDelay ETV
vector 147 Highway.node[12].prot frontDelayId ETV
vector 148 Highway.node[14].prot frontDelay ETV
vector 149 Highway.node[14].prot frontDelayId ETV
vector 150 Highway.node[5].prot leaderDelay ETV
vector 151 Highway.node[5].prot leaderDelayId ETV
vector 152 Highway.node[5].prot frontDelay ETV
vector 153 Highway.node[5].prot frontDelayId ETV
vector 154 Highway.node[6].prot leaderDelay ETV
vector 155 Highway.node[6].prot leaderDelayId ETV
vector 156 Highway.node[7].prot leaderDelay ETV
vector 157 Highway.node[7].prot leaderDelayId ETV
vector 158 Highway.node[1].prot leaderDelay ETV
vector 159 Highway.node[1].prot leaderDelayId ETV
vector 160 Highway.node[1].prot frontDelay ETV
vector 161 Highway.node[1].prot frontDelayId ETV
vector 162 Highway.node[8].prot leaderDelay ETV
vector 163 Highway.node[8].prot leaderDelayId ETV
vector 164 Highway.node[9].prot leaderDelay ETV
vector 165 Highway.node[9].prot leaderDelayId ETV
vector 166 Highway.node[10].prot leaderDelay ETV
vector 167 Highway.node[10].prot leaderDelayId ETV
vector 168 Highway.node[11].prot leaderDelay ETV
vector 169 Highway.node[11].prot leaderDelayId ETV
vector 170 Highway.node[12].prot leaderDelay ETV
vector 171 Highway.node[12].prot leaderDelayId ETV
vector 172 Highway.node[13].prot leaderDelay ETV
vector 173 Highway.node[13].prot leaderDelayId ETV
vector 174 Highway.node[14].prot leaderDelay ETV
vector 175 Highway.node[14].prot leaderDelayId ETV
vector 176 Highway.node[15].prot leaderDelay ETV
vector 177 Highway.node[15].prot leaderDelayId ETV
vector 178 Highway.node[2].prot leaderDelay ETV
vector 179 Highway.node[2].prot leaderDelayId ETV
vector 180 Highway.node[3].prot leaderDelay ETV
vector 181 Highway.node[3].prot leaderDelayId ETV
vector 182 Highway.node[3].prot frontDelay ETV
vector 183 Highway.node[3].prot frontDelayId ETV
vector 184 Highway.node[0].prot nodeId ETV
vector 185 Highway.node[0].prot busyTime ETV
vector 186 Highway.node[0].prot collisions ETV
vector 187 Highway.node[1].prot nodeId ETV
vector 188 Highway.node[1].prot busyTime ETV
vector 189 Highway.node[1].prot collisions ETV
vector 190 Highway.node[2].prot nodeId ETV
vector 191 Highway.node[2].prot busyTime ETV
vector 192 Highway.node[2].prot collisions ETV
vector 193 Highway.node[3].prot nodeId ETV
vector 194 Highway.node[3].prot busyTime ETV
vector 195 Highway.node[3].prot collisions ETV
vector 196 Highway.node[4].prot nodeId ETV
vector 197 Highway.node[4].prot busyTime ETV
vector 198 Highway.node[4].prot collisions ETV
vector 199 Highway.node[5].prot nodeId ETV
vector 200 Highway.node[5].prot busyTime ETV
vector 201 Highway.node[5].prot collisions ETV
vector 202 Highway.node[6].prot nodeId ETV
vector 203 Highway.node[6].prot busyTime ETV
vector 204 Highway.node[6].prot collisions ETV
vector 205 Highway.node[7].prot nodeId ETV
vector 206 Highway.node[7].prot busyTime ETV
vector 207 Highway.node[7].prot collisions ETV
vector 208 Highway.node[8].prot nodeId ETV
vector 209 Highway.node[8].prot busyTime ETV
vector 210 Highway.node[8].prot collisions ETV
vector 211 Highway.node[9].prot nodeId ETV
vector 212 Highway.node[9].prot busyTime ETV
vector 213 Highway.node[9].prot collisions ETV
vector 214 Highway.node[10].prot nodeId ETV
vector 215 Highway.node[10].prot busyTime ETV
vector 216 Highway.node[10].prot collisions ETV
vector 217 Highway.node[11].prot nodeId ETV
vector 218 Highway.node[11].prot busyTime ETV
vector 219 Highway.node[11].prot collisions ETV
vector 220 Highway.node[12].prot nodeId ETV
vector 221 Highway.node[12].prot busyTime ETV
vector 222 Highway.node[12].prot collisions ETV
vector 223 Highway.node[13].prot nodeId ETV
vector 224 Highway.node[13].prot busyTime ETV
vector 225 Highway.node[13].prot collisions ETV
vector 226 Highway.node[14].prot nodeId ETV
vector 227 Highway.node[14].prot busyTime ETV
vector 228 Highway.node[14].prot collisions ETV
vector 229 Highway.node[15].prot nodeId ETV
vector 230 Highway.node[15].prot busyTime ETV
vector 231 Highway.node[15].prot collisions ETV
0	16709 17958 113 1334524 1.11 99.91 989 -1 9263.16 147237.56 1372899103.9696
1	34667 17064 113 1334524 1.11 99.91 989 -0.00016216 0 -0.00199806509 2.8306876736293e-07
2	51731 16889 113 1334524 1.11 99.91 989 0 0 0 0
3	68620 19177 113 1334524 1.11 99.91 989 -3.14892e-05 0.000707784 0.010991577126781 6.0508064149601e-06
4	87797 26835 113 1334524 1.11 99.91 989 -4.89399e-05 0.00109259 0.010614843047836 8.6815283230331e-06
5	114632 22816 113 1334524 1.11 99.91 989 36.11 36.1111 35713.866699999 1289666.6073546
6	137448 22711 113 1334524 1.11 99.91 989 76.8599 3644.64 1840278.9945 4475501639.6751
7	160159 21834 113 1334524 1.11 99.91 989 242.45 242.45 239783.05 58135400.472499
8	181993 22140 114 1334525 1.11 99.91 989 -1 9.99992 7098.44619 66871.722062326
9	204133 24502 114 1334525 1.11 99.91 989 -2.36679e-05 0.636957 79.999172269669 33.699903634849
10	228635 17878 114 1334525 1.11 99.91 989 1 1 989 989
11	246513 27005 114 1334525 1.11 99.91 989 -0.714745 0.0514707 -11.060737041186 7.5243544784708
12	273518 27019 114 1334525 1.11 99.91 989 -1.09881 0.0518937 -10.272657264796 10.107811787511
13	300537 23583 114 1334525 1.11 99.91 989 34.9505 36.1111 35515.297 1275487.8598666
14	324120 23719 114 1334525 1.11 99.91 989 70.8599 3618.83 1827315.8103 4421114543.8335
15	347839 22823 114 1334525 1.11 99.91 989 242.45 245.75 240165.85 58322283.4325
16	370662 23398 115 1334526 1.11 99.91 989 1.99442 39.063 9770.64127 205631.32970049
17	394060 25595 115 1334526 1.11 99.91 989 -0.883168 0.579057 91.440278130625 37.764078917386
18	419655 18867 115 1334526 1.11 99.91 989 10 10 9890 98900
19	438522 26065 115 1334526 1.11 99.91 989 -1.21117 0.119939 -33.573526247119 45.600761180639
20	464587 26064 115 1334526 1.11 99.91 989 -1.28912 0.145608 -32.836438300594 49.56130935913
21	490651 23721 115 1334526 1.11 99.91 989 32.3935 36.1111 34586.5991 1210880.5945792
22	514372 23707 115 1334526 1.11 99.91 989 16.8599 3472.08 1724400.3197 3999026962.1467
23	538079 22823 115 1334526 1.11 99.91 989 242.45 252.35 240931.45 58703628.7925
24	560902 23321 116 1334527 1.11 99.91 989 1.99421 80.223 9931.34322 244471.01344323
25	584223 25531 116 1334527 1.11 99.91 989 -0.519986 0.503144 94.60734444093 27.838322648657
26	609754 18867 116 1334527 1.11 99.91 989 11 11 10879 119669
27	628621 26096 116 1334527 1.11 99.91 989 -0.929021 0.223652 -30.738500342252 33.915818815734
28	654717 26102 116 1334527 1.11 99.91 989 -0.995825 0.447069 -30.486725857811 41.530975118776
29	680819 23703 116 1334527 1.11 99.91 989 32.9071 36.1111 34582.2513 1210405.8062109
30	704522 23719 116 1334527 1.11 99.91 989 10.8599 3465.63 1714573.1919 3960369007.3706
31	728241 22823 116 1334527 1.11 99.91 989 242.45 249.05 240485.95 58480668.9125
32	751064 19569 117 1334528 1.11 99.91 989 -1 55.2082 5130.9717 259359.59240247
33	770633 18593 117 1334528 1.11 99.91 989 0 1.8889 270.1127 510.21587903
34	789226 18867 117 1334528 1.11 99.91 989 12 12 11868 142416
35	808093 20166 117 1334528 1.11 99.91 989 -3.14892e-05 0.000707784 0.010991577126781 6.0508064149601e-06
36	828259 27824 117 1334528 1.11 99.91 989 -4.89399e-05 0.00109259 0.010614843047836 8.6815283230331e-06
37	856083 23805 117 1334528 1.11 99.91 989 36.11 36.1111 35713.866699999 1289666.6073546
38	879888 23613 117 1334528 1.11 99.91 989 9362.02 12929.8 11023305.5 123915987195.91
39	903501 22823 117 1334528 1.11 99.91 989 242.45 242.45 239783.05 58135400.472499
40	926324 21589 118 1334529 1.11 99.91 989 -1 14.9837 5573.22682 79262.806019749
41	947913 22359 118 1334529 1.11 99.91 989 -2.36679e-05 1.03507 129.83833231787 88.990771642547
42	970272 18867 118 1334529 1.11 99.91 989 13 13 12857 167141
43	989139 25919 118 1334529 1.11 99.91 989 -0.393657 1.17262 18.918901707389 20.693094064058
44	1015058 27120 118 1334529 1.11 99.91 989 -0.518252 1.5 18.857396167079 27.964418724704
45	1042178 22146 118 1334529 1.11 99.91 989 35.076 38.0813 36366.8945 1338388.1389233
46	1064324 23569 118 1334529 1.11 99.91 989 9356.02 12989 11023201.53 123949072762.12
47	1087893 22823 118 1334529 1.11 99.91 989 242.45 245.75 240713.65 58589719.3925
48	1110716 23686 119 1334530 1.11 99.91 989 2 161.602 46361.9568 4581744.364055
49	1134402 24540 119 1334530 1.11 99.91 989 0 3.21027 1407.7412792665 4012.1005962683
50	1158942 18867 119 1334530 1.11 99.91 989 14 14 13846 193844
51	1177809 25740 119 1334530 1.11 99.91 989 -1.4333 0.129362 -31.058027025433 44.926332214496
52	1203549 26726 119 1334530 1.11 99.91 989 -1.5 0.130141 -30.081981762798 53.490147867692
53	1230275 22175 119 1334530 1.11 99.91 989 32.9008 36.1111 34176.2876 1182875.2352338
54	1252450 23642 119 1334530 1.11 99.91 989 9350.02 12764.2 10964732.66 122533554460.46
55	1276092 22823 119 1334530 1.11 99.91 989 242.45 242.45 239783.05 58135400.472499
56	1298915 22714 120 1334531 1.11 99.91 989 -1 172.832 30206.62242 3264988.0163137
57	1321629 22869 120 1334531 1.11 99.91 989 -0.000281799 5.00357 1148.9417315656 5062.3552921065
58	1344498 18867 120 1334531 1.11 99.91 989 15 15 14835 222525
59	1363365 25862 120 1334531 1.11 99.91 989 -1.90725 1.10975 -31.06436434985 105.11831681595
60	1389227 26658 120 1334531 1.11 99.91 989 -2.51499 1.5 -28.823087747499 135.72961658761
61	1415885 22305 120 1334531 1.11 99.91 989 31.2448 36.1111 34001.0742 1170847.4141978
62	1438190 23616 120 1334531 1.11 99.91 989 9344.02 12740.7 10947267.96 122135225310.64
63	1461806 22823 120 1334531 1.11 99.91 989 242.45 249.05 241248.25 58851821.8925
64	1484629 23652 121 1334532 1.11 99.91 989 2 46.1982 10978.86046 204822.00397027
65	1508281 26015 121 1334532 1.11 99.91 989 0 2.19907 303.03834361779 485.9750437508
66	1534296 17878 121 1334532 1.11 99.91 989 2 2 1978 3956
67	1552174 26832 121 1334532 1.11 99.91 989 -1.26836 0.079568 -21.05560942557 24.477662577919
68	1579006 26818 121 1334532 1.11 99.91 989 -1.76207 0.0879914 -20.034633895618 32.025056696948
69	1605824 23597 121 1334532 1.11 99.91 989 33.912 36.1111 35330.8296 1262581.1551709
70	1629421 23700 121 1334532 1.11 99.91 989 64.8599 3594.44 1814637.8713 4368062212.3942
71	1653121 22823 121 1334532 1.11 99.91 989 242.45 242.45 239783.05 58135400.472499
72	1675944 23636 122 1334533 1.11 99.91 989 2 30.3677 9144.33686 113203.30762273
73	1699580 25852 122 1334533 1.11 99.91 989 -6.59109e-05 2.69292 284.29393201623 434.73701031014
74	1725432 17878 122 1334533 1.11 99.91 989 3 3 2967 8901
75	1743310 26493 122 1334533 1.11 99.91 989 -2.19868 0.321031 -33.343377445399 90.766713088004
76	1769803 26509 122 1334533 1.11 99.91 989 -2.93532 0.35499 -31.316710262067 111.92456023166
77	1796312 23701 122 1334533 1.11 99.91 989 31.241 36.1111 35046.5367 1243430.0127418
78	1820013 23709 122 1334533 1.11 99.91 989 58.8599 3560.07 1801537.2395 4311461343.7391
79	1843722 22823 122 1334533 1.11 99.91 989 242.45 242.45 239783.05 58135400.472499
80	1866545 23079 123 1334534 1.11 99.91 989 -1 9.9979 6498.76251 58481.896792841
81	1889624 25028 123 1334534 1.11 99.91 989 -0.000468825 0.373312 79.97909561452 20.516780637116
82	1914652 17878 123 1334534 1.11 99.91 989 4 4 3956 15824
83	1932530 26568 123 1334534 1.11 99.91 989 -1.43413 0.102784 -31.058231584172 42.947407643565
84	1959098 26526 123 1334534 1.11 99.91 989 -1.5 0.103143 -30.130576036289 50.867499633424
85	1985624 23688 123 1334534 1.11 99.91 989 32.9008 36.1111 35077.1538 1245020.4185226
86	2009312 23709 123 1334534 1.11 99.91 989 52.8599 3557.12 1790537.6109 4268716437.1748
87	2033021 22823 123 1334534 1.11 99.91 989 242.45 249.05 240548.65 58511692.8725
88	2055844 23617 124 1334535 1.11 99.91 989 2 51.9924 12096.15558 334067.75448184
89	2079461 25877 124 1334535 1.11 99.91 989 -0.899514 0.334432 26.250214964519 48.230711357368
90	2105338 17878 124 1334535 1.11 99.91 989 5 5 4945 24725
91	2123216 26419 124 1334535 1.11 99.91 989 -0.513835 0.105855 -8.4393651573438 9.9754633115976
92	2149635 26477 124 1334535 1.11 99.91 989 -0.617186 0.106201 -7.6476354756005 10.904552765075
93	2176112 23700 124 1334535 1.11 99.91 989 34.0722 36.1111 35249.0815 1256699.2906709
94	2199812 23686 124 1334535 1.11 99.91 989 46.8599 3568.2 1780341.4532 4230880792.5015
95	2223498 22823 124 1334535 1.11 99.91 989 242.45 245.75 240165.85 58322283.4325
96	2246321 23398 125 1334536 1.11 99.91 989 1.99619 38.7371 10451.22948 207912.8178931
97	2269719 25691 125 1334536 1.11 99.91 989 -1.61274 0.848298 87.631035939101 89.911555234356
98	2295410 17878 125 1334536 1.11 99.91 989 6 6 5934 35604
99	2313288 26173 125 1334536 1.11 99.91 989 -1.78768 0.378466 -37.225768579409 85.844851102834
100	2339461 27176 125 1334536 1.11 99.91 989 -1.91894 0.411335 -35.164725415498 93.361501234482
101	2366637 24668 125 1334536 1.11 99.91 989 30.7749 36.1111 34798.9709 1226235.1160161
102	2391305 24679 125 1334536 1.11 99.91 989 40.8599 3517.33 1767114.9426 4171603707.3218
103	2415984 23812 125 1334536 1.11 99.91 989 242.45 242.45 239783.05 58135400.472499
104	2439796 24056 126 1334537 1.11 99.91 989 -1 9.98455 5899.89652 50397.504814238
105	2463852 25789 126 1334537 1.11 99.91 989 -0.0022912 0.28364 79.846451111403 15.770910381099
106	2489641 18867 126 1334537 1.11 99.91 989 7 7 6923 48461
107	2508508 27266 126 1334537 1.11 99.91 989 -1.43378 0.104416 -31.058230737666 45.95924966408
108	2535774 27251 126 1334537 1.11 99.91 989 -1.5 0.104595 -30.130483999417 53.900137976922
109	2563025 24688 126 1334537 1.11 99.91 989 32.9008 36.1111 34837.3553 1228240.9539089
110	2587713 24668 126 1334537 1.11 99.91 989 34.8599 3515.14 1756545.0047 4130017457.6278
111	2612381 23812 126 1334537 1.11 99.91 989 242.45 252.35 240931.45 58703628.7925
112	2636193 24166 127 1334538 1.11 99.91 989 1.99993 51.6556 11160.36242 295100.76499763
113	2660359 26679 127 1334538 1.11 99.91 989 -1.75871 0.2995 9.0319446786714 88.318060306084
114	2687038 18867 127 1334538 1.11 99.91 989 8 8 7912 63296
115	2705905 27164 127 1334538 1.11 99.91 989 -0.88624 0.101696 -28.192841635375 27.416262041565
116	2733069 27198 127 1334538 1.11 99.91 989 -0.990528 0.101804 -27.484623037222 30.455154246321
117	2760267 24705 127 1334538 1.11 99.91 989 33.2868 36.1111 34832.4289 1227741.5778345
118	2784972 24671 127 1334538 1.11 99.91 989 28.8599 3508.63 1746145.6924 4088977866.1353
119	2809643 23812 127 1334538 1.11 99.91 989 242.45 249.05 240512.35 58493731.6325
120	2833455 24518 128 1334539 1.11 99.91 989 1.99971 57.8553 11774.02539 377042.78537123
121	2857973 26550 128 1334539 1.11 99.91 989 -0.583614 1.22053 127.97094231635 48.480744108848
122	2884523 18867 128 1334539 1.11 99.91 989 9 9 8901 80109
123	2903390 27213 128 1334539 1.11 99.91 989 -0.764415 0.228724 -11.033527512203 21.187661614797
124	2930603 27230 128 1334539 1.11 99.91 989 -1.08039 0.355243 -9.304856808085 25.97490931636
125	2957833 24647 128 1334539 1.11 99.91 989 33.4657 36.1111 34870.3969 1230224.4441943
126	2982480 24709 128 1334539 1.11 99.91 989 22.8599 3506.34 1735817.8209 4047959207.901
127	3007189 23812 128 1334539 1.11 99.91 989 242.45 245.75 240103.15 58291673.2925
128	3031001 41348 1513 1334580 1.212424100764 99.912423517182 988 0.099987156243 0.100006080754 98.800002497168 9.8800005349209
129	3072349 28609 1513 1334580 1.212424100764 99.912423517182 988 2 2 1976 3952
130	3100958 41362 1608 1334681 1.212847160806 99.912807679882 988 0.099912080753 0.100095583296 98.799911599826 9.8799839766258
131	3142320 28620 1608 1334681 1.212847160806 99.912807679882 988 5 5 4940 24700
132	3170940 41365 1708 1334787 1.234356200834 99.934355882452 988 0.09999008075 0.100005068927 98.799989762368 9.879997987829
133	3212305 28603 1708 1334787 1.234356200834 99.934355882452 988 3 3 2964 8892
134	3240908 41347 1889 1334962 1.248689140098 99.948690128583 988 0.099993501075 0.100012567999 98.799999108569 9.8799998378793
135	3282255 29595 1889 1334962 1.248689140098 99.948690128583 988 14 14 13832 193648
136	3311850 41401 1937 1335028 1.251114420987 99.951114451242 988 0.09999008075 0.100006080754 98.800003111005 9.8800006575768
137	3353251 29626 1937 1335028 1.251114420987 99.951114451242 988 10 10 9880 98800
138	3382877 41388 2038 1335105 1.251550441001 99.951576360939 988 0.099899759828 0.100096056369 98.800081000688 9.8800181730744
139	3424265 28632 2038 1335105 1.251550441001 99.951576360939 988 9 9 8892 80028
140	3452897 41388 2136 1335203 1.25313054107 99.953130544699 988 0.099989779132 0.100012344742 98.800003084379 9.8800006524057
141	3494285 28636 2136 1335203 1.25313054107 99.953130544699 988 4 4 3952 15808
142	3522921 41354 2234 1335301 1.253930601112 99.953930697022 988 0.09999008075 0.100005069051 98.79999017666 9.8799980706806
143	3564275 28629 2234 1335301 1.253930601112 99.953930697022 988 7 7 6916 48412
144	3592904 41371 2317 1335384 1.263880160112 99.96386820781 988 0.099993501095 0.100012554657 98.799999167782 9.8799998497155
145	3634275 29614 2317 1335384 1.263880160112 99.96386820781 988 15 15 14820 222300
146	3663889 41376 2368 1335459 1.271916621126 99.971917004432 988 0.09999008075 0.100005077248 98.800003464056 9.8800007281158
147	3705265 28629 2368 1335459 1.271916621126 99.971917004432 988 6 6 5928 35568
148	3733894 41353 2467 1335534 1.287159661154 99.987160036875 988 0.099990080751 0.100006080754 98.800003456471 9.8800007266535
149	3775247 28604 2467 1335534 1.287159661154 99.987160036875 988 8 8 7904 63232
150	3803851 41375 2578 1335651 1.297369240168 99.997371037753 988 0.099992392569 0.100012613027 98.799999917669 9.8799999996195
151	3845226 29623 2578 1335651 1.297369240168 99.997371037753 988 13 13 12844 166972
152	3874849 41375 2578 1335651 1.297369240168 99.997371037753 988 0.099992392569 0.100012613027 98.799999917669 9.8799999996195
153	3916224 29623 2578 1335651 1.297369240168 99.997371037753 988 13 13 12844 166972
154	3945847 41349 2584 1335657 1.297369260182 99.997371393013 988 0.099992391623 0.100012613435 98.800000252915 9.8800000666688
155	3987196 29603 2584 1335657 1.297369260182 99.997371393013 988 14 14 13832 193648
156	4016799 41340 2590 1335663 1.297369280196 99.997371471568 988 0.099992391628 0.100012613434 98.800000311456 9.880000078377
157	4058139 29595 2590 1335663 1.297369280196 99.997371471568 988 15 15 14820 222300
158	4087734 41375 2628 1335701 1.297787801251 99.997788533742 988 0.099989780995 0.100006080754 98.800003813241 9.8800007980485
159	4129109 28623 2628 1335701 1.297787801251 99.997788533742 988 1 1 988 988
160	4157732 41375 2628 1335701 1.297787801251 99.997788533742 988 0.099989780995 0.100006080754 98.800003813241 9.8800007980485
161	4199107 28623 2628 1335701 1.297787801251 99.997788533742 988 1 1 988 988
162	4227730 41395 2634 1335707 1.297787821265 99.997788614723 988 0.099989779716 0.100006080754 98.800003874208 9.8800008102419
163	4269125 28650 2634 1335707 1.297787821265 99.997788614723 988 2 2 1976 3952
164	4297775 41359 2640 1335719 1.297787841279 99.997788729731 988 0.099989779716 0.100006080754 98.800003969202 9.8800008292407
165	4339134 28621 2640 1335719 1.297787841279 99.997788729731 988 3 3 2964 8892
166	4367755 41347 2646 1335725 1.297787861292 99.997788740328 988 0.099989781008 0.100006080754 98.800003959786 9.8800008273575
167	4409102 28605 2646 1335725 1.297787861292 99.997788740328 988 4 4 3952 15808
168	4437707 41372 2652 1335713 1.297787881306 99.997788702103 988 0.099989779975 0.100006080754 98.800003901547 9.8800008157097
169	4479079 28616 2652 1335713 1.297787881306 99.997788702103 988 5 5 4940 24700
170	4507695 41379 2658 1335731 1.29778790132 99.997788872403 988 0.099989779717 0.100006080754 98.800004051833 9.8800008457669
171	4549074 28632 2658 1335731 1.29778790132 99.997788872403 988 6 6 5928 35568
172	4577706 41375 2664 1335737 1.297787921334 99.997788880789 988 0.099989781382 0.100006080754 98.800004040205 9.8800008434413
173	4619081 28620 2664 1335737 1.297787921334 99.997788880789 988 7 7 6916 48412
174	4647701 41360 2670 1335743 1.297787941348 99.997788901684 988 0.09998977988 0.100006080755 98.800004041086 9.8800008436175
175	4689061 28611 2670 1335743 1.297787941348 99.997788901684 988 8 8 7904 63232
176	4717672 41344 2676 1335749 1.297787961362 99.997788908402 988 0.099989779721 0.100006080755 98.80000402779 9.8800008409583
177	4759016 28608 2676 1335749 1.297787961362 99.997788908402 988 9 9 8892 80028
178	4787624 41388 2682 1335755 1.297787981375 99.997789024194 988 0.099989780889 0.100006080754 98.800004123569 9.880000860114
179	4829012 29617 2682 1335755 1.297787981375 99.997789024194 988 10 10 9880 98800
180	4858629 41363 2688 1335761 1.297788001389 99.997789045081 988 0.099989779843 0.100006080754 98.800004124442 9.8800008602887
181	4899992 29610 2688 1335761 1.297788001389 99.997789045081 988 11 11 10868 119548
182	4929602 41350 2727 1334462 1.307207001389 99.907202969168 987 0.099989771197 0.100012696001 98.699999048529 9.8699998455198
183	4970952 29599 2727 1334462 1.307207001389 99.907202969168 987 11 11 10857 119427
184	5000551 1595 12056 1335763 2 100 99 0 0 0 0
185	5002146 2208 12056 1335763 2 100 99 0.033393 0.039195159906 3.706727159906 0.13880583137006
186	5004354 1595 12056 1335763 2 100 99 0 0 0 0
187	5005949 1595 12057 1335764 2 100 99 1 1 99 99
188	5007544 2208 12057 1335764 2 100 99 0.033393 0.038826 3.706070092734 0.13875539132268
189	5009752 1595 12057 1335764 2 100 99 0 0 0 0
190	5011347 1694 12058 1335765 2 100 99 10 10 990 9900
191	5013041 2208 12058 1335765 2 100 99 0.033392 0.038826 3.706069932256 0.1387553876622
192	5015249 1595 12058 1335765 2 100 99 0 0 0 0
193	5016844 1694 12059 1335766 2 100 99 11 11 1089 11979
194	5018538 2206 12059 1335766 2 100 99 0.033393 0.0388600256 3.7060710256 0.13875554748263
195	5020744 1595 12059 1335766 2 100 99 0 0 0 0
196	5022339 1694 12060 1335767 2 100 99 12 12 1188 14256
197	5024033 2200 12060 1335767 2 100 99 0.011241 0.013069758928 1.236177758928 0.015437650512436
198	5026233 1595 12060 1335767 2 100 99 0 0 0 0
199	5027828 1694 12061 1335768 2 100 99 13 13 1287 16731
200	5029522 2198 12061 1335768 2 100 99 0.011241 0.01297 1.23604612609 0.01543424864031
201	5031720 1595 12061 1335768 2 100 99 0 0 0 0
202	5033315 1694 12062 1335769 2 100 99 14 14 1386 19404
203	5035009 2199 12062 1335769 2 100 99 0.011241 0.01297 1.236046252586 0.015434251836912
204	5037208 1595 12062 1335769 2 100 99 0 0 0 0
205	5038803 1694 12063 1335770 2 100 99 15 15 1485 22275
206	5040497 2200 12063 1335770 2 100 99 0.011241 0.013003379186 1.236046379186 0.015434279603255
207	5042697 1595 12063 1335770 2 100 99 0 0 0 0
208	5044292 1595 12064 1335771 2 100 99 2 2 198 396
209	5045887 2208 12064 1335771 2 100 99 0.033393 0.038826 3.706070185864 0.13875539832515
210	5048095 1595 12064 1335771 2 100 99 0 0 0 0
211	5049690 1595 12065 1335772 2 100 99 3 3 297 891
212	5051285 2208 12065 1335772 2 100 99 0.033393 0.038826 3.706070279092 0.13875540533501
213	5053493 1595 12065 1335772 2 100 99 0 0 0 0
214	5055088 1595 12066 1335773 2 100 99 4 4 396 1584
215	5056683 2208 12066 1335773 2 100 99 0.033393 0.038826 3.706070372368 0.13875541234849
216	5058891 1595 12066 1335773 2 100 99 0 0 0 0
217	5060486 1595 12067 1335774 2 100 99 5 5 495 2475
218	5062081 2207 12067 1335774 2 100 99 0.033393 0.038826 3.70607046567 0.13875541936394
219	5064288 1595 12067 1335774 2 100 99 0 0 0 0
220	5065883 1595 12068 1335775 2 100 99 6 6 594 3564
221	5067478 2208 12068 1335775 2 100 99 0.033393 0.038826 3.706070558968 0.13875542637912
222	5069686 1595 12068 1335775 2 100 99 0 0 0 0
223	5071281 1595 12069 1335776 2 100 99 7 7 693 4851
224	5072876 2207 12069 1335776 2 100 99 0.033393 0.038826 3.70607065228 0.13875543339536
225	5075083 1595 12069 1335776 2 100 99 0 0 0 0
226	5076678 1595 12070 1335777 2 100 99 8 8 792 6336
227	5078273 2208 12070 1335777 2 100 99 0.033393 0.038826 3.706070745602 0.13875544041237
228	5080481 1595 12070 1335777 2 100 99 0 0 0 0
229	5082076 1595 12071 1335778 2 100 99 9 9 891 8019
230	5083671 2207 12071 1335778 2 100 99 0.033393 0.038826 3.70607083893 0.13875544742985
231	5085878 1595 12071 1335778 2 100 99 0 0 0 0

