file 5329914 1720698634                                         
version 3
run BreakRanksNoGui-828-20240711-13:50:06-289108
attr configname BreakRanksNoGui
attr datetime 20240711-13:50:06
attr datetimef 20240711-135006
attr experiment BreakRanksNoGui
attr inifile omnetpp.ini
attr iterationvars "$nCars=16, $platoonSize=16, $nLanes=1, $ploegH=0.5, $controller=1, $headway=0.1, $leaderHeadway=1.2, $leaderSpeed=130, $breakRanksSafetyDistance=5, $minSpeed=120, $maxSpeed=140, $beaconInterval=0.1, $priority=4, $packetSize=200, $sController=\"CACC\", $0=2, $1=0"
attr iterationvarsd nCars=16/platoonSize=16/nLanes=1/ploegH=0.5/controller=1/headway=0.1/leaderHeadway=1.2/leaderSpeed=130/breakRanksSafetyDistance=5/minSpeed=120/maxSpeed=140/beaconInterval=0.1/priority=4/packetSize=200/sController=CACC/2/0
attr iterationvarsf nCars=16,platoonSize=16,nLanes=1,ploegH=0.5,controller=1,headway=0.1,leaderHeadway=1.2,leaderSpeed=130,breakRanksSafetyDistance=5,minSpeed=120,maxSpeed=140,beaconInterval=0.1,priority=4,packetSize=200,sController=CACC,2,0-
attr measurement "$nCars=16, $platoonSize=16, $nLanes=1, $ploegH=0.5, $controller=1, $headway=0.1, $leaderHeadway=1.2, $leaderSpeed=130, $breakRanksSafetyDistance=5, $minSpeed=120, $maxSpeed=140, $beaconInterval=0.1, $priority=4, $packetSize=200, $sController=\"CACC\", $0=2, $1=0"
attr network Highway
attr processid 289108
attr repetition 8
attr replication #8
attr resultdir results
attr runnumber 828
attr seedset 8
itervar beaconInterval 0.1
itervar breakRanksSafetyDistance 5
itervar controller 1
itervar headway 0.1
itervar leaderHeadway 1.2
itervar leaderSpeed 130
itervar maxSpeed 140
itervar minSpeed 120
itervar nCars 16
itervar nLanes 1
itervar packetSize 200
itervar platoonSize 16
itervar ploegH 0.5
itervar priority 4
itervar sController "\"CACC\""
config image-path ../../../veins/images
config repeat 10
config extends BreakRanks
config *.manager.command "\"sumo\""
config *.manager.ignoreGuiCommands true
config output-vector-file "results/BreakRanks_1_0.1_130_5_16 /result_8.vec"
config output-scalar-file "results/BreakRanks_1_0.1_130_5_16 /result_8.sca"
config extends Platooning
config *.node[*].scenario_type "\"BreakRanksScenario\""
config *.manager.command "\"sumo-gui\""
config *.node[*].scenario_type "\"SimpleScenario\""
config cmdenv-express-mode true
config cmdenv-autoflush true
config cmdenv-status-frequency 15s
config num-rngs 6
config network Highway
config debug-on-errors true
config print-undisposed true
config *.playgroundSizeX 65000m
config *.playgroundSizeY 25000m
config *.playgroundSizeZ 50m
config sim-time-limit "100 s"
config *.annotations.draw false
config *.obstacles.debug false
config *.world.useTorus false
config *.world.use2D false
config *.manager.updateInterval 0.01s
config *.manager.host "\"localhost\""
config *.manager.moduleType "\"org.car2x.plexe.PlatoonCar\""
config *.manager.moduleName "\"node\""
config *.manager.moduleDisplayString "\"\""
config *.manager.autoShutdown true
config *.manager.margin 25
config *.connectionManager.sendDirect true
config *.connectionManager.maxInterfDist 2600m
config *.connectionManager.drawMaxIntfDist false
config *.**.nic.mac1609_4.useServiceChannel false
config *.**.nic.mac1609_4.txPower 100mW
config *.**.nic.mac1609_4.bitrate 6Mbps
config *.**.nic.mac1609_4.useAcks true
config *.**.nic.mac1609_4.ackErrorRate 0.0
config *.**.nic.mac1609_4.frameErrorRate 0.0
config *.**.nic.phy80211p.minPowerLevel -94dBm
config *.**.nic.phy80211p.maxTXPower 100mW
config *.**.nic.phy80211p.useNoiseFloor true
config *.**.nic.phy80211p.noiseFloor -95dBm
config *.**.nic.phy80211p.decider "xmldoc(\"config.xml\")"
config *.**.nic.phy80211p.analogueModels "xmldoc(\"config.xml\")"
config *.**.nic.phy80211p.usePropagationDelay true
config *.node[*].mobility.x 0
config *.node[*].mobility.y 0
config *.node[*].mobility.z 1.895
config seed-set 8
config **.seed 8
config *.node[*].prot.rng-0 2
config *.node[*].appl.rng-0 3
config *.node[*].scenario.rng-0 4
config **.traffic.rng-0 5
config *.manager.configFile "\"./sumocfg/freeway.sumo.cfg\""
config *.manager.launchConfig "xmldoc(\"./sumocfg/freeway.launchd.xml\")"
config **.numberOfCars 16
config **.numberOfCarsPerPlatoon 16
config **.numberOfLanes 1
config *.node[*].helper_type "\"PositionHelper\""
config *.node[*].scenario.caccC1 0.5
config *.node[*].scenario.caccXi 1
config *.node[*].scenario.caccOmegaN "0.2 Hz"
config *.node[*].scenario.caccSpacing "2 m"
config *.node[*].scenario.engineTau "0.5 s"
config *.node[*].scenario.ploegH 0.5s
config *.node[*].scenario.ploegKp 0.2
config *.node[*].scenario.ploegKd 0.7
config *.node[*].scenario.useRealisticEngine false
config *.node[*].scenario.useControllerAcceleration true
config *.node[*].scenario.nLanes 1
config **.numericController 1
config **.headway 0.1s
config *.node[*].scenario.accHeadway 0.1s
config *.node[*].scenario.leaderHeadway 1.2s
config *.node[*].scenario.leaderSpeed 130kmph
config *.node[*].appl_type "\"SimplePlatooningApp\""
config *.node[*].appl.*.scalar-recording true
config *.node[*].appl.*.vector-recording true
config *.node[0].appl.breakRanksSafetyDistance 5m
config *.node[*].appl.minSpeed 120kmph
config *.node[*].appl.maxSpeed 140kmph
config *.node[*].protocol_type "\"SimplePlatooningBeaconing\""
config *.node[*].prot.*.scalar-recording true
config *.node[*].prot.*.vector-recording true
config *.node[*].prot.beaconingInterval 0.1s
config *.node[*].prot.priority 4
config *.node[*].prot.packetSize 200
config **.traffic_type "\"PlatoonsTrafficManager\""
config **.traffic.platoonInsertTime "1 s"
config **.traffic.platoonInsertSpeed 130kmph
config **.traffic.nCars 16
config **.traffic.platoonSize 16
config **.traffic.nLanes 1
config **.traffic.platooningVType "\"vtypeauto\""
config **.traffic.controller "\"CACC\""
config **.traffic.platoonInsertDistance 2m
config **.traffic.platoonInsertHeadway 0s
config **.traffic.platoonLeaderHeadway 1.2s
config **.scalar-recording false
config **.vector-recording false

vector 0 Highway.node[0].appl distance ETV
vector 1 Highway.node[0].appl relativeSpeed ETV
vector 2 Highway.node[0].appl nodeId ETV
vector 3 Highway.node[0].appl acceleration ETV
vector 4 Highway.node[0].appl controllerAcceleration ETV
vector 5 Highway.node[0].appl speed ETV
vector 6 Highway.node[0].appl posx ETV
vector 7 Highway.node[0].appl posy ETV
vector 8 Highway.node[1].appl distance ETV
vector 9 Highway.node[1].appl relativeSpeed ETV
vector 10 Highway.node[1].appl nodeId ETV
vector 11 Highway.node[1].appl acceleration ETV
vector 12 Highway.node[1].appl controllerAcceleration ETV
vector 13 Highway.node[1].appl speed ETV
vector 14 Highway.node[1].appl posx ETV
vector 15 Highway.node[1].appl posy ETV
vector 16 Highway.node[2].appl distance ETV
vector 17 Highway.node[2].appl relativeSpeed ETV
vector 18 Highway.node[2].appl nodeId ETV
vector 19 Highway.node[2].appl acceleration ETV
vector 20 Highway.node[2].appl controllerAcceleration ETV
vector 21 Highway.node[2].appl speed ETV
vector 22 Highway.node[2].appl posx ETV
vector 23 Highway.node[2].appl posy ETV
vector 24 Highway.node[3].appl distance ETV
vector 25 Highway.node[3].appl relativeSpeed ETV
vector 26 Highway.node[3].appl nodeId ETV
vector 27 Highway.node[3].appl acceleration ETV
vector 28 Highway.node[3].appl controllerAcceleration ETV
vector 29 Highway.node[3].appl speed ETV
vector 30 Highway.node[3].appl posx ETV
vector 31 Highway.node[3].appl posy ETV
vector 32 Highway.node[4].appl distance ETV
vector 33 Highway.node[4].appl relativeSpeed ETV
vector 34 Highway.node[4].appl nodeId ETV
vector 35 Highway.node[4].appl acceleration ETV
vector 36 Highway.node[4].appl controllerAcceleration ETV
vector 37 Highway.node[4].appl speed ETV
vector 38 Highway.node[4].appl posx ETV
vector 39 Highway.node[4].appl posy ETV
vector 40 Highway.node[5].appl distance ETV
vector 41 Highway.node[5].appl relativeSpeed ETV
vector 42 Highway.node[5].appl nodeId ETV
vector 43 Highway.node[5].appl acceleration ETV
vector 44 Highway.node[5].appl controllerAcceleration ETV
vector 45 Highway.node[5].appl speed ETV
vector 46 Highway.node[5].appl posx ETV
vector 47 Highway.node[5].appl posy ETV
vector 48 Highway.node[6].appl distance ETV
vector 49 Highway.node[6].appl relativeSpeed ETV
vector 50 Highway.node[6].appl nodeId ETV
vector 51 Highway.node[6].appl acceleration ETV
vector 52 Highway.node[6].appl controllerAcceleration ETV
vector 53 Highway.node[6].appl speed ETV
vector 54 Highway.node[6].appl posx ETV
vector 55 Highway.node[6].appl posy ETV
vector 56 Highway.node[7].appl distance ETV
vector 57 Highway.node[7].appl relativeSpeed ETV
vector 58 Highway.node[7].appl nodeId ETV
vector 59 Highway.node[7].appl acceleration ETV
vector 60 Highway.node[7].appl controllerAcceleration ETV
vector 61 Highway.node[7].appl speed ETV
vector 62 Highway.node[7].appl posx ETV
vector 63 Highway.node[7].appl posy ETV
vector 64 Highway.node[8].appl distance ETV
vector 65 Highway.node[8].appl relativeSpeed ETV
vector 66 Highway.node[8].appl nodeId ETV
vector 67 Highway.node[8].appl acceleration ETV
vector 68 Highway.node[8].appl controllerAcceleration ETV
vector 69 Highway.node[8].appl speed ETV
vector 70 Highway.node[8].appl posx ETV
vector 71 Highway.node[8].appl posy ETV
vector 72 Highway.node[9].appl distance ETV
vector 73 Highway.node[9].appl relativeSpeed ETV
vector 74 Highway.node[9].appl nodeId ETV
vector 75 Highway.node[9].appl acceleration ETV
vector 76 Highway.node[9].appl controllerAcceleration ETV
vector 77 Highway.node[9].appl speed ETV
vector 78 Highway.node[9].appl posx ETV
vector 79 Highway.node[9].appl posy ETV
vector 80 Highway.node[10].appl distance ETV
vector 81 Highway.node[10].appl relativeSpeed ETV
vector 82 Highway.node[10].appl nodeId ETV
vector 83 Highway.node[10].appl acceleration ETV
vector 84 Highway.node[10].appl controllerAcceleration ETV
vector 85 Highway.node[10].appl speed ETV
vector 86 Highway.node[10].appl posx ETV
vector 87 Highway.node[10].appl posy ETV
vector 88 Highway.node[11].appl distance ETV
vector 89 Highway.node[11].appl relativeSpeed ETV
vector 90 Highway.node[11].appl nodeId ETV
vector 91 Highway.node[11].appl acceleration ETV
vector 92 Highway.node[11].appl controllerAcceleration ETV
vector 93 Highway.node[11].appl speed ETV
vector 94 Highway.node[11].appl posx ETV
vector 95 Highway.node[11].appl posy ETV
vector 96 Highway.node[12].appl distance ETV
vector 97 Highway.node[12].appl relativeSpeed ETV
vector 98 Highway.node[12].appl nodeId ETV
vector 99 Highway.node[12].appl acceleration ETV
vector 100 Highway.node[12].appl controllerAcceleration ETV
vector 101 Highway.node[12].appl speed ETV
vector 102 Highway.node[12].appl posx ETV
vector 103 Highway.node[12].appl posy ETV
vector 104 Highway.node[13].appl distance ETV
vector 105 Highway.node[13].appl relativeSpeed ETV
vector 106 Highway.node[13].appl nodeId ETV
vector 107 Highway.node[13].appl acceleration ETV
vector 108 Highway.node[13].appl controllerAcceleration ETV
vector 109 Highway.node[13].appl speed ETV
vector 110 Highway.node[13].appl posx ETV
vector 111 Highway.node[13].appl posy ETV
vector 112 Highway.node[14].appl distance ETV
vector 113 Highway.node[14].appl relativeSpeed ETV
vector 114 Highway.node[14].appl nodeId ETV
vector 115 Highway.node[14].appl acceleration ETV
vector 116 Highway.node[14].appl controllerAcceleration ETV
vector 117 Highway.node[14].appl speed ETV
vector 118 Highway.node[14].appl posx ETV
vector 119 Highway.node[14].appl posy ETV
vector 120 Highway.node[15].appl distance ETV
vector 121 Highway.node[15].appl relativeSpeed ETV
vector 122 Highway.node[15].appl nodeId ETV
vector 123 Highway.node[15].appl acceleration ETV
vector 124 Highway.node[15].appl controllerAcceleration ETV
vector 125 Highway.node[15].appl speed ETV
vector 126 Highway.node[15].appl posx ETV
vector 127 Highway.node[15].appl posy ETV
vector 128 Highway.node[4].prot frontDelay ETV
vector 129 Highway.node[4].prot frontDelayId ETV
vector 130 Highway.node[8].prot frontDelay ETV
vector 131 Highway.node[8].prot frontDelayId ETV
vector 132 Highway.node[10].prot frontDelay ETV
vector 133 Highway.node[10].prot frontDelayId ETV
vector 134 Highway.node[3].prot frontDelay ETV
vector 135 Highway.node[3].prot frontDelayId ETV
vector 136 Highway.node[2].prot frontDelay ETV
vector 137 Highway.node[2].prot frontDelayId ETV
vector 138 Highway.node[5].prot frontDelay ETV
vector 139 Highway.node[5].prot frontDelayId ETV
vector 140 Highway.node[9].prot frontDelay ETV
vector 141 Highway.node[9].prot frontDelayId ETV
vector 142 Highway.node[7].prot frontDelay ETV
vector 143 Highway.node[7].prot frontDelayId ETV
vector 144 Highway.node[13].prot frontDelay ETV
vector 145 Highway.node[13].prot frontDelayId ETV
vector 146 Highway.node[1].prot leaderDelay ETV
vector 147 Highway.node[1].prot leaderDelayId ETV
vector 148 Highway.node[1].prot frontDelay ETV
vector 149 Highway.node[1].prot frontDelayId ETV
vector 150 Highway.node[8].prot leaderDelay ETV
vector 151 Highway.node[8].prot leaderDelayId ETV
vector 152 Highway.node[9].prot leaderDelay ETV
vector 153 Highway.node[9].prot leaderDelayId ETV
vector 154 Highway.node[10].prot leaderDelay ETV
vector 155 Highway.node[10].prot leaderDelayId ETV
vector 156 Highway.node[11].prot leaderDelay ETV
vector 157 Highway.node[11].prot leaderDelayId ETV
vector 158 Highway.node[12].prot leaderDelay ETV
vector 159 Highway.node[12].prot leaderDelayId ETV
vector 160 Highway.node[13].prot leaderDelay ETV
vector 161 Highway.node[13].prot leaderDelayId ETV
vector 162 Highway.node[14].prot leaderDelay ETV
vector 163 Highway.node[14].prot leaderDelayId ETV
vector 164 Highway.node[15].prot leaderDelay ETV
vector 165 Highway.node[15].prot leaderDelayId ETV
vector 166 Highway.node[2].prot leaderDelay ETV
vector 167 Highway.node[2].prot leaderDelayId ETV
vector 168 Highway.node[3].prot leaderDelay ETV
vector 169 Highway.node[3].prot leaderDelayId ETV
vector 170 Highway.node[4].prot leaderDelay ETV
vector 171 Highway.node[4].prot leaderDelayId ETV
vector 172 Highway.node[5].prot leaderDelay ETV
vector 173 Highway.node[5].prot leaderDelayId ETV
vector 174 Highway.node[6].prot leaderDelay ETV
vector 175 Highway.node[6].prot leaderDelayId ETV
vector 176 Highway.node[7].prot leaderDelay ETV
vector 177 Highway.node[7].prot leaderDelayId ETV
vector 178 Highway.node[6].prot frontDelay ETV
vector 179 Highway.node[6].prot frontDelayId ETV
vector 180 Highway.node[15].prot frontDelay ETV
vector 181 Highway.node[15].prot frontDelayId ETV
vector 182 Highway.node[14].prot frontDelay ETV
vector 183 Highway.node[14].prot frontDelayId ETV
vector 184 Highway.node[12].prot frontDelay ETV
vector 185 Highway.node[12].prot frontDelayId ETV
vector 186 Highway.node[11].prot frontDelay ETV
vector 187 Highway.node[11].prot frontDelayId ETV
vector 188 Highway.node[0].prot nodeId ETV
vector 189 Highway.node[0].prot busyTime ETV
vector 190 Highway.node[0].prot collisions ETV
vector 191 Highway.node[1].prot nodeId ETV
vector 192 Highway.node[1].prot busyTime ETV
vector 193 Highway.node[1].prot collisions ETV
vector 194 Highway.node[2].prot nodeId ETV
vector 195 Highway.node[2].prot busyTime ETV
vector 196 Highway.node[2].prot collisions ETV
vector 197 Highway.node[3].prot nodeId ETV
vector 198 Highway.node[3].prot busyTime ETV
vector 199 Highway.node[3].prot collisions ETV
vector 200 Highway.node[4].prot nodeId ETV
vector 201 Highway.node[4].prot busyTime ETV
vector 202 Highway.node[4].prot collisions ETV
vector 203 Highway.node[5].prot nodeId ETV
vector 204 Highway.node[5].prot busyTime ETV
vector 205 Highway.node[5].prot collisions ETV
vector 206 Highway.node[6].prot nodeId ETV
vector 207 Highway.node[6].prot busyTime ETV
vector 208 Highway.node[6].prot collisions ETV
vector 209 Highway.node[7].prot nodeId ETV
vector 210 Highway.node[7].prot busyTime ETV
vector 211 Highway.node[7].prot collisions ETV
vector 212 Highway.node[8].prot nodeId ETV
vector 213 Highway.node[8].prot busyTime ETV
vector 214 Highway.node[8].prot collisions ETV
vector 215 Highway.node[9].prot nodeId ETV
vector 216 Highway.node[9].prot busyTime ETV
vector 217 Highway.node[9].prot collisions ETV
vector 218 Highway.node[10].prot nodeId ETV
vector 219 Highway.node[10].prot busyTime ETV
vector 220 Highway.node[10].prot collisions ETV
vector 221 Highway.node[11].prot nodeId ETV
vector 222 Highway.node[11].prot busyTime ETV
vector 223 Highway.node[11].prot collisions ETV
vector 224 Highway.node[12].prot nodeId ETV
vector 225 Highway.node[12].prot busyTime ETV
vector 226 Highway.node[12].prot collisions ETV
vector 227 Highway.node[13].prot nodeId ETV
vector 228 Highway.node[13].prot busyTime ETV
vector 229 Highway.node[13].prot collisions ETV
vector 230 Highway.node[14].prot nodeId ETV
vector 231 Highway.node[14].prot busyTime ETV
vector 232 Highway.node[14].prot collisions ETV
vector 233 Highway.node[15].prot nodeId ETV
vector 234 Highway.node[15].prot busyTime ETV
vector 235 Highway.node[15].prot collisions ETV
0	16895 18176 113 2096144 1.11 99.91 989 -1 -1 -989 989
1	35071 17187 113 2096144 1.11 99.91 989 0 0 0 0
2	52258 17187 113 2096144 1.11 99.91 989 0 0 0 0
3	69445 19475 113 2096144 1.11 99.91 989 -3.14892e-05 0.000707784 0.010991577126781 6.0508064149601e-06
4	88920 27133 113 2096144 1.11 99.91 989 -4.89399e-05 0.00109259 0.010614843047836 8.6815283230331e-06
5	116053 23114 113 2096144 1.11 99.91 989 36.11 36.1111 35713.866699999 1289666.6073546
6	139167 23011 113 2096144 1.11 99.91 989 114.18 3681.96 1877188.475 4614237525.8119
7	162178 22132 113 2096144 1.11 99.91 989 242.45 242.45 239783.05 58135400.472499
8	184310 22630 114 2096145 1.11 99.91 989 -1 4.99998 3926.6798 18615.186744318
9	206940 25397 114 2096145 1.11 99.91 989 -1.58604e-05 0.238853 29.999829723971 4.7387997710806
10	232337 18176 114 2096145 1.11 99.91 989 1 1 989 989
11	250513 27434 114 2096145 1.11 99.91 989 -0.0908438 0.572152 8.917586430979 4.1540460193837
12	277947 27455 114 2096145 1.11 99.91 989 -0.119596 0.888386 8.976815156769 6.1960114441807
13	305402 23968 114 2096145 1.11 99.91 989 35.8722 37.0397 35741.713 1291731.9374013
14	329370 23963 114 2096145 1.11 99.91 989 108.18 3678.7 1869044.099 4582445035.1574
15	353333 23121 114 2096145 1.11 99.91 989 242.45 245.75 240030.55 58256229.9725
16	376454 23973 115 2096146 1.11 99.91 989 1.99996 7.92583 3793.67335 16373.397352132
17	400427 26381 115 2096146 1.11 99.91 989 -1.63488e-05 1.17649 59.85350502601 19.606735388299
18	426808 19165 115 2096146 1.11 99.91 989 10 10 9890 98900
19	445973 26605 115 2096146 1.11 99.91 989 -2.8956 0.0355569 -153.58202977484 335.4747964699
20	472578 26626 115 2096146 1.11 99.91 989 -3.35778 0.0356058 -156.92312516592 364.74824951353
21	499204 23993 115 2096146 1.11 99.91 989 20.7907 36.1111 34785.3618 1229722.1143628
22	523197 23978 115 2096146 1.11 99.91 989 54.1799 3529.87 1795630.9347 4285595704.7215
23	547175 23121 115 2096146 1.11 99.91 989 242.45 242.45 239783.05 58135400.472499
24	570296 23849 116 2096147 1.11 99.91 989 1.99949 41.7391 6324.37214 138556.95178861
25	594145 26468 116 2096147 1.11 99.91 989 -0.333892 0.355845 37.862690862455 6.9753469375208
26	620613 19165 116 2096147 1.11 99.91 989 11 11 10879 119669
27	639778 26657 116 2096147 1.11 99.91 989 -0.567515 0.0654686 -13.287073075596 8.0727105840819
28	666435 26661 116 2096147 1.11 99.91 989 -0.618224 0.0783687 -12.664284289083 8.9379151302051
29	693096 23999 116 2096147 1.11 99.91 989 34.6298 36.1111 35303.3384 1260369.4300323
30	717095 23982 116 2096147 1.11 99.91 989 48.1799 3574.97 1789413.8462 4265341157.8043
31	741077 23121 116 2096147 1.11 99.91 989 242.45 249.05 240278.05 58378692.9725
32	764198 23515 117 2096148 1.11 99.91 989 1.99999 47.1067 6444.54645 154654.33984165
33	787713 26290 117 2096148 1.11 99.91 989 -4.66309e-06 1.04134 92.137528214713 61.355935570841
34	814003 19165 117 2096148 1.11 99.91 989 12 12 11868 142416
35	833168 26592 117 2096148 1.11 99.91 989 -1.25135 0.0557824 -21.026634639195 21.955932977383
36	859760 26572 117 2096148 1.11 99.91 989 -1.5 0.0866294 -19.957123698734 27.932503156702
37	886332 23996 117 2096148 1.11 99.91 989 33.9133 36.1111 35218.8568 1254467.8003498
38	910328 24021 117 2096148 1.11 99.91 989 42.1799 3560.56 1781705.333 4234503472.2396
39	934349 23121 117 2096148 1.11 99.91 989 242.45 245.75 240030.55 58256229.9725
40	957470 23944 118 2096149 1.11 99.91 989 1.99998 26.782 4682.74807 45845.969824539
41	981414 26307 118 2096149 1.11 99.91 989 -1.31333 5.65433 156.39519313114 737.34586220756
42	1007721 19165 118 2096149 1.11 99.91 989 13 13 12857 167141
43	1026886 26447 118 2096149 1.11 99.91 989 -2.62858 1.47592 -38.33221233259 225.08477534809
44	1053333 26369 118 2096149 1.11 99.91 989 -2.71585 1.5 -34.586298673395 276.27015899442
45	1079702 24001 118 2096149 1.11 99.91 989 28.2836 36.1111 34970.1611 1238359.7913435
46	1103703 23981 118 2096149 1.11 99.91 989 36.1799 3529.78 1773599.8765 4200776966.2387
47	1127684 23121 118 2096149 1.11 99.91 989 242.45 245.75 239915.05 58199842.872499
48	1150805 23602 119 2096150 1.11 99.91 989 1.99745 40.7496 4988.11849 79567.107842432
49	1174407 26358 119 2096150 1.11 99.91 989 -0.00139087 4.82914 166.41682189711 441.11711897332
50	1200765 19165 119 2096150 1.11 99.91 989 14 14 13846 193844
51	1219930 26428 119 2096150 1.11 99.91 989 -2.54636 1.48186 -16.201003969223 190.04716884297
52	1246358 26352 119 2096150 1.11 99.91 989 -3.35181 1.5 -13.834976462373 247.41637970059
53	1272710 24000 119 2096150 1.11 99.91 989 29.9946 36.1111 35035.6936 1242160.4370523
54	1296710 23997 119 2096150 1.11 99.91 989 30.1799 3530.22 1766372.0698 4173063191.9567
55	1320707 23121 119 2096150 1.11 99.91 989 242.45 249.05 240106.45 58294351.5725
56	1343828 23658 120 2096151 1.11 99.91 989 -1 37.2108 3349.40024 23919.716898722
57	1367486 26026 120 2096151 1.11 99.91 989 -0.00159252 3.57928 64.8052498804 119.40185506757
58	1393512 19165 120 2096151 1.11 99.91 989 15 15 14835 222525
59	1412677 26428 120 2096151 1.11 99.91 989 -2.89218 1.49899 19.085887634254 192.75690461389
60	1439105 26273 120 2096151 1.11 99.91 989 -3.35653 1.5 23.330163020625 264.15396418753
61	1465378 23991 120 2096151 1.11 99.91 989 31.6505 37.998 35152.2905 1249957.3858832
62	1489369 23973 120 2096151 1.11 99.91 989 24.1799 3535.7 1759418.5426 4147137032.8499
63	1513342 23121 120 2096151 1.11 99.91 989 242.45 252.35 240334.15 58407866.9525
64	1536463 23981 121 2096152 1.11 99.91 989 2 28.7001 5502.56635 52782.79832731
65	1560444 26690 121 2096152 1.11 99.91 989 0 2.68415 177.82419867519 326.82654760263
66	1587134 18176 121 2096152 1.11 99.91 989 2 2 1978 3956
67	1605310 27175 121 2096152 1.11 99.91 989 -1.6973 0.297036 -16.351497197207 37.432047658172
68	1632485 27192 121 2096152 1.11 99.91 989 -2.58951 0.335038 -14.291728159823 52.399329039465
69	1659677 23953 121 2096152 1.11 99.91 989 33.4269 36.1111 35506.0442 1274997.0238487
70	1683630 24014 121 2096152 1.11 99.91 989 102.18 3649.26 1860072.192 4544468707.8887
71	1707644 23121 121 2096152 1.11 99.91 989 242.45 242.45 239783.05 58135400.472499
72	1730765 23951 122 2096153 1.11 99.91 989 2 21.8795 4744.28951 30396.305026419
73	1754716 26598 122 2096153 1.11 99.91 989 -4.21714e-05 3.30579 199.95523697216 469.62954107954
74	1781314 18176 122 2096153 1.11 99.91 989 3 3 2967 8901
75	1799490 27081 122 2096153 1.11 99.91 989 -2.62124 0.597344 -39.473079826067 126.93547090944
76	1826571 27123 122 2096153 1.11 99.91 989 -3.35406 0.641166 -35.865706008788 156.75440452275
77	1853694 23959 122 2096153 1.11 99.91 989 30.3314 36.1111 35306.0895 1261787.174732
78	1877653 24014 122 2096153 1.11 99.91 989 96.1799 3623.38 1851371.8728 4508221304.2078
79	1901667 23121 122 2096153 1.11 99.91 989 242.45 242.45 239783.05 58135400.472499
80	1924788 23967 123 2096154 1.11 99.91 989 2 18.9454 4491.09543 25182.08217534
81	1948755 26555 123 2096154 1.11 99.91 989 -7.25703e-05 3.25162 170.80671129707 386.32866207881
82	1975310 18176 123 2096154 1.11 99.91 989 4 4 3956 15824
83	1993486 26999 123 2096154 1.11 99.91 989 -2.91554 0.845285 -66.417611612988 211.46060273945
84	2020485 27018 123 2096154 1.11 99.91 989 -3.35829 0.889072 -60.985164384111 245.63060391114
85	2047503 23978 123 2096154 1.11 99.91 989 27.5682 36.1111 35135.2806 1251259.0169549
86	2071481 24008 123 2096154 1.11 99.91 989 90.1799 3600.43 1842924.8557 4473569506.3993
87	2095489 23121 123 2096154 1.11 99.91 989 242.45 242.45 239783.05 58135400.472499
88	2118610 23953 124 2096155 1.11 99.91 989 1.9984 15.4771 4273.88266 21385.827508972
89	2142563 26539 124 2096155 1.11 99.91 989 -0.0024198 3.20178 136.32872140679 276.01827787183
90	2169102 18176 124 2096155 1.11 99.91 989 5 5 4945 24725
91	2187278 26918 124 2096155 1.11 99.91 989 -2.98138 1.01981 -97.512982820454 274.71788617928
92	2214196 26932 124 2096155 1.11 99.91 989 -3.35824 1.0947 -90.873212156707 310.7734821982
93	2241128 23994 124 2096155 1.11 99.91 989 25.0972 36.1111 34998.9536 1243359.5565867
94	2265122 24003 124 2096155 1.11 99.91 989 84.1799 3580.95 1834694.8765 4440249155.4435
95	2289125 23121 124 2096155 1.11 99.91 989 242.45 242.45 239783.05 58135400.472499
96	2312246 23577 125 2096156 1.11 99.91 989 -1 4.9981 3551.14445 15732.240618703
97	2335823 25961 125 2096156 1.11 99.91 989 -0.00192518 0.11521 29.981103631196 2.3992779061316
98	2361784 18176 125 2096156 1.11 99.91 989 6 6 5934 35604
99	2379960 26966 125 2096156 1.11 99.91 989 -0.714442 0.0398863 -11.052802986282 7.5705409357281
100	2406926 27971 125 2096156 1.11 99.91 989 -1.0977 0.049501 -10.319829535855 9.9924034376203
101	2434897 24989 125 2096156 1.11 99.91 989 34.9505 36.1111 35460.8419 1271574.5413891
102	2459886 24998 125 2096156 1.11 99.91 989 78.1799 3620.71 1828077.6433 4418151064.1862
103	2484884 24110 125 2096156 1.11 99.91 989 242.45 249.05 240278.05 58378692.9725
104	2508994 24970 126 2096157 1.11 99.91 989 1.99996 63.029 7732.74583 249428.92964146
105	2533964 27353 126 2096157 1.11 99.91 989 -2.34139e-05 2.08917 161.32649846651 255.06171336763
106	2561317 19165 126 2096157 1.11 99.91 989 7 7 6923 48461
107	2580482 27892 126 2096157 1.11 99.91 989 -0.718644 0.0392209 -11.03086517483 7.71387847705
108	2608374 27914 126 2096157 1.11 99.91 989 -1.09146 0.049788 -9.869032795997 9.6178971579918
109	2636288 24970 126 2096157 1.11 99.91 989 34.9502 36.1111 35430.4238 1269405.0302205
110	2661258 24986 126 2096157 1.11 99.91 989 72.1799 3611.67 1820191.6053 4386855421.4997
111	2686244 24110 126 2096157 1.11 99.91 989 242.45 245.75 240030.55 58256229.9725
112	2710354 24680 127 2096158 1.11 99.91 989 1.99992 22.9884 5002.60811 45767.072749016
113	2735034 27481 127 2096158 1.11 99.91 989 -1.48773 2.11369 14.748466494629 103.58167809445
114	2762515 19165 127 2096158 1.11 99.91 989 8 8 7912 63296
115	2781680 27732 127 2096158 1.11 99.91 989 -2.74221 0.63113 -118.80981868713 269.18407730157
116	2809412 27743 127 2096158 1.11 99.91 989 -2.81249 0.951331 -114.08792856373 287.34366848107
117	2837155 24985 127 2096158 1.11 99.91 989 23.9215 36.1111 34924.2583 1238204.0514497
118	2862140 24995 127 2096158 1.11 99.91 989 66.1799 3555.59 1811246.1623 4347893871.8496
119	2887135 24110 127 2096158 1.11 99.91 989 242.45 242.45 239783.05 58135400.472499
120	2911245 24934 128 2096159 1.11 99.91 989 1.99801 9.79242 3909.60045 17509.6963748
121	2936179 27400 128 2096159 1.11 99.91 989 -0.00152695 2.22611 79.043977139286 58.83547178654
122	2963579 19165 128 2096159 1.11 99.91 989 9 9 8901 80109
123	2982744 27646 128 2096159 1.11 99.91 989 -2.55295 0.036915 -141.43701153854 299.33886072935
124	3010390 27668 128 2096159 1.11 99.91 989 -3.35436 0.299099 -140.53673164987 324.17388010624
125	3038058 24991 128 2096159 1.11 99.91 989 21.9672 36.1111 34845.2155 1233437.0863601
126	3063049 24974 128 2096159 1.11 99.91 989 60.1799 3541.8 1803380.5833 4316415251.8215
127	3088023 24110 128 2096159 1.11 99.91 989 242.45 242.45 239783.05 58135400.472499
128	3112133 41669 2416 2096341 1.218687021398 99.918678997133 988 0.099989261068 0.100007424557 98.799997897064 9.8799996207375
129	3153802 29909 2416 2096341 1.218687021398 99.918678997133 988 12 12 11856 142272
130	3183711 41646 2547 2096472 1.224102221536 99.924107393026 988 0.099988923909 0.100007425896 98.799998092819 9.8799996600341
131	3225357 28904 2547 2096472 1.224102221536 99.924107393026 988 2 2 1976 3952
132	3254261 41642 2677 2096608 1.226384261564 99.926389555937 988 0.099989529669 0.100007440984 98.799998215702 9.8799996842446
133	3295903 28918 2677 2096608 1.226384261564 99.926389555937 988 4 4 3952 15808
134	3324821 41660 2802 2096763 1.233905401661 99.933897945291 988 0.099988990169 0.100007434977 98.799998464959 9.8799997344462
135	3366481 29914 2802 2096763 1.233905401661 99.933897945291 988 11 11 10868 119548
136	3396395 41654 2932 2096863 1.235498421675 99.935503871671 988 0.099988836092 0.100009121475 98.800011371325 9.8800023158063
137	3438049 29906 2932 2096863 1.235498421675 99.935503871671 988 10 10 9880 98800
138	3467955 41654 3068 2097023 1.236610481717 99.936615999357 988 0.099989592746 0.100012557406 98.799998438969 9.8799997291334
139	3509609 29903 3068 2097023 1.236610481717 99.936615999357 988 13 13 12844 166972
140	3539512 41673 3199 2097118 1.248668681855 99.948674279246 988 0.099988924284 0.100007435633 98.79999851872 9.8799997452082
141	3581185 28929 3199 2097118 1.248668681855 99.948674279246 988 3 3 2964 8892
142	3610114 41662 3330 2097255 1.250560922021 99.950553612135 988 0.099988990549 0.100007435833 98.799998611443 9.8799997636205
143	3651776 29916 3330 2097255 1.250560922021 99.950553612135 988 15 15 14820 222300
144	3681692 41675 3460 2097385 1.251725082132 99.951730924313 988 0.099988924686 0.100007435032 98.79999876351 9.8799997941724
145	3723367 28933 3460 2097385 1.251725082132 99.951730924313 988 7 7 6916 48412
146	3752300 41664 3585 2097510 1.260286202215 99.96027911324 988 0.099988836874 0.100009121475 98.799998832354 9.8799998078792
147	3793964 28915 3585 2097510 1.260286202215 99.96027911324 988 1 1 988 988
148	3822879 41664 3585 2097510 1.260286202215 99.96027911324 988 0.099988836874 0.100009121475 98.799998832354 9.8799998078792
149	3864543 28915 3585 2097510 1.260286202215 99.96027911324 988 1 1 988 988
150	3893458 41653 3591 2097516 1.260286222229 99.960279207221 988 0.099988836879 0.100009121475 98.799998906321 9.8799998226726
151	3935111 28916 3591 2097516 1.260286222229 99.960279207221 988 2 2 1976 3952
152	3964027 41673 3597 2097522 1.260286242243 99.960279293933 988 0.099988836887 0.100009121475 98.799998973019 9.8799998360122
153	4005700 28915 3597 2097522 1.260286242243 99.960279293933 988 3 3 2964 8892
154	4034615 41665 3603 2097540 1.260286262256 99.960279370921 988 0.099988836897 0.100009121475 98.799999029994 9.8799998474072
155	4076280 28937 3603 2097540 1.260286262256 99.960279370921 988 4 4 3952 15808
156	4105217 41657 3609 2097546 1.26028628227 99.960279436409 988 0.099988836912 0.100009121475 98.799999075468 9.8799998565019
157	4146874 28911 3609 2097546 1.26028628227 99.960279436409 988 5 5 4940 24700
158	4175785 41665 3615 2097528 1.260286302284 99.960279303536 988 0.099988836931 0.100009121475 98.799998922581 9.8799998259246
159	4217450 28918 3615 2097528 1.260286302284 99.960279303536 988 6 6 5928 35568
160	4246368 41660 3621 2097534 1.260286322298 99.960279332773 988 0.099988836952 0.100009121475 98.799998931804 9.8799998277692
161	4288028 28926 3621 2097534 1.260286322298 99.960279332773 988 7 7 6916 48412
162	4316954 41644 3627 2097564 1.260286342312 99.960279521366 988 0.099988836977 0.100009121475 98.799999100383 9.8799998614849
163	4358598 28918 3627 2097564 1.260286342312 99.960279521366 988 8 8 7904 63232
164	4387516 41670 3633 2097570 1.260286362326 99.960279567747 988 0.099988837003 0.100009121475 98.79999912675 9.8799998667583
165	4429186 28925 3633 2097570 1.260286362326 99.960279567747 988 9 9 8892 80028
166	4458111 41656 3639 2097594 1.260286382339 99.960279607727 988 0.099988837031 0.100009121475 98.799999146717 9.8799998707517
167	4499767 29897 3639 2097594 1.260286382339 99.960279607727 988 10 10 9880 98800
168	4529664 41674 3645 2097552 1.260286402353 99.960279455639 988 0.099988837059 0.100009121475 98.799998974615 9.8799998363314
169	4571338 29922 3645 2097552 1.260286402353 99.960279455639 988 11 11 10868 119548
170	4601260 41680 3651 2097558 1.260286422367 99.960279503305 988 0.099988837085 0.100009121475 98.799999002267 9.8799998418618
171	4642940 29927 3651 2097558 1.260286422367 99.960279503305 988 12 12 11856 142272
172	4672867 41674 3657 2097588 1.260286442381 99.960279606243 988 0.099988837111 0.100009121475 98.799999085191 9.8799998584466
173	4714541 29919 3657 2097588 1.260286442381 99.960279606243 988 13 13 12844 166972
174	4744460 41688 3663 2097582 1.260286462395 99.960279604758 988 0.099988837135 0.100009121475 98.799999063692 9.8799998541468
175	4786148 29928 3663 2097582 1.260286462395 99.960279604758 988 14 14 13832 193648
176	4816076 41666 3669 2097576 1.260286482409 99.960279586518 988 0.099988837157 0.100009121475 98.799999025438 9.879999846496
177	4857742 29917 3669 2097576 1.260286482409 99.960279586518 988 15 15 14820 222300
178	4887659 41675 3722 2097641 1.271707462395 99.971700617429 988 0.099989261282 0.100007436772 98.799999076363 9.8799998564811
179	4929334 29919 3722 2097641 1.271707462395 99.971700617429 988 14 14 13832 193648
180	4959253 41676 3853 2097778 1.287730562464 99.98773673779 988 0.099989041599 0.100007434775 98.799999096655 9.8799998606781
181	5000929 28938 3853 2097778 1.287730562464 99.98773673779 988 9 9 8892 80028
182	5029867 41643 3984 2097945 1.290987582478 99.990981072033 988 0.099988990975 0.100007441275 98.799999410884 9.8799999235087
183	5071510 28919 3984 2097945 1.290987582478 99.990981072033 988 8 8 7904 63232
184	5100429 41611 4115 2095964 1.305840622506 99.905839667503 987 0.09998959271 0.100012553233 98.700004966326 9.8700010345548
185	5142040 28884 4115 2095964 1.305840622506 99.905839667503 987 6 6 5922 35532
186	5170924 41633 4245 2096064 1.30998164252 99.909980663015 987 0.099988923452 0.100007429261 98.700004941824 9.8700010297793
187	5212557 28897 4245 2096064 1.30998164252 99.909980663015 987 5 5 4935 24675
188	5241454 1625 18806 2097989 2 100 99 0 0 0 0
189	5243079 2241 18806 2097989 2 100 99 0.044313 0.05225619856 4.94184419856 0.24672233116194
190	5245320 1625 18806 2097989 2 100 99 0 0 0 0
191	5246945 1625 18807 2097990 2 100 99 1 1 99 99
192	5248570 2242 18807 2097990 2 100 99 0.044313 0.051754 4.940926059378 0.24662845527271
193	5250812 1625 18807 2097990 2 100 99 0 0 0 0
194	5252437 1724 18808 2097991 2 100 99 10 10 990 9900
195	5254161 2242 18808 2097991 2 100 99 0.044313 0.051754 4.940926598566 0.24662850927274
196	5256403 1625 18808 2097991 2 100 99 0 0 0 0
197	5258028 1724 18809 2097992 2 100 99 11 11 1089 11979
198	5259752 2242 18809 2097992 2 100 99 0.044313 0.051754 4.940926658538 0.24662851527901
199	5261994 1625 18809 2097992 2 100 99 0 0 0 0
200	5263619 1724 18810 2097993 2 100 99 12 12 1188 14256
201	5265343 2242 18810 2097993 2 100 99 0.044313 0.051754 4.940926718504 0.24662852128469
202	5267585 1625 18810 2097993 2 100 99 0 0 0 0
203	5269210 1724 18811 2097994 2 100 99 13 13 1287 16731
204	5270934 2242 18811 2097994 2 100 99 0.044313 0.051754 4.940926778482 0.24662852729158
205	5273176 1625 18811 2097994 2 100 99 0 0 0 0
206	5274801 1724 18812 2097995 2 100 99 14 14 1386 19404
207	5276525 2241 18812 2097995 2 100 99 0.044313 0.051754 4.94092683847 0.24662853329947
208	5278766 1625 18812 2097995 2 100 99 0 0 0 0
209	5280391 1724 18813 2097996 2 100 99 15 15 1485 22275
210	5282115 2242 18813 2097996 2 100 99 0.044313 0.051787898448 4.940926898448 0.24662865537466
211	5284357 1625 18813 2097996 2 100 99 0 0 0 0
212	5285982 1625 18814 2097997 2 100 99 2 2 198 396
213	5287607 2241 18814 2097997 2 100 99 0.044313 0.051754 4.94092611912 0.24662846125588
214	5289848 1625 18814 2097997 2 100 99 0 0 0 0
215	5291473 1625 18815 2097998 2 100 99 3 3 297 891
216	5293098 2242 18815 2097998 2 100 99 0.044313 0.051754 4.940926178974 0.24662846725028
217	5295340 1625 18815 2097998 2 100 99 0 0 0 0
218	5296965 1625 18816 2097999 2 100 99 4 4 396 1584
219	5298590 2242 18816 2097999 2 100 99 0.044312 0.051754 4.940925238866 0.24662838462349
220	5300832 1625 18816 2097999 2 100 99 0 0 0 0
221	5302457 1625 18817 2098000 2 100 99 5 5 495 2475
222	5304082 2240 18817 2098000 2 100 99 0.044312 0.051754 4.9409252988 0.24662839062591
223	5306322 1625 18817 2098000 2 100 99 0 0 0 0
224	5307947 1625 18818 2098001 2 100 99 6 6 594 3564
225	5309572 2242 18818 2098001 2 100 99 0.044313 0.051754 4.940926358738 0.24662848525374
226	5311814 1625 18818 2098001 2 100 99 0 0 0 0
227	5313439 1625 18819 2098002 2 100 99 7 7 693 4851
228	5315064 2241 18819 2098002 2 100 99 0.044313 0.051754 4.94092641869 0.24662849125798
229	5317305 1625 18819 2098002 2 100 99 0 0 0 0
230	5318930 1625 18820 2098003 2 100 99 8 8 792 6336
231	5320555 2241 18820 2098003 2 100 99 0.044313 0.051754 4.94092647863 0.24662849726102
232	5322796 1625 18820 2098003 2 100 99 0 0 0 0
233	5324421 1625 18821 2098004 2 100 99 9 9 891 8019
234	5326046 2242 18821 2098004 2 100 99 0.044313 0.051754 4.940926538608 0.24662850326788
235	5328288 1625 18821 2098004 2 100 99 0 0 0 0

