version 3
run BreakRanksNoGui-580-20240710-17:44:42-276163
attr configname BreakRanksNoGui
attr datetime 20240710-17:44:42
attr datetimef 20240710-174442
attr experiment BreakRanksNoGui
attr inifile omnetpp.ini
attr iterationvars "$nCars=6, $platoonSize=4, $nLanes=1, $ploegH=0.5, $controller=1, $headway=0.1, $leaderHeadway=1.2, $leaderSpeed=130, $breakRanksSafetyDistance=5, $minSpeed=120, $maxSpeed=140, $beaconInterval=0.1, $priority=4, $packetSize=200, $sController=\"CACC\", $0=2, $1=0"
attr iterationvarsd nCars=6/platoonSize=4/nLanes=1/ploegH=0.5/controller=1/headway=0.1/leaderHeadway=1.2/leaderSpeed=130/breakRanksSafetyDistance=5/minSpeed=120/maxSpeed=140/beaconInterval=0.1/priority=4/packetSize=200/sController=CACC/2/0
attr iterationvarsf nCars=6,platoonSize=4,nLanes=1,ploegH=0.5,controller=1,headway=0.1,leaderHeadway=1.2,leaderSpeed=130,breakRanksSafetyDistance=5,minSpeed=120,maxSpeed=140,beaconInterval=0.1,priority=4,packetSize=200,sController=CACC,2,0-
attr measurement "$nCars=6, $platoonSize=4, $nLanes=1, $ploegH=0.5, $controller=1, $headway=0.1, $leaderHeadway=1.2, $leaderSpeed=130, $breakRanksSafetyDistance=5, $minSpeed=120, $maxSpeed=140, $beaconInterval=0.1, $priority=4, $packetSize=200, $sController=\"CACC\", $0=2, $1=0"
attr network Highway
attr processid 276163
attr repetition 0
attr replication #0
attr resultdir results
attr runnumber 580
attr seedset 0
itervar beaconInterval 0.1
itervar breakRanksSafetyDistance 5
itervar controller 1
itervar headway 0.1
itervar leaderHeadway 1.2
itervar leaderSpeed 130
itervar maxSpeed 140
itervar minSpeed 120
itervar nCars 6
itervar nLanes 1
itervar packetSize 200
itervar platoonSize 4
itervar ploegH 0.5
itervar priority 4
itervar sController "\"CACC\""
config image-path ../../../veins/images
config repeat 10
config extends BreakRanks
config *.manager.command "\"sumo\""
config *.manager.ignoreGuiCommands true
config output-vector-file "results/BreakRanks_1_0.1_130_5_4 /result_0.vec"
config output-scalar-file "results/BreakRanks_1_0.1_130_5_4 /result_0.sca"
config extends Platooning
config *.node[*].scenario_type "\"BreakRanksScenario\""
config *.manager.command "\"sumo-gui\""
config *.node[*].scenario_type "\"SimpleScenario\""
config cmdenv-express-mode true
config cmdenv-autoflush true
config cmdenv-status-frequency 15s
config num-rngs 6
config network Highway
config debug-on-errors true
config print-undisposed true
config *.playgroundSizeX 65000m
config *.playgroundSizeY 25000m
config *.playgroundSizeZ 50m
config sim-time-limit "100 s"
config *.annotations.draw false
config *.obstacles.debug false
config *.world.useTorus false
config *.world.use2D false
config *.manager.updateInterval 0.01s
config *.manager.host "\"localhost\""
config *.manager.moduleType "\"org.car2x.plexe.PlatoonCar\""
config *.manager.moduleName "\"node\""
config *.manager.moduleDisplayString "\"\""
config *.manager.autoShutdown true
config *.manager.margin 25
config *.connectionManager.sendDirect true
config *.connectionManager.maxInterfDist 2600m
config *.connectionManager.drawMaxIntfDist false
config *.**.nic.mac1609_4.useServiceChannel false
config *.**.nic.mac1609_4.txPower 100mW
config *.**.nic.mac1609_4.bitrate 6Mbps
config *.**.nic.mac1609_4.useAcks true
config *.**.nic.mac1609_4.ackErrorRate 0.0
config *.**.nic.mac1609_4.frameErrorRate 0.0
config *.**.nic.phy80211p.minPowerLevel -94dBm
config *.**.nic.phy80211p.maxTXPower 100mW
config *.**.nic.phy80211p.useNoiseFloor true
config *.**.nic.phy80211p.noiseFloor -95dBm
config *.**.nic.phy80211p.decider "xmldoc(\"config.xml\")"
config *.**.nic.phy80211p.analogueModels "xmldoc(\"config.xml\")"
config *.**.nic.phy80211p.usePropagationDelay true
config *.node[*].mobility.x 0
config *.node[*].mobility.y 0
config *.node[*].mobility.z 1.895
config seed-set 0
config **.seed 0
config *.node[*].prot.rng-0 2
config *.node[*].appl.rng-0 3
config *.node[*].scenario.rng-0 4
config **.traffic.rng-0 5
config *.manager.configFile "\"./sumocfg/freeway.sumo.cfg\""
config *.manager.launchConfig "xmldoc(\"./sumocfg/freeway.launchd.xml\")"
config **.numberOfCars 6
config **.numberOfCarsPerPlatoon 4
config **.numberOfLanes 1
config *.node[*].helper_type "\"PositionHelper\""
config *.node[*].scenario.caccC1 0.5
config *.node[*].scenario.caccXi 1
config *.node[*].scenario.caccOmegaN "0.2 Hz"
config *.node[*].scenario.caccSpacing "2 m"
config *.node[*].scenario.engineTau "0.5 s"
config *.node[*].scenario.ploegH 0.5s
config *.node[*].scenario.ploegKp 0.2
config *.node[*].scenario.ploegKd 0.7
config *.node[*].scenario.useRealisticEngine false
config *.node[*].scenario.useControllerAcceleration true
config *.node[*].scenario.nLanes 1
config **.numericController 1
config **.headway 0.1s
config *.node[*].scenario.accHeadway 0.1s
config *.node[*].scenario.leaderHeadway 1.2s
config *.node[*].scenario.leaderSpeed 130kmph
config *.node[*].appl_type "\"SimplePlatooningApp\""
config *.node[*].appl.*.scalar-recording true
config *.node[*].appl.*.vector-recording true
config *.node[0].appl.breakRanksSafetyDistance 5m
config *.node[*].appl.minSpeed 120kmph
config *.node[*].appl.maxSpeed 140kmph
config *.node[*].protocol_type "\"SimplePlatooningBeaconing\""
config *.node[*].prot.*.scalar-recording true
config *.node[*].prot.*.vector-recording true
config *.node[*].prot.beaconingInterval 0.1s
config *.node[*].prot.priority 4
config *.node[*].prot.packetSize 200
config **.traffic_type "\"PlatoonsTrafficManager\""
config **.traffic.platoonInsertTime "1 s"
config **.traffic.platoonInsertSpeed 130kmph
config **.traffic.nCars 6
config **.traffic.platoonSize 4
config **.traffic.nLanes 1
config **.traffic.platooningVType "\"vtypeauto\""
config **.traffic.controller "\"CACC\""
config **.traffic.platoonInsertDistance 2m
config **.traffic.platoonInsertHeadway 0s
config **.traffic.platoonLeaderHeadway 1.2s
config **.scalar-recording false
config **.vector-recording false

vector 0 Highway.node[0].appl distance ETV
vector 1 Highway.node[0].appl relativeSpeed ETV
vector 2 Highway.node[0].appl nodeId ETV
vector 3 Highway.node[0].appl acceleration ETV
vector 4 Highway.node[0].appl controllerAcceleration ETV
vector 5 Highway.node[0].appl speed ETV
vector 6 Highway.node[0].appl posx ETV
vector 7 Highway.node[0].appl posy ETV
vector 8 Highway.node[1].appl distance ETV
vector 9 Highway.node[1].appl relativeSpeed ETV
vector 10 Highway.node[1].appl nodeId ETV
vector 11 Highway.node[1].appl acceleration ETV
vector 12 Highway.node[1].appl controllerAcceleration ETV
vector 13 Highway.node[1].appl speed ETV
vector 14 Highway.node[1].appl posx ETV
vector 15 Highway.node[1].appl posy ETV
vector 16 Highway.node[2].appl distance ETV
vector 17 Highway.node[2].appl relativeSpeed ETV
vector 18 Highway.node[2].appl nodeId ETV
vector 19 Highway.node[2].appl acceleration ETV
vector 20 Highway.node[2].appl controllerAcceleration ETV
vector 21 Highway.node[2].appl speed ETV
vector 22 Highway.node[2].appl posx ETV
vector 23 Highway.node[2].appl posy ETV
vector 24 Highway.node[3].appl distance ETV
vector 25 Highway.node[3].appl relativeSpeed ETV
vector 26 Highway.node[3].appl nodeId ETV
vector 27 Highway.node[3].appl acceleration ETV
vector 28 Highway.node[3].appl controllerAcceleration ETV
vector 29 Highway.node[3].appl speed ETV
vector 30 Highway.node[3].appl posx ETV
vector 31 Highway.node[3].appl posy ETV
vector 32 Highway.node[4].appl distance ETV
vector 33 Highway.node[4].appl relativeSpeed ETV
vector 34 Highway.node[4].appl nodeId ETV
vector 35 Highway.node[4].appl acceleration ETV
vector 36 Highway.node[4].appl controllerAcceleration ETV
vector 37 Highway.node[4].appl speed ETV
vector 38 Highway.node[4].appl posx ETV
vector 39 Highway.node[4].appl posy ETV
vector 40 Highway.node[5].appl distance ETV
vector 41 Highway.node[5].appl relativeSpeed ETV
vector 42 Highway.node[5].appl nodeId ETV
vector 43 Highway.node[5].appl acceleration ETV
vector 44 Highway.node[5].appl controllerAcceleration ETV
vector 45 Highway.node[5].appl speed ETV
vector 46 Highway.node[5].appl posx ETV
vector 47 Highway.node[5].appl posy ETV
vector 48 Highway.node[3].prot frontDelay ETV
vector 49 Highway.node[3].prot frontDelayId ETV
vector 50 Highway.node[2].prot frontDelay ETV
vector 51 Highway.node[2].prot frontDelayId ETV
vector 52 Highway.node[1].prot leaderDelay ETV
vector 53 Highway.node[1].prot leaderDelayId ETV
vector 54 Highway.node[1].prot frontDelay ETV
vector 55 Highway.node[1].prot frontDelayId ETV
vector 56 Highway.node[2].prot leaderDelay ETV
vector 57 Highway.node[2].prot leaderDelayId ETV
vector 58 Highway.node[3].prot leaderDelay ETV
vector 59 Highway.node[3].prot leaderDelayId ETV
vector 60 Highway.node[5].prot leaderDelay ETV
vector 61 Highway.node[5].prot leaderDelayId ETV
vector 62 Highway.node[5].prot frontDelay ETV
vector 63 Highway.node[5].prot frontDelayId ETV
vector 64 Highway.node[0].prot nodeId ETV
vector 65 Highway.node[0].prot busyTime ETV
vector 66 Highway.node[0].prot collisions ETV
vector 67 Highway.node[1].prot nodeId ETV
vector 68 Highway.node[1].prot busyTime ETV
vector 69 Highway.node[1].prot collisions ETV
vector 70 Highway.node[2].prot nodeId ETV
vector 71 Highway.node[2].prot busyTime ETV
vector 72 Highway.node[2].prot collisions ETV
vector 73 Highway.node[3].prot nodeId ETV
vector 74 Highway.node[3].prot busyTime ETV
vector 75 Highway.node[3].prot collisions ETV
vector 76 Highway.node[4].prot nodeId ETV
vector 77 Highway.node[4].prot busyTime ETV
vector 78 Highway.node[4].prot collisions ETV
vector 79 Highway.node[5].prot nodeId ETV
vector 80 Highway.node[5].prot busyTime ETV
vector 81 Highway.node[5].prot collisions ETV
0	113	1.11	9323.17
0	301	1.21	9323.17
0	489	1.31	9323.17
0	677	1.41	9323.17
0	865	1.51	9323.17
0	1053	1.61	9323.17
0	1241	1.71	9323.17
0	1429	1.81	9323.17
0	1617	1.91	9323.17
0	1811	2.01	9323.17
0	1999	2.11	9323.17
0	2187	2.21	9323.17
0	2375	2.31	-1
0	2563	2.41	-1
0	2751	2.51	-1
0	2939	2.61	-1
0	3127	2.71	-1
0	3315	2.81	-1
0	3503	2.91	-1
0	3697	3.01	-1
0	3885	3.11	-1
0	4073	3.21	-1
0	4261	3.31	-1
0	4449	3.41	-1
0	4637	3.51	-1
0	4825	3.61	-1
0	5013	3.71	-1
0	5201	3.81	-1
0	5389	3.91	-1
0	5583	4.01	-1
0	5771	4.11	-1
0	5959	4.21	-1
0	6147	4.31	-1
0	6335	4.41	-1
0	6523	4.51	-1
0	6711	4.61	-1
0	6899	4.71	-1
0	7087	4.81	-1
0	7275	4.91	-1
0	7469	5.01	-1
0	7657	5.11	-1
0	7845	5.21	-1
0	8033	5.31	-1
0	8221	5.41	-1
0	8409	5.51	-1
0	8597	5.61	-1
0	8785	5.71	-1
0	8973	5.81	-1
0	9161	5.91	-1
0	9355	6.01	-1
0	9543	6.11	-1
0	9731	6.21	-1
0	9919	6.31	-1
0	10107	6.41	-1
0	10295	6.51	-1
0	10483	6.61	-1
0	10671	6.71	-1
0	10859	6.81	-1
0	11047	6.91	-1
0	11241	7.01	-1
0	11429	7.11	-1
0	11617	7.21	-1
0	11805	7.31	-1
0	11993	7.41	-1
0	12181	7.51	-1
0	12369	7.61	-1
0	12557	7.71	-1
0	12745	7.81	-1
0	12933	7.91	-1
0	13127	8.01	-1
0	13315	8.11	-1
0	13503	8.21	-1
0	13691	8.31	-1
0	13879	8.41	-1
0	14067	8.51	-1
0	14255	8.61	-1
0	14443	8.71	-1
0	14631	8.81	-1
0	14819	8.91	-1
0	15013	9.01	-1
0	15201	9.11	-1
0	15389	9.21	-1
0	15577	9.31	-1
0	15765	9.41	-1
0	15953	9.51	-1
0	16141	9.61	-1
0	16329	9.71	-1
0	16517	9.81	-1
0	16705	9.91	-1
0	16957	10.01	-1
0	17149	10.11	-1
0	17341	10.21	-1
0	17533	10.31	-1
0	17725	10.41	-1
0	17917	10.51	-1
0	18109	10.61	-1
0	18301	10.71	-1
0	18493	10.81	-1
0	18685	10.91	-1
0	18883	11.01	-1
0	19075	11.11	-1
0	19267	11.21	-1
0	19459	11.31	-1
0	19651	11.41	-1
0	19843	11.51	-1
0	20035	11.61	-1
0	20227	11.71	-1
0	20419	11.81	-1
0	20611	11.91	-1
0	20809	12.01	-1
0	21001	12.11	-1
0	21193	12.21	-1
0	21385	12.31	-1
0	21577	12.41	-1
0	21769	12.51	-1
0	21961	12.61	-1
0	22153	12.71	-1
0	22345	12.81	-1
0	22537	12.91	-1
0	22735	13.01	-1
0	22927	13.11	-1
0	23119	13.21	-1
0	23311	13.31	-1
0	23503	13.41	-1
0	23695	13.51	-1
0	23887	13.61	-1
0	24079	13.71	-1
0	24271	13.81	-1
0	24463	13.91	-1
0	24661	14.01	-1
0	24853	14.11	-1
0	25045	14.21	-1
0	25237	14.31	-1
0	25429	14.41	-1
0	25621	14.51	-1
0	25813	14.61	-1
0	26005	14.71	-1
0	26197	14.81	-1
0	26389	14.91	-1
0	26587	15.01	-1
0	26779	15.11	-1
0	26971	15.21	-1
0	27163	15.31	-1
0	27355	15.41	-1
0	27547	15.51	-1
0	27739	15.61	-1
0	27931	15.71	-1
0	28123	15.81	-1
0	28315	15.91	-1
0	28513	16.01	-1
0	28705	16.11	-1
0	28897	16.21	-1
0	29089	16.31	-1
0	29281	16.41	-1
0	29473	16.51	-1
0	29665	16.61	-1
0	29857	16.71	-1
0	30049	16.81	-1
0	30241	16.91	-1
0	30439	17.01	-1
0	30631	17.11	-1
0	30823	17.21	-1
0	31015	17.31	-1
0	31207	17.41	-1
0	31399	17.51	-1
0	31591	17.61	-1
0	31783	17.71	-1
0	31975	17.81	-1
0	32167	17.91	-1
0	32365	18.01	-1
0	32557	18.11	-1
0	32749	18.21	-1
0	32941	18.31	-1
0	33133	18.41	-1
0	33325	18.51	-1
0	33517	18.61	-1
0	33709	18.71	-1
0	33901	18.81	-1
0	34093	18.91	-1
0	34291	19.01	-1
0	34483	19.11	-1
0	34675	19.21	-1
0	34867	19.31	-1
0	35059	19.41	-1
0	35251	19.51	-1
0	35443	19.61	-1
0	35635	19.71	-1
0	35827	19.81	-1
0	36019	19.91	-1
0	36217	20.01	-1
0	36409	20.11	-1
0	36601	20.21	-1
0	36793	20.31	-1
0	36985	20.41	-1
0	37177	20.51	-1
0	37369	20.61	-1
0	37561	20.71	-1
0	37753	20.81	-1
0	37945	20.91	-1
0	38143	21.01	-1
0	38335	21.11	-1
0	38527	21.21	-1
0	38719	21.31	-1
0	38911	21.41	-1
0	39103	21.51	-1
0	39295	21.61	-1
0	39487	21.71	-1
0	39679	21.81	-1
0	39871	21.91	-1
0	40069	22.01	-1
0	40261	22.11	-1
0	40453	22.21	-1
0	40645	22.31	-1
0	40837	22.41	-1
0	41029	22.51	-1
0	41221	22.61	-1
0	41413	22.71	-1
0	41605	22.81	-1
0	41797	22.91	-1
0	41995	23.01	-1
0	42187	23.11	-1
0	42379	23.21	-1
0	42571	23.31	-1
0	42763	23.41	-1
0	42955	23.51	-1
0	43147	23.61	-1
0	43339	23.71	-1
0	43531	23.81	-1
0	43723	23.91	-1
0	43921	24.01	-1
0	44113	24.11	-1
0	44305	24.21	-1
0	44497	24.31	-1
0	44689	24.41	-1
0	44881	24.51	-1
0	45073	24.61	-1
0	45265	24.71	-1
0	45457	24.81	-1
0	45649	24.91	-1
0	45847	25.01	-1
0	46039	25.11	-1
0	46231	25.21	-1
0	46423	25.31	-1
0	46615	25.41	-1
0	46807	25.51	-1
0	46999	25.61	-1
0	47191	25.71	-1
0	47383	25.81	-1
0	47575	25.91	-1
0	47773	26.01	-1
0	47965	26.11	-1
0	48157	26.21	-1
0	48349	26.31	-1
0	48541	26.41	-1
0	48733	26.51	-1
0	48925	26.61	-1
0	49117	26.71	-1
0	49309	26.81	-1
0	49501	26.91	-1
0	49699	27.01	-1
0	49891	27.11	-1
0	50083	27.21	-1
0	50275	27.31	-1
0	50467	27.41	-1
0	50659	27.51	-1
0	50851	27.61	-1
0	51043	27.71	-1
0	51235	27.81	-1
0	51427	27.91	-1
0	51625	28.01	-1
0	51817	28.11	-1
0	52009	28.21	-1
0	52201	28.31	-1
0	52393	28.41	-1
0	52585	28.51	-1
0	52777	28.61	-1
0	52969	28.71	-1
0	53161	28.81	-1
0	53353	28.91	-1
0	53551	29.01	-1
0	53743	29.11	-1
0	53935	29.21	-1
0	54127	29.31	-1
0	54319	29.41	-1
0	54511	29.51	-1
0	54703	29.61	-1
0	54895	29.71	-1
0	55087	29.81	-1
0	55279	29.91	-1
0	55477	30.01	-1
0	55669	30.11	-1
0	55861	30.21	-1
0	56053	30.31	-1
0	56245	30.41	-1
0	56437	30.51	-1
0	56629	30.61	-1
0	56821	30.71	-1
0	57013	30.81	-1
0	57205	30.91	-1
0	57403	31.01	-1
0	57595	31.11	-1
0	57787	31.21	-1
0	57979	31.31	-1
0	58171	31.41	-1
0	58363	31.51	-1
0	58555	31.61	-1
0	58747	31.71	-1
0	58939	31.81	-1
0	59131	31.91	-1
0	59329	32.01	-1
0	59521	32.11	-1
0	59713	32.21	-1
0	59905	32.31	-1
0	60097	32.41	-1
0	60289	32.51	-1
0	60481	32.61	-1
0	60673	32.71	-1
0	60865	32.81	-1
0	61057	32.91	-1
0	61255	33.01	-1
0	61447	33.11	-1
0	61639	33.21	-1
0	61831	33.31	-1
0	62023	33.41	-1
0	62215	33.51	-1
0	62407	33.61	-1
0	62599	33.71	-1
0	62791	33.81	-1
0	62983	33.91	-1
0	63181	34.01	-1
0	63373	34.11	-1
0	63565	34.21	-1
0	63757	34.31	-1
0	63949	34.41	-1
0	64141	34.51	-1
0	64333	34.61	-1
0	64525	34.71	-1
0	64717	34.81	-1
0	64909	34.91	-1
0	65107	35.01	-1
0	65299	35.11	-1
0	65491	35.21	-1
0	65683	35.31	-1
0	65875	35.41	-1
0	66067	35.51	-1
0	66259	35.61	-1
0	66451	35.71	-1
0	66643	35.81	-1
0	66835	35.91	-1
0	67033	36.01	-1
0	67225	36.11	-1
0	67417	36.21	-1
0	67609	36.31	-1
0	67854	36.41	-1
0	68045	36.51	-1
0	68236	36.61	-1
0	68427	36.71	-1
0	68618	36.81	-1
0	68809	36.91	-1
0	69006	37.01	-1
0	69197	37.11	-1
0	69388	37.21	-1
0	69579	37.31	-1
0	69770	37.41	-1
0	69961	37.51	-1
0	70152	37.61	-1
0	70343	37.71	-1
0	70534	37.81	-1
0	70725	37.91	-1
0	70922	38.01	-1
0	71113	38.11	-1
0	71304	38.21	-1
0	71495	38.31	-1
0	71686	38.41	-1
0	71877	38.51	-1
0	72068	38.61	-1
0	72259	38.71	-1
0	72450	38.81	-1
0	72641	38.91	-1
0	72838	39.01	-1
0	73029	39.11	-1
0	73220	39.21	-1
0	73411	39.31	-1
0	73602	39.41	-1
0	73793	39.51	-1
0	73984	39.61	-1
0	74175	39.71	-1
0	74366	39.81	-1
0	74557	39.91	-1
0	74754	40.01	-1
0	74945	40.11	-1
0	75136	40.21	-1
0	75327	40.31	-1
0	75518	40.41	-1
0	75709	40.51	-1
0	75900	40.61	-1
0	76091	40.71	-1
0	76282	40.81	-1
0	76473	40.91	-1
0	76670	41.01	-1
0	76861	41.11	-1
0	77052	41.21	-1
0	77243	41.31	-1
0	77434	41.41	-1
0	77678	41.51	-1
0	77868	41.61	-1
0	78058	41.71	-1
0	78248	41.81	-1
0	78438	41.91	-1
0	78634	42.01	-1
0	78824	42.11	-1
0	79014	42.21	-1
0	79204	42.31	-1
0	79394	42.41	-1
0	79584	42.51	-1
0	79774	42.61	-1
0	79964	42.71	-1
0	80154	42.81	-1
0	80344	42.91	-1
0	80540	43.01	-1
0	80730	43.11	-1
0	80920	43.21	-1
0	81110	43.31	-1
0	81300	43.41	-1
0	81490	43.51	-1
0	81680	43.61	-1
0	81870	43.71	-1
0	82060	43.81	-1
0	82250	43.91	-1
0	82446	44.01	-1
0	82636	44.11	-1
0	82826	44.21	-1
0	83016	44.31	-1
0	83206	44.41	-1
0	83396	44.51	-1
0	83586	44.61	-1
0	83776	44.71	-1
0	83966	44.81	-1
0	84156	44.91	-1
0	84352	45.01	-1
0	84542	45.11	-1
0	84732	45.21	-1
0	84922	45.31	-1
0	85112	45.41	-1
0	85302	45.51	-1
0	85492	45.61	-1
0	85682	45.71	-1
0	85938	45.81	-1
0	86127	45.91	-1
0	86322	46.01	-1
0	86511	46.11	-1
0	86912	46.21	-1
0	87100	46.31	-1
0	87288	46.41	-1
0	87476	46.51	-1
0	87664	46.61	-1
0	87852	46.71	-1
0	88040	46.81	-1
0	88228	46.91	-1
0	88422	47.01	-1
0	88610	47.11	-1
0	88798	47.21	-1
0	88986	47.31	-1
0	89174	47.41	-1
0	89362	47.51	-1
0	89550	47.61	-1
0	89738	47.71	-1
0	89926	47.81	-1
0	90114	47.91	-1
0	90308	48.01	-1
0	90496	48.11	-1
0	90684	48.21	-1
0	90872	48.31	-1
0	91060	48.41	-1
0	91248	48.51	-1
0	91436	48.61	-1
0	91624	48.71	-1
0	91812	48.81	-1
0	92000	48.91	-1
0	92194	49.01	-1
0	92382	49.11	-1
0	92570	49.21	-1
0	92758	49.31	-1
0	92946	49.41	-1
0	93134	49.51	-1
0	93322	49.61	-1
0	93510	49.71	-1
0	93698	49.81	-1
0	93886	49.91	-1
0	94080	50.01	-1
0	94268	50.11	-1
0	94456	50.21	-1
0	94644	50.31	-1
0	94832	50.41	-1
0	95020	50.51	-1
0	95208	50.61	-1
0	95396	50.71	-1
0	95584	50.81	-1
0	95772	50.91	-1
0	95966	51.01	-1
0	96154	51.11	-1
0	96342	51.21	-1
0	96530	51.31	-1
0	96718	51.41	-1
0	96906	51.51	-1
0	97094	51.61	-1
0	97282	51.71	-1
0	97470	51.81	-1
0	97658	51.91	-1
0	97852	52.01	-1
0	98040	52.11	-1
0	98228	52.21	-1
0	98416	52.31	-1
0	98604	52.41	-1
0	98792	52.51	-1
0	98980	52.61	-1
0	99168	52.71	-1
0	99356	52.81	-1
0	99544	52.91	-1
0	99738	53.01	-1
0	99926	53.11	-1
0	100114	53.21	-1
0	100302	53.31	-1
0	100490	53.41	-1
0	100678	53.51	-1
0	100866	53.61	-1
0	101054	53.71	-1
0	101242	53.81	-1
0	101430	53.91	-1
0	101624	54.01	-1
0	101812	54.11	-1
0	102000	54.21	-1
0	102188	54.31	-1
0	102376	54.41	-1
0	102564	54.51	-1
0	102752	54.61	-1
0	102940	54.71	-1
0	103128	54.81	-1
0	103316	54.91	-1
0	103510	55.01	-1
0	103698	55.11	-1
0	103886	55.21	-1
0	104074	55.31	-1
0	104262	55.41	-1
0	104450	55.51	-1
0	104638	55.61	-1
0	104826	55.71	-1
0	105014	55.81	-1
0	105202	55.91	-1
0	105396	56.01	-1
0	105584	56.11	-1
0	105772	56.21	-1
0	105960	56.31	-1
0	106148	56.41	-1
0	106336	56.51	-1
0	106524	56.61	-1
0	106712	56.71	-1
0	106900	56.81	-1
0	107088	56.91	-1
0	107282	57.01	-1
0	107470	57.11	-1
0	107658	57.21	-1
0	107846	57.31	-1
0	108034	57.41	-1
0	108222	57.51	-1
0	108410	57.61	-1
0	108598	57.71	-1
0	108786	57.81	-1
0	108974	57.91	-1
0	109168	58.01	-1
0	109356	58.11	-1
0	109544	58.21	-1
0	109732	58.31	-1
0	109920	58.41	-1
0	110108	58.51	-1
0	110296	58.61	-1
0	110484	58.71	-1
0	110672	58.81	-1
0	110860	58.91	-1
0	111054	59.01	-1
0	111242	59.11	-1
0	111430	59.21	-1
0	111618	59.31	-1
0	111806	59.41	-1
0	111994	59.51	-1
0	112182	59.61	-1
0	112370	59.71	-1
0	112558	59.81	-1
0	112746	59.91	-1
0	112940	60.01	-1
0	113128	60.11	-1
0	113316	60.21	-1
0	113504	60.31	-1
0	113692	60.41	-1
0	113880	60.51	-1
0	114068	60.61	-1
0	114256	60.71	-1
0	114444	60.81	-1
0	114632	60.91	-1
0	114826	61.01	-1
0	115014	61.11	-1
0	115202	61.21	-1
0	115390	61.31	-1
0	115578	61.41	-1
0	115766	61.51	-1
0	115954	61.61	-1
0	116142	61.71	-1
0	116330	61.81	-1
0	116518	61.91	-1
0	116712	62.01	-1
0	116900	62.11	-1
0	117088	62.21	-1
0	117276	62.31	-1
0	117464	62.41	-1
0	117652	62.51	-1
0	117840	62.61	-1
0	118028	62.71	-1
0	118216	62.81	-1
0	118404	62.91	-1
0	118598	63.01	-1
0	118786	63.11	-1
0	118974	63.21	-1
0	119162	63.31	-1
0	119350	63.41	-1
0	119538	63.51	-1
0	119726	63.61	-1
0	119914	63.71	-1
0	120102	63.81	-1
0	120290	63.91	-1
0	120484	64.01	-1
0	120672	64.11	-1
0	120860	64.21	-1
0	121048	64.31	-1
0	121236	64.41	-1
0	121424	64.51	-1
0	121612	64.61	-1
0	121800	64.71	-1
0	121988	64.81	-1
0	122176	64.91	-1
0	122370	65.01	-1
0	122558	65.11	-1
0	122746	65.21	-1
0	122934	65.31	-1
0	123122	65.41	-1
0	123310	65.51	-1
0	123498	65.61	-1
0	123686	65.71	-1
0	123874	65.81	-1
0	124062	65.91	-1
0	124256	66.01	-1
0	124444	66.11	-1
0	124632	66.21	-1
0	124820	66.31	-1
0	125008	66.41	-1
0	125196	66.51	-1
0	125384	66.61	-1
0	125572	66.71	-1
0	125760	66.81	-1
0	125948	66.91	-1
0	126142	67.01	-1
0	126330	67.11	-1
0	126518	67.21	-1
0	126706	67.31	-1
0	126894	67.41	-1
0	127082	67.51	-1
0	127270	67.61	-1
0	127458	67.71	-1
0	127646	67.81	-1
0	127834	67.91	-1
0	128028	68.01	-1
0	128216	68.11	-1
0	128404	68.21	-1
0	128592	68.31	-1
0	128780	68.41	-1
0	128968	68.51	-1
0	129156	68.61	-1
0	129344	68.71	-1
0	129532	68.81	-1
0	129720	68.91	-1
0	129914	69.01	-1
0	130102	69.11	-1
0	130290	69.21	-1
0	130478	69.31	-1
0	130666	69.41	-1
0	130854	69.51	-1
0	131042	69.61	-1
0	131230	69.71	-1
0	131418	69.81	-1
0	131606	69.91	-1
0	131800	70.01	-1
0	131988	70.11	-1
0	132176	70.21	-1
0	132364	70.31	-1
0	132552	70.41	-1
0	132740	70.51	-1
0	132928	70.61	-1
0	133116	70.71	-1
0	133304	70.81	-1
0	133492	70.91	-1
0	133686	71.01	-1
0	133874	71.11	-1
0	134062	71.21	-1
0	134250	71.31	-1
0	134438	71.41	-1
0	134626	71.51	-1
0	134814	71.61	-1
0	135002	71.71	-1
0	135190	71.81	-1
0	135378	71.91	-1
0	135572	72.01	-1
0	135760	72.11	-1
0	135948	72.21	-1
0	136136	72.31	-1
0	136324	72.41	-1
0	136512	72.51	-1
0	136700	72.61	-1
0	136888	72.71	-1
0	137076	72.81	-1
0	137264	72.91	-1
0	137458	73.01	-1
0	137646	73.11	-1
0	137834	73.21	-1
0	138022	73.31	-1
0	138210	73.41	-1
0	138398	73.51	-1
0	138586	73.61	-1
0	138774	73.71	-1
0	138962	73.81	-1
0	139150	73.91	-1
0	139344	74.01	-1
0	139532	74.11	-1
0	139720	74.21	-1
0	139908	74.31	-1
0	140096	74.41	-1
0	140284	74.51	-1
0	140472	74.61	-1
0	140660	74.71	-1
0	140848	74.81	-1
0	141036	74.91	-1
0	141230	75.01	-1
0	141418	75.11	-1
0	141606	75.21	-1
0	141794	75.31	-1
0	141982	75.41	-1
0	142170	75.51	-1
0	142358	75.61	-1
0	142546	75.71	-1
0	142734	75.81	-1
0	142922	75.91	-1
0	143116	76.01	-1
0	143304	76.11	-1
0	143492	76.21	-1
0	143680	76.31	-1
0	143868	76.41	-1
0	144056	76.51	-1
0	144244	76.61	-1
0	144432	76.71	-1
0	144620	76.81	-1
0	144808	76.91	-1
0	145002	77.01	-1
0	145190	77.11	-1
0	145378	77.21	-1
0	145566	77.31	-1
0	145754	77.41	-1
0	145942	77.51	-1
0	146130	77.61	-1
0	146318	77.71	-1
0	146506	77.81	-1
0	146694	77.91	-1
0	146888	78.01	-1
0	147076	78.11	-1
0	147264	78.21	-1
0	147452	78.31	-1
0	147640	78.41	-1
0	147828	78.51	-1
0	148016	78.61	-1
0	148204	78.71	-1
0	148392	78.81	-1
0	148580	78.91	-1
0	148774	79.01	-1
0	148962	79.11	-1
0	149150	79.21	-1
0	149338	79.31	-1
0	149526	79.41	-1
0	149714	79.51	-1
0	149902	79.61	-1
0	150090	79.71	-1
0	150278	79.81	-1
0	150466	79.91	-1
0	150660	80.01	-1
0	150848	80.11	-1
0	151036	80.21	-1
0	151224	80.31	-1
0	151412	80.41	-1
0	151600	80.51	-1
0	151788	80.61	-1
0	151976	80.71	-1
0	152164	80.81	-1
0	152352	80.91	-1
0	152546	81.01	-1
0	152734	81.11	-1
0	152922	81.21	-1
0	153110	81.31	-1
0	153298	81.41	-1
0	153486	81.51	-1
0	153674	81.61	-1
0	153862	81.71	-1
0	154050	81.81	-1
0	154238	81.91	-1
0	154432	82.01	-1
0	154620	82.11	-1
0	154808	82.21	-1
0	154996	82.31	-1
0	155184	82.41	-1
0	155372	82.51	-1
0	155560	82.61	-1
0	155748	82.71	-1
0	155936	82.81	-1
0	156124	82.91	-1
0	156318	83.01	-1
0	156506	83.11	-1
0	156694	83.21	-1
0	156882	83.31	-1
0	157070	83.41	-1
0	157258	83.51	-1
0	157446	83.61	-1
0	157634	83.71	-1
0	157822	83.81	-1
0	158010	83.91	-1
0	158204	84.01	-1
0	158392	84.11	-1
0	158580	84.21	-1
0	158768	84.31	-1
0	158956	84.41	-1
0	159144	84.51	-1
0	159332	84.61	-1
0	159520	84.71	-1
0	159708	84.81	-1
0	159896	84.91	-1
0	160090	85.01	-1
0	160278	85.11	-1
0	160466	85.21	-1
0	160654	85.31	-1
0	160842	85.41	-1
0	161030	85.51	-1
0	161218	85.61	-1
0	161406	85.71	-1
0	161594	85.81	-1
0	161782	85.91	-1
0	161976	86.01	-1
0	162164	86.11	-1
0	162352	86.21	-1
0	162540	86.31	-1
0	162728	86.41	-1
0	162916	86.51	-1
0	163104	86.61	-1
0	163292	86.71	-1
0	163480	86.81	-1
0	163668	86.91	-1
0	163862	87.01	-1
0	164050	87.11	-1
0	164238	87.21	-1
0	164426	87.31	-1
0	164614	87.41	-1
0	164802	87.51	-1
0	164990	87.61	-1
0	165178	87.71	-1
0	165366	87.81	-1
0	165554	87.91	-1
0	165748	88.01	-1
0	165936	88.11	-1
0	166124	88.21	-1
0	166312	88.31	-1
0	166500	88.41	-1
0	166688	88.51	-1
0	166876	88.61	-1
0	167064	88.71	-1
0	167252	88.81	-1
0	167440	88.91	-1
0	167634	89.01	-1
0	167822	89.11	-1
0	168010	89.21	-1
0	168198	89.31	-1
0	168386	89.41	-1
0	168574	89.51	-1
0	168762	89.61	-1
0	168950	89.71	-1
0	169138	89.81	-1
0	169326	89.91	-1
0	169520	90.01	-1
0	169708	90.11	-1
0	169896	90.21	-1
0	170084	90.31	-1
0	170272	90.41	-1
0	170460	90.51	-1
0	170648	90.61	-1
0	170836	90.71	-1
0	171024	90.81	-1
0	171212	90.91	-1
0	171406	91.01	-1
0	171594	91.11	-1
0	171782	91.21	-1
0	171970	91.31	-1
0	172158	91.41	-1
0	172346	91.51	-1
0	172534	91.61	-1
0	172722	91.71	-1
0	172910	91.81	-1
0	173098	91.91	-1
0	173292	92.01	-1
0	173480	92.11	-1
0	173668	92.21	-1
0	173856	92.31	-1
0	174044	92.41	-1
0	174232	92.51	-1
0	174420	92.61	-1
0	174608	92.71	-1
0	174796	92.81	-1
0	174984	92.91	-1
0	175178	93.01	-1
0	175366	93.11	-1
0	175554	93.21	-1
0	175742	93.31	-1
0	175930	93.41	-1
0	176118	93.51	-1
0	176306	93.61	-1
0	176494	93.71	-1
0	176682	93.81	-1
0	176870	93.91	-1
0	177064	94.01	-1
0	177252	94.11	-1
0	177440	94.21	-1
0	177628	94.31	-1
0	177816	94.41	-1
0	178004	94.51	-1
0	178192	94.61	-1
0	178380	94.71	-1
0	178568	94.81	-1
0	178756	94.91	-1
0	178950	95.01	-1
0	179138	95.11	-1
0	179326	95.21	-1
0	179514	95.31	-1
0	179702	95.41	-1
0	179890	95.51	-1
0	180078	95.61	-1
0	180266	95.71	-1
0	180454	95.81	-1
0	180642	95.91	-1
0	180836	96.01	-1
0	181024	96.11	-1
0	181212	96.21	-1
0	181400	96.31	-1
0	181588	96.41	-1
0	181776	96.51	-1
0	181964	96.61	-1
0	182152	96.71	-1
0	182340	96.81	-1
0	182528	96.91	-1
0	182722	97.01	-1
0	182910	97.11	-1
0	183098	97.21	-1
0	183286	97.31	-1
0	183474	97.41	-1
0	183662	97.51	-1
0	183850	97.61	-1
0	184038	97.71	-1
0	184226	97.81	-1
0	184414	97.91	-1
0	184608	98.01	-1
0	184796	98.11	-1
0	184984	98.21	-1
0	185172	98.31	-1
0	185360	98.41	-1
0	185548	98.51	-1
0	185736	98.61	-1
0	185924	98.71	-1
0	186112	98.81	-1
0	186300	98.91	-1
0	186494	99.01	-1
0	186682	99.11	-1
0	186870	99.21	-1
0	187058	99.31	-1
0	187246	99.41	-1
0	187434	99.51	-1
0	187622	99.61	-1
0	187810	99.71	-1
0	187998	99.81	-1
0	188186	99.91	-1
1	113	1.11	-9.20219e-06
1	301	1.21	-3.42363e-05
1	489	1.31	-5.71169e-05
1	677	1.41	-7.48428e-05
1	865	1.51	-8.82564e-05
1	1053	1.61	-9.7814e-05
1	1241	1.71	-0.000104353
1	1429	1.81	-0.000108194
1	1617	1.91	-0.000109634
1	1811	2.01	-0.000109414
1	1999	2.11	-0.000107726
1	2187	2.21	-0.000104707
1	2375	2.31	0
1	2563	2.41	0
1	2751	2.51	0
1	2939	2.61	0
1	3127	2.71	0
1	3315	2.81	0
1	3503	2.91	0
1	3697	3.01	0
1	3885	3.11	0
1	4073	3.21	0
1	4261	3.31	0
1	4449	3.41	0
1	4637	3.51	0
1	4825	3.61	0
1	5013	3.71	0
1	5201	3.81	0
1	5389	3.91	0
1	5583	4.01	0
1	5771	4.11	0
1	5959	4.21	0
1	6147	4.31	0
1	6335	4.41	0
1	6523	4.51	0
1	6711	4.61	0
1	6899	4.71	0
1	7087	4.81	0
1	7275	4.91	0
1	7469	5.01	0
1	7657	5.11	0
1	7845	5.21	0
1	8033	5.31	0
1	8221	5.41	0
1	8409	5.51	0
1	8597	5.61	0
1	8785	5.71	0
1	8973	5.81	0
1	9161	5.91	0
1	9355	6.01	0
1	9543	6.11	0
1	9731	6.21	0
1	9919	6.31	0
1	10107	6.41	0
1	10295	6.51	0
1	10483	6.61	0
1	10671	6.71	0
1	10859	6.81	0
1	11047	6.91	0
1	11241	7.01	0
1	11429	7.11	0
1	11617	7.21	0
1	11805	7.31	0
1	11993	7.41	0
1	12181	7.51	0
1	12369	7.61	0
1	12557	7.71	0
1	12745	7.81	0
1	12933	7.91	0
1	13127	8.01	0
1	13315	8.11	0
1	13503	8.21	0
1	13691	8.31	0
1	13879	8.41	0
1	14067	8.51	0
1	14255	8.61	0
1	14443	8.71	0
1	14631	8.81	0
1	14819	8.91	0
1	15013	9.01	0
1	15201	9.11	0
1	15389	9.21	0
1	15577	9.31	0
1	15765	9.41	0
1	15953	9.51	0
1	16141	9.61	0
1	16329	9.71	0
1	16517	9.81	0
1	16705	9.91	0
1	16957	10.01	0
1	17149	10.11	0
1	17341	10.21	0
1	17533	10.31	0
1	17725	10.41	0
1	17917	10.51	0
1	18109	10.61	0
1	18301	10.71	0
1	18493	10.81	0
1	18685	10.91	0
1	18883	11.01	0
1	19075	11.11	0
1	19267	11.21	0
1	19459	11.31	0
1	19651	11.41	0
1	19843	11.51	0
1	20035	11.61	0
1	20227	11.71	0
1	20419	11.81	0
1	20611	11.91	0
1	20809	12.01	0
1	21001	12.11	0
1	21193	12.21	0
1	21385	12.31	0
1	21577	12.41	0
1	21769	12.51	0
1	21961	12.61	0
1	22153	12.71	0
1	22345	12.81	0
1	22537	12.91	0
1	22735	13.01	0
1	22927	13.11	0
1	23119	13.21	0
1	23311	13.31	0
1	23503	13.41	0
1	23695	13.51	0
1	23887	13.61	0
1	24079	13.71	0
1	24271	13.81	0
1	24463	13.91	0
1	24661	14.01	0
1	24853	14.11	0
1	25045	14.21	0
1	25237	14.31	0
1	25429	14.41	0
1	25621	14.51	0
1	25813	14.61	0
1	26005	14.71	0
1	26197	14.81	0
1	26389	14.91	0
1	26587	15.01	0
1	26779	15.11	0
1	26971	15.21	0
1	27163	15.31	0
1	27355	15.41	0
1	27547	15.51	0
1	27739	15.61	0
1	27931	15.71	0
1	28123	15.81	0
1	28315	15.91	0
1	28513	16.01	0
1	28705	16.11	0
1	28897	16.21	0
1	29089	16.31	0
1	29281	16.41	0
1	29473	16.51	0
1	29665	16.61	0
1	29857	16.71	0
1	30049	16.81	0
1	30241	16.91	0
1	30439	17.01	0
1	30631	17.11	0
1	30823	17.21	0
1	31015	17.31	0
1	31207	17.41	0
1	31399	17.51	0
1	31591	17.61	0
1	31783	17.71	0
1	31975	17.81	0
1	32167	17.91	0
1	32365	18.01	0
1	32557	18.11	0
1	32749	18.21	0
1	32941	18.31	0
1	33133	18.41	0
1	33325	18.51	0
1	33517	18.61	0
1	33709	18.71	0
1	33901	18.81	0
1	34093	18.91	0
1	34291	19.01	0
1	34483	19.11	0
1	34675	19.21	0
1	34867	19.31	0
1	35059	19.41	0
1	35251	19.51	0
1	35443	19.61	0
1	35635	19.71	0
1	35827	19.81	0
1	36019	19.91	0
1	36217	20.01	0
1	36409	20.11	0
1	36601	20.21	0
1	36793	20.31	0
1	36985	20.41	0
1	37177	20.51	0
1	37369	20.61	0
1	37561	20.71	0
1	37753	20.81	0
1	37945	20.91	0
1	38143	21.01	0
1	38335	21.11	0
1	38527	21.21	0
1	38719	21.31	0
1	38911	21.41	0
1	39103	21.51	0
1	39295	21.61	0
1	39487	21.71	0
1	39679	21.81	0
1	39871	21.91	0
1	40069	22.01	0
1	40261	22.11	0
1	40453	22.21	0
1	40645	22.31	0
1	40837	22.41	0
1	41029	22.51	0
1	41221	22.61	0
1	41413	22.71	0
1	41605	22.81	0
1	41797	22.91	0
1	41995	23.01	0
1	42187	23.11	0
1	42379	23.21	0
1	42571	23.31	0
1	42763	23.41	0
1	42955	23.51	0
1	43147	23.61	0
1	43339	23.71	0
1	43531	23.81	0
1	43723	23.91	0
1	43921	24.01	0
1	44113	24.11	0
1	44305	24.21	0
1	44497	24.31	0
1	44689	24.41	0
1	44881	24.51	0
1	45073	24.61	0
1	45265	24.71	0
1	45457	24.81	0
1	45649	24.91	0
1	45847	25.01	0
1	46039	25.11	0
1	46231	25.21	0
1	46423	25.31	0
1	46615	25.41	0
1	46807	25.51	0
1	46999	25.61	0
1	47191	25.71	0
1	47383	25.81	0
1	47575	25.91	0
1	47773	26.01	0
1	47965	26.11	0
1	48157	26.21	0
1	48349	26.31	0
1	48541	26.41	0
1	48733	26.51	0
1	48925	26.61	0
1	49117	26.71	0
1	49309	26.81	0
1	49501	26.91	0
1	49699	27.01	0
1	49891	27.11	0
1	50083	27.21	0
1	50275	27.31	0
1	50467	27.41	0
1	50659	27.51	0
1	50851	27.61	0
1	51043	27.71	0
1	51235	27.81	0
1	51427	27.91	0
1	51625	28.01	0
1	51817	28.11	0
1	52009	28.21	0
1	52201	28.31	0
1	52393	28.41	0
1	52585	28.51	0
1	52777	28.61	0
1	52969	28.71	0
1	53161	28.81	0
1	53353	28.91	0
1	53551	29.01	0
1	53743	29.11	0
1	53935	29.21	0
1	54127	29.31	0
1	54319	29.41	0
1	54511	29.51	0
1	54703	29.61	0
1	54895	29.71	0
1	55087	29.81	0
1	55279	29.91	0
1	55477	30.01	0
1	55669	30.11	0
1	55861	30.21	0
1	56053	30.31	0
1	56245	30.41	0
1	56437	30.51	0
1	56629	30.61	0
1	56821	30.71	0
1	57013	30.81	0
1	57205	30.91	0
1	57403	31.01	0
1	57595	31.11	0
1	57787	31.21	0
1	57979	31.31	0
1	58171	31.41	0
1	58363	31.51	0
1	58555	31.61	0
1	58747	31.71	0
1	58939	31.81	0
1	59131	31.91	0
1	59329	32.01	0
1	59521	32.11	0
1	59713	32.21	0
1	59905	32.31	0
1	60097	32.41	0
1	60289	32.51	0
1	60481	32.61	0
1	60673	32.71	0
1	60865	32.81	0
1	61057	32.91	0
1	61255	33.01	0
1	61447	33.11	0
1	61639	33.21	0
1	61831	33.31	0
1	62023	33.41	0
1	62215	33.51	0
1	62407	33.61	0
1	62599	33.71	0
1	62791	33.81	0
1	62983	33.91	0
1	63181	34.01	0
1	63373	34.11	0
1	63565	34.21	0
1	63757	34.31	0
1	63949	34.41	0
1	64141	34.51	0
1	64333	34.61	0
1	64525	34.71	0
1	64717	34.81	0
1	64909	34.91	0
1	65107	35.01	0
1	65299	35.11	0
1	65491	35.21	0
1	65683	35.31	0
1	65875	35.41	0
1	66067	35.51	0
1	66259	35.61	0
1	66451	35.71	0
1	66643	35.81	0
1	66835	35.91	0
1	67033	36.01	0
1	67225	36.11	0
1	67417	36.21	0
1	67609	36.31	0
1	67854	36.41	0
1	68045	36.51	0
1	68236	36.61	0
1	68427	36.71	0
1	68618	36.81	0
1	68809	36.91	0
1	69006	37.01	0
1	69197	37.11	0
1	69388	37.21	0
1	69579	37.31	0
1	69770	37.41	0
1	69961	37.51	0
1	70152	37.61	0
1	70343	37.71	0
1	70534	37.81	0
1	70725	37.91	0
1	70922	38.01	0
1	71113	38.11	0
1	71304	38.21	0
1	71495	38.31	0
1	71686	38.41	0
1	71877	38.51	0
1	72068	38.61	0
1	72259	38.71	0
1	72450	38.81	0
1	72641	38.91	0
1	72838	39.01	0
1	73029	39.11	0
1	73220	39.21	0
1	73411	39.31	0
1	73602	39.41	0
1	73793	39.51	0
1	73984	39.61	0
1	74175	39.71	0
1	74366	39.81	0
1	74557	39.91	0
1	74754	40.01	0
1	74945	40.11	0
1	75136	40.21	0
1	75327	40.31	0
1	75518	40.41	0
1	75709	40.51	0
1	75900	40.61	0
1	76091	40.71	0
1	76282	40.81	0
1	76473	40.91	0
1	76670	41.01	0
1	76861	41.11	0
1	77052	41.21	0
1	77243	41.31	0
1	77434	41.41	0
1	77678	41.51	0
1	77868	41.61	0
1	78058	41.71	0
1	78248	41.81	0
1	78438	41.91	0
1	78634	42.01	0
1	78824	42.11	0
1	79014	42.21	0
1	79204	42.31	0
1	79394	42.41	0
1	79584	42.51	0
1	79774	42.61	0
1	79964	42.71	0
1	80154	42.81	0
1	80344	42.91	0
1	80540	43.01	0
1	80730	43.11	0
1	80920	43.21	0
1	81110	43.31	0
1	81300	43.41	0
1	81490	43.51	0
1	81680	43.61	0
1	81870	43.71	0
1	82060	43.81	0
1	82250	43.91	0
1	82446	44.01	0
1	82636	44.11	0
1	82826	44.21	0
1	83016	44.31	0
1	83206	44.41	0
1	83396	44.51	0
1	83586	44.61	0
1	83776	44.71	0
1	83966	44.81	0
1	84156	44.91	0
1	84352	45.01	0
1	84542	45.11	0
1	84732	45.21	0
1	84922	45.31	0
1	85112	45.41	0
1	85302	45.51	0
1	85492	45.61	0
1	85682	45.71	0
1	85938	45.81	0
1	86127	45.91	0
1	86322	46.01	0
1	86511	46.11	0
1	86912	46.21	0
1	87100	46.31	0
1	87288	46.41	0
1	87476	46.51	0
1	87664	46.61	0
1	87852	46.71	0
1	88040	46.81	0
1	88228	46.91	0
1	88422	47.01	0
1	88610	47.11	0
1	88798	47.21	0
1	88986	47.31	0
1	89174	47.41	0
1	89362	47.51	0
1	89550	47.61	0
1	89738	47.71	0
1	89926	47.81	0
1	90114	47.91	0
1	90308	48.01	0
1	90496	48.11	0
1	90684	48.21	0
1	90872	48.31	0
1	91060	48.41	0
1	91248	48.51	0
1	91436	48.61	0
1	91624	48.71	0
1	91812	48.81	0
1	92000	48.91	0
1	92194	49.01	0
1	92382	49.11	0
1	92570	49.21	0
1	92758	49.31	0
1	92946	49.41	0
1	93134	49.51	0
1	93322	49.61	0
1	93510	49.71	0
1	93698	49.81	0
1	93886	49.91	0
1	94080	50.01	0
1	94268	50.11	0
1	94456	50.21	0
1	94644	50.31	0
1	94832	50.41	0
1	95020	50.51	0
1	95208	50.61	0
1	95396	50.71	0
1	95584	50.81	0
1	95772	50.91	0
1	95966	51.01	0
1	96154	51.11	0
1	96342	51.21	0
1	96530	51.31	0
1	96718	51.41	0
1	96906	51.51	0
1	97094	51.61	0
1	97282	51.71	0
1	97470	51.81	0
1	97658	51.91	0
1	97852	52.01	0
1	98040	52.11	0
1	98228	52.21	0
1	98416	52.31	0
1	98604	52.41	0
1	98792	52.51	0
1	98980	52.61	0
1	99168	52.71	0
1	99356	52.81	0
1	99544	52.91	0
1	99738	53.01	0
1	99926	53.11	0
1	100114	53.21	0
1	100302	53.31	0
1	100490	53.41	0
1	100678	53.51	0
1	100866	53.61	0
1	101054	53.71	0
1	101242	53.81	0
1	101430	53.91	0
1	101624	54.01	0
1	101812	54.11	0
1	102000	54.21	0
1	102188	54.31	0
1	102376	54.41	0
1	102564	54.51	0
1	102752	54.61	0
1	102940	54.71	0
1	103128	54.81	0
1	103316	54.91	0
1	103510	55.01	0
1	103698	55.11	0
1	103886	55.21	0
1	104074	55.31	0
1	104262	55.41	0
1	104450	55.51	0
1	104638	55.61	0
1	104826	55.71	0
1	105014	55.81	0
1	105202	55.91	0
1	105396	56.01	0
1	105584	56.11	0
1	105772	56.21	0
1	105960	56.31	0
1	106148	56.41	0
1	106336	56.51	0
1	106524	56.61	0
1	106712	56.71	0
1	106900	56.81	0
1	107088	56.91	0
1	107282	57.01	0
1	107470	57.11	0
1	107658	57.21	0
1	107846	57.31	0
1	108034	57.41	0
1	108222	57.51	0
1	108410	57.61	0
1	108598	57.71	0
1	108786	57.81	0
1	108974	57.91	0
1	109168	58.01	0
1	109356	58.11	0
1	109544	58.21	0
1	109732	58.31	0
1	109920	58.41	0
1	110108	58.51	0
1	110296	58.61	0
1	110484	58.71	0
1	110672	58.81	0
1	110860	58.91	0
1	111054	59.01	0
1	111242	59.11	0
1	111430	59.21	0
1	111618	59.31	0
1	111806	59.41	0
1	111994	59.51	0
1	112182	59.61	0
1	112370	59.71	0
1	112558	59.81	0
1	112746	59.91	0
1	112940	60.01	0
1	113128	60.11	0
1	113316	60.21	0
1	113504	60.31	0
1	113692	60.41	0
1	113880	60.51	0
1	114068	60.61	0
1	114256	60.71	0
1	114444	60.81	0
1	114632	60.91	0
1	114826	61.01	0
1	115014	61.11	0
1	115202	61.21	0
1	115390	61.31	0
1	115578	61.41	0
1	115766	61.51	0
1	115954	61.61	0
1	116142	61.71	0
1	116330	61.81	0
1	116518	61.91	0
1	116712	62.01	0
1	116900	62.11	0
1	117088	62.21	0
1	117276	62.31	0
1	117464	62.41	0
1	117652	62.51	0
1	117840	62.61	0
1	118028	62.71	0
1	118216	62.81	0
1	118404	62.91	0
1	118598	63.01	0
1	118786	63.11	0
1	118974	63.21	0
1	119162	63.31	0
1	119350	63.41	0
1	119538	63.51	0
1	119726	63.61	0
1	119914	63.71	0
1	120102	63.81	0
1	120290	63.91	0
1	120484	64.01	0
1	120672	64.11	0
1	120860	64.21	0
1	121048	64.31	0
1	121236	64.41	0
1	121424	64.51	0
1	121612	64.61	0
1	121800	64.71	0
1	121988	64.81	0
1	122176	64.91	0
1	122370	65.01	0
1	122558	65.11	0
1	122746	65.21	0
1	122934	65.31	0
1	123122	65.41	0
1	123310	65.51	0
1	123498	65.61	0
1	123686	65.71	0
1	123874	65.81	0
1	124062	65.91	0
1	124256	66.01	0
1	124444	66.11	0
1	124632	66.21	0
1	124820	66.31	0
1	125008	66.41	0
1	125196	66.51	0
1	125384	66.61	0
1	125572	66.71	0
1	125760	66.81	0
1	125948	66.91	0
1	126142	67.01	0
1	126330	67.11	0
1	126518	67.21	0
1	126706	67.31	0
1	126894	67.41	0
1	127082	67.51	0
1	127270	67.61	0
1	127458	67.71	0
1	127646	67.81	0
1	127834	67.91	0
1	128028	68.01	0
1	128216	68.11	0
1	128404	68.21	0
1	128592	68.31	0
1	128780	68.41	0
1	128968	68.51	0
1	129156	68.61	0
1	129344	68.71	0
1	129532	68.81	0
1	129720	68.91	0
1	129914	69.01	0
1	130102	69.11	0
1	130290	69.21	0
1	130478	69.31	0
1	130666	69.41	0
1	130854	69.51	0
1	131042	69.61	0
1	131230	69.71	0
1	131418	69.81	0
1	131606	69.91	0
1	131800	70.01	0
1	131988	70.11	0
1	132176	70.21	0
1	132364	70.31	0
1	132552	70.41	0
1	132740	70.51	0
1	132928	70.61	0
1	133116	70.71	0
1	133304	70.81	0
1	133492	70.91	0
1	133686	71.01	0
1	133874	71.11	0
1	134062	71.21	0
1	134250	71.31	0
1	134438	71.41	0
1	134626	71.51	0
1	134814	71.61	0
1	135002	71.71	0
1	135190	71.81	0
1	135378	71.91	0
1	135572	72.01	0
1	135760	72.11	0
1	135948	72.21	0
1	136136	72.31	0
1	136324	72.41	0
1	136512	72.51	0
1	136700	72.61	0
1	136888	72.71	0
1	137076	72.81	0
1	137264	72.91	0
1	137458	73.01	0
1	137646	73.11	0
1	137834	73.21	0
1	138022	73.31	0
1	138210	73.41	0
1	138398	73.51	0
1	138586	73.61	0
1	138774	73.71	0
1	138962	73.81	0
1	139150	73.91	0
1	139344	74.01	0
1	139532	74.11	0
1	139720	74.21	0
1	139908	74.31	0
1	140096	74.41	0
1	140284	74.51	0
1	140472	74.61	0
1	140660	74.71	0
1	140848	74.81	0
1	141036	74.91	0
1	141230	75.01	0
1	141418	75.11	0
1	141606	75.21	0
1	141794	75.31	0
1	141982	75.41	0
1	142170	75.51	0
1	142358	75.61	0
1	142546	75.71	0
1	142734	75.81	0
1	142922	75.91	0
1	143116	76.01	0
1	143304	76.11	0
1	143492	76.21	0
1	143680	76.31	0
1	143868	76.41	0
1	144056	76.51	0
1	144244	76.61	0
1	144432	76.71	0
1	144620	76.81	0
1	144808	76.91	0
1	145002	77.01	0
1	145190	77.11	0
1	145378	77.21	0
1	145566	77.31	0
1	145754	77.41	0
1	145942	77.51	0
1	146130	77.61	0
1	146318	77.71	0
1	146506	77.81	0
1	146694	77.91	0
1	146888	78.01	0
1	147076	78.11	0
1	147264	78.21	0
1	147452	78.31	0
1	147640	78.41	0
1	147828	78.51	0
1	148016	78.61	0
1	148204	78.71	0
1	148392	78.81	0
1	148580	78.91	0
1	148774	79.01	0
1	148962	79.11	0
1	149150	79.21	0
1	149338	79.31	0
1	149526	79.41	0
1	149714	79.51	0
1	149902	79.61	0
1	150090	79.71	0
1	150278	79.81	0
1	150466	79.91	0
1	150660	80.01	0
1	150848	80.11	0
1	151036	80.21	0
1	151224	80.31	0
1	151412	80.41	0
1	151600	80.51	0
1	151788	80.61	0
1	151976	80.71	0
1	152164	80.81	0
1	152352	80.91	0
1	152546	81.01	0
1	152734	81.11	0
1	152922	81.21	0
1	153110	81.31	0
1	153298	81.41	0
1	153486	81.51	0
1	153674	81.61	0
1	153862	81.71	0
1	154050	81.81	0
1	154238	81.91	0
1	154432	82.01	0
1	154620	82.11	0
1	154808	82.21	0
1	154996	82.31	0
1	155184	82.41	0
1	155372	82.51	0
1	155560	82.61	0
1	155748	82.71	0
1	155936	82.81	0
1	156124	82.91	0
1	156318	83.01	0
1	156506	83.11	0
1	156694	83.21	0
1	156882	83.31	0
1	157070	83.41	0
1	157258	83.51	0
1	157446	83.61	0
1	157634	83.71	0
1	157822	83.81	0
1	158010	83.91	0
1	158204	84.01	0
1	158392	84.11	0
1	158580	84.21	0
1	158768	84.31	0
1	158956	84.41	0
1	159144	84.51	0
1	159332	84.61	0
1	159520	84.71	0
1	159708	84.81	0
1	159896	84.91	0
1	160090	85.01	0
1	160278	85.11	0
1	160466	85.21	0
1	160654	85.31	0
1	160842	85.41	0
1	161030	85.51	0
1	161218	85.61	0
1	161406	85.71	0
1	161594	85.81	0
1	161782	85.91	0
1	161976	86.01	0
1	162164	86.11	0
1	162352	86.21	0
1	162540	86.31	0
1	162728	86.41	0
1	162916	86.51	0
1	163104	86.61	0
1	163292	86.71	0
1	163480	86.81	0
1	163668	86.91	0
1	163862	87.01	0
1	164050	87.11	0
1	164238	87.21	0
1	164426	87.31	0
1	164614	87.41	0
1	164802	87.51	0
1	164990	87.61	0
1	165178	87.71	0
1	165366	87.81	0
1	165554	87.91	0
1	165748	88.01	0
1	165936	88.11	0
1	166124	88.21	0
1	166312	88.31	0
1	166500	88.41	0
1	166688	88.51	0
1	166876	88.61	0
1	167064	88.71	0
1	167252	88.81	0
1	167440	88.91	0
1	167634	89.01	0
1	167822	89.11	0
1	168010	89.21	0
1	168198	89.31	0
1	168386	89.41	0
1	168574	89.51	0
1	168762	89.61	0
1	168950	89.71	0
1	169138	89.81	0
1	169326	89.91	0
1	169520	90.01	0
1	169708	90.11	0
1	169896	90.21	0
1	170084	90.31	0
1	170272	90.41	0
1	170460	90.51	0
1	170648	90.61	0
1	170836	90.71	0
1	171024	90.81	0
1	171212	90.91	0
1	171406	91.01	0
1	171594	91.11	0
1	171782	91.21	0
1	171970	91.31	0
1	172158	91.41	0
1	172346	91.51	0
1	172534	91.61	0
1	172722	91.71	0
1	172910	91.81	0
1	173098	91.91	0
1	173292	92.01	0
1	173480	92.11	0
1	173668	92.21	0
1	173856	92.31	0
1	174044	92.41	0
1	174232	92.51	0
1	174420	92.61	0
1	174608	92.71	0
1	174796	92.81	0
1	174984	92.91	0
1	175178	93.01	0
1	175366	93.11	0
1	175554	93.21	0
1	175742	93.31	0
1	175930	93.41	0
1	176118	93.51	0
1	176306	93.61	0
1	176494	93.71	0
1	176682	93.81	0
1	176870	93.91	0
1	177064	94.01	0
1	177252	94.11	0
1	177440	94.21	0
1	177628	94.31	0
1	177816	94.41	0
1	178004	94.51	0
1	178192	94.61	0
1	178380	94.71	0
1	178568	94.81	0
1	178756	94.91	0
1	178950	95.01	0
1	179138	95.11	0
1	179326	95.21	0
1	179514	95.31	0
1	179702	95.41	0
1	179890	95.51	0
1	180078	95.61	0
1	180266	95.71	0
1	180454	95.81	0
1	180642	95.91	0
1	180836	96.01	0
1	181024	96.11	0
1	181212	96.21	0
1	181400	96.31	0
1	181588	96.41	0
1	181776	96.51	0
1	181964	96.61	0
1	182152	96.71	0
1	182340	96.81	0
1	182528	96.91	0
1	182722	97.01	0
1	182910	97.11	0
1	183098	97.21	0
1	183286	97.31	0
1	183474	97.41	0
1	183662	97.51	0
1	183850	97.61	0
1	184038	97.71	0
1	184226	97.81	0
1	184414	97.91	0
1	184608	98.01	0
1	184796	98.11	0
1	184984	98.21	0
1	185172	98.31	0
1	185360	98.41	0
1	185548	98.51	0
1	185736	98.61	0
1	185924	98.71	0
1	186112	98.81	0
1	186300	98.91	0
1	186494	99.01	0
1	186682	99.11	0
1	186870	99.21	0
1	187058	99.31	0
1	187246	99.41	0
1	187434	99.51	0
1	187622	99.61	0
1	187810	99.71	0
1	187998	99.81	0
1	188186	99.91	0
2	113	1.11	0
2	301	1.21	0
2	489	1.31	0
2	677	1.41	0
2	865	1.51	0
2	1053	1.61	0
2	1241	1.71	0
2	1429	1.81	0
2	1617	1.91	0
2	1811	2.01	0
2	1999	2.11	0
2	2187	2.21	0
2	2375	2.31	0
2	2563	2.41	0
2	2751	2.51	0
2	2939	2.61	0
2	3127	2.71	0
2	3315	2.81	0
2	3503	2.91	0
2	3697	3.01	0
2	3885	3.11	0
2	4073	3.21	0
2	4261	3.31	0
2	4449	3.41	0
2	4637	3.51	0
2	4825	3.61	0
2	5013	3.71	0
2	5201	3.81	0
2	5389	3.91	0
2	5583	4.01	0
2	5771	4.11	0
2	5959	4.21	0
2	6147	4.31	0
2	6335	4.41	0
2	6523	4.51	0
2	6711	4.61	0
2	6899	4.71	0
2	7087	4.81	0
2	7275	4.91	0
2	7469	5.01	0
2	7657	5.11	0
2	7845	5.21	0
2	8033	5.31	0
2	8221	5.41	0
2	8409	5.51	0
2	8597	5.61	0
2	8785	5.71	0
2	8973	5.81	0
2	9161	5.91	0
2	9355	6.01	0
2	9543	6.11	0
2	9731	6.21	0
2	9919	6.31	0
2	10107	6.41	0
2	10295	6.51	0
2	10483	6.61	0
2	10671	6.71	0
2	10859	6.81	0
2	11047	6.91	0
2	11241	7.01	0
2	11429	7.11	0
2	11617	7.21	0
2	11805	7.31	0
2	11993	7.41	0
2	12181	7.51	0
2	12369	7.61	0
2	12557	7.71	0
2	12745	7.81	0
2	12933	7.91	0
2	13127	8.01	0
2	13315	8.11	0
2	13503	8.21	0
2	13691	8.31	0
2	13879	8.41	0
2	14067	8.51	0
2	14255	8.61	0
2	14443	8.71	0
2	14631	8.81	0
2	14819	8.91	0
2	15013	9.01	0
2	15201	9.11	0
2	15389	9.21	0
2	15577	9.31	0
2	15765	9.41	0
2	15953	9.51	0
2	16141	9.61	0
2	16329	9.71	0
2	16517	9.81	0
2	16705	9.91	0
2	16957	10.01	0
2	17149	10.11	0
2	17341	10.21	0
2	17533	10.31	0
2	17725	10.41	0
2	17917	10.51	0
2	18109	10.61	0
2	18301	10.71	0
2	18493	10.81	0
2	18685	10.91	0
2	18883	11.01	0
2	19075	11.11	0
2	19267	11.21	0
2	19459	11.31	0
2	19651	11.41	0
2	19843	11.51	0
2	20035	11.61	0
2	20227	11.71	0
2	20419	11.81	0
2	20611	11.91	0
2	20809	12.01	0
2	21001	12.11	0
2	21193	12.21	0
2	21385	12.31	0
2	21577	12.41	0
2	21769	12.51	0
2	21961	12.61	0
2	22153	12.71	0
2	22345	12.81	0
2	22537	12.91	0
2	22735	13.01	0
2	22927	13.11	0
2	23119	13.21	0
2	23311	13.31	0
2	23503	13.41	0
2	23695	13.51	0
2	23887	13.61	0
2	24079	13.71	0
2	24271	13.81	0
2	24463	13.91	0
2	24661	14.01	0
2	24853	14.11	0
2	25045	14.21	0
2	25237	14.31	0
2	25429	14.41	0
2	25621	14.51	0
2	25813	14.61	0
2	26005	14.71	0
2	26197	14.81	0
2	26389	14.91	0
2	26587	15.01	0
2	26779	15.11	0
2	26971	15.21	0
2	27163	15.31	0
2	27355	15.41	0
2	27547	15.51	0
2	27739	15.61	0
2	27931	15.71	0
2	28123	15.81	0
2	28315	15.91	0
2	28513	16.01	0
2	28705	16.11	0
2	28897	16.21	0
2	29089	16.31	0
2	29281	16.41	0
2	29473	16.51	0
2	29665	16.61	0
2	29857	16.71	0
2	30049	16.81	0
2	30241	16.91	0
2	30439	17.01	0
2	30631	17.11	0
2	30823	17.21	0
2	31015	17.31	0
2	31207	17.41	0
2	31399	17.51	0
2	31591	17.61	0
2	31783	17.71	0
2	31975	17.81	0
2	32167	17.91	0
2	32365	18.01	0
2	32557	18.11	0
2	32749	18.21	0
2	32941	18.31	0
2	33133	18.41	0
2	33325	18.51	0
2	33517	18.61	0
2	33709	18.71	0
2	33901	18.81	0
2	34093	18.91	0
2	34291	19.01	0
2	34483	19.11	0
2	34675	19.21	0
2	34867	19.31	0
2	35059	19.41	0
2	35251	19.51	0
2	35443	19.61	0
2	35635	19.71	0
2	35827	19.81	0
2	36019	19.91	0
2	36217	20.01	0
2	36409	20.11	0
2	36601	20.21	0
2	36793	20.31	0
2	36985	20.41	0
2	37177	20.51	0
2	37369	20.61	0
2	37561	20.71	0
2	37753	20.81	0
2	37945	20.91	0
2	38143	21.01	0
2	38335	21.11	0
2	38527	21.21	0
2	38719	21.31	0
2	38911	21.41	0
2	39103	21.51	0
2	39295	21.61	0
2	39487	21.71	0
2	39679	21.81	0
2	39871	21.91	0
2	40069	22.01	0
2	40261	22.11	0
2	40453	22.21	0
2	40645	22.31	0
2	40837	22.41	0
2	41029	22.51	0
2	41221	22.61	0
2	41413	22.71	0
2	41605	22.81	0
2	41797	22.91	0
2	41995	23.01	0
2	42187	23.11	0
2	42379	23.21	0
2	42571	23.31	0
2	42763	23.41	0
2	42955	23.51	0
2	43147	23.61	0
2	43339	23.71	0
2	43531	23.81	0
2	43723	23.91	0
2	43921	24.01	0
2	44113	24.11	0
2	44305	24.21	0
2	44497	24.31	0
2	44689	24.41	0
2	44881	24.51	0
2	45073	24.61	0
2	45265	24.71	0
2	45457	24.81	0
2	45649	24.91	0
2	45847	25.01	0
2	46039	25.11	0
2	46231	25.21	0
2	46423	25.31	0
2	46615	25.41	0
2	46807	25.51	0
2	46999	25.61	0
2	47191	25.71	0
2	47383	25.81	0
2	47575	25.91	0
2	47773	26.01	0
2	47965	26.11	0
2	48157	26.21	0
2	48349	26.31	0
2	48541	26.41	0
2	48733	26.51	0
2	48925	26.61	0
2	49117	26.71	0
2	49309	26.81	0
2	49501	26.91	0
2	49699	27.01	0
2	49891	27.11	0
2	50083	27.21	0
2	50275	27.31	0
2	50467	27.41	0
2	50659	27.51	0
2	50851	27.61	0
2	51043	27.71	0
2	51235	27.81	0
2	51427	27.91	0
2	51625	28.01	0
2	51817	28.11	0
2	52009	28.21	0
2	52201	28.31	0
2	52393	28.41	0
2	52585	28.51	0
2	52777	28.61	0
2	52969	28.71	0
2	53161	28.81	0
2	53353	28.91	0
2	53551	29.01	0
2	53743	29.11	0
2	53935	29.21	0
2	54127	29.31	0
2	54319	29.41	0
2	54511	29.51	0
2	54703	29.61	0
2	54895	29.71	0
2	55087	29.81	0
2	55279	29.91	0
2	55477	30.01	0
2	55669	30.11	0
2	55861	30.21	0
2	56053	30.31	0
2	56245	30.41	0
2	56437	30.51	0
2	56629	30.61	0
2	56821	30.71	0
2	57013	30.81	0
2	57205	30.91	0
2	57403	31.01	0
2	57595	31.11	0
2	57787	31.21	0
2	57979	31.31	0
2	58171	31.41	0
2	58363	31.51	0
2	58555	31.61	0
2	58747	31.71	0
2	58939	31.81	0
2	59131	31.91	0
2	59329	32.01	0
2	59521	32.11	0
2	59713	32.21	0
2	59905	32.31	0
2	60097	32.41	0
2	60289	32.51	0
2	60481	32.61	0
2	60673	32.71	0
2	60865	32.81	0
2	61057	32.91	0
2	61255	33.01	0
2	61447	33.11	0
2	61639	33.21	0
2	61831	33.31	0
2	62023	33.41	0
2	62215	33.51	0
2	62407	33.61	0
2	62599	33.71	0
2	62791	33.81	0
2	62983	33.91	0
2	63181	34.01	0
2	63373	34.11	0
2	63565	34.21	0
2	63757	34.31	0
2	63949	34.41	0
2	64141	34.51	0
2	64333	34.61	0
2	64525	34.71	0
2	64717	34.81	0
2	64909	34.91	0
2	65107	35.01	0
2	65299	35.11	0
2	65491	35.21	0
2	65683	35.31	0
2	65875	35.41	0
2	66067	35.51	0
2	66259	35.61	0
2	66451	35.71	0
2	66643	35.81	0
2	66835	35.91	0
2	67033	36.01	0
2	67225	36.11	0
2	67417	36.21	0
2	67609	36.31	0
2	67854	36.41	0
2	68045	36.51	0
2	68236	36.61	0
2	68427	36.71	0
2	68618	36.81	0
2	68809	36.91	0
2	69006	37.01	0
2	69197	37.11	0
2	69388	37.21	0
2	69579	37.31	0
2	69770	37.41	0
2	69961	37.51	0
2	70152	37.61	0
2	70343	37.71	0
2	70534	37.81	0
2	70725	37.91	0
2	70922	38.01	0
2	71113	38.11	0
2	71304	38.21	0
2	71495	38.31	0
2	71686	38.41	0
2	71877	38.51	0
2	72068	38.61	0
2	72259	38.71	0
2	72450	38.81	0
2	72641	38.91	0
2	72838	39.01	0
2	73029	39.11	0
2	73220	39.21	0
2	73411	39.31	0
2	73602	39.41	0
2	73793	39.51	0
2	73984	39.61	0
2	74175	39.71	0
2	74366	39.81	0
2	74557	39.91	0
2	74754	40.01	0
2	74945	40.11	0
2	75136	40.21	0
2	75327	40.31	0
2	75518	40.41	0
2	75709	40.51	0
2	75900	40.61	0
2	76091	40.71	0
2	76282	40.81	0
2	76473	40.91	0
2	76670	41.01	0
2	76861	41.11	0
2	77052	41.21	0
2	77243	41.31	0
2	77434	41.41	0
2	77678	41.51	0
2	77868	41.61	0
2	78058	41.71	0
2	78248	41.81	0
2	78438	41.91	0
2	78634	42.01	0
2	78824	42.11	0
2	79014	42.21	0
2	79204	42.31	0
2	79394	42.41	0
2	79584	42.51	0
2	79774	42.61	0
2	79964	42.71	0
2	80154	42.81	0
2	80344	42.91	0
2	80540	43.01	0
2	80730	43.11	0
2	80920	43.21	0
2	81110	43.31	0
2	81300	43.41	0
2	81490	43.51	0
2	81680	43.61	0
2	81870	43.71	0
2	82060	43.81	0
2	82250	43.91	0
2	82446	44.01	0
2	82636	44.11	0
2	82826	44.21	0
2	83016	44.31	0
2	83206	44.41	0
2	83396	44.51	0
2	83586	44.61	0
2	83776	44.71	0
2	83966	44.81	0
2	84156	44.91	0
2	84352	45.01	0
2	84542	45.11	0
2	84732	45.21	0
2	84922	45.31	0
2	85112	45.41	0
2	85302	45.51	0
2	85492	45.61	0
2	85682	45.71	0
2	85938	45.81	0
2	86127	45.91	0
2	86322	46.01	0
2	86511	46.11	0
2	86912	46.21	0
2	87100	46.31	0
2	87288	46.41	0
2	87476	46.51	0
2	87664	46.61	0
2	87852	46.71	0
2	88040	46.81	0
2	88228	46.91	0
2	88422	47.01	0
2	88610	47.11	0
2	88798	47.21	0
2	88986	47.31	0
2	89174	47.41	0
2	89362	47.51	0
2	89550	47.61	0
2	89738	47.71	0
2	89926	47.81	0
2	90114	47.91	0
2	90308	48.01	0
2	90496	48.11	0
2	90684	48.21	0
2	90872	48.31	0
2	91060	48.41	0
2	91248	48.51	0
2	91436	48.61	0
2	91624	48.71	0
2	91812	48.81	0
2	92000	48.91	0
2	92194	49.01	0
2	92382	49.11	0
2	92570	49.21	0
2	92758	49.31	0
2	92946	49.41	0
2	93134	49.51	0
2	93322	49.61	0
2	93510	49.71	0
2	93698	49.81	0
2	93886	49.91	0
2	94080	50.01	0
2	94268	50.11	0
2	94456	50.21	0
2	94644	50.31	0
2	94832	50.41	0
2	95020	50.51	0
2	95208	50.61	0
2	95396	50.71	0
2	95584	50.81	0
2	95772	50.91	0
2	95966	51.01	0
2	96154	51.11	0
2	96342	51.21	0
2	96530	51.31	0
2	96718	51.41	0
2	96906	51.51	0
2	97094	51.61	0
2	97282	51.71	0
2	97470	51.81	0
2	97658	51.91	0
2	97852	52.01	0
2	98040	52.11	0
2	98228	52.21	0
2	98416	52.31	0
2	98604	52.41	0
2	98792	52.51	0
2	98980	52.61	0
2	99168	52.71	0
2	99356	52.81	0
2	99544	52.91	0
2	99738	53.01	0
2	99926	53.11	0
2	100114	53.21	0
2	100302	53.31	0
2	100490	53.41	0
2	100678	53.51	0
2	100866	53.61	0
2	101054	53.71	0
2	101242	53.81	0
2	101430	53.91	0
2	101624	54.01	0
2	101812	54.11	0
2	102000	54.21	0
2	102188	54.31	0
2	102376	54.41	0
2	102564	54.51	0
2	102752	54.61	0
2	102940	54.71	0
2	103128	54.81	0
2	103316	54.91	0
2	103510	55.01	0
2	103698	55.11	0
2	103886	55.21	0
2	104074	55.31	0
2	104262	55.41	0
2	104450	55.51	0
2	104638	55.61	0
2	104826	55.71	0
2	105014	55.81	0
2	105202	55.91	0
2	105396	56.01	0
2	105584	56.11	0
2	105772	56.21	0
2	105960	56.31	0
2	106148	56.41	0
2	106336	56.51	0
2	106524	56.61	0
2	106712	56.71	0
2	106900	56.81	0
2	107088	56.91	0
2	107282	57.01	0
2	107470	57.11	0
2	107658	57.21	0
2	107846	57.31	0
2	108034	57.41	0
2	108222	57.51	0
2	108410	57.61	0
2	108598	57.71	0
2	108786	57.81	0
2	108974	57.91	0
2	109168	58.01	0
2	109356	58.11	0
2	109544	58.21	0
2	109732	58.31	0
2	109920	58.41	0
2	110108	58.51	0
2	110296	58.61	0
2	110484	58.71	0
2	110672	58.81	0
2	110860	58.91	0
2	111054	59.01	0
2	111242	59.11	0
2	111430	59.21	0
2	111618	59.31	0
2	111806	59.41	0
2	111994	59.51	0
2	112182	59.61	0
2	112370	59.71	0
2	112558	59.81	0
2	112746	59.91	0
2	112940	60.01	0
2	113128	60.11	0
2	113316	60.21	0
2	113504	60.31	0
2	113692	60.41	0
2	113880	60.51	0
2	114068	60.61	0
2	114256	60.71	0
2	114444	60.81	0
2	114632	60.91	0
2	114826	61.01	0
2	115014	61.11	0
2	115202	61.21	0
2	115390	61.31	0
2	115578	61.41	0
2	115766	61.51	0
2	115954	61.61	0
2	116142	61.71	0
2	116330	61.81	0
2	116518	61.91	0
2	116712	62.01	0
2	116900	62.11	0
2	117088	62.21	0
2	117276	62.31	0
2	117464	62.41	0
2	117652	62.51	0
2	117840	62.61	0
2	118028	62.71	0
2	118216	62.81	0
2	118404	62.91	0
2	118598	63.01	0
2	118786	63.11	0
2	118974	63.21	0
2	119162	63.31	0
2	119350	63.41	0
2	119538	63.51	0
2	119726	63.61	0
2	119914	63.71	0
2	120102	63.81	0
2	120290	63.91	0
2	120484	64.01	0
2	120672	64.11	0
2	120860	64.21	0
2	121048	64.31	0
2	121236	64.41	0
2	121424	64.51	0
2	121612	64.61	0
2	121800	64.71	0
2	121988	64.81	0
2	122176	64.91	0
2	122370	65.01	0
2	122558	65.11	0
2	122746	65.21	0
2	122934	65.31	0
2	123122	65.41	0
2	123310	65.51	0
2	123498	65.61	0
2	123686	65.71	0
2	123874	65.81	0
2	124062	65.91	0
2	124256	66.01	0
2	124444	66.11	0
2	124632	66.21	0
2	124820	66.31	0
2	125008	66.41	0
2	125196	66.51	0
2	125384	66.61	0
2	125572	66.71	0
2	125760	66.81	0
2	125948	66.91	0
2	126142	67.01	0
2	126330	67.11	0
2	126518	67.21	0
2	126706	67.31	0
2	126894	67.41	0
2	127082	67.51	0
2	127270	67.61	0
2	127458	67.71	0
2	127646	67.81	0
2	127834	67.91	0
2	128028	68.01	0
2	128216	68.11	0
2	128404	68.21	0
2	128592	68.31	0
2	128780	68.41	0
2	128968	68.51	0
2	129156	68.61	0
2	129344	68.71	0
2	129532	68.81	0
2	129720	68.91	0
2	129914	69.01	0
2	130102	69.11	0
2	130290	69.21	0
2	130478	69.31	0
2	130666	69.41	0
2	130854	69.51	0
2	131042	69.61	0
2	131230	69.71	0
2	131418	69.81	0
2	131606	69.91	0
2	131800	70.01	0
2	131988	70.11	0
2	132176	70.21	0
2	132364	70.31	0
2	132552	70.41	0
2	132740	70.51	0
2	132928	70.61	0
2	133116	70.71	0
2	133304	70.81	0
2	133492	70.91	0
2	133686	71.01	0
2	133874	71.11	0
2	134062	71.21	0
2	134250	71.31	0
2	134438	71.41	0
2	134626	71.51	0
2	134814	71.61	0
2	135002	71.71	0
2	135190	71.81	0
2	135378	71.91	0
2	135572	72.01	0
2	135760	72.11	0
2	135948	72.21	0
2	136136	72.31	0
2	136324	72.41	0
2	136512	72.51	0
2	136700	72.61	0
2	136888	72.71	0
2	137076	72.81	0
2	137264	72.91	0
2	137458	73.01	0
2	137646	73.11	0
2	137834	73.21	0
2	138022	73.31	0
2	138210	73.41	0
2	138398	73.51	0
2	138586	73.61	0
2	138774	73.71	0
2	138962	73.81	0
2	139150	73.91	0
2	139344	74.01	0
2	139532	74.11	0
2	139720	74.21	0
2	139908	74.31	0
2	140096	74.41	0
2	140284	74.51	0
2	140472	74.61	0
2	140660	74.71	0
2	140848	74.81	0
2	141036	74.91	0
2	141230	75.01	0
2	141418	75.11	0
2	141606	75.21	0
2	141794	75.31	0
2	141982	75.41	0
2	142170	75.51	0
2	142358	75.61	0
2	142546	75.71	0
2	142734	75.81	0
2	142922	75.91	0
2	143116	76.01	0
2	143304	76.11	0
2	143492	76.21	0
2	143680	76.31	0
2	143868	76.41	0
2	144056	76.51	0
2	144244	76.61	0
2	144432	76.71	0
2	144620	76.81	0
2	144808	76.91	0
2	145002	77.01	0
2	145190	77.11	0
2	145378	77.21	0
2	145566	77.31	0
2	145754	77.41	0
2	145942	77.51	0
2	146130	77.61	0
2	146318	77.71	0
2	146506	77.81	0
2	146694	77.91	0
2	146888	78.01	0
2	147076	78.11	0
2	147264	78.21	0
2	147452	78.31	0
2	147640	78.41	0
2	147828	78.51	0
2	148016	78.61	0
2	148204	78.71	0
2	148392	78.81	0
2	148580	78.91	0
2	148774	79.01	0
2	148962	79.11	0
2	149150	79.21	0
2	149338	79.31	0
2	149526	79.41	0
2	149714	79.51	0
2	149902	79.61	0
2	150090	79.71	0
2	150278	79.81	0
2	150466	79.91	0
2	150660	80.01	0
2	150848	80.11	0
2	151036	80.21	0
2	151224	80.31	0
2	151412	80.41	0
2	151600	80.51	0
2	151788	80.61	0
2	151976	80.71	0
2	152164	80.81	0
2	152352	80.91	0
2	152546	81.01	0
2	152734	81.11	0
2	152922	81.21	0
2	153110	81.31	0
2	153298	81.41	0
2	153486	81.51	0
2	153674	81.61	0
2	153862	81.71	0
2	154050	81.81	0
2	154238	81.91	0
2	154432	82.01	0
2	154620	82.11	0
2	154808	82.21	0
2	154996	82.31	0
2	155184	82.41	0
2	155372	82.51	0
2	155560	82.61	0
2	155748	82.71	0
2	155936	82.81	0
2	156124	82.91	0
2	156318	83.01	0
2	156506	83.11	0
2	156694	83.21	0
2	156882	83.31	0
2	157070	83.41	0
2	157258	83.51	0
2	157446	83.61	0
2	157634	83.71	0
2	157822	83.81	0
2	158010	83.91	0
2	158204	84.01	0
2	158392	84.11	0
2	158580	84.21	0
2	158768	84.31	0
2	158956	84.41	0
2	159144	84.51	0
2	159332	84.61	0
2	159520	84.71	0
2	159708	84.81	0
2	159896	84.91	0
2	160090	85.01	0
2	160278	85.11	0
2	160466	85.21	0
2	160654	85.31	0
2	160842	85.41	0
2	161030	85.51	0
2	161218	85.61	0
2	161406	85.71	0
2	161594	85.81	0
2	161782	85.91	0
2	161976	86.01	0
2	162164	86.11	0
2	162352	86.21	0
2	162540	86.31	0
2	162728	86.41	0
2	162916	86.51	0
2	163104	86.61	0
2	163292	86.71	0
2	163480	86.81	0
2	163668	86.91	0
2	163862	87.01	0
2	164050	87.11	0
2	164238	87.21	0
2	164426	87.31	0
2	164614	87.41	0
2	164802	87.51	0
2	164990	87.61	0
2	165178	87.71	0
2	165366	87.81	0
2	165554	87.91	0
2	165748	88.01	0
2	165936	88.11	0
2	166124	88.21	0
2	166312	88.31	0
2	166500	88.41	0
2	166688	88.51	0
2	166876	88.61	0
2	167064	88.71	0
2	167252	88.81	0
2	167440	88.91	0
2	167634	89.01	0
2	167822	89.11	0
2	168010	89.21	0
2	168198	89.31	0
2	168386	89.41	0
2	168574	89.51	0
2	168762	89.61	0
2	168950	89.71	0
2	169138	89.81	0
2	169326	89.91	0
2	169520	90.01	0
2	169708	90.11	0
2	169896	90.21	0
2	170084	90.31	0
2	170272	90.41	0
2	170460	90.51	0
2	170648	90.61	0
2	170836	90.71	0
2	171024	90.81	0
2	171212	90.91	0
2	171406	91.01	0
2	171594	91.11	0
2	171782	91.21	0
2	171970	91.31	0
2	172158	91.41	0
2	172346	91.51	0
2	172534	91.61	0
2	172722	91.71	0
2	172910	91.81	0
2	173098	91.91	0
2	173292	92.01	0
2	173480	92.11	0
2	173668	92.21	0
2	173856	92.31	0
2	174044	92.41	0
2	174232	92.51	0
2	174420	92.61	0
2	174608	92.71	0
2	174796	92.81	0
2	174984	92.91	0
2	175178	93.01	0
2	175366	93.11	0
2	175554	93.21	0
2	175742	93.31	0
2	175930	93.41	0
2	176118	93.51	0
2	176306	93.61	0
2	176494	93.71	0
2	176682	93.81	0
2	176870	93.91	0
2	177064	94.01	0
2	177252	94.11	0
2	177440	94.21	0
2	177628	94.31	0
2	177816	94.41	0
2	178004	94.51	0
2	178192	94.61	0
2	178380	94.71	0
2	178568	94.81	0
2	178756	94.91	0
2	178950	95.01	0
2	179138	95.11	0
2	179326	95.21	0
2	179514	95.31	0
2	179702	95.41	0
2	179890	95.51	0
2	180078	95.61	0
2	180266	95.71	0
2	180454	95.81	0
2	180642	95.91	0
2	180836	96.01	0
2	181024	96.11	0
2	181212	96.21	0
2	181400	96.31	0
2	181588	96.41	0
2	181776	96.51	0
2	181964	96.61	0
2	182152	96.71	0
2	182340	96.81	0
2	182528	96.91	0
2	182722	97.01	0
2	182910	97.11	0
2	183098	97.21	0
2	183286	97.31	0
2	183474	97.41	0
2	183662	97.51	0
2	183850	97.61	0
2	184038	97.71	0
2	184226	97.81	0
2	184414	97.91	0
2	184608	98.01	0
2	184796	98.11	0
2	184984	98.21	0
2	185172	98.31	0
2	185360	98.41	0
2	185548	98.51	0
2	185736	98.61	0
2	185924	98.71	0
2	186112	98.81	0
2	186300	98.91	0
2	186494	99.01	0
2	186682	99.11	0
2	186870	99.21	0
2	187058	99.31	0
2	187246	99.41	0
2	187434	99.51	0
2	187622	99.61	0
2	187810	99.71	0
2	187998	99.81	0
2	188186	99.91	0
3	113	1.11	0.000179096
3	301	1.21	0.000340852
3	489	1.31	0.000467435
3	677	1.41	0.000562893
3	865	1.51	0.000631106
3	1053	1.61	0.000675745
3	1241	1.71	0.000700245
3	1429	1.81	0.000707784
3	1617	1.91	0.000701273
3	1811	2.01	0.000683354
3	1999	2.11	0.000656398
3	2187	2.21	0.000622512
3	2375	2.31	0.000583548
3	2563	2.41	0.000541117
3	2751	2.51	0.000496604
3	2939	2.61	0.000451181
3	3127	2.71	0.000405825
3	3315	2.81	0.00036134
3	3503	2.91	0.000318365
3	3697	3.01	0.0002774
3	3885	3.11	0.00023882
3	4073	3.21	0.000202887
3	4261	3.31	0.00016977
3	4449	3.41	0.000139558
3	4637	3.51	0.000112271
3	4825	3.61	8.78717e-05
3	5013	3.71	6.628e-05
3	5201	3.81	4.73785e-05
3	5389	3.91	3.1023e-05
3	5583	4.01	1.70493e-05
3	5771	4.11	5.28023e-06
3	5959	4.21	-4.46922e-06
3	6147	4.31	-1.2387e-05
3	6335	4.41	-1.86602e-05
3	6523	4.51	-2.34717e-05
3	6711	4.61	-2.69978e-05
3	6899	4.71	-2.94062e-05
3	7087	4.81	-3.08545e-05
3	7275	4.91	-3.14892e-05
3	7469	5.01	-3.14451e-05
3	7657	5.11	-3.0845e-05
3	7845	5.21	-2.97994e-05
3	8033	5.31	-2.84072e-05
3	8221	5.41	-2.67556e-05
3	8409	5.51	-2.49208e-05
3	8597	5.61	-2.29687e-05
3	8785	5.71	-2.09553e-05
3	8973	5.81	-1.89277e-05
3	9161	5.91	-1.6925e-05
3	9355	6.01	-1.49784e-05
3	9543	6.11	-1.31129e-05
3	9731	6.21	-1.13474e-05
3	9919	6.31	-9.69553e-06
3	10107	6.41	-8.16651e-06
3	10295	6.51	-6.76571e-06
3	10483	6.61	-5.49522e-06
3	10671	6.71	-4.35441e-06
3	10859	6.81	-3.34045e-06
3	11047	6.91	-2.44874e-06
3	11241	7.01	-1.6733e-06
3	11429	7.11	-1.00716e-06
3	11617	7.21	-4.42628e-07
3	11805	7.31	2.84224e-08
3	11993	7.41	4.14339e-07
3	12181	7.51	7.23492e-07
3	12369	7.61	9.6413e-07
3	12557	7.71	1.14424e-06
3	12745	7.81	1.27148e-06
3	12933	7.91	1.35305e-06
3	13127	8.01	1.3957e-06
3	13315	8.11	1.40565e-06
3	13503	8.21	1.3886e-06
3	13691	8.31	1.34971e-06
3	13879	8.41	1.2936e-06
3	14067	8.51	1.22437e-06
3	14255	8.61	1.14561e-06
3	14443	8.71	1.06046e-06
3	14631	8.81	9.71582e-07
3	14819	8.91	8.81246e-07
3	15013	9.01	7.91334e-07
3	15201	9.11	7.03381e-07
3	15389	9.21	6.18613e-07
3	15577	9.31	5.37979e-07
3	15765	9.41	4.62183e-07
3	15953	9.51	3.91714e-07
3	16141	9.61	3.26878e-07
3	16329	9.71	2.67827e-07
3	16517	9.81	2.14581e-07
3	16705	9.91	1.67052e-07
3	16957	10.01	1.25066e-07
3	17149	10.11	8.83794e-08
3	17341	10.21	5.66978e-08
3	17533	10.31	2.96922e-08
3	17725	10.41	7.00453e-09
3	17917	10.51	-1.17325e-08
3	18109	10.61	-2.68933e-08
3	18301	10.71	-3.88482e-08
3	18493	10.81	-4.79581e-08
3	18685	10.91	-5.45704e-08
3	18883	11.01	-5.90177e-08
3	19075	11.11	-6.16069e-08
3	19267	11.21	-6.26265e-08
3	19459	11.31	-6.23395e-08
3	19651	11.41	-6.09859e-08
3	19843	11.51	-5.87811e-08
3	20035	11.61	-5.59183e-08
3	20227	11.71	-5.25674e-08
3	20419	11.81	-4.88761e-08
3	20611	11.91	-4.4971e-08
3	20809	12.01	-4.09599e-08
3	21001	12.11	-3.69354e-08
3	21193	12.21	-3.29713e-08
3	21385	12.31	-2.9128e-08
3	21577	12.41	-2.54531e-08
3	21769	12.51	-2.19821e-08
3	21961	12.61	-1.87399e-08
3	22153	12.71	-1.57428e-08
3	22345	12.81	-1.30029e-08
3	22537	12.91	-1.05217e-08
3	22735	13.01	-8.29772e-09
3	22927	13.11	-6.32454e-09
3	23119	13.21	-4.59224e-09
3	23311	13.31	-3.08802e-09
3	23503	13.41	-1.79838e-09
3	23695	13.51	-7.08411e-10
3	23887	13.61	1.98241e-10
3	24079	13.71	9.37916e-10
3	24271	13.81	1.52767e-09
3	24463	13.91	1.98384e-09
3	24661	14.01	2.32276e-09
3	24853	14.11	2.55937e-09
3	25045	14.21	2.70788e-09
3	25237	14.31	2.78249e-09
3	25429	14.41	2.79243e-09
3	25621	14.51	2.7498e-09
3	25813	14.61	2.66525e-09
3	26005	14.71	2.54872e-09
3	26197	14.81	2.40803e-09
3	26389	14.91	2.24887e-09
3	26587	15.01	2.07763e-09
3	26779	15.11	1.89999e-09
3	26971	15.21	1.72236e-09
3	27163	15.31	1.54472e-09
3	27355	15.41	1.37064e-09
3	27547	15.51	1.20295e-09
3	27739	15.61	1.04379e-09
3	27931	15.71	8.94573e-10
3	28123	15.81	7.56017e-10
3	28315	15.91	6.29541e-10
3	28513	16.01	5.13012e-10
3	28705	16.11	4.09273e-10
3	28897	16.21	3.16902e-10
3	29089	16.31	2.3519e-10
3	29281	16.41	1.63425e-10
3	29473	16.51	1.02318e-10
3	29665	16.61	4.9738e-11
3	29857	16.71	5.68434e-12
3	30049	16.81	-3.05533e-11
3	30241	16.91	-5.8975e-11
3	30439	17.01	-8.10019e-11
3	30631	17.11	-9.80549e-11
3	30823	17.21	-1.11555e-10
3	31015	17.31	-1.18661e-10
3	31207	17.41	-1.23634e-10
3	31399	17.51	-1.23634e-10
3	31591	17.61	-1.23634e-10
3	31783	17.71	-1.21503e-10
3	31975	17.81	-1.14397e-10
3	32167	17.91	-1.07292e-10
3	32365	18.01	-1.00187e-10
3	32557	18.11	-9.30811e-11
3	32749	18.21	-8.59757e-11
3	32941	18.31	-7.88702e-11
3	33133	18.41	-7.17648e-11
3	33325	18.51	-6.46594e-11
3	33517	18.61	-5.7554e-11
3	33709	18.71	-5.04485e-11
3	33901	18.81	-4.33431e-11
3	34093	18.91	-3.62377e-11
3	34291	19.01	-2.91323e-11
3	34483	19.11	-2.20268e-11
3	34675	19.21	-1.7053e-11
3	34867	19.31	-1.49214e-11
3	35059	19.41	-1.35003e-11
3	35251	19.51	-1.27898e-11
3	35443	19.61	-1.13687e-11
3	35635	19.71	-9.9476e-12
3	35827	19.81	-9.23706e-12
3	36019	19.91	-8.52651e-12
3	36217	20.01	-7.81597e-12
3	36409	20.11	-7.10543e-12
3	36601	20.21	-6.39488e-12
3	36793	20.31	-5.68434e-12
3	36985	20.41	-4.9738e-12
3	37177	20.51	-4.26326e-12
3	37369	20.61	-4.26326e-12
3	37561	20.71	-3.55271e-12
3	37753	20.81	-3.55271e-12
3	37945	20.91	-2.84217e-12
3	38143	21.01	-2.84217e-12
3	38335	21.11	-2.84217e-12
3	38527	21.21	-2.13163e-12
3	38719	21.31	-2.13163e-12
3	38911	21.41	-2.13163e-12
3	39103	21.51	-1.42109e-12
3	39295	21.61	-1.42109e-12
3	39487	21.71	-1.42109e-12
3	39679	21.81	-1.42109e-12
3	39871	21.91	-1.42109e-12
3	40069	22.01	-7.10543e-13
3	40261	22.11	-7.10543e-13
3	40453	22.21	-7.10543e-13
3	40645	22.31	-7.10543e-13
3	40837	22.41	-7.10543e-13
3	41029	22.51	-7.10543e-13
3	41221	22.61	-7.10543e-13
3	41413	22.71	-7.10543e-13
3	41605	22.81	-7.10543e-13
3	41797	22.91	-7.10543e-13
3	41995	23.01	0
3	42187	23.11	0
3	42379	23.21	0
3	42571	23.31	0
3	42763	23.41	0
3	42955	23.51	0
3	43147	23.61	0
3	43339	23.71	0
3	43531	23.81	0
3	43723	23.91	0
3	43921	24.01	0
3	44113	24.11	0
3	44305	24.21	0
3	44497	24.31	0
3	44689	24.41	0
3	44881	24.51	0
3	45073	24.61	0
3	45265	24.71	0
3	45457	24.81	0
3	45649	24.91	0
3	45847	25.01	0
3	46039	25.11	0
3	46231	25.21	0
3	46423	25.31	0
3	46615	25.41	0
3	46807	25.51	0
3	46999	25.61	0
3	47191	25.71	0
3	47383	25.81	0
3	47575	25.91	0
3	47773	26.01	0
3	47965	26.11	0
3	48157	26.21	0
3	48349	26.31	0
3	48541	26.41	0
3	48733	26.51	0
3	48925	26.61	0
3	49117	26.71	0
3	49309	26.81	0
3	49501	26.91	0
3	49699	27.01	0
3	49891	27.11	0
3	50083	27.21	0
3	50275	27.31	0
3	50467	27.41	0
3	50659	27.51	0
3	50851	27.61	0
3	51043	27.71	0
3	51235	27.81	0
3	51427	27.91	0
3	51625	28.01	0
3	51817	28.11	0
3	52009	28.21	0
3	52201	28.31	0
3	52393	28.41	0
3	52585	28.51	0
3	52777	28.61	0
3	52969	28.71	0
3	53161	28.81	0
3	53353	28.91	0
3	53551	29.01	0
3	53743	29.11	0
3	53935	29.21	0
3	54127	29.31	0
3	54319	29.41	0
3	54511	29.51	0
3	54703	29.61	0
3	54895	29.71	0
3	55087	29.81	0
3	55279	29.91	0
3	55477	30.01	0
3	55669	30.11	0
3	55861	30.21	0
3	56053	30.31	0
3	56245	30.41	0
3	56437	30.51	0
3	56629	30.61	0
3	56821	30.71	0
3	57013	30.81	0
3	57205	30.91	0
3	57403	31.01	0
3	57595	31.11	0
3	57787	31.21	0
3	57979	31.31	0
3	58171	31.41	0
3	58363	31.51	0
3	58555	31.61	0
3	58747	31.71	0
3	58939	31.81	0
3	59131	31.91	0
3	59329	32.01	0
3	59521	32.11	0
3	59713	32.21	0
3	59905	32.31	0
3	60097	32.41	0
3	60289	32.51	0
3	60481	32.61	0
3	60673	32.71	0
3	60865	32.81	0
3	61057	32.91	0
3	61255	33.01	0
3	61447	33.11	0
3	61639	33.21	0
3	61831	33.31	0
3	62023	33.41	0
3	62215	33.51	0
3	62407	33.61	0
3	62599	33.71	0
3	62791	33.81	0
3	62983	33.91	0
3	63181	34.01	0
3	63373	34.11	0
3	63565	34.21	0
3	63757	34.31	0
3	63949	34.41	0
3	64141	34.51	0
3	64333	34.61	0
3	64525	34.71	0
3	64717	34.81	0
3	64909	34.91	0
3	65107	35.01	0
3	65299	35.11	0
3	65491	35.21	0
3	65683	35.31	0
3	65875	35.41	0
3	66067	35.51	0
3	66259	35.61	0
3	66451	35.71	0
3	66643	35.81	0
3	66835	35.91	0
3	67033	36.01	0
3	67225	36.11	0
3	67417	36.21	0
3	67609	36.31	0
3	67854	36.41	0
3	68045	36.51	0
3	68236	36.61	0
3	68427	36.71	0
3	68618	36.81	0
3	68809	36.91	0
3	69006	37.01	0
3	69197	37.11	0
3	69388	37.21	0
3	69579	37.31	0
3	69770	37.41	0
3	69961	37.51	0
3	70152	37.61	0
3	70343	37.71	0
3	70534	37.81	0
3	70725	37.91	0
3	70922	38.01	0
3	71113	38.11	0
3	71304	38.21	0
3	71495	38.31	0
3	71686	38.41	0
3	71877	38.51	0
3	72068	38.61	0
3	72259	38.71	0
3	72450	38.81	0
3	72641	38.91	0
3	72838	39.01	0
3	73029	39.11	0
3	73220	39.21	0
3	73411	39.31	0
3	73602	39.41	0
3	73793	39.51	0
3	73984	39.61	0
3	74175	39.71	0
3	74366	39.81	0
3	74557	39.91	0
3	74754	40.01	0
3	74945	40.11	0
3	75136	40.21	0
3	75327	40.31	0
3	75518	40.41	0
3	75709	40.51	0
3	75900	40.61	0
3	76091	40.71	0
3	76282	40.81	0
3	76473	40.91	0
3	76670	41.01	0
3	76861	41.11	0
3	77052	41.21	0
3	77243	41.31	0
3	77434	41.41	0
3	77678	41.51	0
3	77868	41.61	0
3	78058	41.71	0
3	78248	41.81	0
3	78438	41.91	0
3	78634	42.01	0
3	78824	42.11	0
3	79014	42.21	0
3	79204	42.31	0
3	79394	42.41	0
3	79584	42.51	0
3	79774	42.61	0
3	79964	42.71	0
3	80154	42.81	0
3	80344	42.91	0
3	80540	43.01	0
3	80730	43.11	0
3	80920	43.21	0
3	81110	43.31	0
3	81300	43.41	0
3	81490	43.51	0
3	81680	43.61	0
3	81870	43.71	0
3	82060	43.81	0
3	82250	43.91	0
3	82446	44.01	0
3	82636	44.11	0
3	82826	44.21	0
3	83016	44.31	0
3	83206	44.41	0
3	83396	44.51	0
3	83586	44.61	0
3	83776	44.71	0
3	83966	44.81	0
3	84156	44.91	0
3	84352	45.01	0
3	84542	45.11	0
3	84732	45.21	0
3	84922	45.31	0
3	85112	45.41	0
3	85302	45.51	0
3	85492	45.61	0
3	85682	45.71	0
3	85938	45.81	0
3	86127	45.91	0
3	86322	46.01	0
3	86511	46.11	0
3	86912	46.21	0
3	87100	46.31	0
3	87288	46.41	0
3	87476	46.51	0
3	87664	46.61	0
3	87852	46.71	0
3	88040	46.81	0
3	88228	46.91	0
3	88422	47.01	0
3	88610	47.11	0
3	88798	47.21	0
3	88986	47.31	0
3	89174	47.41	0
3	89362	47.51	0
3	89550	47.61	0
3	89738	47.71	0
3	89926	47.81	0
3	90114	47.91	0
3	90308	48.01	0
3	90496	48.11	0
3	90684	48.21	0
3	90872	48.31	0
3	91060	48.41	0
3	91248	48.51	0
3	91436	48.61	0
3	91624	48.71	0
3	91812	48.81	0
3	92000	48.91	0
3	92194	49.01	0
3	92382	49.11	0
3	92570	49.21	0
3	92758	49.31	0
3	92946	49.41	0
3	93134	49.51	0
3	93322	49.61	0
3	93510	49.71	0
3	93698	49.81	0
3	93886	49.91	0
3	94080	50.01	0
3	94268	50.11	0
3	94456	50.21	0
3	94644	50.31	0
3	94832	50.41	0
3	95020	50.51	0
3	95208	50.61	0
3	95396	50.71	0
3	95584	50.81	0
3	95772	50.91	0
3	95966	51.01	0
3	96154	51.11	0
3	96342	51.21	0
3	96530	51.31	0
3	96718	51.41	0
3	96906	51.51	0
3	97094	51.61	0
3	97282	51.71	0
3	97470	51.81	0
3	97658	51.91	0
3	97852	52.01	0
3	98040	52.11	0
3	98228	52.21	0
3	98416	52.31	0
3	98604	52.41	0
3	98792	52.51	0
3	98980	52.61	0
3	99168	52.71	0
3	99356	52.81	0
3	99544	52.91	0
3	99738	53.01	0
3	99926	53.11	0
3	100114	53.21	0
3	100302	53.31	0
3	100490	53.41	0
3	100678	53.51	0
3	100866	53.61	0
3	101054	53.71	0
3	101242	53.81	0
3	101430	53.91	0
3	101624	54.01	0
3	101812	54.11	0
3	102000	54.21	0
3	102188	54.31	0
3	102376	54.41	0
3	102564	54.51	0
3	102752	54.61	0
3	102940	54.71	0
3	103128	54.81	0
3	103316	54.91	0
3	103510	55.01	0
3	103698	55.11	0
3	103886	55.21	0
3	104074	55.31	0
3	104262	55.41	0
3	104450	55.51	0
3	104638	55.61	0
3	104826	55.71	0
3	105014	55.81	0
3	105202	55.91	0
3	105396	56.01	0
3	105584	56.11	0
3	105772	56.21	0
3	105960	56.31	0
3	106148	56.41	0
3	106336	56.51	0
3	106524	56.61	0
3	106712	56.71	0
3	106900	56.81	0
3	107088	56.91	0
3	107282	57.01	0
3	107470	57.11	0
3	107658	57.21	0
3	107846	57.31	0
3	108034	57.41	0
3	108222	57.51	0
3	108410	57.61	0
3	108598	57.71	0
3	108786	57.81	0
3	108974	57.91	0
3	109168	58.01	0
3	109356	58.11	0
3	109544	58.21	0
3	109732	58.31	0
3	109920	58.41	0
3	110108	58.51	0
3	110296	58.61	0
3	110484	58.71	0
3	110672	58.81	0
3	110860	58.91	0
3	111054	59.01	0
3	111242	59.11	0
3	111430	59.21	0
3	111618	59.31	0
3	111806	59.41	0
3	111994	59.51	0
3	112182	59.61	0
3	112370	59.71	0
3	112558	59.81	0
3	112746	59.91	0
3	112940	60.01	0
3	113128	60.11	0
3	113316	60.21	0
3	113504	60.31	0
3	113692	60.41	0
3	113880	60.51	0
3	114068	60.61	0
3	114256	60.71	0
3	114444	60.81	0
3	114632	60.91	0
3	114826	61.01	0
3	115014	61.11	0
3	115202	61.21	0
3	115390	61.31	0
3	115578	61.41	0
3	115766	61.51	0
3	115954	61.61	0
3	116142	61.71	0
3	116330	61.81	0
3	116518	61.91	0
3	116712	62.01	0
3	116900	62.11	0
3	117088	62.21	0
3	117276	62.31	0
3	117464	62.41	0
3	117652	62.51	0
3	117840	62.61	0
3	118028	62.71	0
3	118216	62.81	0
3	118404	62.91	0
3	118598	63.01	0
3	118786	63.11	0
3	118974	63.21	0
3	119162	63.31	0
3	119350	63.41	0
3	119538	63.51	0
3	119726	63.61	0
3	119914	63.71	0
3	120102	63.81	0
3	120290	63.91	0
3	120484	64.01	0
3	120672	64.11	0
3	120860	64.21	0
3	121048	64.31	0
3	121236	64.41	0
3	121424	64.51	0
3	121612	64.61	0
3	121800	64.71	0
3	121988	64.81	0
3	122176	64.91	0
3	122370	65.01	0
3	122558	65.11	0
3	122746	65.21	0
3	122934	65.31	0
3	123122	65.41	0
3	123310	65.51	0
3	123498	65.61	0
3	123686	65.71	0
3	123874	65.81	0
3	124062	65.91	0
3	124256	66.01	0
3	124444	66.11	0
3	124632	66.21	0
3	124820	66.31	0
3	125008	66.41	0
3	125196	66.51	0
3	125384	66.61	0
3	125572	66.71	0
3	125760	66.81	0
3	125948	66.91	0
3	126142	67.01	0
3	126330	67.11	0
3	126518	67.21	0
3	126706	67.31	0
3	126894	67.41	0
3	127082	67.51	0
3	127270	67.61	0
3	127458	67.71	0
3	127646	67.81	0
3	127834	67.91	0
3	128028	68.01	0
3	128216	68.11	0
3	128404	68.21	0
3	128592	68.31	0
3	128780	68.41	0
3	128968	68.51	0
3	129156	68.61	0
3	129344	68.71	0
3	129532	68.81	0
3	129720	68.91	0
3	129914	69.01	0
3	130102	69.11	0
3	130290	69.21	0
3	130478	69.31	0
3	130666	69.41	0
3	130854	69.51	0
3	131042	69.61	0
3	131230	69.71	0
3	131418	69.81	0
3	131606	69.91	0
3	131800	70.01	0
3	131988	70.11	0
3	132176	70.21	0
3	132364	70.31	0
3	132552	70.41	0
3	132740	70.51	0
3	132928	70.61	0
3	133116	70.71	0
3	133304	70.81	0
3	133492	70.91	0
3	133686	71.01	0
3	133874	71.11	0
3	134062	71.21	0
3	134250	71.31	0
3	134438	71.41	0
3	134626	71.51	0
3	134814	71.61	0
3	135002	71.71	0
3	135190	71.81	0
3	135378	71.91	0
3	135572	72.01	0
3	135760	72.11	0
3	135948	72.21	0
3	136136	72.31	0
3	136324	72.41	0
3	136512	72.51	0
3	136700	72.61	0
3	136888	72.71	0
3	137076	72.81	0
3	137264	72.91	0
3	137458	73.01	0
3	137646	73.11	0
3	137834	73.21	0
3	138022	73.31	0
3	138210	73.41	0
3	138398	73.51	0
3	138586	73.61	0
3	138774	73.71	0
3	138962	73.81	0
3	139150	73.91	0
3	139344	74.01	0
3	139532	74.11	0
3	139720	74.21	0
3	139908	74.31	0
3	140096	74.41	0
3	140284	74.51	0
3	140472	74.61	0
3	140660	74.71	0
3	140848	74.81	0
3	141036	74.91	0
3	141230	75.01	0
3	141418	75.11	0
3	141606	75.21	0
3	141794	75.31	0
3	141982	75.41	0
3	142170	75.51	0
3	142358	75.61	0
3	142546	75.71	0
3	142734	75.81	0
3	142922	75.91	0
3	143116	76.01	0
3	143304	76.11	0
3	143492	76.21	0
3	143680	76.31	0
3	143868	76.41	0
3	144056	76.51	0
3	144244	76.61	0
3	144432	76.71	0
3	144620	76.81	0
3	144808	76.91	0
3	145002	77.01	0
3	145190	77.11	0
3	145378	77.21	0
3	145566	77.31	0
3	145754	77.41	0
3	145942	77.51	0
3	146130	77.61	0
3	146318	77.71	0
3	146506	77.81	0
3	146694	77.91	0
3	146888	78.01	0
3	147076	78.11	0
3	147264	78.21	0
3	147452	78.31	0
3	147640	78.41	0
3	147828	78.51	0
3	148016	78.61	0
3	148204	78.71	0
3	148392	78.81	0
3	148580	78.91	0
3	148774	79.01	0
3	148962	79.11	0
3	149150	79.21	0
3	149338	79.31	0
3	149526	79.41	0
3	149714	79.51	0
3	149902	79.61	0
3	150090	79.71	0
3	150278	79.81	0
3	150466	79.91	0
3	150660	80.01	0
3	150848	80.11	0
3	151036	80.21	0
3	151224	80.31	0
3	151412	80.41	0
3	151600	80.51	0
3	151788	80.61	0
3	151976	80.71	0
3	152164	80.81	0
3	152352	80.91	0
3	152546	81.01	0
3	152734	81.11	0
3	152922	81.21	0
3	153110	81.31	0
3	153298	81.41	0
3	153486	81.51	0
3	153674	81.61	0
3	153862	81.71	0
3	154050	81.81	0
3	154238	81.91	0
3	154432	82.01	0
3	154620	82.11	0
3	154808	82.21	0
3	154996	82.31	0
3	155184	82.41	0
3	155372	82.51	0
3	155560	82.61	0
3	155748	82.71	0
3	155936	82.81	0
3	156124	82.91	0
3	156318	83.01	0
3	156506	83.11	0
3	156694	83.21	0
3	156882	83.31	0
3	157070	83.41	0
3	157258	83.51	0
3	157446	83.61	0
3	157634	83.71	0
3	157822	83.81	0
3	158010	83.91	0
3	158204	84.01	0
3	158392	84.11	0
3	158580	84.21	0
3	158768	84.31	0
3	158956	84.41	0
3	159144	84.51	0
3	159332	84.61	0
3	159520	84.71	0
3	159708	84.81	0
3	159896	84.91	0
3	160090	85.01	0
3	160278	85.11	0
3	160466	85.21	0
3	160654	85.31	0
3	160842	85.41	0
3	161030	85.51	0
3	161218	85.61	0
3	161406	85.71	0
3	161594	85.81	0
3	161782	85.91	0
3	161976	86.01	0
3	162164	86.11	0
3	162352	86.21	0
3	162540	86.31	0
3	162728	86.41	0
3	162916	86.51	0
3	163104	86.61	0
3	163292	86.71	0
3	163480	86.81	0
3	163668	86.91	0
3	163862	87.01	0
3	164050	87.11	0
3	164238	87.21	0
3	164426	87.31	0
3	164614	87.41	0
3	164802	87.51	0
3	164990	87.61	0
3	165178	87.71	0
3	165366	87.81	0
3	165554	87.91	0
3	165748	88.01	0
3	165936	88.11	0
3	166124	88.21	0
3	166312	88.31	0
3	166500	88.41	0
3	166688	88.51	0
3	166876	88.61	0
3	167064	88.71	0
3	167252	88.81	0
3	167440	88.91	0
3	167634	89.01	0
3	167822	89.11	0
3	168010	89.21	0
3	168198	89.31	0
3	168386	89.41	0
3	168574	89.51	0
3	168762	89.61	0
3	168950	89.71	0
3	169138	89.81	0
3	169326	89.91	0
3	169520	90.01	0
3	169708	90.11	0
3	169896	90.21	0
3	170084	90.31	0
3	170272	90.41	0
3	170460	90.51	0
3	170648	90.61	0
3	170836	90.71	0
3	171024	90.81	0
3	171212	90.91	0
3	171406	91.01	0
3	171594	91.11	0
3	171782	91.21	0
3	171970	91.31	0
3	172158	91.41	0
3	172346	91.51	0
3	172534	91.61	0
3	172722	91.71	0
3	172910	91.81	0
3	173098	91.91	0
3	173292	92.01	0
3	173480	92.11	0
3	173668	92.21	0
3	173856	92.31	0
3	174044	92.41	0
3	174232	92.51	0
3	174420	92.61	0
3	174608	92.71	0
3	174796	92.81	0
3	174984	92.91	0
3	175178	93.01	0
3	175366	93.11	0
3	175554	93.21	0
3	175742	93.31	0
3	175930	93.41	0
3	176118	93.51	0
3	176306	93.61	0
3	176494	93.71	0
3	176682	93.81	0
3	176870	93.91	0
3	177064	94.01	0
3	177252	94.11	0
3	177440	94.21	0
3	177628	94.31	0
3	177816	94.41	0
3	178004	94.51	0
3	178192	94.61	0
3	178380	94.71	0
3	178568	94.81	0
3	178756	94.91	0
3	178950	95.01	0
3	179138	95.11	0
3	179326	95.21	0
3	179514	95.31	0
3	179702	95.41	0
3	179890	95.51	0
3	180078	95.61	0
3	180266	95.71	0
3	180454	95.81	0
3	180642	95.91	0
3	180836	96.01	0
3	181024	96.11	0
3	181212	96.21	0
3	181400	96.31	0
3	181588	96.41	0
3	181776	96.51	0
3	181964	96.61	0
3	182152	96.71	0
3	182340	96.81	0
3	182528	96.91	0
3	182722	97.01	0
3	182910	97.11	0
3	183098	97.21	0
3	183286	97.31	0
3	183474	97.41	0
3	183662	97.51	0
3	183850	97.61	0
3	184038	97.71	0
3	184226	97.81	0
3	184414	97.91	0
3	184608	98.01	0
3	184796	98.11	0
3	184984	98.21	0
3	185172	98.31	0
3	185360	98.41	0
3	185548	98.51	0
3	185736	98.61	0
3	185924	98.71	0
3	186112	98.81	0
3	186300	98.91	0
3	186494	99.01	0
3	186682	99.11	0
3	186870	99.21	0
3	187058	99.31	0
3	187246	99.41	0
3	187434	99.51	0
3	187622	99.61	0
3	187810	99.71	0
3	187998	99.81	0
3	188186	99.91	0
4	113	1.11	0.00109259
4	301	1.21	0.00106709
4	489	1.31	0.00102704
4	677	1.41	0.000975759
4	865	1.51	0.00091619
4	1053	1.61	0.000850891
4	1241	1.71	0.000782061
4	1429	1.81	0.00071157
4	1617	1.91	0.00064098
4	1811	2.01	0.000571575
4	1999	2.11	0.000504387
4	2187	2.21	0.000440223
4	2375	2.31	0.000379691
4	2563	2.41	0.000323223
4	2751	2.51	0.000271102
4	2939	2.61	0.000223482
4	3127	2.71	0.000180409
4	3315	2.81	0.000141839
4	3503	2.91	0.000107653
4	3697	3.01	7.76787e-05
4	3885	3.11	5.16957e-05
4	4073	3.21	2.94534e-05
4	4261	3.31	1.06787e-05
4	4449	3.41	-4.91459e-06
4	4637	3.51	-1.76184e-05
4	4825	3.61	-2.7724e-05
4	5013	3.71	-3.55168e-05
4	5201	3.81	-4.12726e-05
4	5389	3.91	-4.52541e-05
4	5583	4.01	-4.77086e-05
4	5771	4.11	-4.88665e-05
4	5959	4.21	-4.89399e-05
4	6147	4.31	-4.81224e-05
4	6335	4.41	-4.65886e-05
4	6523	4.51	-4.44947e-05
4	6711	4.61	-4.1979e-05
4	6899	4.71	-3.91623e-05
4	7087	4.81	-3.61492e-05
4	7275	4.91	-3.3029e-05
4	7469	5.01	-2.9877e-05
4	7657	5.11	-2.67554e-05
4	7845	5.21	-2.37147e-05
4	8033	5.31	-2.07949e-05
4	8221	5.41	-1.80267e-05
4	8409	5.51	-1.54325e-05
4	8597	5.61	-1.30275e-05
4	8785	5.71	-1.0821e-05
4	8973	5.81	-8.81673e-06
4	9161	5.91	-7.01443e-06
4	9355	6.01	-5.4101e-06
4	9543	6.11	-3.99696e-06
4	9731	6.21	-2.766e-06
4	9919	6.31	-1.70658e-06
4	10107	6.41	-8.06872e-07
4	10295	6.51	-5.43281e-08
4	10483	6.61	5.63994e-07
4	10671	6.71	1.06112e-06
4	10859	6.81	1.4499e-06
4	11047	6.91	1.74283e-06
4	11241	7.01	1.95188e-06
4	11429	7.11	2.08836e-06
4	11617	7.21	2.16287e-06
4	11805	7.31	2.1852e-06
4	11993	7.41	2.16432e-06
4	12181	7.51	2.10838e-06
4	12369	7.61	2.02467e-06
4	12557	7.71	1.91968e-06
4	12745	7.81	1.79913e-06
4	12933	7.91	1.66796e-06
4	13127	8.01	1.53044e-06
4	13315	8.11	1.39018e-06
4	13503	8.21	1.25018e-06
4	13691	8.31	1.11291e-06
4	13879	8.41	9.80339e-07
4	14067	8.51	8.54002e-07
4	14255	8.61	7.35044e-07
4	14443	8.71	6.24274e-07
4	14631	8.81	5.22206e-07
4	14819	8.91	4.2911e-07
4	15013	9.01	3.45041e-07
4	15201	9.11	2.69888e-07
4	15389	9.21	2.03394e-07
4	15577	9.31	1.45199e-07
4	15765	9.41	9.48539e-08
4	15953	9.51	5.18526e-08
4	16141	9.61	1.56462e-08
4	16329	9.71	-1.43366e-08
4	16517	9.81	-3.86756e-08
4	16705	9.91	-5.79483e-08
4	16957	10.01	-7.27191e-08
4	17149	10.11	-8.35328e-08
4	17341	10.21	-9.09047e-08
4	17533	10.31	-9.53222e-08
4	17725	10.41	-9.72364e-08
[...]
69	124198	66	0
69	126084	67	0
69	127970	68	0
69	129856	69	0
69	131742	70	0
69	133628	71	0
69	135514	72	0
69	137400	73	0
69	139286	74	0
69	141172	75	0
69	143058	76	0
69	144944	77	0
69	146830	78	0
69	148716	79	0
69	150602	80	0
69	152488	81	0
69	154374	82	0
69	156260	83	0
69	158146	84	0
69	160032	85	0
69	161918	86	0
69	163804	87	0
69	165690	88	0
69	167576	89	0
69	169462	90	0
69	171348	91	0
69	173234	92	0
69	175120	93	0
69	177006	94	0
69	178892	95	0
69	180778	96	0
69	182664	97	0
69	184550	98	0
69	186436	99	0
69	188322	100	0
70	1754	2	2
70	3640	3	2
70	5526	4	2
70	7412	5	2
70	9298	6	2
70	11184	7	2
70	13070	8	2
70	14956	9	2
70	16844	10	2
70	18822	11	2
70	20748	12	2
70	22674	13	2
70	24600	14	2
70	26526	15	2
70	28452	16	2
70	30378	17	2
70	32304	18	2
70	34230	19	2
70	36156	20	2
70	38082	21	2
70	40008	22	2
70	41934	23	2
70	43860	24	2
70	45786	25	2
70	47712	26	2
70	49638	27	2
70	51564	28	2
70	53490	29	2
70	55416	30	2
70	57342	31	2
70	59268	32	2
70	61194	33	2
70	63120	34	2
70	65046	35	2
70	66972	36	2
70	68946	37	2
70	70862	38	2
70	72778	39	2
70	74694	40	2
70	76610	41	2
70	78575	42	2
70	80481	43	2
70	82387	44	2
70	84293	45	2
70	86264	46	2
70	88365	47	2
70	90251	48	2
70	92137	49	2
70	94023	50	2
70	95909	51	2
70	97795	52	2
70	99681	53	2
70	101567	54	2
70	103453	55	2
70	105339	56	2
70	107225	57	2
70	109111	58	2
70	110997	59	2
70	112883	60	2
70	114769	61	2
70	116655	62	2
70	118541	63	2
70	120427	64	2
70	122313	65	2
70	124199	66	2
70	126085	67	2
70	127971	68	2
70	129857	69	2
70	131743	70	2
70	133629	71	2
70	135515	72	2
70	137401	73	2
70	139287	74	2
70	141173	75	2
70	143059	76	2
70	144945	77	2
70	146831	78	2
70	148717	79	2
70	150603	80	2
70	152489	81	2
70	154375	82	2
70	156261	83	2
70	158147	84	2
70	160033	85	2
70	161919	86	2
70	163805	87	2
70	165691	88	2
70	167577	89	2
70	169463	90	2
70	171349	91	2
70	173235	92	2
70	175121	93	2
70	177007	94	2
70	178893	95	2
70	180779	96	2
70	182665	97	2
70	184551	98	2
70	186437	99	2
70	188323	100	2
71	1754	2	0.010929
71	3640	3	0.01249
71	5526	4	0.01249
71	7412	5	0.01249
71	9298	6	0.01249
71	11184	7	0.01249
71	13070	8	0.01249
71	14956	9	0.01249
71	16844	10	0.01249
71	18822	11	0.012538
71	20748	12	0.01249
71	22674	13	0.01249
71	24600	14	0.01249
71	26526	15	0.01249
71	28452	16	0.01249
71	30378	17	0.01249
71	32304	18	0.01249
71	34230	19	0.01249
71	36156	20	0.01249
71	38082	21	0.01249
71	40008	22	0.01249
71	41934	23	0.01249
71	43860	24	0.01249
71	45786	25	0.01249
71	47712	26	0.01249
71	49638	27	0.01249
71	51564	28	0.01249
71	53490	29	0.01249
71	55416	30	0.01249
71	57342	31	0.01249
71	59268	32	0.01249
71	61194	33	0.01249
71	63120	34	0.01249
71	65046	35	0.01249
71	66972	36	0.01249
71	68946	37	0.012602
71	70862	38	0.01249
71	72778	39	0.01249
71	74694	40	0.01249
71	76610	41	0.01249
71	78575	42	0.01263511912
71	80481	43	0.01249
71	82387	44	0.01249
71	84293	45	0.01249
71	86264	46	0.01249
71	88365	47	0.01297
71	90251	48	0.01249
71	92137	49	0.01249
71	94023	50	0.01249
71	95909	51	0.01249
71	97795	52	0.01249
71	99681	53	0.01249
71	101567	54	0.01249
71	103453	55	0.01249
71	105339	56	0.01249
71	107225	57	0.01249
71	109111	58	0.01249
71	110997	59	0.01249
71	112883	60	0.01249
71	114769	61	0.01249
71	116655	62	0.01249
71	118541	63	0.01249
71	120427	64	0.01249
71	122313	65	0.01249
71	124199	66	0.01249
71	126085	67	0.01249
71	127971	68	0.01249
71	129857	69	0.01249
71	131743	70	0.01249
71	133629	71	0.01249
71	135515	72	0.01249
71	137401	73	0.01249
71	139287	74	0.01249
71	141173	75	0.01249
71	143059	76	0.01249
71	144945	77	0.01249
71	146831	78	0.01249
71	148717	79	0.01249
71	150603	80	0.01249
71	152489	81	0.01249
71	154375	82	0.01249
71	156261	83	0.01249
71	158147	84	0.01249
71	160033	85	0.01249
71	161919	86	0.01249
71	163805	87	0.01249
71	165691	88	0.01249
71	167577	89	0.01249
71	169463	90	0.01249
71	171349	91	0.01249
71	173235	92	0.01249
71	175121	93	0.01249
71	177007	94	0.01249
71	178893	95	0.01249
71	180779	96	0.01249
71	182665	97	0.01249
71	184551	98	0.01249
71	186437	99	0.01249
71	188323	100	0.01249
72	1754	2	0
72	3640	3	0
72	5526	4	0
72	7412	5	0
72	9298	6	0
72	11184	7	0
72	13070	8	0
72	14956	9	0
72	16844	10	0
72	18822	11	0
72	20748	12	0
72	22674	13	0
72	24600	14	0
72	26526	15	0
72	28452	16	0
72	30378	17	0
72	32304	18	0
72	34230	19	0
72	36156	20	0
72	38082	21	0
72	40008	22	0
72	41934	23	0
72	43860	24	0
72	45786	25	0
72	47712	26	0
72	49638	27	0
72	51564	28	0
72	53490	29	0
72	55416	30	0
72	57342	31	0
72	59268	32	0
72	61194	33	0
72	63120	34	0
72	65046	35	0
72	66972	36	0
72	68946	37	0
72	70862	38	0
72	72778	39	0
72	74694	40	0
72	76610	41	0
72	78575	42	0
72	80481	43	0
72	82387	44	0
72	84293	45	0
72	86264	46	0
72	88365	47	0
72	90251	48	0
72	92137	49	0
72	94023	50	0
72	95909	51	0
72	97795	52	0
72	99681	53	0
72	101567	54	0
72	103453	55	0
72	105339	56	0
72	107225	57	0
72	109111	58	0
72	110997	59	0
72	112883	60	0
72	114769	61	0
72	116655	62	0
72	118541	63	0
72	120427	64	0
72	122313	65	0
72	124199	66	0
72	126085	67	0
72	127971	68	0
72	129857	69	0
72	131743	70	0
72	133629	71	0
72	135515	72	0
72	137401	73	0
72	139287	74	0
72	141173	75	0
72	143059	76	0
72	144945	77	0
72	146831	78	0
72	148717	79	0
72	150603	80	0
72	152489	81	0
72	154375	82	0
72	156261	83	0
72	158147	84	0
72	160033	85	0
72	161919	86	0
72	163805	87	0
72	165691	88	0
72	167577	89	0
72	169463	90	0
72	171349	91	0
72	173235	92	0
72	175121	93	0
72	177007	94	0
72	178893	95	0
72	180779	96	0
72	182665	97	0
72	184551	98	0
72	186437	99	0
72	188323	100	0
73	1755	2	3
73	3641	3	3
73	5527	4	3
73	7413	5	3
73	9299	6	3
73	11185	7	3
73	13071	8	3
73	14957	9	3
73	16845	10	3
73	18823	11	3
73	20749	12	3
73	22675	13	3
73	24601	14	3
73	26527	15	3
73	28453	16	3
73	30379	17	3
73	32305	18	3
73	34231	19	3
73	36157	20	3
73	38083	21	3
73	40009	22	3
73	41935	23	3
73	43861	24	3
73	45787	25	3
73	47713	26	3
73	49639	27	3
73	51565	28	3
73	53491	29	3
73	55417	30	3
73	57343	31	3
73	59269	32	3
73	61195	33	3
73	63121	34	3
73	65047	35	3
73	66973	36	3
73	68947	37	3
73	70863	38	3
73	72779	39	3
73	74695	40	3
73	76611	41	3
73	78576	42	3
73	80482	43	3
73	82388	44	3
73	84294	45	3
73	86265	46	3
73	88366	47	3
73	90252	48	3
73	92138	49	3
73	94024	50	3
73	95910	51	3
73	97796	52	3
73	99682	53	3
73	101568	54	3
73	103454	55	3
73	105340	56	3
73	107226	57	3
73	109112	58	3
73	110998	59	3
73	112884	60	3
73	114770	61	3
73	116656	62	3
73	118542	63	3
73	120428	64	3
73	122314	65	3
73	124200	66	3
73	126086	67	3
73	127972	68	3
73	129858	69	3
73	131744	70	3
73	133630	71	3
73	135516	72	3
73	137402	73	3
73	139288	74	3
73	141174	75	3
73	143060	76	3
73	144946	77	3
73	146832	78	3
73	148718	79	3
73	150604	80	3
73	152490	81	3
73	154376	82	3
73	156262	83	3
73	158148	84	3
73	160034	85	3
73	161920	86	3
73	163806	87	3
73	165692	88	3
73	167578	89	3
73	169464	90	3
73	171350	91	3
73	173236	92	3
73	175122	93	3
73	177008	94	3
73	178894	95	3
73	180780	96	3
73	182666	97	3
73	184552	98	3
73	186438	99	3
73	188324	100	3
74	1755	2	0.010928
74	3641	3	0.01249
74	5527	4	0.01249
74	7413	5	0.01249
74	9299	6	0.01249
74	11185	7	0.01249
74	13071	8	0.01249
74	14957	9	0.01249
74	16845	10	0.01249
74	18823	11	0.012538
74	20749	12	0.01249
74	22675	13	0.01249
74	24601	14	0.01249
74	26527	15	0.01249
74	28453	16	0.01249
74	30379	17	0.01249
74	32305	18	0.01249
74	34231	19	0.01249
74	36157	20	0.01249
74	38083	21	0.01249
74	40009	22	0.01249
74	41935	23	0.01249
74	43861	24	0.01249
74	45787	25	0.01249
74	47713	26	0.01249
74	49639	27	0.01249
74	51565	28	0.01249
74	53491	29	0.01249
74	55417	30	0.01249
74	57343	31	0.01249
74	59269	32	0.01249
74	61195	33	0.01249
74	63121	34	0.01249
74	65047	35	0.01249
74	66973	36	0.01249
74	68947	37	0.012602
74	70863	38	0.01249
74	72779	39	0.01249
74	74695	40	0.01249
74	76611	41	0.01249
74	78576	42	0.012602
74	80482	43	0.01249
74	82388	44	0.01249
74	84294	45	0.01249
74	86265	46	0.01249
74	88366	47	0.013003178974
74	90252	48	0.01249
74	92138	49	0.01249
74	94024	50	0.01249
74	95910	51	0.01249
74	97796	52	0.01249
74	99682	53	0.01249
74	101568	54	0.01249
74	103454	55	0.01249
74	105340	56	0.01249
74	107226	57	0.01249
74	109112	58	0.01249
74	110998	59	0.01249
74	112884	60	0.01249
74	114770	61	0.01249
74	116656	62	0.01249
74	118542	63	0.01249
74	120428	64	0.01249
74	122314	65	0.01249
74	124200	66	0.01249
74	126086	67	0.01249
74	127972	68	0.01249
74	129858	69	0.01249
74	131744	70	0.01249
74	133630	71	0.01249
74	135516	72	0.01249
74	137402	73	0.01249
74	139288	74	0.01249
74	141174	75	0.01249
74	143060	76	0.01249
74	144946	77	0.01249
74	146832	78	0.01249
74	148718	79	0.01249
74	150604	80	0.01249
74	152490	81	0.01249
74	154376	82	0.01249
74	156262	83	0.01249
74	158148	84	0.01249
74	160034	85	0.01249
74	161920	86	0.01249
74	163806	87	0.01249
74	165692	88	0.01249
74	167578	89	0.01249
74	169464	90	0.01249
74	171350	91	0.01249
74	173236	92	0.01249
74	175122	93	0.01249
74	177008	94	0.01249
74	178894	95	0.01249
74	180780	96	0.01249
74	182666	97	0.01249
74	184552	98	0.01249
74	186438	99	0.01249
74	188324	100	0.01249
75	1755	2	0
75	3641	3	0
75	5527	4	0
75	7413	5	0
75	9299	6	0
75	11185	7	0
75	13071	8	0
75	14957	9	0
75	16845	10	0
75	18823	11	0
75	20749	12	0
75	22675	13	0
75	24601	14	0
75	26527	15	0
75	28453	16	0
75	30379	17	0
75	32305	18	0
75	34231	19	0
75	36157	20	0
75	38083	21	0
75	40009	22	0
75	41935	23	0
75	43861	24	0
75	45787	25	0
75	47713	26	0
75	49639	27	0
75	51565	28	0
75	53491	29	0
75	55417	30	0
75	57343	31	0
75	59269	32	0
75	61195	33	0
75	63121	34	0
75	65047	35	0
75	66973	36	0
75	68947	37	0
75	70863	38	0
75	72779	39	0
75	74695	40	0
75	76611	41	0
75	78576	42	0
75	80482	43	0
75	82388	44	0
75	84294	45	0
75	86265	46	0
75	88366	47	0
75	90252	48	0
75	92138	49	0
75	94024	50	0
75	95910	51	0
75	97796	52	0
75	99682	53	0
75	101568	54	0
75	103454	55	0
75	105340	56	0
75	107226	57	0
75	109112	58	0
75	110998	59	0
75	112884	60	0
75	114770	61	0
75	116656	62	0
75	118542	63	0
75	120428	64	0
75	122314	65	0
75	124200	66	0
75	126086	67	0
75	127972	68	0
75	129858	69	0
75	131744	70	0
75	133630	71	0
75	135516	72	0
75	137402	73	0
75	139288	74	0
75	141174	75	0
75	143060	76	0
75	144946	77	0
75	146832	78	0
75	148718	79	0
75	150604	80	0
75	152490	81	0
75	154376	82	0
75	156262	83	0
75	158148	84	0
75	160034	85	0
75	161920	86	0
75	163806	87	0
75	165692	88	0
75	167578	89	0
75	169464	90	0
75	171350	91	0
75	173236	92	0
75	175122	93	0
75	177008	94	0
75	178894	95	0
75	180780	96	0
75	182666	97	0
75	184552	98	0
75	186438	99	0
75	188324	100	0
76	1756	2	4
76	3642	3	4
76	5528	4	4
76	7414	5	4
76	9300	6	4
76	11186	7	4
76	13072	8	4
76	14958	9	4
76	16846	10	4
76	18824	11	4
76	20750	12	4
76	22676	13	4
76	24602	14	4
76	26528	15	4
76	28454	16	4
76	30380	17	4
76	32306	18	4
76	34232	19	4
76	36158	20	4
76	38084	21	4
76	40010	22	4
76	41936	23	4
76	43862	24	4
76	45788	25	4
76	47714	26	4
76	49640	27	4
76	51566	28	4
76	53492	29	4
76	55418	30	4
76	57344	31	4
76	59270	32	4
76	61196	33	4
76	63122	34	4
76	65048	35	4
76	66974	36	4
76	68948	37	4
76	70864	38	4
76	72780	39	4
76	74696	40	4
76	76612	41	4
76	78577	42	4
76	80483	43	4
76	82389	44	4
76	84295	45	4
76	86266	46	4
76	88367	47	4
76	90253	48	4
76	92139	49	4
76	94025	50	4
76	95911	51	4
76	97797	52	4
76	99683	53	4
76	101569	54	4
76	103455	55	4
76	105341	56	4
76	107227	57	4
76	109113	58	4
76	110999	59	4
76	112885	60	4
76	114771	61	4
76	116657	62	4
76	118543	63	4
76	120429	64	4
76	122315	65	4
76	124201	66	4
76	126087	67	4
76	127973	68	4
76	129859	69	4
76	131745	70	4
76	133631	71	4
76	135517	72	4
76	137403	73	4
76	139289	74	4
76	141175	75	4
76	143061	76	4
76	144947	77	4
76	146833	78	4
76	148719	79	4
76	150605	80	4
76	152491	81	4
76	154377	82	4
76	156263	83	4
76	158149	84	4
76	160035	85	4
76	161921	86	4
76	163807	87	4
76	165693	88	4
76	167579	89	4
76	169465	90	4
76	171351	91	4
76	173237	92	4
76	175123	93	4
76	177009	94	4
76	178895	95	4
76	180781	96	4
76	182667	97	4
76	184553	98	4
76	186439	99	4
76	188325	100	4
77	1756	2	0.005313
77	3642	3	0.00625
77	5528	4	0.00625
77	7414	5	0.00625
77	9300	6	0.00625
77	11186	7	0.00625
77	13072	8	0.00625
77	14958	9	0.00625
77	16846	10	0.00625
77	18824	11	0.006299
77	20750	12	0.00625
77	22676	13	0.00625
77	24602	14	0.00625
77	26528	15	0.00625
77	28454	16	0.00625
77	30380	17	0.00625
77	32306	18	0.00625
77	34232	19	0.00625
77	36158	20	0.00625
77	38084	21	0.00625
77	40010	22	0.00625
77	41936	23	0.00625
77	43862	24	0.00625
77	45788	25	0.00625
77	47714	26	0.00625
77	49640	27	0.00625
77	51566	28	0.00625
77	53492	29	0.00625
77	55418	30	0.00625
77	57344	31	0.00625
77	59270	32	0.00625
77	61196	33	0.00625
77	63122	34	0.00625
77	65048	35	0.00625
77	66974	36	0.00625
77	68948	37	0.00625
77	70864	38	0.00625
77	72780	39	0.00625
77	74696	40	0.00625
77	76612	41	0.00625
77	78577	42	0.00625
77	80483	43	0.00625
77	82389	44	0.00625
77	84295	45	0.00625
77	86266	46	0.00653912609
77	88367	47	0.00625
77	90253	48	0.00625
77	92139	49	0.00625
77	94025	50	0.00625
77	95911	51	0.00625
77	97797	52	0.00625
77	99683	53	0.00625
77	101569	54	0.00625
77	103455	55	0.00625
77	105341	56	0.00625
77	107227	57	0.00625
77	109113	58	0.00625
77	110999	59	0.00625
77	112885	60	0.00625
77	114771	61	0.00625
77	116657	62	0.00625
77	118543	63	0.00625
77	120429	64	0.00625
77	122315	65	0.00625
77	124201	66	0.00625
77	126087	67	0.00625
77	127973	68	0.00625
77	129859	69	0.00625
77	131745	70	0.00625
77	133631	71	0.00625
77	135517	72	0.00625
77	137403	73	0.00625
77	139289	74	0.00625
77	141175	75	0.00625
77	143061	76	0.00625
77	144947	77	0.00625
77	146833	78	0.00625
77	148719	79	0.00625
77	150605	80	0.00625
77	152491	81	0.00625
77	154377	82	0.00625
77	156263	83	0.00625
77	158149	84	0.00625
77	160035	85	0.00625
77	161921	86	0.00625
77	163807	87	0.00625
77	165693	88	0.00625
77	167579	89	0.00625
77	169465	90	0.00625
77	171351	91	0.00625
77	173237	92	0.00625
77	175123	93	0.00625
77	177009	94	0.00625
77	178895	95	0.00625
77	180781	96	0.00625
77	182667	97	0.00625
77	184553	98	0.00625
77	186439	99	0.00625
77	188325	100	0.00625
78	1756	2	0
78	3642	3	0
78	5528	4	0
78	7414	5	0
78	9300	6	0
78	11186	7	0
78	13072	8	0
78	14958	9	0
78	16846	10	0
78	18824	11	0
78	20750	12	0
78	22676	13	0
78	24602	14	0
78	26528	15	0
78	28454	16	0
78	30380	17	0
78	32306	18	0
78	34232	19	0
78	36158	20	0
78	38084	21	0
78	40010	22	0
78	41936	23	0
78	43862	24	0
78	45788	25	0
78	47714	26	0
78	49640	27	0
78	51566	28	0
78	53492	29	0
78	55418	30	0
78	57344	31	0
78	59270	32	0
78	61196	33	0
78	63122	34	0
78	65048	35	0
78	66974	36	0
78	68948	37	0
78	70864	38	0
78	72780	39	0
78	74696	40	0
78	76612	41	0
78	78577	42	0
78	80483	43	0
78	82389	44	0
78	84295	45	0
78	86266	46	0
78	88367	47	0
78	90253	48	0
78	92139	49	0
78	94025	50	0
78	95911	51	0
78	97797	52	0
78	99683	53	0
78	101569	54	0
78	103455	55	0
78	105341	56	0
78	107227	57	0
78	109113	58	0
78	110999	59	0
78	112885	60	0
78	114771	61	0
78	116657	62	0
78	118543	63	0
78	120429	64	0
78	122315	65	0
78	124201	66	0
78	126087	67	0
78	127973	68	0
78	129859	69	0
78	131745	70	0
78	133631	71	0
78	135517	72	0
78	137403	73	0
78	139289	74	0
78	141175	75	0
78	143061	76	0
78	144947	77	0
78	146833	78	0
78	148719	79	0
78	150605	80	0
78	152491	81	0
78	154377	82	0
78	156263	83	0
78	158149	84	0
78	160035	85	0
78	161921	86	0
78	163807	87	0
78	165693	88	0
78	167579	89	0
78	169465	90	0
78	171351	91	0
78	173237	92	0
78	175123	93	0
78	177009	94	0
78	178895	95	0
78	180781	96	0
78	182667	97	0
78	184553	98	0
78	186439	99	0
78	188325	100	0
79	1757	2	5
79	3643	3	5
79	5529	4	5
79	7415	5	5
79	9301	6	5
79	11187	7	5
79	13073	8	5
79	14959	9	5
79	16847	10	5
79	18825	11	5
79	20751	12	5
79	22677	13	5
79	24603	14	5
79	26529	15	5
79	28455	16	5
79	30381	17	5
79	32307	18	5
79	34233	19	5
79	36159	20	5
79	38085	21	5
79	40011	22	5
79	41937	23	5
79	43863	24	5
79	45789	25	5
79	47715	26	5
79	49641	27	5
79	51567	28	5
79	53493	29	5
79	55419	30	5
79	57345	31	5
79	59271	32	5
79	61197	33	5
79	63123	34	5
79	65049	35	5
79	66975	36	5
79	68949	37	5
79	70865	38	5
79	72781	39	5
79	74697	40	5
79	76613	41	5
79	78578	42	5
79	80484	43	5
79	82390	44	5
79	84296	45	5
79	86267	46	5
79	88368	47	5
79	90254	48	5
79	92140	49	5
79	94026	50	5
79	95912	51	5
79	97798	52	5
79	99684	53	5
79	101570	54	5
79	103456	55	5
79	105342	56	5
79	107228	57	5
79	109114	58	5
79	111000	59	5
79	112886	60	5
79	114772	61	5
79	116658	62	5
79	118544	63	5
79	120430	64	5
79	122316	65	5
79	124202	66	5
79	126088	67	5
79	127974	68	5
79	129860	69	5
79	131746	70	5
79	133632	71	5
79	135518	72	5
79	137404	73	5
79	139290	74	5
79	141176	75	5
79	143062	76	5
79	144948	77	5
79	146834	78	5
79	148720	79	5
79	150606	80	5
79	152492	81	5
79	154378	82	5
79	156264	83	5
79	158150	84	5
79	160036	85	5
79	161922	86	5
79	163808	87	5
79	165694	88	5
79	167580	89	5
79	169466	90	5
79	171352	91	5
79	173238	92	5
79	175124	93	5
79	177010	94	5
79	178896	95	5
79	180782	96	5
79	182668	97	5
79	184554	98	5
79	186440	99	5
79	188326	100	5
80	1757	2	0.005312
80	3643	3	0.00625
80	5529	4	0.00625
80	7415	5	0.00625
80	9301	6	0.00625
80	11187	7	0.00625
80	13073	8	0.00625
80	14959	9	0.00625
80	16847	10	0.00625
80	18825	11	0.006298
80	20751	12	0.00625
80	22677	13	0.00625
80	24603	14	0.00625
80	26529	15	0.00625
80	28455	16	0.00625
80	30381	17	0.00625
80	32307	18	0.00625
80	34233	19	0.00625
80	36159	20	0.00625
80	38085	21	0.00625
80	40011	22	0.00625
80	41937	23	0.00625
80	43863	24	0.00625
80	45789	25	0.00625
80	47715	26	0.00625
80	49641	27	0.00625
80	51567	28	0.00625
80	53493	29	0.00625
80	55419	30	0.00625
80	57345	31	0.00625
80	59271	32	0.00625
80	61197	33	0.00625
80	63123	34	0.00625
80	65049	35	0.00625
80	66975	36	0.00625
80	68949	37	0.00625
80	70865	38	0.00625
80	72781	39	0.00625
80	74697	40	0.00625
80	76613	41	0.00625
80	78578	42	0.00625
80	80484	43	0.00625
80	82390	44	0.00625
80	84296	45	0.00625
80	86267	46	0.00653912609
80	88368	47	0.00625
80	90254	48	0.00625
80	92140	49	0.00625
80	94026	50	0.00625
80	95912	51	0.00625
80	97798	52	0.00625
80	99684	53	0.00625
80	101570	54	0.00625
80	103456	55	0.00625
80	105342	56	0.00625
80	107228	57	0.00625
80	109114	58	0.00625
80	111000	59	0.00625
80	112886	60	0.00625
80	114772	61	0.00625
80	116658	62	0.00625
80	118544	63	0.00625
80	120430	64	0.00625
80	122316	65	0.00625
80	124202	66	0.00625
80	126088	67	0.00625
80	127974	68	0.00625
80	129860	69	0.00625
80	131746	70	0.00625
80	133632	71	0.00625
80	135518	72	0.00625
80	137404	73	0.00625
80	139290	74	0.00625
80	141176	75	0.00625
80	143062	76	0.00625
80	144948	77	0.00625
80	146834	78	0.00625
80	148720	79	0.00625
80	150606	80	0.00625
80	152492	81	0.00625
80	154378	82	0.00625
80	156264	83	0.00625
80	158150	84	0.00625
80	160036	85	0.00625
80	161922	86	0.00625
80	163808	87	0.00625
80	165694	88	0.00625
80	167580	89	0.00625
80	169466	90	0.00625
80	171352	91	0.00625
80	173238	92	0.00625
80	175124	93	0.00625
80	177010	94	0.00625
80	178896	95	0.00625
80	180782	96	0.00625
80	182668	97	0.00625
80	184554	98	0.00625
80	186440	99	0.00625
80	188326	100	0.00625
81	1757	2	0
81	3643	3	0
81	5529	4	0
81	7415	5	0
81	9301	6	0
81	11187	7	0
81	13073	8	0
81	14959	9	0
81	16847	10	0
81	18825	11	0
81	20751	12	0
81	22677	13	0
81	24603	14	0
81	26529	15	0
81	28455	16	0
81	30381	17	0
81	32307	18	0
81	34233	19	0
81	36159	20	0
81	38085	21	0
81	40011	22	0
81	41937	23	0
81	43863	24	0
81	45789	25	0
81	47715	26	0
81	49641	27	0
81	51567	28	0
81	53493	29	0
81	55419	30	0
81	57345	31	0
81	59271	32	0
81	61197	33	0
81	63123	34	0
81	65049	35	0
81	66975	36	0
81	68949	37	0
81	70865	38	0
81	72781	39	0
81	74697	40	0
81	76613	41	0
81	78578	42	0
81	80484	43	0
81	82390	44	0
81	84296	45	0
81	86267	46	0
81	88368	47	0
81	90254	48	0
81	92140	49	0
81	94026	50	0
81	95912	51	0
81	97798	52	0
81	99684	53	0
81	101570	54	0
81	103456	55	0
81	105342	56	0
81	107228	57	0
81	109114	58	0
81	111000	59	0
81	112886	60	0
81	114772	61	0
81	116658	62	0
81	118544	63	0
81	120430	64	0
81	122316	65	0
81	124202	66	0
81	126088	67	0
81	127974	68	0
81	129860	69	0
81	131746	70	0
81	133632	71	0
81	135518	72	0
81	137404	73	0
81	139290	74	0
81	141176	75	0
81	143062	76	0
81	144948	77	0
81	146834	78	0
81	148720	79	0
81	150606	80	0
81	152492	81	0
81	154378	82	0
81	156264	83	0
81	158150	84	0
81	160036	85	0
81	161922	86	0
81	163808	87	0
81	165694	88	0
81	167580	89	0
81	169466	90	0
81	171352	91	0
81	173238	92	0
81	175124	93	0
81	177010	94	0
81	178896	95	0
81	180782	96	0
81	182668	97	0
81	184554	98	0
81	186440	99	0
81	188326	100	0

