version 3
run BreakRanksNoGui-586-20240710-17:45:29-276231
attr configname BreakRanksNoGui
attr datetime 20240710-17:45:29
attr datetimef 20240710-174529
attr experiment BreakRanksNoGui
attr inifile omnetpp.ini
attr iterationvars "$nCars=6, $platoonSize=4, $nLanes=1, $ploegH=0.5, $controller=1, $headway=0.1, $leaderHeadway=1.2, $leaderSpeed=130, $breakRanksSafetyDistance=5, $minSpeed=120, $maxSpeed=140, $beaconInterval=0.1, $priority=4, $packetSize=200, $sController=\"CACC\", $0=2, $1=0"
attr iterationvarsd nCars=6/platoonSize=4/nLanes=1/ploegH=0.5/controller=1/headway=0.1/leaderHeadway=1.2/leaderSpeed=130/breakRanksSafetyDistance=5/minSpeed=120/maxSpeed=140/beaconInterval=0.1/priority=4/packetSize=200/sController=CACC/2/0
attr iterationvarsf nCars=6,platoonSize=4,nLanes=1,ploegH=0.5,controller=1,headway=0.1,leaderHeadway=1.2,leaderSpeed=130,breakRanksSafetyDistance=5,minSpeed=120,maxSpeed=140,beaconInterval=0.1,priority=4,packetSize=200,sController=CACC,2,0-
attr measurement "$nCars=6, $platoonSize=4, $nLanes=1, $ploegH=0.5, $controller=1, $headway=0.1, $leaderHeadway=1.2, $leaderSpeed=130, $breakRanksSafetyDistance=5, $minSpeed=120, $maxSpeed=140, $beaconInterval=0.1, $priority=4, $packetSize=200, $sController=\"CACC\", $0=2, $1=0"
attr network Highway
attr processid 276231
attr repetition 6
attr replication #6
attr resultdir results
attr runnumber 586
attr seedset 6
itervar beaconInterval 0.1
itervar breakRanksSafetyDistance 5
itervar controller 1
itervar headway 0.1
itervar leaderHeadway 1.2
itervar leaderSpeed 130
itervar maxSpeed 140
itervar minSpeed 120
itervar nCars 6
itervar nLanes 1
itervar packetSize 200
itervar platoonSize 4
itervar ploegH 0.5
itervar priority 4
itervar sController "\"CACC\""
config image-path ../../../veins/images
config repeat 10
config extends BreakRanks
config *.manager.command "\"sumo\""
config *.manager.ignoreGuiCommands true
config output-vector-file "results/BreakRanks_1_0.1_130_5_4 /result_6.vec"
config output-scalar-file "results/BreakRanks_1_0.1_130_5_4 /result_6.sca"
config extends Platooning
config *.node[*].scenario_type "\"BreakRanksScenario\""
config *.manager.command "\"sumo-gui\""
config *.node[*].scenario_type "\"SimpleScenario\""
config cmdenv-express-mode true
config cmdenv-autoflush true
config cmdenv-status-frequency 15s
config num-rngs 6
config network Highway
config debug-on-errors true
config print-undisposed true
config *.playgroundSizeX 65000m
config *.playgroundSizeY 25000m
config *.playgroundSizeZ 50m
config sim-time-limit "100 s"
config *.annotations.draw false
config *.obstacles.debug false
config *.world.useTorus false
config *.world.use2D false
config *.manager.updateInterval 0.01s
config *.manager.host "\"localhost\""
config *.manager.moduleType "\"org.car2x.plexe.PlatoonCar\""
config *.manager.moduleName "\"node\""
config *.manager.moduleDisplayString "\"\""
config *.manager.autoShutdown true
config *.manager.margin 25
config *.connectionManager.sendDirect true
config *.connectionManager.maxInterfDist 2600m
config *.connectionManager.drawMaxIntfDist false
config *.**.nic.mac1609_4.useServiceChannel false
config *.**.nic.mac1609_4.txPower 100mW
config *.**.nic.mac1609_4.bitrate 6Mbps
config *.**.nic.mac1609_4.useAcks true
config *.**.nic.mac1609_4.ackErrorRate 0.0
config *.**.nic.mac1609_4.frameErrorRate 0.0
config *.**.nic.phy80211p.minPowerLevel -94dBm
config *.**.nic.phy80211p.maxTXPower 100mW
config *.**.nic.phy80211p.useNoiseFloor true
config *.**.nic.phy80211p.noiseFloor -95dBm
config *.**.nic.phy80211p.decider "xmldoc(\"config.xml\")"
config *.**.nic.phy80211p.analogueModels "xmldoc(\"config.xml\")"
config *.**.nic.phy80211p.usePropagationDelay true
config *.node[*].mobility.x 0
config *.node[*].mobility.y 0
config *.node[*].mobility.z 1.895
config seed-set 6
config **.seed 6
config *.node[*].prot.rng-0 2
config *.node[*].appl.rng-0 3
config *.node[*].scenario.rng-0 4
config **.traffic.rng-0 5
config *.manager.configFile "\"./sumocfg/freeway.sumo.cfg\""
config *.manager.launchConfig "xmldoc(\"./sumocfg/freeway.launchd.xml\")"
config **.numberOfCars 6
config **.numberOfCarsPerPlatoon 4
config **.numberOfLanes 1
config *.node[*].helper_type "\"PositionHelper\""
config *.node[*].scenario.caccC1 0.5
config *.node[*].scenario.caccXi 1
config *.node[*].scenario.caccOmegaN "0.2 Hz"
config *.node[*].scenario.caccSpacing "2 m"
config *.node[*].scenario.engineTau "0.5 s"
config *.node[*].scenario.ploegH 0.5s
config *.node[*].scenario.ploegKp 0.2
config *.node[*].scenario.ploegKd 0.7
config *.node[*].scenario.useRealisticEngine false
config *.node[*].scenario.useControllerAcceleration true
config *.node[*].scenario.nLanes 1
config **.numericController 1
config **.headway 0.1s
config *.node[*].scenario.accHeadway 0.1s
config *.node[*].scenario.leaderHeadway 1.2s
config *.node[*].scenario.leaderSpeed 130kmph
config *.node[*].appl_type "\"SimplePlatooningApp\""
config *.node[*].appl.*.scalar-recording true
config *.node[*].appl.*.vector-recording true
config *.node[0].appl.breakRanksSafetyDistance 5m
config *.node[*].appl.minSpeed 120kmph
config *.node[*].appl.maxSpeed 140kmph
config *.node[*].protocol_type "\"SimplePlatooningBeaconing\""
config *.node[*].prot.*.scalar-recording true
config *.node[*].prot.*.vector-recording true
config *.node[*].prot.beaconingInterval 0.1s
config *.node[*].prot.priority 4
config *.node[*].prot.packetSize 200
config **.traffic_type "\"PlatoonsTrafficManager\""
config **.traffic.platoonInsertTime "1 s"
config **.traffic.platoonInsertSpeed 130kmph
config **.traffic.nCars 6
config **.traffic.platoonSize 4
config **.traffic.nLanes 1
config **.traffic.platooningVType "\"vtypeauto\""
config **.traffic.controller "\"CACC\""
config **.traffic.platoonInsertDistance 2m
config **.traffic.platoonInsertHeadway 0s
config **.traffic.platoonLeaderHeadway 1.2s
config **.scalar-recording false
config **.vector-recording false

vector 0 Highway.node[0].appl distance ETV
vector 1 Highway.node[0].appl relativeSpeed ETV
vector 2 Highway.node[0].appl nodeId ETV
vector 3 Highway.node[0].appl acceleration ETV
vector 4 Highway.node[0].appl controllerAcceleration ETV
vector 5 Highway.node[0].appl speed ETV
vector 6 Highway.node[0].appl posx ETV
vector 7 Highway.node[0].appl posy ETV
vector 8 Highway.node[1].appl distance ETV
vector 9 Highway.node[1].appl relativeSpeed ETV
vector 10 Highway.node[1].appl nodeId ETV
vector 11 Highway.node[1].appl acceleration ETV
vector 12 Highway.node[1].appl controllerAcceleration ETV
vector 13 Highway.node[1].appl speed ETV
vector 14 Highway.node[1].appl posx ETV
vector 15 Highway.node[1].appl posy ETV
vector 16 Highway.node[2].appl distance ETV
vector 17 Highway.node[2].appl relativeSpeed ETV
vector 18 Highway.node[2].appl nodeId ETV
vector 19 Highway.node[2].appl acceleration ETV
vector 20 Highway.node[2].appl controllerAcceleration ETV
vector 21 Highway.node[2].appl speed ETV
vector 22 Highway.node[2].appl posx ETV
vector 23 Highway.node[2].appl posy ETV
vector 24 Highway.node[3].appl distance ETV
vector 25 Highway.node[3].appl relativeSpeed ETV
vector 26 Highway.node[3].appl nodeId ETV
vector 27 Highway.node[3].appl acceleration ETV
vector 28 Highway.node[3].appl controllerAcceleration ETV
vector 29 Highway.node[3].appl speed ETV
vector 30 Highway.node[3].appl posx ETV
vector 31 Highway.node[3].appl posy ETV
vector 32 Highway.node[4].appl distance ETV
vector 33 Highway.node[4].appl relativeSpeed ETV
vector 34 Highway.node[4].appl nodeId ETV
vector 35 Highway.node[4].appl acceleration ETV
vector 36 Highway.node[4].appl controllerAcceleration ETV
vector 37 Highway.node[4].appl speed ETV
vector 38 Highway.node[4].appl posx ETV
vector 39 Highway.node[4].appl posy ETV
vector 40 Highway.node[5].appl distance ETV
vector 41 Highway.node[5].appl relativeSpeed ETV
vector 42 Highway.node[5].appl nodeId ETV
vector 43 Highway.node[5].appl acceleration ETV
vector 44 Highway.node[5].appl controllerAcceleration ETV
vector 45 Highway.node[5].appl speed ETV
vector 46 Highway.node[5].appl posx ETV
vector 47 Highway.node[5].appl posy ETV
vector 48 Highway.node[1].prot leaderDelay ETV
vector 49 Highway.node[1].prot leaderDelayId ETV
vector 50 Highway.node[1].prot frontDelay ETV
vector 51 Highway.node[1].prot frontDelayId ETV
vector 52 Highway.node[2].prot leaderDelay ETV
vector 53 Highway.node[2].prot leaderDelayId ETV
vector 54 Highway.node[3].prot leaderDelay ETV
vector 55 Highway.node[3].prot leaderDelayId ETV
vector 56 Highway.node[3].prot frontDelay ETV
vector 57 Highway.node[3].prot frontDelayId ETV
vector 58 Highway.node[2].prot frontDelay ETV
vector 59 Highway.node[2].prot frontDelayId ETV
vector 60 Highway.node[5].prot leaderDelay ETV
vector 61 Highway.node[5].prot leaderDelayId ETV
vector 62 Highway.node[5].prot frontDelay ETV
vector 63 Highway.node[5].prot frontDelayId ETV
vector 64 Highway.node[0].prot nodeId ETV
vector 65 Highway.node[0].prot busyTime ETV
vector 66 Highway.node[0].prot collisions ETV
vector 67 Highway.node[1].prot nodeId ETV
vector 68 Highway.node[1].prot busyTime ETV
vector 69 Highway.node[1].prot collisions ETV
vector 70 Highway.node[2].prot nodeId ETV
vector 71 Highway.node[2].prot busyTime ETV
vector 72 Highway.node[2].prot collisions ETV
vector 73 Highway.node[3].prot nodeId ETV
vector 74 Highway.node[3].prot busyTime ETV
vector 75 Highway.node[3].prot collisions ETV
vector 76 Highway.node[4].prot nodeId ETV
vector 77 Highway.node[4].prot busyTime ETV
vector 78 Highway.node[4].prot collisions ETV
vector 79 Highway.node[5].prot nodeId ETV
vector 80 Highway.node[5].prot busyTime ETV
vector 81 Highway.node[5].prot collisions ETV
0	113	1.11	9323.17
0	301	1.21	9323.17
0	489	1.31	9323.17
0	677	1.41	9323.17
0	865	1.51	9323.17
0	1053	1.61	9323.17
0	1241	1.71	9323.17
0	1429	1.81	9323.17
0	1617	1.91	9323.17
0	1811	2.01	9323.17
0	1999	2.11	9323.17
0	2187	2.21	9323.17
0	2375	2.31	-1
0	2563	2.41	-1
0	2751	2.51	-1
0	2939	2.61	-1
0	3127	2.71	-1
0	3315	2.81	-1
0	3503	2.91	-1
0	3697	3.01	-1
0	3885	3.11	-1
0	4073	3.21	-1
0	4261	3.31	-1
0	4449	3.41	-1
0	4637	3.51	-1
0	4825	3.61	-1
0	5013	3.71	-1
0	5201	3.81	-1
0	5389	3.91	-1
0	5583	4.01	-1
0	5771	4.11	-1
0	5959	4.21	-1
0	6147	4.31	-1
0	6335	4.41	-1
0	6523	4.51	-1
0	6711	4.61	-1
0	6899	4.71	-1
0	7087	4.81	-1
0	7275	4.91	-1
0	7469	5.01	-1
0	7657	5.11	-1
0	7845	5.21	-1
0	8033	5.31	-1
0	8221	5.41	-1
0	8409	5.51	-1
0	8597	5.61	-1
0	8785	5.71	-1
0	8973	5.81	-1
0	9161	5.91	-1
0	9355	6.01	-1
0	9543	6.11	-1
0	9731	6.21	-1
0	9919	6.31	-1
0	10107	6.41	-1
0	10295	6.51	-1
0	10483	6.61	-1
0	10671	6.71	-1
0	10859	6.81	-1
0	11047	6.91	-1
0	11241	7.01	-1
0	11429	7.11	-1
0	11617	7.21	-1
0	11805	7.31	-1
0	11993	7.41	-1
0	12181	7.51	-1
0	12369	7.61	-1
0	12557	7.71	-1
0	12745	7.81	-1
0	12933	7.91	-1
0	13127	8.01	-1
0	13315	8.11	-1
0	13503	8.21	-1
0	13691	8.31	-1
0	13879	8.41	-1
0	14067	8.51	-1
0	14255	8.61	-1
0	14443	8.71	-1
0	14631	8.81	-1
0	14819	8.91	-1
0	15013	9.01	-1
0	15201	9.11	-1
0	15389	9.21	-1
0	15577	9.31	-1
0	15765	9.41	-1
0	15953	9.51	-1
0	16141	9.61	-1
0	16329	9.71	-1
0	16517	9.81	-1
0	16705	9.91	-1
0	16957	10.01	-1
0	17149	10.11	-1
0	17341	10.21	-1
0	17533	10.31	-1
0	17725	10.41	-1
0	17917	10.51	-1
0	18109	10.61	-1
0	18301	10.71	-1
0	18493	10.81	-1
0	18685	10.91	-1
0	18883	11.01	-1
0	19075	11.11	-1
0	19267	11.21	-1
0	19459	11.31	-1
0	19651	11.41	-1
0	19843	11.51	-1
0	20035	11.61	-1
0	20227	11.71	-1
0	20419	11.81	-1
0	20611	11.91	-1
0	20809	12.01	-1
0	21001	12.11	-1
0	21193	12.21	-1
0	21385	12.31	-1
0	21577	12.41	-1
0	21769	12.51	-1
0	21961	12.61	-1
0	22153	12.71	-1
0	22345	12.81	-1
0	22537	12.91	-1
0	22735	13.01	-1
0	22927	13.11	-1
0	23119	13.21	-1
0	23311	13.31	-1
0	23503	13.41	-1
0	23695	13.51	-1
0	23887	13.61	-1
0	24079	13.71	-1
0	24271	13.81	-1
0	24463	13.91	-1
0	24661	14.01	-1
0	24853	14.11	-1
0	25045	14.21	-1
0	25237	14.31	-1
0	25429	14.41	-1
0	25621	14.51	-1
0	25813	14.61	-1
0	26005	14.71	-1
0	26197	14.81	-1
0	26389	14.91	-1
0	26587	15.01	-1
0	26779	15.11	-1
0	26971	15.21	-1
0	27163	15.31	-1
0	27355	15.41	-1
0	27547	15.51	-1
0	27739	15.61	-1
0	27931	15.71	-1
0	28123	15.81	-1
0	28315	15.91	-1
0	28513	16.01	-1
0	28705	16.11	-1
0	28897	16.21	-1
0	29089	16.31	-1
0	29281	16.41	-1
0	29473	16.51	-1
0	29665	16.61	-1
0	29857	16.71	-1
0	30049	16.81	-1
0	30241	16.91	-1
0	30439	17.01	-1
0	30631	17.11	-1
0	30823	17.21	-1
0	31015	17.31	-1
0	31207	17.41	-1
0	31399	17.51	-1
0	31591	17.61	-1
0	31783	17.71	-1
0	31975	17.81	-1
0	32167	17.91	-1
0	32365	18.01	-1
0	32557	18.11	-1
0	32749	18.21	-1
0	32941	18.31	-1
0	33133	18.41	-1
0	33325	18.51	-1
0	33517	18.61	-1
0	33709	18.71	-1
0	33901	18.81	-1
0	34093	18.91	-1
0	34291	19.01	-1
0	34483	19.11	-1
0	34675	19.21	-1
0	34867	19.31	-1
0	35059	19.41	-1
0	35251	19.51	-1
0	35443	19.61	-1
0	35635	19.71	-1
0	35827	19.81	-1
0	36019	19.91	-1
0	36217	20.01	-1
0	36409	20.11	-1
0	36601	20.21	-1
0	36793	20.31	-1
0	36985	20.41	-1
0	37177	20.51	-1
0	37369	20.61	-1
0	37561	20.71	-1
0	37753	20.81	-1
0	37945	20.91	-1
0	38143	21.01	-1
0	38335	21.11	-1
0	38527	21.21	-1
0	38719	21.31	-1
0	38911	21.41	-1
0	39103	21.51	-1
0	39295	21.61	-1
0	39487	21.71	-1
0	39679	21.81	-1
0	39871	21.91	-1
0	40069	22.01	-1
0	40261	22.11	-1
0	40453	22.21	-1
0	40645	22.31	-1
0	40837	22.41	-1
0	41029	22.51	-1
0	41221	22.61	-1
0	41413	22.71	-1
0	41605	22.81	-1
0	41797	22.91	-1
0	41995	23.01	-1
0	42187	23.11	-1
0	42379	23.21	-1
0	42571	23.31	-1
0	42763	23.41	-1
0	42955	23.51	-1
0	43147	23.61	-1
0	43339	23.71	-1
0	43531	23.81	-1
0	43723	23.91	-1
0	43921	24.01	-1
0	44113	24.11	-1
0	44305	24.21	-1
0	44497	24.31	-1
0	44689	24.41	-1
0	44881	24.51	-1
0	45073	24.61	-1
0	45265	24.71	-1
0	45457	24.81	-1
0	45649	24.91	-1
0	45847	25.01	-1
0	46039	25.11	-1
0	46231	25.21	-1
0	46423	25.31	-1
0	46615	25.41	-1
0	46807	25.51	-1
0	46999	25.61	-1
0	47191	25.71	-1
0	47383	25.81	-1
0	47575	25.91	-1
0	47773	26.01	-1
0	47965	26.11	-1
0	48157	26.21	-1
0	48349	26.31	-1
0	48541	26.41	-1
0	48733	26.51	-1
0	48925	26.61	-1
0	49117	26.71	-1
0	49309	26.81	-1
0	49501	26.91	-1
0	49699	27.01	-1
0	49891	27.11	-1
0	50083	27.21	-1
0	50275	27.31	-1
0	50467	27.41	-1
0	50659	27.51	-1
0	50851	27.61	-1
0	51043	27.71	-1
0	51235	27.81	-1
0	51427	27.91	-1
0	51625	28.01	-1
0	51817	28.11	-1
0	52009	28.21	-1
0	52201	28.31	-1
0	52393	28.41	-1
0	52585	28.51	-1
0	52777	28.61	-1
0	52969	28.71	-1
0	53161	28.81	-1
0	53353	28.91	-1
0	53551	29.01	-1
0	53743	29.11	-1
0	53935	29.21	-1
0	54127	29.31	-1
0	54319	29.41	-1
0	54511	29.51	-1
0	54703	29.61	-1
0	54895	29.71	-1
0	55087	29.81	-1
0	55279	29.91	-1
0	55477	30.01	-1
0	55669	30.11	-1
0	55861	30.21	-1
0	56053	30.31	-1
0	56245	30.41	-1
0	56437	30.51	-1
0	56629	30.61	-1
0	56821	30.71	-1
0	57013	30.81	-1
0	57205	30.91	-1
0	57403	31.01	-1
0	57595	31.11	-1
0	57787	31.21	-1
0	57979	31.31	-1
0	58171	31.41	-1
0	58363	31.51	-1
0	58555	31.61	-1
0	58747	31.71	-1
0	58939	31.81	-1
0	59131	31.91	-1
0	59329	32.01	-1
0	59521	32.11	-1
0	59713	32.21	-1
0	59905	32.31	-1
0	60097	32.41	-1
0	60289	32.51	-1
0	60481	32.61	-1
0	60673	32.71	-1
0	60865	32.81	-1
0	61057	32.91	-1
0	61255	33.01	-1
0	61447	33.11	-1
0	61639	33.21	-1
0	61831	33.31	-1
0	62023	33.41	-1
0	62215	33.51	-1
0	62407	33.61	-1
0	62599	33.71	-1
0	62791	33.81	-1
0	62983	33.91	-1
0	63181	34.01	-1
0	63373	34.11	-1
0	63565	34.21	-1
0	63757	34.31	-1
0	63949	34.41	-1
0	64141	34.51	-1
0	64333	34.61	-1
0	64525	34.71	-1
0	64717	34.81	-1
0	64909	34.91	-1
0	65107	35.01	-1
0	65299	35.11	-1
0	65491	35.21	-1
0	65683	35.31	-1
0	65875	35.41	-1
0	66067	35.51	-1
0	66259	35.61	-1
0	66451	35.71	-1
0	66643	35.81	-1
0	66835	35.91	-1
0	67033	36.01	-1
0	67225	36.11	-1
0	67417	36.21	-1
0	67609	36.31	-1
0	67854	36.41	-1
0	68045	36.51	-1
0	68236	36.61	-1
0	68427	36.71	-1
0	68618	36.81	-1
0	68809	36.91	-1
0	69006	37.01	-1
0	69197	37.11	-1
0	69388	37.21	-1
0	69579	37.31	-1
0	69770	37.41	-1
0	69961	37.51	-1
0	70152	37.61	-1
0	70343	37.71	-1
0	70534	37.81	-1
0	70725	37.91	-1
0	70922	38.01	-1
0	71113	38.11	-1
0	71304	38.21	-1
0	71495	38.31	-1
0	71686	38.41	-1
0	71877	38.51	-1
0	72068	38.61	-1
0	72259	38.71	-1
0	72450	38.81	-1
0	72641	38.91	-1
0	72838	39.01	-1
0	73029	39.11	-1
0	73220	39.21	-1
0	73411	39.31	-1
0	73602	39.41	-1
0	73793	39.51	-1
0	73984	39.61	-1
0	74175	39.71	-1
0	74366	39.81	-1
0	74557	39.91	-1
0	74754	40.01	-1
0	74945	40.11	-1
0	75136	40.21	-1
0	75327	40.31	-1
0	75518	40.41	-1
0	75709	40.51	-1
0	75900	40.61	-1
0	76091	40.71	-1
0	76282	40.81	-1
0	76473	40.91	-1
0	76670	41.01	-1
0	76861	41.11	-1
0	77052	41.21	-1
0	77243	41.31	-1
0	77434	41.41	-1
0	77678	41.51	-1
0	77868	41.61	-1
0	78058	41.71	-1
0	78248	41.81	-1
0	78438	41.91	-1
0	78634	42.01	-1
0	78824	42.11	-1
0	79014	42.21	-1
0	79204	42.31	-1
0	79394	42.41	-1
0	79584	42.51	-1
0	79774	42.61	-1
0	79964	42.71	-1
0	80154	42.81	-1
0	80344	42.91	-1
0	80540	43.01	-1
0	80730	43.11	-1
0	80920	43.21	-1
0	81110	43.31	-1
0	81300	43.41	-1
0	81490	43.51	-1
0	81680	43.61	-1
0	81870	43.71	-1
0	82060	43.81	-1
0	82250	43.91	-1
0	82446	44.01	-1
0	82636	44.11	-1
0	82826	44.21	-1
0	83016	44.31	-1
0	83206	44.41	-1
0	83396	44.51	-1
0	83586	44.61	-1
0	83776	44.71	-1
0	83966	44.81	-1
0	84156	44.91	-1
0	84352	45.01	-1
0	84542	45.11	-1
0	84732	45.21	-1
0	84922	45.31	-1
0	85112	45.41	-1
0	85302	45.51	-1
0	85492	45.61	-1
0	85682	45.71	-1
0	85938	45.81	-1
0	86127	45.91	-1
0	86322	46.01	-1
0	86511	46.11	-1
0	86912	46.21	-1
0	87100	46.31	-1
0	87288	46.41	-1
0	87476	46.51	-1
0	87664	46.61	-1
0	87852	46.71	-1
0	88040	46.81	-1
0	88228	46.91	-1
0	88422	47.01	-1
0	88610	47.11	-1
0	88798	47.21	-1
0	88986	47.31	-1
0	89174	47.41	-1
0	89362	47.51	-1
0	89550	47.61	-1
0	89738	47.71	-1
0	89926	47.81	-1
0	90114	47.91	-1
0	90308	48.01	-1
0	90496	48.11	-1
0	90684	48.21	-1
0	90872	48.31	-1
0	91060	48.41	-1
0	91248	48.51	-1
0	91436	48.61	-1
0	91624	48.71	-1
0	91812	48.81	-1
0	92000	48.91	-1
0	92194	49.01	-1
0	92382	49.11	-1
0	92570	49.21	-1
0	92758	49.31	-1
0	92946	49.41	-1
0	93134	49.51	-1
0	93322	49.61	-1
0	93510	49.71	-1
0	93698	49.81	-1
0	93886	49.91	-1
0	94080	50.01	-1
0	94268	50.11	-1
0	94456	50.21	-1
0	94644	50.31	-1
0	94832	50.41	-1
0	95020	50.51	-1
0	95208	50.61	-1
0	95396	50.71	-1
0	95584	50.81	-1
0	95772	50.91	-1
0	95966	51.01	-1
0	96154	51.11	-1
0	96342	51.21	-1
0	96530	51.31	-1
0	96718	51.41	-1
0	96906	51.51	-1
0	97094	51.61	-1
0	97282	51.71	-1
0	97470	51.81	-1
0	97658	51.91	-1
0	97852	52.01	-1
0	98040	52.11	-1
0	98228	52.21	-1
0	98416	52.31	-1
0	98604	52.41	-1
0	98792	52.51	-1
0	98980	52.61	-1
0	99168	52.71	-1
0	99356	52.81	-1
0	99544	52.91	-1
0	99738	53.01	-1
0	99926	53.11	-1
0	100114	53.21	-1
0	100302	53.31	-1
0	100490	53.41	-1
0	100678	53.51	-1
0	100866	53.61	-1
0	101054	53.71	-1
0	101242	53.81	-1
0	101430	53.91	-1
0	101624	54.01	-1
0	101812	54.11	-1
0	102000	54.21	-1
0	102188	54.31	-1
0	102376	54.41	-1
0	102564	54.51	-1
0	102752	54.61	-1
0	102940	54.71	-1
0	103128	54.81	-1
0	103316	54.91	-1
0	103510	55.01	-1
0	103698	55.11	-1
0	103886	55.21	-1
0	104074	55.31	-1
0	104262	55.41	-1
0	104450	55.51	-1
0	104638	55.61	-1
0	104826	55.71	-1
0	105014	55.81	-1
0	105202	55.91	-1
0	105396	56.01	-1
0	105584	56.11	-1
0	105772	56.21	-1
0	105960	56.31	-1
0	106148	56.41	-1
0	106336	56.51	-1
0	106524	56.61	-1
0	106712	56.71	-1
0	106900	56.81	-1
0	107088	56.91	-1
0	107282	57.01	-1
0	107470	57.11	-1
0	107658	57.21	-1
0	107846	57.31	-1
0	108034	57.41	-1
0	108222	57.51	-1
0	108410	57.61	-1
0	108598	57.71	-1
0	108786	57.81	-1
0	108974	57.91	-1
0	109168	58.01	-1
0	109356	58.11	-1
0	109544	58.21	-1
0	109732	58.31	-1
0	109920	58.41	-1
0	110108	58.51	-1
0	110296	58.61	-1
0	110484	58.71	-1
0	110672	58.81	-1
0	110860	58.91	-1
0	111054	59.01	-1
0	111242	59.11	-1
0	111430	59.21	-1
0	111618	59.31	-1
0	111806	59.41	-1
0	111994	59.51	-1
0	112182	59.61	-1
0	112370	59.71	-1
0	112558	59.81	-1
0	112746	59.91	-1
0	112940	60.01	-1
0	113128	60.11	-1
0	113316	60.21	-1
0	113504	60.31	-1
0	113692	60.41	-1
0	113880	60.51	-1
0	114068	60.61	-1
0	114256	60.71	-1
0	114444	60.81	-1
0	114632	60.91	-1
0	114826	61.01	-1
0	115014	61.11	-1
0	115202	61.21	-1
0	115390	61.31	-1
0	115578	61.41	-1
0	115766	61.51	-1
0	115954	61.61	-1
0	116142	61.71	-1
0	116330	61.81	-1
0	116518	61.91	-1
0	116712	62.01	-1
0	116900	62.11	-1
0	117088	62.21	-1
0	117276	62.31	-1
0	117464	62.41	-1
0	117652	62.51	-1
0	117840	62.61	-1
0	118028	62.71	-1
0	118216	62.81	-1
0	118404	62.91	-1
0	118598	63.01	-1
0	118786	63.11	-1
0	118974	63.21	-1
0	119162	63.31	-1
0	119350	63.41	-1
0	119538	63.51	-1
0	119726	63.61	-1
0	119914	63.71	-1
0	120102	63.81	-1
0	120290	63.91	-1
0	120484	64.01	-1
0	120672	64.11	-1
0	120860	64.21	-1
0	121048	64.31	-1
0	121236	64.41	-1
0	121424	64.51	-1
0	121612	64.61	-1
0	121800	64.71	-1
0	121988	64.81	-1
0	122176	64.91	-1
0	122370	65.01	-1
0	122558	65.11	-1
0	122746	65.21	-1
0	122934	65.31	-1
0	123122	65.41	-1
0	123310	65.51	-1
0	123498	65.61	-1
0	123686	65.71	-1
0	123874	65.81	-1
0	124062	65.91	-1
0	124256	66.01	-1
0	124444	66.11	-1
0	124632	66.21	-1
0	124820	66.31	-1
0	125008	66.41	-1
0	125196	66.51	-1
0	125384	66.61	-1
0	125572	66.71	-1
0	125760	66.81	-1
0	125948	66.91	-1
0	126142	67.01	-1
0	126330	67.11	-1
0	126518	67.21	-1
0	126706	67.31	-1
0	126894	67.41	-1
0	127082	67.51	-1
0	127270	67.61	-1
0	127458	67.71	-1
0	127646	67.81	-1
0	127834	67.91	-1
0	128028	68.01	-1
0	128216	68.11	-1
0	128404	68.21	-1
0	128592	68.31	-1
0	128780	68.41	-1
0	128968	68.51	-1
0	129156	68.61	-1
0	129344	68.71	-1
0	129532	68.81	-1
0	129720	68.91	-1
0	129914	69.01	-1
0	130102	69.11	-1
0	130290	69.21	28.368
0	130478	69.31	28.5569
0	130666	69.41	28.7458
0	130854	69.51	28.9347
0	131042	69.61	29.1236
0	131230	69.71	29.3125
0	131418	69.81	29.5014
0	131606	69.91	29.6902
0	131800	70.01	29.8791
0	131988	70.11	30.068
0	132176	70.21	30.2569
0	132364	70.31	30.4458
0	132552	70.41	30.6347
0	132740	70.51	30.8236
0	132928	70.61	31.0125
0	133116	70.71	31.2014
0	133304	70.81	31.3903
0	133492	70.91	31.5791
0	133686	71.01	31.768
0	133874	71.11	31.9569
0	134062	71.21	32.1458
0	134250	71.31	32.3347
0	134438	71.41	32.5236
0	134626	71.51	32.7125
0	134814	71.61	32.9014
0	135002	71.71	33.0903
0	135190	71.81	33.2792
0	135378	71.91	33.468
0	135572	72.01	33.6569
0	135760	72.11	33.8458
0	135948	72.21	34.0347
0	136136	72.31	34.2236
0	136324	72.41	34.4125
0	136512	72.51	34.6014
0	136700	72.61	34.7903
0	136888	72.71	34.9792
0	137076	72.81	35.1681
0	137264	72.91	35.3569
0	137458	73.01	35.5458
0	137646	73.11	35.7347
0	137834	73.21	35.9236
0	138022	73.31	36.1125
0	138210	73.41	36.3014
0	138398	73.51	36.4903
0	138586	73.61	36.6792
0	138774	73.71	36.8681
0	138962	73.81	37.057
0	139150	73.91	37.2458
0	139344	74.01	37.4347
0	139532	74.11	37.6236
0	139720	74.21	37.8125
0	139908	74.31	38.0014
0	140096	74.41	38.1903
0	140284	74.51	38.3792
0	140472	74.61	38.5681
0	140660	74.71	38.757
0	140848	74.81	38.9459
0	141036	74.91	39.1347
0	141230	75.01	39.3236
0	141418	75.11	39.5125
0	141606	75.21	39.7014
0	141794	75.31	39.8903
0	141982	75.41	40.0792
0	142170	75.51	40.2681
0	142358	75.61	40.457
0	142546	75.71	40.6459
0	142734	75.81	40.8348
0	142922	75.91	41.0236
0	143116	76.01	41.2125
0	143304	76.11	41.4014
0	143492	76.21	41.5903
0	143680	76.31	41.7792
0	143868	76.41	41.9681
0	144056	76.51	42.157
0	144244	76.61	42.3459
0	144432	76.71	42.5348
0	144620	76.81	42.7237
0	144808	76.91	42.9125
0	145002	77.01	43.1014
0	145190	77.11	43.2903
0	145378	77.21	43.4792
0	145566	77.31	43.6681
0	145754	77.41	43.857
0	145942	77.51	44.0459
0	146130	77.61	44.2348
0	146318	77.71	44.4237
0	146506	77.81	44.6126
0	146694	77.91	44.8014
0	146888	78.01	44.9903
0	147076	78.11	45.1792
0	147264	78.21	45.3681
0	147452	78.31	45.557
0	147640	78.41	45.7459
0	147828	78.51	45.9348
0	148016	78.61	46.1237
0	148204	78.71	46.3126
0	148392	78.81	46.5015
0	148580	78.91	46.6903
0	148774	79.01	46.8792
0	148962	79.11	47.0681
0	149150	79.21	47.257
0	149338	79.31	47.4459
0	149526	79.41	47.6348
0	149714	79.51	47.8237
0	149902	79.61	48.0126
0	150090	79.71	48.2015
0	150278	79.81	48.3904
0	150466	79.91	48.5792
0	150660	80.01	48.7681
0	150848	80.11	48.957
0	151036	80.21	49.1459
0	151224	80.31	49.3348
0	151412	80.41	49.5237
0	151600	80.51	49.7126
0	151788	80.61	49.9015
0	151976	80.71	50.0904
0	152164	80.81	50.2793
0	152352	80.91	50.4681
0	152546	81.01	50.657
0	152734	81.11	50.8459
0	152922	81.21	51.0348
0	153110	81.31	51.2237
0	153298	81.41	51.4126
0	153486	81.51	51.6015
0	153674	81.61	51.7904
0	153862	81.71	51.9793
0	154050	81.81	52.1682
0	154238	81.91	52.357
0	154432	82.01	52.5459
0	154620	82.11	52.7348
0	154808	82.21	52.9237
0	154996	82.31	53.1126
0	155184	82.41	53.3015
0	155372	82.51	53.4904
0	155560	82.61	53.6793
0	155748	82.71	53.8682
0	155936	82.81	54.0571
0	156124	82.91	54.2459
0	156318	83.01	54.4348
0	156506	83.11	54.6237
0	156694	83.21	54.8126
0	156882	83.31	55.0015
0	157070	83.41	55.1904
0	157258	83.51	55.3793
0	157446	83.61	55.5682
0	157634	83.71	55.7571
0	157822	83.81	55.946
0	158010	83.91	56.1348
0	158204	84.01	56.3237
0	158392	84.11	56.5126
0	158580	84.21	56.7015
0	158768	84.31	56.8904
0	158956	84.41	57.0793
0	159144	84.51	57.2682
0	159332	84.61	57.4571
0	159520	84.71	57.646
0	159708	84.81	57.8349
0	159896	84.91	58.0237
0	160090	85.01	58.2126
0	160278	85.11	58.4015
0	160466	85.21	58.5904
0	160654	85.31	58.7793
0	160842	85.41	58.9682
0	161030	85.51	59.1571
0	161218	85.61	59.346
0	161406	85.71	59.5349
0	161594	85.81	59.7238
0	161782	85.91	59.9126
0	161976	86.01	60.1015
0	162164	86.11	60.2904
0	162352	86.21	60.4793
0	162540	86.31	60.6682
0	162728	86.41	60.8571
0	162916	86.51	61.046
0	163104	86.61	61.2349
0	163292	86.71	61.4238
0	163480	86.81	61.6127
0	163668	86.91	61.8015
0	163862	87.01	61.9904
0	164050	87.11	62.1793
0	164238	87.21	62.3682
0	164426	87.31	62.5571
0	164614	87.41	62.746
0	164802	87.51	62.9349
0	164990	87.61	63.1238
0	165178	87.71	63.3127
0	165366	87.81	63.5016
0	165554	87.91	63.6904
0	165748	88.01	63.8793
0	165936	88.11	64.0682
0	166124	88.21	64.2571
0	166312	88.31	64.446
0	166500	88.41	64.6349
0	166688	88.51	64.8238
0	166876	88.61	65.0127
0	167064	88.71	65.2016
0	167252	88.81	65.3905
0	167440	88.91	65.5793
0	167634	89.01	65.7682
0	167822	89.11	65.9571
0	168010	89.21	66.146
0	168198	89.31	66.3349
0	168386	89.41	66.5238
0	168574	89.51	66.7127
0	168762	89.61	66.9016
0	168950	89.71	67.0905
0	169138	89.81	67.2794
0	169326	89.91	67.4682
0	169520	90.01	67.6571
0	169708	90.11	67.846
0	169896	90.21	68.0349
0	170084	90.31	68.2238
0	170272	90.41	68.4127
0	170460	90.51	68.6016
0	170648	90.61	68.7905
0	170836	90.71	68.9794
0	171024	90.81	69.1683
0	171212	90.91	69.3571
0	171406	91.01	69.546
0	171594	91.11	69.7349
0	171782	91.21	69.9238
0	171970	91.31	70.1127
0	172158	91.41	70.3016
0	172346	91.51	70.4905
0	172534	91.61	70.6794
0	172722	91.71	70.8683
0	172910	91.81	71.0572
0	173098	91.91	71.246
0	173292	92.01	71.4349
0	173480	92.11	71.6238
0	173668	92.21	71.8127
0	173856	92.31	72.0016
0	174044	92.41	72.1905
0	174232	92.51	72.3794
0	174420	92.61	72.5683
0	174608	92.71	72.7572
0	174796	92.81	72.9461
0	174984	92.91	73.1349
0	175178	93.01	73.3238
0	175366	93.11	73.5127
0	175554	93.21	73.7016
0	175742	93.31	73.8905
0	175930	93.41	74.0794
0	176118	93.51	74.2683
0	176306	93.61	74.4572
0	176494	93.71	74.6461
0	176682	93.81	74.835
0	176870	93.91	75.0238
0	177064	94.01	75.2127
0	177252	94.11	75.4016
0	177440	94.21	75.5905
0	177628	94.31	75.7794
0	177816	94.41	75.9683
0	178004	94.51	76.1572
0	178192	94.61	76.3461
0	178380	94.71	76.535
0	178568	94.81	76.7239
0	178756	94.91	76.9127
0	178950	95.01	77.1016
0	179138	95.11	77.2905
0	179326	95.21	77.4794
0	179514	95.31	77.6683
0	179702	95.41	77.8572
0	179890	95.51	78.0461
0	180078	95.61	78.235
0	180266	95.71	78.4239
0	180454	95.81	78.6128
0	180642	95.91	78.8016
0	180836	96.01	78.9905
0	181024	96.11	79.1794
0	181212	96.21	79.3683
0	181400	96.31	79.5572
0	181588	96.41	79.7461
0	181776	96.51	79.935
0	181964	96.61	80.1239
0	182152	96.71	80.3128
0	182340	96.81	80.5017
0	182528	96.91	80.6905
0	182722	97.01	80.8794
0	182910	97.11	81.0683
0	183098	97.21	81.2572
0	183286	97.31	81.4461
0	183474	97.41	81.635
0	183662	97.51	81.8239
0	183850	97.61	82.0128
0	184038	97.71	82.2017
0	184226	97.81	82.3906
0	184414	97.91	82.5794
0	184608	98.01	82.7683
0	184796	98.11	82.9572
0	184984	98.21	83.1461
0	185172	98.31	83.335
0	185360	98.41	83.5239
0	185548	98.51	83.7128
0	185736	98.61	83.9017
0	185924	98.71	84.0906
0	186112	98.81	84.2795
0	186300	98.91	84.4683
0	186494	99.01	84.6572
0	186682	99.11	84.8461
0	186870	99.21	85.035
0	187058	99.31	85.2239
0	187246	99.41	85.4128
0	187434	99.51	85.6017
0	187622	99.61	85.7906
0	187810	99.71	85.9795
0	187998	99.81	86.1684
0	188186	99.91	86.3572
1	113	1.11	-9.20219e-06
1	301	1.21	-3.63156e-05
1	489	1.31	-6.67292e-05
1	677	1.41	-9.07755e-05
1	865	1.51	-0.000109335
1	1053	1.61	-0.000123171
1	1241	1.71	-0.000132702
1	1429	1.81	-0.000138765
1	1617	1.91	-0.00014201
1	1811	2.01	-0.000142698
1	1999	2.11	-0.000141477
1	2187	2.21	-0.000138795
1	2375	2.31	0
1	2563	2.41	0
1	2751	2.51	0
1	2939	2.61	0
1	3127	2.71	0
1	3315	2.81	0
1	3503	2.91	0
1	3697	3.01	0
1	3885	3.11	0
1	4073	3.21	0
1	4261	3.31	0
1	4449	3.41	0
1	4637	3.51	0
1	4825	3.61	0
1	5013	3.71	0
1	5201	3.81	0
1	5389	3.91	0
1	5583	4.01	0
1	5771	4.11	0
1	5959	4.21	0
1	6147	4.31	0
1	6335	4.41	0
1	6523	4.51	0
1	6711	4.61	0
1	6899	4.71	0
1	7087	4.81	0
1	7275	4.91	0
1	7469	5.01	0
1	7657	5.11	0
1	7845	5.21	0
1	8033	5.31	0
1	8221	5.41	0
1	8409	5.51	0
1	8597	5.61	0
1	8785	5.71	0
1	8973	5.81	0
1	9161	5.91	0
1	9355	6.01	0
1	9543	6.11	0
1	9731	6.21	0
1	9919	6.31	0
1	10107	6.41	0
1	10295	6.51	0
1	10483	6.61	0
1	10671	6.71	0
1	10859	6.81	0
1	11047	6.91	0
1	11241	7.01	0
1	11429	7.11	0
1	11617	7.21	0
1	11805	7.31	0
1	11993	7.41	0
1	12181	7.51	0
1	12369	7.61	0
1	12557	7.71	0
1	12745	7.81	0
1	12933	7.91	0
1	13127	8.01	0
1	13315	8.11	0
1	13503	8.21	0
1	13691	8.31	0
1	13879	8.41	0
1	14067	8.51	0
1	14255	8.61	0
1	14443	8.71	0
1	14631	8.81	0
1	14819	8.91	0
1	15013	9.01	0
1	15201	9.11	0
1	15389	9.21	0
1	15577	9.31	0
1	15765	9.41	0
1	15953	9.51	0
1	16141	9.61	0
1	16329	9.71	0
1	16517	9.81	0
1	16705	9.91	0
1	16957	10.01	0
1	17149	10.11	0
1	17341	10.21	0
1	17533	10.31	0
1	17725	10.41	0
1	17917	10.51	0
1	18109	10.61	0
1	18301	10.71	0
1	18493	10.81	0
1	18685	10.91	0
1	18883	11.01	0
1	19075	11.11	0
1	19267	11.21	0
1	19459	11.31	0
1	19651	11.41	0
1	19843	11.51	0
1	20035	11.61	0
1	20227	11.71	0
1	20419	11.81	0
1	20611	11.91	0
1	20809	12.01	0
1	21001	12.11	0
1	21193	12.21	0
1	21385	12.31	0
1	21577	12.41	0
1	21769	12.51	0
1	21961	12.61	0
1	22153	12.71	0
1	22345	12.81	0
1	22537	12.91	0
1	22735	13.01	0
1	22927	13.11	0
1	23119	13.21	0
1	23311	13.31	0
1	23503	13.41	0
1	23695	13.51	0
1	23887	13.61	0
1	24079	13.71	0
1	24271	13.81	0
1	24463	13.91	0
1	24661	14.01	0
1	24853	14.11	0
1	25045	14.21	0
1	25237	14.31	0
1	25429	14.41	0
1	25621	14.51	0
1	25813	14.61	0
1	26005	14.71	0
1	26197	14.81	0
1	26389	14.91	0
1	26587	15.01	0
1	26779	15.11	0
1	26971	15.21	0
1	27163	15.31	0
1	27355	15.41	0
1	27547	15.51	0
1	27739	15.61	0
1	27931	15.71	0
1	28123	15.81	0
1	28315	15.91	0
1	28513	16.01	0
1	28705	16.11	0
1	28897	16.21	0
1	29089	16.31	0
1	29281	16.41	0
1	29473	16.51	0
1	29665	16.61	0
1	29857	16.71	0
1	30049	16.81	0
1	30241	16.91	0
1	30439	17.01	0
1	30631	17.11	0
1	30823	17.21	0
1	31015	17.31	0
1	31207	17.41	0
1	31399	17.51	0
1	31591	17.61	0
1	31783	17.71	0
1	31975	17.81	0
1	32167	17.91	0
1	32365	18.01	0
1	32557	18.11	0
1	32749	18.21	0
1	32941	18.31	0
1	33133	18.41	0
1	33325	18.51	0
1	33517	18.61	0
1	33709	18.71	0
1	33901	18.81	0
1	34093	18.91	0
1	34291	19.01	0
1	34483	19.11	0
1	34675	19.21	0
1	34867	19.31	0
1	35059	19.41	0
1	35251	19.51	0
1	35443	19.61	0
1	35635	19.71	0
1	35827	19.81	0
1	36019	19.91	0
1	36217	20.01	0
1	36409	20.11	0
1	36601	20.21	0
1	36793	20.31	0
1	36985	20.41	0
1	37177	20.51	0
1	37369	20.61	0
1	37561	20.71	0
1	37753	20.81	0
1	37945	20.91	0
1	38143	21.01	0
1	38335	21.11	0
1	38527	21.21	0
1	38719	21.31	0
1	38911	21.41	0
1	39103	21.51	0
1	39295	21.61	0
1	39487	21.71	0
1	39679	21.81	0
1	39871	21.91	0
1	40069	22.01	0
1	40261	22.11	0
1	40453	22.21	0
1	40645	22.31	0
1	40837	22.41	0
1	41029	22.51	0
1	41221	22.61	0
1	41413	22.71	0
1	41605	22.81	0
1	41797	22.91	0
1	41995	23.01	0
1	42187	23.11	0
1	42379	23.21	0
1	42571	23.31	0
1	42763	23.41	0
1	42955	23.51	0
1	43147	23.61	0
1	43339	23.71	0
1	43531	23.81	0
1	43723	23.91	0
1	43921	24.01	0
1	44113	24.11	0
1	44305	24.21	0
1	44497	24.31	0
1	44689	24.41	0
1	44881	24.51	0
1	45073	24.61	0
1	45265	24.71	0
1	45457	24.81	0
1	45649	24.91	0
1	45847	25.01	0
1	46039	25.11	0
1	46231	25.21	0
1	46423	25.31	0
1	46615	25.41	0
1	46807	25.51	0
1	46999	25.61	0
1	47191	25.71	0
1	47383	25.81	0
1	47575	25.91	0
1	47773	26.01	0
1	47965	26.11	0
1	48157	26.21	0
1	48349	26.31	0
1	48541	26.41	0
1	48733	26.51	0
1	48925	26.61	0
1	49117	26.71	0
1	49309	26.81	0
1	49501	26.91	0
1	49699	27.01	0
1	49891	27.11	0
1	50083	27.21	0
1	50275	27.31	0
1	50467	27.41	0
1	50659	27.51	0
1	50851	27.61	0
1	51043	27.71	0
1	51235	27.81	0
1	51427	27.91	0
1	51625	28.01	0
1	51817	28.11	0
1	52009	28.21	0
1	52201	28.31	0
1	52393	28.41	0
1	52585	28.51	0
1	52777	28.61	0
1	52969	28.71	0
1	53161	28.81	0
1	53353	28.91	0
1	53551	29.01	0
1	53743	29.11	0
1	53935	29.21	0
1	54127	29.31	0
1	54319	29.41	0
1	54511	29.51	0
1	54703	29.61	0
1	54895	29.71	0
1	55087	29.81	0
1	55279	29.91	0
1	55477	30.01	0
1	55669	30.11	0
1	55861	30.21	0
1	56053	30.31	0
1	56245	30.41	0
1	56437	30.51	0
1	56629	30.61	0
1	56821	30.71	0
1	57013	30.81	0
1	57205	30.91	0
1	57403	31.01	0
1	57595	31.11	0
1	57787	31.21	0
1	57979	31.31	0
1	58171	31.41	0
1	58363	31.51	0
1	58555	31.61	0
1	58747	31.71	0
1	58939	31.81	0
1	59131	31.91	0
1	59329	32.01	0
1	59521	32.11	0
1	59713	32.21	0
1	59905	32.31	0
1	60097	32.41	0
1	60289	32.51	0
1	60481	32.61	0
1	60673	32.71	0
1	60865	32.81	0
1	61057	32.91	0
1	61255	33.01	0
1	61447	33.11	0
1	61639	33.21	0
1	61831	33.31	0
1	62023	33.41	0
1	62215	33.51	0
1	62407	33.61	0
1	62599	33.71	0
1	62791	33.81	0
1	62983	33.91	0
1	63181	34.01	0
1	63373	34.11	0
1	63565	34.21	0
1	63757	34.31	0
1	63949	34.41	0
1	64141	34.51	0
1	64333	34.61	0
1	64525	34.71	0
1	64717	34.81	0
1	64909	34.91	0
1	65107	35.01	0
1	65299	35.11	0
1	65491	35.21	0
1	65683	35.31	0
1	65875	35.41	0
1	66067	35.51	0
1	66259	35.61	0
1	66451	35.71	0
1	66643	35.81	0
1	66835	35.91	0
1	67033	36.01	0
1	67225	36.11	0
1	67417	36.21	0
1	67609	36.31	0
1	67854	36.41	0
1	68045	36.51	0
1	68236	36.61	0
1	68427	36.71	0
1	68618	36.81	0
1	68809	36.91	0
1	69006	37.01	0
1	69197	37.11	0
1	69388	37.21	0
1	69579	37.31	0
1	69770	37.41	0
1	69961	37.51	0
1	70152	37.61	0
1	70343	37.71	0
1	70534	37.81	0
1	70725	37.91	0
1	70922	38.01	0
1	71113	38.11	0
1	71304	38.21	0
1	71495	38.31	0
1	71686	38.41	0
1	71877	38.51	0
1	72068	38.61	0
1	72259	38.71	0
1	72450	38.81	0
1	72641	38.91	0
1	72838	39.01	0
1	73029	39.11	0
1	73220	39.21	0
1	73411	39.31	0
1	73602	39.41	0
1	73793	39.51	0
1	73984	39.61	0
1	74175	39.71	0
1	74366	39.81	0
1	74557	39.91	0
1	74754	40.01	0
1	74945	40.11	0
1	75136	40.21	0
1	75327	40.31	0
1	75518	40.41	0
1	75709	40.51	0
1	75900	40.61	0
1	76091	40.71	0
1	76282	40.81	0
1	76473	40.91	0
1	76670	41.01	0
1	76861	41.11	0
1	77052	41.21	0
1	77243	41.31	0
1	77434	41.41	0
1	77678	41.51	0
1	77868	41.61	0
1	78058	41.71	0
1	78248	41.81	0
1	78438	41.91	0
1	78634	42.01	0
1	78824	42.11	0
1	79014	42.21	0
1	79204	42.31	0
1	79394	42.41	0
1	79584	42.51	0
1	79774	42.61	0
1	79964	42.71	0
1	80154	42.81	0
1	80344	42.91	0
1	80540	43.01	0
1	80730	43.11	0
1	80920	43.21	0
1	81110	43.31	0
1	81300	43.41	0
1	81490	43.51	0
1	81680	43.61	0
1	81870	43.71	0
1	82060	43.81	0
1	82250	43.91	0
1	82446	44.01	0
1	82636	44.11	0
1	82826	44.21	0
1	83016	44.31	0
1	83206	44.41	0
1	83396	44.51	0
1	83586	44.61	0
1	83776	44.71	0
1	83966	44.81	0
1	84156	44.91	0
1	84352	45.01	0
1	84542	45.11	0
1	84732	45.21	0
1	84922	45.31	0
1	85112	45.41	0
1	85302	45.51	0
1	85492	45.61	0
1	85682	45.71	0
1	85938	45.81	0
1	86127	45.91	0
1	86322	46.01	0
1	86511	46.11	0
1	86912	46.21	0
1	87100	46.31	0
1	87288	46.41	0
1	87476	46.51	0
1	87664	46.61	0
1	87852	46.71	0
1	88040	46.81	0
1	88228	46.91	0
1	88422	47.01	0
1	88610	47.11	0
1	88798	47.21	0
1	88986	47.31	0
1	89174	47.41	0
1	89362	47.51	0
1	89550	47.61	0
1	89738	47.71	0
1	89926	47.81	0
1	90114	47.91	0
1	90308	48.01	0
1	90496	48.11	0
1	90684	48.21	0
1	90872	48.31	0
1	91060	48.41	0
1	91248	48.51	0
1	91436	48.61	0
1	91624	48.71	0
1	91812	48.81	0
1	92000	48.91	0
1	92194	49.01	0
1	92382	49.11	0
1	92570	49.21	0
1	92758	49.31	0
1	92946	49.41	0
1	93134	49.51	0
1	93322	49.61	0
1	93510	49.71	0
1	93698	49.81	0
1	93886	49.91	0
1	94080	50.01	0
1	94268	50.11	0
1	94456	50.21	0
1	94644	50.31	0
1	94832	50.41	0
1	95020	50.51	0
1	95208	50.61	0
1	95396	50.71	0
1	95584	50.81	0
1	95772	50.91	0
1	95966	51.01	0
1	96154	51.11	0
1	96342	51.21	0
1	96530	51.31	0
1	96718	51.41	0
1	96906	51.51	0
1	97094	51.61	0
1	97282	51.71	0
1	97470	51.81	0
1	97658	51.91	0
1	97852	52.01	0
1	98040	52.11	0
1	98228	52.21	0
1	98416	52.31	0
1	98604	52.41	0
1	98792	52.51	0
1	98980	52.61	0
1	99168	52.71	0
1	99356	52.81	0
1	99544	52.91	0
1	99738	53.01	0
1	99926	53.11	0
1	100114	53.21	0
1	100302	53.31	0
1	100490	53.41	0
1	100678	53.51	0
1	100866	53.61	0
1	101054	53.71	0
1	101242	53.81	0
1	101430	53.91	0
1	101624	54.01	0
1	101812	54.11	0
1	102000	54.21	0
1	102188	54.31	0
1	102376	54.41	0
1	102564	54.51	0
1	102752	54.61	0
1	102940	54.71	0
1	103128	54.81	0
1	103316	54.91	0
1	103510	55.01	0
1	103698	55.11	0
1	103886	55.21	0
1	104074	55.31	0
1	104262	55.41	0
1	104450	55.51	0
1	104638	55.61	0
1	104826	55.71	0
1	105014	55.81	0
1	105202	55.91	0
1	105396	56.01	0
1	105584	56.11	0
1	105772	56.21	0
1	105960	56.31	0
1	106148	56.41	0
1	106336	56.51	0
1	106524	56.61	0
1	106712	56.71	0
1	106900	56.81	0
1	107088	56.91	0
1	107282	57.01	0
1	107470	57.11	0
1	107658	57.21	0
1	107846	57.31	0
1	108034	57.41	0
1	108222	57.51	0
1	108410	57.61	0
1	108598	57.71	0
1	108786	57.81	0
1	108974	57.91	0
1	109168	58.01	0
1	109356	58.11	0
1	109544	58.21	0
1	109732	58.31	0
1	109920	58.41	0
1	110108	58.51	0
1	110296	58.61	0
1	110484	58.71	0
1	110672	58.81	0
1	110860	58.91	0
1	111054	59.01	0
1	111242	59.11	0
1	111430	59.21	0
1	111618	59.31	0
1	111806	59.41	0
1	111994	59.51	0
1	112182	59.61	0
1	112370	59.71	0
1	112558	59.81	0
1	112746	59.91	0
1	112940	60.01	0
1	113128	60.11	0
1	113316	60.21	0
1	113504	60.31	0
1	113692	60.41	0
1	113880	60.51	0
1	114068	60.61	0
1	114256	60.71	0
1	114444	60.81	0
1	114632	60.91	0
1	114826	61.01	0
1	115014	61.11	0
1	115202	61.21	0
1	115390	61.31	0
1	115578	61.41	0
1	115766	61.51	0
1	115954	61.61	0
1	116142	61.71	0
1	116330	61.81	0
1	116518	61.91	0
1	116712	62.01	0
1	116900	62.11	0
1	117088	62.21	0
1	117276	62.31	0
1	117464	62.41	0
1	117652	62.51	0
1	117840	62.61	0
1	118028	62.71	0
1	118216	62.81	0
1	118404	62.91	0
1	118598	63.01	0
1	118786	63.11	0
1	118974	63.21	0
1	119162	63.31	0
1	119350	63.41	0
1	119538	63.51	0
1	119726	63.61	0
1	119914	63.71	0
1	120102	63.81	0
1	120290	63.91	0
1	120484	64.01	0
1	120672	64.11	0
1	120860	64.21	0
1	121048	64.31	0
1	121236	64.41	0
1	121424	64.51	0
1	121612	64.61	0
1	121800	64.71	0
1	121988	64.81	0
1	122176	64.91	0
1	122370	65.01	0
1	122558	65.11	0
1	122746	65.21	0
1	122934	65.31	0
1	123122	65.41	0
1	123310	65.51	0
1	123498	65.61	0
1	123686	65.71	0
1	123874	65.81	0
1	124062	65.91	0
1	124256	66.01	0
1	124444	66.11	0
1	124632	66.21	0
1	124820	66.31	0
1	125008	66.41	0
1	125196	66.51	0
1	125384	66.61	0
1	125572	66.71	0
1	125760	66.81	0
1	125948	66.91	0
1	126142	67.01	0
1	126330	67.11	0
1	126518	67.21	0
1	126706	67.31	0
1	126894	67.41	0
1	127082	67.51	0
1	127270	67.61	0
1	127458	67.71	0
1	127646	67.81	0
1	127834	67.91	0
1	128028	68.01	0
1	128216	68.11	0
1	128404	68.21	0
1	128592	68.31	0
1	128780	68.41	0
1	128968	68.51	0
1	129156	68.61	0
1	129344	68.71	0
1	129532	68.81	0
1	129720	68.91	0
1	129914	69.01	0
1	130102	69.11	0
1	130290	69.21	1.8889
1	130478	69.31	1.8889
1	130666	69.41	1.8889
1	130854	69.51	1.8889
1	131042	69.61	1.8889
1	131230	69.71	1.8889
1	131418	69.81	1.8889
1	131606	69.91	1.8889
1	131800	70.01	1.8889
1	131988	70.11	1.8889
1	132176	70.21	1.8889
1	132364	70.31	1.8889
1	132552	70.41	1.8889
1	132740	70.51	1.8889
1	132928	70.61	1.8889
1	133116	70.71	1.8889
1	133304	70.81	1.8889
1	133492	70.91	1.8889
1	133686	71.01	1.8889
1	133874	71.11	1.8889
1	134062	71.21	1.8889
1	134250	71.31	1.8889
1	134438	71.41	1.8889
1	134626	71.51	1.8889
1	134814	71.61	1.8889
1	135002	71.71	1.8889
1	135190	71.81	1.8889
1	135378	71.91	1.8889
1	135572	72.01	1.8889
1	135760	72.11	1.8889
1	135948	72.21	1.8889
1	136136	72.31	1.8889
1	136324	72.41	1.8889
1	136512	72.51	1.8889
1	136700	72.61	1.8889
1	136888	72.71	1.8889
1	137076	72.81	1.8889
1	137264	72.91	1.8889
1	137458	73.01	1.8889
1	137646	73.11	1.8889
1	137834	73.21	1.8889
1	138022	73.31	1.8889
1	138210	73.41	1.8889
1	138398	73.51	1.8889
1	138586	73.61	1.8889
1	138774	73.71	1.8889
1	138962	73.81	1.8889
1	139150	73.91	1.8889
1	139344	74.01	1.8889
1	139532	74.11	1.8889
1	139720	74.21	1.8889
1	139908	74.31	1.8889
1	140096	74.41	1.8889
1	140284	74.51	1.8889
1	140472	74.61	1.8889
1	140660	74.71	1.8889
1	140848	74.81	1.8889
1	141036	74.91	1.8889
1	141230	75.01	1.8889
1	141418	75.11	1.8889
1	141606	75.21	1.8889
1	141794	75.31	1.8889
1	141982	75.41	1.8889
1	142170	75.51	1.8889
1	142358	75.61	1.8889
1	142546	75.71	1.8889
1	142734	75.81	1.8889
1	142922	75.91	1.8889
1	143116	76.01	1.8889
1	143304	76.11	1.8889
1	143492	76.21	1.8889
1	143680	76.31	1.8889
1	143868	76.41	1.8889
1	144056	76.51	1.8889
1	144244	76.61	1.8889
1	144432	76.71	1.8889
1	144620	76.81	1.8889
1	144808	76.91	1.8889
1	145002	77.01	1.8889
1	145190	77.11	1.8889
1	145378	77.21	1.8889
1	145566	77.31	1.8889
1	145754	77.41	1.8889
1	145942	77.51	1.8889
1	146130	77.61	1.8889
1	146318	77.71	1.8889
1	146506	77.81	1.8889
1	146694	77.91	1.8889
1	146888	78.01	1.8889
1	147076	78.11	1.8889
1	147264	78.21	1.8889
1	147452	78.31	1.8889
1	147640	78.41	1.8889
1	147828	78.51	1.8889
1	148016	78.61	1.8889
1	148204	78.71	1.8889
1	148392	78.81	1.8889
1	148580	78.91	1.8889
1	148774	79.01	1.8889
1	148962	79.11	1.8889
1	149150	79.21	1.8889
1	149338	79.31	1.8889
1	149526	79.41	1.8889
1	149714	79.51	1.8889
1	149902	79.61	1.8889
1	150090	79.71	1.8889
1	150278	79.81	1.8889
1	150466	79.91	1.8889
1	150660	80.01	1.8889
1	150848	80.11	1.8889
1	151036	80.21	1.8889
1	151224	80.31	1.8889
1	151412	80.41	1.8889
1	151600	80.51	1.8889
1	151788	80.61	1.8889
1	151976	80.71	1.8889
1	152164	80.81	1.8889
1	152352	80.91	1.8889
1	152546	81.01	1.8889
1	152734	81.11	1.8889
1	152922	81.21	1.8889
1	153110	81.31	1.8889
1	153298	81.41	1.8889
1	153486	81.51	1.8889
1	153674	81.61	1.8889
1	153862	81.71	1.8889
1	154050	81.81	1.8889
1	154238	81.91	1.8889
1	154432	82.01	1.8889
1	154620	82.11	1.8889
1	154808	82.21	1.8889
1	154996	82.31	1.8889
1	155184	82.41	1.8889
1	155372	82.51	1.8889
1	155560	82.61	1.8889
1	155748	82.71	1.8889
1	155936	82.81	1.8889
1	156124	82.91	1.8889
1	156318	83.01	1.8889
1	156506	83.11	1.8889
1	156694	83.21	1.8889
1	156882	83.31	1.8889
1	157070	83.41	1.8889
1	157258	83.51	1.8889
1	157446	83.61	1.8889
1	157634	83.71	1.8889
1	157822	83.81	1.8889
1	158010	83.91	1.8889
1	158204	84.01	1.8889
1	158392	84.11	1.8889
1	158580	84.21	1.8889
1	158768	84.31	1.8889
1	158956	84.41	1.8889
1	159144	84.51	1.8889
1	159332	84.61	1.8889
1	159520	84.71	1.8889
1	159708	84.81	1.8889
1	159896	84.91	1.8889
1	160090	85.01	1.8889
1	160278	85.11	1.8889
1	160466	85.21	1.8889
1	160654	85.31	1.8889
1	160842	85.41	1.8889
1	161030	85.51	1.8889
1	161218	85.61	1.8889
1	161406	85.71	1.8889
1	161594	85.81	1.8889
1	161782	85.91	1.8889
1	161976	86.01	1.8889
1	162164	86.11	1.8889
1	162352	86.21	1.8889
1	162540	86.31	1.8889
1	162728	86.41	1.8889
1	162916	86.51	1.8889
1	163104	86.61	1.8889
1	163292	86.71	1.8889
1	163480	86.81	1.8889
1	163668	86.91	1.8889
1	163862	87.01	1.8889
1	164050	87.11	1.8889
1	164238	87.21	1.8889
1	164426	87.31	1.8889
1	164614	87.41	1.8889
1	164802	87.51	1.8889
1	164990	87.61	1.8889
1	165178	87.71	1.8889
1	165366	87.81	1.8889
1	165554	87.91	1.8889
1	165748	88.01	1.8889
1	165936	88.11	1.8889
1	166124	88.21	1.8889
1	166312	88.31	1.8889
1	166500	88.41	1.8889
1	166688	88.51	1.8889
1	166876	88.61	1.8889
1	167064	88.71	1.8889
1	167252	88.81	1.8889
1	167440	88.91	1.8889
1	167634	89.01	1.8889
1	167822	89.11	1.8889
1	168010	89.21	1.8889
1	168198	89.31	1.8889
1	168386	89.41	1.8889
1	168574	89.51	1.8889
1	168762	89.61	1.8889
1	168950	89.71	1.8889
1	169138	89.81	1.8889
1	169326	89.91	1.8889
1	169520	90.01	1.8889
1	169708	90.11	1.8889
1	169896	90.21	1.8889
1	170084	90.31	1.8889
1	170272	90.41	1.8889
1	170460	90.51	1.8889
1	170648	90.61	1.8889
1	170836	90.71	1.8889
1	171024	90.81	1.8889
1	171212	90.91	1.8889
1	171406	91.01	1.8889
1	171594	91.11	1.8889
1	171782	91.21	1.8889
1	171970	91.31	1.8889
1	172158	91.41	1.8889
1	172346	91.51	1.8889
1	172534	91.61	1.8889
1	172722	91.71	1.8889
1	172910	91.81	1.8889
1	173098	91.91	1.8889
1	173292	92.01	1.8889
1	173480	92.11	1.8889
1	173668	92.21	1.8889
1	173856	92.31	1.8889
1	174044	92.41	1.8889
1	174232	92.51	1.8889
1	174420	92.61	1.8889
1	174608	92.71	1.8889
1	174796	92.81	1.8889
1	174984	92.91	1.8889
1	175178	93.01	1.8889
1	175366	93.11	1.8889
1	175554	93.21	1.8889
1	175742	93.31	1.8889
1	175930	93.41	1.8889
1	176118	93.51	1.8889
1	176306	93.61	1.8889
1	176494	93.71	1.8889
1	176682	93.81	1.8889
1	176870	93.91	1.8889
1	177064	94.01	1.8889
1	177252	94.11	1.8889
1	177440	94.21	1.8889
1	177628	94.31	1.8889
1	177816	94.41	1.8889
1	178004	94.51	1.8889
1	178192	94.61	1.8889
1	178380	94.71	1.8889
1	178568	94.81	1.8889
1	178756	94.91	1.8889
1	178950	95.01	1.8889
1	179138	95.11	1.8889
1	179326	95.21	1.8889
1	179514	95.31	1.8889
1	179702	95.41	1.8889
1	179890	95.51	1.8889
1	180078	95.61	1.8889
1	180266	95.71	1.8889
1	180454	95.81	1.8889
1	180642	95.91	1.8889
1	180836	96.01	1.8889
1	181024	96.11	1.8889
1	181212	96.21	1.8889
1	181400	96.31	1.8889
1	181588	96.41	1.8889
1	181776	96.51	1.8889
1	181964	96.61	1.8889
1	182152	96.71	1.8889
1	182340	96.81	1.8889
1	182528	96.91	1.8889
1	182722	97.01	1.8889
1	182910	97.11	1.8889
1	183098	97.21	1.8889
1	183286	97.31	1.8889
1	183474	97.41	1.8889
1	183662	97.51	1.8889
1	183850	97.61	1.8889
1	184038	97.71	1.8889
1	184226	97.81	1.8889
1	184414	97.91	1.8889
1	184608	98.01	1.8889
1	184796	98.11	1.8889
1	184984	98.21	1.8889
1	185172	98.31	1.8889
1	185360	98.41	1.8889
1	185548	98.51	1.8889
1	185736	98.61	1.8889
1	185924	98.71	1.8889
1	186112	98.81	1.8889
1	186300	98.91	1.8889
1	186494	99.01	1.8889
1	186682	99.11	1.8889
1	186870	99.21	1.8889
1	187058	99.31	1.8889
1	187246	99.41	1.8889
1	187434	99.51	1.8889
1	187622	99.61	1.8889
1	187810	99.71	1.8889
1	187998	99.81	1.8889
1	188186	99.91	1.8889
2	113	1.11	0
2	301	1.21	0
2	489	1.31	0
2	677	1.41	0
2	865	1.51	0
2	1053	1.61	0
2	1241	1.71	0
2	1429	1.81	0
2	1617	1.91	0
2	1811	2.01	0
2	1999	2.11	0
2	2187	2.21	0
2	2375	2.31	0
2	2563	2.41	0
2	2751	2.51	0
2	2939	2.61	0
2	3127	2.71	0
2	3315	2.81	0
2	3503	2.91	0
2	3697	3.01	0
2	3885	3.11	0
2	4073	3.21	0
2	4261	3.31	0
2	4449	3.41	0
2	4637	3.51	0
2	4825	3.61	0
2	5013	3.71	0
2	5201	3.81	0
2	5389	3.91	0
2	5583	4.01	0
2	5771	4.11	0
2	5959	4.21	0
2	6147	4.31	0
2	6335	4.41	0
2	6523	4.51	0
2	6711	4.61	0
2	6899	4.71	0
2	7087	4.81	0
2	7275	4.91	0
2	7469	5.01	0
2	7657	5.11	0
2	7845	5.21	0
2	8033	5.31	0
2	8221	5.41	0
2	8409	5.51	0
2	8597	5.61	0
2	8785	5.71	0
2	8973	5.81	0
2	9161	5.91	0
2	9355	6.01	0
2	9543	6.11	0
2	9731	6.21	0
2	9919	6.31	0
2	10107	6.41	0
2	10295	6.51	0
2	10483	6.61	0
2	10671	6.71	0
2	10859	6.81	0
2	11047	6.91	0
2	11241	7.01	0
2	11429	7.11	0
2	11617	7.21	0
2	11805	7.31	0
2	11993	7.41	0
2	12181	7.51	0
2	12369	7.61	0
2	12557	7.71	0
2	12745	7.81	0
2	12933	7.91	0
2	13127	8.01	0
2	13315	8.11	0
2	13503	8.21	0
2	13691	8.31	0
2	13879	8.41	0
2	14067	8.51	0
2	14255	8.61	0
2	14443	8.71	0
2	14631	8.81	0
2	14819	8.91	0
2	15013	9.01	0
2	15201	9.11	0
2	15389	9.21	0
2	15577	9.31	0
2	15765	9.41	0
2	15953	9.51	0
2	16141	9.61	0
2	16329	9.71	0
2	16517	9.81	0
2	16705	9.91	0
2	16957	10.01	0
2	17149	10.11	0
2	17341	10.21	0
2	17533	10.31	0
2	17725	10.41	0
2	17917	10.51	0
2	18109	10.61	0
2	18301	10.71	0
2	18493	10.81	0
2	18685	10.91	0
2	18883	11.01	0
2	19075	11.11	0
2	19267	11.21	0
2	19459	11.31	0
2	19651	11.41	0
2	19843	11.51	0
2	20035	11.61	0
2	20227	11.71	0
2	20419	11.81	0
2	20611	11.91	0
2	20809	12.01	0
2	21001	12.11	0
2	21193	12.21	0
2	21385	12.31	0
2	21577	12.41	0
2	21769	12.51	0
2	21961	12.61	0
2	22153	12.71	0
2	22345	12.81	0
2	22537	12.91	0
2	22735	13.01	0
2	22927	13.11	0
2	23119	13.21	0
2	23311	13.31	0
2	23503	13.41	0
2	23695	13.51	0
2	23887	13.61	0
2	24079	13.71	0
2	24271	13.81	0
2	24463	13.91	0
2	24661	14.01	0
2	24853	14.11	0
2	25045	14.21	0
2	25237	14.31	0
2	25429	14.41	0
2	25621	14.51	0
2	25813	14.61	0
2	26005	14.71	0
2	26197	14.81	0
2	26389	14.91	0
2	26587	15.01	0
2	26779	15.11	0
2	26971	15.21	0
2	27163	15.31	0
2	27355	15.41	0
2	27547	15.51	0
2	27739	15.61	0
2	27931	15.71	0
2	28123	15.81	0
2	28315	15.91	0
2	28513	16.01	0
2	28705	16.11	0
2	28897	16.21	0
2	29089	16.31	0
2	29281	16.41	0
2	29473	16.51	0
2	29665	16.61	0
2	29857	16.71	0
2	30049	16.81	0
2	30241	16.91	0
2	30439	17.01	0
2	30631	17.11	0
2	30823	17.21	0
2	31015	17.31	0
2	31207	17.41	0
2	31399	17.51	0
2	31591	17.61	0
2	31783	17.71	0
2	31975	17.81	0
2	32167	17.91	0
2	32365	18.01	0
2	32557	18.11	0
2	32749	18.21	0
2	32941	18.31	0
2	33133	18.41	0
2	33325	18.51	0
2	33517	18.61	0
2	33709	18.71	0
2	33901	18.81	0
2	34093	18.91	0
2	34291	19.01	0
2	34483	19.11	0
2	34675	19.21	0
2	34867	19.31	0
2	35059	19.41	0
2	35251	19.51	0
2	35443	19.61	0
2	35635	19.71	0
2	35827	19.81	0
2	36019	19.91	0
2	36217	20.01	0
2	36409	20.11	0
2	36601	20.21	0
2	36793	20.31	0
2	36985	20.41	0
2	37177	20.51	0
2	37369	20.61	0
2	37561	20.71	0
2	37753	20.81	0
2	37945	20.91	0
2	38143	21.01	0
2	38335	21.11	0
2	38527	21.21	0
2	38719	21.31	0
2	38911	21.41	0
2	39103	21.51	0
2	39295	21.61	0
2	39487	21.71	0
2	39679	21.81	0
2	39871	21.91	0
2	40069	22.01	0
2	40261	22.11	0
2	40453	22.21	0
2	40645	22.31	0
2	40837	22.41	0
2	41029	22.51	0
2	41221	22.61	0
2	41413	22.71	0
2	41605	22.81	0
2	41797	22.91	0
2	41995	23.01	0
2	42187	23.11	0
2	42379	23.21	0
2	42571	23.31	0
2	42763	23.41	0
2	42955	23.51	0
2	43147	23.61	0
2	43339	23.71	0
2	43531	23.81	0
2	43723	23.91	0
2	43921	24.01	0
2	44113	24.11	0
2	44305	24.21	0
2	44497	24.31	0
2	44689	24.41	0
2	44881	24.51	0
2	45073	24.61	0
2	45265	24.71	0
2	45457	24.81	0
2	45649	24.91	0
2	45847	25.01	0
2	46039	25.11	0
2	46231	25.21	0
2	46423	25.31	0
2	46615	25.41	0
2	46807	25.51	0
2	46999	25.61	0
2	47191	25.71	0
2	47383	25.81	0
2	47575	25.91	0
2	47773	26.01	0
2	47965	26.11	0
2	48157	26.21	0
2	48349	26.31	0
2	48541	26.41	0
2	48733	26.51	0
2	48925	26.61	0
2	49117	26.71	0
2	49309	26.81	0
2	49501	26.91	0
2	49699	27.01	0
2	49891	27.11	0
2	50083	27.21	0
2	50275	27.31	0
2	50467	27.41	0
2	50659	27.51	0
2	50851	27.61	0
2	51043	27.71	0
2	51235	27.81	0
2	51427	27.91	0
2	51625	28.01	0
2	51817	28.11	0
2	52009	28.21	0
2	52201	28.31	0
2	52393	28.41	0
2	52585	28.51	0
2	52777	28.61	0
2	52969	28.71	0
2	53161	28.81	0
2	53353	28.91	0
2	53551	29.01	0
2	53743	29.11	0
2	53935	29.21	0
2	54127	29.31	0
2	54319	29.41	0
2	54511	29.51	0
2	54703	29.61	0
2	54895	29.71	0
2	55087	29.81	0
2	55279	29.91	0
2	55477	30.01	0
2	55669	30.11	0
2	55861	30.21	0
2	56053	30.31	0
2	56245	30.41	0
2	56437	30.51	0
2	56629	30.61	0
2	56821	30.71	0
2	57013	30.81	0
2	57205	30.91	0
2	57403	31.01	0
2	57595	31.11	0
2	57787	31.21	0
2	57979	31.31	0
2	58171	31.41	0
2	58363	31.51	0
2	58555	31.61	0
2	58747	31.71	0
2	58939	31.81	0
2	59131	31.91	0
2	59329	32.01	0
2	59521	32.11	0
2	59713	32.21	0
2	59905	32.31	0
2	60097	32.41	0
2	60289	32.51	0
2	60481	32.61	0
2	60673	32.71	0
2	60865	32.81	0
2	61057	32.91	0
2	61255	33.01	0
2	61447	33.11	0
2	61639	33.21	0
2	61831	33.31	0
2	62023	33.41	0
2	62215	33.51	0
2	62407	33.61	0
2	62599	33.71	0
2	62791	33.81	0
2	62983	33.91	0
2	63181	34.01	0
2	63373	34.11	0
2	63565	34.21	0
2	63757	34.31	0
2	63949	34.41	0
2	64141	34.51	0
2	64333	34.61	0
2	64525	34.71	0
2	64717	34.81	0
2	64909	34.91	0
2	65107	35.01	0
2	65299	35.11	0
2	65491	35.21	0
2	65683	35.31	0
2	65875	35.41	0
2	66067	35.51	0
2	66259	35.61	0
2	66451	35.71	0
2	66643	35.81	0
2	66835	35.91	0
2	67033	36.01	0
2	67225	36.11	0
2	67417	36.21	0
2	67609	36.31	0
2	67854	36.41	0
2	68045	36.51	0
2	68236	36.61	0
2	68427	36.71	0
2	68618	36.81	0
2	68809	36.91	0
2	69006	37.01	0
2	69197	37.11	0
2	69388	37.21	0
2	69579	37.31	0
2	69770	37.41	0
2	69961	37.51	0
2	70152	37.61	0
2	70343	37.71	0
2	70534	37.81	0
2	70725	37.91	0
2	70922	38.01	0
2	71113	38.11	0
2	71304	38.21	0
2	71495	38.31	0
2	71686	38.41	0
2	71877	38.51	0
2	72068	38.61	0
2	72259	38.71	0
2	72450	38.81	0
2	72641	38.91	0
2	72838	39.01	0
2	73029	39.11	0
2	73220	39.21	0
2	73411	39.31	0
2	73602	39.41	0
2	73793	39.51	0
2	73984	39.61	0
2	74175	39.71	0
2	74366	39.81	0
2	74557	39.91	0
2	74754	40.01	0
2	74945	40.11	0
2	75136	40.21	0
2	75327	40.31	0
2	75518	40.41	0
2	75709	40.51	0
2	75900	40.61	0
2	76091	40.71	0
2	76282	40.81	0
2	76473	40.91	0
2	76670	41.01	0
2	76861	41.11	0
2	77052	41.21	0
2	77243	41.31	0
2	77434	41.41	0
2	77678	41.51	0
2	77868	41.61	0
2	78058	41.71	0
2	78248	41.81	0
2	78438	41.91	0
2	78634	42.01	0
2	78824	42.11	0
2	79014	42.21	0
2	79204	42.31	0
2	79394	42.41	0
2	79584	42.51	0
2	79774	42.61	0
2	79964	42.71	0
2	80154	42.81	0
2	80344	42.91	0
2	80540	43.01	0
2	80730	43.11	0
2	80920	43.21	0
2	81110	43.31	0
2	81300	43.41	0
2	81490	43.51	0
2	81680	43.61	0
2	81870	43.71	0
2	82060	43.81	0
2	82250	43.91	0
2	82446	44.01	0
2	82636	44.11	0
2	82826	44.21	0
2	83016	44.31	0
2	83206	44.41	0
2	83396	44.51	0
2	83586	44.61	0
2	83776	44.71	0
2	83966	44.81	0
2	84156	44.91	0
2	84352	45.01	0
2	84542	45.11	0
2	84732	45.21	0
2	84922	45.31	0
2	85112	45.41	0
2	85302	45.51	0
2	85492	45.61	0
2	85682	45.71	0
2	85938	45.81	0
2	86127	45.91	0
2	86322	46.01	0
2	86511	46.11	0
2	86912	46.21	0
2	87100	46.31	0
2	87288	46.41	0
2	87476	46.51	0
2	87664	46.61	0
2	87852	46.71	0
2	88040	46.81	0
2	88228	46.91	0
2	88422	47.01	0
2	88610	47.11	0
2	88798	47.21	0
2	88986	47.31	0
2	89174	47.41	0
2	89362	47.51	0
2	89550	47.61	0
2	89738	47.71	0
2	89926	47.81	0
2	90114	47.91	0
2	90308	48.01	0
2	90496	48.11	0
2	90684	48.21	0
2	90872	48.31	0
2	91060	48.41	0
2	91248	48.51	0
2	91436	48.61	0
2	91624	48.71	0
2	91812	48.81	0
2	92000	48.91	0
2	92194	49.01	0
2	92382	49.11	0
2	92570	49.21	0
2	92758	49.31	0
2	92946	49.41	0
2	93134	49.51	0
2	93322	49.61	0
2	93510	49.71	0
2	93698	49.81	0
2	93886	49.91	0
2	94080	50.01	0
2	94268	50.11	0
2	94456	50.21	0
2	94644	50.31	0
2	94832	50.41	0
2	95020	50.51	0
2	95208	50.61	0
2	95396	50.71	0
2	95584	50.81	0
2	95772	50.91	0
2	95966	51.01	0
2	96154	51.11	0
2	96342	51.21	0
2	96530	51.31	0
2	96718	51.41	0
2	96906	51.51	0
2	97094	51.61	0
2	97282	51.71	0
2	97470	51.81	0
2	97658	51.91	0
2	97852	52.01	0
2	98040	52.11	0
2	98228	52.21	0
2	98416	52.31	0
2	98604	52.41	0
2	98792	52.51	0
2	98980	52.61	0
2	99168	52.71	0
2	99356	52.81	0
2	99544	52.91	0
2	99738	53.01	0
2	99926	53.11	0
2	100114	53.21	0
2	100302	53.31	0
2	100490	53.41	0
2	100678	53.51	0
2	100866	53.61	0
2	101054	53.71	0
2	101242	53.81	0
2	101430	53.91	0
2	101624	54.01	0
2	101812	54.11	0
2	102000	54.21	0
2	102188	54.31	0
2	102376	54.41	0
2	102564	54.51	0
2	102752	54.61	0
2	102940	54.71	0
2	103128	54.81	0
2	103316	54.91	0
2	103510	55.01	0
2	103698	55.11	0
2	103886	55.21	0
2	104074	55.31	0
2	104262	55.41	0
2	104450	55.51	0
2	104638	55.61	0
2	104826	55.71	0
2	105014	55.81	0
2	105202	55.91	0
2	105396	56.01	0
2	105584	56.11	0
2	105772	56.21	0
2	105960	56.31	0
2	106148	56.41	0
2	106336	56.51	0
2	106524	56.61	0
2	106712	56.71	0
2	106900	56.81	0
2	107088	56.91	0
2	107282	57.01	0
2	107470	57.11	0
2	107658	57.21	0
2	107846	57.31	0
2	108034	57.41	0
2	108222	57.51	0
2	108410	57.61	0
2	108598	57.71	0
2	108786	57.81	0
2	108974	57.91	0
2	109168	58.01	0
2	109356	58.11	0
2	109544	58.21	0
2	109732	58.31	0
2	109920	58.41	0
2	110108	58.51	0
2	110296	58.61	0
2	110484	58.71	0
2	110672	58.81	0
2	110860	58.91	0
2	111054	59.01	0
2	111242	59.11	0
2	111430	59.21	0
2	111618	59.31	0
2	111806	59.41	0
2	111994	59.51	0
2	112182	59.61	0
2	112370	59.71	0
2	112558	59.81	0
2	112746	59.91	0
2	112940	60.01	0
2	113128	60.11	0
2	113316	60.21	0
2	113504	60.31	0
2	113692	60.41	0
2	113880	60.51	0
2	114068	60.61	0
2	114256	60.71	0
2	114444	60.81	0
2	114632	60.91	0
2	114826	61.01	0
2	115014	61.11	0
2	115202	61.21	0
2	115390	61.31	0
2	115578	61.41	0
2	115766	61.51	0
2	115954	61.61	0
2	116142	61.71	0
2	116330	61.81	0
2	116518	61.91	0
2	116712	62.01	0
2	116900	62.11	0
2	117088	62.21	0
2	117276	62.31	0
2	117464	62.41	0
2	117652	62.51	0
2	117840	62.61	0
2	118028	62.71	0
2	118216	62.81	0
2	118404	62.91	0
2	118598	63.01	0
2	118786	63.11	0
2	118974	63.21	0
2	119162	63.31	0
2	119350	63.41	0
2	119538	63.51	0
2	119726	63.61	0
2	119914	63.71	0
2	120102	63.81	0
2	120290	63.91	0
2	120484	64.01	0
2	120672	64.11	0
2	120860	64.21	0
2	121048	64.31	0
2	121236	64.41	0
2	121424	64.51	0
2	121612	64.61	0
2	121800	64.71	0
2	121988	64.81	0
2	122176	64.91	0
2	122370	65.01	0
2	122558	65.11	0
2	122746	65.21	0
2	122934	65.31	0
2	123122	65.41	0
2	123310	65.51	0
2	123498	65.61	0
2	123686	65.71	0
2	123874	65.81	0
2	124062	65.91	0
2	124256	66.01	0
2	124444	66.11	0
2	124632	66.21	0
2	124820	66.31	0
2	125008	66.41	0
2	125196	66.51	0
2	125384	66.61	0
2	125572	66.71	0
2	125760	66.81	0
2	125948	66.91	0
2	126142	67.01	0
2	126330	67.11	0
2	126518	67.21	0
2	126706	67.31	0
2	126894	67.41	0
2	127082	67.51	0
2	127270	67.61	0
2	127458	67.71	0
2	127646	67.81	0
2	127834	67.91	0
2	128028	68.01	0
2	128216	68.11	0
2	128404	68.21	0
2	128592	68.31	0
2	128780	68.41	0
2	128968	68.51	0
2	129156	68.61	0
2	129344	68.71	0
2	129532	68.81	0
2	129720	68.91	0
2	129914	69.01	0
2	130102	69.11	0
2	130290	69.21	0
2	130478	69.31	0
2	130666	69.41	0
2	130854	69.51	0
2	131042	69.61	0
2	131230	69.71	0
2	131418	69.81	0
2	131606	69.91	0
2	131800	70.01	0
2	131988	70.11	0
2	132176	70.21	0
2	132364	70.31	0
2	132552	70.41	0
2	132740	70.51	0
2	132928	70.61	0
2	133116	70.71	0
2	133304	70.81	0
2	133492	70.91	0
2	133686	71.01	0
2	133874	71.11	0
2	134062	71.21	0
2	134250	71.31	0
2	134438	71.41	0
2	134626	71.51	0
2	134814	71.61	0
2	135002	71.71	0
2	135190	71.81	0
2	135378	71.91	0
2	135572	72.01	0
2	135760	72.11	0
2	135948	72.21	0
2	136136	72.31	0
2	136324	72.41	0
2	136512	72.51	0
2	136700	72.61	0
2	136888	72.71	0
2	137076	72.81	0
2	137264	72.91	0
2	137458	73.01	0
2	137646	73.11	0
2	137834	73.21	0
2	138022	73.31	0
2	138210	73.41	0
2	138398	73.51	0
2	138586	73.61	0
2	138774	73.71	0
2	138962	73.81	0
2	139150	73.91	0
2	139344	74.01	0
2	139532	74.11	0
2	139720	74.21	0
2	139908	74.31	0
2	140096	74.41	0
2	140284	74.51	0
2	140472	74.61	0
2	140660	74.71	0
2	140848	74.81	0
2	141036	74.91	0
2	141230	75.01	0
2	141418	75.11	0
2	141606	75.21	0
2	141794	75.31	0
2	141982	75.41	0
2	142170	75.51	0
2	142358	75.61	0
2	142546	75.71	0
2	142734	75.81	0
2	142922	75.91	0
2	143116	76.01	0
2	143304	76.11	0
2	143492	76.21	0
2	143680	76.31	0
2	143868	76.41	0
2	144056	76.51	0
2	144244	76.61	0
2	144432	76.71	0
2	144620	76.81	0
2	144808	76.91	0
2	145002	77.01	0
2	145190	77.11	0
2	145378	77.21	0
2	145566	77.31	0
2	145754	77.41	0
2	145942	77.51	0
2	146130	77.61	0
2	146318	77.71	0
2	146506	77.81	0
2	146694	77.91	0
2	146888	78.01	0
2	147076	78.11	0
2	147264	78.21	0
2	147452	78.31	0
2	147640	78.41	0
2	147828	78.51	0
2	148016	78.61	0
2	148204	78.71	0
2	148392	78.81	0
2	148580	78.91	0
2	148774	79.01	0
2	148962	79.11	0
2	149150	79.21	0
2	149338	79.31	0
2	149526	79.41	0
2	149714	79.51	0
2	149902	79.61	0
2	150090	79.71	0
2	150278	79.81	0
2	150466	79.91	0
2	150660	80.01	0
2	150848	80.11	0
2	151036	80.21	0
2	151224	80.31	0
2	151412	80.41	0
2	151600	80.51	0
2	151788	80.61	0
2	151976	80.71	0
2	152164	80.81	0
2	152352	80.91	0
2	152546	81.01	0
2	152734	81.11	0
2	152922	81.21	0
2	153110	81.31	0
2	153298	81.41	0
2	153486	81.51	0
2	153674	81.61	0
2	153862	81.71	0
2	154050	81.81	0
2	154238	81.91	0
2	154432	82.01	0
2	154620	82.11	0
2	154808	82.21	0
2	154996	82.31	0
2	155184	82.41	0
2	155372	82.51	0
2	155560	82.61	0
2	155748	82.71	0
2	155936	82.81	0
2	156124	82.91	0
2	156318	83.01	0
2	156506	83.11	0
2	156694	83.21	0
2	156882	83.31	0
2	157070	83.41	0
2	157258	83.51	0
2	157446	83.61	0
2	157634	83.71	0
2	157822	83.81	0
2	158010	83.91	0
2	158204	84.01	0
2	158392	84.11	0
2	158580	84.21	0
2	158768	84.31	0
2	158956	84.41	0
2	159144	84.51	0
2	159332	84.61	0
2	159520	84.71	0
2	159708	84.81	0
2	159896	84.91	0
2	160090	85.01	0
2	160278	85.11	0
2	160466	85.21	0
2	160654	85.31	0
2	160842	85.41	0
2	161030	85.51	0
2	161218	85.61	0
2	161406	85.71	0
2	161594	85.81	0
2	161782	85.91	0
2	161976	86.01	0
2	162164	86.11	0
2	162352	86.21	0
2	162540	86.31	0
2	162728	86.41	0
2	162916	86.51	0
2	163104	86.61	0
2	163292	86.71	0
2	163480	86.81	0
2	163668	86.91	0
2	163862	87.01	0
2	164050	87.11	0
2	164238	87.21	0
2	164426	87.31	0
2	164614	87.41	0
2	164802	87.51	0
2	164990	87.61	0
2	165178	87.71	0
2	165366	87.81	0
2	165554	87.91	0
2	165748	88.01	0
2	165936	88.11	0
2	166124	88.21	0
2	166312	88.31	0
2	166500	88.41	0
2	166688	88.51	0
2	166876	88.61	0
2	167064	88.71	0
2	167252	88.81	0
2	167440	88.91	0
2	167634	89.01	0
2	167822	89.11	0
2	168010	89.21	0
2	168198	89.31	0
2	168386	89.41	0
2	168574	89.51	0
2	168762	89.61	0
2	168950	89.71	0
2	169138	89.81	0
2	169326	89.91	0
2	169520	90.01	0
2	169708	90.11	0
2	169896	90.21	0
2	170084	90.31	0
2	170272	90.41	0
2	170460	90.51	0
2	170648	90.61	0
2	170836	90.71	0
2	171024	90.81	0
2	171212	90.91	0
2	171406	91.01	0
2	171594	91.11	0
2	171782	91.21	0
2	171970	91.31	0
2	172158	91.41	0
2	172346	91.51	0
2	172534	91.61	0
2	172722	91.71	0
2	172910	91.81	0
2	173098	91.91	0
2	173292	92.01	0
2	173480	92.11	0
2	173668	92.21	0
2	173856	92.31	0
2	174044	92.41	0
2	174232	92.51	0
2	174420	92.61	0
2	174608	92.71	0
2	174796	92.81	0
2	174984	92.91	0
2	175178	93.01	0
2	175366	93.11	0
2	175554	93.21	0
2	175742	93.31	0
2	175930	93.41	0
2	176118	93.51	0
2	176306	93.61	0
2	176494	93.71	0
2	176682	93.81	0
2	176870	93.91	0
2	177064	94.01	0
2	177252	94.11	0
2	177440	94.21	0
2	177628	94.31	0
2	177816	94.41	0
2	178004	94.51	0
2	178192	94.61	0
2	178380	94.71	0
2	178568	94.81	0
2	178756	94.91	0
2	178950	95.01	0
2	179138	95.11	0
2	179326	95.21	0
2	179514	95.31	0
2	179702	95.41	0
2	179890	95.51	0
2	180078	95.61	0
2	180266	95.71	0
2	180454	95.81	0
2	180642	95.91	0
2	180836	96.01	0
2	181024	96.11	0
2	181212	96.21	0
2	181400	96.31	0
2	181588	96.41	0
2	181776	96.51	0
2	181964	96.61	0
2	182152	96.71	0
2	182340	96.81	0
2	182528	96.91	0
2	182722	97.01	0
2	182910	97.11	0
2	183098	97.21	0
2	183286	97.31	0
2	183474	97.41	0
2	183662	97.51	0
2	183850	97.61	0
2	184038	97.71	0
2	184226	97.81	0
2	184414	97.91	0
2	184608	98.01	0
2	184796	98.11	0
2	184984	98.21	0
2	185172	98.31	0
2	185360	98.41	0
2	185548	98.51	0
2	185736	98.61	0
2	185924	98.71	0
2	186112	98.81	0
2	186300	98.91	0
2	186494	99.01	0
2	186682	99.11	0
2	186870	99.21	0
2	187058	99.31	0
2	187246	99.41	0
2	187434	99.51	0
2	187622	99.61	0
2	187810	99.71	0
2	187998	99.81	0
2	188186	99.91	0
3	113	1.11	0.000179096
3	301	1.21	0.000340852
3	489	1.31	0.000467435
3	677	1.41	0.000562893
3	865	1.51	0.000631106
3	1053	1.61	0.000675745
3	1241	1.71	0.000700245
3	1429	1.81	0.000707784
3	1617	1.91	0.000701273
3	1811	2.01	0.000683354
3	1999	2.11	0.000656398
3	2187	2.21	0.000622512
3	2375	2.31	0.000583548
3	2563	2.41	0.000541117
3	2751	2.51	0.000496604
3	2939	2.61	0.000451181
3	3127	2.71	0.000405825
3	3315	2.81	0.00036134
3	3503	2.91	0.000318365
3	3697	3.01	0.0002774
3	3885	3.11	0.00023882
3	4073	3.21	0.000202887
3	4261	3.31	0.00016977
3	4449	3.41	0.000139558
3	4637	3.51	0.000112271
3	4825	3.61	8.78717e-05
3	5013	3.71	6.628e-05
3	5201	3.81	4.73785e-05
3	5389	3.91	3.1023e-05
3	5583	4.01	1.70493e-05
3	5771	4.11	5.28023e-06
3	5959	4.21	-4.46922e-06
3	6147	4.31	-1.2387e-05
3	6335	4.41	-1.86602e-05
3	6523	4.51	-2.34717e-05
3	6711	4.61	-2.69978e-05
3	6899	4.71	-2.94062e-05
3	7087	4.81	-3.08545e-05
3	7275	4.91	-3.14892e-05
3	7469	5.01	-3.14451e-05
3	7657	5.11	-3.0845e-05
3	7845	5.21	-2.97994e-05
3	8033	5.31	-2.84072e-05
3	8221	5.41	-2.67556e-05
3	8409	5.51	-2.49208e-05
3	8597	5.61	-2.29687e-05
3	8785	5.71	-2.09553e-05
3	8973	5.81	-1.89277e-05
3	9161	5.91	-1.6925e-05
3	9355	6.01	-1.49784e-05
3	9543	6.11	-1.31129e-05
3	9731	6.21	-1.13474e-05
3	9919	6.31	-9.69553e-06
3	10107	6.41	-8.16651e-06
3	10295	6.51	-6.76571e-06
3	10483	6.61	-5.49522e-06
3	10671	6.71	-4.35441e-06
3	10859	6.81	-3.34045e-06
3	11047	6.91	-2.44874e-06
3	11241	7.01	-1.6733e-06
3	11429	7.11	-1.00716e-06
3	11617	7.21	-4.42628e-07
3	11805	7.31	2.84224e-08
3	11993	7.41	4.14339e-07
3	12181	7.51	7.23492e-07
3	12369	7.61	9.6413e-07
3	12557	7.71	1.14424e-06
3	12745	7.81	1.27148e-06
3	12933	7.91	1.35305e-06
3	13127	8.01	1.3957e-06
3	13315	8.11	1.40565e-06
3	13503	8.21	1.3886e-06
3	13691	8.31	1.34971e-06
3	13879	8.41	1.2936e-06
3	14067	8.51	1.22437e-06
3	14255	8.61	1.14561e-06
3	14443	8.71	1.06046e-06
3	14631	8.81	9.71582e-07
3	14819	8.91	8.81246e-07
3	15013	9.01	7.91334e-07
3	15201	9.11	7.03381e-07
3	15389	9.21	6.18613e-07
3	15577	9.31	5.37979e-07
3	15765	9.41	4.62183e-07
3	15953	9.51	3.91714e-07
3	16141	9.61	3.26878e-07
3	16329	9.71	2.67827e-07
3	16517	9.81	2.14581e-07
3	16705	9.91	1.67052e-07
3	16957	10.01	1.25066e-07
3	17149	10.11	8.83794e-08
3	17341	10.21	5.66978e-08
3	17533	10.31	2.96922e-08
3	17725	10.41	7.00453e-09
3	17917	10.51	-1.17325e-08
3	18109	10.61	-2.68933e-08
3	18301	10.71	-3.88482e-08
3	18493	10.81	-4.79581e-08
3	18685	10.91	-5.45704e-08
3	18883	11.01	-5.90177e-08
3	19075	11.11	-6.16069e-08
3	19267	11.21	-6.26265e-08
3	19459	11.31	-6.23395e-08
3	19651	11.41	-6.09859e-08
3	19843	11.51	-5.87811e-08
3	20035	11.61	-5.59183e-08
3	20227	11.71	-5.25674e-08
3	20419	11.81	-4.88761e-08
3	20611	11.91	-4.4971e-08
3	20809	12.01	-4.09599e-08
3	21001	12.11	-3.69354e-08
3	21193	12.21	-3.29713e-08
3	21385	12.31	-2.9128e-08
3	21577	12.41	-2.54531e-08
3	21769	12.51	-2.19821e-08
3	21961	12.61	-1.87399e-08
3	22153	12.71	-1.57428e-08
3	22345	12.81	-1.30029e-08
3	22537	12.91	-1.05217e-08
3	22735	13.01	-8.29772e-09
3	22927	13.11	-6.32454e-09
3	23119	13.21	-4.59224e-09
3	23311	13.31	-3.08802e-09
3	23503	13.41	-1.79838e-09
3	23695	13.51	-7.08411e-10
3	23887	13.61	1.98241e-10
3	24079	13.71	9.37916e-10
3	24271	13.81	1.52767e-09
3	24463	13.91	1.98384e-09
3	24661	14.01	2.32276e-09
3	24853	14.11	2.55937e-09
3	25045	14.21	2.70788e-09
3	25237	14.31	2.78249e-09
3	25429	14.41	2.79243e-09
3	25621	14.51	2.7498e-09
3	25813	14.61	2.66525e-09
3	26005	14.71	2.54872e-09
3	26197	14.81	2.40803e-09
3	26389	14.91	2.24887e-09
3	26587	15.01	2.07763e-09
3	26779	15.11	1.89999e-09
3	26971	15.21	1.72236e-09
3	27163	15.31	1.54472e-09
3	27355	15.41	1.37064e-09
3	27547	15.51	1.20295e-09
3	27739	15.61	1.04379e-09
3	27931	15.71	8.94573e-10
3	28123	15.81	7.56017e-10
3	28315	15.91	6.29541e-10
3	28513	16.01	5.13012e-10
3	28705	16.11	4.09273e-10
3	28897	16.21	3.16902e-10
3	29089	16.31	2.3519e-10
3	29281	16.41	1.63425e-10
3	29473	16.51	1.02318e-10
3	29665	16.61	4.9738e-11
3	29857	16.71	5.68434e-12
3	30049	16.81	-3.05533e-11
3	30241	16.91	-5.8975e-11
3	30439	17.01	-8.10019e-11
3	30631	17.11	-9.80549e-11
3	30823	17.21	-1.11555e-10
3	31015	17.31	-1.18661e-10
3	31207	17.41	-1.23634e-10
3	31399	17.51	-1.23634e-10
3	31591	17.61	-1.23634e-10
3	31783	17.71	-1.21503e-10
3	31975	17.81	-1.14397e-10
3	32167	17.91	-1.07292e-10
3	32365	18.01	-1.00187e-10
3	32557	18.11	-9.30811e-11
3	32749	18.21	-8.59757e-11
3	32941	18.31	-7.88702e-11
3	33133	18.41	-7.17648e-11
3	33325	18.51	-6.46594e-11
3	33517	18.61	-5.7554e-11
3	33709	18.71	-5.04485e-11
3	33901	18.81	-4.33431e-11
3	34093	18.91	-3.62377e-11
3	34291	19.01	-2.91323e-11
3	34483	19.11	-2.20268e-11
3	34675	19.21	-1.7053e-11
3	34867	19.31	-1.49214e-11
3	35059	19.41	-1.35003e-11
3	35251	19.51	-1.27898e-11
3	35443	19.61	-1.13687e-11
3	35635	19.71	-9.9476e-12
3	35827	19.81	-9.23706e-12
3	36019	19.91	-8.52651e-12
3	36217	20.01	-7.81597e-12
3	36409	20.11	-7.10543e-12
3	36601	20.21	-6.39488e-12
3	36793	20.31	-5.68434e-12
3	36985	20.41	-4.9738e-12
3	37177	20.51	-4.26326e-12
3	37369	20.61	-4.26326e-12
3	37561	20.71	-3.55271e-12
3	37753	20.81	-3.55271e-12
3	37945	20.91	-2.84217e-12
3	38143	21.01	-2.84217e-12
3	38335	21.11	-2.84217e-12
3	38527	21.21	-2.13163e-12
3	38719	21.31	-2.13163e-12
3	38911	21.41	-2.13163e-12
3	39103	21.51	-1.42109e-12
3	39295	21.61	-1.42109e-12
3	39487	21.71	-1.42109e-12
3	39679	21.81	-1.42109e-12
3	39871	21.91	-1.42109e-12
3	40069	22.01	-7.10543e-13
3	40261	22.11	-7.10543e-13
3	40453	22.21	-7.10543e-13
3	40645	22.31	-7.10543e-13
3	40837	22.41	-7.10543e-13
3	41029	22.51	-7.10543e-13
3	41221	22.61	-7.10543e-13
3	41413	22.71	-7.10543e-13
3	41605	22.81	-7.10543e-13
3	41797	22.91	-7.10543e-13
3	41995	23.01	0
3	42187	23.11	0
3	42379	23.21	0
3	42571	23.31	0
3	42763	23.41	0
3	42955	23.51	0
3	43147	23.61	0
3	43339	23.71	0
3	43531	23.81	0
3	43723	23.91	0
3	43921	24.01	0
3	44113	24.11	0
3	44305	24.21	0
3	44497	24.31	0
3	44689	24.41	0
3	44881	24.51	0
3	45073	24.61	0
3	45265	24.71	0
3	45457	24.81	0
3	45649	24.91	0
3	45847	25.01	0
3	46039	25.11	0
3	46231	25.21	0
3	46423	25.31	0
3	46615	25.41	0
3	46807	25.51	0
3	46999	25.61	0
3	47191	25.71	0
3	47383	25.81	0
3	47575	25.91	0
3	47773	26.01	0
3	47965	26.11	0
3	48157	26.21	0
3	48349	26.31	0
3	48541	26.41	0
3	48733	26.51	0
3	48925	26.61	0
3	49117	26.71	0
3	49309	26.81	0
3	49501	26.91	0
3	49699	27.01	0
3	49891	27.11	0
3	50083	27.21	0
3	50275	27.31	0
3	50467	27.41	0
3	50659	27.51	0
3	50851	27.61	0
3	51043	27.71	0
3	51235	27.81	0
3	51427	27.91	0
3	51625	28.01	0
3	51817	28.11	0
3	52009	28.21	0
3	52201	28.31	0
3	52393	28.41	0
3	52585	28.51	0
3	52777	28.61	0
3	52969	28.71	0
3	53161	28.81	0
3	53353	28.91	0
3	53551	29.01	0
3	53743	29.11	0
3	53935	29.21	0
3	54127	29.31	0
3	54319	29.41	0
3	54511	29.51	0
3	54703	29.61	0
3	54895	29.71	0
3	55087	29.81	0
3	55279	29.91	0
3	55477	30.01	0
3	55669	30.11	0
3	55861	30.21	0
3	56053	30.31	0
3	56245	30.41	0
3	56437	30.51	0
3	56629	30.61	0
3	56821	30.71	0
3	57013	30.81	0
3	57205	30.91	0
3	57403	31.01	0
3	57595	31.11	0
3	57787	31.21	0
3	57979	31.31	0
3	58171	31.41	0
3	58363	31.51	0
3	58555	31.61	0
3	58747	31.71	0
3	58939	31.81	0
3	59131	31.91	0
3	59329	32.01	0
3	59521	32.11	0
3	59713	32.21	0
3	59905	32.31	0
3	60097	32.41	0
3	60289	32.51	0
3	60481	32.61	0
3	60673	32.71	0
3	60865	32.81	0
3	61057	32.91	0
3	61255	33.01	0
3	61447	33.11	0
3	61639	33.21	0
3	61831	33.31	0
3	62023	33.41	0
3	62215	33.51	0
3	62407	33.61	0
3	62599	33.71	0
3	62791	33.81	0
3	62983	33.91	0
3	63181	34.01	0
3	63373	34.11	0
3	63565	34.21	0
3	63757	34.31	0
3	63949	34.41	0
3	64141	34.51	0
3	64333	34.61	0
3	64525	34.71	0
3	64717	34.81	0
3	64909	34.91	0
3	65107	35.01	0
3	65299	35.11	0
3	65491	35.21	0
3	65683	35.31	0
3	65875	35.41	0
3	66067	35.51	0
3	66259	35.61	0
3	66451	35.71	0
3	66643	35.81	0
3	66835	35.91	0
3	67033	36.01	0
3	67225	36.11	0
3	67417	36.21	0
3	67609	36.31	0
3	67854	36.41	0
3	68045	36.51	0
3	68236	36.61	0
3	68427	36.71	0
3	68618	36.81	0
3	68809	36.91	0
3	69006	37.01	0
3	69197	37.11	0
3	69388	37.21	0
3	69579	37.31	0
3	69770	37.41	0
3	69961	37.51	0
3	70152	37.61	0
3	70343	37.71	0
3	70534	37.81	0
3	70725	37.91	0
3	70922	38.01	0
3	71113	38.11	0
3	71304	38.21	0
3	71495	38.31	0
3	71686	38.41	0
3	71877	38.51	0
3	72068	38.61	0
3	72259	38.71	0
3	72450	38.81	0
3	72641	38.91	0
3	72838	39.01	0
3	73029	39.11	0
3	73220	39.21	0
3	73411	39.31	0
3	73602	39.41	0
3	73793	39.51	0
3	73984	39.61	0
3	74175	39.71	0
3	74366	39.81	0
3	74557	39.91	0
3	74754	40.01	0
3	74945	40.11	0
3	75136	40.21	0
3	75327	40.31	0
3	75518	40.41	0
3	75709	40.51	0
3	75900	40.61	0
3	76091	40.71	0
3	76282	40.81	0
3	76473	40.91	0
3	76670	41.01	0
3	76861	41.11	0
3	77052	41.21	0
3	77243	41.31	0
3	77434	41.41	0
3	77678	41.51	0
3	77868	41.61	0
3	78058	41.71	0
3	78248	41.81	0
3	78438	41.91	0
3	78634	42.01	0
3	78824	42.11	0
3	79014	42.21	0
3	79204	42.31	0
3	79394	42.41	0
3	79584	42.51	0
3	79774	42.61	0
3	79964	42.71	0
3	80154	42.81	0
3	80344	42.91	0
3	80540	43.01	0
3	80730	43.11	0
3	80920	43.21	0
3	81110	43.31	0
3	81300	43.41	0
3	81490	43.51	0
3	81680	43.61	0
3	81870	43.71	0
3	82060	43.81	0
3	82250	43.91	0
3	82446	44.01	0
3	82636	44.11	0
3	82826	44.21	0
3	83016	44.31	0
3	83206	44.41	0
3	83396	44.51	0
3	83586	44.61	0
3	83776	44.71	0
3	83966	44.81	0
3	84156	44.91	0
3	84352	45.01	0
3	84542	45.11	0
3	84732	45.21	0
3	84922	45.31	0
3	85112	45.41	0
3	85302	45.51	0
3	85492	45.61	0
3	85682	45.71	0
3	85938	45.81	0
3	86127	45.91	0
3	86322	46.01	0
3	86511	46.11	0
3	86912	46.21	0
3	87100	46.31	0
3	87288	46.41	0
3	87476	46.51	0
3	87664	46.61	0
3	87852	46.71	0
3	88040	46.81	0
3	88228	46.91	0
3	88422	47.01	0
3	88610	47.11	0
3	88798	47.21	0
3	88986	47.31	0
3	89174	47.41	0
3	89362	47.51	0
3	89550	47.61	0
3	89738	47.71	0
3	89926	47.81	0
3	90114	47.91	0
3	90308	48.01	0
3	90496	48.11	0
3	90684	48.21	0
3	90872	48.31	0
3	91060	48.41	0
3	91248	48.51	0
3	91436	48.61	0
3	91624	48.71	0
3	91812	48.81	0
3	92000	48.91	0
3	92194	49.01	0
3	92382	49.11	0
3	92570	49.21	0
3	92758	49.31	0
3	92946	49.41	0
3	93134	49.51	0
3	93322	49.61	0
3	93510	49.71	0
3	93698	49.81	0
3	93886	49.91	0
3	94080	50.01	0
3	94268	50.11	0
3	94456	50.21	0
3	94644	50.31	0
3	94832	50.41	0
3	95020	50.51	0
3	95208	50.61	0
3	95396	50.71	0
3	95584	50.81	0
3	95772	50.91	0
3	95966	51.01	0
3	96154	51.11	0
3	96342	51.21	0
3	96530	51.31	0
3	96718	51.41	0
3	96906	51.51	0
3	97094	51.61	0
3	97282	51.71	0
3	97470	51.81	0
3	97658	51.91	0
3	97852	52.01	0
3	98040	52.11	0
3	98228	52.21	0
3	98416	52.31	0
3	98604	52.41	0
3	98792	52.51	0
3	98980	52.61	0
3	99168	52.71	0
3	99356	52.81	0
3	99544	52.91	0
3	99738	53.01	0
3	99926	53.11	0
3	100114	53.21	0
3	100302	53.31	0
3	100490	53.41	0
3	100678	53.51	0
3	100866	53.61	0
3	101054	53.71	0
3	101242	53.81	0
3	101430	53.91	0
3	101624	54.01	0
3	101812	54.11	0
3	102000	54.21	0
3	102188	54.31	0
3	102376	54.41	0
3	102564	54.51	0
3	102752	54.61	0
3	102940	54.71	0
3	103128	54.81	0
3	103316	54.91	0
3	103510	55.01	0
3	103698	55.11	0
3	103886	55.21	0
3	104074	55.31	0
3	104262	55.41	0
3	104450	55.51	0
3	104638	55.61	0
3	104826	55.71	0
3	105014	55.81	0
3	105202	55.91	0
3	105396	56.01	0
3	105584	56.11	0
3	105772	56.21	0
3	105960	56.31	0
3	106148	56.41	0
3	106336	56.51	0
3	106524	56.61	0
3	106712	56.71	0
3	106900	56.81	0
3	107088	56.91	0
3	107282	57.01	0
3	107470	57.11	0
3	107658	57.21	0
3	107846	57.31	0
3	108034	57.41	0
3	108222	57.51	0
3	108410	57.61	0
3	108598	57.71	0
3	108786	57.81	0
3	108974	57.91	0
3	109168	58.01	0
3	109356	58.11	0
3	109544	58.21	0
3	109732	58.31	0
3	109920	58.41	0
3	110108	58.51	0
3	110296	58.61	0
3	110484	58.71	0
3	110672	58.81	0
3	110860	58.91	0
3	111054	59.01	0
3	111242	59.11	0
3	111430	59.21	0
3	111618	59.31	0
3	111806	59.41	0
3	111994	59.51	0
3	112182	59.61	0
3	112370	59.71	0
3	112558	59.81	0
3	112746	59.91	0
3	112940	60.01	0
3	113128	60.11	0
3	113316	60.21	0
3	113504	60.31	0
3	113692	60.41	0
3	113880	60.51	0
3	114068	60.61	0
3	114256	60.71	0
3	114444	60.81	0
3	114632	60.91	0
3	114826	61.01	0
3	115014	61.11	0
3	115202	61.21	0
3	115390	61.31	0
3	115578	61.41	0
3	115766	61.51	0
3	115954	61.61	0
3	116142	61.71	0
3	116330	61.81	0
3	116518	61.91	0
3	116712	62.01	0
3	116900	62.11	0
3	117088	62.21	0
3	117276	62.31	0
3	117464	62.41	0
3	117652	62.51	0
3	117840	62.61	0
3	118028	62.71	0
3	118216	62.81	0
3	118404	62.91	0
3	118598	63.01	0
3	118786	63.11	0
3	118974	63.21	0
3	119162	63.31	0
3	119350	63.41	0
3	119538	63.51	0
3	119726	63.61	0
3	119914	63.71	0
3	120102	63.81	0
3	120290	63.91	0
3	120484	64.01	0
3	120672	64.11	0
3	120860	64.21	0
3	121048	64.31	0
3	121236	64.41	0
3	121424	64.51	0
3	121612	64.61	0
3	121800	64.71	0
3	121988	64.81	0
3	122176	64.91	0
3	122370	65.01	0
3	122558	65.11	0
3	122746	65.21	0
3	122934	65.31	0
3	123122	65.41	0
3	123310	65.51	0
3	123498	65.61	0
3	123686	65.71	0
3	123874	65.81	0
3	124062	65.91	0
3	124256	66.01	0
3	124444	66.11	0
3	124632	66.21	0
3	124820	66.31	0
3	125008	66.41	0
3	125196	66.51	0
3	125384	66.61	0
3	125572	66.71	0
3	125760	66.81	0
3	125948	66.91	0
3	126142	67.01	0
3	126330	67.11	0
3	126518	67.21	0
3	126706	67.31	0
3	126894	67.41	0
3	127082	67.51	0
3	127270	67.61	0
3	127458	67.71	0
3	127646	67.81	0
3	127834	67.91	0
3	128028	68.01	0
3	128216	68.11	0
3	128404	68.21	0
3	128592	68.31	0
3	128780	68.41	0
3	128968	68.51	0
3	129156	68.61	0
3	129344	68.71	0
3	129532	68.81	0
3	129720	68.91	0
3	129914	69.01	0
3	130102	69.11	0
3	130290	69.21	0
3	130478	69.31	0
3	130666	69.41	0
3	130854	69.51	0
3	131042	69.61	0
3	131230	69.71	0
3	131418	69.81	0
3	131606	69.91	0
3	131800	70.01	0
3	131988	70.11	0
3	132176	70.21	0
3	132364	70.31	0
3	132552	70.41	0
3	132740	70.51	0
3	132928	70.61	0
3	133116	70.71	0
3	133304	70.81	0
3	133492	70.91	0
3	133686	71.01	0
3	133874	71.11	0
3	134062	71.21	0
3	134250	71.31	0
3	134438	71.41	0
3	134626	71.51	0
3	134814	71.61	0
3	135002	71.71	0
3	135190	71.81	0
3	135378	71.91	0
3	135572	72.01	0
3	135760	72.11	0
3	135948	72.21	0
3	136136	72.31	0
3	136324	72.41	0
3	136512	72.51	0
3	136700	72.61	0
3	136888	72.71	0
3	137076	72.81	0
3	137264	72.91	0
3	137458	73.01	0
3	137646	73.11	0
3	137834	73.21	0
3	138022	73.31	0
3	138210	73.41	0
3	138398	73.51	0
3	138586	73.61	0
3	138774	73.71	0
3	138962	73.81	0
3	139150	73.91	0
3	139344	74.01	0
3	139532	74.11	0
3	139720	74.21	0
3	139908	74.31	0
3	140096	74.41	0
3	140284	74.51	0
3	140472	74.61	0
3	140660	74.71	0
3	140848	74.81	0
3	141036	74.91	0
3	141230	75.01	0
3	141418	75.11	0
3	141606	75.21	0
3	141794	75.31	0
3	141982	75.41	0
3	142170	75.51	0
3	142358	75.61	0
3	142546	75.71	0
3	142734	75.81	0
3	142922	75.91	0
3	143116	76.01	0
3	143304	76.11	0
3	143492	76.21	0
3	143680	76.31	0
3	143868	76.41	0
3	144056	76.51	0
3	144244	76.61	0
3	144432	76.71	0
3	144620	76.81	0
3	144808	76.91	0
3	145002	77.01	0
3	145190	77.11	0
3	145378	77.21	0
3	145566	77.31	0
3	145754	77.41	0
3	145942	77.51	0
3	146130	77.61	0
3	146318	77.71	0
3	146506	77.81	0
3	146694	77.91	0
3	146888	78.01	0
3	147076	78.11	0
3	147264	78.21	0
3	147452	78.31	0
3	147640	78.41	0
3	147828	78.51	0
3	148016	78.61	0
3	148204	78.71	0
3	148392	78.81	0
3	148580	78.91	0
3	148774	79.01	0
3	148962	79.11	0
3	149150	79.21	0
3	149338	79.31	0
3	149526	79.41	0
3	149714	79.51	0
3	149902	79.61	0
3	150090	79.71	0
3	150278	79.81	0
3	150466	79.91	0
3	150660	80.01	0
3	150848	80.11	0
3	151036	80.21	0
3	151224	80.31	0
3	151412	80.41	0
3	151600	80.51	0
3	151788	80.61	0
3	151976	80.71	0
3	152164	80.81	0
3	152352	80.91	0
3	152546	81.01	0
3	152734	81.11	0
3	152922	81.21	0
3	153110	81.31	0
3	153298	81.41	0
3	153486	81.51	0
3	153674	81.61	0
3	153862	81.71	0
3	154050	81.81	0
3	154238	81.91	0
3	154432	82.01	0
3	154620	82.11	0
3	154808	82.21	0
3	154996	82.31	0
3	155184	82.41	0
3	155372	82.51	0
3	155560	82.61	0
3	155748	82.71	0
3	155936	82.81	0
3	156124	82.91	0
3	156318	83.01	0
3	156506	83.11	0
3	156694	83.21	0
3	156882	83.31	0
3	157070	83.41	0
3	157258	83.51	0
3	157446	83.61	0
3	157634	83.71	0
3	157822	83.81	0
3	158010	83.91	0
3	158204	84.01	0
3	158392	84.11	0
3	158580	84.21	0
3	158768	84.31	0
3	158956	84.41	0
3	159144	84.51	0
3	159332	84.61	0
3	159520	84.71	0
3	159708	84.81	0
3	159896	84.91	0
3	160090	85.01	0
3	160278	85.11	0
3	160466	85.21	0
3	160654	85.31	0
3	160842	85.41	0
3	161030	85.51	0
3	161218	85.61	0
3	161406	85.71	0
3	161594	85.81	0
3	161782	85.91	0
3	161976	86.01	0
3	162164	86.11	0
3	162352	86.21	0
3	162540	86.31	0
3	162728	86.41	0
3	162916	86.51	0
3	163104	86.61	0
3	163292	86.71	0
3	163480	86.81	0
3	163668	86.91	0
3	163862	87.01	0
3	164050	87.11	0
3	164238	87.21	0
3	164426	87.31	0
3	164614	87.41	0
3	164802	87.51	0
3	164990	87.61	0
3	165178	87.71	0
3	165366	87.81	0
3	165554	87.91	0
3	165748	88.01	0
3	165936	88.11	0
3	166124	88.21	0
3	166312	88.31	0
3	166500	88.41	0
3	166688	88.51	0
3	166876	88.61	0
3	167064	88.71	0
3	167252	88.81	0
3	167440	88.91	0
3	167634	89.01	0
3	167822	89.11	0
3	168010	89.21	0
3	168198	89.31	0
3	168386	89.41	0
3	168574	89.51	0
3	168762	89.61	0
3	168950	89.71	0
3	169138	89.81	0
3	169326	89.91	0
3	169520	90.01	0
3	169708	90.11	0
3	169896	90.21	0
3	170084	90.31	0
3	170272	90.41	0
3	170460	90.51	0
3	170648	90.61	0
3	170836	90.71	0
3	171024	90.81	0
3	171212	90.91	0
3	171406	91.01	0
3	171594	91.11	0
3	171782	91.21	0
3	171970	91.31	0
3	172158	91.41	0
3	172346	91.51	0
3	172534	91.61	0
3	172722	91.71	0
3	172910	91.81	0
3	173098	91.91	0
3	173292	92.01	0
3	173480	92.11	0
3	173668	92.21	0
3	173856	92.31	0
3	174044	92.41	0
3	174232	92.51	0
3	174420	92.61	0
3	174608	92.71	0
3	174796	92.81	0
3	174984	92.91	0
3	175178	93.01	0
3	175366	93.11	0
3	175554	93.21	0
3	175742	93.31	0
3	175930	93.41	0
3	176118	93.51	0
3	176306	93.61	0
3	176494	93.71	0
3	176682	93.81	0
3	176870	93.91	0
3	177064	94.01	0
3	177252	94.11	0
3	177440	94.21	0
3	177628	94.31	0
3	177816	94.41	0
3	178004	94.51	0
3	178192	94.61	0
3	178380	94.71	0
3	178568	94.81	0
3	178756	94.91	0
3	178950	95.01	0
3	179138	95.11	0
3	179326	95.21	0
3	179514	95.31	0
3	179702	95.41	0
3	179890	95.51	0
3	180078	95.61	0
[...]
71	53458	29	0.012494755603
71	55384	30	0.012494736946
71	57310	31	0.012481720348
71	59236	32	0.012494705625
71	61162	33	0.012494692591
71	63088	34	0.01248168107
71	65014	35	0.012494670905
71	66940	36	0.012494661941
71	68914	37	0.01259859467
71	70830	38	0.012481647114
71	72746	39	0.012494641013
71	74662	40	0.012494635661
71	76578	41	0.012481630966
71	78543	42	0.012644626845
71	80449	43	0.012481623238
71	82355	44	0.012494620084
71	84261	45	0.012494617317
71	86232	46	0.012481614901
71	88333	47	0.012968217211
71	90219	48	0.012494366308
71	92105	49	0.012493891503
71	93991	50	0.012493387823
71	95877	51	0.012479985597
71	97763	52	0.012492769363
71	99649	53	0.0124926575
71	101535	54	0.01249258183
71	103421	55	0.012479532557
71	105307	56	0.012492499386
71	107193	57	0.012492451347
71	109079	58	0.012492413332
71	110965	59	0.012492384554
71	112851	60	0.012492364032
71	114737	61	0.012479350645
71	116623	62	0.012492341564
71	118509	63	0.012492333508
71	120395	64	0.012492325207
71	122281	65	0.0124923166
71	124167	66	0.012479307827
71	126053	67	0.012492298941
71	127939	68	0.01249228994
71	129825	69	0.012492280803
71	131711	70	0.012492259686
71	133597	71	0.01249224839
71	135483	72	0.012479238959
71	137369	73	0.012492229278
71	139255	74	0.012492219319
71	141141	75	0.012492209033
71	143027	76	0.012492198372
71	144913	77	0.012492187272
71	146799	78	0.012479175645
71	148685	79	0.012492163388
71	150571	80	0.012492150352
71	152457	81	0.01249213638
71	154343	82	0.012492121215
71	156229	83	0.012492104546
71	158115	84	0.012479085903
71	160001	85	0.012492064646
71	161887	86	0.012492039848
71	163773	87	0.012492010153
71	165659	88	0.012491973716
71	167545	89	0.012491928395
71	169431	90	0.012478872445
71	171317	91	0.012491805432
71	173203	92	0.012491728293
71	175089	93	0.012491642578
71	176975	94	0.012491549798
71	178861	95	0.012491451205
71	180747	96	0.01249134786
71	182633	97	0.012491240638
71	184519	98	0.012491130283
71	186405	99	0.012478017387
71	188291	100	0.01249090245
72	1722	2	0
72	3608	3	0
72	5494	4	0
72	7380	5	0
72	9266	6	0
72	11152	7	0
72	13038	8	0
72	14924	9	0
72	16812	10	0
72	18790	11	0
72	20716	12	0
72	22642	13	0
72	24568	14	0
72	26494	15	0
72	28420	16	0
72	30346	17	0
72	32272	18	0
72	34198	19	0
72	36124	20	0
72	38050	21	0
72	39976	22	0
72	41902	23	0
72	43828	24	0
72	45754	25	0
72	47680	26	0
72	49606	27	0
72	51532	28	0
72	53458	29	0
72	55384	30	0
72	57310	31	0
72	59236	32	0
72	61162	33	0
72	63088	34	0
72	65014	35	0
72	66940	36	0
72	68914	37	0
72	70830	38	0
72	72746	39	0
72	74662	40	0
72	76578	41	0
72	78543	42	0
72	80449	43	0
72	82355	44	0
72	84261	45	0
72	86232	46	0
72	88333	47	0
72	90219	48	0
72	92105	49	0
72	93991	50	0
72	95877	51	0
72	97763	52	0
72	99649	53	0
72	101535	54	0
72	103421	55	0
72	105307	56	0
72	107193	57	0
72	109079	58	0
72	110965	59	0
72	112851	60	0
72	114737	61	0
72	116623	62	0
72	118509	63	0
72	120395	64	0
72	122281	65	0
72	124167	66	0
72	126053	67	0
72	127939	68	0
72	129825	69	0
72	131711	70	0
72	133597	71	0
72	135483	72	0
72	137369	73	0
72	139255	74	0
72	141141	75	0
72	143027	76	0
72	144913	77	0
72	146799	78	0
72	148685	79	0
72	150571	80	0
72	152457	81	0
72	154343	82	0
72	156229	83	0
72	158115	84	0
72	160001	85	0
72	161887	86	0
72	163773	87	0
72	165659	88	0
72	167545	89	0
72	169431	90	0
72	171317	91	0
72	173203	92	0
72	175089	93	0
72	176975	94	0
72	178861	95	0
72	180747	96	0
72	182633	97	0
72	184519	98	0
72	186405	99	0
72	188291	100	0
73	1723	2	3
73	3609	3	3
73	5495	4	3
73	7381	5	3
73	9267	6	3
73	11153	7	3
73	13039	8	3
73	14925	9	3
73	16813	10	3
73	18791	11	3
73	20717	12	3
73	22643	13	3
73	24569	14	3
73	26495	15	3
73	28421	16	3
73	30347	17	3
73	32273	18	3
73	34199	19	3
73	36125	20	3
73	38051	21	3
73	39977	22	3
73	41903	23	3
73	43829	24	3
73	45755	25	3
73	47681	26	3
73	49607	27	3
73	51533	28	3
73	53459	29	3
73	55385	30	3
73	57311	31	3
73	59237	32	3
73	61163	33	3
73	63089	34	3
73	65015	35	3
73	66941	36	3
73	68915	37	3
73	70831	38	3
73	72747	39	3
73	74663	40	3
73	76579	41	3
73	78544	42	3
73	80450	43	3
73	82356	44	3
73	84262	45	3
73	86233	46	3
73	88334	47	3
73	90220	48	3
73	92106	49	3
73	93992	50	3
73	95878	51	3
73	97764	52	3
73	99650	53	3
73	101536	54	3
73	103422	55	3
73	105308	56	3
73	107194	57	3
73	109080	58	3
73	110966	59	3
73	112852	60	3
73	114738	61	3
73	116624	62	3
73	118510	63	3
73	120396	64	3
73	122282	65	3
73	124168	66	3
73	126054	67	3
73	127940	68	3
73	129826	69	3
73	131712	70	3
73	133598	71	3
73	135484	72	3
73	137370	73	3
73	139256	74	3
73	141142	75	3
73	143028	76	3
73	144914	77	3
73	146800	78	3
73	148686	79	3
73	150572	80	3
73	152458	81	3
73	154344	82	3
73	156230	83	3
73	158116	84	3
73	160002	85	3
73	161888	86	3
73	163774	87	3
73	165660	88	3
73	167546	89	3
73	169432	90	3
73	171318	91	3
73	173204	92	3
73	175090	93	3
73	176976	94	3
73	178862	95	3
73	180748	96	3
73	182634	97	3
73	184520	98	3
73	186406	99	3
73	188292	100	3
74	1723	2	0.010809619034
74	3609	3	0.01248239888
74	5495	4	0.012495398873
74	7381	5	0.01248239886
74	9267	6	0.01249539886
74	11153	7	0.01249539886
74	13039	8	0.01248239886
74	14925	9	0.01249539886
74	16813	10	0.01248239886
74	18791	11	0.012540358022
74	20717	12	0.012495388792
74	22643	13	0.012482365784
74	24569	14	0.012495331255
74	26495	15	0.012482288779
74	28421	16	0.012495241512
74	30347	17	0.012495191953
74	32273	18	0.012482141998
74	34199	19	0.012495093028
74	36125	20	0.012482045998
74	38051	21	0.01249500155
74	39977	22	0.01249496006
74	41903	23	0.01248192172
74	43829	24	0.012494886585
74	45755	25	0.012494854604
74	47681	26	0.012481825661
74	49607	27	0.012494799589
74	51533	28	0.012481776199
74	53459	29	0.01249475529
74	55385	30	0.012494736659
74	57311	31	0.012481720088
74	59237	32	0.01249470539
74	61163	33	0.01249469238
74	63089	34	0.012481680879
74	65015	35	0.012494670734
74	66941	36	0.012494661788
74	68915	37	0.012598594533
74	70831	38	0.012481646992
74	72747	39	0.012494640905
74	74663	40	0.012494635564
74	76579	41	0.01248163088
74	78544	42	0.012611507651
74	80450	43	0.012481623171
74	82356	44	0.012494620024
74	84262	45	0.012494617263
74	86233	46	0.012481614855
74	88334	47	0.013001396723
74	90220	48	0.012494363263
74	92106	49	0.012493888852
74	93992	50	0.012493386489
74	95878	51	0.012479989318
74	97764	52	0.012492773912
74	99650	53	0.012492661908
74	101536	54	0.012492585522
74	103422	55	0.012479536924
74	105308	56	0.012492501685
74	107194	57	0.012492453118
74	109080	58	0.012492414624
74	110966	59	0.012492385412
74	112852	60	0.012492364493
74	114738	61	0.012479350784
74	116624	62	0.012492341564
74	118510	63	0.012492333496
74	120396	64	0.012492325208
74	122282	65	0.012492316607
74	124168	66	0.012479307836
74	126054	67	0.012492298949
74	127940	68	0.012492289947
74	129826	69	0.01249228081
74	131712	70	0.012492259031
74	133598	71	0.012492248408
74	135484	72	0.012479238976
74	137370	73	0.012492229295
74	139256	74	0.012492219335
74	141142	75	0.012492209049
74	143028	76	0.012492198388
74	144914	77	0.012492187286
74	146800	78	0.012479175659
74	148686	79	0.012492163401
74	150572	80	0.012492150366
74	152458	81	0.012492136393
74	154344	82	0.012492121228
74	156230	83	0.012492104558
74	158116	84	0.012479085914
74	160002	85	0.012492064658
74	161888	86	0.012492039859
74	163774	87	0.012492010164
74	165660	88	0.012491973727
74	167546	89	0.012491928404
74	169432	90	0.012478872455
74	171318	91	0.012491805442
74	173204	92	0.012491728303
74	175090	93	0.012491642587
74	176976	94	0.012491549807
74	178862	95	0.012491451214
74	180748	96	0.012491347868
74	182634	97	0.012491240647
74	184520	98	0.01249113029
74	186406	99	0.012478017396
74	188292	100	0.012490902458
75	1723	2	0
75	3609	3	0
75	5495	4	0
75	7381	5	0
75	9267	6	0
75	11153	7	0
75	13039	8	0
75	14925	9	0
75	16813	10	0
75	18791	11	0
75	20717	12	0
75	22643	13	0
75	24569	14	0
75	26495	15	0
75	28421	16	0
75	30347	17	0
75	32273	18	0
75	34199	19	0
75	36125	20	0
75	38051	21	0
75	39977	22	0
75	41903	23	0
75	43829	24	0
75	45755	25	0
75	47681	26	0
75	49607	27	0
75	51533	28	0
75	53459	29	0
75	55385	30	0
75	57311	31	0
75	59237	32	0
75	61163	33	0
75	63089	34	0
75	65015	35	0
75	66941	36	0
75	68915	37	0
75	70831	38	0
75	72747	39	0
75	74663	40	0
75	76579	41	0
75	78544	42	0
75	80450	43	0
75	82356	44	0
75	84262	45	0
75	86233	46	0
75	88334	47	0
75	90220	48	0
75	92106	49	0
75	93992	50	0
75	95878	51	0
75	97764	52	0
75	99650	53	0
75	101536	54	0
75	103422	55	0
75	105308	56	0
75	107194	57	0
75	109080	58	0
75	110966	59	0
75	112852	60	0
75	114738	61	0
75	116624	62	0
75	118510	63	0
75	120396	64	0
75	122282	65	0
75	124168	66	0
75	126054	67	0
75	127940	68	0
75	129826	69	0
75	131712	70	0
75	133598	71	0
75	135484	72	0
75	137370	73	0
75	139256	74	0
75	141142	75	0
75	143028	76	0
75	144914	77	0
75	146800	78	0
75	148686	79	0
75	150572	80	0
75	152458	81	0
75	154344	82	0
75	156230	83	0
75	158116	84	0
75	160002	85	0
75	161888	86	0
75	163774	87	0
75	165660	88	0
75	167546	89	0
75	169432	90	0
75	171318	91	0
75	173204	92	0
75	175090	93	0
75	176976	94	0
75	178862	95	0
75	180748	96	0
75	182634	97	0
75	184520	98	0
75	186406	99	0
75	188292	100	0
76	1724	2	4
76	3610	3	4
76	5496	4	4
76	7382	5	4
76	9268	6	4
76	11154	7	4
76	13040	8	4
76	14926	9	4
76	16814	10	4
76	18792	11	4
76	20718	12	4
76	22644	13	4
76	24570	14	4
76	26496	15	4
76	28422	16	4
76	30348	17	4
76	32274	18	4
76	34200	19	4
76	36126	20	4
76	38052	21	4
76	39978	22	4
76	41904	23	4
76	43830	24	4
76	45756	25	4
76	47682	26	4
76	49608	27	4
76	51534	28	4
76	53460	29	4
76	55386	30	4
76	57312	31	4
76	59238	32	4
76	61164	33	4
76	63090	34	4
76	65016	35	4
76	66942	36	4
76	68916	37	4
76	70832	38	4
76	72748	39	4
76	74664	40	4
76	76580	41	4
76	78545	42	4
76	80451	43	4
76	82357	44	4
76	84263	45	4
76	86234	46	4
76	88335	47	4
76	90221	48	4
76	92107	49	4
76	93993	50	4
76	95879	51	4
76	97765	52	4
76	99651	53	4
76	101537	54	4
76	103423	55	4
76	105309	56	4
76	107195	57	4
76	109081	58	4
76	110967	59	4
76	112853	60	4
76	114739	61	4
76	116625	62	4
76	118511	63	4
76	120397	64	4
76	122283	65	4
76	124169	66	4
76	126055	67	4
76	127941	68	4
76	129827	69	4
76	131713	70	4
76	133599	71	4
76	135485	72	4
76	137371	73	4
76	139257	74	4
76	141143	75	4
76	143029	76	4
76	144915	77	4
76	146801	78	4
76	148687	79	4
76	150573	80	4
76	152459	81	4
76	154345	82	4
76	156231	83	4
76	158117	84	4
76	160003	85	4
76	161889	86	4
76	163775	87	4
76	165661	88	4
76	167547	89	4
76	169433	90	4
76	171319	91	4
76	173205	92	4
76	175091	93	4
76	176977	94	4
76	178863	95	4
76	180749	96	4
76	182635	97	4
76	184521	98	4
76	186407	99	4
76	188293	100	4
77	1724	2	0.005242659762
77	3610	3	0.006240599717
77	5496	4	0.0062535997
77	7382	5	0.0062535997
77	9268	6	0.0062535997
77	11154	7	0.0062405997
77	13040	8	0.0062535997
77	14926	9	0.0062535997
77	16814	10	0.0062535997
77	18792	11	0.006286597722
77	20718	12	0.006253578966
77	22644	13	0.006253536961
77	24570	14	0.006253478832
77	26496	15	0.006240412491
77	28422	16	0.006253343753
77	30348	17	0.00625327639
77	32274	18	0.006253212677
77	34200	19	0.006240153849
77	36126	20	0.006253100457
77	38052	21	0.006253052599
77	39978	22	0.006253010109
77	41904	23	0.006239972664
77	43830	24	0.00625293985
77	45756	25	0.006252911227
77	47682	26	0.006252886348
77	49608	27	0.006252864785
77	51534	28	0.00623984614
77	53460	29	0.006252830051
77	55386	30	0.006252816187
77	57312	31	0.006252804258
77	59238	32	0.006239794001
77	61164	33	0.006252785191
77	63090	34	0.006252777629
77	65016	35	0.006252771144
77	66942	36	0.006252765584
77	68916	37	0.006239760815
77	70832	38	0.006252756729
77	72748	39	0.006252753233
77	74664	40	0.006252750238
77	76580	41	0.006252747672
77	78545	42	0.006239745478
77	80451	43	0.006252743596
77	82357	44	0.006252741989
77	84263	45	0.006252740611
77	86234	46	0.006538736575
77	88335	47	0.006252724925
77	90221	48	0.006239757484
77	92107	49	0.006252812407
77	93993	50	0.006252872819
77	95879	51	0.006252932257
77	97765	52	0.006239990448
77	99651	53	0.006253048144
77	101537	54	0.006253105661
77	103423	55	0.006253162992
77	105309	56	0.006240220049
77	107195	57	0.006253276746
77	109081	58	0.006253332983
77	110967	59	0.006253388639
77	112853	60	0.006240443541
77	114739	61	0.006253497442
77	116625	62	0.006253549977
77	118511	63	0.006253600602
77	120397	64	0.006240648498
77	122283	65	0.006253692374
77	124169	66	0.00625373027
77	126055	67	0.006240759343
77	127941	68	0.006253776181
77	129827	69	0.006253778017
77	131713	70	0.006253764517
77	133599	71	0.006240738
77	135485	72	0.006253701888
77	137371	73	0.006253659206
77	139257	74	0.006240612114
77	141143	75	0.006253562041
77	143029	76	0.006253509895
77	144915	77	0.006253456281
77	146801	78	0.006240401587
77	148687	79	0.006253346091
77	150573	80	0.006253289976
77	152459	81	0.006253233383
77	154345	82	0.006240176405
77	156231	83	0.006253119122
77	158117	84	0.006253061588
77	160003	85	0.006253003844
77	161889	86	0.006239945929
77	163775	87	0.006252887869
77	165661	88	0.006252829682
77	167547	89	0.006252771392
77	169433	90	0.006252713006
77	171319	91	0.006239654543
77	173205	92	0.006252596007
77	175091	93	0.00625253741
77	176977	94	0.006252478759
77	178863	95	0.006252420058
77	180749	96	0.006239361317
77	182635	97	0.00625230253
77	184521	98	0.006252243718
77	186407	99	0.006252184868
77	188293	100	0.006252125991
78	1724	2	0
78	3610	3	0
78	5496	4	0
78	7382	5	0
78	9268	6	0
78	11154	7	0
78	13040	8	0
78	14926	9	0
78	16814	10	0
78	18792	11	0
78	20718	12	0
78	22644	13	0
78	24570	14	0
78	26496	15	0
78	28422	16	0
78	30348	17	0
78	32274	18	0
78	34200	19	0
78	36126	20	0
78	38052	21	0
78	39978	22	0
78	41904	23	0
78	43830	24	0
78	45756	25	0
78	47682	26	0
78	49608	27	0
78	51534	28	0
78	53460	29	0
78	55386	30	0
78	57312	31	0
78	59238	32	0
78	61164	33	0
78	63090	34	0
78	65016	35	0
78	66942	36	0
78	68916	37	0
78	70832	38	0
78	72748	39	0
78	74664	40	0
78	76580	41	0
78	78545	42	0
78	80451	43	0
78	82357	44	0
78	84263	45	0
78	86234	46	0
78	88335	47	0
78	90221	48	0
78	92107	49	0
78	93993	50	0
78	95879	51	0
78	97765	52	0
78	99651	53	0
78	101537	54	0
78	103423	55	0
78	105309	56	0
78	107195	57	0
78	109081	58	0
78	110967	59	0
78	112853	60	0
78	114739	61	0
78	116625	62	0
78	118511	63	0
78	120397	64	0
78	122283	65	0
78	124169	66	0
78	126055	67	0
78	127941	68	0
78	129827	69	0
78	131713	70	0
78	133599	71	0
78	135485	72	0
78	137371	73	0
78	139257	74	0
78	141143	75	0
78	143029	76	0
78	144915	77	0
78	146801	78	0
78	148687	79	0
78	150573	80	0
78	152459	81	0
78	154345	82	0
78	156231	83	0
78	158117	84	0
78	160003	85	0
78	161889	86	0
78	163775	87	0
78	165661	88	0
78	167547	89	0
78	169433	90	0
78	171319	91	0
78	173205	92	0
78	175091	93	0
78	176977	94	0
78	178863	95	0
78	180749	96	0
78	182635	97	0
78	184521	98	0
78	186407	99	0
78	188293	100	0
79	1725	2	5
79	3611	3	5
79	5497	4	5
79	7383	5	5
79	9269	6	5
79	11155	7	5
79	13041	8	5
79	14927	9	5
79	16815	10	5
79	18793	11	5
79	20719	12	5
79	22645	13	5
79	24571	14	5
79	26497	15	5
79	28423	16	5
79	30349	17	5
79	32275	18	5
79	34201	19	5
79	36127	20	5
79	38053	21	5
79	39979	22	5
79	41905	23	5
79	43831	24	5
79	45757	25	5
79	47683	26	5
79	49609	27	5
79	51535	28	5
79	53461	29	5
79	55387	30	5
79	57313	31	5
79	59239	32	5
79	61165	33	5
79	63091	34	5
79	65017	35	5
79	66943	36	5
79	68917	37	5
79	70833	38	5
79	72749	39	5
79	74665	40	5
79	76581	41	5
79	78546	42	5
79	80452	43	5
79	82358	44	5
79	84264	45	5
79	86235	46	5
79	88336	47	5
79	90222	48	5
79	92108	49	5
79	93994	50	5
79	95880	51	5
79	97766	52	5
79	99652	53	5
79	101538	54	5
79	103424	55	5
79	105310	56	5
79	107196	57	5
79	109082	58	5
79	110968	59	5
79	112854	60	5
79	114740	61	5
79	116626	62	5
79	118512	63	5
79	120398	64	5
79	122284	65	5
79	124170	66	5
79	126056	67	5
79	127942	68	5
79	129828	69	5
79	131714	70	5
79	133600	71	5
79	135486	72	5
79	137372	73	5
79	139258	74	5
79	141144	75	5
79	143030	76	5
79	144916	77	5
79	146802	78	5
79	148688	79	5
79	150574	80	5
79	152460	81	5
79	154346	82	5
79	156232	83	5
79	158118	84	5
79	160004	85	5
79	161890	86	5
79	163776	87	5
79	165662	88	5
79	167548	89	5
79	169434	90	5
79	171320	91	5
79	173206	92	5
79	175092	93	5
79	176978	94	5
79	178864	95	5
79	180750	96	5
79	182636	97	5
79	184522	98	5
79	186408	99	5
79	188294	100	5
80	1725	2	0.005243679776
80	3611	3	0.006240599718
80	5497	4	0.0062535997
80	7383	5	0.0062535997
80	9269	6	0.0062535997
80	11155	7	0.0062405997
80	13041	8	0.0062535997
80	14927	9	0.0062535997
80	16815	10	0.0062535997
80	18793	11	0.006285598077
80	20719	12	0.006253580516
80	22645	13	0.006253539533
80	24571	14	0.006253482
80	26497	15	0.006240415906
80	28423	16	0.006253347181
80	30349	17	0.006253279681
80	32275	18	0.006253215749
80	34201	19	0.006240156658
80	36127	20	0.00625310299
80	38053	21	0.006253054856
80	39979	22	0.006253012106
80	41905	23	0.006239974418
80	43831	24	0.006252941383
80	45757	25	0.006252912562
80	47683	26	0.006252887506
80	49609	27	0.006252865788
80	51535	28	0.006239847006
80	53461	29	0.006252830798
80	55387	30	0.00625281683
80	57313	31	0.006252804811
80	59239	32	0.006239794476
80	61165	33	0.006252785599
80	63091	34	0.006252777979
80	65017	35	0.006252771445
80	66943	36	0.006252765841
80	68917	37	0.006239761036
80	70833	38	0.006252756918
80	72749	39	0.006252753394
80	74665	40	0.006252750377
80	76581	41	0.006252747791
80	78546	42	0.006239745579
80	80452	43	0.006252743683
80	82358	44	0.006252742063
80	84264	45	0.006252740675
80	86235	46	0.00653873758
80	88336	47	0.00625272414
80	90222	48	0.006239755132
80	92108	49	0.006252809426
80	93994	50	0.006252869806
80	95880	51	0.006252929323
80	97766	52	0.006239987556
80	99652	53	0.006253045264
80	101538	54	0.006253102789
80	103424	55	0.006253160132
80	105310	56	0.006240217204
80	107196	57	0.006253273922
80	109082	58	0.006253330184
80	110968	59	0.006253385873
80	112854	60	0.006240440818
80	114740	61	0.006253494777
80	116626	62	0.006253547392
80	118512	63	0.00625359813
80	120398	64	0.00624064619
80	122284	65	0.006253690308
80	124170	66	0.006253728566
80	126056	67	0.006240758164
80	127942	68	0.006253775695
80	129828	69	0.006253778314
80	131714	70	0.006253765542
80	133600	71	0.006240739591
80	135486	72	0.006253703878
80	137372	73	0.006253661464
80	139258	74	0.006240614552
80	141144	75	0.006253564602
80	143030	76	0.006253512543
80	144916	77	0.006253458991
80	146802	78	0.006240404343
80	148688	79	0.006253348883
80	150574	80	0.006253292794
80	152460	81	0.006253236223
80	154346	82	0.006240179262
80	156232	83	0.006253121993
80	158118	84	0.00625306447
80	160004	85	0.006253006736
80	161890	86	0.006239948828
80	163776	87	0.006252890776
80	165662	88	0.006252832594
80	167548	89	0.006252774309
80	169434	90	0.006252715927
80	171320	91	0.006239657468
80	173206	92	0.006252598935
80	175092	93	0.006252540342
80	176978	94	0.006252481692
80	178864	95	0.006252422995
80	180750	96	0.006239364255
80	182636	97	0.00625230547
80	184522	98	0.006252246659
80	186408	99	0.006252187812
80	188294	100	0.006252128935
81	1725	2	0
81	3611	3	0
81	5497	4	0
81	7383	5	0
81	9269	6	0
81	11155	7	0
81	13041	8	0
81	14927	9	0
81	16815	10	0
81	18793	11	0
81	20719	12	0
81	22645	13	0
81	24571	14	0
81	26497	15	0
81	28423	16	0
81	30349	17	0
81	32275	18	0
81	34201	19	0
81	36127	20	0
81	38053	21	0
81	39979	22	0
81	41905	23	0
81	43831	24	0
81	45757	25	0
81	47683	26	0
81	49609	27	0
81	51535	28	0
81	53461	29	0
81	55387	30	0
81	57313	31	0
81	59239	32	0
81	61165	33	0
81	63091	34	0
81	65017	35	0
81	66943	36	0
81	68917	37	0
81	70833	38	0
81	72749	39	0
81	74665	40	0
81	76581	41	0
81	78546	42	0
81	80452	43	0
81	82358	44	0
81	84264	45	0
81	86235	46	0
81	88336	47	0
81	90222	48	0
81	92108	49	0
81	93994	50	0
81	95880	51	0
81	97766	52	0
81	99652	53	0
81	101538	54	0
81	103424	55	0
81	105310	56	0
81	107196	57	0
81	109082	58	0
81	110968	59	0
81	112854	60	0
81	114740	61	0
81	116626	62	0
81	118512	63	0
81	120398	64	0
81	122284	65	0
81	124170	66	0
81	126056	67	0
81	127942	68	0
81	129828	69	0
81	131714	70	0
81	133600	71	0
81	135486	72	0
81	137372	73	0
81	139258	74	0
81	141144	75	0
81	143030	76	0
81	144916	77	0
81	146802	78	0
81	148688	79	0
81	150574	80	0
81	152460	81	0
81	154346	82	0
81	156232	83	0
81	158118	84	0
81	160004	85	0
81	161890	86	0
81	163776	87	0
81	165662	88	0
81	167548	89	0
81	169434	90	0
81	171320	91	0
81	173206	92	0
81	175092	93	0
81	176978	94	0
81	178864	95	0
81	180750	96	0
81	182636	97	0
81	184522	98	0
81	186408	99	0
81	188294	100	0

