file 1095197 1720617360                                         
version 3
run BreakRanksNoGui-87-20240710-15:15:55-259736
attr configname BreakRanksNoGui
attr datetime 20240710-15:15:55
attr datetimef 20240710-151555
attr experiment BreakRanksNoGui
attr inifile omnetpp.ini
attr iterationvars "$nCars=4, $platoonSize=4, $nLanes=1, $ploegH=0.5, $controller=1, $headway=0.1, $leaderHeadway=1.2, $leaderSpeed=110, $breakRanksSafetyDistance=2, $minSpeed=100, $maxSpeed=120, $beaconInterval=0.1, $priority=4, $packetSize=200, $sController=\"CACC\", $0=2, $1=0"
attr iterationvarsd nCars=4/platoonSize=4/nLanes=1/ploegH=0.5/controller=1/headway=0.1/leaderHeadway=1.2/leaderSpeed=110/breakRanksSafetyDistance=2/minSpeed=100/maxSpeed=120/beaconInterval=0.1/priority=4/packetSize=200/sController=CACC/2/0
attr iterationvarsf nCars=4,platoonSize=4,nLanes=1,ploegH=0.5,controller=1,headway=0.1,leaderHeadway=1.2,leaderSpeed=110,breakRanksSafetyDistance=2,minSpeed=100,maxSpeed=120,beaconInterval=0.1,priority=4,packetSize=200,sController=CACC,2,0-
attr measurement "$nCars=4, $platoonSize=4, $nLanes=1, $ploegH=0.5, $controller=1, $headway=0.1, $leaderHeadway=1.2, $leaderSpeed=110, $breakRanksSafetyDistance=2, $minSpeed=100, $maxSpeed=120, $beaconInterval=0.1, $priority=4, $packetSize=200, $sController=\"CACC\", $0=2, $1=0"
attr network Highway
attr processid 259736
attr repetition 7
attr replication #7
attr resultdir results
attr runnumber 87
attr seedset 7
itervar beaconInterval 0.1
itervar breakRanksSafetyDistance 2
itervar controller 1
itervar headway 0.1
itervar leaderHeadway 1.2
itervar leaderSpeed 110
itervar maxSpeed 120
itervar minSpeed 100
itervar nCars 4
itervar nLanes 1
itervar packetSize 200
itervar platoonSize 4
itervar ploegH 0.5
itervar priority 4
itervar sController "\"CACC\""
config image-path ../../../veins/images
config repeat 10
config extends BreakRanks
config *.manager.command "\"sumo\""
config *.manager.ignoreGuiCommands true
config output-vector-file "results/BreakRanks_1_0.1_110_2_4 /result_7.vec"
config output-scalar-file "results/BreakRanks_1_0.1_110_2_4 /result_7.sca"
config extends Platooning
config *.node[*].scenario_type "\"BreakRanksScenario\""
config *.manager.command "\"sumo-gui\""
config *.node[*].scenario_type "\"SimpleScenario\""
config cmdenv-express-mode true
config cmdenv-autoflush true
config cmdenv-status-frequency 15s
config num-rngs 6
config network Highway
config debug-on-errors true
config print-undisposed true
config *.playgroundSizeX 65000m
config *.playgroundSizeY 25000m
config *.playgroundSizeZ 50m
config sim-time-limit "100 s"
config *.annotations.draw false
config *.obstacles.debug false
config *.world.useTorus false
config *.world.use2D false
config *.manager.updateInterval 0.01s
config *.manager.host "\"localhost\""
config *.manager.moduleType "\"org.car2x.plexe.PlatoonCar\""
config *.manager.moduleName "\"node\""
config *.manager.moduleDisplayString "\"\""
config *.manager.autoShutdown true
config *.manager.margin 25
config *.connectionManager.sendDirect true
config *.connectionManager.maxInterfDist 2600m
config *.connectionManager.drawMaxIntfDist false
config *.**.nic.mac1609_4.useServiceChannel false
config *.**.nic.mac1609_4.txPower 100mW
config *.**.nic.mac1609_4.bitrate 6Mbps
config *.**.nic.mac1609_4.useAcks true
config *.**.nic.mac1609_4.ackErrorRate 0.0
config *.**.nic.mac1609_4.frameErrorRate 0.0
config *.**.nic.phy80211p.minPowerLevel -94dBm
config *.**.nic.phy80211p.maxTXPower 100mW
config *.**.nic.phy80211p.useNoiseFloor true
config *.**.nic.phy80211p.noiseFloor -95dBm
config *.**.nic.phy80211p.decider "xmldoc(\"config.xml\")"
config *.**.nic.phy80211p.analogueModels "xmldoc(\"config.xml\")"
config *.**.nic.phy80211p.usePropagationDelay true
config *.node[*].mobility.x 0
config *.node[*].mobility.y 0
config *.node[*].mobility.z 1.895
config seed-set 7
config **.seed 7
config *.node[*].prot.rng-0 2
config *.node[*].appl.rng-0 3
config *.node[*].scenario.rng-0 4
config **.traffic.rng-0 5
config *.manager.configFile "\"./sumocfg/freeway.sumo.cfg\""
config *.manager.launchConfig "xmldoc(\"./sumocfg/freeway.launchd.xml\")"
config **.numberOfCars 4
config **.numberOfCarsPerPlatoon 4
config **.numberOfLanes 1
config *.node[*].helper_type "\"PositionHelper\""
config *.node[*].scenario.caccC1 0.5
config *.node[*].scenario.caccXi 1
config *.node[*].scenario.caccOmegaN "0.2 Hz"
config *.node[*].scenario.caccSpacing "2 m"
config *.node[*].scenario.engineTau "0.5 s"
config *.node[*].scenario.ploegH 0.5s
config *.node[*].scenario.ploegKp 0.2
config *.node[*].scenario.ploegKd 0.7
config *.node[*].scenario.useRealisticEngine false
config *.node[*].scenario.useControllerAcceleration true
config *.node[*].scenario.nLanes 1
config **.numericController 1
config **.headway 0.1s
config *.node[*].scenario.accHeadway 0.1s
config *.node[*].scenario.leaderHeadway 1.2s
config *.node[*].scenario.leaderSpeed 110kmph
config *.node[*].appl_type "\"SimplePlatooningApp\""
config *.node[*].appl.*.scalar-recording true
config *.node[*].appl.*.vector-recording true
config *.node[0].appl.breakRanksSafetyDistance 2m
config *.node[*].appl.minSpeed 100kmph
config *.node[*].appl.maxSpeed 120kmph
config *.node[*].protocol_type "\"SimplePlatooningBeaconing\""
config *.node[*].prot.*.scalar-recording true
config *.node[*].prot.*.vector-recording true
config *.node[*].prot.beaconingInterval 0.1s
config *.node[*].prot.priority 4
config *.node[*].prot.packetSize 200
config **.traffic_type "\"PlatoonsTrafficManager\""
config **.traffic.platoonInsertTime "1 s"
config **.traffic.platoonInsertSpeed 110kmph
config **.traffic.nCars 4
config **.traffic.platoonSize 4
config **.traffic.nLanes 1
config **.traffic.platooningVType "\"vtypeauto\""
config **.traffic.controller "\"CACC\""
config **.traffic.platoonInsertDistance 2m
config **.traffic.platoonInsertHeadway 0s
config **.traffic.platoonLeaderHeadway 1.2s
config **.scalar-recording false
config **.vector-recording false

vector 0 Highway.node[0].appl distance ETV
vector 1 Highway.node[0].appl relativeSpeed ETV
vector 2 Highway.node[0].appl nodeId ETV
vector 3 Highway.node[0].appl acceleration ETV
vector 4 Highway.node[0].appl controllerAcceleration ETV
vector 5 Highway.node[0].appl speed ETV
vector 6 Highway.node[0].appl posx ETV
vector 7 Highway.node[0].appl posy ETV
vector 8 Highway.node[1].appl distance ETV
vector 9 Highway.node[1].appl relativeSpeed ETV
vector 10 Highway.node[1].appl nodeId ETV
vector 11 Highway.node[1].appl acceleration ETV
vector 12 Highway.node[1].appl controllerAcceleration ETV
vector 13 Highway.node[1].appl speed ETV
vector 14 Highway.node[1].appl posx ETV
vector 15 Highway.node[1].appl posy ETV
vector 16 Highway.node[2].appl distance ETV
vector 17 Highway.node[2].appl relativeSpeed ETV
vector 18 Highway.node[2].appl nodeId ETV
vector 19 Highway.node[2].appl acceleration ETV
vector 20 Highway.node[2].appl controllerAcceleration ETV
vector 21 Highway.node[2].appl speed ETV
vector 22 Highway.node[2].appl posx ETV
vector 23 Highway.node[2].appl posy ETV
vector 24 Highway.node[3].appl distance ETV
vector 25 Highway.node[3].appl relativeSpeed ETV
vector 26 Highway.node[3].appl nodeId ETV
vector 27 Highway.node[3].appl acceleration ETV
vector 28 Highway.node[3].appl controllerAcceleration ETV
vector 29 Highway.node[3].appl speed ETV
vector 30 Highway.node[3].appl posx ETV
vector 31 Highway.node[3].appl posy ETV
vector 32 Highway.node[3].prot frontDelay ETV
vector 33 Highway.node[3].prot frontDelayId ETV
vector 34 Highway.node[2].prot frontDelay ETV
vector 35 Highway.node[2].prot frontDelayId ETV
vector 36 Highway.node[1].prot leaderDelay ETV
vector 37 Highway.node[1].prot leaderDelayId ETV
vector 38 Highway.node[1].prot frontDelay ETV
vector 39 Highway.node[1].prot frontDelayId ETV
vector 40 Highway.node[2].prot leaderDelay ETV
vector 41 Highway.node[2].prot leaderDelayId ETV
vector 42 Highway.node[3].prot leaderDelay ETV
vector 43 Highway.node[3].prot leaderDelayId ETV
vector 44 Highway.node[0].prot nodeId ETV
vector 45 Highway.node[0].prot busyTime ETV
vector 46 Highway.node[0].prot collisions ETV
vector 47 Highway.node[1].prot nodeId ETV
vector 48 Highway.node[1].prot busyTime ETV
vector 49 Highway.node[1].prot collisions ETV
vector 50 Highway.node[2].prot nodeId ETV
vector 51 Highway.node[2].prot busyTime ETV
vector 52 Highway.node[2].prot collisions ETV
vector 53 Highway.node[3].prot nodeId ETV
vector 54 Highway.node[3].prot busyTime ETV
vector 55 Highway.node[3].prot collisions ETV
0	8443 20682 113 149102 1.11 99.91 989 -1 206.62 86210.6199 12035925.762144
1	29125 19770 113 149102 1.11 99.91 989 0 2.4444 1847.9664 4517.16906816
2	48895 15990 113 149102 1.11 99.91 989 0 0 0 0
3	64885 18578 113 149102 1.11 99.91 989 -0.00283113 0.000125957 -0.043966303784312 9.6812896349407e-05
4	83463 25958 113 149102 1.11 99.91 989 -0.00437036 0.00019576 -0.042459310034081 0.00013890441444735
5	109421 21920 113 149102 1.11 99.91 989 30.5554 30.56 30219.5304 923377.16656332
6	131341 21846 113 149102 1.11 99.91 989 27.0204 3045.92 1519569.8304 3087417733.4217
7	153187 20935 113 149102 1.11 99.91 989 242.45 242.45 239783.05 58135400.472499
8	174122 17414 114 149103 1.11 99.91 989 -1 2 -719.07603 1258.6959518355
9	191536 16924 114 149103 1.11 99.91 989 -0.000537994 8.96149e-05 -0.007714065607 4.4778253756342e-06
10	208460 16979 114 149103 1.11 99.91 989 1 1 989 989
11	225439 20986 114 149103 1.11 99.91 989 -0.0597336 1.34104 24.414930399673 25.432563296866
12	246425 27373 114 149103 1.11 99.91 989 -0.0929091 1.5 24.185501302707 33.01191367456
13	273798 18948 114 149103 1.11 99.91 989 30.5555 33.0929 32386.9472 1061110.2333857
14	292746 22892 114 149103 1.11 99.91 989 21.0204 3256.54 1609730.311 3494061887.1123
15	315638 21924 114 149103 1.11 99.91 989 242.45 245.75 240254.95 58365782.052499
16	337562 18554 115 149104 1.11 99.91 989 -1 14.3041 -320.13163 5153.4995505383
17	356116 18152 115 149104 1.11 99.91 989 -9.06016e-05 2.62712 64.309627907423 145.1358541453
18	374268 16979 115 149104 1.11 99.91 989 2 2 1978 3956
19	391247 21323 115 149104 1.11 99.91 989 -1.66117 1.49429 24.445848001207 96.426598569494
20	412570 27105 115 149104 1.11 99.91 989 -2.53478 1.5 26.020226186479 118.15762690547
21	439675 19199 115 149104 1.11 99.91 989 27.9285 33.1033 32165.3225 1047460.3888971
22	458874 22889 115 149104 1.11 99.91 989 15.0204 3228.37 1584621.5613 3405226294.005
23	481763 21924 115 149104 1.11 99.91 989 242.45 249.05 243129.25 59772282.3125
24	503687 22768 116 149105 1.11 99.91 989 1.99967 249.955 120947.03572 20366446.634501
25	526455 22607 116 149105 1.11 99.91 989 -4.72856e-05 5.4233 2296.5262075276 6045.0418333894
26	549062 16979 116 149105 1.11 99.91 989 3 3 2967 8901
27	566041 21223 116 149105 1.11 99.91 989 -2.42344 1.4079 -25.550253398101 133.52601915499
28	587264 27227 116 149105 1.11 99.91 989 -3.05019 1.5 -23.800195280414 166.80900191746
29	614491 19149 116 149105 1.11 99.91 989 25.1323 30.56 27858.7023 785519.65786335
30	633640 22891 116 149105 1.11 99.91 989 9.0204 2791.96 1393081.3503 2594925495.6492
31	656531 21924 116 149105 1.11 99.91 989 242.45 242.45 239783.05 58135400.472499
32	678455 39475 329 149174 1.221695160112 99.92169278163 988 0.099987250763 0.100012753769 98.799995741602 9.8799991586858
33	717930 26737 329 149174 1.221695160112 99.92169278163 988 3 3 2964 8892
34	744667 39503 366 149199 1.254137180126 99.954146514707 988 0.099987082317 0.100012918877 98.800007454665 9.8800015014673
35	784170 26759 366 149199 1.254137180126 99.954146514707 988 2 2 1976 3952
36	810929 39496 398 149243 1.29396320014 99.993973826368 988 0.09998712731 0.100012877146 98.800008746312 9.8800017597878
37	850425 26750 398 149243 1.29396320014 99.993973826368 988 1 1 988 988
38	877175 39496 398 149243 1.29396320014 99.993973826368 988 0.09998712731 0.100012877146 98.800008746312 9.8800017597878
39	916671 26750 398 149243 1.29396320014 99.993973826368 988 1 1 988 988
40	943421 39492 404 149237 1.293963220154 99.993973732527 988 0.099987127309 0.100012877145 98.800008632457 9.8800017370168
41	982913 26763 404 149237 1.293963220154 99.993973732527 988 2 2 1976 3952
42	1009676 39488 410 149249 1.293963240167 99.993973970953 988 0.099987127347 0.100012877184 98.800008850869 9.8800017806992
43	1049164 26753 410 149249 1.293963240167 99.993973970953 988 3 3 2964 8892
44	1075917 1406 1462 149251 2 100 99 0 0 0 0
45	1077323 2008 1462 149251 2 100 99 0.011241 0.013406240144 1.236177240144 0.015438097055799
46	1079331 1406 1462 149251 2 100 99 0 0 0 0
47	1080737 1406 1463 149252 2 100 99 1 1 99 99
48	1082143 2008 1463 149252 2 100 99 0.011241 0.013275040022 1.236046040022 0.015434596468586
49	1084151 1406 1463 149252 2 100 99 0 0 0 0
50	1085557 1406 1464 149253 2 100 99 2 2 198 396
51	1086963 2007 1464 149253 2 100 99 0.011241 0.01330812007 1.23607912007 0.015435475840798
52	1088970 1406 1464 149253 2 100 99 0 0 0 0
53	1090376 1406 1465 149254 2 100 99 3 3 297 891
54	1091782 2008 1465 149254 2 100 99 0.011241 0.013308160096 1.236079160096 0.015435476906141
55	1093790 1406 1465 149254 2 100 99 0 0 0 0

