version 3
run BreakRanksNoGui-2028-20240710-16:50:43-266783
attr configname BreakRanksNoGui
attr datetime 20240710-16:50:43
attr datetimef 20240710-165043
attr experiment BreakRanksNoGui
attr inifile omnetpp.ini
attr iterationvars "$nCars=12, $platoonSize=12, $nLanes=1, $ploegH=0.5, $controller=1, $headway=0.1, $leaderHeadway=1.2, $leaderSpeed=110, $breakRanksSafetyDistance=5, $minSpeed=100, $maxSpeed=120, $beaconInterval=0.1, $priority=4, $packetSize=200, $sController=\"CACC\", $0=2, $1=0"
attr iterationvarsd nCars=12/platoonSize=12/nLanes=1/ploegH=0.5/controller=1/headway=0.1/leaderHeadway=1.2/leaderSpeed=110/breakRanksSafetyDistance=5/minSpeed=100/maxSpeed=120/beaconInterval=0.1/priority=4/packetSize=200/sController=CACC/2/0
attr iterationvarsf nCars=12,platoonSize=12,nLanes=1,ploegH=0.5,controller=1,headway=0.1,leaderHeadway=1.2,leaderSpeed=110,breakRanksSafetyDistance=5,minSpeed=100,maxSpeed=120,beaconInterval=0.1,priority=4,packetSize=200,sController=CACC,2,0-
attr measurement "$nCars=12, $platoonSize=12, $nLanes=1, $ploegH=0.5, $controller=1, $headway=0.1, $leaderHeadway=1.2, $leaderSpeed=110, $breakRanksSafetyDistance=5, $minSpeed=100, $maxSpeed=120, $beaconInterval=0.1, $priority=4, $packetSize=200, $sController=\"CACC\", $0=2, $1=0"
attr network Highway
attr processid 266783
attr repetition 8
attr replication #8
attr resultdir results
attr runnumber 2028
attr seedset 8
itervar beaconInterval 0.1
itervar breakRanksSafetyDistance 5
itervar controller 1
itervar headway 0.1
itervar leaderHeadway 1.2
itervar leaderSpeed 110
itervar maxSpeed 120
itervar minSpeed 100
itervar nCars 12
itervar nLanes 1
itervar packetSize 200
itervar platoonSize 12
itervar ploegH 0.5
itervar priority 4
itervar sController "\"CACC\""
config image-path ../../../veins/images
config repeat 10
config extends BreakRanks
config *.manager.command "\"sumo\""
config *.manager.ignoreGuiCommands true
config output-vector-file "results/BreakRanks_1_0.1_110_5_12 /result_8.vec"
config output-scalar-file "results/BreakRanks_1_0.1_110_5_12 /result_8.sca"
config extends Platooning
config *.node[*].scenario_type "\"BreakRanksScenario\""
config *.manager.command "\"sumo-gui\""
config *.node[*].scenario_type "\"SimpleScenario\""
config cmdenv-express-mode true
config cmdenv-autoflush true
config cmdenv-status-frequency 15s
config num-rngs 6
config network Highway
config debug-on-errors true
config print-undisposed true
config *.playgroundSizeX 65000m
config *.playgroundSizeY 25000m
config *.playgroundSizeZ 50m
config sim-time-limit "100 s"
config *.annotations.draw false
config *.obstacles.debug false
config *.world.useTorus false
config *.world.use2D false
config *.manager.updateInterval 0.01s
config *.manager.host "\"localhost\""
config *.manager.moduleType "\"org.car2x.plexe.PlatoonCar\""
config *.manager.moduleName "\"node\""
config *.manager.moduleDisplayString "\"\""
config *.manager.autoShutdown true
config *.manager.margin 25
config *.connectionManager.sendDirect true
config *.connectionManager.maxInterfDist 2600m
config *.connectionManager.drawMaxIntfDist false
config *.**.nic.mac1609_4.useServiceChannel false
config *.**.nic.mac1609_4.txPower 100mW
config *.**.nic.mac1609_4.bitrate 6Mbps
config *.**.nic.mac1609_4.useAcks true
config *.**.nic.mac1609_4.ackErrorRate 0.0
config *.**.nic.mac1609_4.frameErrorRate 0.0
config *.**.nic.phy80211p.minPowerLevel -94dBm
config *.**.nic.phy80211p.maxTXPower 100mW
config *.**.nic.phy80211p.useNoiseFloor true
config *.**.nic.phy80211p.noiseFloor -95dBm
config *.**.nic.phy80211p.decider "xmldoc(\"config.xml\")"
config *.**.nic.phy80211p.analogueModels "xmldoc(\"config.xml\")"
config *.**.nic.phy80211p.usePropagationDelay true
config *.node[*].mobility.x 0
config *.node[*].mobility.y 0
config *.node[*].mobility.z 1.895
config seed-set 8
config **.seed 8
config *.node[*].prot.rng-0 2
config *.node[*].appl.rng-0 3
config *.node[*].scenario.rng-0 4
config **.traffic.rng-0 5
config *.manager.configFile "\"./sumocfg/freeway.sumo.cfg\""
config *.manager.launchConfig "xmldoc(\"./sumocfg/freeway.launchd.xml\")"
config **.numberOfCars 12
config **.numberOfCarsPerPlatoon 12
config **.numberOfLanes 1
config *.node[*].helper_type "\"PositionHelper\""
config *.node[*].scenario.caccC1 0.5
config *.node[*].scenario.caccXi 1
config *.node[*].scenario.caccOmegaN "0.2 Hz"
config *.node[*].scenario.caccSpacing "2 m"
config *.node[*].scenario.engineTau "0.5 s"
config *.node[*].scenario.ploegH 0.5s
config *.node[*].scenario.ploegKp 0.2
config *.node[*].scenario.ploegKd 0.7
config *.node[*].scenario.useRealisticEngine false
config *.node[*].scenario.useControllerAcceleration true
config *.node[*].scenario.nLanes 1
config **.numericController 1
config **.headway 0.1s
config *.node[*].scenario.accHeadway 0.1s
config *.node[*].scenario.leaderHeadway 1.2s
config *.node[*].scenario.leaderSpeed 110kmph
config *.node[*].appl_type "\"SimplePlatooningApp\""
config *.node[*].appl.*.scalar-recording true
config *.node[*].appl.*.vector-recording true
config *.node[0].appl.breakRanksSafetyDistance 5m
config *.node[*].appl.minSpeed 100kmph
config *.node[*].appl.maxSpeed 120kmph
config *.node[*].protocol_type "\"SimplePlatooningBeaconing\""
config *.node[*].prot.*.scalar-recording true
config *.node[*].prot.*.vector-recording true
config *.node[*].prot.beaconingInterval 0.1s
config *.node[*].prot.priority 4
config *.node[*].prot.packetSize 200
config **.traffic_type "\"PlatoonsTrafficManager\""
config **.traffic.platoonInsertTime "1 s"
config **.traffic.platoonInsertSpeed 110kmph
config **.traffic.nCars 12
config **.traffic.platoonSize 12
config **.traffic.nLanes 1
config **.traffic.platooningVType "\"vtypeauto\""
config **.traffic.controller "\"CACC\""
config **.traffic.platoonInsertDistance 2m
config **.traffic.platoonInsertHeadway 0s
config **.traffic.platoonLeaderHeadway 1.2s
config **.scalar-recording false
config **.vector-recording false

vector 0 Highway.node[0].appl distance ETV
vector 1 Highway.node[0].appl relativeSpeed ETV
vector 2 Highway.node[0].appl nodeId ETV
vector 3 Highway.node[0].appl acceleration ETV
vector 4 Highway.node[0].appl controllerAcceleration ETV
vector 5 Highway.node[0].appl speed ETV
vector 6 Highway.node[0].appl posx ETV
vector 7 Highway.node[0].appl posy ETV
vector 8 Highway.node[1].appl distance ETV
vector 9 Highway.node[1].appl relativeSpeed ETV
vector 10 Highway.node[1].appl nodeId ETV
vector 11 Highway.node[1].appl acceleration ETV
vector 12 Highway.node[1].appl controllerAcceleration ETV
vector 13 Highway.node[1].appl speed ETV
vector 14 Highway.node[1].appl posx ETV
vector 15 Highway.node[1].appl posy ETV
vector 16 Highway.node[2].appl distance ETV
vector 17 Highway.node[2].appl relativeSpeed ETV
vector 18 Highway.node[2].appl nodeId ETV
vector 19 Highway.node[2].appl acceleration ETV
vector 20 Highway.node[2].appl controllerAcceleration ETV
vector 21 Highway.node[2].appl speed ETV
vector 22 Highway.node[2].appl posx ETV
vector 23 Highway.node[2].appl posy ETV
vector 24 Highway.node[3].appl distance ETV
vector 25 Highway.node[3].appl relativeSpeed ETV
vector 26 Highway.node[3].appl nodeId ETV
vector 27 Highway.node[3].appl acceleration ETV
vector 28 Highway.node[3].appl controllerAcceleration ETV
vector 29 Highway.node[3].appl speed ETV
vector 30 Highway.node[3].appl posx ETV
vector 31 Highway.node[3].appl posy ETV
vector 32 Highway.node[4].appl distance ETV
vector 33 Highway.node[4].appl relativeSpeed ETV
vector 34 Highway.node[4].appl nodeId ETV
vector 35 Highway.node[4].appl acceleration ETV
vector 36 Highway.node[4].appl controllerAcceleration ETV
vector 37 Highway.node[4].appl speed ETV
vector 38 Highway.node[4].appl posx ETV
vector 39 Highway.node[4].appl posy ETV
vector 40 Highway.node[5].appl distance ETV
vector 41 Highway.node[5].appl relativeSpeed ETV
vector 42 Highway.node[5].appl nodeId ETV
vector 43 Highway.node[5].appl acceleration ETV
vector 44 Highway.node[5].appl controllerAcceleration ETV
vector 45 Highway.node[5].appl speed ETV
vector 46 Highway.node[5].appl posx ETV
vector 47 Highway.node[5].appl posy ETV
vector 48 Highway.node[6].appl distance ETV
vector 49 Highway.node[6].appl relativeSpeed ETV
vector 50 Highway.node[6].appl nodeId ETV
vector 51 Highway.node[6].appl acceleration ETV
vector 52 Highway.node[6].appl controllerAcceleration ETV
vector 53 Highway.node[6].appl speed ETV
vector 54 Highway.node[6].appl posx ETV
vector 55 Highway.node[6].appl posy ETV
vector 56 Highway.node[7].appl distance ETV
vector 57 Highway.node[7].appl relativeSpeed ETV
vector 58 Highway.node[7].appl nodeId ETV
vector 59 Highway.node[7].appl acceleration ETV
vector 60 Highway.node[7].appl controllerAcceleration ETV
vector 61 Highway.node[7].appl speed ETV
vector 62 Highway.node[7].appl posx ETV
vector 63 Highway.node[7].appl posy ETV
vector 64 Highway.node[8].appl distance ETV
vector 65 Highway.node[8].appl relativeSpeed ETV
vector 66 Highway.node[8].appl nodeId ETV
vector 67 Highway.node[8].appl acceleration ETV
vector 68 Highway.node[8].appl controllerAcceleration ETV
vector 69 Highway.node[8].appl speed ETV
vector 70 Highway.node[8].appl posx ETV
vector 71 Highway.node[8].appl posy ETV
vector 72 Highway.node[9].appl distance ETV
vector 73 Highway.node[9].appl relativeSpeed ETV
vector 74 Highway.node[9].appl nodeId ETV
vector 75 Highway.node[9].appl acceleration ETV
vector 76 Highway.node[9].appl controllerAcceleration ETV
vector 77 Highway.node[9].appl speed ETV
vector 78 Highway.node[9].appl posx ETV
vector 79 Highway.node[9].appl posy ETV
vector 80 Highway.node[10].appl distance ETV
vector 81 Highway.node[10].appl relativeSpeed ETV
vector 82 Highway.node[10].appl nodeId ETV
vector 83 Highway.node[10].appl acceleration ETV
vector 84 Highway.node[10].appl controllerAcceleration ETV
vector 85 Highway.node[10].appl speed ETV
vector 86 Highway.node[10].appl posx ETV
vector 87 Highway.node[10].appl posy ETV
vector 88 Highway.node[11].appl distance ETV
vector 89 Highway.node[11].appl relativeSpeed ETV
vector 90 Highway.node[11].appl nodeId ETV
vector 91 Highway.node[11].appl acceleration ETV
vector 92 Highway.node[11].appl controllerAcceleration ETV
vector 93 Highway.node[11].appl speed ETV
vector 94 Highway.node[11].appl posx ETV
vector 95 Highway.node[11].appl posy ETV
vector 96 Highway.node[8].prot frontDelay ETV
vector 97 Highway.node[8].prot frontDelayId ETV
vector 98 Highway.node[4].prot frontDelay ETV
vector 99 Highway.node[4].prot frontDelayId ETV
vector 100 Highway.node[10].prot frontDelay ETV
vector 101 Highway.node[10].prot frontDelayId ETV
vector 102 Highway.node[3].prot frontDelay ETV
vector 103 Highway.node[3].prot frontDelayId ETV
vector 104 Highway.node[5].prot frontDelay ETV
vector 105 Highway.node[5].prot frontDelayId ETV
vector 106 Highway.node[9].prot frontDelay ETV
vector 107 Highway.node[9].prot frontDelayId ETV
vector 108 Highway.node[7].prot frontDelay ETV
vector 109 Highway.node[7].prot frontDelayId ETV
vector 110 Highway.node[1].prot leaderDelay ETV
vector 111 Highway.node[1].prot leaderDelayId ETV
vector 112 Highway.node[1].prot frontDelay ETV
vector 113 Highway.node[1].prot frontDelayId ETV
vector 114 Highway.node[4].prot leaderDelay ETV
vector 115 Highway.node[4].prot leaderDelayId ETV
vector 116 Highway.node[5].prot leaderDelay ETV
vector 117 Highway.node[5].prot leaderDelayId ETV
vector 118 Highway.node[6].prot leaderDelay ETV
vector 119 Highway.node[6].prot leaderDelayId ETV
vector 120 Highway.node[7].prot leaderDelay ETV
vector 121 Highway.node[7].prot leaderDelayId ETV
vector 122 Highway.node[8].prot leaderDelay ETV
vector 123 Highway.node[8].prot leaderDelayId ETV
vector 124 Highway.node[9].prot leaderDelay ETV
vector 125 Highway.node[9].prot leaderDelayId ETV
vector 126 Highway.node[10].prot leaderDelay ETV
vector 127 Highway.node[10].prot leaderDelayId ETV
vector 128 Highway.node[11].prot leaderDelay ETV
vector 129 Highway.node[11].prot leaderDelayId ETV
vector 130 Highway.node[2].prot leaderDelay ETV
vector 131 Highway.node[2].prot leaderDelayId ETV
vector 132 Highway.node[3].prot leaderDelay ETV
vector 133 Highway.node[3].prot leaderDelayId ETV
vector 134 Highway.node[6].prot frontDelay ETV
vector 135 Highway.node[6].prot frontDelayId ETV
vector 136 Highway.node[2].prot frontDelay ETV
vector 137 Highway.node[2].prot frontDelayId ETV
vector 138 Highway.node[11].prot frontDelay ETV
vector 139 Highway.node[11].prot frontDelayId ETV
vector 140 Highway.node[0].prot nodeId ETV
vector 141 Highway.node[0].prot busyTime ETV
vector 142 Highway.node[0].prot collisions ETV
vector 143 Highway.node[1].prot nodeId ETV
vector 144 Highway.node[1].prot busyTime ETV
vector 145 Highway.node[1].prot collisions ETV
vector 146 Highway.node[2].prot nodeId ETV
vector 147 Highway.node[2].prot busyTime ETV
vector 148 Highway.node[2].prot collisions ETV
vector 149 Highway.node[3].prot nodeId ETV
vector 150 Highway.node[3].prot busyTime ETV
vector 151 Highway.node[3].prot collisions ETV
vector 152 Highway.node[4].prot nodeId ETV
vector 153 Highway.node[4].prot busyTime ETV
vector 154 Highway.node[4].prot collisions ETV
vector 155 Highway.node[5].prot nodeId ETV
vector 156 Highway.node[5].prot busyTime ETV
vector 157 Highway.node[5].prot collisions ETV
vector 158 Highway.node[6].prot nodeId ETV
vector 159 Highway.node[6].prot busyTime ETV
vector 160 Highway.node[6].prot collisions ETV
vector 161 Highway.node[7].prot nodeId ETV
vector 162 Highway.node[7].prot busyTime ETV
vector 163 Highway.node[7].prot collisions ETV
vector 164 Highway.node[8].prot nodeId ETV
vector 165 Highway.node[8].prot busyTime ETV
vector 166 Highway.node[8].prot collisions ETV
vector 167 Highway.node[9].prot nodeId ETV
vector 168 Highway.node[9].prot busyTime ETV
vector 169 Highway.node[9].prot collisions ETV
vector 170 Highway.node[10].prot nodeId ETV
vector 171 Highway.node[10].prot busyTime ETV
vector 172 Highway.node[10].prot collisions ETV
vector 173 Highway.node[11].prot nodeId ETV
vector 174 Highway.node[11].prot busyTime ETV
vector 175 Highway.node[11].prot collisions ETV
0	113	1.11	-1
0	1311	1.21	-1
0	2509	1.31	-1
0	3707	1.41	-1
0	4905	1.51	-1
0	6103	1.61	-1
0	7301	1.71	-1
0	8499	1.81	-1
0	9697	1.91	-1
0	10907	2.01	-1
0	12105	2.11	-1
0	13303	2.21	-1
0	14501	2.31	-1
0	15699	2.41	-1
0	16897	2.51	-1
0	18095	2.61	-1
0	19293	2.71	-1
0	20491	2.81	-1
0	21689	2.91	-1
0	22899	3.01	-1
0	24097	3.11	-1
0	25295	3.21	-1
0	26493	3.31	-1
0	27691	3.41	-1
0	28889	3.51	-1
0	30087	3.61	-1
0	31285	3.71	-1
0	32483	3.81	-1
0	33681	3.91	-1
0	34891	4.01	-1
0	36089	4.11	-1
0	37287	4.21	-1
0	38485	4.31	-1
0	39683	4.41	-1
0	40881	4.51	-1
0	42079	4.61	-1
0	43277	4.71	-1
0	44475	4.81	-1
0	45673	4.91	-1
0	46883	5.01	-1
0	48081	5.11	-1
0	49279	5.21	-1
0	50477	5.31	-1
0	51675	5.41	-1
0	52873	5.51	-1
0	54071	5.61	-1
0	55269	5.71	-1
0	56467	5.81	-1
0	57665	5.91	-1
0	58875	6.01	-1
0	60073	6.11	-1
0	61271	6.21	-1
0	62469	6.31	-1
0	63667	6.41	-1
0	64865	6.51	-1
0	66063	6.61	-1
0	67261	6.71	-1
0	68459	6.81	-1
0	69657	6.91	-1
0	70867	7.01	-1
0	72065	7.11	-1
0	73263	7.21	-1
0	74461	7.31	-1
0	75659	7.41	-1
0	76857	7.51	-1
0	78055	7.61	-1
0	79253	7.71	-1
0	80451	7.81	-1
0	81649	7.91	-1
0	82859	8.01	-1
0	84057	8.11	-1
0	85255	8.21	-1
0	86453	8.31	-1
0	87651	8.41	-1
0	88849	8.51	-1
0	90047	8.61	-1
0	91245	8.71	-1
0	92443	8.81	-1
0	93641	8.91	-1
0	94851	9.01	-1
0	96049	9.11	-1
0	97247	9.21	-1
0	98445	9.31	-1
0	99643	9.41	-1
0	100841	9.51	-1
0	102039	9.61	-1
0	103237	9.71	-1
0	104435	9.81	-1
0	105633	9.91	-1
0	106953	10.01	-1
0	108162	10.11	-1
0	109371	10.21	-1
0	110580	10.31	-1
0	111789	10.41	-1
0	112998	10.51	-1
0	114207	10.61	-1
0	115416	10.71	-1
0	116625	10.81	-1
0	117834	10.91	-1
0	119055	11.01	-1
0	120264	11.11	-1
0	121473	11.21	-1
0	122682	11.31	-1
0	123891	11.41	-1
0	125100	11.51	-1
0	126309	11.61	-1
0	127518	11.71	-1
0	128727	11.81	-1
0	129936	11.91	-1
0	131157	12.01	-1
0	132366	12.11	-1
0	133575	12.21	-1
0	134784	12.31	-1
0	135993	12.41	-1
0	137202	12.51	-1
0	138411	12.61	-1
0	139620	12.71	-1
0	140829	12.81	-1
0	142038	12.91	-1
0	143259	13.01	-1
0	144468	13.11	-1
0	145677	13.21	-1
0	146886	13.31	-1
0	148095	13.41	-1
0	149304	13.51	-1
0	150513	13.61	-1
0	151722	13.71	-1
0	152931	13.81	-1
0	154140	13.91	-1
0	155361	14.01	-1
0	156570	14.11	-1
0	157779	14.21	-1
0	158988	14.31	-1
0	160197	14.41	-1
0	161406	14.51	-1
0	162615	14.61	-1
0	163824	14.71	-1
0	165033	14.81	-1
0	166242	14.91	-1
0	167463	15.01	-1
0	168672	15.11	-1
0	169881	15.21	-1
0	171090	15.31	-1
0	172299	15.41	-1
0	173508	15.51	-1
0	174717	15.61	-1
0	175926	15.71	-1
0	177135	15.81	-1
0	178344	15.91	-1
0	179565	16.01	-1
0	180774	16.11	-1
0	181983	16.21	-1
0	183192	16.31	-1
0	184401	16.41	-1
0	185610	16.51	-1
0	186819	16.61	-1
0	188028	16.71	-1
0	189237	16.81	-1
0	190446	16.91	-1
0	191667	17.01	-1
0	192876	17.11	-1
0	194085	17.21	-1
0	195294	17.31	-1
0	196503	17.41	-1
0	197712	17.51	-1
0	198921	17.61	-1
0	200130	17.71	-1
0	201339	17.81	-1
0	202548	17.91	-1
0	203769	18.01	-1
0	204978	18.11	-1
0	206187	18.21	-1
0	207396	18.31	-1
0	208605	18.41	-1
0	209814	18.51	-1
0	211023	18.61	-1
0	212232	18.71	-1
0	213441	18.81	-1
0	214650	18.91	-1
0	215871	19.01	-1
0	217080	19.11	-1
0	218289	19.21	-1
0	219498	19.31	-1
0	220707	19.41	-1
0	221916	19.51	-1
0	223125	19.61	-1
0	224334	19.71	-1
0	225543	19.81	-1
0	226752	19.91	-1
0	227973	20.01	-1
0	229182	20.11	-1
0	230391	20.21	-1
0	231600	20.31	-1
0	232809	20.41	-1
0	234018	20.51	-1
0	235227	20.61	-1
0	236436	20.71	-1
0	237645	20.81	-1
0	238854	20.91	-1
0	240075	21.01	-1
0	241284	21.11	-1
0	242493	21.21	-1
0	243702	21.31	-1
0	244911	21.41	-1
0	246120	21.51	-1
0	247329	21.61	-1
0	248538	21.71	-1
0	249747	21.81	-1
0	250956	21.91	-1
0	252177	22.01	-1
0	253386	22.11	-1
0	254595	22.21	-1
0	255804	22.31	-1
0	257013	22.41	-1
0	258222	22.51	-1
0	259431	22.61	-1
0	260640	22.71	-1
0	261849	22.81	-1
0	263058	22.91	-1
0	264279	23.01	-1
0	265488	23.11	-1
0	266697	23.21	-1
0	267906	23.31	-1
0	269115	23.41	-1
0	270324	23.51	-1
0	271533	23.61	-1
0	272742	23.71	-1
0	273951	23.81	-1
0	275160	23.91	-1
0	276381	24.01	-1
0	277590	24.11	-1
0	278799	24.21	-1
0	280008	24.31	-1
0	281217	24.41	-1
0	282426	24.51	-1
0	283635	24.61	-1
0	284844	24.71	-1
0	286053	24.81	-1
0	287262	24.91	-1
0	288483	25.01	-1
0	289692	25.11	-1
0	290901	25.21	-1
0	292110	25.31	-1
0	293319	25.41	-1
0	294528	25.51	-1
0	295737	25.61	-1
0	296946	25.71	-1
0	298155	25.81	-1
0	299364	25.91	-1
0	300585	26.01	-1
0	301794	26.11	-1
0	303003	26.21	-1
0	304212	26.31	-1
0	305421	26.41	-1
0	306630	26.51	-1
0	307839	26.61	-1
0	309048	26.71	-1
0	310257	26.81	-1
0	311466	26.91	-1
0	312687	27.01	-1
0	313896	27.11	-1
0	315105	27.21	-1
0	316314	27.31	-1
0	317523	27.41	-1
0	318732	27.51	-1
0	319941	27.61	-1
0	321150	27.71	-1
0	322359	27.81	-1
0	323568	27.91	-1
0	324789	28.01	-1
0	325998	28.11	-1
0	327207	28.21	-1
0	328416	28.31	-1
0	329625	28.41	-1
0	330834	28.51	-1
0	332043	28.61	-1
0	333252	28.71	-1
0	334461	28.81	-1
0	335670	28.91	-1
0	336891	29.01	-1
0	338100	29.11	-1
0	339309	29.21	-1
0	340518	29.31	-1
0	341727	29.41	-1
0	342936	29.51	-1
0	344145	29.61	-1
0	345354	29.71	-1
0	346563	29.81	-1
0	347772	29.91	-1
0	348993	30.01	-1
0	350202	30.11	-1
0	351411	30.21	-1
0	352620	30.31	-1
0	353829	30.41	-1
0	355038	30.51	-1
0	356247	30.61	-1
0	357456	30.71	-1
0	358665	30.81	-1
0	359874	30.91	-1
0	361095	31.01	-1
0	362304	31.11	-1
0	363513	31.21	-1
0	364722	31.31	-1
0	365931	31.41	-1
0	367140	31.51	-1
0	368349	31.61	-1
0	369558	31.71	-1
0	370767	31.81	-1
0	371976	31.91	-1
0	373197	32.01	-1
0	374406	32.11	-1
0	375615	32.21	-1
0	376824	32.31	-1
0	378033	32.41	-1
0	379242	32.51	-1
0	380451	32.61	-1
0	381660	32.71	-1
0	382869	32.81	-1
0	384078	32.91	-1
0	385299	33.01	-1
0	386508	33.11	-1
0	387717	33.21	-1
0	388926	33.31	-1
0	390135	33.41	-1
0	391344	33.51	-1
0	392553	33.61	-1
0	393762	33.71	-1
0	394971	33.81	-1
0	396180	33.91	-1
0	397401	34.01	-1
0	398610	34.11	-1
0	399819	34.21	-1
0	401028	34.31	-1
0	402237	34.41	-1
0	403446	34.51	-1
0	404655	34.61	-1
0	405864	34.71	-1
0	407073	34.81	-1
0	408282	34.91	-1
0	409503	35.01	-1
0	410712	35.11	-1
0	411921	35.21	-1
0	413130	35.31	-1
0	414339	35.41	-1
0	415548	35.51	-1
0	416757	35.61	-1
0	417966	35.71	-1
0	419175	35.81	-1
0	420384	35.91	-1
0	421605	36.01	-1
0	422814	36.11	-1
0	424023	36.21	-1
0	425232	36.31	-1
0	426574	36.41	-1
0	427782	36.51	-1
0	428990	36.61	-1
0	430198	36.71	-1
0	431406	36.81	-1
0	432614	36.91	-1
0	433834	37.01	-1
0	435042	37.11	-1
0	436250	37.21	-1
0	437458	37.31	-1
0	438666	37.41	-1
0	439874	37.51	-1
0	441082	37.61	-1
0	442290	37.71	-1
0	443498	37.81	-1
0	444706	37.91	-1
0	445926	38.01	-1
0	447134	38.11	-1
0	448342	38.21	-1
0	449550	38.31	-1
0	450758	38.41	-1
0	451966	38.51	-1
0	453174	38.61	-1
0	454382	38.71	-1
0	455590	38.81	-1
0	456798	38.91	-1
0	458018	39.01	-1
0	459226	39.11	-1
0	460434	39.21	-1
0	461642	39.31	-1
0	462850	39.41	-1
0	464058	39.51	-1
0	465266	39.61	-1
0	466474	39.71	-1
0	467682	39.81	-1
0	468890	39.91	-1
0	470110	40.01	-1
0	471318	40.11	-1
0	472526	40.21	-1
0	473734	40.31	-1
0	474942	40.41	-1
0	476150	40.51	-1
0	477358	40.61	-1
0	478566	40.71	-1
0	479774	40.81	-1
0	480982	40.91	-1
0	482202	41.01	-1
0	483410	41.11	-1
0	484618	41.21	-1
0	485826	41.31	-1
0	487034	41.41	-1
0	488375	41.51	-1
0	489582	41.61	-1
0	490789	41.71	-1
0	491996	41.81	-1
0	493203	41.91	-1
0	494422	42.01	-1
0	495629	42.11	-1
0	496836	42.21	-1
0	498043	42.31	-1
0	499250	42.41	-1
0	500457	42.51	-1
0	501664	42.61	-1
0	502871	42.71	-1
0	504078	42.81	-1
0	505285	42.91	-1
0	506504	43.01	-1
0	507711	43.11	-1
0	508918	43.21	-1
0	510125	43.31	-1
0	511332	43.41	-1
0	512539	43.51	-1
0	513746	43.61	-1
0	514953	43.71	-1
0	516160	43.81	-1
0	517367	43.91	-1
0	518586	44.01	-1
0	519793	44.11	-1
0	521000	44.21	-1
0	522207	44.31	-1
0	523414	44.41	-1
0	524621	44.51	-1
0	525828	44.61	-1
0	527035	44.71	-1
0	528242	44.81	-1
0	529449	44.91	-1
0	530668	45.01	-1
0	531875	45.11	-1
0	533082	45.21	-1
0	534289	45.31	-1
0	535496	45.41	-1
0	536703	45.51	-1
0	537910	45.61	-1
0	539117	45.71	-1
0	540324	45.81	-1
0	541531	45.91	-1
0	542750	46.01	-1
0	543957	46.11	-1
0	545297	46.21	-1
0	546503	46.31	-1
0	547709	46.41	-1
0	548915	46.51	-1
0	550121	46.61	-1
0	551327	46.71	-1
0	552533	46.81	-1
0	553739	46.91	-1
0	554957	47.01	-1
0	556163	47.11	-1
0	557369	47.21	-1
0	558575	47.31	-1
0	559781	47.41	-1
0	560987	47.51	-1
0	562193	47.61	-1
0	563399	47.71	-1
0	564605	47.81	-1
0	565811	47.91	-1
0	567029	48.01	-1
0	568235	48.11	-1
0	569441	48.21	-1
0	570647	48.31	-1
0	571853	48.41	-1
0	573059	48.51	-1
0	574265	48.61	-1
0	575471	48.71	-1
0	576677	48.81	-1
0	577883	48.91	-1
0	579101	49.01	-1
0	580307	49.11	-1
0	581513	49.21	-1
0	582719	49.31	-1
0	583925	49.41	-1
0	585131	49.51	-1
0	586337	49.61	-1
0	587543	49.71	-1
0	588749	49.81	-1
0	589955	49.91	-1
0	591173	50.01	-1
0	592379	50.11	-1
0	593585	50.21	-1
0	594791	50.31	-1
0	595997	50.41	-1
0	597203	50.51	-1
0	598542	50.61	-1
0	599747	50.71	-1
0	600952	50.81	-1
0	602157	50.91	-1
0	603374	51.01	-1
0	604579	51.11	-1
0	605784	51.21	-1
0	606989	51.31	-1
0	608194	51.41	-1
0	609399	51.51	-1
0	610604	51.61	-1
0	611809	51.71	-1
0	613014	51.81	-1
0	614219	51.91	-1
0	615436	52.01	-1
0	616641	52.11	-1
0	617846	52.21	-1
0	619051	52.31	-1
0	620256	52.41	-1
0	621461	52.51	-1
0	622666	52.61	-1
0	623871	52.71	-1
0	625076	52.81	-1
0	626281	52.91	-1
0	627498	53.01	-1
0	628703	53.11	-1
0	629908	53.21	-1
0	631113	53.31	-1
0	632318	53.41	-1
0	633523	53.51	-1
0	634728	53.61	-1
0	635933	53.71	-1
0	637138	53.81	-1
0	638343	53.91	-1
0	639560	54.01	-1
0	640765	54.11	-1
0	641970	54.21	-1
0	643175	54.31	-1
0	644380	54.41	-1
0	645585	54.51	-1
0	646790	54.61	-1
0	647995	54.71	-1
0	649200	54.81	-1
0	650538	54.91	-1
0	651754	55.01	-1
0	652958	55.11	-1
0	654162	55.21	-1
0	655366	55.31	-1
0	656570	55.41	-1
0	657774	55.51	-1
0	658978	55.61	-1
0	660182	55.71	-1
0	661386	55.81	-1
0	662590	55.91	-1
0	663806	56.01	-1
0	665010	56.11	-1
0	666214	56.21	-1
0	667418	56.31	-1
0	668622	56.41	-1
0	669826	56.51	-1
0	671030	56.61	-1
0	672234	56.71	-1
0	673438	56.81	-1
0	674642	56.91	-1
0	675858	57.01	-1
0	677062	57.11	-1
0	678266	57.21	-1
0	679470	57.31	-1
0	680674	57.41	-1
0	681878	57.51	-1
0	683082	57.61	-1
0	684286	57.71	-1
0	685490	57.81	-1
0	686694	57.91	-1
0	687910	58.01	-1
0	689114	58.11	-1
0	690318	58.21	-1
0	691522	58.31	-1
0	692726	58.41	-1
0	693930	58.51	-1
0	695134	58.61	-1
0	696338	58.71	-1
0	697542	58.81	-1
0	698746	58.91	-1
0	700095	59.01	-1
0	701298	59.11	-1
0	702501	59.21	-1
0	703704	59.31	-1
0	704907	59.41	-1
0	706110	59.51	-1
0	707313	59.61	-1
0	708516	59.71	-1
0	709719	59.81	-1
0	710922	59.91	-1
0	712137	60.01	-1
0	713340	60.11	-1
0	714543	60.21	-1
0	715746	60.31	-1
0	716949	60.41	-1
0	718152	60.51	-1
0	719355	60.61	-1
0	720558	60.71	-1
0	721761	60.81	-1
0	722964	60.91	-1
0	724179	61.01	-1
0	725382	61.11	-1
0	726585	61.21	-1
0	727788	61.31	-1
0	728991	61.41	-1
0	730194	61.51	-1
0	731397	61.61	-1
0	732600	61.71	-1
0	733803	61.81	-1
0	735006	61.91	-1
0	736221	62.01	-1
0	737424	62.11	-1
0	738627	62.21	-1
0	739830	62.31	-1
0	741033	62.41	-1
0	742236	62.51	-1
0	743439	62.61	-1
0	744642	62.71	-1
0	745845	62.81	-1
0	747048	62.91	-1
0	748396	63.01	-1
0	749598	63.11	-1
0	750800	63.21	-1
0	752002	63.31	-1
0	753204	63.41	-1
0	754406	63.51	-1
0	755608	63.61	-1
0	756810	63.71	-1
0	758012	63.81	-1
0	759214	63.91	-1
0	760428	64.01	-1
0	761630	64.11	-1
0	762832	64.21	-1
0	764034	64.31	-1
0	765236	64.41	-1
0	766438	64.51	-1
0	767640	64.61	-1
0	768842	64.71	-1
0	770044	64.81	-1
0	771246	64.91	-1
0	772460	65.01	-1
0	773662	65.11	-1
0	774864	65.21	-1
0	776066	65.31	-1
0	777268	65.41	-1
0	778470	65.51	-1
0	779672	65.61	-1
0	780874	65.71	-1
0	782076	65.81	-1
0	783278	65.91	-1
0	784492	66.01	-1
0	785694	66.11	-1
0	786896	66.21	-1
0	788098	66.31	-1
0	789300	66.41	-1
0	790502	66.51	-1
0	791704	66.61	-1
0	792906	66.71	-1
0	794108	66.81	-1
0	795443	66.91	-1
0	796656	67.01	-1
0	797857	67.11	-1
0	799058	67.21	-1
0	800259	67.31	-1
0	801460	67.41	-1
0	802661	67.51	-1
0	803862	67.61	-1
0	805063	67.71	-1
0	806264	67.81	-1
0	807465	67.91	-1
0	808678	68.01	-1
0	809879	68.11	-1
0	811080	68.21	-1
0	812281	68.31	-1
0	813482	68.41	-1
0	814683	68.51	-1
0	815884	68.61	-1
0	817085	68.71	-1
0	818286	68.81	-1
0	819487	68.91	-1
0	820700	69.01	-1
0	821901	69.11	-1
0	823102	69.21	-1
0	824303	69.31	-1
0	825504	69.41	-1
0	826705	69.51	-1
0	827906	69.61	-1
0	829107	69.71	-1
0	830308	69.81	-1
0	831509	69.91	-1
0	832722	70.01	-1
0	833923	70.11	-1
0	835124	70.21	-1
0	836325	70.31	-1
0	837526	70.41	-1
0	838727	70.51	-1
0	839928	70.61	-1
0	841262	70.71	-1
0	842462	70.81	-1
0	843662	70.91	-1
0	844874	71.01	-1
0	846074	71.11	-1
0	847274	71.21	-1
0	848474	71.31	-1
0	849674	71.41	-1
0	850874	71.51	-1
0	852074	71.61	-1
0	853274	71.71	-1
0	854474	71.81	-1
0	855674	71.91	-1
0	856886	72.01	-1
0	858086	72.11	-1
0	859286	72.21	-1
0	860486	72.31	-1
0	861686	72.41	-1
0	862886	72.51	-1
0	864086	72.61	-1
0	865286	72.71	-1
0	866486	72.81	-1
0	867686	72.91	-1
0	868898	73.01	-1
0	870098	73.11	-1
0	871298	73.21	-1
0	872498	73.31	-1
0	873698	73.41	-1
0	874898	73.51	-1
0	876098	73.61	-1
0	877298	73.71	-1
0	878498	73.81	-1
0	879698	73.91	-1
0	880910	74.01	-1
0	882110	74.11	-1
0	883310	74.21	-1
0	884510	74.31	-1
0	885843	74.41	-1
0	887042	74.51	-1
0	888241	74.61	-1
0	889440	74.71	-1
0	890639	74.81	-1
0	891838	74.91	-1
0	893049	75.01	-1
0	894248	75.11	-1
0	895447	75.21	-1
0	896646	75.31	-1
0	897845	75.41	-1
0	899044	75.51	-1
0	900243	75.61	-1
0	901442	75.71	-1
0	902641	75.81	-1
0	903840	75.91	-1
0	905051	76.01	-1
0	906250	76.11	-1
0	907449	76.21	-1
0	908648	76.31	-1
0	909847	76.41	-1
0	911046	76.51	-1
0	912245	76.61	-1
0	913444	76.71	-1
0	914643	76.81	-1
0	915842	76.91	-1
0	917053	77.01	-1
0	918252	77.11	-1
0	919451	77.21	-1
0	920650	77.31	-1
0	921849	77.41	-1
0	923048	77.51	-1
0	924247	77.61	-1
0	925446	77.71	-1
0	926645	77.81	-1
0	927844	77.91	-1
0	929055	78.01	-1
0	931850	78.11	-1
0	933048	78.21	-1
0	934246	78.31	-1
0	935444	78.41	-1
0	936642	78.51	-1
0	937840	78.61	-1
0	939038	78.71	-1
0	940236	78.81	-1
0	941434	78.91	-1
0	942644	79.01	-1
0	943842	79.11	-1
0	945040	79.21	-1
0	946238	79.31	-1
0	947436	79.41	-1
0	948634	79.51	-1
0	949832	79.61	-1
0	951030	79.71	-1
0	952228	79.81	-1
0	953426	79.91	-1
0	954636	80.01	-1
0	955834	80.11	-1
0	957032	80.21	-1
0	958230	80.31	-1
0	959428	80.41	-1
0	960626	80.51	-1
0	961824	80.61	-1
0	963022	80.71	-1
0	964220	80.81	-1
0	965418	80.91	-1
0	966628	81.01	-1
0	967826	81.11	-1
0	969024	81.21	-1
0	970222	81.31	-1
0	971420	81.41	-1
0	972618	81.51	-1
0	973816	81.61	-1
0	975014	81.71	-1
0	976212	81.81	-1
0	977410	81.91	-1
0	978620	82.01	-1
0	979818	82.11	-1
0	981016	82.21	-1
0	982214	82.31	-1
0	983412	82.41	-1
0	984610	82.51	-1
0	985808	82.61	-1
0	987006	82.71	-1
0	988204	82.81	-1
0	989402	82.91	-1
0	990612	83.01	-1
0	991810	83.11	-1
0	993008	83.21	-1
0	994206	83.31	-1
0	995404	83.41	-1
0	996602	83.51	-1
0	997800	83.61	-1
0	998998	83.71	-1
0	1000196	83.81	-1
0	1001394	83.91	-1
0	1002604	84.01	-1
0	1003802	84.11	-1
0	1005000	84.21	-1
0	1006198	84.31	-1
0	1007396	84.41	-1
0	1008594	84.51	-1
0	1009792	84.61	-1
0	1010990	84.71	-1
0	1012188	84.81	-1
0	1013386	84.91	-1
0	1014596	85.01	-1
0	1015794	85.11	-1
0	1016992	85.21	-1
0	1018190	85.31	-1
0	1019388	85.41	-1
0	1020586	85.51	-1
0	1021784	85.61	-1
0	1022982	85.71	-1
0	1024180	85.81	-1
0	1025378	85.91	-1
0	1026588	86.01	-1
0	1027786	86.11	-1
0	1028984	86.21	-1
0	1030182	86.31	-1
0	1031380	86.41	-1
0	1032578	86.51	-1
0	1033776	86.61	-1
0	1034974	86.71	-1
0	1036172	86.81	-1
0	1037370	86.91	-1
0	1038580	87.01	-1
0	1039778	87.11	-1
0	1040976	87.21	-1
0	1042174	87.31	-1
0	1043372	87.41	-1
0	1044570	87.51	-1
0	1045768	87.61	-1
0	1046966	87.71	-1
0	1048164	87.81	-1
0	1049362	87.91	-1
0	1050572	88.01	-1
0	1051770	88.11	-1
0	1052968	88.21	-1
0	1054166	88.31	-1
0	1055364	88.41	-1
0	1056562	88.51	-1
0	1057760	88.61	-1
0	1058958	88.71	-1
0	1060156	88.81	-1
0	1061354	88.91	-1
0	1062564	89.01	-1
0	1063762	89.11	-1
0	1064960	89.21	-1
0	1066158	89.31	-1
0	1067356	89.41	-1
0	1068554	89.51	-1
0	1069752	89.61	-1
0	1070950	89.71	-1
0	1072148	89.81	-1
0	1073346	89.91	-1
0	1074556	90.01	-1
0	1075754	90.11	-1
0	1076952	90.21	-1
0	1078150	90.31	-1
0	1079348	90.41	-1
0	1080546	90.51	-1
0	1081744	90.61	-1
0	1082942	90.71	-1
0	1084140	90.81	-1
0	1085338	90.91	-1
0	1086548	91.01	-1
0	1087746	91.11	-1
0	1088944	91.21	-1
0	1090142	91.31	-1
0	1091340	91.41	-1
0	1092538	91.51	-1
0	1093736	91.61	-1
0	1094934	91.71	-1
0	1096132	91.81	-1
0	1097330	91.91	-1
0	1098540	92.01	-1
0	1099738	92.11	-1
0	1100936	92.21	-1
0	1102134	92.31	-1
0	1103332	92.41	-1
0	1104530	92.51	-1
0	1105728	92.61	-1
0	1106926	92.71	-1
0	1108124	92.81	-1
0	1109322	92.91	-1
0	1110532	93.01	-1
0	1111730	93.11	-1
0	1112928	93.21	-1
0	1114126	93.31	-1
0	1115324	93.41	-1
0	1116522	93.51	-1
0	1117720	93.61	-1
0	1118918	93.71	22.0042
0	1120116	93.81	22.2487
0	1121314	93.91	22.4931
0	1122524	94.01	22.7375
0	1123722	94.11	22.982
0	1124920	94.21	23.2264
0	1126118	94.31	23.4709
0	1127316	94.41	23.7153
0	1128514	94.51	23.9597
0	1129712	94.61	24.2042
0	1130910	94.71	24.4486
0	1132108	94.81	24.6931
0	1133306	94.91	24.9375
0	1134516	95.01	25.1819
0	1135714	95.11	25.4264
0	1136912	95.21	25.6708
0	1138110	95.31	25.9153
0	1139308	95.41	26.1597
0	1140506	95.51	26.4041
0	1141704	95.61	26.6486
0	1142902	95.71	26.893
0	1144100	95.81	27.1375
0	1145298	95.91	27.3819
0	1146508	96.01	27.6263
0	1147706	96.11	27.8708
0	1148904	96.21	28.1152
0	1150102	96.31	28.3597
0	1151300	96.41	28.6041
0	1152498	96.51	28.8485
0	1153696	96.61	29.093
0	1154894	96.71	29.3374
0	1156092	96.81	29.5819
0	1157290	96.91	29.8263
0	1158500	97.01	30.0707
0	1159698	97.11	30.3152
0	1160896	97.21	30.5596
0	1162094	97.31	30.8041
0	1163292	97.41	31.0485
0	1164490	97.51	31.2929
0	1165688	97.61	31.5374
0	1166886	97.71	31.7818
0	1168084	97.81	32.0263
0	1169282	97.91	32.2707
0	1170492	98.01	32.5151
0	1171690	98.11	32.7596
0	1172888	98.21	33.004
0	1174086	98.31	33.2485
0	1175284	98.41	33.4929
0	1176482	98.51	33.7373
0	1177680	98.61	33.9818
0	1178878	98.71	34.2262
0	1180076	98.81	34.4707
0	1181274	98.91	34.7151
0	1182484	99.01	34.9595
0	1183682	99.11	35.204
0	1184880	99.21	35.4484
0	1186078	99.31	35.6929
0	1187276	99.41	35.9373
0	1188474	99.51	36.1817
0	1189672	99.61	36.4262
0	1190870	99.71	36.6706
0	1192068	99.81	36.9151
0	1193266	99.91	37.1595
1	113	1.11	0
1	1311	1.21	0
1	2509	1.31	0
1	3707	1.41	0
1	4905	1.51	0
1	6103	1.61	0
1	7301	1.71	0
1	8499	1.81	0
1	9697	1.91	0
1	10907	2.01	0
1	12105	2.11	0
1	13303	2.21	0
1	14501	2.31	0
1	15699	2.41	0
1	16897	2.51	0
1	18095	2.61	0
1	19293	2.71	0
1	20491	2.81	0
1	21689	2.91	0
1	22899	3.01	0
1	24097	3.11	0
1	25295	3.21	0
1	26493	3.31	0
1	27691	3.41	0
1	28889	3.51	0
1	30087	3.61	0
1	31285	3.71	0
1	32483	3.81	0
1	33681	3.91	0
1	34891	4.01	0
1	36089	4.11	0
1	37287	4.21	0
1	38485	4.31	0
1	39683	4.41	0
1	40881	4.51	0
1	42079	4.61	0
1	43277	4.71	0
1	44475	4.81	0
1	45673	4.91	0
1	46883	5.01	0
1	48081	5.11	0
1	49279	5.21	0
1	50477	5.31	0
1	51675	5.41	0
1	52873	5.51	0
1	54071	5.61	0
1	55269	5.71	0
1	56467	5.81	0
1	57665	5.91	0
1	58875	6.01	0
1	60073	6.11	0
1	61271	6.21	0
1	62469	6.31	0
1	63667	6.41	0
1	64865	6.51	0
1	66063	6.61	0
1	67261	6.71	0
1	68459	6.81	0
1	69657	6.91	0
1	70867	7.01	0
1	72065	7.11	0
1	73263	7.21	0
1	74461	7.31	0
1	75659	7.41	0
1	76857	7.51	0
1	78055	7.61	0
1	79253	7.71	0
1	80451	7.81	0
1	81649	7.91	0
1	82859	8.01	0
1	84057	8.11	0
1	85255	8.21	0
1	86453	8.31	0
1	87651	8.41	0
1	88849	8.51	0
1	90047	8.61	0
1	91245	8.71	0
1	92443	8.81	0
1	93641	8.91	0
1	94851	9.01	0
1	96049	9.11	0
1	97247	9.21	0
1	98445	9.31	0
1	99643	9.41	0
1	100841	9.51	0
1	102039	9.61	0
1	103237	9.71	0
1	104435	9.81	0
1	105633	9.91	0
1	106953	10.01	0
1	108162	10.11	0
1	109371	10.21	0
1	110580	10.31	0
1	111789	10.41	0
1	112998	10.51	0
1	114207	10.61	0
1	115416	10.71	0
1	116625	10.81	0
1	117834	10.91	0
1	119055	11.01	0
1	120264	11.11	0
1	121473	11.21	0
1	122682	11.31	0
1	123891	11.41	0
1	125100	11.51	0
1	126309	11.61	0
1	127518	11.71	0
1	128727	11.81	0
1	129936	11.91	0
1	131157	12.01	0
1	132366	12.11	0
1	133575	12.21	0
1	134784	12.31	0
1	135993	12.41	0
1	137202	12.51	0
1	138411	12.61	0
1	139620	12.71	0
1	140829	12.81	0
1	142038	12.91	0
1	143259	13.01	0
1	144468	13.11	0
1	145677	13.21	0
1	146886	13.31	0
1	148095	13.41	0
1	149304	13.51	0
1	150513	13.61	0
1	151722	13.71	0
1	152931	13.81	0
1	154140	13.91	0
1	155361	14.01	0
1	156570	14.11	0
1	157779	14.21	0
1	158988	14.31	0
1	160197	14.41	0
1	161406	14.51	0
1	162615	14.61	0
1	163824	14.71	0
1	165033	14.81	0
1	166242	14.91	0
1	167463	15.01	0
1	168672	15.11	0
1	169881	15.21	0
1	171090	15.31	0
1	172299	15.41	0
1	173508	15.51	0
1	174717	15.61	0
1	175926	15.71	0
1	177135	15.81	0
1	178344	15.91	0
1	179565	16.01	0
1	180774	16.11	0
1	181983	16.21	0
1	183192	16.31	0
1	184401	16.41	0
1	185610	16.51	0
1	186819	16.61	0
1	188028	16.71	0
1	189237	16.81	0
1	190446	16.91	0
1	191667	17.01	0
1	192876	17.11	0
1	194085	17.21	0
1	195294	17.31	0
1	196503	17.41	0
1	197712	17.51	0
1	198921	17.61	0
1	200130	17.71	0
1	201339	17.81	0
1	202548	17.91	0
1	203769	18.01	0
1	204978	18.11	0
1	206187	18.21	0
1	207396	18.31	0
1	208605	18.41	0
1	209814	18.51	0
1	211023	18.61	0
1	212232	18.71	0
1	213441	18.81	0
1	214650	18.91	0
1	215871	19.01	0
1	217080	19.11	0
1	218289	19.21	0
1	219498	19.31	0
1	220707	19.41	0
1	221916	19.51	0
1	223125	19.61	0
1	224334	19.71	0
1	225543	19.81	0
1	226752	19.91	0
1	227973	20.01	0
1	229182	20.11	0
1	230391	20.21	0
1	231600	20.31	0
1	232809	20.41	0
1	234018	20.51	0
1	235227	20.61	0
1	236436	20.71	0
1	237645	20.81	0
1	238854	20.91	0
1	240075	21.01	0
1	241284	21.11	0
1	242493	21.21	0
1	243702	21.31	0
1	244911	21.41	0
1	246120	21.51	0
1	247329	21.61	0
1	248538	21.71	0
1	249747	21.81	0
1	250956	21.91	0
1	252177	22.01	0
1	253386	22.11	0
1	254595	22.21	0
1	255804	22.31	0
1	257013	22.41	0
1	258222	22.51	0
1	259431	22.61	0
1	260640	22.71	0
1	261849	22.81	0
1	263058	22.91	0
1	264279	23.01	0
1	265488	23.11	0
1	266697	23.21	0
1	267906	23.31	0
1	269115	23.41	0
1	270324	23.51	0
1	271533	23.61	0
1	272742	23.71	0
1	273951	23.81	0
1	275160	23.91	0
1	276381	24.01	0
1	277590	24.11	0
1	278799	24.21	0
1	280008	24.31	0
1	281217	24.41	0
1	282426	24.51	0
1	283635	24.61	0
1	284844	24.71	0
1	286053	24.81	0
1	287262	24.91	0
1	288483	25.01	0
1	289692	25.11	0
1	290901	25.21	0
1	292110	25.31	0
1	293319	25.41	0
1	294528	25.51	0
1	295737	25.61	0
1	296946	25.71	0
1	298155	25.81	0
1	299364	25.91	0
1	300585	26.01	0
1	301794	26.11	0
1	303003	26.21	0
1	304212	26.31	0
1	305421	26.41	0
1	306630	26.51	0
1	307839	26.61	0
1	309048	26.71	0
1	310257	26.81	0
1	311466	26.91	0
1	312687	27.01	0
1	313896	27.11	0
1	315105	27.21	0
1	316314	27.31	0
1	317523	27.41	0
1	318732	27.51	0
1	319941	27.61	0
1	321150	27.71	0
1	322359	27.81	0
1	323568	27.91	0
1	324789	28.01	0
1	325998	28.11	0
1	327207	28.21	0
1	328416	28.31	0
1	329625	28.41	0
1	330834	28.51	0
1	332043	28.61	0
1	333252	28.71	0
1	334461	28.81	0
1	335670	28.91	0
1	336891	29.01	0
1	338100	29.11	0
1	339309	29.21	0
1	340518	29.31	0
1	341727	29.41	0
1	342936	29.51	0
1	344145	29.61	0
1	345354	29.71	0
1	346563	29.81	0
1	347772	29.91	0
1	348993	30.01	0
1	350202	30.11	0
1	351411	30.21	0
1	352620	30.31	0
1	353829	30.41	0
1	355038	30.51	0
1	356247	30.61	0
1	357456	30.71	0
1	358665	30.81	0
1	359874	30.91	0
1	361095	31.01	0
1	362304	31.11	0
1	363513	31.21	0
1	364722	31.31	0
1	365931	31.41	0
1	367140	31.51	0
1	368349	31.61	0
1	369558	31.71	0
1	370767	31.81	0
1	371976	31.91	0
1	373197	32.01	0
1	374406	32.11	0
1	375615	32.21	0
1	376824	32.31	0
1	378033	32.41	0
1	379242	32.51	0
1	380451	32.61	0
1	381660	32.71	0
1	382869	32.81	0
1	384078	32.91	0
1	385299	33.01	0
1	386508	33.11	0
1	387717	33.21	0
1	388926	33.31	0
1	390135	33.41	0
1	391344	33.51	0
1	392553	33.61	0
1	393762	33.71	0
1	394971	33.81	0
1	396180	33.91	0
1	397401	34.01	0
1	398610	34.11	0
1	399819	34.21	0
1	401028	34.31	0
1	402237	34.41	0
1	403446	34.51	0
1	404655	34.61	0
1	405864	34.71	0
1	407073	34.81	0
1	408282	34.91	0
1	409503	35.01	0
1	410712	35.11	0
1	411921	35.21	0
1	413130	35.31	0
1	414339	35.41	0
1	415548	35.51	0
1	416757	35.61	0
1	417966	35.71	0
1	419175	35.81	0
1	420384	35.91	0
1	421605	36.01	0
1	422814	36.11	0
1	424023	36.21	0
1	425232	36.31	0
1	426574	36.41	0
1	427782	36.51	0
1	428990	36.61	0
1	430198	36.71	0
1	431406	36.81	0
1	432614	36.91	0
1	433834	37.01	0
1	435042	37.11	0
1	436250	37.21	0
1	437458	37.31	0
1	438666	37.41	0
1	439874	37.51	0
1	441082	37.61	0
1	442290	37.71	0
1	443498	37.81	0
1	444706	37.91	0
1	445926	38.01	0
1	447134	38.11	0
1	448342	38.21	0
1	449550	38.31	0
1	450758	38.41	0
1	451966	38.51	0
1	453174	38.61	0
1	454382	38.71	0
1	455590	38.81	0
1	456798	38.91	0
1	458018	39.01	0
1	459226	39.11	0
1	460434	39.21	0
1	461642	39.31	0
1	462850	39.41	0
1	464058	39.51	0
1	465266	39.61	0
1	466474	39.71	0
1	467682	39.81	0
1	468890	39.91	0
1	470110	40.01	0
1	471318	40.11	0
1	472526	40.21	0
1	473734	40.31	0
1	474942	40.41	0
1	476150	40.51	0
1	477358	40.61	0
1	478566	40.71	0
1	479774	40.81	0
1	480982	40.91	0
1	482202	41.01	0
1	483410	41.11	0
1	484618	41.21	0
1	485826	41.31	0
1	487034	41.41	0
1	488375	41.51	0
1	489582	41.61	0
1	490789	41.71	0
1	491996	41.81	0
1	493203	41.91	0
1	494422	42.01	0
1	495629	42.11	0
1	496836	42.21	0
1	498043	42.31	0
1	499250	42.41	0
1	500457	42.51	0
1	501664	42.61	0
1	502871	42.71	0
1	504078	42.81	0
1	505285	42.91	0
1	506504	43.01	0
1	507711	43.11	0
1	508918	43.21	0
1	510125	43.31	0
1	511332	43.41	0
1	512539	43.51	0
1	513746	43.61	0
1	514953	43.71	0
1	516160	43.81	0
1	517367	43.91	0
1	518586	44.01	0
1	519793	44.11	0
1	521000	44.21	0
1	522207	44.31	0
1	523414	44.41	0
1	524621	44.51	0
1	525828	44.61	0
1	527035	44.71	0
1	528242	44.81	0
1	529449	44.91	0
1	530668	45.01	0
1	531875	45.11	0
1	533082	45.21	0
1	534289	45.31	0
1	535496	45.41	0
1	536703	45.51	0
1	537910	45.61	0
1	539117	45.71	0
1	540324	45.81	0
1	541531	45.91	0
1	542750	46.01	0
1	543957	46.11	0
1	545297	46.21	0
1	546503	46.31	0
1	547709	46.41	0
1	548915	46.51	0
1	550121	46.61	0
1	551327	46.71	0
1	552533	46.81	0
1	553739	46.91	0
1	554957	47.01	0
1	556163	47.11	0
1	557369	47.21	0
1	558575	47.31	0
1	559781	47.41	0
1	560987	47.51	0
1	562193	47.61	0
1	563399	47.71	0
1	564605	47.81	0
1	565811	47.91	0
1	567029	48.01	0
1	568235	48.11	0
1	569441	48.21	0
1	570647	48.31	0
1	571853	48.41	0
1	573059	48.51	0
1	574265	48.61	0
1	575471	48.71	0
1	576677	48.81	0
1	577883	48.91	0
1	579101	49.01	0
1	580307	49.11	0
1	581513	49.21	0
1	582719	49.31	0
1	583925	49.41	0
1	585131	49.51	0
1	586337	49.61	0
1	587543	49.71	0
1	588749	49.81	0
1	589955	49.91	0
1	591173	50.01	0
1	592379	50.11	0
1	593585	50.21	0
1	594791	50.31	0
1	595997	50.41	0
1	597203	50.51	0
1	598542	50.61	0
1	599747	50.71	0
1	600952	50.81	0
1	602157	50.91	0
1	603374	51.01	0
1	604579	51.11	0
1	605784	51.21	0
1	606989	51.31	0
1	608194	51.41	0
1	609399	51.51	0
1	610604	51.61	0
1	611809	51.71	0
1	613014	51.81	0
1	614219	51.91	0
1	615436	52.01	0
1	616641	52.11	0
1	617846	52.21	0
1	619051	52.31	0
1	620256	52.41	0
1	621461	52.51	0
1	622666	52.61	0
1	623871	52.71	0
1	625076	52.81	0
1	626281	52.91	0
1	627498	53.01	0
1	628703	53.11	0
1	629908	53.21	0
1	631113	53.31	0
1	632318	53.41	0
1	633523	53.51	0
1	634728	53.61	0
1	635933	53.71	0
1	637138	53.81	0
1	638343	53.91	0
1	639560	54.01	0
1	640765	54.11	0
1	641970	54.21	0
1	643175	54.31	0
1	644380	54.41	0
1	645585	54.51	0
1	646790	54.61	0
1	647995	54.71	0
1	649200	54.81	0
1	650538	54.91	0
1	651754	55.01	0
1	652958	55.11	0
1	654162	55.21	0
1	655366	55.31	0
1	656570	55.41	0
1	657774	55.51	0
1	658978	55.61	0
1	660182	55.71	0
1	661386	55.81	0
1	662590	55.91	0
1	663806	56.01	0
1	665010	56.11	0
1	666214	56.21	0
1	667418	56.31	0
1	668622	56.41	0
1	669826	56.51	0
1	671030	56.61	0
1	672234	56.71	0
1	673438	56.81	0
1	674642	56.91	0
1	675858	57.01	0
1	677062	57.11	0
1	678266	57.21	0
1	679470	57.31	0
1	680674	57.41	0
1	681878	57.51	0
1	683082	57.61	0
1	684286	57.71	0
1	685490	57.81	0
1	686694	57.91	0
1	687910	58.01	0
1	689114	58.11	0
1	690318	58.21	0
1	691522	58.31	0
1	692726	58.41	0
1	693930	58.51	0
1	695134	58.61	0
1	696338	58.71	0
1	697542	58.81	0
1	698746	58.91	0
1	700095	59.01	0
1	701298	59.11	0
1	702501	59.21	0
1	703704	59.31	0
1	704907	59.41	0
1	706110	59.51	0
1	707313	59.61	0
1	708516	59.71	0
1	709719	59.81	0
1	710922	59.91	0
1	712137	60.01	0
1	713340	60.11	0
1	714543	60.21	0
1	715746	60.31	0
1	716949	60.41	0
1	718152	60.51	0
1	719355	60.61	0
1	720558	60.71	0
1	721761	60.81	0
1	722964	60.91	0
1	724179	61.01	0
1	725382	61.11	0
1	726585	61.21	0
1	727788	61.31	0
1	728991	61.41	0
1	730194	61.51	0
1	731397	61.61	0
1	732600	61.71	0
1	733803	61.81	0
1	735006	61.91	0
1	736221	62.01	0
1	737424	62.11	0
1	738627	62.21	0
1	739830	62.31	0
1	741033	62.41	0
1	742236	62.51	0
1	743439	62.61	0
1	744642	62.71	0
1	745845	62.81	0
1	747048	62.91	0
1	748396	63.01	0
1	749598	63.11	0
1	750800	63.21	0
1	752002	63.31	0
1	753204	63.41	0
1	754406	63.51	0
1	755608	63.61	0
1	756810	63.71	0
1	758012	63.81	0
1	759214	63.91	0
1	760428	64.01	0
1	761630	64.11	0
1	762832	64.21	0
1	764034	64.31	0
1	765236	64.41	0
1	766438	64.51	0
1	767640	64.61	0
1	768842	64.71	0
1	770044	64.81	0
1	771246	64.91	0
1	772460	65.01	0
1	773662	65.11	0
1	774864	65.21	0
1	776066	65.31	0
1	777268	65.41	0
1	778470	65.51	0
1	779672	65.61	0
1	780874	65.71	0
1	782076	65.81	0
1	783278	65.91	0
1	784492	66.01	0
1	785694	66.11	0
1	786896	66.21	0
1	788098	66.31	0
1	789300	66.41	0
1	790502	66.51	0
1	791704	66.61	0
1	792906	66.71	0
1	794108	66.81	0
1	795443	66.91	0
1	796656	67.01	0
1	797857	67.11	0
1	799058	67.21	0
1	800259	67.31	0
1	801460	67.41	0
1	802661	67.51	0
1	803862	67.61	0
1	805063	67.71	0
1	806264	67.81	0
1	807465	67.91	0
1	808678	68.01	0
1	809879	68.11	0
1	811080	68.21	0
1	812281	68.31	0
1	813482	68.41	0
1	814683	68.51	0
1	815884	68.61	0
1	817085	68.71	0
1	818286	68.81	0
1	819487	68.91	0
1	820700	69.01	0
1	821901	69.11	0
1	823102	69.21	0
1	824303	69.31	0
1	825504	69.41	0
1	826705	69.51	0
1	827906	69.61	0
1	829107	69.71	0
1	830308	69.81	0
1	831509	69.91	0
1	832722	70.01	0
1	833923	70.11	0
1	835124	70.21	0
1	836325	70.31	0
1	837526	70.41	0
1	838727	70.51	0
1	839928	70.61	0
1	841262	70.71	0
1	842462	70.81	0
1	843662	70.91	0
1	844874	71.01	0
1	846074	71.11	0
1	847274	71.21	0
1	848474	71.31	0
1	849674	71.41	0
1	850874	71.51	0
1	852074	71.61	0
1	853274	71.71	0
1	854474	71.81	0
1	855674	71.91	0
1	856886	72.01	0
1	858086	72.11	0
1	859286	72.21	0
1	860486	72.31	0
1	861686	72.41	0
1	862886	72.51	0
1	864086	72.61	0
1	865286	72.71	0
1	866486	72.81	0
1	867686	72.91	0
1	868898	73.01	0
1	870098	73.11	0
1	871298	73.21	0
1	872498	73.31	0
1	873698	73.41	0
1	874898	73.51	0
1	876098	73.61	0
1	877298	73.71	0
1	878498	73.81	0
1	879698	73.91	0
1	880910	74.01	0
1	882110	74.11	0
1	883310	74.21	0
1	884510	74.31	0
1	885843	74.41	0
1	887042	74.51	0
1	888241	74.61	0
1	889440	74.71	0
1	890639	74.81	0
1	891838	74.91	0
1	893049	75.01	0
1	894248	75.11	0
1	895447	75.21	0
1	896646	75.31	0
1	897845	75.41	0
1	899044	75.51	0
1	900243	75.61	0
1	901442	75.71	0
1	902641	75.81	0
1	903840	75.91	0
1	905051	76.01	0
1	906250	76.11	0
1	907449	76.21	0
1	908648	76.31	0
1	909847	76.41	0
1	911046	76.51	0
1	912245	76.61	0
1	913444	76.71	0
1	914643	76.81	0
1	915842	76.91	0
1	917053	77.01	0
1	918252	77.11	0
1	919451	77.21	0
1	920650	77.31	0
1	921849	77.41	0
1	923048	77.51	0
1	924247	77.61	0
1	925446	77.71	0
1	926645	77.81	0
1	927844	77.91	0
1	929055	78.01	0
1	931850	78.11	0
1	933048	78.21	0
1	934246	78.31	0
1	935444	78.41	0
1	936642	78.51	0
1	937840	78.61	0
1	939038	78.71	0
1	940236	78.81	0
1	941434	78.91	0
1	942644	79.01	0
1	943842	79.11	0
1	945040	79.21	0
1	946238	79.31	0
1	947436	79.41	0
1	948634	79.51	0
1	949832	79.61	0
1	951030	79.71	0
1	952228	79.81	0
1	953426	79.91	0
1	954636	80.01	0
1	955834	80.11	0
1	957032	80.21	0
1	958230	80.31	0
1	959428	80.41	0
1	960626	80.51	0
1	961824	80.61	0
1	963022	80.71	0
1	964220	80.81	0
1	965418	80.91	0
1	966628	81.01	0
1	967826	81.11	0
1	969024	81.21	0
1	970222	81.31	0
1	971420	81.41	0
1	972618	81.51	0
1	973816	81.61	0
1	975014	81.71	0
1	976212	81.81	0
1	977410	81.91	0
1	978620	82.01	0
1	979818	82.11	0
1	981016	82.21	0
1	982214	82.31	0
1	983412	82.41	0
1	984610	82.51	0
1	985808	82.61	0
1	987006	82.71	0
1	988204	82.81	0
1	989402	82.91	0
1	990612	83.01	0
1	991810	83.11	0
1	993008	83.21	0
1	994206	83.31	0
1	995404	83.41	0
1	996602	83.51	0
1	997800	83.61	0
1	998998	83.71	0
1	1000196	83.81	0
1	1001394	83.91	0
1	1002604	84.01	0
1	1003802	84.11	0
1	1005000	84.21	0
1	1006198	84.31	0
1	1007396	84.41	0
1	1008594	84.51	0
1	1009792	84.61	0
1	1010990	84.71	0
1	1012188	84.81	0
1	1013386	84.91	0
1	1014596	85.01	0
1	1015794	85.11	0
1	1016992	85.21	0
1	1018190	85.31	0
1	1019388	85.41	0
1	1020586	85.51	0
1	1021784	85.61	0
1	1022982	85.71	0
1	1024180	85.81	0
1	1025378	85.91	0
1	1026588	86.01	0
1	1027786	86.11	0
1	1028984	86.21	0
1	1030182	86.31	0
1	1031380	86.41	0
1	1032578	86.51	0
1	1033776	86.61	0
1	1034974	86.71	0
1	1036172	86.81	0
1	1037370	86.91	0
1	1038580	87.01	0
1	1039778	87.11	0
1	1040976	87.21	0
1	1042174	87.31	0
1	1043372	87.41	0
1	1044570	87.51	0
1	1045768	87.61	0
1	1046966	87.71	0
1	1048164	87.81	0
1	1049362	87.91	0
1	1050572	88.01	0
1	1051770	88.11	0
1	1052968	88.21	0
1	1054166	88.31	0
1	1055364	88.41	0
1	1056562	88.51	0
1	1057760	88.61	0
1	1058958	88.71	0
1	1060156	88.81	0
1	1061354	88.91	0
1	1062564	89.01	0
1	1063762	89.11	0
1	1064960	89.21	0
1	1066158	89.31	0
1	1067356	89.41	0
1	1068554	89.51	0
1	1069752	89.61	0
1	1070950	89.71	0
1	1072148	89.81	0
1	1073346	89.91	0
1	1074556	90.01	0
1	1075754	90.11	0
1	1076952	90.21	0
1	1078150	90.31	0
1	1079348	90.41	0
1	1080546	90.51	0
1	1081744	90.61	0
1	1082942	90.71	0
1	1084140	90.81	0
1	1085338	90.91	0
1	1086548	91.01	0
1	1087746	91.11	0
1	1088944	91.21	0
1	1090142	91.31	0
1	1091340	91.41	0
1	1092538	91.51	0
1	1093736	91.61	0
1	1094934	91.71	0
1	1096132	91.81	0
1	1097330	91.91	0
1	1098540	92.01	0
1	1099738	92.11	0
1	1100936	92.21	0
1	1102134	92.31	0
1	1103332	92.41	0
1	1104530	92.51	0
1	1105728	92.61	0
1	1106926	92.71	0
1	1108124	92.81	0
1	1109322	92.91	0
1	1110532	93.01	0
1	1111730	93.11	0
1	1112928	93.21	0
1	1114126	93.31	0
1	1115324	93.41	0
1	1116522	93.51	0
1	1117720	93.61	0
1	1118918	93.71	2.4444
1	1120116	93.81	2.4444
1	1121314	93.91	2.4444
1	1122524	94.01	2.4444
1	1123722	94.11	2.4444
1	1124920	94.21	2.4444
1	1126118	94.31	2.4444
1	1127316	94.41	2.4444
1	1128514	94.51	2.4444
1	1129712	94.61	2.4444
1	1130910	94.71	2.4444
1	1132108	94.81	2.4444
1	1133306	94.91	2.4444
1	1134516	95.01	2.4444
1	1135714	95.11	2.4444
1	1136912	95.21	2.4444
1	1138110	95.31	2.4444
1	1139308	95.41	2.4444
1	1140506	95.51	2.4444
1	1141704	95.61	2.4444
1	1142902	95.71	2.4444
1	1144100	95.81	2.4444
1	1145298	95.91	2.4444
1	1146508	96.01	2.4444
1	1147706	96.11	2.4444
1	1148904	96.21	2.4444
1	1150102	96.31	2.4444
1	1151300	96.41	2.4444
1	1152498	96.51	2.4444
1	1153696	96.61	2.4444
1	1154894	96.71	2.4444
1	1156092	96.81	2.4444
1	1157290	96.91	2.4444
1	1158500	97.01	2.4444
1	1159698	97.11	2.4444
1	1160896	97.21	2.4444
1	1162094	97.31	2.4444
1	1163292	97.41	2.4444
1	1164490	97.51	2.4444
1	1165688	97.61	2.4444
1	1166886	97.71	2.4444
1	1168084	97.81	2.4444
1	1169282	97.91	2.4444
1	1170492	98.01	2.4444
1	1171690	98.11	2.4444
1	1172888	98.21	2.4444
1	1174086	98.31	2.4444
1	1175284	98.41	2.4444
1	1176482	98.51	2.4444
1	1177680	98.61	2.4444
1	1178878	98.71	2.4444
1	1180076	98.81	2.4444
1	1181274	98.91	2.4444
1	1182484	99.01	2.4444
1	1183682	99.11	2.4444
1	1184880	99.21	2.4444
1	1186078	99.31	2.4444
1	1187276	99.41	2.4444
1	1188474	99.51	2.4444
1	1189672	99.61	2.4444
1	1190870	99.71	2.4444
1	1192068	99.81	2.4444
1	1193266	99.91	2.4444
2	113	1.11	0
2	1311	1.21	0
2	2509	1.31	0
2	3707	1.41	0
2	4905	1.51	0
2	6103	1.61	0
2	7301	1.71	0
2	8499	1.81	0
2	9697	1.91	0
2	10907	2.01	0
2	12105	2.11	0
2	13303	2.21	0
2	14501	2.31	0
2	15699	2.41	0
2	16897	2.51	0
2	18095	2.61	0
2	19293	2.71	0
2	20491	2.81	0
2	21689	2.91	0
2	22899	3.01	0
2	24097	3.11	0
2	25295	3.21	0
2	26493	3.31	0
2	27691	3.41	0
2	28889	3.51	0
2	30087	3.61	0
2	31285	3.71	0
2	32483	3.81	0
2	33681	3.91	0
2	34891	4.01	0
2	36089	4.11	0
2	37287	4.21	0
2	38485	4.31	0
2	39683	4.41	0
2	40881	4.51	0
2	42079	4.61	0
2	43277	4.71	0
2	44475	4.81	0
2	45673	4.91	0
2	46883	5.01	0
2	48081	5.11	0
2	49279	5.21	0
2	50477	5.31	0
2	51675	5.41	0
2	52873	5.51	0
2	54071	5.61	0
2	55269	5.71	0
2	56467	5.81	0
2	57665	5.91	0
2	58875	6.01	0
2	60073	6.11	0
2	61271	6.21	0
2	62469	6.31	0
2	63667	6.41	0
2	64865	6.51	0
2	66063	6.61	0
2	67261	6.71	0
2	68459	6.81	0
2	69657	6.91	0
2	70867	7.01	0
2	72065	7.11	0
2	73263	7.21	0
2	74461	7.31	0
2	75659	7.41	0
2	76857	7.51	0
2	78055	7.61	0
2	79253	7.71	0
2	80451	7.81	0
2	81649	7.91	0
2	82859	8.01	0
2	84057	8.11	0
2	85255	8.21	0
2	86453	8.31	0
2	87651	8.41	0
2	88849	8.51	0
2	90047	8.61	0
2	91245	8.71	0
2	92443	8.81	0
2	93641	8.91	0
2	94851	9.01	0
2	96049	9.11	0
2	97247	9.21	0
2	98445	9.31	0
2	99643	9.41	0
2	100841	9.51	0
2	102039	9.61	0
2	103237	9.71	0
2	104435	9.81	0
2	105633	9.91	0
2	106953	10.01	0
2	108162	10.11	0
2	109371	10.21	0
2	110580	10.31	0
2	111789	10.41	0
2	112998	10.51	0
2	114207	10.61	0
2	115416	10.71	0
2	116625	10.81	0
2	117834	10.91	0
2	119055	11.01	0
2	120264	11.11	0
2	121473	11.21	0
2	122682	11.31	0
2	123891	11.41	0
2	125100	11.51	0
2	126309	11.61	0
2	127518	11.71	0
2	128727	11.81	0
2	129936	11.91	0
2	131157	12.01	0
2	132366	12.11	0
2	133575	12.21	0
2	134784	12.31	0
2	135993	12.41	0
2	137202	12.51	0
2	138411	12.61	0
2	139620	12.71	0
2	140829	12.81	0
2	142038	12.91	0
2	143259	13.01	0
2	144468	13.11	0
2	145677	13.21	0
2	146886	13.31	0
2	148095	13.41	0
2	149304	13.51	0
2	150513	13.61	0
2	151722	13.71	0
2	152931	13.81	0
2	154140	13.91	0
2	155361	14.01	0
2	156570	14.11	0
2	157779	14.21	0
2	158988	14.31	0
2	160197	14.41	0
2	161406	14.51	0
2	162615	14.61	0
2	163824	14.71	0
2	165033	14.81	0
2	166242	14.91	0
2	167463	15.01	0
2	168672	15.11	0
2	169881	15.21	0
2	171090	15.31	0
2	172299	15.41	0
2	173508	15.51	0
2	174717	15.61	0
2	175926	15.71	0
2	177135	15.81	0
2	178344	15.91	0
2	179565	16.01	0
2	180774	16.11	0
2	181983	16.21	0
2	183192	16.31	0
2	184401	16.41	0
2	185610	16.51	0
2	186819	16.61	0
2	188028	16.71	0
2	189237	16.81	0
2	190446	16.91	0
2	191667	17.01	0
2	192876	17.11	0
2	194085	17.21	0
2	195294	17.31	0
2	196503	17.41	0
2	197712	17.51	0
2	198921	17.61	0
2	200130	17.71	0
2	201339	17.81	0
2	202548	17.91	0
2	203769	18.01	0
2	204978	18.11	0
2	206187	18.21	0
2	207396	18.31	0
2	208605	18.41	0
2	209814	18.51	0
2	211023	18.61	0
2	212232	18.71	0
2	213441	18.81	0
2	214650	18.91	0
2	215871	19.01	0
2	217080	19.11	0
2	218289	19.21	0
2	219498	19.31	0
2	220707	19.41	0
2	221916	19.51	0
2	223125	19.61	0
2	224334	19.71	0
2	225543	19.81	0
2	226752	19.91	0
2	227973	20.01	0
2	229182	20.11	0
2	230391	20.21	0
2	231600	20.31	0
2	232809	20.41	0
2	234018	20.51	0
2	235227	20.61	0
2	236436	20.71	0
2	237645	20.81	0
2	238854	20.91	0
2	240075	21.01	0
2	241284	21.11	0
2	242493	21.21	0
2	243702	21.31	0
2	244911	21.41	0
2	246120	21.51	0
2	247329	21.61	0
2	248538	21.71	0
2	249747	21.81	0
2	250956	21.91	0
2	252177	22.01	0
2	253386	22.11	0
2	254595	22.21	0
2	255804	22.31	0
2	257013	22.41	0
2	258222	22.51	0
2	259431	22.61	0
2	260640	22.71	0
2	261849	22.81	0
2	263058	22.91	0
2	264279	23.01	0
2	265488	23.11	0
2	266697	23.21	0
2	267906	23.31	0
2	269115	23.41	0
2	270324	23.51	0
2	271533	23.61	0
2	272742	23.71	0
2	273951	23.81	0
2	275160	23.91	0
2	276381	24.01	0
2	277590	24.11	0
2	278799	24.21	0
2	280008	24.31	0
2	281217	24.41	0
2	282426	24.51	0
2	283635	24.61	0
2	284844	24.71	0
2	286053	24.81	0
2	287262	24.91	0
2	288483	25.01	0
2	289692	25.11	0
2	290901	25.21	0
2	292110	25.31	0
2	293319	25.41	0
2	294528	25.51	0
2	295737	25.61	0
2	296946	25.71	0
2	298155	25.81	0
2	299364	25.91	0
2	300585	26.01	0
2	301794	26.11	0
2	303003	26.21	0
2	304212	26.31	0
2	305421	26.41	0
2	306630	26.51	0
2	307839	26.61	0
2	309048	26.71	0
2	310257	26.81	0
2	311466	26.91	0
2	312687	27.01	0
2	313896	27.11	0
2	315105	27.21	0
2	316314	27.31	0
2	317523	27.41	0
2	318732	27.51	0
2	319941	27.61	0
2	321150	27.71	0
2	322359	27.81	0
2	323568	27.91	0
2	324789	28.01	0
2	325998	28.11	0
2	327207	28.21	0
2	328416	28.31	0
2	329625	28.41	0
2	330834	28.51	0
2	332043	28.61	0
2	333252	28.71	0
2	334461	28.81	0
2	335670	28.91	0
2	336891	29.01	0
2	338100	29.11	0
2	339309	29.21	0
2	340518	29.31	0
2	341727	29.41	0
2	342936	29.51	0
2	344145	29.61	0
2	345354	29.71	0
2	346563	29.81	0
2	347772	29.91	0
2	348993	30.01	0
2	350202	30.11	0
2	351411	30.21	0
2	352620	30.31	0
2	353829	30.41	0
2	355038	30.51	0
2	356247	30.61	0
2	357456	30.71	0
2	358665	30.81	0
2	359874	30.91	0
2	361095	31.01	0
2	362304	31.11	0
2	363513	31.21	0
2	364722	31.31	0
2	365931	31.41	0
2	367140	31.51	0
2	368349	31.61	0
2	369558	31.71	0
2	370767	31.81	0
2	371976	31.91	0
2	373197	32.01	0
2	374406	32.11	0
2	375615	32.21	0
2	376824	32.31	0
2	378033	32.41	0
2	379242	32.51	0
2	380451	32.61	0
2	381660	32.71	0
2	382869	32.81	0
2	384078	32.91	0
2	385299	33.01	0
2	386508	33.11	0
2	387717	33.21	0
2	388926	33.31	0
2	390135	33.41	0
2	391344	33.51	0
2	392553	33.61	0
2	393762	33.71	0
2	394971	33.81	0
2	396180	33.91	0
2	397401	34.01	0
2	398610	34.11	0
2	399819	34.21	0
2	401028	34.31	0
2	402237	34.41	0
2	403446	34.51	0
2	404655	34.61	0
2	405864	34.71	0
2	407073	34.81	0
2	408282	34.91	0
2	409503	35.01	0
2	410712	35.11	0
2	411921	35.21	0
2	413130	35.31	0
2	414339	35.41	0
2	415548	35.51	0
2	416757	35.61	0
2	417966	35.71	0
2	419175	35.81	0
2	420384	35.91	0
2	421605	36.01	0
2	422814	36.11	0
2	424023	36.21	0
2	425232	36.31	0
2	426574	36.41	0
2	427782	36.51	0
2	428990	36.61	0
2	430198	36.71	0
2	431406	36.81	0
2	432614	36.91	0
2	433834	37.01	0
2	435042	37.11	0
2	436250	37.21	0
2	437458	37.31	0
2	438666	37.41	0
2	439874	37.51	0
2	441082	37.61	0
2	442290	37.71	0
2	443498	37.81	0
2	444706	37.91	0
2	445926	38.01	0
2	447134	38.11	0
2	448342	38.21	0
2	449550	38.31	0
2	450758	38.41	0
2	451966	38.51	0
2	453174	38.61	0
2	454382	38.71	0
2	455590	38.81	0
2	456798	38.91	0
2	458018	39.01	0
2	459226	39.11	0
2	460434	39.21	0
2	461642	39.31	0
2	462850	39.41	0
2	464058	39.51	0
2	465266	39.61	0
2	466474	39.71	0
2	467682	39.81	0
2	468890	39.91	0
2	470110	40.01	0
2	471318	40.11	0
2	472526	40.21	0
2	473734	40.31	0
2	474942	40.41	0
2	476150	40.51	0
2	477358	40.61	0
2	478566	40.71	0
2	479774	40.81	0
2	480982	40.91	0
2	482202	41.01	0
2	483410	41.11	0
2	484618	41.21	0
2	485826	41.31	0
2	487034	41.41	0
2	488375	41.51	0
2	489582	41.61	0
2	490789	41.71	0
2	491996	41.81	0
2	493203	41.91	0
2	494422	42.01	0
2	495629	42.11	0
2	496836	42.21	0
2	498043	42.31	0
2	499250	42.41	0
2	500457	42.51	0
2	501664	42.61	0
2	502871	42.71	0
2	504078	42.81	0
2	505285	42.91	0
2	506504	43.01	0
2	507711	43.11	0
2	508918	43.21	0
2	510125	43.31	0
2	511332	43.41	0
2	512539	43.51	0
2	513746	43.61	0
2	514953	43.71	0
2	516160	43.81	0
2	517367	43.91	0
2	518586	44.01	0
2	519793	44.11	0
2	521000	44.21	0
2	522207	44.31	0
2	523414	44.41	0
2	524621	44.51	0
2	525828	44.61	0
2	527035	44.71	0
2	528242	44.81	0
2	529449	44.91	0
2	530668	45.01	0
2	531875	45.11	0
2	533082	45.21	0
2	534289	45.31	0
2	535496	45.41	0
2	536703	45.51	0
2	537910	45.61	0
2	539117	45.71	0
2	540324	45.81	0
2	541531	45.91	0
2	542750	46.01	0
2	543957	46.11	0
2	545297	46.21	0
2	546503	46.31	0
2	547709	46.41	0
2	548915	46.51	0
2	550121	46.61	0
2	551327	46.71	0
2	552533	46.81	0
2	553739	46.91	0
2	554957	47.01	0
2	556163	47.11	0
2	557369	47.21	0
2	558575	47.31	0
2	559781	47.41	0
2	560987	47.51	0
2	562193	47.61	0
2	563399	47.71	0
2	564605	47.81	0
2	565811	47.91	0
2	567029	48.01	0
2	568235	48.11	0
2	569441	48.21	0
2	570647	48.31	0
2	571853	48.41	0
2	573059	48.51	0
2	574265	48.61	0
2	575471	48.71	0
2	576677	48.81	0
2	577883	48.91	0
2	579101	49.01	0
2	580307	49.11	0
2	581513	49.21	0
2	582719	49.31	0
2	583925	49.41	0
2	585131	49.51	0
2	586337	49.61	0
2	587543	49.71	0
2	588749	49.81	0
2	589955	49.91	0
2	591173	50.01	0
2	592379	50.11	0
2	593585	50.21	0
2	594791	50.31	0
2	595997	50.41	0
2	597203	50.51	0
2	598542	50.61	0
2	599747	50.71	0
2	600952	50.81	0
2	602157	50.91	0
2	603374	51.01	0
2	604579	51.11	0
2	605784	51.21	0
2	606989	51.31	0
2	608194	51.41	0
2	609399	51.51	0
2	610604	51.61	0
2	611809	51.71	0
2	613014	51.81	0
2	614219	51.91	0
2	615436	52.01	0
2	616641	52.11	0
2	617846	52.21	0
2	619051	52.31	0
2	620256	52.41	0
2	621461	52.51	0
2	622666	52.61	0
2	623871	52.71	0
2	625076	52.81	0
2	626281	52.91	0
2	627498	53.01	0
2	628703	53.11	0
2	629908	53.21	0
2	631113	53.31	0
2	632318	53.41	0
2	633523	53.51	0
2	634728	53.61	0
2	635933	53.71	0
2	637138	53.81	0
2	638343	53.91	0
2	639560	54.01	0
2	640765	54.11	0
2	641970	54.21	0
2	643175	54.31	0
2	644380	54.41	0
2	645585	54.51	0
2	646790	54.61	0
2	647995	54.71	0
2	649200	54.81	0
2	650538	54.91	0
2	651754	55.01	0
2	652958	55.11	0
2	654162	55.21	0
2	655366	55.31	0
2	656570	55.41	0
2	657774	55.51	0
2	658978	55.61	0
2	660182	55.71	0
2	661386	55.81	0
2	662590	55.91	0
2	663806	56.01	0
2	665010	56.11	0
2	666214	56.21	0
2	667418	56.31	0
2	668622	56.41	0
2	669826	56.51	0
2	671030	56.61	0
2	672234	56.71	0
2	673438	56.81	0
2	674642	56.91	0
2	675858	57.01	0
2	677062	57.11	0
2	678266	57.21	0
2	679470	57.31	0
2	680674	57.41	0
2	681878	57.51	0
2	683082	57.61	0
2	684286	57.71	0
2	685490	57.81	0
2	686694	57.91	0
2	687910	58.01	0
2	689114	58.11	0
2	690318	58.21	0
2	691522	58.31	0
2	692726	58.41	0
2	693930	58.51	0
2	695134	58.61	0
2	696338	58.71	0
2	697542	58.81	0
2	698746	58.91	0
2	700095	59.01	0
2	701298	59.11	0
2	702501	59.21	0
2	703704	59.31	0
2	704907	59.41	0
2	706110	59.51	0
2	707313	59.61	0
2	708516	59.71	0
2	709719	59.81	0
2	710922	59.91	0
2	712137	60.01	0
2	713340	60.11	0
2	714543	60.21	0
2	715746	60.31	0
2	716949	60.41	0
2	718152	60.51	0
2	719355	60.61	0
2	720558	60.71	0
2	721761	60.81	0
2	722964	60.91	0
2	724179	61.01	0
2	725382	61.11	0
2	726585	61.21	0
2	727788	61.31	0
2	728991	61.41	0
2	730194	61.51	0
2	731397	61.61	0
2	732600	61.71	0
2	733803	61.81	0
2	735006	61.91	0
2	736221	62.01	0
2	737424	62.11	0
2	738627	62.21	0
2	739830	62.31	0
2	741033	62.41	0
2	742236	62.51	0
2	743439	62.61	0
2	744642	62.71	0
2	745845	62.81	0
2	747048	62.91	0
2	748396	63.01	0
2	749598	63.11	0
2	750800	63.21	0
2	752002	63.31	0
2	753204	63.41	0
2	754406	63.51	0
2	755608	63.61	0
2	756810	63.71	0
2	758012	63.81	0
2	759214	63.91	0
2	760428	64.01	0
2	761630	64.11	0
2	762832	64.21	0
2	764034	64.31	0
2	765236	64.41	0
2	766438	64.51	0
2	767640	64.61	0
2	768842	64.71	0
2	770044	64.81	0
2	771246	64.91	0
2	772460	65.01	0
2	773662	65.11	0
2	774864	65.21	0
2	776066	65.31	0
2	777268	65.41	0
2	778470	65.51	0
2	779672	65.61	0
2	780874	65.71	0
2	782076	65.81	0
2	783278	65.91	0
2	784492	66.01	0
2	785694	66.11	0
2	786896	66.21	0
2	788098	66.31	0
2	789300	66.41	0
2	790502	66.51	0
2	791704	66.61	0
2	792906	66.71	0
2	794108	66.81	0
2	795443	66.91	0
2	796656	67.01	0
2	797857	67.11	0
2	799058	67.21	0
2	800259	67.31	0
2	801460	67.41	0
2	802661	67.51	0
2	803862	67.61	0
2	805063	67.71	0
2	806264	67.81	0
2	807465	67.91	0
2	808678	68.01	0
2	809879	68.11	0
2	811080	68.21	0
2	812281	68.31	0
2	813482	68.41	0
2	814683	68.51	0
2	815884	68.61	0
2	817085	68.71	0
2	818286	68.81	0
2	819487	68.91	0
2	820700	69.01	0
2	821901	69.11	0
2	823102	69.21	0
2	824303	69.31	0
2	825504	69.41	0
2	826705	69.51	0
2	827906	69.61	0
2	829107	69.71	0
2	830308	69.81	0
2	831509	69.91	0
2	832722	70.01	0
2	833923	70.11	0
2	835124	70.21	0
2	836325	70.31	0
2	837526	70.41	0
2	838727	70.51	0
2	839928	70.61	0
2	841262	70.71	0
2	842462	70.81	0
2	843662	70.91	0
2	844874	71.01	0
2	846074	71.11	0
2	847274	71.21	0
2	848474	71.31	0
2	849674	71.41	0
2	850874	71.51	0
2	852074	71.61	0
2	853274	71.71	0
2	854474	71.81	0
2	855674	71.91	0
2	856886	72.01	0
2	858086	72.11	0
2	859286	72.21	0
2	860486	72.31	0
2	861686	72.41	0
2	862886	72.51	0
2	864086	72.61	0
2	865286	72.71	0
2	866486	72.81	0
2	867686	72.91	0
2	868898	73.01	0
2	870098	73.11	0
2	871298	73.21	0
2	872498	73.31	0
2	873698	73.41	0
2	874898	73.51	0
2	876098	73.61	0
2	877298	73.71	0
2	878498	73.81	0
2	879698	73.91	0
2	880910	74.01	0
2	882110	74.11	0
2	883310	74.21	0
2	884510	74.31	0
2	885843	74.41	0
2	887042	74.51	0
2	888241	74.61	0
2	889440	74.71	0
2	890639	74.81	0
2	891838	74.91	0
2	893049	75.01	0
2	894248	75.11	0
2	895447	75.21	0
2	896646	75.31	0
2	897845	75.41	0
2	899044	75.51	0
2	900243	75.61	0
2	901442	75.71	0
2	902641	75.81	0
2	903840	75.91	0
2	905051	76.01	0
2	906250	76.11	0
2	907449	76.21	0
2	908648	76.31	0
2	909847	76.41	0
2	911046	76.51	0
2	912245	76.61	0
2	913444	76.71	0
2	914643	76.81	0
2	915842	76.91	0
2	917053	77.01	0
2	918252	77.11	0
2	919451	77.21	0
2	920650	77.31	0
2	921849	77.41	0
2	923048	77.51	0
2	924247	77.61	0
2	925446	77.71	0
2	926645	77.81	0
2	927844	77.91	0
2	929055	78.01	0
2	931850	78.11	0
2	933048	78.21	0
2	934246	78.31	0
2	935444	78.41	0
2	936642	78.51	0
2	937840	78.61	0
2	939038	78.71	0
2	940236	78.81	0
2	941434	78.91	0
2	942644	79.01	0
2	943842	79.11	0
2	945040	79.21	0
2	946238	79.31	0
2	947436	79.41	0
2	948634	79.51	0
2	949832	79.61	0
2	951030	79.71	0
2	952228	79.81	0
2	953426	79.91	0
2	954636	80.01	0
2	955834	80.11	0
2	957032	80.21	0
2	958230	80.31	0
2	959428	80.41	0
2	960626	80.51	0
2	961824	80.61	0
2	963022	80.71	0
2	964220	80.81	0
2	965418	80.91	0
2	966628	81.01	0
2	967826	81.11	0
2	969024	81.21	0
2	970222	81.31	0
2	971420	81.41	0
2	972618	81.51	0
2	973816	81.61	0
2	975014	81.71	0
2	976212	81.81	0
2	977410	81.91	0
2	978620	82.01	0
2	979818	82.11	0
2	981016	82.21	0
2	982214	82.31	0
2	983412	82.41	0
2	984610	82.51	0
2	985808	82.61	0
2	987006	82.71	0
2	988204	82.81	0
2	989402	82.91	0
2	990612	83.01	0
2	991810	83.11	0
2	993008	83.21	0
2	994206	83.31	0
2	995404	83.41	0
2	996602	83.51	0
2	997800	83.61	0
2	998998	83.71	0
2	1000196	83.81	0
2	1001394	83.91	0
2	1002604	84.01	0
2	1003802	84.11	0
2	1005000	84.21	0
2	1006198	84.31	0
2	1007396	84.41	0
2	1008594	84.51	0
2	1009792	84.61	0
2	1010990	84.71	0
2	1012188	84.81	0
2	1013386	84.91	0
2	1014596	85.01	0
2	1015794	85.11	0
2	1016992	85.21	0
2	1018190	85.31	0
2	1019388	85.41	0
2	1020586	85.51	0
2	1021784	85.61	0
2	1022982	85.71	0
2	1024180	85.81	0
2	1025378	85.91	0
2	1026588	86.01	0
2	1027786	86.11	0
2	1028984	86.21	0
2	1030182	86.31	0
2	1031380	86.41	0
2	1032578	86.51	0
2	1033776	86.61	0
2	1034974	86.71	0
2	1036172	86.81	0
2	1037370	86.91	0
2	1038580	87.01	0
2	1039778	87.11	0
2	1040976	87.21	0
2	1042174	87.31	0
2	1043372	87.41	0
2	1044570	87.51	0
2	1045768	87.61	0
2	1046966	87.71	0
2	1048164	87.81	0
2	1049362	87.91	0
2	1050572	88.01	0
2	1051770	88.11	0
2	1052968	88.21	0
2	1054166	88.31	0
2	1055364	88.41	0
2	1056562	88.51	0
2	1057760	88.61	0
2	1058958	88.71	0
2	1060156	88.81	0
2	1061354	88.91	0
2	1062564	89.01	0
2	1063762	89.11	0
2	1064960	89.21	0
2	1066158	89.31	0
2	1067356	89.41	0
2	1068554	89.51	0
2	1069752	89.61	0
2	1070950	89.71	0
2	1072148	89.81	0
2	1073346	89.91	0
2	1074556	90.01	0
2	1075754	90.11	0
2	1076952	90.21	0
2	1078150	90.31	0
2	1079348	90.41	0
2	1080546	90.51	0
2	1081744	90.61	0
2	1082942	90.71	0
2	1084140	90.81	0
2	1085338	90.91	0
2	1086548	91.01	0
2	1087746	91.11	0
2	1088944	91.21	0
2	1090142	91.31	0
2	1091340	91.41	0
2	1092538	91.51	0
2	1093736	91.61	0
2	1094934	91.71	0
2	1096132	91.81	0
2	1097330	91.91	0
2	1098540	92.01	0
2	1099738	92.11	0
2	1100936	92.21	0
2	1102134	92.31	0
2	1103332	92.41	0
2	1104530	92.51	0
2	1105728	92.61	0
2	1106926	92.71	0
2	1108124	92.81	0
2	1109322	92.91	0
2	1110532	93.01	0
2	1111730	93.11	0
2	1112928	93.21	0
2	1114126	93.31	0
2	1115324	93.41	0
2	1116522	93.51	0
2	1117720	93.61	0
2	1118918	93.71	0
2	1120116	93.81	0
2	1121314	93.91	0
2	1122524	94.01	0
2	1123722	94.11	0
2	1124920	94.21	0
2	1126118	94.31	0
2	1127316	94.41	0
2	1128514	94.51	0
2	1129712	94.61	0
2	1130910	94.71	0
2	1132108	94.81	0
2	1133306	94.91	0
2	1134516	95.01	0
2	1135714	95.11	0
2	1136912	95.21	0
2	1138110	95.31	0
2	1139308	95.41	0
2	1140506	95.51	0
2	1141704	95.61	0
2	1142902	95.71	0
2	1144100	95.81	0
2	1145298	95.91	0
2	1146508	96.01	0
2	1147706	96.11	0
2	1148904	96.21	0
2	1150102	96.31	0
2	1151300	96.41	0
2	1152498	96.51	0
2	1153696	96.61	0
2	1154894	96.71	0
2	1156092	96.81	0
2	1157290	96.91	0
2	1158500	97.01	0
2	1159698	97.11	0
2	1160896	97.21	0
2	1162094	97.31	0
2	1163292	97.41	0
2	1164490	97.51	0
2	1165688	97.61	0
2	1166886	97.71	0
2	1168084	97.81	0
2	1169282	97.91	0
2	1170492	98.01	0
2	1171690	98.11	0
2	1172888	98.21	0
2	1174086	98.31	0
2	1175284	98.41	0
2	1176482	98.51	0
2	1177680	98.61	0
2	1178878	98.71	0
2	1180076	98.81	0
2	1181274	98.91	0
2	1182484	99.01	0
2	1183682	99.11	0
2	1184880	99.21	0
2	1186078	99.31	0
2	1187276	99.41	0
2	1188474	99.51	0
2	1189672	99.61	0
2	1190870	99.71	0
2	1192068	99.81	0
2	1193266	99.91	0
3	113	1.11	-0.000716383
3	1311	1.21	-0.00136341
3	2509	1.31	-0.00186974
3	3707	1.41	-0.00225157
3	4905	1.51	-0.00252443
3	6103	1.61	-0.00270298
3	7301	1.71	-0.00280098
3	8499	1.81	-0.00283113
3	9697	1.91	-0.00280509
3	10907	2.01	-0.00273342
3	12105	2.11	-0.00262559
3	13303	2.21	-0.00249005
3	14501	2.31	-0.00233419
3	15699	2.41	-0.00216447
3	16897	2.51	-0.00198642
3	18095	2.61	-0.00180472
3	19293	2.71	-0.0016233
3	20491	2.81	-0.00144536
3	21689	2.91	-0.00127346
3	22899	3.01	-0.0011096
3	24097	3.11	-0.000955278
3	25295	3.21	-0.000811546
3	26493	3.31	-0.00067908
3	27691	3.41	-0.000558232
3	28889	3.51	-0.000449082
3	30087	3.61	-0.000351487
3	31285	3.71	-0.00026512
3	32483	3.81	-0.000189514
3	33681	3.91	-0.000124092
3	34891	4.01	-6.81972e-05
3	36089	4.11	-2.11209e-05
3	37287	4.21	1.78769e-05
3	38485	4.31	4.9548e-05
3	39683	4.41	7.46407e-05
3	40881	4.51	9.38867e-05
3	42079	4.61	0.000107991
3	43277	4.71	0.000117625
3	44475	4.81	0.000123418
3	45673	4.91	0.000125957
3	46883	5.01	0.000125781
3	48081	5.11	0.00012338
3	49279	5.21	0.000119198
3	50477	5.31	0.000113629
3	51675	5.41	0.000107022
3	52873	5.51	9.96832e-05
3	54071	5.61	9.18747e-05
3	55269	5.71	8.38211e-05
3	56467	5.81	7.57109e-05
3	57665	5.91	6.76999e-05
3	58875	6.01	5.99137e-05
3	60073	6.11	5.24518e-05
3	61271	6.21	4.53896e-05
3	62469	6.31	3.87821e-05
3	63667	6.41	3.2666e-05
3	64865	6.51	2.70628e-05
3	66063	6.61	2.19809e-05
3	67261	6.71	1.74176e-05
3	68459	6.81	1.33618e-05
3	69657	6.91	9.79494e-06
3	70867	7.01	6.6932e-06
3	72065	7.11	4.02864e-06
3	73263	7.21	1.77051e-06
3	74461	7.31	-1.13691e-07
3	75659	7.41	-1.65736e-06
3	76857	7.51	-2.89397e-06
3	78055	7.61	-3.85652e-06
3	79253	7.71	-4.57698e-06
3	80451	7.81	-5.08591e-06
3	81649	7.91	-5.41219e-06
3	82859	8.01	-5.58279e-06
3	84057	8.11	-5.6226e-06
3	85255	8.21	-5.55442e-06
3	86453	8.31	-5.39886e-06
3	87651	8.41	-5.17441e-06
3	88849	8.51	-4.89748e-06
3	90047	8.61	-4.58246e-06
3	91245	8.71	-4.24184e-06
3	92443	8.81	-3.88634e-06
3	93641	8.91	-3.52499e-06
3	94851	9.01	-3.16534e-06
3	96049	9.11	-2.81353e-06
3	97247	9.21	-2.47446e-06
3	98445	9.31	-2.15192e-06
3	99643	9.41	-1.84873e-06
3	100841	9.51	-1.56685e-06
3	102039	9.61	-1.30751e-06
3	103237	9.71	-1.0713e-06
3	104435	9.81	-8.58321e-07
3	105633	9.91	-6.68206e-07
3	106953	10.01	-5.0026e-07
3	108162	10.11	-3.53514e-07
3	109371	10.21	-2.2679e-07
3	110580	10.31	-1.18765e-07
3	111789	10.41	-2.80163e-08
3	112998	10.51	4.6931e-08
3	114207	10.61	1.07573e-07
3	115416	10.71	1.55391e-07
3	116625	10.81	1.91831e-07
3	117834	10.91	2.18284e-07
3	119055	11.01	2.3607e-07
3	120264	11.11	2.46427e-07
3	121473	11.21	2.50502e-07
3	122682	11.31	2.49353e-07
3	123891	11.41	2.43938e-07
3	125100	11.51	2.3512e-07
3	126309	11.61	2.23669e-07
3	127518	11.71	2.10264e-07
3	128727	11.81	1.95496e-07
3	129936	11.91	1.79874e-07
3	131157	12.01	1.63833e-07
3	132366	12.11	1.47736e-07
3	133575	12.21	1.3188e-07
3	134784	12.31	1.16508e-07
3	135993	12.41	1.01807e-07
3	137202	12.51	8.79222e-08
3	138411	12.61	7.49541e-08
3	139620	12.71	6.29711e-08
3	140829	12.81	5.20114e-08
3	142038	12.91	4.20883e-08
3	143259	13.01	3.3193e-08
3	144468	13.11	2.53003e-08
3	145677	13.21	1.83718e-08
3	146886	13.31	1.23581e-08
3	148095	13.41	7.20348e-09
3	149304	13.51	2.84537e-09
3	150513	13.61	-7.80886e-10
3	151722	13.71	-3.74136e-09
3	152931	13.81	-6.10285e-09
3	154140	13.91	-7.93072e-09
3	155361	14.01	-9.28821e-09
3	156570	14.11	-1.0235e-08
3	157779	14.21	-1.08283e-08
3	158988	14.31	-1.11211e-08
3	160197	14.41	-1.11612e-08
3	161406	14.51	-1.09946e-08
3	162615	14.61	-1.06599e-08
3	163824	14.71	-1.01945e-08
3	165033	14.81	-9.62999e-09
3	166242	14.91	-8.99405e-09
3	167463	15.01	-8.31086e-09
3	168672	15.11	-7.60103e-09
3	169881	15.21	-6.88338e-09
3	171090	15.31	-6.17071e-09
3	172299	15.41	-5.47544e-09
3	173508	15.51	-4.80682e-09
3	174717	15.61	-4.17266e-09
3	175926	15.71	-3.57687e-09
3	177135	15.81	-3.02443e-09
3	178344	15.91	-2.51674e-09
3	179565	16.01	-2.05489e-09
3	180774	16.11	-1.63958e-09
3	181983	16.21	-1.26903e-09
3	183192	16.31	-9.42535e-10
3	184401	16.41	-6.57963e-10
3	185610	16.51	-4.1247e-10
3	186819	16.61	-2.04636e-10
3	188028	16.71	-2.91323e-11
3	189237	16.81	1.14753e-10
3	190446	16.91	2.30926e-10
3	191667	17.01	3.22231e-10
3	192876	17.11	3.91154e-10
3	194085	17.21	4.40892e-10
3	195294	17.31	4.73577e-10
3	196503	17.41	4.92051e-10
3	197712	17.51	4.98446e-10
3	198921	17.61	4.94893e-10
3	200130	17.71	4.82814e-10
3	201339	17.81	4.6434e-10
3	202548	17.91	4.40892e-10
3	203769	18.01	4.13536e-10
3	204978	18.11	3.83693e-10
3	206187	18.21	3.51719e-10
3	207396	18.31	3.19744e-10
3	208605	18.41	2.8777e-10
3	209814	18.51	2.55795e-10
3	211023	18.61	2.25953e-10
3	212232	18.71	1.97531e-10
3	213441	18.81	1.6982e-10
3	214650	18.91	1.44951e-10
3	215871	19.01	1.21503e-10
3	217080	19.11	1.00187e-10
3	218289	19.21	8.10019e-11
3	219498	19.31	6.32383e-11
3	220707	19.41	4.86722e-11
3	221916	19.51	3.44613e-11
3	223125	19.61	2.34479e-11
3	224334	19.71	1.27898e-11
3	225543	19.81	4.9738e-12
3	226752	19.91	-2.13163e-12
3	227973	20.01	-8.17124e-12
3	229182	20.11	-1.1724e-11
3	230391	20.21	-1.52767e-11
3	231600	20.31	-1.88294e-11
3	232809	20.41	-2.02505e-11
3	234018	20.51	-2.02505e-11
3	235227	20.61	-2.02505e-11
3	236436	20.71	-2.02505e-11
3	237645	20.81	-2.02505e-11
3	238854	20.91	-2.02505e-11
3	240075	21.01	-2.02505e-11
3	241284	21.11	-2.02505e-11
3	242493	21.21	-2.02505e-11
3	243702	21.31	-1.88294e-11
3	244911	21.41	-1.7053e-11
3	246120	21.51	-1.52767e-11
3	247329	21.61	-1.38556e-11
3	248538	21.71	-1.24345e-11
3	249747	21.81	-1.13687e-11
3	250956	21.91	-1.03029e-11
3	252177	22.01	-9.23706e-12
3	253386	22.11	-8.52651e-12
3	254595	22.21	-7.4607e-12
3	255804	22.31	-6.75016e-12
3	257013	22.41	-6.03961e-12
3	258222	22.51	-5.68434e-12
3	259431	22.61	-4.9738e-12
3	260640	22.71	-4.61853e-12
3	261849	22.81	-4.26326e-12
3	263058	22.91	-3.90799e-12
3	264279	23.01	-3.55271e-12
3	265488	23.11	-3.19744e-12
3	266697	23.21	-2.84217e-12
3	267906	23.31	-2.4869e-12
3	269115	23.41	-2.13163e-12
3	270324	23.51	-2.13163e-12
3	271533	23.61	-1.77636e-12
3	272742	23.71	-1.77636e-12
3	273951	23.81	-1.42109e-12
3	275160	23.91	-1.42109e-12
3	276381	24.01	-1.06581e-12
3	277590	24.11	-1.06581e-12
3	278799	24.21	-1.06581e-12
3	280008	24.31	-1.06581e-12
3	281217	24.41	-7.10543e-13
3	282426	24.51	-7.10543e-13
3	283635	24.61	-7.10543e-13
3	284844	24.71	-7.10543e-13
3	286053	24.81	-7.10543e-13
3	287262	24.91	-3.55271e-13
3	288483	25.01	-3.55271e-13
3	289692	25.11	-3.55271e-13
3	290901	25.21	-3.55271e-13
3	292110	25.31	-3.55271e-13
3	293319	25.41	-3.55271e-13
3	294528	25.51	-3.55271e-13
3	295737	25.61	-3.55271e-13
3	296946	25.71	-3.55271e-13
3	298155	25.81	-3.55271e-13
3	299364	25.91	0
3	300585	26.01	0
3	301794	26.11	0
3	303003	26.21	0
3	304212	26.31	0
3	305421	26.41	0
3	306630	26.51	0
3	307839	26.61	0
3	309048	26.71	0
3	310257	26.81	0
3	311466	26.91	0
3	312687	27.01	0
3	313896	27.11	0
3	315105	27.21	0
3	316314	27.31	0
3	317523	27.41	0
3	318732	27.51	0
3	319941	27.61	0
3	321150	27.71	0
3	322359	27.81	0
3	323568	27.91	0
3	324789	28.01	0
3	325998	28.11	0
3	327207	28.21	0
3	328416	28.31	0
3	329625	28.41	0
3	330834	28.51	0
3	332043	28.61	0
3	333252	28.71	0
3	334461	28.81	0
3	335670	28.91	0
3	336891	29.01	0
3	338100	29.11	0
3	339309	29.21	0
3	340518	29.31	0
3	341727	29.41	0
3	342936	29.51	0
3	344145	29.61	0
3	345354	29.71	0
3	346563	29.81	0
3	347772	29.91	0
3	348993	30.01	0
3	350202	30.11	0
3	351411	30.21	0
3	352620	30.31	0
3	353829	30.41	0
3	355038	30.51	0
3	356247	30.61	0
3	357456	30.71	0
3	358665	30.81	0
3	359874	30.91	0
3	361095	31.01	0
3	362304	31.11	0
3	363513	31.21	0
3	364722	31.31	0
3	365931	31.41	0
3	367140	31.51	0
3	368349	31.61	0
3	369558	31.71	0
3	370767	31.81	0
3	371976	31.91	0
3	373197	32.01	0
3	374406	32.11	0
3	375615	32.21	0
3	376824	32.31	0
3	378033	32.41	0
3	379242	32.51	0
3	380451	32.61	0
3	381660	32.71	0
3	382869	32.81	0
3	384078	32.91	0
3	385299	33.01	0
3	386508	33.11	0
3	387717	33.21	0
3	388926	33.31	0
3	390135	33.41	0
3	391344	33.51	0
3	392553	33.61	0
3	393762	33.71	0
3	394971	33.81	0
3	396180	33.91	0
3	397401	34.01	0
3	398610	34.11	0
3	399819	34.21	0
3	401028	34.31	0
3	402237	34.41	0
3	403446	34.51	0
3	404655	34.61	0
3	405864	34.71	0
3	407073	34.81	0
3	408282	34.91	0
3	409503	35.01	0
3	410712	35.11	0
3	411921	35.21	0
3	413130	35.31	0
3	414339	35.41	0
3	415548	35.51	0
3	416757	35.61	0
3	417966	35.71	0
3	419175	35.81	0
3	420384	35.91	0
3	421605	36.01	0
3	422814	36.11	0
3	424023	36.21	0
3	425232	36.31	0
3	426574	36.41	0
3	427782	36.51	0
3	428990	36.61	0
3	430198	36.71	0
3	431406	36.81	0
3	432614	36.91	0
3	433834	37.01	0
3	435042	37.11	0
3	436250	37.21	0
3	437458	37.31	0
3	438666	37.41	0
3	439874	37.51	0
3	441082	37.61	0
3	442290	37.71	0
3	443498	37.81	0
3	444706	37.91	0
3	445926	38.01	0
3	447134	38.11	0
3	448342	38.21	0
3	449550	38.31	0
3	450758	38.41	0
3	451966	38.51	0
3	453174	38.61	0
3	454382	38.71	0
3	455590	38.81	0
3	456798	38.91	0
3	458018	39.01	0
3	459226	39.11	0
3	460434	39.21	0
3	461642	39.31	0
3	462850	39.41	0
3	464058	39.51	0
3	465266	39.61	0
3	466474	39.71	0
3	467682	39.81	0
3	468890	39.91	0
3	470110	40.01	0
3	471318	40.11	0
3	472526	40.21	0
3	473734	40.31	0
3	474942	40.41	0
3	476150	40.51	0
3	477358	40.61	0
3	478566	40.71	0
3	479774	40.81	0
3	480982	40.91	0
3	482202	41.01	0
3	483410	41.11	0
3	484618	41.21	0
3	485826	41.31	0
3	487034	41.41	0
3	488375	41.51	0
3	489582	41.61	0
3	490789	41.71	0
3	491996	41.81	0
3	493203	41.91	0
3	494422	42.01	0
3	495629	42.11	0
3	496836	42.21	0
3	498043	42.31	0
3	499250	42.41	0
3	500457	42.51	0
3	501664	42.61	0
3	502871	42.71	0
3	504078	42.81	0
3	505285	42.91	0
3	506504	43.01	0
3	507711	43.11	0
3	508918	43.21	0
3	510125	43.31	0
3	511332	43.41	0
3	512539	43.51	0
3	513746	43.61	0
3	514953	43.71	0
3	516160	43.81	0
3	517367	43.91	0
3	518586	44.01	0
3	519793	44.11	0
3	521000	44.21	0
3	522207	44.31	0
3	523414	44.41	0
3	524621	44.51	0
3	525828	44.61	0
3	527035	44.71	0
3	528242	44.81	0
3	529449	44.91	0
3	530668	45.01	0
3	531875	45.11	0
3	533082	45.21	0
3	534289	45.31	0
3	535496	45.41	0
3	536703	45.51	0
3	537910	45.61	0
3	539117	45.71	0
3	540324	45.81	0
3	541531	45.91	0
3	542750	46.01	0
3	543957	46.11	0
3	545297	46.21	0
3	546503	46.31	0
3	547709	46.41	0
3	548915	46.51	0
3	550121	46.61	0
3	551327	46.71	0
3	552533	46.81	0
3	553739	46.91	0
3	554957	47.01	0
3	556163	47.11	0
3	557369	47.21	0
3	558575	47.31	0
3	559781	47.41	0
3	560987	47.51	0
3	562193	47.61	0
3	563399	47.71	0
3	564605	47.81	0
3	565811	47.91	0
3	567029	48.01	0
3	568235	48.11	0
3	569441	48.21	0
3	570647	48.31	0
3	571853	48.41	0
3	573059	48.51	0
3	574265	48.61	0
3	575471	48.71	0
3	576677	48.81	0
3	577883	48.91	0
3	579101	49.01	0
3	580307	49.11	0
3	581513	49.21	0
3	582719	49.31	0
3	583925	49.41	0
3	585131	49.51	0
3	586337	49.61	0
3	587543	49.71	0
3	588749	49.81	0
3	589955	49.91	0
3	591173	50.01	0
3	592379	50.11	0
3	593585	50.21	0
3	594791	50.31	0
3	595997	50.41	0
3	597203	50.51	0
3	598542	50.61	0
3	599747	50.71	0
3	600952	50.81	0
3	602157	50.91	0
3	603374	51.01	0
3	604579	51.11	0
3	605784	51.21	0
3	606989	51.31	0
3	608194	51.41	0
3	609399	51.51	0
3	610604	51.61	0
3	611809	51.71	0
3	613014	51.81	0
3	614219	51.91	0
3	615436	52.01	0
3	616641	52.11	0
3	617846	52.21	0
3	619051	52.31	0
3	620256	52.41	0
3	621461	52.51	0
3	622666	52.61	0
3	623871	52.71	0
3	625076	52.81	0
3	626281	52.91	0
3	627498	53.01	0
3	628703	53.11	0
3	629908	53.21	0
3	631113	53.31	0
3	632318	53.41	0
3	633523	53.51	0
3	634728	53.61	0
3	635933	53.71	0
3	637138	53.81	0
3	638343	53.91	0
3	639560	54.01	0
3	640765	54.11	0
3	641970	54.21	0
3	643175	54.31	0
3	644380	54.41	0
3	645585	54.51	0
3	646790	54.61	0
3	647995	54.71	0
3	649200	54.81	0
3	650538	54.91	0
3	651754	55.01	0
3	652958	55.11	0
3	654162	55.21	0
3	655366	55.31	0
3	656570	55.41	0
3	657774	55.51	0
3	658978	55.61	0
3	660182	55.71	0
3	661386	55.81	0
3	662590	55.91	0
3	663806	56.01	0
3	665010	56.11	0
3	666214	56.21	0
3	667418	56.31	0
3	668622	56.41	0
3	669826	56.51	0
3	671030	56.61	0
3	672234	56.71	0
3	673438	56.81	0
3	674642	56.91	0
3	675858	57.01	0
3	677062	57.11	0
3	678266	57.21	0
3	679470	57.31	0
3	680674	57.41	0
3	681878	57.51	0
3	683082	57.61	0
3	684286	57.71	0
3	685490	57.81	0
3	686694	57.91	0
3	687910	58.01	0
3	689114	58.11	0
3	690318	58.21	0
3	691522	58.31	0
3	692726	58.41	0
3	693930	58.51	0
3	695134	58.61	0
3	696338	58.71	0
3	697542	58.81	0
3	698746	58.91	0
3	700095	59.01	0
3	701298	59.11	0
3	702501	59.21	0
3	703704	59.31	0
3	704907	59.41	0
3	706110	59.51	0
3	707313	59.61	0
3	708516	59.71	0
3	709719	59.81	0
3	710922	59.91	0
3	712137	60.01	0
3	713340	60.11	0
3	714543	60.21	0
3	715746	60.31	0
3	716949	60.41	0
3	718152	60.51	0
3	719355	60.61	0
3	720558	60.71	0
3	721761	60.81	0
3	722964	60.91	0
3	724179	61.01	0
3	725382	61.11	0
3	726585	61.21	0
3	727788	61.31	0
3	728991	61.41	0
3	730194	61.51	0
3	731397	61.61	0
3	732600	61.71	0
3	733803	61.81	0
3	735006	61.91	0
3	736221	62.01	0
3	737424	62.11	0
3	738627	62.21	0
3	739830	62.31	0
3	741033	62.41	0
3	742236	62.51	0
3	743439	62.61	0
3	744642	62.71	0
3	745845	62.81	0
3	747048	62.91	0
3	748396	63.01	0
3	749598	63.11	0
3	750800	63.21	0
3	752002	63.31	0
3	753204	63.41	0
3	754406	63.51	0
3	755608	63.61	0
3	756810	63.71	0
3	758012	63.81	0
3	759214	63.91	0
3	760428	64.01	0
3	761630	64.11	0
3	762832	64.21	0
3	764034	64.31	0
3	765236	64.41	0
3	766438	64.51	0
3	767640	64.61	0
3	768842	64.71	0
3	770044	64.81	0
3	771246	64.91	0
3	772460	65.01	0
3	773662	65.11	0
3	774864	65.21	0
3	776066	65.31	0
3	777268	65.41	0
3	778470	65.51	0
3	779672	65.61	0
3	780874	65.71	0
3	782076	65.81	0
3	783278	65.91	0
3	784492	66.01	0
3	785694	66.11	0
3	786896	66.21	0
3	788098	66.31	0
3	789300	66.41	0
3	790502	66.51	0
3	791704	66.61	0
3	792906	66.71	0
3	794108	66.81	0
3	795443	66.91	0
3	796656	67.01	0
3	797857	67.11	0
3	799058	67.21	0
3	800259	67.31	0
3	801460	67.41	0
3	802661	67.51	0
3	803862	67.61	0
3	805063	67.71	0
3	806264	67.81	0
3	807465	67.91	0
3	808678	68.01	0
3	809879	68.11	0
3	811080	68.21	0
3	812281	68.31	0
3	813482	68.41	0
3	814683	68.51	0
3	815884	68.61	0
3	817085	68.71	0
3	818286	68.81	0
3	819487	68.91	0
3	820700	69.01	0
[...]
164	1134315	95	6
164	1146307	96	6
164	1158299	97	6
164	1170291	98	6
164	1182283	99	6
164	1194275	100	6
165	10706	2	0.033081
165	22698	3	0.03745
165	34690	4	0.03745
165	46682	5	0.03745
165	58674	6	0.03745
165	70666	7	0.03745
165	82658	8	0.03745
165	94650	9	0.03745
165	106643	10	0.03745
165	118843	11	0.037498
165	130945	12	0.03745
165	143047	13	0.03745
165	155149	14	0.03745
165	167251	15	0.03745
165	179353	16	0.03745
165	191455	17	0.03745
165	203557	18	0.03745
165	215659	19	0.03745
165	227761	20	0.03745
165	239863	21	0.03745
165	251965	22	0.03745
165	264067	23	0.03745
165	276169	24	0.03745
165	288271	25	0.03745
165	300373	26	0.03745
165	312475	27	0.03745
165	324577	28	0.03745
165	336679	29	0.03745
165	348781	30	0.03745
165	360883	31	0.03745
165	372985	32	0.03745
165	385087	33	0.03745
165	397189	34	0.03745
165	409291	35	0.03745
165	421393	36	0.03745
165	433623	37	0.037562
165	445715	38	0.03745
165	457807	39	0.03745
165	469899	40	0.03745
165	481991	41	0.03745
165	494212	42	0.037562
165	506294	43	0.03745
165	518376	44	0.03745
165	530458	45	0.03745
165	542540	46	0.03745
165	554748	47	0.037562
165	566820	48	0.03745
165	578892	49	0.03745
165	590964	50	0.03745
165	603166	51	0.037562
165	615228	52	0.03745
165	627290	53	0.03745
165	639352	54	0.03745
165	651547	55	0.037562
165	663599	56	0.03745
165	675651	57	0.03745
165	687703	58	0.03745
165	699755	59	0.03745
165	711931	60	0.03759535874
165	723973	61	0.03745
165	736015	62	0.03745
165	748057	63	0.03745
165	760223	64	0.037562
165	772255	65	0.03745
165	784287	66	0.03745
165	796452	67	0.037562
165	808474	68	0.03745
165	820496	69	0.03745
165	832518	70	0.03745
165	844671	71	0.037562
165	856683	72	0.03745
165	868695	73	0.03745
165	880707	74	0.03745
165	892847	75	0.037562
165	904849	76	0.03745
165	916851	77	0.03745
165	928853	78	0.03745
165	942443	79	0.038826
165	954435	80	0.03745
165	966427	81	0.03745
165	978419	82	0.03745
165	990411	83	0.03745
165	1002403	84	0.03745
165	1014395	85	0.03745
165	1026387	86	0.03745
165	1038379	87	0.03745
165	1050371	88	0.03745
165	1062363	89	0.03745
165	1074355	90	0.03745
165	1086347	91	0.03745
165	1098339	92	0.03745
165	1110331	93	0.03745
165	1122323	94	0.03745
165	1134315	95	0.03745
165	1146307	96	0.03745
165	1158299	97	0.03745
165	1170291	98	0.03745
165	1182283	99	0.03745
165	1194275	100	0.03745
166	10706	2	0
166	22698	3	0
166	34690	4	0
166	46682	5	0
166	58674	6	0
166	70666	7	0
166	82658	8	0
166	94650	9	0
166	106643	10	0
166	118843	11	0
166	130945	12	0
166	143047	13	0
166	155149	14	0
166	167251	15	0
166	179353	16	0
166	191455	17	0
166	203557	18	0
166	215659	19	0
166	227761	20	0
166	239863	21	0
166	251965	22	0
166	264067	23	0
166	276169	24	0
166	288271	25	0
166	300373	26	0
166	312475	27	0
166	324577	28	0
166	336679	29	0
166	348781	30	0
166	360883	31	0
166	372985	32	0
166	385087	33	0
166	397189	34	0
166	409291	35	0
166	421393	36	0
166	433623	37	0
166	445715	38	0
166	457807	39	0
166	469899	40	0
166	481991	41	0
166	494212	42	0
166	506294	43	0
166	518376	44	0
166	530458	45	0
166	542540	46	0
166	554748	47	0
166	566820	48	0
166	578892	49	0
166	590964	50	0
166	603166	51	0
166	615228	52	0
166	627290	53	0
166	639352	54	0
166	651547	55	0
166	663599	56	0
166	675651	57	0
166	687703	58	0
166	699755	59	0
166	711931	60	0
166	723973	61	0
166	736015	62	0
166	748057	63	0
166	760223	64	0
166	772255	65	0
166	784287	66	0
166	796452	67	0
166	808474	68	0
166	820496	69	0
166	832518	70	0
166	844671	71	0
166	856683	72	0
166	868695	73	0
166	880707	74	0
166	892847	75	0
166	904849	76	0
166	916851	77	0
166	928853	78	0
166	942443	79	0
166	954435	80	0
166	966427	81	0
166	978419	82	0
166	990411	83	0
166	1002403	84	0
166	1014395	85	0
166	1026387	86	0
166	1038379	87	0
166	1050371	88	0
166	1062363	89	0
166	1074355	90	0
166	1086347	91	0
166	1098339	92	0
166	1110331	93	0
166	1122323	94	0
166	1134315	95	0
166	1146307	96	0
166	1158299	97	0
166	1170291	98	0
166	1182283	99	0
166	1194275	100	0
167	10707	2	7
167	22699	3	7
167	34691	4	7
167	46683	5	7
167	58675	6	7
167	70667	7	7
167	82659	8	7
167	94651	9	7
167	106644	10	7
167	118844	11	7
167	130946	12	7
167	143048	13	7
167	155150	14	7
167	167252	15	7
167	179354	16	7
167	191456	17	7
167	203558	18	7
167	215660	19	7
167	227762	20	7
167	239864	21	7
167	251966	22	7
167	264068	23	7
167	276170	24	7
167	288272	25	7
167	300374	26	7
167	312476	27	7
167	324578	28	7
167	336680	29	7
167	348782	30	7
167	360884	31	7
167	372986	32	7
167	385088	33	7
167	397190	34	7
167	409292	35	7
167	421394	36	7
167	433624	37	7
167	445716	38	7
167	457808	39	7
167	469900	40	7
167	481992	41	7
167	494213	42	7
167	506295	43	7
167	518377	44	7
167	530459	45	7
167	542541	46	7
167	554749	47	7
167	566821	48	7
167	578893	49	7
167	590965	50	7
167	603167	51	7
167	615229	52	7
167	627291	53	7
167	639353	54	7
167	651548	55	7
167	663600	56	7
167	675652	57	7
167	687704	58	7
167	699756	59	7
167	711932	60	7
167	723974	61	7
167	736016	62	7
167	748058	63	7
167	760224	64	7
167	772256	65	7
167	784288	66	7
167	796453	67	7
167	808475	68	7
167	820497	69	7
167	832519	70	7
167	844672	71	7
167	856684	72	7
167	868696	73	7
167	880708	74	7
167	892848	75	7
167	904850	76	7
167	916852	77	7
167	928854	78	7
167	942444	79	7
167	954436	80	7
167	966428	81	7
167	978420	82	7
167	990412	83	7
167	1002404	84	7
167	1014396	85	7
167	1026388	86	7
167	1038380	87	7
167	1050372	88	7
167	1062364	89	7
167	1074356	90	7
167	1086348	91	7
167	1098340	92	7
167	1110332	93	7
167	1122324	94	7
167	1134316	95	7
167	1146308	96	7
167	1158300	97	7
167	1170292	98	7
167	1182284	99	7
167	1194276	100	7
168	10707	2	0.033081
168	22699	3	0.03745
168	34691	4	0.03745
168	46683	5	0.03745
168	58675	6	0.03745
168	70667	7	0.03745
168	82659	8	0.03745
168	94651	9	0.03745
168	106644	10	0.03745
168	118844	11	0.037498
168	130946	12	0.03745
168	143048	13	0.03745
168	155150	14	0.03745
168	167252	15	0.03745
168	179354	16	0.03745
168	191456	17	0.03745
168	203558	18	0.03745
168	215660	19	0.03745
168	227762	20	0.03745
168	239864	21	0.03745
168	251966	22	0.03745
168	264068	23	0.03745
168	276170	24	0.03745
168	288272	25	0.03745
168	300374	26	0.03745
168	312476	27	0.03745
168	324578	28	0.03745
168	336680	29	0.03745
168	348782	30	0.03745
168	360884	31	0.03745
168	372986	32	0.03745
168	385088	33	0.03745
168	397190	34	0.03745
168	409292	35	0.03745
168	421394	36	0.03745
168	433624	37	0.037562
168	445716	38	0.03745
168	457808	39	0.03745
168	469900	40	0.03745
168	481992	41	0.03745
168	494213	42	0.037562
168	506295	43	0.03745
168	518377	44	0.03745
168	530459	45	0.03745
168	542541	46	0.03745
168	554749	47	0.037562
168	566821	48	0.03745
168	578893	49	0.03745
168	590965	50	0.03745
168	603167	51	0.037562
168	615229	52	0.03745
168	627291	53	0.03745
168	639353	54	0.03745
168	651548	55	0.037562
168	663600	56	0.03745
168	675652	57	0.03745
168	687704	58	0.03745
168	699756	59	0.03745
168	711932	60	0.037562
168	723974	61	0.03745
168	736016	62	0.03745
168	748058	63	0.03745
168	760224	64	0.037595418692
168	772256	65	0.03745
168	784288	66	0.03745
168	796453	67	0.037562
168	808475	68	0.03745
168	820497	69	0.03745
168	832519	70	0.03745
168	844672	71	0.037562
168	856684	72	0.03745
168	868696	73	0.03745
168	880708	74	0.03745
168	892848	75	0.037562
168	904850	76	0.03745
168	916852	77	0.03745
168	928854	78	0.03745
168	942444	79	0.038826
168	954436	80	0.03745
168	966428	81	0.03745
168	978420	82	0.03745
168	990412	83	0.03745
168	1002404	84	0.03745
168	1014396	85	0.03745
168	1026388	86	0.03745
168	1038380	87	0.03745
168	1050372	88	0.03745
168	1062364	89	0.03745
168	1074356	90	0.03745
168	1086348	91	0.03745
168	1098340	92	0.03745
168	1110332	93	0.03745
168	1122324	94	0.03745
168	1134316	95	0.03745
168	1146308	96	0.03745
168	1158300	97	0.03745
168	1170292	98	0.03745
168	1182284	99	0.03745
168	1194276	100	0.03745
169	10707	2	0
169	22699	3	0
169	34691	4	0
169	46683	5	0
169	58675	6	0
169	70667	7	0
169	82659	8	0
169	94651	9	0
169	106644	10	0
169	118844	11	0
169	130946	12	0
169	143048	13	0
169	155150	14	0
169	167252	15	0
169	179354	16	0
169	191456	17	0
169	203558	18	0
169	215660	19	0
169	227762	20	0
169	239864	21	0
169	251966	22	0
169	264068	23	0
169	276170	24	0
169	288272	25	0
169	300374	26	0
169	312476	27	0
169	324578	28	0
169	336680	29	0
169	348782	30	0
169	360884	31	0
169	372986	32	0
169	385088	33	0
169	397190	34	0
169	409292	35	0
169	421394	36	0
169	433624	37	0
169	445716	38	0
169	457808	39	0
169	469900	40	0
169	481992	41	0
169	494213	42	0
169	506295	43	0
169	518377	44	0
169	530459	45	0
169	542541	46	0
169	554749	47	0
169	566821	48	0
169	578893	49	0
169	590965	50	0
169	603167	51	0
169	615229	52	0
169	627291	53	0
169	639353	54	0
169	651548	55	0
169	663600	56	0
169	675652	57	0
169	687704	58	0
169	699756	59	0
169	711932	60	0
169	723974	61	0
169	736016	62	0
169	748058	63	0
169	760224	64	0
169	772256	65	0
169	784288	66	0
169	796453	67	0
169	808475	68	0
169	820497	69	0
169	832519	70	0
169	844672	71	0
169	856684	72	0
169	868696	73	0
169	880708	74	0
169	892848	75	0
169	904850	76	0
169	916852	77	0
169	928854	78	0
169	942444	79	0
169	954436	80	0
169	966428	81	0
169	978420	82	0
169	990412	83	0
169	1002404	84	0
169	1014396	85	0
169	1026388	86	0
169	1038380	87	0
169	1050372	88	0
169	1062364	89	0
169	1074356	90	0
169	1086348	91	0
169	1098340	92	0
169	1110332	93	0
169	1122324	94	0
169	1134316	95	0
169	1146308	96	0
169	1158300	97	0
169	1170292	98	0
169	1182284	99	0
169	1194276	100	0
170	10708	2	8
170	22700	3	8
170	34692	4	8
170	46684	5	8
170	58676	6	8
170	70668	7	8
170	82660	8	8
170	94652	9	8
170	106645	10	8
170	118845	11	8
170	130947	12	8
170	143049	13	8
170	155151	14	8
170	167253	15	8
170	179355	16	8
170	191457	17	8
170	203559	18	8
170	215661	19	8
170	227763	20	8
170	239865	21	8
170	251967	22	8
170	264069	23	8
170	276171	24	8
170	288273	25	8
170	300375	26	8
170	312477	27	8
170	324579	28	8
170	336681	29	8
170	348783	30	8
170	360885	31	8
170	372987	32	8
170	385089	33	8
170	397191	34	8
170	409293	35	8
170	421395	36	8
170	433625	37	8
170	445717	38	8
170	457809	39	8
170	469901	40	8
170	481993	41	8
170	494214	42	8
170	506296	43	8
170	518378	44	8
170	530460	45	8
170	542542	46	8
170	554750	47	8
170	566822	48	8
170	578894	49	8
170	590966	50	8
170	603168	51	8
170	615230	52	8
170	627292	53	8
170	639354	54	8
170	651549	55	8
170	663601	56	8
170	675653	57	8
170	687705	58	8
170	699757	59	8
170	711933	60	8
170	723975	61	8
170	736017	62	8
170	748059	63	8
170	760225	64	8
170	772257	65	8
170	784289	66	8
170	796454	67	8
170	808476	68	8
170	820498	69	8
170	832520	70	8
170	844673	71	8
170	856685	72	8
170	868697	73	8
170	880709	74	8
170	892849	75	8
170	904851	76	8
170	916853	77	8
170	928855	78	8
170	942445	79	8
170	954437	80	8
170	966429	81	8
170	978421	82	8
170	990413	83	8
170	1002405	84	8
170	1014397	85	8
170	1026389	86	8
170	1038381	87	8
170	1050373	88	8
170	1062365	89	8
170	1074357	90	8
170	1086349	91	8
170	1098341	92	8
170	1110333	93	8
170	1122325	94	8
170	1134317	95	8
170	1146309	96	8
170	1158301	97	8
170	1170293	98	8
170	1182285	99	8
170	1194277	100	8
171	10708	2	0.03308
171	22700	3	0.03745
171	34692	4	0.03745
171	46684	5	0.03745
171	58676	6	0.03745
171	70668	7	0.03745
171	82660	8	0.03745
171	94652	9	0.03745
171	106645	10	0.03745
171	118845	11	0.037498
171	130947	12	0.03745
171	143049	13	0.03745
171	155151	14	0.03745
171	167253	15	0.03745
171	179355	16	0.03745
171	191457	17	0.03745
171	203559	18	0.03745
171	215661	19	0.03745
171	227763	20	0.03745
171	239865	21	0.03745
171	251967	22	0.03745
171	264069	23	0.03745
171	276171	24	0.03745
171	288273	25	0.03745
171	300375	26	0.03745
171	312477	27	0.03745
171	324579	28	0.03745
171	336681	29	0.03745
171	348783	30	0.03745
171	360885	31	0.03745
171	372987	32	0.03745
171	385089	33	0.03745
171	397191	34	0.03745
171	409293	35	0.03745
171	421395	36	0.03745
171	433625	37	0.037562
171	445717	38	0.03745
171	457809	39	0.03745
171	469901	40	0.03745
171	481993	41	0.03745
171	494214	42	0.037562
171	506296	43	0.03745
171	518378	44	0.03745
171	530460	45	0.03745
171	542542	46	0.03745
171	554750	47	0.037562
171	566822	48	0.03745
171	578894	49	0.03745
171	590966	50	0.03745
171	603168	51	0.037562
171	615230	52	0.03745
171	627292	53	0.03745
171	639354	54	0.03745
171	651549	55	0.037562
171	663601	56	0.03745
171	675653	57	0.03745
171	687705	58	0.03745
171	699757	59	0.03745
171	711933	60	0.037562
171	723975	61	0.03745
171	736017	62	0.03745
171	748059	63	0.03745
171	760225	64	0.037562
171	772257	65	0.03745
171	784289	66	0.03745
171	796454	67	0.03759547865
171	808476	68	0.03745
171	820498	69	0.03745
171	832520	70	0.03745
171	844673	71	0.037562
171	856685	72	0.03745
171	868697	73	0.03745
171	880709	74	0.03745
171	892849	75	0.037562
171	904851	76	0.03745
171	916853	77	0.03745
171	928855	78	0.03745
171	942445	79	0.038826
171	954437	80	0.03745
171	966429	81	0.03745
171	978421	82	0.03745
171	990413	83	0.03745
171	1002405	84	0.03745
171	1014397	85	0.03745
171	1026389	86	0.03745
171	1038381	87	0.03745
171	1050373	88	0.03745
171	1062365	89	0.03745
171	1074357	90	0.03745
171	1086349	91	0.03745
171	1098341	92	0.03745
171	1110333	93	0.03745
171	1122325	94	0.03745
171	1134317	95	0.03745
171	1146309	96	0.03745
171	1158301	97	0.03745
171	1170293	98	0.03745
171	1182285	99	0.03745
171	1194277	100	0.03745
172	10708	2	0
172	22700	3	0
172	34692	4	0
172	46684	5	0
172	58676	6	0
172	70668	7	0
172	82660	8	0
172	94652	9	0
172	106645	10	0
172	118845	11	0
172	130947	12	0
172	143049	13	0
172	155151	14	0
172	167253	15	0
172	179355	16	0
172	191457	17	0
172	203559	18	0
172	215661	19	0
172	227763	20	0
172	239865	21	0
172	251967	22	0
172	264069	23	0
172	276171	24	0
172	288273	25	0
172	300375	26	0
172	312477	27	0
172	324579	28	0
172	336681	29	0
172	348783	30	0
172	360885	31	0
172	372987	32	0
172	385089	33	0
172	397191	34	0
172	409293	35	0
172	421395	36	0
172	433625	37	0
172	445717	38	0
172	457809	39	0
172	469901	40	0
172	481993	41	0
172	494214	42	0
172	506296	43	0
172	518378	44	0
172	530460	45	0
172	542542	46	0
172	554750	47	0
172	566822	48	0
172	578894	49	0
172	590966	50	0
172	603168	51	0
172	615230	52	0
172	627292	53	0
172	639354	54	0
172	651549	55	0
172	663601	56	0
172	675653	57	0
172	687705	58	0
172	699757	59	0
172	711933	60	0
172	723975	61	0
172	736017	62	0
172	748059	63	0
172	760225	64	0
172	772257	65	0
172	784289	66	0
172	796454	67	0
172	808476	68	0
172	820498	69	0
172	832520	70	0
172	844673	71	0
172	856685	72	0
172	868697	73	0
172	880709	74	0
172	892849	75	0
172	904851	76	0
172	916853	77	0
172	928855	78	0
172	942445	79	0
172	954437	80	0
172	966429	81	0
172	978421	82	0
172	990413	83	0
172	1002405	84	0
172	1014397	85	0
172	1026389	86	0
172	1038381	87	0
172	1050373	88	0
172	1062365	89	0
172	1074357	90	0
172	1086349	91	0
172	1098341	92	0
172	1110333	93	0
172	1122325	94	0
172	1134317	95	0
172	1146309	96	0
172	1158301	97	0
172	1170293	98	0
172	1182285	99	0
172	1194277	100	0
173	10709	2	9
173	22701	3	9
173	34693	4	9
173	46685	5	9
173	58677	6	9
173	70669	7	9
173	82661	8	9
173	94653	9	9
173	106646	10	9
173	118846	11	9
173	130948	12	9
173	143050	13	9
173	155152	14	9
173	167254	15	9
173	179356	16	9
173	191458	17	9
173	203560	18	9
173	215662	19	9
173	227764	20	9
173	239866	21	9
173	251968	22	9
173	264070	23	9
173	276172	24	9
173	288274	25	9
173	300376	26	9
173	312478	27	9
173	324580	28	9
173	336682	29	9
173	348784	30	9
173	360886	31	9
173	372988	32	9
173	385090	33	9
173	397192	34	9
173	409294	35	9
173	421396	36	9
173	433626	37	9
173	445718	38	9
173	457810	39	9
173	469902	40	9
173	481994	41	9
173	494215	42	9
173	506297	43	9
173	518379	44	9
173	530461	45	9
173	542543	46	9
173	554751	47	9
173	566823	48	9
173	578895	49	9
173	590967	50	9
173	603169	51	9
173	615231	52	9
173	627293	53	9
173	639355	54	9
173	651550	55	9
173	663602	56	9
173	675654	57	9
173	687706	58	9
173	699758	59	9
173	711934	60	9
173	723976	61	9
173	736018	62	9
173	748060	63	9
173	760226	64	9
173	772258	65	9
173	784290	66	9
173	796455	67	9
173	808477	68	9
173	820499	69	9
173	832521	70	9
173	844674	71	9
173	856686	72	9
173	868698	73	9
173	880710	74	9
173	892850	75	9
173	904852	76	9
173	916854	77	9
173	928856	78	9
173	942446	79	9
173	954438	80	9
173	966430	81	9
173	978422	82	9
173	990414	83	9
173	1002406	84	9
173	1014398	85	9
173	1026390	86	9
173	1038382	87	9
173	1050374	88	9
173	1062366	89	9
173	1074358	90	9
173	1086350	91	9
173	1098342	92	9
173	1110334	93	9
173	1122326	94	9
173	1134318	95	9
173	1146310	96	9
173	1158302	97	9
173	1170294	98	9
173	1182286	99	9
173	1194278	100	9
174	10709	2	0.03308
174	22701	3	0.03745
174	34693	4	0.03745
174	46685	5	0.03745
174	58677	6	0.03745
174	70669	7	0.03745
174	82661	8	0.03745
174	94653	9	0.03745
174	106646	10	0.03745
174	118846	11	0.037498
174	130948	12	0.03745
174	143050	13	0.03745
174	155152	14	0.03745
174	167254	15	0.03745
174	179356	16	0.03745
174	191458	17	0.03745
174	203560	18	0.03745
174	215662	19	0.03745
174	227764	20	0.03745
174	239866	21	0.03745
174	251968	22	0.03745
174	264070	23	0.03745
174	276172	24	0.03745
174	288274	25	0.03745
174	300376	26	0.03745
174	312478	27	0.03745
174	324580	28	0.03745
174	336682	29	0.03745
174	348784	30	0.03745
174	360886	31	0.03745
174	372988	32	0.03745
174	385090	33	0.03745
174	397192	34	0.03745
174	409294	35	0.03745
174	421396	36	0.03745
174	433626	37	0.037562
174	445718	38	0.03745
174	457810	39	0.03745
174	469902	40	0.03745
174	481994	41	0.03745
174	494215	42	0.037562
174	506297	43	0.03745
174	518379	44	0.03745
174	530461	45	0.03745
174	542543	46	0.03745
174	554751	47	0.037562
174	566823	48	0.03745
174	578895	49	0.03745
174	590967	50	0.03745
174	603169	51	0.037562
174	615231	52	0.03745
174	627293	53	0.03745
174	639355	54	0.03745
174	651550	55	0.037562
174	663602	56	0.03745
174	675654	57	0.03745
174	687706	58	0.03745
174	699758	59	0.03745
174	711934	60	0.037562
174	723976	61	0.03745
174	736018	62	0.03745
174	748060	63	0.03745
174	760226	64	0.037562
174	772258	65	0.03745
174	784290	66	0.03745
174	796455	67	0.037562
174	808477	68	0.03745
174	820499	69	0.03745
174	832521	70	0.03745
174	844674	71	0.037595538608
174	856686	72	0.03745
174	868698	73	0.03745
174	880710	74	0.03745
174	892850	75	0.037562
174	904852	76	0.03745
174	916854	77	0.03745
174	928856	78	0.03745
174	942446	79	0.038826
174	954438	80	0.03745
174	966430	81	0.03745
174	978422	82	0.03745
174	990414	83	0.03745
174	1002406	84	0.03745
174	1014398	85	0.03745
174	1026390	86	0.03745
174	1038382	87	0.03745
174	1050374	88	0.03745
174	1062366	89	0.03745
174	1074358	90	0.03745
174	1086350	91	0.03745
174	1098342	92	0.03745
174	1110334	93	0.03745
174	1122326	94	0.03745
174	1134318	95	0.03745
174	1146310	96	0.03745
174	1158302	97	0.03745
174	1170294	98	0.03745
174	1182286	99	0.03745
174	1194278	100	0.03745
175	10709	2	0
175	22701	3	0
175	34693	4	0
175	46685	5	0
175	58677	6	0
175	70669	7	0
175	82661	8	0
175	94653	9	0
175	106646	10	0
175	118846	11	0
175	130948	12	0
175	143050	13	0
175	155152	14	0
175	167254	15	0
175	179356	16	0
175	191458	17	0
175	203560	18	0
175	215662	19	0
175	227764	20	0
175	239866	21	0
175	251968	22	0
175	264070	23	0
175	276172	24	0
175	288274	25	0
175	300376	26	0
175	312478	27	0
175	324580	28	0
175	336682	29	0
175	348784	30	0
175	360886	31	0
175	372988	32	0
175	385090	33	0
175	397192	34	0
175	409294	35	0
175	421396	36	0
175	433626	37	0
175	445718	38	0
175	457810	39	0
175	469902	40	0
175	481994	41	0
175	494215	42	0
175	506297	43	0
175	518379	44	0
175	530461	45	0
175	542543	46	0
175	554751	47	0
175	566823	48	0
175	578895	49	0
175	590967	50	0
175	603169	51	0
175	615231	52	0
175	627293	53	0
175	639355	54	0
175	651550	55	0
175	663602	56	0
175	675654	57	0
175	687706	58	0
175	699758	59	0
175	711934	60	0
175	723976	61	0
175	736018	62	0
175	748060	63	0
175	760226	64	0
175	772258	65	0
175	784290	66	0
175	796455	67	0
175	808477	68	0
175	820499	69	0
175	832521	70	0
175	844674	71	0
175	856686	72	0
175	868698	73	0
175	880710	74	0
175	892850	75	0
175	904852	76	0
175	916854	77	0
175	928856	78	0
175	942446	79	0
175	954438	80	0
175	966430	81	0
175	978422	82	0
175	990414	83	0
175	1002406	84	0
175	1014398	85	0
175	1026390	86	0
175	1038382	87	0
175	1050374	88	0
175	1062366	89	0
175	1074358	90	0
175	1086350	91	0
175	1098342	92	0
175	1110334	93	0
175	1122326	94	0
175	1134318	95	0
175	1146310	96	0
175	1158302	97	0
175	1170294	98	0
175	1182286	99	0
175	1194278	100	0

