file 2452637 1720583321                                         
version 3
run BreakRanksNoGui-21-20240710-05:48:31-233889
attr configname BreakRanksNoGui
attr datetime 20240710-05:48:31
attr datetimef 20240710-054831
attr experiment BreakRanksNoGui
attr inifile omnetpp.ini
attr iterationvars "$nCars=8, $platoonSize=8, $nLanes=1, $ploegH=0.5, $controller=1, $headway=0.1, $leaderHeadway=1.2, $leaderSpeed=110, $breakRanksSafetyDistance=10, $minSpeed=100, $maxSpeed=120, $beaconInterval=0.1, $priority=4, $packetSize=200, $sController=\"CACC\", $0=2, $1=0"
attr iterationvarsd nCars=8/platoonSize=8/nLanes=1/ploegH=0.5/controller=1/headway=0.1/leaderHeadway=1.2/leaderSpeed=110/breakRanksSafetyDistance=10/minSpeed=100/maxSpeed=120/beaconInterval=0.1/priority=4/packetSize=200/sController=CACC/2/0
attr iterationvarsf nCars=8,platoonSize=8,nLanes=1,ploegH=0.5,controller=1,headway=0.1,leaderHeadway=1.2,leaderSpeed=110,breakRanksSafetyDistance=10,minSpeed=100,maxSpeed=120,beaconInterval=0.1,priority=4,packetSize=200,sController=CACC,2,0-
attr measurement "$nCars=8, $platoonSize=8, $nLanes=1, $ploegH=0.5, $controller=1, $headway=0.1, $leaderHeadway=1.2, $leaderSpeed=110, $breakRanksSafetyDistance=10, $minSpeed=100, $maxSpeed=120, $beaconInterval=0.1, $priority=4, $packetSize=200, $sController=\"CACC\", $0=2, $1=0"
attr network Highway
attr processid 233889
attr repetition 1
attr replication #1
attr resultdir results
attr runnumber 21
attr seedset 1
itervar beaconInterval 0.1
itervar breakRanksSafetyDistance 10
itervar controller 1
itervar headway 0.1
itervar leaderHeadway 1.2
itervar leaderSpeed 110
itervar maxSpeed 120
itervar minSpeed 100
itervar nCars 8
itervar nLanes 1
itervar packetSize 200
itervar platoonSize 8
itervar ploegH 0.5
itervar priority 4
itervar sController "\"CACC\""
config image-path ../../../veins/images
config repeat 10
config extends BreakRanks
config *.manager.command "\"sumo\""
config *.manager.ignoreGuiCommands true
config output-vector-file results/BreakRanks_1_0.1_110_10/result_1.vec
config output-scalar-file results/BreakRanks_1_0.1_110_10/result_1.sca
config extends Platooning
config *.node[*].scenario_type "\"BreakRanksScenario\""
config *.manager.command "\"sumo-gui\""
config *.node[*].scenario_type "\"SimpleScenario\""
config cmdenv-express-mode true
config cmdenv-autoflush true
config cmdenv-status-frequency 15s
config num-rngs 6
config network Highway
config debug-on-errors true
config print-undisposed true
config *.playgroundSizeX 65000m
config *.playgroundSizeY 25000m
config *.playgroundSizeZ 50m
config sim-time-limit "100 s"
config *.annotations.draw false
config *.obstacles.debug false
config *.world.useTorus false
config *.world.use2D false
config *.manager.updateInterval 0.01s
config *.manager.host "\"localhost\""
config *.manager.moduleType "\"org.car2x.plexe.PlatoonCar\""
config *.manager.moduleName "\"node\""
config *.manager.moduleDisplayString "\"\""
config *.manager.autoShutdown true
config *.manager.margin 25
config *.connectionManager.sendDirect true
config *.connectionManager.maxInterfDist 2600m
config *.connectionManager.drawMaxIntfDist false
config *.**.nic.mac1609_4.useServiceChannel false
config *.**.nic.mac1609_4.txPower 100mW
config *.**.nic.mac1609_4.bitrate 6Mbps
config *.**.nic.mac1609_4.useAcks true
config *.**.nic.mac1609_4.ackErrorRate 0.0
config *.**.nic.mac1609_4.frameErrorRate 0.0
config *.**.nic.phy80211p.minPowerLevel -94dBm
config *.**.nic.phy80211p.maxTXPower 100mW
config *.**.nic.phy80211p.useNoiseFloor true
config *.**.nic.phy80211p.noiseFloor -95dBm
config *.**.nic.phy80211p.decider "xmldoc(\"config.xml\")"
config *.**.nic.phy80211p.analogueModels "xmldoc(\"config.xml\")"
config *.**.nic.phy80211p.usePropagationDelay true
config *.node[*].mobility.x 0
config *.node[*].mobility.y 0
config *.node[*].mobility.z 1.895
config seed-set 1
config **.seed 1
config *.node[*].prot.rng-0 2
config *.node[*].appl.rng-0 3
config *.node[*].scenario.rng-0 4
config **.traffic.rng-0 5
config *.manager.configFile "\"./sumocfg/freeway.sumo.cfg\""
config *.manager.launchConfig "xmldoc(\"./sumocfg/freeway.launchd.xml\")"
config **.numberOfCars 8
config **.numberOfCarsPerPlatoon 8
config **.numberOfLanes 1
config *.node[*].helper_type "\"PositionHelper\""
config *.node[*].scenario.caccC1 0.5
config *.node[*].scenario.caccXi 1
config *.node[*].scenario.caccOmegaN "0.2 Hz"
config *.node[*].scenario.caccSpacing "2 m"
config *.node[*].scenario.engineTau "0.5 s"
config *.node[*].scenario.ploegH 0.5s
config *.node[*].scenario.ploegKp 0.2
config *.node[*].scenario.ploegKd 0.7
config *.node[*].scenario.useRealisticEngine false
config *.node[*].scenario.useControllerAcceleration true
config *.node[*].scenario.nLanes 1
config **.numericController 1
config **.headway 0.1s
config *.node[*].scenario.accHeadway 0.1s
config *.node[*].scenario.leaderHeadway 1.2s
config *.node[*].scenario.leaderSpeed 110kmph
config *.node[*].appl_type "\"SimplePlatooningApp\""
config *.node[*].appl.*.scalar-recording true
config *.node[*].appl.*.vector-recording true
config *.node[0].appl.breakRanksSafetyDistance 10m
config *.node[*].appl.minSpeed 100kmph
config *.node[*].appl.maxSpeed 120kmph
config *.node[*].protocol_type "\"SimplePlatooningBeaconing\""
config *.node[*].prot.*.scalar-recording true
config *.node[*].prot.*.vector-recording true
config *.node[*].prot.beaconingInterval 0.1s
config *.node[*].prot.priority 4
config *.node[*].prot.packetSize 200
config **.traffic_type "\"PlatoonsTrafficManager\""
config **.traffic.platoonInsertTime "1 s"
config **.traffic.platoonInsertSpeed 110kmph
config **.traffic.nCars 8
config **.traffic.platoonSize 8
config **.traffic.nLanes 1
config **.traffic.platooningVType "\"vtypeauto\""
config **.traffic.controller "\"CACC\""
config **.traffic.platoonInsertDistance 2m
config **.traffic.platoonInsertHeadway 0s
config **.traffic.platoonLeaderHeadway 1.2s
config **.scalar-recording false
config **.vector-recording false

vector 0 Highway.node[0].appl distance ETV
vector 1 Highway.node[0].appl relativeSpeed ETV
vector 2 Highway.node[0].appl nodeId ETV
vector 3 Highway.node[0].appl acceleration ETV
vector 4 Highway.node[0].appl controllerAcceleration ETV
vector 5 Highway.node[0].appl speed ETV
vector 6 Highway.node[0].appl posx ETV
vector 7 Highway.node[0].appl posy ETV
vector 8 Highway.node[1].appl distance ETV
vector 9 Highway.node[1].appl relativeSpeed ETV
vector 10 Highway.node[1].appl nodeId ETV
vector 11 Highway.node[1].appl acceleration ETV
vector 12 Highway.node[1].appl controllerAcceleration ETV
vector 13 Highway.node[1].appl speed ETV
vector 14 Highway.node[1].appl posx ETV
vector 15 Highway.node[1].appl posy ETV
vector 16 Highway.node[2].appl distance ETV
vector 17 Highway.node[2].appl relativeSpeed ETV
vector 18 Highway.node[2].appl nodeId ETV
vector 19 Highway.node[2].appl acceleration ETV
vector 20 Highway.node[2].appl controllerAcceleration ETV
vector 21 Highway.node[2].appl speed ETV
vector 22 Highway.node[2].appl posx ETV
vector 23 Highway.node[2].appl posy ETV
vector 24 Highway.node[3].appl distance ETV
vector 25 Highway.node[3].appl relativeSpeed ETV
vector 26 Highway.node[3].appl nodeId ETV
vector 27 Highway.node[3].appl acceleration ETV
vector 28 Highway.node[3].appl controllerAcceleration ETV
vector 29 Highway.node[3].appl speed ETV
vector 30 Highway.node[3].appl posx ETV
vector 31 Highway.node[3].appl posy ETV
vector 32 Highway.node[4].appl distance ETV
vector 33 Highway.node[4].appl relativeSpeed ETV
vector 34 Highway.node[4].appl nodeId ETV
vector 35 Highway.node[4].appl acceleration ETV
vector 36 Highway.node[4].appl controllerAcceleration ETV
vector 37 Highway.node[4].appl speed ETV
vector 38 Highway.node[4].appl posx ETV
vector 39 Highway.node[4].appl posy ETV
vector 40 Highway.node[5].appl distance ETV
vector 41 Highway.node[5].appl relativeSpeed ETV
vector 42 Highway.node[5].appl nodeId ETV
vector 43 Highway.node[5].appl acceleration ETV
vector 44 Highway.node[5].appl controllerAcceleration ETV
vector 45 Highway.node[5].appl speed ETV
vector 46 Highway.node[5].appl posx ETV
vector 47 Highway.node[5].appl posy ETV
vector 48 Highway.node[6].appl distance ETV
vector 49 Highway.node[6].appl relativeSpeed ETV
vector 50 Highway.node[6].appl nodeId ETV
vector 51 Highway.node[6].appl acceleration ETV
vector 52 Highway.node[6].appl controllerAcceleration ETV
vector 53 Highway.node[6].appl speed ETV
vector 54 Highway.node[6].appl posx ETV
vector 55 Highway.node[6].appl posy ETV
vector 56 Highway.node[7].appl distance ETV
vector 57 Highway.node[7].appl relativeSpeed ETV
vector 58 Highway.node[7].appl nodeId ETV
vector 59 Highway.node[7].appl acceleration ETV
vector 60 Highway.node[7].appl controllerAcceleration ETV
vector 61 Highway.node[7].appl speed ETV
vector 62 Highway.node[7].appl posx ETV
vector 63 Highway.node[7].appl posy ETV
vector 64 Highway.node[2].prot frontDelay ETV
vector 65 Highway.node[2].prot frontDelayId ETV
vector 66 Highway.node[4].prot frontDelay ETV
vector 67 Highway.node[4].prot frontDelayId ETV
vector 68 Highway.node[6].prot frontDelay ETV
vector 69 Highway.node[6].prot frontDelayId ETV
vector 70 Highway.node[7].prot frontDelay ETV
vector 71 Highway.node[7].prot frontDelayId ETV
vector 72 Highway.node[5].prot frontDelay ETV
vector 73 Highway.node[5].prot frontDelayId ETV
vector 74 Highway.node[1].prot leaderDelay ETV
vector 75 Highway.node[1].prot leaderDelayId ETV
vector 76 Highway.node[1].prot frontDelay ETV
vector 77 Highway.node[1].prot frontDelayId ETV
vector 78 Highway.node[2].prot leaderDelay ETV
vector 79 Highway.node[2].prot leaderDelayId ETV
vector 80 Highway.node[3].prot leaderDelay ETV
vector 81 Highway.node[3].prot leaderDelayId ETV
vector 82 Highway.node[4].prot leaderDelay ETV
vector 83 Highway.node[4].prot leaderDelayId ETV
vector 84 Highway.node[5].prot leaderDelay ETV
vector 85 Highway.node[5].prot leaderDelayId ETV
vector 86 Highway.node[6].prot leaderDelay ETV
vector 87 Highway.node[6].prot leaderDelayId ETV
vector 88 Highway.node[7].prot leaderDelay ETV
vector 89 Highway.node[7].prot leaderDelayId ETV
vector 90 Highway.node[3].prot frontDelay ETV
vector 91 Highway.node[3].prot frontDelayId ETV
vector 92 Highway.node[0].prot nodeId ETV
vector 93 Highway.node[0].prot busyTime ETV
vector 94 Highway.node[0].prot collisions ETV
vector 95 Highway.node[1].prot nodeId ETV
vector 96 Highway.node[1].prot busyTime ETV
vector 97 Highway.node[1].prot collisions ETV
vector 98 Highway.node[2].prot nodeId ETV
vector 99 Highway.node[2].prot busyTime ETV
vector 100 Highway.node[2].prot collisions ETV
vector 101 Highway.node[3].prot nodeId ETV
vector 102 Highway.node[3].prot busyTime ETV
vector 103 Highway.node[3].prot collisions ETV
vector 104 Highway.node[4].prot nodeId ETV
vector 105 Highway.node[4].prot busyTime ETV
vector 106 Highway.node[4].prot collisions ETV
vector 107 Highway.node[5].prot nodeId ETV
vector 108 Highway.node[5].prot busyTime ETV
vector 109 Highway.node[5].prot collisions ETV
vector 110 Highway.node[6].prot nodeId ETV
vector 111 Highway.node[6].prot busyTime ETV
vector 112 Highway.node[6].prot collisions ETV
vector 113 Highway.node[7].prot nodeId ETV
vector 114 Highway.node[7].prot busyTime ETV
vector 115 Highway.node[7].prot collisions ETV
0	11193 17510 113 545087 1.11 99.91 989 -1 -1 -989 989
1	28703 16521 113 545087 1.11 99.91 989 0 0 0 0
2	45224 16521 113 545087 1.11 99.91 989 0 0 0 0
3	61745 19109 113 545087 1.11 99.91 989 -0.00283113 0.000125957 -0.043966303784312 9.6812896349407e-05
4	80854 26489 113 545087 1.11 99.91 989 -0.00437036 0.00019576 -0.042459310034081 0.00013890441444735
5	107343 22451 113 545087 1.11 99.91 989 30.5554 30.56 30219.5304 923377.16656332
6	129794 22349 113 545087 1.11 99.91 989 52.3604 3071.26 1544631.0859 3165064576.674
7	152143 21466 113 545087 1.11 99.91 989 242.45 242.45 239783.05 58135400.472499
8	173609 20996 114 545088 1.11 99.91 989 -1 9.99897 5305.33389 50734.835563444
9	194605 22543 114 545088 1.11 99.91 989 -0.000537994 0.637034 79.989795467393 33.708145367827
10	217148 17510 114 545088 1.11 99.91 989 1 1 989 989
11	234658 26683 114 545088 1.11 99.91 989 -0.242245 0.929627 14.41488806135 11.792512250161
12	261341 26721 114 545088 1.11 99.91 989 -0.31892 1.43871 14.27688259772 16.895402534042
13	288062 22490 114 545088 1.11 99.91 989 29.9186 32.0643 30528.4919 942848.52736195
14	310552 23352 114 545088 1.11 99.91 989 46.3604 3096.08 1537537.5423 3152428880.4978
15	333904 22455 114 545088 1.11 99.91 989 242.45 245.75 240703.75 58584886.2125
16	356359 23311 115 545089 1.11 99.91 989 1.99968 92.0204 21170.4659 1057353.5923932
17	379670 24907 115 545089 1.11 99.91 989 -6.49554e-05 2.65002 761.49202816664 1748.1114482093
18	404577 17510 115 545089 1.11 99.91 989 2 2 1978 3956
19	422087 26545 115 545089 1.11 99.91 989 -1.36006 0.0795711 -25.562584499526 30.726933469689
20	448632 26531 115 545089 1.11 99.91 989 -1.5 0.0944118 -24.68676868219 38.112217970527
21	475163 22519 115 545089 1.11 99.91 989 27.9056 30.56 29378.0495 873793.74263399
22	497682 23353 115 545089 1.11 99.91 989 40.3604 2975.24 1511080.8735 3031830180.4253
23	521035 22455 115 545089 1.11 99.91 989 242.45 242.45 239783.05 58135400.472499
24	543490 22222 116 545090 1.11 99.91 989 -1 31.7052 6306.30598 82708.25088076
25	565712 23622 116 545090 1.11 99.91 989 -0.00286603 2.57715 153.54260411174 161.08138753843
26	589334 17510 116 545090 1.11 99.91 989 3 3 2967 8901
27	606844 26261 116 545090 1.11 99.91 989 -1.7502 1.12136 24.448924657138 56.200352611904
28	633105 26257 116 545090 1.11 99.91 989 -2.38145 1.5 25.003847187811 91.746040471636
29	659362 22752 116 545090 1.11 99.91 989 29.057 33.0779 30500.5389 942118.61121637
30	682114 23352 116 545090 1.11 99.91 989 34.3604 3081.24 1513691.5268 3072133700.3006
31	705466 22455 116 545090 1.11 99.91 989 242.45 249.05 241426.45 58942652.412501
32	727921 22826 117 545091 1.11 99.91 989 -1 91.7637 17238.68354 940195.38756315
33	750747 23507 117 545091 1.11 99.91 989 -4.00971e-05 3.07203 519.40204036016 1060.9675467908
34	774254 17510 117 545091 1.11 99.91 989 4 4 3956 15824
35	791764 26392 117 545091 1.11 99.91 989 -0.490982 0.102899 -5.5698323746723 9.0673521449888
36	818156 26405 117 545091 1.11 99.91 989 -0.597318 0.10329 -5.0240720465468 10.423770050183
37	844561 22377 117 545091 1.11 99.91 989 28.7584 30.56 29749.8583 895147.21908753
38	866938 23354 117 545091 1.11 99.91 989 28.3604 3000.32 1494491.3146 2990107707.4175
39	890292 22455 117 545091 1.11 99.91 989 242.45 252.35 241419.85 58940911.3325
40	912747 23345 118 545092 1.11 99.91 989 1.99807 63.3563 18501.73763 735171.56782895
41	936092 24170 118 545092 1.11 99.91 989 -0.309111 1.04251 333.18175907423 270.65983903743
42	960262 17510 118 545092 1.11 99.91 989 5 5 4945 24725
43	977772 26198 118 545092 1.11 99.91 989 -1.46225 0.106065 -35.562587917796 50.858874826428
44	1003970 26138 118 545092 1.11 99.91 989 -1.5 0.106301 -34.685991923233 59.016623040152
45	1030108 22548 118 545092 1.11 99.91 989 26.8987 30.56 28883.9853 845592.36162661
46	1052656 23337 118 545092 1.11 99.91 989 22.3604 2907.88 1472660.3098 2895222644.597
47	1075993 22455 118 545092 1.11 99.91 989 242.45 242.45 239783.05 58135400.472499
48	1098448 23043 119 545093 1.11 99.91 989 -1 117.532 22080.65488 1473846.2897778
49	1121491 23626 119 545093 1.11 99.91 989 -2.92566e-05 4.00037 704.85165627926 1941.6042776404
50	1145117 17510 119 545093 1.11 99.91 989 6 6 5934 35604
51	1162627 26181 119 545093 1.11 99.91 989 -1.74856 0.106133 -25.552447205582 43.520188079232
52	1188808 26176 119 545093 1.11 99.91 989 -2.37953 0.124305 -24.407265499761 58.745336499895
53	1214984 22491 119 545093 1.11 99.91 989 27.8758 30.56 29051.1759 854462.29995901
54	1237475 23356 119 545093 1.11 99.91 989 16.3604 2918.55 1464370.1693 2873252098.1368
55	1260831 22455 119 545093 1.11 99.91 989 242.45 249.05 240842.35 58653639.7325
56	1283286 23221 120 545094 1.11 99.91 989 1.9999 133.044 19233.32597 1072413.2459428
57	1306507 24547 120 545094 1.11 99.91 989 -0.000193774 6.07569 769.24629420831 2540.516574497
58	1331054 17510 120 545094 1.11 99.91 989 7 7 6923 48461
59	1348564 26104 120 545094 1.11 99.91 989 -1.46045 0.104406 -35.562179254114 52.225454709321
60	1374668 25998 120 545094 1.11 99.91 989 -1.5 0.104564 -34.703176346256 60.417063554899
61	1400666 22826 120 545094 1.11 99.91 989 26.8987 30.56 28725.0079 836250.43509323
62	1423492 23366 120 545094 1.11 99.91 989 10.3604 2879.98 1450216.1373 2819447298.9721
63	1446858 22455 120 545094 1.11 99.91 989 242.45 252.35 241508.95 58984867.3325
64	1469313 40026 702 545142 1.212421340237 99.912417035195 988 0.099987320208 0.10000911236 98.799996015181 9.8799992126945
65	1509339 27293 702 545142 1.212421340237 99.912417035195 988 2 2 1976 3952
66	1536632 40026 770 545204 1.235022380265 99.93501795295 988 0.099987320208 0.100009112366 98.799995892908 9.8799991887833
67	1576658 27257 770 545204 1.235022380265 99.93501795295 988 4 4 3952 15808
68	1603915 40021 837 545259 1.248692420293 99.948688299161 988 0.099987320208 0.100009112384 98.799996199091 9.8799992500226
69	1643936 27265 837 545259 1.248692420293 99.948688299161 988 6 6 5928 35568
70	1671201 40011 905 545333 1.263870440307 99.963879428006 988 0.099987320209 0.100009208655 98.800009307922 9.8800018714562
71	1711212 27278 905 545333 1.263870440307 99.963879428006 988 7 7 6916 48412
72	1738490 39999 1040 545486 1.297372520363 99.997369139734 988 0.099987320208 0.10000901416 98.799996939594 9.8799993976349
73	1778489 27267 1040 545486 1.297372520363 99.997369139734 988 5 5 4940 24700
74	1805756 39987 1100 545534 1.297782600418 99.997792151314 988 0.099987320206 0.100009303638 98.799996871119 9.8799993842602
75	1845743 27270 1100 545534 1.297782600418 99.997792151314 988 1 1 988 988
76	1873013 39987 1100 545534 1.297782600418 99.997792151314 988 0.099987320206 0.100009303638 98.799996871119 9.8799993842602
77	1913000 27270 1100 545534 1.297782600418 99.997792151314 988 1 1 988 988
78	1940270 40035 1106 545546 1.297782620432 99.997792388408 988 0.099987320206 0.100009303638 98.799997088199 9.8799994276762
79	1980305 27276 1106 545546 1.297782620432 99.997792388408 988 2 2 1976 3952
80	2007581 40007 1112 545528 1.297782640445 99.997792107872 988 0.099987320207 0.100009303639 98.799996787649 9.8799993675661
81	2047588 27267 1112 545528 1.297782640445 99.997792107872 988 3 3 2964 8892
82	2074855 40031 1118 545540 1.297782660459 99.997792304402 988 0.099987320206 0.100009303641 98.799996964166 9.8799994028695
83	2114886 27272 1118 545540 1.297782660459 99.997792304402 988 4 4 3952 15808
84	2142158 40027 1124 545558 1.297782680473 99.997792613385 988 0.099987320206 0.100009303642 98.799997253135 9.8799994606633
85	2182185 27292 1124 545558 1.297782680473 99.997792613385 988 5 5 4940 24700
86	2209477 39990 1130 545552 1.297782700487 99.997792577615 988 0.099987320206 0.100009303647 98.799997197351 9.8799994495065
87	2249467 27258 1130 545552 1.297782700487 99.997792577615 988 6 6 5928 35568
88	2276725 39986 1136 545564 1.297782720501 99.997792706536 988 0.099987320206 0.100009303652 98.799997306258 9.879999471288
89	2316711 27256 1136 545564 1.297782720501 99.997792706536 988 7 7 6916 48412
90	2343967 39956 1173 545079 1.307201640446 99.907209582833 987 0.099987320209 0.100009208632 98.70000826261 9.8700016623922
91	2383923 27243 1173 545079 1.307201640446 99.907209582833 987 3 3 2961 8883
92	2411166 1459 4960 545566 2 100 99 0 0 0 0
93	2412625 2068 4960 545566 2 100 99 0.022161 0.026131612028 2.471295612028 0.061699280405182
94	2414693 1459 4960 545566 2 100 99 0 0 0 0
95	2416152 1459 4961 545567 2 100 99 1 1 99 99
96	2417611 2068 4961 545567 2 100 99 0.022161 0.025898 2.470902092734 0.061679099152037
97	2419679 1459 4961 545567 2 100 99 0 0 0 0
98	2421138 1459 4962 545568 2 100 99 2 2 198 396
99	2422597 2067 4962 545568 2 100 99 0.02216 0.025898 2.470901185864 0.061679059508983
100	2424664 1558 4962 545568 2 100 99 0 0 0 0
101	2426222 1558 4963 545569 2 100 99 3 3 297 891
102	2427780 2167 4963 545569 2 100 99 0.022161 0.025898 2.470902279106 0.061679108513572
103	2429947 1558 4963 545569 2 100 99 0 0 0 0
104	2431505 1558 4964 545570 2 100 99 4 4 396 1584
105	2433063 2167 4964 545570 2 100 99 0.022161 0.025898 2.470902372366 0.061679113198083
106	2435230 1558 4964 545570 2 100 99 0 0 0 0
107	2436788 1558 4965 545571 2 100 99 5 5 495 2475
108	2438346 2167 4965 545571 2 100 99 0.022161 0.025898 2.470902465668 0.06167911788472
109	2440513 1558 4965 545571 2 100 99 0 0 0 0
110	2442071 1558 4966 545572 2 100 99 6 6 594 3564
111	2443629 2167 4966 545572 2 100 99 0.022161 0.025898 2.470902558966 0.061679122571175
112	2445796 1558 4966 545572 2 100 99 0 0 0 0
113	2447354 1558 4967 545573 2 100 99 7 7 693 4851
114	2448912 2166 4967 545573 2 100 99 0.022161 0.02593165228 2.47090265228 0.061679182178971
115	2451078 1558 4967 545573 2 100 99 0 0 0 0

