file 2453134 1720583355                                         
version 3
run BreakRanksNoGui-24-20240710-05:49:04-233953
attr configname BreakRanksNoGui
attr datetime 20240710-05:49:04
attr datetimef 20240710-054904
attr experiment BreakRanksNoGui
attr inifile omnetpp.ini
attr iterationvars "$nCars=8, $platoonSize=8, $nLanes=1, $ploegH=0.5, $controller=1, $headway=0.1, $leaderHeadway=1.2, $leaderSpeed=110, $breakRanksSafetyDistance=10, $minSpeed=100, $maxSpeed=120, $beaconInterval=0.1, $priority=4, $packetSize=200, $sController=\"CACC\", $0=2, $1=0"
attr iterationvarsd nCars=8/platoonSize=8/nLanes=1/ploegH=0.5/controller=1/headway=0.1/leaderHeadway=1.2/leaderSpeed=110/breakRanksSafetyDistance=10/minSpeed=100/maxSpeed=120/beaconInterval=0.1/priority=4/packetSize=200/sController=CACC/2/0
attr iterationvarsf nCars=8,platoonSize=8,nLanes=1,ploegH=0.5,controller=1,headway=0.1,leaderHeadway=1.2,leaderSpeed=110,breakRanksSafetyDistance=10,minSpeed=100,maxSpeed=120,beaconInterval=0.1,priority=4,packetSize=200,sController=CACC,2,0-
attr measurement "$nCars=8, $platoonSize=8, $nLanes=1, $ploegH=0.5, $controller=1, $headway=0.1, $leaderHeadway=1.2, $leaderSpeed=110, $breakRanksSafetyDistance=10, $minSpeed=100, $maxSpeed=120, $beaconInterval=0.1, $priority=4, $packetSize=200, $sController=\"CACC\", $0=2, $1=0"
attr network Highway
attr processid 233953
attr repetition 4
attr replication #4
attr resultdir results
attr runnumber 24
attr seedset 4
itervar beaconInterval 0.1
itervar breakRanksSafetyDistance 10
itervar controller 1
itervar headway 0.1
itervar leaderHeadway 1.2
itervar leaderSpeed 110
itervar maxSpeed 120
itervar minSpeed 100
itervar nCars 8
itervar nLanes 1
itervar packetSize 200
itervar platoonSize 8
itervar ploegH 0.5
itervar priority 4
itervar sController "\"CACC\""
config image-path ../../../veins/images
config repeat 10
config extends BreakRanks
config *.manager.command "\"sumo\""
config *.manager.ignoreGuiCommands true
config output-vector-file results/BreakRanks_1_0.1_110_10/result_4.vec
config output-scalar-file results/BreakRanks_1_0.1_110_10/result_4.sca
config extends Platooning
config *.node[*].scenario_type "\"BreakRanksScenario\""
config *.manager.command "\"sumo-gui\""
config *.node[*].scenario_type "\"SimpleScenario\""
config cmdenv-express-mode true
config cmdenv-autoflush true
config cmdenv-status-frequency 15s
config num-rngs 6
config network Highway
config debug-on-errors true
config print-undisposed true
config *.playgroundSizeX 65000m
config *.playgroundSizeY 25000m
config *.playgroundSizeZ 50m
config sim-time-limit "100 s"
config *.annotations.draw false
config *.obstacles.debug false
config *.world.useTorus false
config *.world.use2D false
config *.manager.updateInterval 0.01s
config *.manager.host "\"localhost\""
config *.manager.moduleType "\"org.car2x.plexe.PlatoonCar\""
config *.manager.moduleName "\"node\""
config *.manager.moduleDisplayString "\"\""
config *.manager.autoShutdown true
config *.manager.margin 25
config *.connectionManager.sendDirect true
config *.connectionManager.maxInterfDist 2600m
config *.connectionManager.drawMaxIntfDist false
config *.**.nic.mac1609_4.useServiceChannel false
config *.**.nic.mac1609_4.txPower 100mW
config *.**.nic.mac1609_4.bitrate 6Mbps
config *.**.nic.mac1609_4.useAcks true
config *.**.nic.mac1609_4.ackErrorRate 0.0
config *.**.nic.mac1609_4.frameErrorRate 0.0
config *.**.nic.phy80211p.minPowerLevel -94dBm
config *.**.nic.phy80211p.maxTXPower 100mW
config *.**.nic.phy80211p.useNoiseFloor true
config *.**.nic.phy80211p.noiseFloor -95dBm
config *.**.nic.phy80211p.decider "xmldoc(\"config.xml\")"
config *.**.nic.phy80211p.analogueModels "xmldoc(\"config.xml\")"
config *.**.nic.phy80211p.usePropagationDelay true
config *.node[*].mobility.x 0
config *.node[*].mobility.y 0
config *.node[*].mobility.z 1.895
config seed-set 4
config **.seed 4
config *.node[*].prot.rng-0 2
config *.node[*].appl.rng-0 3
config *.node[*].scenario.rng-0 4
config **.traffic.rng-0 5
config *.manager.configFile "\"./sumocfg/freeway.sumo.cfg\""
config *.manager.launchConfig "xmldoc(\"./sumocfg/freeway.launchd.xml\")"
config **.numberOfCars 8
config **.numberOfCarsPerPlatoon 8
config **.numberOfLanes 1
config *.node[*].helper_type "\"PositionHelper\""
config *.node[*].scenario.caccC1 0.5
config *.node[*].scenario.caccXi 1
config *.node[*].scenario.caccOmegaN "0.2 Hz"
config *.node[*].scenario.caccSpacing "2 m"
config *.node[*].scenario.engineTau "0.5 s"
config *.node[*].scenario.ploegH 0.5s
config *.node[*].scenario.ploegKp 0.2
config *.node[*].scenario.ploegKd 0.7
config *.node[*].scenario.useRealisticEngine false
config *.node[*].scenario.useControllerAcceleration true
config *.node[*].scenario.nLanes 1
config **.numericController 1
config **.headway 0.1s
config *.node[*].scenario.accHeadway 0.1s
config *.node[*].scenario.leaderHeadway 1.2s
config *.node[*].scenario.leaderSpeed 110kmph
config *.node[*].appl_type "\"SimplePlatooningApp\""
config *.node[*].appl.*.scalar-recording true
config *.node[*].appl.*.vector-recording true
config *.node[0].appl.breakRanksSafetyDistance 10m
config *.node[*].appl.minSpeed 100kmph
config *.node[*].appl.maxSpeed 120kmph
config *.node[*].protocol_type "\"SimplePlatooningBeaconing\""
config *.node[*].prot.*.scalar-recording true
config *.node[*].prot.*.vector-recording true
config *.node[*].prot.beaconingInterval 0.1s
config *.node[*].prot.priority 4
config *.node[*].prot.packetSize 200
config **.traffic_type "\"PlatoonsTrafficManager\""
config **.traffic.platoonInsertTime "1 s"
config **.traffic.platoonInsertSpeed 110kmph
config **.traffic.nCars 8
config **.traffic.platoonSize 8
config **.traffic.nLanes 1
config **.traffic.platooningVType "\"vtypeauto\""
config **.traffic.controller "\"CACC\""
config **.traffic.platoonInsertDistance 2m
config **.traffic.platoonInsertHeadway 0s
config **.traffic.platoonLeaderHeadway 1.2s
config **.scalar-recording false
config **.vector-recording false

vector 0 Highway.node[0].appl distance ETV
vector 1 Highway.node[0].appl relativeSpeed ETV
vector 2 Highway.node[0].appl nodeId ETV
vector 3 Highway.node[0].appl acceleration ETV
vector 4 Highway.node[0].appl controllerAcceleration ETV
vector 5 Highway.node[0].appl speed ETV
vector 6 Highway.node[0].appl posx ETV
vector 7 Highway.node[0].appl posy ETV
vector 8 Highway.node[1].appl distance ETV
vector 9 Highway.node[1].appl relativeSpeed ETV
vector 10 Highway.node[1].appl nodeId ETV
vector 11 Highway.node[1].appl acceleration ETV
vector 12 Highway.node[1].appl controllerAcceleration ETV
vector 13 Highway.node[1].appl speed ETV
vector 14 Highway.node[1].appl posx ETV
vector 15 Highway.node[1].appl posy ETV
vector 16 Highway.node[2].appl distance ETV
vector 17 Highway.node[2].appl relativeSpeed ETV
vector 18 Highway.node[2].appl nodeId ETV
vector 19 Highway.node[2].appl acceleration ETV
vector 20 Highway.node[2].appl controllerAcceleration ETV
vector 21 Highway.node[2].appl speed ETV
vector 22 Highway.node[2].appl posx ETV
vector 23 Highway.node[2].appl posy ETV
vector 24 Highway.node[3].appl distance ETV
vector 25 Highway.node[3].appl relativeSpeed ETV
vector 26 Highway.node[3].appl nodeId ETV
vector 27 Highway.node[3].appl acceleration ETV
vector 28 Highway.node[3].appl controllerAcceleration ETV
vector 29 Highway.node[3].appl speed ETV
vector 30 Highway.node[3].appl posx ETV
vector 31 Highway.node[3].appl posy ETV
vector 32 Highway.node[4].appl distance ETV
vector 33 Highway.node[4].appl relativeSpeed ETV
vector 34 Highway.node[4].appl nodeId ETV
vector 35 Highway.node[4].appl acceleration ETV
vector 36 Highway.node[4].appl controllerAcceleration ETV
vector 37 Highway.node[4].appl speed ETV
vector 38 Highway.node[4].appl posx ETV
vector 39 Highway.node[4].appl posy ETV
vector 40 Highway.node[5].appl distance ETV
vector 41 Highway.node[5].appl relativeSpeed ETV
vector 42 Highway.node[5].appl nodeId ETV
vector 43 Highway.node[5].appl acceleration ETV
vector 44 Highway.node[5].appl controllerAcceleration ETV
vector 45 Highway.node[5].appl speed ETV
vector 46 Highway.node[5].appl posx ETV
vector 47 Highway.node[5].appl posy ETV
vector 48 Highway.node[6].appl distance ETV
vector 49 Highway.node[6].appl relativeSpeed ETV
vector 50 Highway.node[6].appl nodeId ETV
vector 51 Highway.node[6].appl acceleration ETV
vector 52 Highway.node[6].appl controllerAcceleration ETV
vector 53 Highway.node[6].appl speed ETV
vector 54 Highway.node[6].appl posx ETV
vector 55 Highway.node[6].appl posy ETV
vector 56 Highway.node[7].appl distance ETV
vector 57 Highway.node[7].appl relativeSpeed ETV
vector 58 Highway.node[7].appl nodeId ETV
vector 59 Highway.node[7].appl acceleration ETV
vector 60 Highway.node[7].appl controllerAcceleration ETV
vector 61 Highway.node[7].appl speed ETV
vector 62 Highway.node[7].appl posx ETV
vector 63 Highway.node[7].appl posy ETV
vector 64 Highway.node[4].prot frontDelay ETV
vector 65 Highway.node[4].prot frontDelayId ETV
vector 66 Highway.node[1].prot leaderDelay ETV
vector 67 Highway.node[1].prot leaderDelayId ETV
vector 68 Highway.node[1].prot frontDelay ETV
vector 69 Highway.node[1].prot frontDelayId ETV
vector 70 Highway.node[2].prot leaderDelay ETV
vector 71 Highway.node[2].prot leaderDelayId ETV
vector 72 Highway.node[3].prot leaderDelay ETV
vector 73 Highway.node[3].prot leaderDelayId ETV
vector 74 Highway.node[4].prot leaderDelay ETV
vector 75 Highway.node[4].prot leaderDelayId ETV
vector 76 Highway.node[5].prot leaderDelay ETV
vector 77 Highway.node[5].prot leaderDelayId ETV
vector 78 Highway.node[6].prot leaderDelay ETV
vector 79 Highway.node[6].prot leaderDelayId ETV
vector 80 Highway.node[7].prot leaderDelay ETV
vector 81 Highway.node[7].prot leaderDelayId ETV
vector 82 Highway.node[3].prot frontDelay ETV
vector 83 Highway.node[3].prot frontDelayId ETV
vector 84 Highway.node[6].prot frontDelay ETV
vector 85 Highway.node[6].prot frontDelayId ETV
vector 86 Highway.node[2].prot frontDelay ETV
vector 87 Highway.node[2].prot frontDelayId ETV
vector 88 Highway.node[5].prot frontDelay ETV
vector 89 Highway.node[5].prot frontDelayId ETV
vector 90 Highway.node[7].prot frontDelay ETV
vector 91 Highway.node[7].prot frontDelayId ETV
vector 92 Highway.node[0].prot nodeId ETV
vector 93 Highway.node[0].prot busyTime ETV
vector 94 Highway.node[0].prot collisions ETV
vector 95 Highway.node[1].prot nodeId ETV
vector 96 Highway.node[1].prot busyTime ETV
vector 97 Highway.node[1].prot collisions ETV
vector 98 Highway.node[2].prot nodeId ETV
vector 99 Highway.node[2].prot busyTime ETV
vector 100 Highway.node[2].prot collisions ETV
vector 101 Highway.node[3].prot nodeId ETV
vector 102 Highway.node[3].prot busyTime ETV
vector 103 Highway.node[3].prot collisions ETV
vector 104 Highway.node[4].prot nodeId ETV
vector 105 Highway.node[4].prot busyTime ETV
vector 106 Highway.node[4].prot collisions ETV
vector 107 Highway.node[5].prot nodeId ETV
vector 108 Highway.node[5].prot busyTime ETV
vector 109 Highway.node[5].prot collisions ETV
vector 110 Highway.node[6].prot nodeId ETV
vector 111 Highway.node[6].prot busyTime ETV
vector 112 Highway.node[6].prot collisions ETV
vector 113 Highway.node[7].prot nodeId ETV
vector 114 Highway.node[7].prot busyTime ETV
vector 115 Highway.node[7].prot collisions ETV
0	11193 17510 113 545087 1.11 99.91 989 -1 -1 -989 989
1	28703 16521 113 545087 1.11 99.91 989 0 0 0 0
2	45224 16521 113 545087 1.11 99.91 989 0 0 0 0
3	61745 19109 113 545087 1.11 99.91 989 -0.00283113 0.000125957 -0.043966303784312 9.6812896349407e-05
4	80854 26489 113 545087 1.11 99.91 989 -0.00437036 0.00019576 -0.042459310034081 0.00013890441444735
5	107343 22451 113 545087 1.11 99.91 989 30.5554 30.56 30219.5304 923377.16656332
6	129794 22360 113 545087 1.11 99.91 989 66.0304 3084.93 1558150.7216 3207479615.8964
7	152154 21466 113 545087 1.11 99.91 989 242.45 242.45 239783.05 58135400.472499
8	173620 21223 114 545088 1.11 99.91 989 -1 45.1696 6979.69795 107047.07664449
9	194843 22529 114 545088 1.11 99.91 989 -0.000377192 5 324.98978708154 1258.7054661046
10	217372 17510 114 545088 1.11 99.91 989 1 1 989 989
11	234882 26687 114 545088 1.11 99.91 989 -1.36018 0.0607532 -25.562589870466 28.431331560744
12	261569 26679 114 545088 1.11 99.91 989 -1.5 0.0944177 -24.686815766088 35.494228134159
13	288248 22527 114 545088 1.11 99.91 989 27.9056 30.56 29458.0234 878595.13338882
14	310775 23138 114 545088 1.11 99.91 989 60.0304 3002.9 1536730.7123 3114705279.8981
15	333913 22455 114 545088 1.11 99.91 989 242.45 245.75 240703.75 58584886.2125
16	356368 23323 115 545089 1.11 99.91 989 1.99964 65.8514 17730.1781 637479.22366363
17	379691 24920 115 545089 1.11 99.91 989 -0.00012811 1.62477 499.30135208145 673.60990325981
18	404611 17510 115 545089 1.11 99.91 989 2 2 1978 3956
19	422121 26593 115 545089 1.11 99.91 989 -0.999726 0.079677 -15.562562272058 15.730380836145
20	448714 26568 115 545089 1.11 99.91 989 -1.5 0.0800937 -14.695968507934 21.142368932811
21	475282 22480 115 545089 1.11 99.91 989 28.9308 30.56 29640.2406 888742.04316208
22	497762 23360 115 545089 1.11 99.91 989 54.0304 3015.08 1528040.8711 3092267908.1053
23	521122 22455 115 545089 1.11 99.91 989 242.45 242.45 239783.05 58135400.472499
24	543577 23314 116 545090 1.11 99.91 989 1.99962 44.842 12788.56725 276072.03270469
25	566891 25061 116 545090 1.11 99.91 989 -9.98491e-05 2.2236 378.91407583429 426.48444183007
26	591952 17510 116 545090 1.11 99.91 989 3 3 2967 8901
27	609462 25996 116 545090 1.11 99.91 989 -1.79531 0.26622 -25.43731024934 61.862251438642
28	635458 26014 116 545090 1.11 99.91 989 -2.38145 0.325549 -24.271596487868 76.90003005074
29	661472 23271 116 545090 1.11 99.91 989 26.7245 30.56 29211.3268 864215.83462158
30	684743 23334 116 545090 1.11 99.91 989 48.0304 2966.23 1510989.396 3023642383.9587
31	708077 22455 116 545090 1.11 99.91 989 242.45 245.75 239948.05 58215953.472499
32	730532 22222 117 545091 1.11 99.91 989 -1 44.1477 6777.12964 103722.69393625
33	752754 23319 117 545091 1.11 99.91 989 -4.12144e-05 5 410.78177819734 1579.1766485037
34	776073 17510 117 545091 1.11 99.91 989 4 4 3956 15824
35	793583 26312 117 545091 1.11 99.91 989 -1.35918 0.102917 -25.562567606142 34.583520427432
36	819895 26302 117 545091 1.11 99.91 989 -1.5 0.103284 -24.686499980206 42.233323087796
37	846197 22529 117 545091 1.11 99.91 989 27.9056 30.56 29218.2438 864298.19956556
38	868726 23344 117 545091 1.11 99.91 989 42.0304 2960.93 1500945.7515 2992544225.4832
39	892070 22455 117 545091 1.11 99.91 989 242.45 252.35 241829.05 59143035.012501
40	914525 23077 118 545092 1.11 99.91 989 -1 54.462 14828.479 487796.03919014
41	937602 24868 118 545092 1.11 99.91 989 -2.3658 4.77196 41.209668155028 530.83482226802
42	962470 17510 118 545092 1.11 99.91 989 5 5 4945 24725
43	979980 25806 118 545092 1.11 99.91 989 -0.974233 1.4715 14.437829735254 72.964478455615
44	1005786 25727 118 545092 1.11 99.91 989 -1.11706 1.5 14.85166407167 89.076892215005
45	1031513 23337 118 545092 1.11 99.91 989 28.2222 32.102 29559.685 884446.28115454
46	1054850 23327 118 545092 1.11 99.91 989 36.0304 2988.87 1493439.6218 2974917444.2256
47	1078177 22455 118 545092 1.11 99.91 989 242.45 249.05 240987.55 58725310.4525
48	1100632 23286 119 545093 1.11 99.91 989 1.9995 74.6466 15349.0435 480446.96870273
49	1123918 25133 119 545093 1.11 99.91 989 -3.4025 1.85 32.935644772048 360.37849839854
50	1149051 17510 119 545093 1.11 99.91 989 6 6 5934 35604
51	1166561 25608 119 545093 1.11 99.91 989 -1.39525 1.34929 -8.7547724747 90.229947097796
52	1192169 25569 119 545093 1.11 99.91 989 -1.52006 1.5 -7.95231855566 115.53047746042
53	1217738 23347 119 545093 1.11 99.91 989 26.7019 31.4025 29191.7425 862883.06941819
54	1241085 23287 119 545093 1.11 99.91 989 30.0304 2946.19 1477874.9729 2913608262.9743
55	1264372 22455 119 545093 1.11 99.91 989 242.45 249.05 240169.15 58324809.2525
56	1286827 21915 120 545094 1.11 99.91 989 -1 9.90027 4113.01799 34394.285872345
57	1308742 23061 120 545094 1.11 99.91 989 -0.000186994 0.284542 79.008265223815 15.773075834307
58	1331803 17510 120 545094 1.11 99.91 989 7 7 6923 48461
59	1349313 26117 120 545094 1.11 99.91 989 -0.531989 1.34662 24.439500206772 36.402526676971
60	1375430 26087 120 545094 1.11 99.91 989 -0.625499 1.5 24.874905735314 45.693970465836
61	1401517 22515 120 545094 1.11 99.91 989 28.1551 33.0933 30312.2213 931541.74318783
62	1424032 23349 120 545094 1.11 99.91 989 24.0304 3052.07 1484739.6423 2973094715.9169
63	1447381 22455 120 545094 1.11 99.91 989 242.45 252.35 241944.55 59202013.9325
64	1469836 40002 771 545193 1.240521540375 99.940516072395 988 0.099987440288 0.100009579916 98.799994972326 9.8799990056002
65	1509838 27275 771 545193 1.240521540375 99.940516072395 988 4 4 3952 15808
66	1537113 40007 831 545271 1.241802600416 99.941810714562 988 0.099987440286 0.100009574188 98.800008554451 9.8800017221865
67	1577120 27261 831 545271 1.241802600416 99.941810714562 988 1 1 988 988
68	1604381 40007 831 545271 1.241802600416 99.941810714562 988 0.099987440286 0.100009574188 98.800008554451 9.8800017221865
69	1644388 27261 831 545271 1.241802600416 99.941810714562 988 1 1 988 988
70	1671649 39985 837 545265 1.24180262043 99.941810673608 988 0.099987440286 0.10000957419 98.800008493483 9.8800017099929
71	1711634 27263 837 545265 1.24180262043 99.941810673608 988 2 2 1976 3952
72	1738897 39984 843 545283 1.241802640443 99.941810836659 988 0.099987440286 0.100009574191 98.80000863652 9.8800017386003
73	1778881 27269 843 545283 1.241802640443 99.941810836659 988 3 3 2964 8892
74	1806150 40004 849 545289 1.241802660457 99.941810854949 988 0.099987440286 0.100009574196 98.800008634797 9.8800017382557
75	1846154 27261 849 545289 1.241802660457 99.941810854949 988 4 4 3952 15808
76	1873415 39978 855 545277 1.241802680471 99.941810761375 988 0.099987440286 0.100009574203 98.800008521209 9.8800017155381
77	1913393 27270 855 545277 1.241802680471 99.941810761375 988 5 5 4940 24700
78	1940663 40008 861 545295 1.241802700485 99.941810903419 988 0.099987440286 0.100009574213 98.800008643239 9.8800017399441
79	1980671 27264 861 545295 1.241802700485 99.941810903419 988 6 6 5928 35568
80	2007935 40020 867 545259 1.241802720499 99.941810550214 988 0.099987440286 0.100009574227 98.80000827002 9.8800016653003
81	2047955 27270 867 545259 1.241802720499 99.941810550214 988 7 7 6916 48412
82	2075225 40034 905 545345 1.262739640444 99.962734836725 988 0.099987440287 0.100009564259 98.799995636586 9.8799991387054
83	2115259 27296 905 545345 1.262739640444 99.962734836725 988 3 3 2964 8892
84	2142555 39983 971 545417 1.266698700486 99.966693906416 988 0.099987440288 0.100009583112 98.799995646235 9.8799991406035
85	2182538 27271 971 545417 1.266698700486 99.966693906416 988 6 6 5928 35568
86	2209809 40038 1039 545461 1.281915780541 99.981923852801 988 0.099987440287 0.100009545356 98.800008512565 9.8800017137691
87	2249847 27295 1039 545461 1.281915780541 99.981923852801 988 2 2 1976 3952
88	2277142 39971 1105 545539 1.287382840583 99.987378045213 988 0.099987440287 0.100009583117 98.799995644935 9.8799991404215
89	2317113 27245 1105 545539 1.287382840583 99.987378045213 988 5 5 4940 24700
90	2344358 40018 1171 545623 1.289456880611 99.989452354934 988 0.099987440287 0.100009583127 98.799995914628 9.8799991942824
91	2384376 27285 1171 545623 1.289456880611 99.989452354934 988 7 7 6916 48412
92	2411661 1459 5026 545632 2 100 99 0 0 0 0
93	2413120 2068 5026 545632 2 100 99 0.022473 0.026131612024 2.471607612024 0.061713206212973
94	2415188 1459 5026 545632 2 100 99 0 0 0 0
95	2416647 1459 5027 545633 2 100 99 1 1 99 99
96	2418106 2068 5027 545633 2 100 99 0.022473 0.025898 2.471214092734 0.061693024960037
97	2420174 1459 5027 545633 2 100 99 0 0 0 0
98	2421633 1459 5028 545634 2 100 99 2 2 198 396
99	2423092 2068 5028 545634 2 100 99 0.022473 0.025898 2.471214185864 0.061693029637983
100	2425160 1558 5028 545634 2 100 99 0 0 0 0
101	2426718 1558 5029 545635 2 100 99 3 3 297 891
102	2428276 2167 5029 545635 2 100 99 0.022473 0.025898 2.471214279104 0.061693034321472
103	2430443 1558 5029 545635 2 100 99 0 0 0 0
104	2432001 1558 5030 545636 2 100 99 4 4 396 1584
105	2433559 2167 5030 545636 2 100 99 0.022473 0.025898 2.471214372362 0.061693039005882
106	2435726 1558 5030 545636 2 100 99 0 0 0 0
107	2437284 1558 5031 545637 2 100 99 5 5 495 2475
108	2438842 2167 5031 545637 2 100 99 0.022473 0.025898 2.471214465668 0.06169304369272
109	2441009 1558 5031 545637 2 100 99 0 0 0 0
110	2442567 1558 5032 545638 2 100 99 6 6 594 3564
111	2444125 2167 5032 545638 2 100 99 0.022473 0.025898 2.471214558964 0.061693048379074
112	2446292 1558 5032 545638 2 100 99 0 0 0 0
113	2447850 1558 5033 545639 2 100 99 7 7 693 4851
114	2449408 2167 5033 545639 2 100 99 0.022473 0.025931652278 2.471214652278 0.061693107986867
115	2451575 1558 5033 545639 2 100 99 0 0 0 0

