version 3
run BreakRanksNoGui-23-20240710-05:48:53-233933
attr configname BreakRanksNoGui
attr datetime 20240710-05:48:53
attr datetimef 20240710-054853
attr experiment BreakRanksNoGui
attr inifile omnetpp.ini
attr iterationvars "$nCars=8, $platoonSize=8, $nLanes=1, $ploegH=0.5, $controller=1, $headway=0.1, $leaderHeadway=1.2, $leaderSpeed=110, $breakRanksSafetyDistance=10, $minSpeed=100, $maxSpeed=120, $beaconInterval=0.1, $priority=4, $packetSize=200, $sController=\"CACC\", $0=2, $1=0"
attr iterationvarsd nCars=8/platoonSize=8/nLanes=1/ploegH=0.5/controller=1/headway=0.1/leaderHeadway=1.2/leaderSpeed=110/breakRanksSafetyDistance=10/minSpeed=100/maxSpeed=120/beaconInterval=0.1/priority=4/packetSize=200/sController=CACC/2/0
attr iterationvarsf nCars=8,platoonSize=8,nLanes=1,ploegH=0.5,controller=1,headway=0.1,leaderHeadway=1.2,leaderSpeed=110,breakRanksSafetyDistance=10,minSpeed=100,maxSpeed=120,beaconInterval=0.1,priority=4,packetSize=200,sController=CACC,2,0-
attr measurement "$nCars=8, $platoonSize=8, $nLanes=1, $ploegH=0.5, $controller=1, $headway=0.1, $leaderHeadway=1.2, $leaderSpeed=110, $breakRanksSafetyDistance=10, $minSpeed=100, $maxSpeed=120, $beaconInterval=0.1, $priority=4, $packetSize=200, $sController=\"CACC\", $0=2, $1=0"
attr network Highway
attr processid 233933
attr repetition 3
attr replication #3
attr resultdir results
attr runnumber 23
attr seedset 3
itervar beaconInterval 0.1
itervar breakRanksSafetyDistance 10
itervar controller 1
itervar headway 0.1
itervar leaderHeadway 1.2
itervar leaderSpeed 110
itervar maxSpeed 120
itervar minSpeed 100
itervar nCars 8
itervar nLanes 1
itervar packetSize 200
itervar platoonSize 8
itervar ploegH 0.5
itervar priority 4
itervar sController "\"CACC\""
config image-path ../../../veins/images
config repeat 10
config extends BreakRanks
config *.manager.command "\"sumo\""
config *.manager.ignoreGuiCommands true
config output-vector-file results/BreakRanks_1_0.1_110_10/result_3.vec
config output-scalar-file results/BreakRanks_1_0.1_110_10/result_3.sca
config extends Platooning
config *.node[*].scenario_type "\"BreakRanksScenario\""
config *.manager.command "\"sumo-gui\""
config *.node[*].scenario_type "\"SimpleScenario\""
config cmdenv-express-mode true
config cmdenv-autoflush true
config cmdenv-status-frequency 15s
config num-rngs 6
config network Highway
config debug-on-errors true
config print-undisposed true
config *.playgroundSizeX 65000m
config *.playgroundSizeY 25000m
config *.playgroundSizeZ 50m
config sim-time-limit "100 s"
config *.annotations.draw false
config *.obstacles.debug false
config *.world.useTorus false
config *.world.use2D false
config *.manager.updateInterval 0.01s
config *.manager.host "\"localhost\""
config *.manager.moduleType "\"org.car2x.plexe.PlatoonCar\""
config *.manager.moduleName "\"node\""
config *.manager.moduleDisplayString "\"\""
config *.manager.autoShutdown true
config *.manager.margin 25
config *.connectionManager.sendDirect true
config *.connectionManager.maxInterfDist 2600m
config *.connectionManager.drawMaxIntfDist false
config *.**.nic.mac1609_4.useServiceChannel false
config *.**.nic.mac1609_4.txPower 100mW
config *.**.nic.mac1609_4.bitrate 6Mbps
config *.**.nic.mac1609_4.useAcks true
config *.**.nic.mac1609_4.ackErrorRate 0.0
config *.**.nic.mac1609_4.frameErrorRate 0.0
config *.**.nic.phy80211p.minPowerLevel -94dBm
config *.**.nic.phy80211p.maxTXPower 100mW
config *.**.nic.phy80211p.useNoiseFloor true
config *.**.nic.phy80211p.noiseFloor -95dBm
config *.**.nic.phy80211p.decider "xmldoc(\"config.xml\")"
config *.**.nic.phy80211p.analogueModels "xmldoc(\"config.xml\")"
config *.**.nic.phy80211p.usePropagationDelay true
config *.node[*].mobility.x 0
config *.node[*].mobility.y 0
config *.node[*].mobility.z 1.895
config seed-set 3
config **.seed 3
config *.node[*].prot.rng-0 2
config *.node[*].appl.rng-0 3
config *.node[*].scenario.rng-0 4
config **.traffic.rng-0 5
config *.manager.configFile "\"./sumocfg/freeway.sumo.cfg\""
config *.manager.launchConfig "xmldoc(\"./sumocfg/freeway.launchd.xml\")"
config **.numberOfCars 8
config **.numberOfCarsPerPlatoon 8
config **.numberOfLanes 1
config *.node[*].helper_type "\"PositionHelper\""
config *.node[*].scenario.caccC1 0.5
config *.node[*].scenario.caccXi 1
config *.node[*].scenario.caccOmegaN "0.2 Hz"
config *.node[*].scenario.caccSpacing "2 m"
config *.node[*].scenario.engineTau "0.5 s"
config *.node[*].scenario.ploegH 0.5s
config *.node[*].scenario.ploegKp 0.2
config *.node[*].scenario.ploegKd 0.7
config *.node[*].scenario.useRealisticEngine false
config *.node[*].scenario.useControllerAcceleration true
config *.node[*].scenario.nLanes 1
config **.numericController 1
config **.headway 0.1s
config *.node[*].scenario.accHeadway 0.1s
config *.node[*].scenario.leaderHeadway 1.2s
config *.node[*].scenario.leaderSpeed 110kmph
config *.node[*].appl_type "\"SimplePlatooningApp\""
config *.node[*].appl.*.scalar-recording true
config *.node[*].appl.*.vector-recording true
config *.node[0].appl.breakRanksSafetyDistance 10m
config *.node[*].appl.minSpeed 100kmph
config *.node[*].appl.maxSpeed 120kmph
config *.node[*].protocol_type "\"SimplePlatooningBeaconing\""
config *.node[*].prot.*.scalar-recording true
config *.node[*].prot.*.vector-recording true
config *.node[*].prot.beaconingInterval 0.1s
config *.node[*].prot.priority 4
config *.node[*].prot.packetSize 200
config **.traffic_type "\"PlatoonsTrafficManager\""
config **.traffic.platoonInsertTime "1 s"
config **.traffic.platoonInsertSpeed 110kmph
config **.traffic.nCars 8
config **.traffic.platoonSize 8
config **.traffic.nLanes 1
config **.traffic.platooningVType "\"vtypeauto\""
config **.traffic.controller "\"CACC\""
config **.traffic.platoonInsertDistance 2m
config **.traffic.platoonInsertHeadway 0s
config **.traffic.platoonLeaderHeadway 1.2s
config **.scalar-recording false
config **.vector-recording false

vector 0 Highway.node[0].appl distance ETV
vector 1 Highway.node[0].appl relativeSpeed ETV
vector 2 Highway.node[0].appl nodeId ETV
vector 3 Highway.node[0].appl acceleration ETV
vector 4 Highway.node[0].appl controllerAcceleration ETV
vector 5 Highway.node[0].appl speed ETV
vector 6 Highway.node[0].appl posx ETV
vector 7 Highway.node[0].appl posy ETV
vector 8 Highway.node[1].appl distance ETV
vector 9 Highway.node[1].appl relativeSpeed ETV
vector 10 Highway.node[1].appl nodeId ETV
vector 11 Highway.node[1].appl acceleration ETV
vector 12 Highway.node[1].appl controllerAcceleration ETV
vector 13 Highway.node[1].appl speed ETV
vector 14 Highway.node[1].appl posx ETV
vector 15 Highway.node[1].appl posy ETV
vector 16 Highway.node[2].appl distance ETV
vector 17 Highway.node[2].appl relativeSpeed ETV
vector 18 Highway.node[2].appl nodeId ETV
vector 19 Highway.node[2].appl acceleration ETV
vector 20 Highway.node[2].appl controllerAcceleration ETV
vector 21 Highway.node[2].appl speed ETV
vector 22 Highway.node[2].appl posx ETV
vector 23 Highway.node[2].appl posy ETV
vector 24 Highway.node[3].appl distance ETV
vector 25 Highway.node[3].appl relativeSpeed ETV
vector 26 Highway.node[3].appl nodeId ETV
vector 27 Highway.node[3].appl acceleration ETV
vector 28 Highway.node[3].appl controllerAcceleration ETV
vector 29 Highway.node[3].appl speed ETV
vector 30 Highway.node[3].appl posx ETV
vector 31 Highway.node[3].appl posy ETV
vector 32 Highway.node[4].appl distance ETV
vector 33 Highway.node[4].appl relativeSpeed ETV
vector 34 Highway.node[4].appl nodeId ETV
vector 35 Highway.node[4].appl acceleration ETV
vector 36 Highway.node[4].appl controllerAcceleration ETV
vector 37 Highway.node[4].appl speed ETV
vector 38 Highway.node[4].appl posx ETV
vector 39 Highway.node[4].appl posy ETV
vector 40 Highway.node[5].appl distance ETV
vector 41 Highway.node[5].appl relativeSpeed ETV
vector 42 Highway.node[5].appl nodeId ETV
vector 43 Highway.node[5].appl acceleration ETV
vector 44 Highway.node[5].appl controllerAcceleration ETV
vector 45 Highway.node[5].appl speed ETV
vector 46 Highway.node[5].appl posx ETV
vector 47 Highway.node[5].appl posy ETV
vector 48 Highway.node[6].appl distance ETV
vector 49 Highway.node[6].appl relativeSpeed ETV
vector 50 Highway.node[6].appl nodeId ETV
vector 51 Highway.node[6].appl acceleration ETV
vector 52 Highway.node[6].appl controllerAcceleration ETV
vector 53 Highway.node[6].appl speed ETV
vector 54 Highway.node[6].appl posx ETV
vector 55 Highway.node[6].appl posy ETV
vector 56 Highway.node[7].appl distance ETV
vector 57 Highway.node[7].appl relativeSpeed ETV
vector 58 Highway.node[7].appl nodeId ETV
vector 59 Highway.node[7].appl acceleration ETV
vector 60 Highway.node[7].appl controllerAcceleration ETV
vector 61 Highway.node[7].appl speed ETV
vector 62 Highway.node[7].appl posx ETV
vector 63 Highway.node[7].appl posy ETV
vector 64 Highway.node[1].prot leaderDelay ETV
vector 65 Highway.node[1].prot leaderDelayId ETV
vector 66 Highway.node[1].prot frontDelay ETV
vector 67 Highway.node[1].prot frontDelayId ETV
vector 68 Highway.node[2].prot leaderDelay ETV
vector 69 Highway.node[2].prot leaderDelayId ETV
vector 70 Highway.node[3].prot leaderDelay ETV
vector 71 Highway.node[3].prot leaderDelayId ETV
vector 72 Highway.node[4].prot leaderDelay ETV
vector 73 Highway.node[4].prot leaderDelayId ETV
vector 74 Highway.node[5].prot leaderDelay ETV
vector 75 Highway.node[5].prot leaderDelayId ETV
vector 76 Highway.node[6].prot leaderDelay ETV
vector 77 Highway.node[6].prot leaderDelayId ETV
vector 78 Highway.node[7].prot leaderDelay ETV
vector 79 Highway.node[7].prot leaderDelayId ETV
vector 80 Highway.node[7].prot frontDelay ETV
vector 81 Highway.node[7].prot frontDelayId ETV
vector 82 Highway.node[2].prot frontDelay ETV
vector 83 Highway.node[2].prot frontDelayId ETV
vector 84 Highway.node[5].prot frontDelay ETV
vector 85 Highway.node[5].prot frontDelayId ETV
vector 86 Highway.node[3].prot frontDelay ETV
vector 87 Highway.node[3].prot frontDelayId ETV
vector 88 Highway.node[6].prot frontDelay ETV
vector 89 Highway.node[6].prot frontDelayId ETV
vector 90 Highway.node[4].prot frontDelay ETV
vector 91 Highway.node[4].prot frontDelayId ETV
vector 92 Highway.node[0].prot nodeId ETV
vector 93 Highway.node[0].prot busyTime ETV
vector 94 Highway.node[0].prot collisions ETV
vector 95 Highway.node[1].prot nodeId ETV
vector 96 Highway.node[1].prot busyTime ETV
vector 97 Highway.node[1].prot collisions ETV
vector 98 Highway.node[2].prot nodeId ETV
vector 99 Highway.node[2].prot busyTime ETV
vector 100 Highway.node[2].prot collisions ETV
vector 101 Highway.node[3].prot nodeId ETV
vector 102 Highway.node[3].prot busyTime ETV
vector 103 Highway.node[3].prot collisions ETV
vector 104 Highway.node[4].prot nodeId ETV
vector 105 Highway.node[4].prot busyTime ETV
vector 106 Highway.node[4].prot collisions ETV
vector 107 Highway.node[5].prot nodeId ETV
vector 108 Highway.node[5].prot busyTime ETV
vector 109 Highway.node[5].prot collisions ETV
vector 110 Highway.node[6].prot nodeId ETV
vector 111 Highway.node[6].prot busyTime ETV
vector 112 Highway.node[6].prot collisions ETV
vector 113 Highway.node[7].prot nodeId ETV
vector 114 Highway.node[7].prot busyTime ETV
vector 115 Highway.node[7].prot collisions ETV
0	113	1.11	-1
0	659	1.21	-1
0	1205	1.31	-1
0	1751	1.41	-1
0	2297	1.51	-1
0	2843	1.61	-1
0	3389	1.71	-1
0	3935	1.81	-1
0	4481	1.91	-1
0	5035	2.01	-1
0	5581	2.11	-1
0	6127	2.21	-1
0	6673	2.31	-1
0	7219	2.41	-1
0	7765	2.51	-1
0	8311	2.61	-1
0	8857	2.71	-1
0	9403	2.81	-1
0	9949	2.91	-1
0	10503	3.01	-1
0	11049	3.11	-1
0	11595	3.21	-1
0	12141	3.31	-1
0	12687	3.41	-1
0	13233	3.51	-1
0	13779	3.61	-1
0	14325	3.71	-1
0	14871	3.81	-1
0	15417	3.91	-1
0	15971	4.01	-1
0	16517	4.11	-1
0	17063	4.21	-1
0	17609	4.31	-1
0	18155	4.41	-1
0	18701	4.51	-1
0	19247	4.61	-1
0	19793	4.71	-1
0	20339	4.81	-1
0	20885	4.91	-1
0	21439	5.01	-1
0	21985	5.11	-1
0	22531	5.21	-1
0	23077	5.31	-1
0	23623	5.41	-1
0	24169	5.51	-1
0	24715	5.61	-1
0	25261	5.71	-1
0	25807	5.81	-1
0	26353	5.91	-1
0	26907	6.01	-1
0	27453	6.11	-1
0	27999	6.21	-1
0	28545	6.31	-1
0	29091	6.41	-1
0	29637	6.51	-1
0	30183	6.61	-1
0	30729	6.71	-1
0	31275	6.81	-1
0	31821	6.91	-1
0	32375	7.01	-1
0	32921	7.11	-1
0	33467	7.21	-1
0	34013	7.31	-1
0	34559	7.41	-1
0	35105	7.51	-1
0	35651	7.61	-1
0	36197	7.71	-1
0	36743	7.81	-1
0	37289	7.91	-1
0	37843	8.01	-1
0	38389	8.11	-1
0	38935	8.21	-1
0	39481	8.31	-1
0	40027	8.41	-1
0	40573	8.51	-1
0	41119	8.61	-1
0	41665	8.71	-1
0	42211	8.81	-1
0	42757	8.91	-1
0	43311	9.01	-1
0	43857	9.11	-1
0	44403	9.21	-1
0	44949	9.31	-1
0	45495	9.41	-1
0	46041	9.51	-1
0	46587	9.61	-1
0	47133	9.71	-1
0	47679	9.81	-1
0	48225	9.91	-1
0	48853	10.01	-1
0	49406	10.11	-1
0	49959	10.21	-1
0	50512	10.31	-1
0	51065	10.41	-1
0	51618	10.51	-1
0	52171	10.61	-1
0	52724	10.71	-1
0	53277	10.81	-1
0	53830	10.91	-1
0	54391	11.01	-1
0	54944	11.11	-1
0	55497	11.21	-1
0	56050	11.31	-1
0	56603	11.41	-1
0	57156	11.51	-1
0	57709	11.61	-1
0	58262	11.71	-1
0	58815	11.81	-1
0	59368	11.91	-1
0	59929	12.01	-1
0	60482	12.11	-1
0	61035	12.21	-1
0	61588	12.31	-1
0	62141	12.41	-1
0	62694	12.51	-1
0	63247	12.61	-1
0	63800	12.71	-1
0	64353	12.81	-1
0	64906	12.91	-1
0	65467	13.01	-1
0	66020	13.11	-1
0	66573	13.21	-1
0	67126	13.31	-1
0	67679	13.41	-1
0	68232	13.51	-1
0	68785	13.61	-1
0	69338	13.71	-1
0	69891	13.81	-1
0	70444	13.91	-1
0	71005	14.01	-1
0	71558	14.11	-1
0	72111	14.21	-1
0	72664	14.31	-1
0	73217	14.41	-1
0	73770	14.51	-1
0	74323	14.61	-1
0	74876	14.71	-1
0	75429	14.81	-1
0	75982	14.91	-1
0	76543	15.01	-1
0	77096	15.11	-1
0	77649	15.21	-1
0	78202	15.31	-1
0	78755	15.41	-1
0	79308	15.51	-1
0	79861	15.61	-1
0	80414	15.71	-1
0	80967	15.81	-1
0	81520	15.91	-1
0	82081	16.01	-1
0	82634	16.11	-1
0	83187	16.21	-1
0	83740	16.31	-1
0	84293	16.41	-1
0	84846	16.51	-1
0	85399	16.61	-1
0	85952	16.71	-1
0	86505	16.81	-1
0	87058	16.91	-1
0	87619	17.01	-1
0	88172	17.11	-1
0	88725	17.21	-1
0	89278	17.31	-1
0	89831	17.41	-1
0	90384	17.51	-1
0	90937	17.61	-1
0	91490	17.71	-1
0	92043	17.81	-1
0	92596	17.91	-1
0	93157	18.01	-1
0	93710	18.11	-1
0	94263	18.21	-1
0	94816	18.31	-1
0	95369	18.41	-1
0	95922	18.51	-1
0	96475	18.61	-1
0	97028	18.71	-1
0	97581	18.81	-1
0	98134	18.91	-1
0	98695	19.01	-1
0	99248	19.11	-1
0	99801	19.21	-1
0	100354	19.31	-1
0	100907	19.41	-1
0	101460	19.51	-1
0	102013	19.61	-1
0	102566	19.71	-1
0	103119	19.81	-1
0	103672	19.91	-1
0	104233	20.01	-1
0	104786	20.11	-1
0	105339	20.21	-1
0	105892	20.31	-1
0	106445	20.41	-1
0	106998	20.51	-1
0	107551	20.61	-1
0	108104	20.71	-1
0	108657	20.81	-1
0	109210	20.91	-1
0	109771	21.01	-1
0	110324	21.11	-1
0	110877	21.21	-1
0	111430	21.31	-1
0	111983	21.41	-1
0	112536	21.51	-1
0	113089	21.61	-1
0	113642	21.71	-1
0	114195	21.81	-1
0	114748	21.91	-1
0	115309	22.01	-1
0	115862	22.11	-1
0	116415	22.21	-1
0	116968	22.31	-1
0	117521	22.41	-1
0	118074	22.51	-1
0	118627	22.61	-1
0	119180	22.71	-1
0	119733	22.81	-1
0	120286	22.91	-1
0	120847	23.01	-1
0	121400	23.11	-1
0	121953	23.21	-1
0	122506	23.31	-1
0	123059	23.41	-1
0	123612	23.51	-1
0	124165	23.61	-1
0	124718	23.71	-1
0	125271	23.81	-1
0	125824	23.91	-1
0	126385	24.01	-1
0	126938	24.11	-1
0	127491	24.21	-1
0	128044	24.31	-1
0	128597	24.41	-1
0	129150	24.51	-1
0	129703	24.61	-1
0	130256	24.71	-1
0	130809	24.81	-1
0	131362	24.91	-1
0	131923	25.01	-1
0	132476	25.11	-1
0	133029	25.21	-1
0	133582	25.31	-1
0	134135	25.41	-1
0	134688	25.51	-1
0	135241	25.61	-1
0	135794	25.71	-1
0	136347	25.81	-1
0	136900	25.91	-1
0	137461	26.01	-1
0	138014	26.11	-1
0	138567	26.21	-1
0	139120	26.31	-1
0	139673	26.41	-1
0	140226	26.51	-1
0	140779	26.61	-1
0	141332	26.71	-1
0	141885	26.81	-1
0	142438	26.91	-1
0	142999	27.01	-1
0	143552	27.11	-1
0	144105	27.21	-1
0	144658	27.31	-1
0	145211	27.41	-1
0	145764	27.51	-1
0	146317	27.61	-1
0	146870	27.71	-1
0	147423	27.81	-1
0	147976	27.91	-1
0	148537	28.01	-1
0	149090	28.11	-1
0	149643	28.21	-1
0	150196	28.31	-1
0	150749	28.41	-1
0	151302	28.51	-1
0	151855	28.61	-1
0	152408	28.71	-1
0	152961	28.81	-1
0	153514	28.91	-1
0	154075	29.01	-1
0	154628	29.11	-1
0	155181	29.21	-1
0	155734	29.31	-1
0	156287	29.41	-1
0	156840	29.51	-1
0	157393	29.61	-1
0	157946	29.71	-1
0	158499	29.81	-1
0	159052	29.91	-1
0	159613	30.01	-1
0	160166	30.11	-1
0	160719	30.21	-1
0	161272	30.31	-1
0	161825	30.41	-1
0	162378	30.51	-1
0	162931	30.61	-1
0	163484	30.71	-1
0	164037	30.81	-1
0	164590	30.91	-1
0	165151	31.01	-1
0	165704	31.11	-1
0	166257	31.21	-1
0	166810	31.31	-1
0	167363	31.41	-1
0	167916	31.51	-1
0	168469	31.61	-1
0	169022	31.71	-1
0	169575	31.81	-1
0	170128	31.91	-1
0	170689	32.01	-1
0	171242	32.11	-1
0	171795	32.21	-1
0	172348	32.31	-1
0	172901	32.41	-1
0	173454	32.51	-1
0	174007	32.61	-1
0	174560	32.71	-1
0	175113	32.81	-1
0	175666	32.91	-1
0	176227	33.01	-1
0	176780	33.11	-1
0	177333	33.21	-1
0	177886	33.31	-1
0	178439	33.41	-1
0	178992	33.51	-1
0	179545	33.61	-1
0	180098	33.71	-1
0	180651	33.81	-1
0	181204	33.91	-1
0	181765	34.01	-1
0	182318	34.11	-1
0	182871	34.21	-1
0	183424	34.31	-1
0	183977	34.41	-1
0	184530	34.51	-1
0	185083	34.61	-1
0	185636	34.71	-1
0	186189	34.81	-1
0	186742	34.91	-1
0	187303	35.01	-1
0	187856	35.11	-1
0	188409	35.21	-1
0	188962	35.31	-1
0	189515	35.41	-1
0	190068	35.51	-1
0	190621	35.61	-1
0	191174	35.71	-1
0	191727	35.81	-1
0	192280	35.91	-1
0	192841	36.01	-1
0	193394	36.11	-1
0	193947	36.21	-1
0	194500	36.31	-1
0	195053	36.41	-1
0	195606	36.51	-1
0	196159	36.61	-1
0	196712	36.71	-1
0	197265	36.81	-1
0	197818	36.91	-1
0	198379	37.01	-1
0	198932	37.11	-1
0	199485	37.21	-1
0	200038	37.31	-1
0	200591	37.41	-1
0	201144	37.51	-1
0	201697	37.61	-1
0	202250	37.71	-1
0	202803	37.81	-1
0	203356	37.91	-1
0	203917	38.01	-1
0	204470	38.11	-1
0	205023	38.21	-1
0	205576	38.31	-1
0	206129	38.41	-1
0	206682	38.51	-1
0	207235	38.61	-1
0	207788	38.71	-1
0	208341	38.81	-1
0	208894	38.91	-1
0	209455	39.01	-1
0	210008	39.11	-1
0	210561	39.21	-1
0	211114	39.31	-1
0	211667	39.41	-1
0	212220	39.51	-1
0	212773	39.61	-1
0	213326	39.71	-1
0	213879	39.81	-1
0	214432	39.91	-1
0	214993	40.01	-1
0	215546	40.11	-1
0	216099	40.21	-1
0	216652	40.31	-1
0	217205	40.41	-1
0	217758	40.51	-1
0	218311	40.61	-1
0	218864	40.71	-1
0	219417	40.81	-1
0	219970	40.91	-1
0	220531	41.01	-1
0	221084	41.11	-1
0	221637	41.21	-1
0	222190	41.31	-1
0	222743	41.41	-1
0	223296	41.51	-1
0	223849	41.61	-1
0	224402	41.71	-1
0	224955	41.81	-1
0	225508	41.91	-1
0	226069	42.01	-1
0	226622	42.11	-1
0	227175	42.21	-1
0	227728	42.31	-1
0	228281	42.41	-1
0	228834	42.51	-1
0	229387	42.61	-1
0	230033	42.71	-1
0	230585	42.81	-1
0	231137	42.91	-1
0	231697	43.01	-1
0	232249	43.11	-1
0	232801	43.21	-1
0	233353	43.31	-1
0	233905	43.41	-1
0	234457	43.51	-1
0	235009	43.61	-1
0	235561	43.71	-1
0	236113	43.81	-1
0	236665	43.91	-1
0	237225	44.01	-1
0	237777	44.11	-1
0	238329	44.21	-1
0	238881	44.31	-1
0	239433	44.41	-1
0	239985	44.51	-1
0	240537	44.61	-1
0	241089	44.71	-1
0	241641	44.81	-1
0	242193	44.91	-1
0	242753	45.01	-1
0	243305	45.11	-1
0	243857	45.21	-1
0	244409	45.31	-1
0	244961	45.41	-1
0	245513	45.51	-1
0	246065	45.61	-1
0	246617	45.71	-1
0	247169	45.81	-1
0	247721	45.91	-1
0	248281	46.01	-1
0	248833	46.11	-1
0	249385	46.21	-1
0	249937	46.31	-1
0	250489	46.41	-1
0	251041	46.51	-1
0	251593	46.61	-1
0	252145	46.71	-1
0	252697	46.81	-1
0	253249	46.91	-1
0	253809	47.01	-1
0	254361	47.11	-1
0	254913	47.21	-1
0	255465	47.31	-1
0	256017	47.41	-1
0	256569	47.51	-1
0	257121	47.61	-1
0	257673	47.71	-1
0	258225	47.81	-1
0	258777	47.91	-1
0	259337	48.01	-1
0	259889	48.11	-1
0	260441	48.21	-1
0	260993	48.31	-1
0	261545	48.41	-1
0	262190	48.51	-1
0	262741	48.61	-1
0	263292	48.71	-1
0	263843	48.81	-1
0	264394	48.91	-1
0	264953	49.01	-1
0	265504	49.11	-1
0	266055	49.21	-1
0	266606	49.31	-1
0	267157	49.41	-1
0	267708	49.51	-1
0	268259	49.61	-1
0	268810	49.71	-1
0	269361	49.81	-1
0	269912	49.91	-1
0	270471	50.01	-1
0	271022	50.11	-1
0	271573	50.21	-1
0	272124	50.31	-1
0	272675	50.41	-1
0	273226	50.51	-1
0	273777	50.61	-1
0	274328	50.71	-1
0	274879	50.81	-1
0	275430	50.91	-1
0	275989	51.01	-1
0	276540	51.11	-1
0	277091	51.21	-1
0	277642	51.31	-1
0	278193	51.41	-1
0	278744	51.51	-1
0	279295	51.61	-1
0	279846	51.71	-1
0	280397	51.81	-1
0	280948	51.91	-1
0	281507	52.01	-1
0	282058	52.11	-1
0	282609	52.21	-1
0	283160	52.31	-1
0	283711	52.41	-1
0	284262	52.51	-1
0	284813	52.61	-1
0	285364	52.71	-1
0	285915	52.81	-1
0	286466	52.91	-1
0	287025	53.01	-1
0	287576	53.11	-1
0	288127	53.21	-1
0	288678	53.31	-1
0	289229	53.41	-1
0	289780	53.51	-1
0	290331	53.61	-1
0	290882	53.71	-1
0	291526	53.81	-1
0	292076	53.91	-1
0	292634	54.01	-1
0	293184	54.11	-1
0	293734	54.21	-1
0	294284	54.31	-1
0	294834	54.41	-1
0	295384	54.51	-1
0	295934	54.61	-1
0	296484	54.71	-1
0	297034	54.81	-1
0	297584	54.91	-1
0	298142	55.01	-1
0	298692	55.11	-1
0	299242	55.21	-1
0	299792	55.31	-1
0	300342	55.41	-1
0	300892	55.51	-1
0	301442	55.61	-1
0	301992	55.71	-1
0	302542	55.81	-1
0	303092	55.91	-1
0	303650	56.01	-1
0	304200	56.11	-1
0	304750	56.21	-1
0	305300	56.31	-1
0	305850	56.41	-1
0	306400	56.51	-1
0	306950	56.61	-1
0	307500	56.71	-1
0	308050	56.81	-1
0	308600	56.91	-1
0	309158	57.01	-1
0	309708	57.11	-1
0	310258	57.21	-1
0	310808	57.31	-1
0	311358	57.41	-1
0	311908	57.51	-1
0	312458	57.61	-1
0	313008	57.71	-1
0	313558	57.81	-1
0	314108	57.91	-1
0	314666	58.01	-1
0	315216	58.11	-1
0	315766	58.21	-1
0	316316	58.31	-1
0	316866	58.41	-1
0	317416	58.51	-1
0	317966	58.61	-1
0	318609	58.71	-1
0	319158	58.81	-1
0	319707	58.91	-1
0	320264	59.01	-1
0	320813	59.11	-1
0	321362	59.21	-1
0	321911	59.31	-1
0	322460	59.41	-1
0	323009	59.51	-1
0	323558	59.61	-1
0	324107	59.71	-1
0	324656	59.81	-1
0	325205	59.91	-1
0	325762	60.01	-1
0	326311	60.11	-1
0	326860	60.21	-1
0	327409	60.31	-1
0	327958	60.41	-1
0	328507	60.51	-1
0	329056	60.61	-1
0	329605	60.71	-1
0	330154	60.81	-1
0	330703	60.91	-1
0	331260	61.01	-1
0	331809	61.11	-1
0	332358	61.21	-1
0	332907	61.31	-1
0	333456	61.41	-1
0	334005	61.51	-1
0	334554	61.61	-1
0	335103	61.71	-1
0	335652	61.81	-1
0	336201	61.91	-1
0	336758	62.01	-1
0	337307	62.11	-1
0	337856	62.21	-1
0	338405	62.31	-1
0	338954	62.41	-1
0	339503	62.51	-1
0	340052	62.61	-1
0	340601	62.71	-1
0	341150	62.81	-1
0	341699	62.91	-1
0	342256	63.01	-1
0	342805	63.11	-1
0	343354	63.21	-1
0	343996	63.31	-1
0	344544	63.41	-1
0	345092	63.51	-1
0	345640	63.61	-1
0	346188	63.71	-1
0	346736	63.81	-1
0	347284	63.91	-1
0	347840	64.01	-1
0	348388	64.11	-1
0	348936	64.21	-1
0	349484	64.31	-1
0	350032	64.41	-1
0	350580	64.51	-1
0	351128	64.61	-1
0	351676	64.71	-1
0	352224	64.81	-1
0	352772	64.91	-1
0	353328	65.01	-1
0	353876	65.11	-1
0	354424	65.21	-1
0	354972	65.31	-1
0	355520	65.41	-1
0	356068	65.51	-1
0	356616	65.61	-1
0	357164	65.71	-1
0	357712	65.81	-1
0	358260	65.91	-1
0	358816	66.01	-1
0	359364	66.11	-1
0	359912	66.21	-1
0	360460	66.31	-1
0	361008	66.41	-1
0	361556	66.51	-1
0	362104	66.61	-1
0	362652	66.71	-1
0	363200	66.81	-1
0	363748	66.91	-1
0	364304	67.01	-1
0	364852	67.11	-1
0	365400	67.21	-1
0	365948	67.31	-1
0	366496	67.41	-1
0	367044	67.51	-1
0	367592	67.61	-1
0	368233	67.71	-1
0	368780	67.81	-1
0	369327	67.91	-1
0	369882	68.01	-1
0	370429	68.11	-1
0	370976	68.21	-1
0	371523	68.31	-1
0	372070	68.41	-1
0	372617	68.51	-1
0	373164	68.61	-1
0	373711	68.71	-1
0	374258	68.81	-1
0	374805	68.91	-1
0	375360	69.01	-1
0	375907	69.11	-1
0	376454	69.21	-1
0	377001	69.31	-1
0	377548	69.41	-1
0	378095	69.51	-1
0	378642	69.61	-1
0	379189	69.71	-1
0	379736	69.81	-1
0	380283	69.91	-1
0	380838	70.01	-1
0	381385	70.11	-1
0	381932	70.21	-1
0	382479	70.31	-1
0	383026	70.41	-1
0	383573	70.51	-1
0	384120	70.61	-1
0	384667	70.71	-1
0	385214	70.81	-1
0	385761	70.91	-1
0	386316	71.01	-1
0	386863	71.11	-1
0	387410	71.21	-1
0	387957	71.31	-1
0	388504	71.41	-1
0	389051	71.51	-1
0	389598	71.61	-1
0	390145	71.71	-1
0	390692	71.81	-1
0	391239	71.91	-1
0	391794	72.01	-1
0	393085	72.11	-1
0	393631	72.21	-1
0	394177	72.31	-1
0	394723	72.41	-1
0	395269	72.51	-1
0	395815	72.61	-1
0	396361	72.71	-1
0	396907	72.81	-1
0	397453	72.91	-1
0	398007	73.01	-1
0	398553	73.11	-1
0	399099	73.21	-1
0	399645	73.31	-1
0	400191	73.41	-1
0	400737	73.51	-1
0	401283	73.61	-1
0	401829	73.71	-1
0	402375	73.81	-1
0	402921	73.91	-1
0	403475	74.01	-1
0	404021	74.11	-1
0	404567	74.21	-1
0	405113	74.31	-1
0	405659	74.41	-1
0	406205	74.51	-1
0	406751	74.61	-1
0	407297	74.71	-1
0	407843	74.81	-1
0	408389	74.91	-1
0	408943	75.01	-1
0	409489	75.11	-1
0	410035	75.21	-1
0	410581	75.31	-1
0	411127	75.41	-1
0	411673	75.51	-1
0	412219	75.61	-1
0	412765	75.71	-1
0	413311	75.81	-1
0	413857	75.91	-1
0	414411	76.01	-1
0	414957	76.11	-1
0	415503	76.21	-1
0	416049	76.31	-1
0	416595	76.41	-1
0	417141	76.51	-1
0	417687	76.61	-1
0	418233	76.71	-1
0	418779	76.81	-1
0	419325	76.91	-1
0	419879	77.01	-1
0	420425	77.11	-1
0	420971	77.21	-1
0	421517	77.31	-1
0	422063	77.41	-1
0	422609	77.51	-1
0	423155	77.61	-1
0	423701	77.71	-1
0	424247	77.81	-1
0	424793	77.91	-1
0	425347	78.01	-1
0	425893	78.11	-1
0	426439	78.21	-1
0	426985	78.31	-1
0	427531	78.41	-1
0	428077	78.51	-1
0	428623	78.61	-1
0	429169	78.71	-1
0	429715	78.81	-1
0	430261	78.91	-1
0	430815	79.01	-1
0	431361	79.11	-1
0	431907	79.21	-1
0	432453	79.31	-1
0	432999	79.41	-1
0	433545	79.51	-1
0	434091	79.61	-1
0	434637	79.71	-1
0	435183	79.81	-1
0	435729	79.91	-1
0	436283	80.01	-1
0	436829	80.11	-1
0	437375	80.21	-1
0	437921	80.31	-1
0	438467	80.41	-1
0	439013	80.51	-1
0	439559	80.61	-1
0	440105	80.71	-1
0	440651	80.81	-1
0	441197	80.91	-1
0	441751	81.01	-1
0	442297	81.11	-1
0	442843	81.21	-1
0	443389	81.31	-1
0	443935	81.41	-1
0	444481	81.51	-1
0	445027	81.61	-1
0	445573	81.71	-1
0	446119	81.81	-1
0	446665	81.91	-1
0	447219	82.01	-1
0	447765	82.11	-1
0	448311	82.21	-1
0	448857	82.31	-1
0	449403	82.41	-1
0	449949	82.51	-1
0	450495	82.61	-1
0	451041	82.71	-1
0	451587	82.81	-1
0	452133	82.91	-1
0	452687	83.01	-1
0	453233	83.11	-1
0	453779	83.21	-1
0	454325	83.31	-1
0	454871	83.41	-1
0	455417	83.51	-1
0	455963	83.61	-1
0	456509	83.71	-1
0	457055	83.81	-1
0	457601	83.91	-1
0	458155	84.01	-1
0	458701	84.11	-1
0	459247	84.21	-1
0	459793	84.31	-1
0	460339	84.41	-1
0	460885	84.51	-1
0	461431	84.61	-1
0	461977	84.71	-1
0	462523	84.81	-1
0	463069	84.91	-1
0	463623	85.01	-1
0	464169	85.11	-1
0	464715	85.21	-1
0	465261	85.31	-1
0	465807	85.41	-1
0	466353	85.51	-1
0	466899	85.61	-1
0	467445	85.71	-1
0	467991	85.81	-1
0	468537	85.91	-1
0	469091	86.01	-1
0	469637	86.11	-1
0	470183	86.21	-1
0	470729	86.31	-1
0	471275	86.41	-1
0	471821	86.51	-1
0	472367	86.61	-1
0	472913	86.71	-1
0	473459	86.81	-1
0	474005	86.91	-1
0	474559	87.01	-1
0	475105	87.11	-1
0	475651	87.21	-1
0	476197	87.31	-1
0	476743	87.41	-1
0	477289	87.51	-1
0	477835	87.61	-1
0	478381	87.71	-1
0	478927	87.81	-1
0	479473	87.91	-1
0	480027	88.01	-1
0	480573	88.11	-1
0	481119	88.21	-1
0	481665	88.31	-1
0	482211	88.41	-1
0	482757	88.51	-1
0	483303	88.61	-1
0	483849	88.71	-1
0	484395	88.81	-1
0	484941	88.91	-1
0	485495	89.01	-1
0	486041	89.11	-1
0	486587	89.21	-1
0	487133	89.31	-1
0	487679	89.41	-1
0	488225	89.51	-1
0	488771	89.61	-1
0	489317	89.71	-1
0	489863	89.81	-1
0	490409	89.91	-1
0	490963	90.01	-1
0	491509	90.11	-1
0	492055	90.21	-1
0	492601	90.31	-1
0	493147	90.41	-1
0	493693	90.51	-1
0	494239	90.61	-1
0	494785	90.71	-1
0	495331	90.81	-1
0	495877	90.91	-1
0	496431	91.01	-1
0	496977	91.11	-1
0	497523	91.21	-1
0	498069	91.31	-1
0	498615	91.41	-1
0	499161	91.51	-1
0	499707	91.61	-1
0	500253	91.71	-1
0	500799	91.81	-1
0	501345	91.91	-1
0	501899	92.01	-1
0	502445	92.11	-1
0	502991	92.21	-1
0	503537	92.31	-1
0	504083	92.41	-1
0	504629	92.51	-1
0	505175	92.61	-1
0	505721	92.71	-1
0	506267	92.81	-1
0	506813	92.91	-1
0	507367	93.01	-1
0	507913	93.11	-1
0	508459	93.21	-1
0	509005	93.31	-1
0	509551	93.41	-1
0	510097	93.51	-1
0	510643	93.61	-1
0	511189	93.71	-1
0	511735	93.81	-1
0	512281	93.91	-1
0	512835	94.01	-1
0	513381	94.11	-1
0	513927	94.21	-1
0	514473	94.31	-1
0	515019	94.41	-1
0	515565	94.51	-1
0	516111	94.61	-1
0	516657	94.71	-1
0	517203	94.81	-1
0	517749	94.91	-1
0	518303	95.01	-1
0	518849	95.11	-1
0	519395	95.21	-1
0	519941	95.31	-1
0	520487	95.41	-1
0	521033	95.51	-1
0	521579	95.61	-1
0	522125	95.71	-1
0	522671	95.81	-1
0	523217	95.91	-1
0	523771	96.01	-1
0	524317	96.11	-1
0	524863	96.21	-1
0	525409	96.31	-1
0	525955	96.41	-1
0	526501	96.51	-1
0	527047	96.61	-1
0	527593	96.71	-1
0	528139	96.81	-1
0	528685	96.91	-1
0	529239	97.01	-1
0	529785	97.11	-1
0	530331	97.21	-1
0	530877	97.31	-1
0	531423	97.41	-1
0	531969	97.51	-1
0	532515	97.61	-1
0	533061	97.71	-1
0	533607	97.81	-1
0	534153	97.91	-1
0	534707	98.01	-1
0	535253	98.11	-1
0	535799	98.21	-1
0	536345	98.31	-1
0	536891	98.41	-1
0	537437	98.51	-1
0	537983	98.61	-1
0	538529	98.71	-1
0	539075	98.81	-1
0	539621	98.91	-1
0	540175	99.01	-1
0	540721	99.11	-1
0	541267	99.21	-1
0	541813	99.31	-1
0	542359	99.41	-1
0	542905	99.51	-1
0	543451	99.61	-1
0	543997	99.71	-1
0	544543	99.81	-1
0	545089	99.91	-1
1	113	1.11	0
1	659	1.21	0
1	1205	1.31	0
1	1751	1.41	0
1	2297	1.51	0
1	2843	1.61	0
1	3389	1.71	0
1	3935	1.81	0
1	4481	1.91	0
1	5035	2.01	0
1	5581	2.11	0
1	6127	2.21	0
1	6673	2.31	0
1	7219	2.41	0
1	7765	2.51	0
1	8311	2.61	0
1	8857	2.71	0
1	9403	2.81	0
1	9949	2.91	0
1	10503	3.01	0
1	11049	3.11	0
1	11595	3.21	0
1	12141	3.31	0
1	12687	3.41	0
1	13233	3.51	0
1	13779	3.61	0
1	14325	3.71	0
1	14871	3.81	0
1	15417	3.91	0
1	15971	4.01	0
1	16517	4.11	0
1	17063	4.21	0
1	17609	4.31	0
1	18155	4.41	0
1	18701	4.51	0
1	19247	4.61	0
1	19793	4.71	0
1	20339	4.81	0
1	20885	4.91	0
1	21439	5.01	0
1	21985	5.11	0
1	22531	5.21	0
1	23077	5.31	0
1	23623	5.41	0
1	24169	5.51	0
1	24715	5.61	0
1	25261	5.71	0
1	25807	5.81	0
1	26353	5.91	0
1	26907	6.01	0
1	27453	6.11	0
1	27999	6.21	0
1	28545	6.31	0
1	29091	6.41	0
1	29637	6.51	0
1	30183	6.61	0
1	30729	6.71	0
1	31275	6.81	0
1	31821	6.91	0
1	32375	7.01	0
1	32921	7.11	0
1	33467	7.21	0
1	34013	7.31	0
1	34559	7.41	0
1	35105	7.51	0
1	35651	7.61	0
1	36197	7.71	0
1	36743	7.81	0
1	37289	7.91	0
1	37843	8.01	0
1	38389	8.11	0
1	38935	8.21	0
1	39481	8.31	0
1	40027	8.41	0
1	40573	8.51	0
1	41119	8.61	0
1	41665	8.71	0
1	42211	8.81	0
1	42757	8.91	0
1	43311	9.01	0
1	43857	9.11	0
1	44403	9.21	0
1	44949	9.31	0
1	45495	9.41	0
1	46041	9.51	0
1	46587	9.61	0
1	47133	9.71	0
1	47679	9.81	0
1	48225	9.91	0
1	48853	10.01	0
1	49406	10.11	0
1	49959	10.21	0
1	50512	10.31	0
1	51065	10.41	0
1	51618	10.51	0
1	52171	10.61	0
1	52724	10.71	0
1	53277	10.81	0
1	53830	10.91	0
1	54391	11.01	0
1	54944	11.11	0
1	55497	11.21	0
1	56050	11.31	0
1	56603	11.41	0
1	57156	11.51	0
1	57709	11.61	0
1	58262	11.71	0
1	58815	11.81	0
1	59368	11.91	0
1	59929	12.01	0
1	60482	12.11	0
1	61035	12.21	0
1	61588	12.31	0
1	62141	12.41	0
1	62694	12.51	0
1	63247	12.61	0
1	63800	12.71	0
1	64353	12.81	0
1	64906	12.91	0
1	65467	13.01	0
1	66020	13.11	0
1	66573	13.21	0
1	67126	13.31	0
1	67679	13.41	0
1	68232	13.51	0
1	68785	13.61	0
1	69338	13.71	0
1	69891	13.81	0
1	70444	13.91	0
1	71005	14.01	0
1	71558	14.11	0
1	72111	14.21	0
1	72664	14.31	0
1	73217	14.41	0
1	73770	14.51	0
1	74323	14.61	0
1	74876	14.71	0
1	75429	14.81	0
1	75982	14.91	0
1	76543	15.01	0
1	77096	15.11	0
1	77649	15.21	0
1	78202	15.31	0
1	78755	15.41	0
1	79308	15.51	0
1	79861	15.61	0
1	80414	15.71	0
1	80967	15.81	0
1	81520	15.91	0
1	82081	16.01	0
1	82634	16.11	0
1	83187	16.21	0
1	83740	16.31	0
1	84293	16.41	0
1	84846	16.51	0
1	85399	16.61	0
1	85952	16.71	0
1	86505	16.81	0
1	87058	16.91	0
1	87619	17.01	0
1	88172	17.11	0
1	88725	17.21	0
1	89278	17.31	0
1	89831	17.41	0
1	90384	17.51	0
1	90937	17.61	0
1	91490	17.71	0
1	92043	17.81	0
1	92596	17.91	0
1	93157	18.01	0
1	93710	18.11	0
1	94263	18.21	0
1	94816	18.31	0
1	95369	18.41	0
1	95922	18.51	0
1	96475	18.61	0
1	97028	18.71	0
1	97581	18.81	0
1	98134	18.91	0
1	98695	19.01	0
1	99248	19.11	0
1	99801	19.21	0
1	100354	19.31	0
1	100907	19.41	0
1	101460	19.51	0
1	102013	19.61	0
1	102566	19.71	0
1	103119	19.81	0
1	103672	19.91	0
1	104233	20.01	0
1	104786	20.11	0
1	105339	20.21	0
1	105892	20.31	0
1	106445	20.41	0
1	106998	20.51	0
1	107551	20.61	0
1	108104	20.71	0
1	108657	20.81	0
1	109210	20.91	0
1	109771	21.01	0
1	110324	21.11	0
1	110877	21.21	0
1	111430	21.31	0
1	111983	21.41	0
1	112536	21.51	0
1	113089	21.61	0
1	113642	21.71	0
1	114195	21.81	0
1	114748	21.91	0
1	115309	22.01	0
1	115862	22.11	0
1	116415	22.21	0
1	116968	22.31	0
1	117521	22.41	0
1	118074	22.51	0
1	118627	22.61	0
1	119180	22.71	0
1	119733	22.81	0
1	120286	22.91	0
1	120847	23.01	0
1	121400	23.11	0
1	121953	23.21	0
1	122506	23.31	0
1	123059	23.41	0
1	123612	23.51	0
1	124165	23.61	0
1	124718	23.71	0
1	125271	23.81	0
1	125824	23.91	0
1	126385	24.01	0
1	126938	24.11	0
1	127491	24.21	0
1	128044	24.31	0
1	128597	24.41	0
1	129150	24.51	0
1	129703	24.61	0
1	130256	24.71	0
1	130809	24.81	0
1	131362	24.91	0
1	131923	25.01	0
1	132476	25.11	0
1	133029	25.21	0
1	133582	25.31	0
1	134135	25.41	0
1	134688	25.51	0
1	135241	25.61	0
1	135794	25.71	0
1	136347	25.81	0
1	136900	25.91	0
1	137461	26.01	0
1	138014	26.11	0
1	138567	26.21	0
1	139120	26.31	0
1	139673	26.41	0
1	140226	26.51	0
1	140779	26.61	0
1	141332	26.71	0
1	141885	26.81	0
1	142438	26.91	0
1	142999	27.01	0
1	143552	27.11	0
1	144105	27.21	0
1	144658	27.31	0
1	145211	27.41	0
1	145764	27.51	0
1	146317	27.61	0
1	146870	27.71	0
1	147423	27.81	0
1	147976	27.91	0
1	148537	28.01	0
1	149090	28.11	0
1	149643	28.21	0
1	150196	28.31	0
1	150749	28.41	0
1	151302	28.51	0
1	151855	28.61	0
1	152408	28.71	0
1	152961	28.81	0
1	153514	28.91	0
1	154075	29.01	0
1	154628	29.11	0
1	155181	29.21	0
1	155734	29.31	0
1	156287	29.41	0
1	156840	29.51	0
1	157393	29.61	0
1	157946	29.71	0
1	158499	29.81	0
1	159052	29.91	0
1	159613	30.01	0
1	160166	30.11	0
1	160719	30.21	0
1	161272	30.31	0
1	161825	30.41	0
1	162378	30.51	0
1	162931	30.61	0
1	163484	30.71	0
1	164037	30.81	0
1	164590	30.91	0
1	165151	31.01	0
1	165704	31.11	0
1	166257	31.21	0
1	166810	31.31	0
1	167363	31.41	0
1	167916	31.51	0
1	168469	31.61	0
1	169022	31.71	0
1	169575	31.81	0
1	170128	31.91	0
1	170689	32.01	0
1	171242	32.11	0
1	171795	32.21	0
1	172348	32.31	0
1	172901	32.41	0
1	173454	32.51	0
1	174007	32.61	0
1	174560	32.71	0
1	175113	32.81	0
1	175666	32.91	0
1	176227	33.01	0
1	176780	33.11	0
1	177333	33.21	0
1	177886	33.31	0
1	178439	33.41	0
1	178992	33.51	0
1	179545	33.61	0
1	180098	33.71	0
1	180651	33.81	0
1	181204	33.91	0
1	181765	34.01	0
1	182318	34.11	0
1	182871	34.21	0
1	183424	34.31	0
1	183977	34.41	0
1	184530	34.51	0
1	185083	34.61	0
1	185636	34.71	0
1	186189	34.81	0
1	186742	34.91	0
1	187303	35.01	0
1	187856	35.11	0
1	188409	35.21	0
1	188962	35.31	0
1	189515	35.41	0
1	190068	35.51	0
1	190621	35.61	0
1	191174	35.71	0
1	191727	35.81	0
1	192280	35.91	0
1	192841	36.01	0
1	193394	36.11	0
1	193947	36.21	0
1	194500	36.31	0
1	195053	36.41	0
1	195606	36.51	0
1	196159	36.61	0
1	196712	36.71	0
1	197265	36.81	0
1	197818	36.91	0
1	198379	37.01	0
1	198932	37.11	0
1	199485	37.21	0
1	200038	37.31	0
1	200591	37.41	0
1	201144	37.51	0
1	201697	37.61	0
1	202250	37.71	0
1	202803	37.81	0
1	203356	37.91	0
1	203917	38.01	0
1	204470	38.11	0
1	205023	38.21	0
1	205576	38.31	0
1	206129	38.41	0
1	206682	38.51	0
1	207235	38.61	0
1	207788	38.71	0
1	208341	38.81	0
1	208894	38.91	0
1	209455	39.01	0
1	210008	39.11	0
1	210561	39.21	0
1	211114	39.31	0
1	211667	39.41	0
1	212220	39.51	0
1	212773	39.61	0
1	213326	39.71	0
1	213879	39.81	0
1	214432	39.91	0
1	214993	40.01	0
1	215546	40.11	0
1	216099	40.21	0
1	216652	40.31	0
1	217205	40.41	0
1	217758	40.51	0
1	218311	40.61	0
1	218864	40.71	0
1	219417	40.81	0
1	219970	40.91	0
1	220531	41.01	0
1	221084	41.11	0
1	221637	41.21	0
1	222190	41.31	0
1	222743	41.41	0
1	223296	41.51	0
1	223849	41.61	0
1	224402	41.71	0
1	224955	41.81	0
1	225508	41.91	0
1	226069	42.01	0
1	226622	42.11	0
1	227175	42.21	0
1	227728	42.31	0
1	228281	42.41	0
1	228834	42.51	0
1	229387	42.61	0
1	230033	42.71	0
1	230585	42.81	0
1	231137	42.91	0
1	231697	43.01	0
1	232249	43.11	0
1	232801	43.21	0
1	233353	43.31	0
1	233905	43.41	0
1	234457	43.51	0
1	235009	43.61	0
1	235561	43.71	0
1	236113	43.81	0
1	236665	43.91	0
1	237225	44.01	0
1	237777	44.11	0
1	238329	44.21	0
1	238881	44.31	0
1	239433	44.41	0
1	239985	44.51	0
1	240537	44.61	0
1	241089	44.71	0
1	241641	44.81	0
1	242193	44.91	0
1	242753	45.01	0
1	243305	45.11	0
1	243857	45.21	0
1	244409	45.31	0
1	244961	45.41	0
1	245513	45.51	0
1	246065	45.61	0
1	246617	45.71	0
1	247169	45.81	0
1	247721	45.91	0
1	248281	46.01	0
1	248833	46.11	0
1	249385	46.21	0
1	249937	46.31	0
1	250489	46.41	0
1	251041	46.51	0
1	251593	46.61	0
1	252145	46.71	0
1	252697	46.81	0
1	253249	46.91	0
1	253809	47.01	0
1	254361	47.11	0
1	254913	47.21	0
1	255465	47.31	0
1	256017	47.41	0
1	256569	47.51	0
1	257121	47.61	0
1	257673	47.71	0
1	258225	47.81	0
1	258777	47.91	0
1	259337	48.01	0
1	259889	48.11	0
1	260441	48.21	0
1	260993	48.31	0
1	261545	48.41	0
1	262190	48.51	0
1	262741	48.61	0
1	263292	48.71	0
1	263843	48.81	0
1	264394	48.91	0
1	264953	49.01	0
1	265504	49.11	0
1	266055	49.21	0
1	266606	49.31	0
1	267157	49.41	0
1	267708	49.51	0
1	268259	49.61	0
1	268810	49.71	0
1	269361	49.81	0
1	269912	49.91	0
1	270471	50.01	0
1	271022	50.11	0
1	271573	50.21	0
1	272124	50.31	0
1	272675	50.41	0
1	273226	50.51	0
1	273777	50.61	0
1	274328	50.71	0
1	274879	50.81	0
1	275430	50.91	0
1	275989	51.01	0
1	276540	51.11	0
1	277091	51.21	0
1	277642	51.31	0
1	278193	51.41	0
1	278744	51.51	0
1	279295	51.61	0
1	279846	51.71	0
1	280397	51.81	0
1	280948	51.91	0
1	281507	52.01	0
1	282058	52.11	0
1	282609	52.21	0
1	283160	52.31	0
1	283711	52.41	0
1	284262	52.51	0
1	284813	52.61	0
1	285364	52.71	0
1	285915	52.81	0
1	286466	52.91	0
1	287025	53.01	0
1	287576	53.11	0
1	288127	53.21	0
1	288678	53.31	0
1	289229	53.41	0
1	289780	53.51	0
1	290331	53.61	0
1	290882	53.71	0
1	291526	53.81	0
1	292076	53.91	0
1	292634	54.01	0
1	293184	54.11	0
1	293734	54.21	0
1	294284	54.31	0
1	294834	54.41	0
1	295384	54.51	0
1	295934	54.61	0
1	296484	54.71	0
1	297034	54.81	0
1	297584	54.91	0
1	298142	55.01	0
1	298692	55.11	0
1	299242	55.21	0
1	299792	55.31	0
1	300342	55.41	0
1	300892	55.51	0
1	301442	55.61	0
1	301992	55.71	0
1	302542	55.81	0
1	303092	55.91	0
1	303650	56.01	0
1	304200	56.11	0
1	304750	56.21	0
1	305300	56.31	0
1	305850	56.41	0
1	306400	56.51	0
1	306950	56.61	0
1	307500	56.71	0
1	308050	56.81	0
1	308600	56.91	0
1	309158	57.01	0
1	309708	57.11	0
1	310258	57.21	0
1	310808	57.31	0
1	311358	57.41	0
1	311908	57.51	0
1	312458	57.61	0
1	313008	57.71	0
1	313558	57.81	0
1	314108	57.91	0
1	314666	58.01	0
1	315216	58.11	0
1	315766	58.21	0
1	316316	58.31	0
1	316866	58.41	0
1	317416	58.51	0
1	317966	58.61	0
1	318609	58.71	0
1	319158	58.81	0
1	319707	58.91	0
1	320264	59.01	0
1	320813	59.11	0
1	321362	59.21	0
1	321911	59.31	0
1	322460	59.41	0
1	323009	59.51	0
1	323558	59.61	0
1	324107	59.71	0
1	324656	59.81	0
1	325205	59.91	0
1	325762	60.01	0
1	326311	60.11	0
1	326860	60.21	0
1	327409	60.31	0
1	327958	60.41	0
1	328507	60.51	0
1	329056	60.61	0
1	329605	60.71	0
1	330154	60.81	0
1	330703	60.91	0
1	331260	61.01	0
1	331809	61.11	0
1	332358	61.21	0
1	332907	61.31	0
1	333456	61.41	0
1	334005	61.51	0
1	334554	61.61	0
1	335103	61.71	0
1	335652	61.81	0
1	336201	61.91	0
1	336758	62.01	0
1	337307	62.11	0
1	337856	62.21	0
1	338405	62.31	0
1	338954	62.41	0
1	339503	62.51	0
1	340052	62.61	0
1	340601	62.71	0
1	341150	62.81	0
1	341699	62.91	0
1	342256	63.01	0
1	342805	63.11	0
1	343354	63.21	0
1	343996	63.31	0
1	344544	63.41	0
1	345092	63.51	0
1	345640	63.61	0
1	346188	63.71	0
1	346736	63.81	0
1	347284	63.91	0
1	347840	64.01	0
1	348388	64.11	0
1	348936	64.21	0
1	349484	64.31	0
1	350032	64.41	0
1	350580	64.51	0
1	351128	64.61	0
1	351676	64.71	0
1	352224	64.81	0
1	352772	64.91	0
1	353328	65.01	0
1	353876	65.11	0
1	354424	65.21	0
1	354972	65.31	0
1	355520	65.41	0
1	356068	65.51	0
1	356616	65.61	0
1	357164	65.71	0
1	357712	65.81	0
1	358260	65.91	0
1	358816	66.01	0
1	359364	66.11	0
1	359912	66.21	0
1	360460	66.31	0
1	361008	66.41	0
1	361556	66.51	0
1	362104	66.61	0
1	362652	66.71	0
1	363200	66.81	0
1	363748	66.91	0
1	364304	67.01	0
1	364852	67.11	0
1	365400	67.21	0
1	365948	67.31	0
1	366496	67.41	0
1	367044	67.51	0
1	367592	67.61	0
1	368233	67.71	0
1	368780	67.81	0
1	369327	67.91	0
1	369882	68.01	0
1	370429	68.11	0
1	370976	68.21	0
1	371523	68.31	0
1	372070	68.41	0
1	372617	68.51	0
1	373164	68.61	0
1	373711	68.71	0
1	374258	68.81	0
1	374805	68.91	0
1	375360	69.01	0
1	375907	69.11	0
1	376454	69.21	0
1	377001	69.31	0
1	377548	69.41	0
1	378095	69.51	0
1	378642	69.61	0
1	379189	69.71	0
1	379736	69.81	0
1	380283	69.91	0
1	380838	70.01	0
1	381385	70.11	0
1	381932	70.21	0
1	382479	70.31	0
1	383026	70.41	0
1	383573	70.51	0
1	384120	70.61	0
1	384667	70.71	0
1	385214	70.81	0
1	385761	70.91	0
1	386316	71.01	0
1	386863	71.11	0
1	387410	71.21	0
1	387957	71.31	0
1	388504	71.41	0
1	389051	71.51	0
1	389598	71.61	0
1	390145	71.71	0
1	390692	71.81	0
1	391239	71.91	0
1	391794	72.01	0
1	393085	72.11	0
1	393631	72.21	0
1	394177	72.31	0
1	394723	72.41	0
1	395269	72.51	0
1	395815	72.61	0
1	396361	72.71	0
1	396907	72.81	0
1	397453	72.91	0
1	398007	73.01	0
1	398553	73.11	0
1	399099	73.21	0
1	399645	73.31	0
1	400191	73.41	0
1	400737	73.51	0
1	401283	73.61	0
1	401829	73.71	0
1	402375	73.81	0
1	402921	73.91	0
1	403475	74.01	0
1	404021	74.11	0
1	404567	74.21	0
1	405113	74.31	0
1	405659	74.41	0
1	406205	74.51	0
1	406751	74.61	0
1	407297	74.71	0
1	407843	74.81	0
1	408389	74.91	0
1	408943	75.01	0
1	409489	75.11	0
1	410035	75.21	0
1	410581	75.31	0
1	411127	75.41	0
1	411673	75.51	0
1	412219	75.61	0
1	412765	75.71	0
1	413311	75.81	0
1	413857	75.91	0
1	414411	76.01	0
1	414957	76.11	0
1	415503	76.21	0
1	416049	76.31	0
1	416595	76.41	0
1	417141	76.51	0
1	417687	76.61	0
1	418233	76.71	0
1	418779	76.81	0
1	419325	76.91	0
1	419879	77.01	0
1	420425	77.11	0
1	420971	77.21	0
1	421517	77.31	0
1	422063	77.41	0
1	422609	77.51	0
1	423155	77.61	0
1	423701	77.71	0
1	424247	77.81	0
1	424793	77.91	0
1	425347	78.01	0
1	425893	78.11	0
1	426439	78.21	0
1	426985	78.31	0
1	427531	78.41	0
1	428077	78.51	0
1	428623	78.61	0
1	429169	78.71	0
1	429715	78.81	0
1	430261	78.91	0
1	430815	79.01	0
1	431361	79.11	0
1	431907	79.21	0
1	432453	79.31	0
1	432999	79.41	0
1	433545	79.51	0
1	434091	79.61	0
1	434637	79.71	0
1	435183	79.81	0
1	435729	79.91	0
1	436283	80.01	0
1	436829	80.11	0
1	437375	80.21	0
1	437921	80.31	0
1	438467	80.41	0
1	439013	80.51	0
1	439559	80.61	0
1	440105	80.71	0
1	440651	80.81	0
1	441197	80.91	0
1	441751	81.01	0
1	442297	81.11	0
1	442843	81.21	0
1	443389	81.31	0
1	443935	81.41	0
1	444481	81.51	0
1	445027	81.61	0
1	445573	81.71	0
1	446119	81.81	0
1	446665	81.91	0
1	447219	82.01	0
1	447765	82.11	0
1	448311	82.21	0
1	448857	82.31	0
1	449403	82.41	0
1	449949	82.51	0
1	450495	82.61	0
1	451041	82.71	0
1	451587	82.81	0
1	452133	82.91	0
1	452687	83.01	0
1	453233	83.11	0
1	453779	83.21	0
1	454325	83.31	0
1	454871	83.41	0
1	455417	83.51	0
1	455963	83.61	0
1	456509	83.71	0
1	457055	83.81	0
1	457601	83.91	0
1	458155	84.01	0
1	458701	84.11	0
1	459247	84.21	0
1	459793	84.31	0
1	460339	84.41	0
1	460885	84.51	0
1	461431	84.61	0
1	461977	84.71	0
1	462523	84.81	0
1	463069	84.91	0
1	463623	85.01	0
1	464169	85.11	0
1	464715	85.21	0
1	465261	85.31	0
1	465807	85.41	0
1	466353	85.51	0
1	466899	85.61	0
1	467445	85.71	0
1	467991	85.81	0
1	468537	85.91	0
1	469091	86.01	0
1	469637	86.11	0
1	470183	86.21	0
1	470729	86.31	0
1	471275	86.41	0
1	471821	86.51	0
1	472367	86.61	0
1	472913	86.71	0
1	473459	86.81	0
1	474005	86.91	0
1	474559	87.01	0
1	475105	87.11	0
1	475651	87.21	0
1	476197	87.31	0
1	476743	87.41	0
1	477289	87.51	0
1	477835	87.61	0
1	478381	87.71	0
1	478927	87.81	0
1	479473	87.91	0
1	480027	88.01	0
1	480573	88.11	0
1	481119	88.21	0
1	481665	88.31	0
1	482211	88.41	0
1	482757	88.51	0
1	483303	88.61	0
1	483849	88.71	0
1	484395	88.81	0
1	484941	88.91	0
1	485495	89.01	0
1	486041	89.11	0
1	486587	89.21	0
1	487133	89.31	0
1	487679	89.41	0
1	488225	89.51	0
1	488771	89.61	0
1	489317	89.71	0
1	489863	89.81	0
1	490409	89.91	0
1	490963	90.01	0
1	491509	90.11	0
1	492055	90.21	0
1	492601	90.31	0
1	493147	90.41	0
1	493693	90.51	0
1	494239	90.61	0
1	494785	90.71	0
1	495331	90.81	0
1	495877	90.91	0
1	496431	91.01	0
1	496977	91.11	0
1	497523	91.21	0
1	498069	91.31	0
1	498615	91.41	0
1	499161	91.51	0
1	499707	91.61	0
1	500253	91.71	0
1	500799	91.81	0
1	501345	91.91	0
1	501899	92.01	0
1	502445	92.11	0
1	502991	92.21	0
1	503537	92.31	0
1	504083	92.41	0
1	504629	92.51	0
1	505175	92.61	0
1	505721	92.71	0
1	506267	92.81	0
1	506813	92.91	0
1	507367	93.01	0
1	507913	93.11	0
1	508459	93.21	0
1	509005	93.31	0
1	509551	93.41	0
1	510097	93.51	0
1	510643	93.61	0
1	511189	93.71	0
1	511735	93.81	0
1	512281	93.91	0
1	512835	94.01	0
1	513381	94.11	0
1	513927	94.21	0
1	514473	94.31	0
1	515019	94.41	0
1	515565	94.51	0
1	516111	94.61	0
1	516657	94.71	0
1	517203	94.81	0
1	517749	94.91	0
1	518303	95.01	0
1	518849	95.11	0
1	519395	95.21	0
1	519941	95.31	0
1	520487	95.41	0
1	521033	95.51	0
1	521579	95.61	0
1	522125	95.71	0
1	522671	95.81	0
1	523217	95.91	0
1	523771	96.01	0
1	524317	96.11	0
1	524863	96.21	0
1	525409	96.31	0
1	525955	96.41	0
1	526501	96.51	0
1	527047	96.61	0
1	527593	96.71	0
1	528139	96.81	0
1	528685	96.91	0
1	529239	97.01	0
1	529785	97.11	0
1	530331	97.21	0
1	530877	97.31	0
1	531423	97.41	0
1	531969	97.51	0
1	532515	97.61	0
1	533061	97.71	0
1	533607	97.81	0
1	534153	97.91	0
1	534707	98.01	0
1	535253	98.11	0
1	535799	98.21	0
1	536345	98.31	0
1	536891	98.41	0
1	537437	98.51	0
1	537983	98.61	0
1	538529	98.71	0
1	539075	98.81	0
1	539621	98.91	0
1	540175	99.01	0
1	540721	99.11	0
1	541267	99.21	0
1	541813	99.31	0
1	542359	99.41	0
1	542905	99.51	0
1	543451	99.61	0
1	543997	99.71	0
1	544543	99.81	0
1	545089	99.91	0
2	113	1.11	0
2	659	1.21	0
2	1205	1.31	0
2	1751	1.41	0
2	2297	1.51	0
2	2843	1.61	0
2	3389	1.71	0
2	3935	1.81	0
2	4481	1.91	0
2	5035	2.01	0
2	5581	2.11	0
2	6127	2.21	0
2	6673	2.31	0
2	7219	2.41	0
2	7765	2.51	0
2	8311	2.61	0
2	8857	2.71	0
2	9403	2.81	0
2	9949	2.91	0
2	10503	3.01	0
2	11049	3.11	0
2	11595	3.21	0
2	12141	3.31	0
2	12687	3.41	0
2	13233	3.51	0
2	13779	3.61	0
2	14325	3.71	0
2	14871	3.81	0
2	15417	3.91	0
2	15971	4.01	0
2	16517	4.11	0
2	17063	4.21	0
2	17609	4.31	0
2	18155	4.41	0
2	18701	4.51	0
2	19247	4.61	0
2	19793	4.71	0
2	20339	4.81	0
2	20885	4.91	0
2	21439	5.01	0
2	21985	5.11	0
2	22531	5.21	0
2	23077	5.31	0
2	23623	5.41	0
2	24169	5.51	0
2	24715	5.61	0
2	25261	5.71	0
2	25807	5.81	0
2	26353	5.91	0
2	26907	6.01	0
2	27453	6.11	0
2	27999	6.21	0
2	28545	6.31	0
2	29091	6.41	0
2	29637	6.51	0
2	30183	6.61	0
2	30729	6.71	0
2	31275	6.81	0
2	31821	6.91	0
2	32375	7.01	0
2	32921	7.11	0
2	33467	7.21	0
2	34013	7.31	0
2	34559	7.41	0
2	35105	7.51	0
2	35651	7.61	0
2	36197	7.71	0
2	36743	7.81	0
2	37289	7.91	0
2	37843	8.01	0
2	38389	8.11	0
2	38935	8.21	0
2	39481	8.31	0
2	40027	8.41	0
2	40573	8.51	0
2	41119	8.61	0
2	41665	8.71	0
2	42211	8.81	0
2	42757	8.91	0
2	43311	9.01	0
2	43857	9.11	0
2	44403	9.21	0
2	44949	9.31	0
2	45495	9.41	0
2	46041	9.51	0
2	46587	9.61	0
2	47133	9.71	0
2	47679	9.81	0
2	48225	9.91	0
2	48853	10.01	0
2	49406	10.11	0
2	49959	10.21	0
2	50512	10.31	0
2	51065	10.41	0
2	51618	10.51	0
2	52171	10.61	0
2	52724	10.71	0
2	53277	10.81	0
2	53830	10.91	0
2	54391	11.01	0
2	54944	11.11	0
2	55497	11.21	0
2	56050	11.31	0
2	56603	11.41	0
2	57156	11.51	0
2	57709	11.61	0
2	58262	11.71	0
2	58815	11.81	0
2	59368	11.91	0
2	59929	12.01	0
2	60482	12.11	0
2	61035	12.21	0
2	61588	12.31	0
2	62141	12.41	0
2	62694	12.51	0
2	63247	12.61	0
2	63800	12.71	0
2	64353	12.81	0
2	64906	12.91	0
2	65467	13.01	0
2	66020	13.11	0
2	66573	13.21	0
2	67126	13.31	0
2	67679	13.41	0
2	68232	13.51	0
2	68785	13.61	0
2	69338	13.71	0
2	69891	13.81	0
2	70444	13.91	0
2	71005	14.01	0
2	71558	14.11	0
2	72111	14.21	0
2	72664	14.31	0
2	73217	14.41	0
2	73770	14.51	0
2	74323	14.61	0
2	74876	14.71	0
2	75429	14.81	0
2	75982	14.91	0
2	76543	15.01	0
2	77096	15.11	0
2	77649	15.21	0
2	78202	15.31	0
2	78755	15.41	0
2	79308	15.51	0
2	79861	15.61	0
2	80414	15.71	0
2	80967	15.81	0
2	81520	15.91	0
2	82081	16.01	0
2	82634	16.11	0
2	83187	16.21	0
2	83740	16.31	0
2	84293	16.41	0
2	84846	16.51	0
2	85399	16.61	0
2	85952	16.71	0
2	86505	16.81	0
2	87058	16.91	0
2	87619	17.01	0
2	88172	17.11	0
2	88725	17.21	0
2	89278	17.31	0
2	89831	17.41	0
2	90384	17.51	0
2	90937	17.61	0
2	91490	17.71	0
2	92043	17.81	0
2	92596	17.91	0
2	93157	18.01	0
2	93710	18.11	0
2	94263	18.21	0
2	94816	18.31	0
2	95369	18.41	0
2	95922	18.51	0
2	96475	18.61	0
2	97028	18.71	0
2	97581	18.81	0
2	98134	18.91	0
2	98695	19.01	0
2	99248	19.11	0
2	99801	19.21	0
2	100354	19.31	0
2	100907	19.41	0
2	101460	19.51	0
2	102013	19.61	0
2	102566	19.71	0
2	103119	19.81	0
2	103672	19.91	0
2	104233	20.01	0
2	104786	20.11	0
2	105339	20.21	0
2	105892	20.31	0
2	106445	20.41	0
2	106998	20.51	0
2	107551	20.61	0
2	108104	20.71	0
2	108657	20.81	0
2	109210	20.91	0
2	109771	21.01	0
2	110324	21.11	0
2	110877	21.21	0
2	111430	21.31	0
2	111983	21.41	0
2	112536	21.51	0
2	113089	21.61	0
2	113642	21.71	0
2	114195	21.81	0
2	114748	21.91	0
2	115309	22.01	0
2	115862	22.11	0
2	116415	22.21	0
2	116968	22.31	0
2	117521	22.41	0
2	118074	22.51	0
2	118627	22.61	0
2	119180	22.71	0
2	119733	22.81	0
2	120286	22.91	0
2	120847	23.01	0
2	121400	23.11	0
2	121953	23.21	0
2	122506	23.31	0
2	123059	23.41	0
2	123612	23.51	0
2	124165	23.61	0
2	124718	23.71	0
2	125271	23.81	0
2	125824	23.91	0
2	126385	24.01	0
2	126938	24.11	0
2	127491	24.21	0
2	128044	24.31	0
2	128597	24.41	0
2	129150	24.51	0
2	129703	24.61	0
2	130256	24.71	0
2	130809	24.81	0
2	131362	24.91	0
2	131923	25.01	0
2	132476	25.11	0
2	133029	25.21	0
2	133582	25.31	0
2	134135	25.41	0
2	134688	25.51	0
2	135241	25.61	0
2	135794	25.71	0
2	136347	25.81	0
2	136900	25.91	0
2	137461	26.01	0
2	138014	26.11	0
2	138567	26.21	0
2	139120	26.31	0
2	139673	26.41	0
2	140226	26.51	0
2	140779	26.61	0
2	141332	26.71	0
2	141885	26.81	0
2	142438	26.91	0
2	142999	27.01	0
2	143552	27.11	0
2	144105	27.21	0
2	144658	27.31	0
2	145211	27.41	0
2	145764	27.51	0
2	146317	27.61	0
2	146870	27.71	0
2	147423	27.81	0
2	147976	27.91	0
2	148537	28.01	0
2	149090	28.11	0
2	149643	28.21	0
2	150196	28.31	0
2	150749	28.41	0
2	151302	28.51	0
2	151855	28.61	0
2	152408	28.71	0
2	152961	28.81	0
2	153514	28.91	0
2	154075	29.01	0
2	154628	29.11	0
2	155181	29.21	0
2	155734	29.31	0
2	156287	29.41	0
2	156840	29.51	0
2	157393	29.61	0
2	157946	29.71	0
2	158499	29.81	0
2	159052	29.91	0
2	159613	30.01	0
2	160166	30.11	0
2	160719	30.21	0
2	161272	30.31	0
2	161825	30.41	0
2	162378	30.51	0
2	162931	30.61	0
2	163484	30.71	0
2	164037	30.81	0
2	164590	30.91	0
2	165151	31.01	0
2	165704	31.11	0
2	166257	31.21	0
2	166810	31.31	0
2	167363	31.41	0
2	167916	31.51	0
2	168469	31.61	0
2	169022	31.71	0
2	169575	31.81	0
2	170128	31.91	0
2	170689	32.01	0
2	171242	32.11	0
2	171795	32.21	0
2	172348	32.31	0
2	172901	32.41	0
2	173454	32.51	0
2	174007	32.61	0
2	174560	32.71	0
2	175113	32.81	0
2	175666	32.91	0
2	176227	33.01	0
2	176780	33.11	0
2	177333	33.21	0
2	177886	33.31	0
2	178439	33.41	0
2	178992	33.51	0
2	179545	33.61	0
2	180098	33.71	0
2	180651	33.81	0
2	181204	33.91	0
2	181765	34.01	0
2	182318	34.11	0
2	182871	34.21	0
2	183424	34.31	0
2	183977	34.41	0
2	184530	34.51	0
2	185083	34.61	0
2	185636	34.71	0
2	186189	34.81	0
2	186742	34.91	0
2	187303	35.01	0
2	187856	35.11	0
2	188409	35.21	0
2	188962	35.31	0
2	189515	35.41	0
2	190068	35.51	0
2	190621	35.61	0
2	191174	35.71	0
2	191727	35.81	0
2	192280	35.91	0
2	192841	36.01	0
2	193394	36.11	0
2	193947	36.21	0
2	194500	36.31	0
2	195053	36.41	0
2	195606	36.51	0
2	196159	36.61	0
2	196712	36.71	0
2	197265	36.81	0
2	197818	36.91	0
2	198379	37.01	0
2	198932	37.11	0
2	199485	37.21	0
2	200038	37.31	0
2	200591	37.41	0
2	201144	37.51	0
2	201697	37.61	0
2	202250	37.71	0
2	202803	37.81	0
2	203356	37.91	0
2	203917	38.01	0
2	204470	38.11	0
2	205023	38.21	0
2	205576	38.31	0
2	206129	38.41	0
2	206682	38.51	0
2	207235	38.61	0
2	207788	38.71	0
2	208341	38.81	0
2	208894	38.91	0
2	209455	39.01	0
2	210008	39.11	0
2	210561	39.21	0
2	211114	39.31	0
2	211667	39.41	0
2	212220	39.51	0
2	212773	39.61	0
2	213326	39.71	0
2	213879	39.81	0
2	214432	39.91	0
2	214993	40.01	0
2	215546	40.11	0
2	216099	40.21	0
2	216652	40.31	0
2	217205	40.41	0
2	217758	40.51	0
2	218311	40.61	0
2	218864	40.71	0
2	219417	40.81	0
2	219970	40.91	0
2	220531	41.01	0
2	221084	41.11	0
2	221637	41.21	0
2	222190	41.31	0
2	222743	41.41	0
2	223296	41.51	0
2	223849	41.61	0
2	224402	41.71	0
2	224955	41.81	0
2	225508	41.91	0
2	226069	42.01	0
2	226622	42.11	0
2	227175	42.21	0
2	227728	42.31	0
2	228281	42.41	0
2	228834	42.51	0
2	229387	42.61	0
2	230033	42.71	0
2	230585	42.81	0
2	231137	42.91	0
2	231697	43.01	0
2	232249	43.11	0
2	232801	43.21	0
2	233353	43.31	0
2	233905	43.41	0
2	234457	43.51	0
2	235009	43.61	0
2	235561	43.71	0
2	236113	43.81	0
2	236665	43.91	0
2	237225	44.01	0
2	237777	44.11	0
2	238329	44.21	0
2	238881	44.31	0
2	239433	44.41	0
2	239985	44.51	0
2	240537	44.61	0
2	241089	44.71	0
2	241641	44.81	0
2	242193	44.91	0
2	242753	45.01	0
2	243305	45.11	0
2	243857	45.21	0
2	244409	45.31	0
2	244961	45.41	0
2	245513	45.51	0
2	246065	45.61	0
2	246617	45.71	0
2	247169	45.81	0
2	247721	45.91	0
2	248281	46.01	0
2	248833	46.11	0
2	249385	46.21	0
2	249937	46.31	0
2	250489	46.41	0
2	251041	46.51	0
2	251593	46.61	0
2	252145	46.71	0
2	252697	46.81	0
2	253249	46.91	0
2	253809	47.01	0
2	254361	47.11	0
2	254913	47.21	0
2	255465	47.31	0
2	256017	47.41	0
2	256569	47.51	0
2	257121	47.61	0
2	257673	47.71	0
2	258225	47.81	0
2	258777	47.91	0
2	259337	48.01	0
2	259889	48.11	0
2	260441	48.21	0
2	260993	48.31	0
2	261545	48.41	0
2	262190	48.51	0
2	262741	48.61	0
2	263292	48.71	0
2	263843	48.81	0
2	264394	48.91	0
2	264953	49.01	0
2	265504	49.11	0
2	266055	49.21	0
2	266606	49.31	0
2	267157	49.41	0
2	267708	49.51	0
2	268259	49.61	0
2	268810	49.71	0
2	269361	49.81	0
2	269912	49.91	0
2	270471	50.01	0
2	271022	50.11	0
2	271573	50.21	0
2	272124	50.31	0
2	272675	50.41	0
2	273226	50.51	0
2	273777	50.61	0
2	274328	50.71	0
2	274879	50.81	0
2	275430	50.91	0
2	275989	51.01	0
2	276540	51.11	0
2	277091	51.21	0
2	277642	51.31	0
2	278193	51.41	0
2	278744	51.51	0
2	279295	51.61	0
2	279846	51.71	0
2	280397	51.81	0
2	280948	51.91	0
2	281507	52.01	0
2	282058	52.11	0
2	282609	52.21	0
2	283160	52.31	0
2	283711	52.41	0
2	284262	52.51	0
2	284813	52.61	0
2	285364	52.71	0
2	285915	52.81	0
2	286466	52.91	0
2	287025	53.01	0
2	287576	53.11	0
2	288127	53.21	0
2	288678	53.31	0
2	289229	53.41	0
2	289780	53.51	0
2	290331	53.61	0
2	290882	53.71	0
2	291526	53.81	0
2	292076	53.91	0
2	292634	54.01	0
2	293184	54.11	0
2	293734	54.21	0
2	294284	54.31	0
2	294834	54.41	0
2	295384	54.51	0
2	295934	54.61	0
2	296484	54.71	0
2	297034	54.81	0
2	297584	54.91	0
2	298142	55.01	0
2	298692	55.11	0
2	299242	55.21	0
2	299792	55.31	0
2	300342	55.41	0
2	300892	55.51	0
2	301442	55.61	0
2	301992	55.71	0
2	302542	55.81	0
2	303092	55.91	0
2	303650	56.01	0
2	304200	56.11	0
2	304750	56.21	0
2	305300	56.31	0
2	305850	56.41	0
2	306400	56.51	0
2	306950	56.61	0
2	307500	56.71	0
2	308050	56.81	0
2	308600	56.91	0
2	309158	57.01	0
2	309708	57.11	0
2	310258	57.21	0
2	310808	57.31	0
2	311358	57.41	0
2	311908	57.51	0
2	312458	57.61	0
2	313008	57.71	0
2	313558	57.81	0
2	314108	57.91	0
2	314666	58.01	0
2	315216	58.11	0
2	315766	58.21	0
2	316316	58.31	0
2	316866	58.41	0
2	317416	58.51	0
2	317966	58.61	0
2	318609	58.71	0
2	319158	58.81	0
2	319707	58.91	0
2	320264	59.01	0
2	320813	59.11	0
2	321362	59.21	0
2	321911	59.31	0
2	322460	59.41	0
2	323009	59.51	0
2	323558	59.61	0
2	324107	59.71	0
2	324656	59.81	0
2	325205	59.91	0
2	325762	60.01	0
2	326311	60.11	0
2	326860	60.21	0
2	327409	60.31	0
2	327958	60.41	0
2	328507	60.51	0
2	329056	60.61	0
2	329605	60.71	0
2	330154	60.81	0
2	330703	60.91	0
2	331260	61.01	0
2	331809	61.11	0
2	332358	61.21	0
2	332907	61.31	0
2	333456	61.41	0
2	334005	61.51	0
2	334554	61.61	0
2	335103	61.71	0
2	335652	61.81	0
2	336201	61.91	0
2	336758	62.01	0
2	337307	62.11	0
2	337856	62.21	0
2	338405	62.31	0
2	338954	62.41	0
2	339503	62.51	0
2	340052	62.61	0
2	340601	62.71	0
2	341150	62.81	0
2	341699	62.91	0
2	342256	63.01	0
2	342805	63.11	0
2	343354	63.21	0
2	343996	63.31	0
2	344544	63.41	0
2	345092	63.51	0
2	345640	63.61	0
2	346188	63.71	0
2	346736	63.81	0
2	347284	63.91	0
2	347840	64.01	0
2	348388	64.11	0
2	348936	64.21	0
2	349484	64.31	0
2	350032	64.41	0
2	350580	64.51	0
2	351128	64.61	0
2	351676	64.71	0
2	352224	64.81	0
2	352772	64.91	0
2	353328	65.01	0
2	353876	65.11	0
2	354424	65.21	0
2	354972	65.31	0
2	355520	65.41	0
2	356068	65.51	0
2	356616	65.61	0
2	357164	65.71	0
2	357712	65.81	0
2	358260	65.91	0
2	358816	66.01	0
2	359364	66.11	0
2	359912	66.21	0
2	360460	66.31	0
2	361008	66.41	0
2	361556	66.51	0
2	362104	66.61	0
2	362652	66.71	0
2	363200	66.81	0
2	363748	66.91	0
2	364304	67.01	0
2	364852	67.11	0
2	365400	67.21	0
2	365948	67.31	0
2	366496	67.41	0
2	367044	67.51	0
2	367592	67.61	0
2	368233	67.71	0
2	368780	67.81	0
2	369327	67.91	0
2	369882	68.01	0
2	370429	68.11	0
2	370976	68.21	0
2	371523	68.31	0
2	372070	68.41	0
2	372617	68.51	0
2	373164	68.61	0
2	373711	68.71	0
2	374258	68.81	0
2	374805	68.91	0
2	375360	69.01	0
2	375907	69.11	0
2	376454	69.21	0
2	377001	69.31	0
2	377548	69.41	0
2	378095	69.51	0
2	378642	69.61	0
2	379189	69.71	0
2	379736	69.81	0
2	380283	69.91	0
2	380838	70.01	0
2	381385	70.11	0
2	381932	70.21	0
2	382479	70.31	0
2	383026	70.41	0
2	383573	70.51	0
2	384120	70.61	0
2	384667	70.71	0
2	385214	70.81	0
2	385761	70.91	0
2	386316	71.01	0
2	386863	71.11	0
2	387410	71.21	0
2	387957	71.31	0
2	388504	71.41	0
2	389051	71.51	0
2	389598	71.61	0
2	390145	71.71	0
2	390692	71.81	0
2	391239	71.91	0
2	391794	72.01	0
2	393085	72.11	0
2	393631	72.21	0
2	394177	72.31	0
2	394723	72.41	0
2	395269	72.51	0
2	395815	72.61	0
2	396361	72.71	0
2	396907	72.81	0
2	397453	72.91	0
2	398007	73.01	0
2	398553	73.11	0
2	399099	73.21	0
2	399645	73.31	0
2	400191	73.41	0
2	400737	73.51	0
2	401283	73.61	0
2	401829	73.71	0
2	402375	73.81	0
2	402921	73.91	0
2	403475	74.01	0
2	404021	74.11	0
2	404567	74.21	0
2	405113	74.31	0
2	405659	74.41	0
2	406205	74.51	0
2	406751	74.61	0
2	407297	74.71	0
2	407843	74.81	0
2	408389	74.91	0
2	408943	75.01	0
2	409489	75.11	0
2	410035	75.21	0
2	410581	75.31	0
2	411127	75.41	0
2	411673	75.51	0
2	412219	75.61	0
2	412765	75.71	0
2	413311	75.81	0
2	413857	75.91	0
2	414411	76.01	0
2	414957	76.11	0
2	415503	76.21	0
2	416049	76.31	0
2	416595	76.41	0
2	417141	76.51	0
2	417687	76.61	0
2	418233	76.71	0
2	418779	76.81	0
2	419325	76.91	0
2	419879	77.01	0
2	420425	77.11	0
2	420971	77.21	0
2	421517	77.31	0
2	422063	77.41	0
2	422609	77.51	0
2	423155	77.61	0
2	423701	77.71	0
2	424247	77.81	0
2	424793	77.91	0
2	425347	78.01	0
2	425893	78.11	0
2	426439	78.21	0
2	426985	78.31	0
2	427531	78.41	0
2	428077	78.51	0
2	428623	78.61	0
2	429169	78.71	0
2	429715	78.81	0
2	430261	78.91	0
2	430815	79.01	0
2	431361	79.11	0
2	431907	79.21	0
2	432453	79.31	0
2	432999	79.41	0
2	433545	79.51	0
2	434091	79.61	0
2	434637	79.71	0
2	435183	79.81	0
2	435729	79.91	0
2	436283	80.01	0
2	436829	80.11	0
2	437375	80.21	0
2	437921	80.31	0
2	438467	80.41	0
2	439013	80.51	0
2	439559	80.61	0
2	440105	80.71	0
2	440651	80.81	0
2	441197	80.91	0
2	441751	81.01	0
2	442297	81.11	0
2	442843	81.21	0
2	443389	81.31	0
2	443935	81.41	0
2	444481	81.51	0
2	445027	81.61	0
2	445573	81.71	0
2	446119	81.81	0
2	446665	81.91	0
2	447219	82.01	0
2	447765	82.11	0
2	448311	82.21	0
2	448857	82.31	0
2	449403	82.41	0
2	449949	82.51	0
2	450495	82.61	0
2	451041	82.71	0
2	451587	82.81	0
2	452133	82.91	0
2	452687	83.01	0
2	453233	83.11	0
2	453779	83.21	0
2	454325	83.31	0
2	454871	83.41	0
2	455417	83.51	0
2	455963	83.61	0
2	456509	83.71	0
2	457055	83.81	0
2	457601	83.91	0
2	458155	84.01	0
2	458701	84.11	0
2	459247	84.21	0
2	459793	84.31	0
2	460339	84.41	0
2	460885	84.51	0
2	461431	84.61	0
2	461977	84.71	0
2	462523	84.81	0
2	463069	84.91	0
2	463623	85.01	0
2	464169	85.11	0
2	464715	85.21	0
2	465261	85.31	0
2	465807	85.41	0
2	466353	85.51	0
2	466899	85.61	0
2	467445	85.71	0
2	467991	85.81	0
2	468537	85.91	0
2	469091	86.01	0
2	469637	86.11	0
2	470183	86.21	0
2	470729	86.31	0
2	471275	86.41	0
2	471821	86.51	0
2	472367	86.61	0
2	472913	86.71	0
2	473459	86.81	0
2	474005	86.91	0
2	474559	87.01	0
2	475105	87.11	0
2	475651	87.21	0
2	476197	87.31	0
2	476743	87.41	0
2	477289	87.51	0
2	477835	87.61	0
2	478381	87.71	0
2	478927	87.81	0
2	479473	87.91	0
2	480027	88.01	0
2	480573	88.11	0
2	481119	88.21	0
2	481665	88.31	0
2	482211	88.41	0
2	482757	88.51	0
2	483303	88.61	0
2	483849	88.71	0
2	484395	88.81	0
2	484941	88.91	0
2	485495	89.01	0
2	486041	89.11	0
2	486587	89.21	0
2	487133	89.31	0
2	487679	89.41	0
2	488225	89.51	0
2	488771	89.61	0
2	489317	89.71	0
2	489863	89.81	0
2	490409	89.91	0
2	490963	90.01	0
2	491509	90.11	0
2	492055	90.21	0
2	492601	90.31	0
2	493147	90.41	0
2	493693	90.51	0
2	494239	90.61	0
2	494785	90.71	0
2	495331	90.81	0
2	495877	90.91	0
2	496431	91.01	0
2	496977	91.11	0
2	497523	91.21	0
2	498069	91.31	0
2	498615	91.41	0
2	499161	91.51	0
2	499707	91.61	0
2	500253	91.71	0
2	500799	91.81	0
2	501345	91.91	0
2	501899	92.01	0
2	502445	92.11	0
2	502991	92.21	0
2	503537	92.31	0
2	504083	92.41	0
2	504629	92.51	0
2	505175	92.61	0
2	505721	92.71	0
2	506267	92.81	0
2	506813	92.91	0
2	507367	93.01	0
2	507913	93.11	0
2	508459	93.21	0
2	509005	93.31	0
2	509551	93.41	0
2	510097	93.51	0
2	510643	93.61	0
2	511189	93.71	0
2	511735	93.81	0
2	512281	93.91	0
2	512835	94.01	0
2	513381	94.11	0
2	513927	94.21	0
2	514473	94.31	0
2	515019	94.41	0
2	515565	94.51	0
2	516111	94.61	0
2	516657	94.71	0
2	517203	94.81	0
2	517749	94.91	0
2	518303	95.01	0
2	518849	95.11	0
2	519395	95.21	0
2	519941	95.31	0
2	520487	95.41	0
2	521033	95.51	0
2	521579	95.61	0
2	522125	95.71	0
2	522671	95.81	0
2	523217	95.91	0
2	523771	96.01	0
2	524317	96.11	0
2	524863	96.21	0
2	525409	96.31	0
2	525955	96.41	0
2	526501	96.51	0
2	527047	96.61	0
2	527593	96.71	0
2	528139	96.81	0
2	528685	96.91	0
2	529239	97.01	0
2	529785	97.11	0
2	530331	97.21	0
2	530877	97.31	0
2	531423	97.41	0
2	531969	97.51	0
2	532515	97.61	0
2	533061	97.71	0
2	533607	97.81	0
2	534153	97.91	0
2	534707	98.01	0
2	535253	98.11	0
2	535799	98.21	0
2	536345	98.31	0
2	536891	98.41	0
2	537437	98.51	0
2	537983	98.61	0
2	538529	98.71	0
2	539075	98.81	0
2	539621	98.91	0
2	540175	99.01	0
2	540721	99.11	0
2	541267	99.21	0
2	541813	99.31	0
2	542359	99.41	0
2	542905	99.51	0
2	543451	99.61	0
2	543997	99.71	0
2	544543	99.81	0
2	545089	99.91	0
3	113	1.11	-0.000716383
3	659	1.21	-0.00136341
3	1205	1.31	-0.00186974
3	1751	1.41	-0.00225157
3	2297	1.51	-0.00252443
3	2843	1.61	-0.00270298
3	3389	1.71	-0.00280098
3	3935	1.81	-0.00283113
3	4481	1.91	-0.00280509
3	5035	2.01	-0.00273342
3	5581	2.11	-0.00262559
3	6127	2.21	-0.00249005
3	6673	2.31	-0.00233419
3	7219	2.41	-0.00216447
3	7765	2.51	-0.00198642
3	8311	2.61	-0.00180472
3	8857	2.71	-0.0016233
3	9403	2.81	-0.00144536
3	9949	2.91	-0.00127346
3	10503	3.01	-0.0011096
3	11049	3.11	-0.000955278
3	11595	3.21	-0.000811546
3	12141	3.31	-0.00067908
3	12687	3.41	-0.000558232
3	13233	3.51	-0.000449082
3	13779	3.61	-0.000351487
3	14325	3.71	-0.00026512
3	14871	3.81	-0.000189514
3	15417	3.91	-0.000124092
3	15971	4.01	-6.81972e-05
3	16517	4.11	-2.11209e-05
3	17063	4.21	1.78769e-05
3	17609	4.31	4.9548e-05
3	18155	4.41	7.46407e-05
3	18701	4.51	9.38867e-05
3	19247	4.61	0.000107991
3	19793	4.71	0.000117625
3	20339	4.81	0.000123418
3	20885	4.91	0.000125957
3	21439	5.01	0.000125781
3	21985	5.11	0.00012338
3	22531	5.21	0.000119198
3	23077	5.31	0.000113629
3	23623	5.41	0.000107022
3	24169	5.51	9.96832e-05
3	24715	5.61	9.18747e-05
3	25261	5.71	8.38211e-05
3	25807	5.81	7.57109e-05
3	26353	5.91	6.76999e-05
3	26907	6.01	5.99137e-05
3	27453	6.11	5.24518e-05
3	27999	6.21	4.53896e-05
3	28545	6.31	3.87821e-05
3	29091	6.41	3.2666e-05
3	29637	6.51	2.70628e-05
3	30183	6.61	2.19809e-05
3	30729	6.71	1.74176e-05
3	31275	6.81	1.33618e-05
3	31821	6.91	9.79494e-06
3	32375	7.01	6.6932e-06
3	32921	7.11	4.02864e-06
3	33467	7.21	1.77051e-06
3	34013	7.31	-1.13691e-07
3	34559	7.41	-1.65736e-06
3	35105	7.51	-2.89397e-06
3	35651	7.61	-3.85652e-06
3	36197	7.71	-4.57698e-06
3	36743	7.81	-5.08591e-06
3	37289	7.91	-5.41219e-06
3	37843	8.01	-5.58279e-06
3	38389	8.11	-5.6226e-06
3	38935	8.21	-5.55442e-06
3	39481	8.31	-5.39886e-06
3	40027	8.41	-5.17441e-06
3	40573	8.51	-4.89748e-06
3	41119	8.61	-4.58246e-06
3	41665	8.71	-4.24184e-06
3	42211	8.81	-3.88634e-06
3	42757	8.91	-3.52499e-06
3	43311	9.01	-3.16534e-06
3	43857	9.11	-2.81353e-06
3	44403	9.21	-2.47446e-06
3	44949	9.31	-2.15192e-06
3	45495	9.41	-1.84873e-06
3	46041	9.51	-1.56685e-06
3	46587	9.61	-1.30751e-06
3	47133	9.71	-1.0713e-06
3	47679	9.81	-8.58321e-07
3	48225	9.91	-6.68206e-07
3	48853	10.01	-5.0026e-07
3	49406	10.11	-3.53514e-07
3	49959	10.21	-2.2679e-07
3	50512	10.31	-1.18765e-07
3	51065	10.41	-2.80163e-08
3	51618	10.51	4.6931e-08
3	52171	10.61	1.07573e-07
3	52724	10.71	1.55391e-07
3	53277	10.81	1.91831e-07
3	53830	10.91	2.18284e-07
3	54391	11.01	2.3607e-07
3	54944	11.11	2.46427e-07
3	55497	11.21	2.50502e-07
3	56050	11.31	2.49353e-07
3	56603	11.41	2.43938e-07
3	57156	11.51	2.3512e-07
3	57709	11.61	2.23669e-07
3	58262	11.71	2.10264e-07
3	58815	11.81	1.95496e-07
3	59368	11.91	1.79874e-07
3	59929	12.01	1.63833e-07
3	60482	12.11	1.47736e-07
3	61035	12.21	1.3188e-07
3	61588	12.31	1.16508e-07
3	62141	12.41	1.01807e-07
3	62694	12.51	8.79222e-08
3	63247	12.61	7.49541e-08
3	63800	12.71	6.29711e-08
3	64353	12.81	5.20114e-08
3	64906	12.91	4.20883e-08
3	65467	13.01	3.3193e-08
3	66020	13.11	2.53003e-08
3	66573	13.21	1.83718e-08
3	67126	13.31	1.23581e-08
3	67679	13.41	7.20348e-09
3	68232	13.51	2.84537e-09
3	68785	13.61	-7.80886e-10
3	69338	13.71	-3.74136e-09
3	69891	13.81	-6.10285e-09
3	70444	13.91	-7.93072e-09
3	71005	14.01	-9.28821e-09
3	71558	14.11	-1.0235e-08
3	72111	14.21	-1.08283e-08
3	72664	14.31	-1.11211e-08
3	73217	14.41	-1.11612e-08
3	73770	14.51	-1.09946e-08
3	74323	14.61	-1.06599e-08
3	74876	14.71	-1.01945e-08
3	75429	14.81	-9.62999e-09
3	75982	14.91	-8.99405e-09
3	76543	15.01	-8.31086e-09
3	77096	15.11	-7.60103e-09
3	77649	15.21	-6.88338e-09
3	78202	15.31	-6.17071e-09
3	78755	15.41	-5.47544e-09
3	79308	15.51	-4.80682e-09
3	79861	15.61	-4.17266e-09
3	80414	15.71	-3.57687e-09
3	80967	15.81	-3.02443e-09
3	81520	15.91	-2.51674e-09
3	82081	16.01	-2.05489e-09
3	82634	16.11	-1.63958e-09
3	83187	16.21	-1.26903e-09
3	83740	16.31	-9.42535e-10
3	84293	16.41	-6.57963e-10
3	84846	16.51	-4.1247e-10
3	85399	16.61	-2.04636e-10
3	85952	16.71	-2.91323e-11
3	86505	16.81	1.14753e-10
3	87058	16.91	2.30926e-10
3	87619	17.01	3.22231e-10
3	88172	17.11	3.91154e-10
3	88725	17.21	4.40892e-10
3	89278	17.31	4.73577e-10
3	89831	17.41	4.92051e-10
3	90384	17.51	4.98446e-10
3	90937	17.61	4.94893e-10
3	91490	17.71	4.82814e-10
3	92043	17.81	4.6434e-10
3	92596	17.91	4.40892e-10
3	93157	18.01	4.13536e-10
3	93710	18.11	3.83693e-10
3	94263	18.21	3.51719e-10
3	94816	18.31	3.19744e-10
3	95369	18.41	2.8777e-10
3	95922	18.51	2.55795e-10
3	96475	18.61	2.25953e-10
3	97028	18.71	1.97531e-10
3	97581	18.81	1.6982e-10
3	98134	18.91	1.44951e-10
3	98695	19.01	1.21503e-10
3	99248	19.11	1.00187e-10
3	99801	19.21	8.10019e-11
3	100354	19.31	6.32383e-11
3	100907	19.41	4.86722e-11
3	101460	19.51	3.44613e-11
3	102013	19.61	2.34479e-11
3	102566	19.71	1.27898e-11
3	103119	19.81	4.9738e-12
3	103672	19.91	-2.13163e-12
3	104233	20.01	-8.17124e-12
3	104786	20.11	-1.1724e-11
3	105339	20.21	-1.52767e-11
3	105892	20.31	-1.88294e-11
3	106445	20.41	-2.02505e-11
3	106998	20.51	-2.02505e-11
3	107551	20.61	-2.02505e-11
3	108104	20.71	-2.02505e-11
3	108657	20.81	-2.02505e-11
3	109210	20.91	-2.02505e-11
3	109771	21.01	-2.02505e-11
3	110324	21.11	-2.02505e-11
3	110877	21.21	-2.02505e-11
3	111430	21.31	-1.88294e-11
3	111983	21.41	-1.7053e-11
3	112536	21.51	-1.52767e-11
3	113089	21.61	-1.38556e-11
3	113642	21.71	-1.24345e-11
3	114195	21.81	-1.13687e-11
3	114748	21.91	-1.03029e-11
3	115309	22.01	-9.23706e-12
3	115862	22.11	-8.52651e-12
3	116415	22.21	-7.4607e-12
3	116968	22.31	-6.75016e-12
3	117521	22.41	-6.03961e-12
3	118074	22.51	-5.68434e-12
3	118627	22.61	-4.9738e-12
3	119180	22.71	-4.61853e-12
3	119733	22.81	-4.26326e-12
3	120286	22.91	-3.90799e-12
3	120847	23.01	-3.55271e-12
3	121400	23.11	-3.19744e-12
3	121953	23.21	-2.84217e-12
3	122506	23.31	-2.4869e-12
3	123059	23.41	-2.13163e-12
3	123612	23.51	-2.13163e-12
3	124165	23.61	-1.77636e-12
3	124718	23.71	-1.77636e-12
3	125271	23.81	-1.42109e-12
3	125824	23.91	-1.42109e-12
3	126385	24.01	-1.06581e-12
3	126938	24.11	-1.06581e-12
3	127491	24.21	-1.06581e-12
3	128044	24.31	-1.06581e-12
3	128597	24.41	-7.10543e-13
3	129150	24.51	-7.10543e-13
3	129703	24.61	-7.10543e-13
3	130256	24.71	-7.10543e-13
3	130809	24.81	-7.10543e-13
3	131362	24.91	-3.55271e-13
3	131923	25.01	-3.55271e-13
3	132476	25.11	-3.55271e-13
3	133029	25.21	-3.55271e-13
3	133582	25.31	-3.55271e-13
3	134135	25.41	-3.55271e-13
3	134688	25.51	-3.55271e-13
3	135241	25.61	-3.55271e-13
3	135794	25.71	-3.55271e-13
3	136347	25.81	-3.55271e-13
3	136900	25.91	0
3	137461	26.01	0
3	138014	26.11	0
3	138567	26.21	0
3	139120	26.31	0
3	139673	26.41	0
3	140226	26.51	0
3	140779	26.61	0
3	141332	26.71	0
3	141885	26.81	0
3	142438	26.91	0
3	142999	27.01	0
3	143552	27.11	0
3	144105	27.21	0
3	144658	27.31	0
3	145211	27.41	0
3	145764	27.51	0
3	146317	27.61	0
3	146870	27.71	0
3	147423	27.81	0
3	147976	27.91	0
3	148537	28.01	0
3	149090	28.11	0
3	149643	28.21	0
3	150196	28.31	0
3	150749	28.41	0
3	151302	28.51	0
3	151855	28.61	0
3	152408	28.71	0
3	152961	28.81	0
3	153514	28.91	0
3	154075	29.01	0
3	154628	29.11	0
3	155181	29.21	0
3	155734	29.31	0
3	156287	29.41	0
3	156840	29.51	0
3	157393	29.61	0
3	157946	29.71	0
3	158499	29.81	0
3	159052	29.91	0
3	159613	30.01	0
3	160166	30.11	0
3	160719	30.21	0
3	161272	30.31	0
3	161825	30.41	0
3	162378	30.51	0
3	162931	30.61	0
3	163484	30.71	0
3	164037	30.81	0
3	164590	30.91	0
3	165151	31.01	0
3	165704	31.11	0
3	166257	31.21	0
3	166810	31.31	0
3	167363	31.41	0
3	167916	31.51	0
3	168469	31.61	0
3	169022	31.71	0
3	169575	31.81	0
3	170128	31.91	0
3	170689	32.01	0
3	171242	32.11	0
3	171795	32.21	0
3	172348	32.31	0
3	172901	32.41	0
3	173454	32.51	0
3	174007	32.61	0
3	174560	32.71	0
3	175113	32.81	0
3	175666	32.91	0
3	176227	33.01	0
3	176780	33.11	0
3	177333	33.21	0
3	177886	33.31	0
3	178439	33.41	0
3	178992	33.51	0
3	179545	33.61	0
3	180098	33.71	0
3	180651	33.81	0
3	181204	33.91	0
3	181765	34.01	0
3	182318	34.11	0
3	182871	34.21	0
3	183424	34.31	0
3	183977	34.41	0
3	184530	34.51	0
3	185083	34.61	0
3	185636	34.71	0
3	186189	34.81	0
3	186742	34.91	0
3	187303	35.01	0
3	187856	35.11	0
3	188409	35.21	0
3	188962	35.31	0
3	189515	35.41	0
3	190068	35.51	0
3	190621	35.61	0
3	191174	35.71	0
3	191727	35.81	0
3	192280	35.91	0
3	192841	36.01	0
3	193394	36.11	0
3	193947	36.21	0
3	194500	36.31	0
3	195053	36.41	0
3	195606	36.51	0
3	196159	36.61	0
3	196712	36.71	0
3	197265	36.81	0
3	197818	36.91	0
3	198379	37.01	0
3	198932	37.11	0
3	199485	37.21	0
3	200038	37.31	0
3	200591	37.41	0
3	201144	37.51	0
3	201697	37.61	0
3	202250	37.71	0
3	202803	37.81	0
3	203356	37.91	0
3	203917	38.01	0
3	204470	38.11	0
3	205023	38.21	0
3	205576	38.31	0
3	206129	38.41	0
3	206682	38.51	0
3	207235	38.61	0
3	207788	38.71	0
3	208341	38.81	0
3	208894	38.91	0
3	209455	39.01	0
3	210008	39.11	0
3	210561	39.21	0
3	211114	39.31	0
3	211667	39.41	0
3	212220	39.51	0
3	212773	39.61	0
3	213326	39.71	0
3	213879	39.81	0
3	214432	39.91	0
3	214993	40.01	0
3	215546	40.11	0
3	216099	40.21	0
3	216652	40.31	0
3	217205	40.41	0
3	217758	40.51	0
3	218311	40.61	0
3	218864	40.71	0
3	219417	40.81	0
3	219970	40.91	0
3	220531	41.01	0
3	221084	41.11	0
3	221637	41.21	0
3	222190	41.31	0
3	222743	41.41	0
3	223296	41.51	0
3	223849	41.61	0
3	224402	41.71	0
3	224955	41.81	0
3	225508	41.91	0
3	226069	42.01	0
3	226622	42.11	0
3	227175	42.21	0
3	227728	42.31	0
3	228281	42.41	0
3	228834	42.51	0
3	229387	42.61	0
3	230033	42.71	0
3	230585	42.81	0
3	231137	42.91	0
3	231697	43.01	0
3	232249	43.11	0
3	232801	43.21	0
3	233353	43.31	0
3	233905	43.41	0
3	234457	43.51	0
3	235009	43.61	0
3	235561	43.71	0
3	236113	43.81	0
3	236665	43.91	0
3	237225	44.01	0
3	237777	44.11	0
3	238329	44.21	0
3	238881	44.31	0
3	239433	44.41	0
3	239985	44.51	0
3	240537	44.61	0
3	241089	44.71	0
3	241641	44.81	0
3	242193	44.91	0
3	242753	45.01	0
3	243305	45.11	0
3	243857	45.21	0
3	244409	45.31	0
3	244961	45.41	0
3	245513	45.51	0
3	246065	45.61	0
3	246617	45.71	0
3	247169	45.81	0
3	247721	45.91	0
3	248281	46.01	0
3	248833	46.11	0
3	249385	46.21	0
3	249937	46.31	0
3	250489	46.41	0
3	251041	46.51	0
3	251593	46.61	0
3	252145	46.71	0
3	252697	46.81	0
3	253249	46.91	0
3	253809	47.01	0
3	254361	47.11	0
3	254913	47.21	0
3	255465	47.31	0
3	256017	47.41	0
3	256569	47.51	0
3	257121	47.61	0
3	257673	47.71	0
3	258225	47.81	0
3	258777	47.91	0
3	259337	48.01	0
3	259889	48.11	0
3	260441	48.21	0
3	260993	48.31	0
3	261545	48.41	0
3	262190	48.51	0
3	262741	48.61	0
3	263292	48.71	0
3	263843	48.81	0
3	264394	48.91	0
3	264953	49.01	0
3	265504	49.11	0
3	266055	49.21	0
3	266606	49.31	0
3	267157	49.41	0
3	267708	49.51	0
3	268259	49.61	0
3	268810	49.71	0
3	269361	49.81	0
3	269912	49.91	0
3	270471	50.01	0
3	271022	50.11	0
3	271573	50.21	0
3	272124	50.31	0
3	272675	50.41	0
3	273226	50.51	0
3	273777	50.61	0
3	274328	50.71	0
3	274879	50.81	0
3	275430	50.91	0
3	275989	51.01	0
3	276540	51.11	0
3	277091	51.21	0
3	277642	51.31	0
3	278193	51.41	0
3	278744	51.51	0
3	279295	51.61	0
3	279846	51.71	0
3	280397	51.81	0
3	280948	51.91	0
3	281507	52.01	0
3	282058	52.11	0
3	282609	52.21	0
3	283160	52.31	0
3	283711	52.41	0
3	284262	52.51	0
3	284813	52.61	0
3	285364	52.71	0
3	285915	52.81	0
3	286466	52.91	0
3	287025	53.01	0
3	287576	53.11	0
3	288127	53.21	0
3	288678	53.31	0
3	289229	53.41	0
3	289780	53.51	0
3	290331	53.61	0
3	290882	53.71	0
3	291526	53.81	0
3	292076	53.91	0
3	292634	54.01	0
3	293184	54.11	0
3	293734	54.21	0
3	294284	54.31	0
3	294834	54.41	0
3	295384	54.51	0
3	295934	54.61	0
3	296484	54.71	0
3	297034	54.81	0
3	297584	54.91	0
3	298142	55.01	0
3	298692	55.11	0
3	299242	55.21	0
3	299792	55.31	0
3	300342	55.41	0
3	300892	55.51	0
3	301442	55.61	0
3	301992	55.71	0
3	302542	55.81	0
3	303092	55.91	0
3	303650	56.01	0
3	304200	56.11	0
3	304750	56.21	0
3	305300	56.31	0
3	305850	56.41	0
3	306400	56.51	0
3	306950	56.61	0
3	307500	56.71	0
3	308050	56.81	0
3	308600	56.91	0
3	309158	57.01	0
3	309708	57.11	0
3	310258	57.21	0
3	310808	57.31	0
3	311358	57.41	0
3	311908	57.51	0
3	312458	57.61	0
3	313008	57.71	0
3	313558	57.81	0
3	314108	57.91	0
3	314666	58.01	0
3	315216	58.11	0
3	315766	58.21	0
3	316316	58.31	0
3	316866	58.41	0
3	317416	58.51	0
3	317966	58.61	0
3	318609	58.71	0
3	319158	58.81	0
3	319707	58.91	0
3	320264	59.01	0
3	320813	59.11	0
3	321362	59.21	0
3	321911	59.31	0
3	322460	59.41	0
3	323009	59.51	0
3	323558	59.61	0
3	324107	59.71	0
3	324656	59.81	0
3	325205	59.91	0
3	325762	60.01	0
3	326311	60.11	0
3	326860	60.21	0
3	327409	60.31	0
3	327958	60.41	0
3	328507	60.51	0
3	329056	60.61	0
3	329605	60.71	0
3	330154	60.81	0
3	330703	60.91	0
3	331260	61.01	0
3	331809	61.11	0
3	332358	61.21	0
3	332907	61.31	0
3	333456	61.41	0
3	334005	61.51	0
3	334554	61.61	0
3	335103	61.71	0
3	335652	61.81	0
3	336201	61.91	0
3	336758	62.01	0
3	337307	62.11	0
3	337856	62.21	0
3	338405	62.31	0
3	338954	62.41	0
3	339503	62.51	0
3	340052	62.61	0
3	340601	62.71	0
3	341150	62.81	0
3	341699	62.91	0
3	342256	63.01	0
3	342805	63.11	0
3	343354	63.21	0
3	343996	63.31	0
3	344544	63.41	0
3	345092	63.51	0
3	345640	63.61	0
3	346188	63.71	0
3	346736	63.81	0
3	347284	63.91	0
3	347840	64.01	0
3	348388	64.11	0
3	348936	64.21	0
3	349484	64.31	0
3	350032	64.41	0
3	350580	64.51	0
3	351128	64.61	0
3	351676	64.71	0
3	352224	64.81	0
3	352772	64.91	0
3	353328	65.01	0
3	353876	65.11	0
3	354424	65.21	0
3	354972	65.31	0
3	355520	65.41	0
3	356068	65.51	0
3	356616	65.61	0
3	357164	65.71	0
3	357712	65.81	0
3	358260	65.91	0
3	358816	66.01	0
3	359364	66.11	0
3	359912	66.21	0
3	360460	66.31	0
3	361008	66.41	0
3	361556	66.51	0
3	362104	66.61	0
3	362652	66.71	0
3	363200	66.81	0
3	363748	66.91	0
3	364304	67.01	0
3	364852	67.11	0
3	365400	67.21	0
3	365948	67.31	0
3	366496	67.41	0
3	367044	67.51	0
3	367592	67.61	0
3	368233	67.71	0
3	368780	67.81	0
3	369327	67.91	0
3	369882	68.01	0
3	370429	68.11	0
3	370976	68.21	0
3	371523	68.31	0
3	372070	68.41	0
3	372617	68.51	0
3	373164	68.61	0
3	373711	68.71	0
3	374258	68.81	0
3	374805	68.91	0
3	375360	69.01	0
3	375907	69.11	0
3	376454	69.21	0
3	377001	69.31	0
3	377548	69.41	0
3	378095	69.51	0
3	378642	69.61	0
3	379189	69.71	0
3	379736	69.81	0
3	380283	69.91	0
3	380838	70.01	0
3	381385	70.11	0
3	381932	70.21	0
3	382479	70.31	0
3	383026	70.41	0
3	383573	70.51	0
3	384120	70.61	0
3	384667	70.71	0
3	385214	70.81	0
3	385761	70.91	0
3	386316	71.01	0
3	386863	71.11	0
3	387410	71.21	0
3	387957	71.31	0
3	388504	71.41	0
3	389051	71.51	0
3	389598	71.61	0
3	390145	71.71	0
3	390692	71.81	0
3	391239	71.91	0
3	391794	72.01	0
3	393085	72.11	0
3	393631	72.21	0
3	394177	72.31	0
3	394723	72.41	0
3	395269	72.51	0
3	395815	72.61	0
3	396361	72.71	0
3	396907	72.81	0
3	397453	72.91	0
3	398007	73.01	0
3	398553	73.11	0
3	399099	73.21	0
3	399645	73.31	0
3	400191	73.41	0
3	400737	73.51	0
3	401283	73.61	0
3	401829	73.71	0
3	402375	73.81	0
3	402921	73.91	0
3	403475	74.01	0
3	404021	74.11	0
3	404567	74.21	0
3	405113	74.31	0
3	405659	74.41	0
3	406205	74.51	0
3	406751	74.61	0
3	407297	74.71	0
3	407843	74.81	0
3	408389	74.91	0
3	408943	75.01	0
3	409489	75.11	0
3	410035	75.21	0
3	410581	75.31	0
3	411127	75.41	0
3	411673	75.51	0
3	412219	75.61	0
3	412765	75.71	0
3	413311	75.81	0
3	413857	75.91	0
3	414411	76.01	0
3	414957	76.11	0
3	415503	76.21	0
3	416049	76.31	0
3	416595	76.41	0
3	417141	76.51	0
3	417687	76.61	0
3	418233	76.71	0
3	418779	76.81	0
3	419325	76.91	0
3	419879	77.01	0
3	420425	77.11	0
3	420971	77.21	0
3	421517	77.31	0
3	422063	77.41	0
3	422609	77.51	0
3	423155	77.61	0
3	423701	77.71	0
3	424247	77.81	0
3	424793	77.91	0
3	425347	78.01	0
3	425893	78.11	0
3	426439	78.21	0
3	426985	78.31	0
3	427531	78.41	0
3	428077	78.51	0
3	428623	78.61	0
3	429169	78.71	0
3	429715	78.81	0
3	430261	78.91	0
3	430815	79.01	0
3	431361	79.11	0
3	431907	79.21	0
3	432453	79.31	0
3	432999	79.41	0
3	433545	79.51	0
3	434091	79.61	0
3	434637	79.71	0
3	435183	79.81	0
3	435729	79.91	0
3	436283	80.01	0
3	436829	80.11	0
3	437375	80.21	0
3	437921	80.31	0
3	438467	80.41	0
3	439013	80.51	0
3	439559	80.61	0
3	440105	80.71	0
3	440651	80.81	0
3	441197	80.91	0
3	441751	81.01	0
3	442297	81.11	0
3	442843	81.21	0
3	443389	81.31	0
3	443935	81.41	0
3	444481	81.51	0
3	445027	81.61	0
3	445573	81.71	0
3	446119	81.81	0
3	446665	81.91	0
3	447219	82.01	0
3	447765	82.11	0
3	448311	82.21	0
3	448857	82.31	0
3	449403	82.41	0
3	449949	82.51	0
3	450495	82.61	0
3	451041	82.71	0
3	451587	82.81	0
3	452133	82.91	0
3	452687	83.01	0
3	453233	83.11	0
3	453779	83.21	0
3	454325	83.31	0
3	454871	83.41	0
3	455417	83.51	0
3	455963	83.61	0
3	456509	83.71	0
3	457055	83.81	0
3	457601	83.91	0
3	458155	84.01	0
3	458701	84.11	0
3	459247	84.21	0
3	459793	84.31	0
3	460339	84.41	0
3	460885	84.51	0
3	461431	84.61	0
3	461977	84.71	0
3	462523	84.81	0
3	463069	84.91	0
3	463623	85.01	0
3	464169	85.11	0
3	464715	85.21	0
3	465261	85.31	0
3	465807	85.41	0
3	466353	85.51	0
3	466899	85.61	0
3	467445	85.71	0
3	467991	85.81	0
3	468537	85.91	0
3	469091	86.01	0
3	469637	86.11	0
3	470183	86.21	0
3	470729	86.31	0
3	471275	86.41	0
3	471821	86.51	0
3	472367	86.61	0
3	472913	86.71	0
3	473459	86.81	0
3	474005	86.91	0
3	474559	87.01	0
3	475105	87.11	0
3	475651	87.21	0
3	476197	87.31	0
3	476743	87.41	0
3	477289	87.51	0
3	477835	87.61	0
3	478381	87.71	0
3	478927	87.81	0
3	479473	87.91	0
3	480027	88.01	0
3	480573	88.11	0
3	481119	88.21	0
3	481665	88.31	0
3	482211	88.41	0
3	482757	88.51	0
3	483303	88.61	0
3	483849	88.71	0
3	484395	88.81	0
3	484941	88.91	0
3	485495	89.01	0
3	486041	89.11	0
3	486587	89.21	0
3	487133	89.31	0
3	487679	89.41	0
3	488225	89.51	0
3	488771	89.61	0
3	489317	89.71	0
3	489863	89.81	0
3	490409	89.91	0
3	490963	90.01	0
3	491509	90.11	0
3	492055	90.21	0
3	492601	90.31	0
3	493147	90.41	0
3	493693	90.51	0
3	494239	90.61	0
3	494785	90.71	0
3	495331	90.81	0
3	495877	90.91	0
3	496431	91.01	0
3	496977	91.11	0
3	497523	91.21	0
3	498069	91.31	0
3	498615	91.41	0
3	499161	91.51	0
3	499707	91.61	0
3	500253	91.71	0
3	500799	91.81	0
3	501345	91.91	0
3	501899	92.01	0
3	502445	92.11	0
3	502991	92.21	0
3	503537	92.31	0
3	504083	92.41	0
3	504629	92.51	0
3	505175	92.61	0
3	505721	92.71	0
3	506267	92.81	0
3	506813	92.91	0
3	507367	93.01	0
3	507913	93.11	0
3	508459	93.21	0
3	509005	93.31	0
3	509551	93.41	0
3	510097	93.51	0
3	510643	93.61	0
3	511189	93.71	0
3	511735	93.81	0
3	512281	93.91	0
3	512835	94.01	0
3	513381	94.11	0
3	513927	94.21	0
3	514473	94.31	0
3	515019	94.41	0
3	515565	94.51	0
3	516111	94.61	0
3	516657	94.71	0
3	517203	94.81	0
[...]
105	441568	81	0.024968573435
105	447036	82	0.024968268854
105	452504	83	0.024967964026
105	457972	84	0.024967658997
105	463440	85	0.024980353713
105	468908	86	0.024967048146
105	474376	87	0.024966742259
105	479844	88	0.024966436009
105	485312	89	0.024979132007
105	490780	90	0.024965831882
105	496248	91	0.024965522992
105	501716	92	0.024978213847
105	507184	93	0.024964904267
105	512652	94	0.024964593756
105	518120	95	0.024977281953
105	523588	96	0.024963968546
105	529056	97	0.024976655375
105	534524	98	0.024963340769
105	539992	99	0.024976019713
105	545460	100	0.024962694954
106	4852	2	0
106	10320	3	0
106	15788	4	0
106	21256	5	0
106	26724	6	0
106	32192	7	0
106	37660	8	0
106	43128	9	0
106	48597	10	0
106	54201	11	0
106	59739	12	0
106	65277	13	0
106	70815	14	0
106	76353	15	0
106	81891	16	0
106	87429	17	0
106	92967	18	0
106	98505	19	0
106	104043	20	0
106	109581	21	0
106	115119	22	0
106	120657	23	0
106	126195	24	0
106	131733	25	0
106	137271	26	0
106	142809	27	0
106	148347	28	0
106	153885	29	0
106	159423	30	0
106	164961	31	0
106	170499	32	0
106	176037	33	0
106	181575	34	0
106	187113	35	0
106	192651	36	0
106	198189	37	0
106	203727	38	0
106	209265	39	0
106	214803	40	0
106	220341	41	0
106	225879	42	0
106	231508	43	0
106	237036	44	0
106	242564	45	0
106	248092	46	0
106	253620	47	0
106	259148	48	0
106	264765	49	0
106	270283	50	0
106	275801	51	0
106	281319	52	0
106	286837	53	0
106	292447	54	0
106	297955	55	0
106	303463	56	0
106	308971	57	0
106	314479	58	0
106	320078	59	0
106	325576	60	0
106	331074	61	0
106	336572	62	0
106	342070	63	0
106	347655	64	0
106	353143	65	0
106	358631	66	0
106	364119	67	0
106	369698	68	0
106	375176	69	0
106	380654	70	0
106	386132	71	0
106	391610	72	0
106	397824	73	0
106	403292	74	0
106	408760	75	0
106	414228	76	0
106	419696	77	0
106	425164	78	0
106	430632	79	0
106	436100	80	0
106	441568	81	0
106	447036	82	0
106	452504	83	0
106	457972	84	0
106	463440	85	0
106	468908	86	0
106	474376	87	0
106	479844	88	0
106	485312	89	0
106	490780	90	0
106	496248	91	0
106	501716	92	0
106	507184	93	0
106	512652	94	0
106	518120	95	0
106	523588	96	0
106	529056	97	0
106	534524	98	0
106	539992	99	0
106	545460	100	0
107	4853	2	5
107	10321	3	5
107	15789	4	5
107	21257	5	5
107	26725	6	5
107	32193	7	5
107	37661	8	5
107	43129	9	5
107	48598	10	5
107	54202	11	5
107	59740	12	5
107	65278	13	5
107	70816	14	5
107	76354	15	5
107	81892	16	5
107	87430	17	5
107	92968	18	5
107	98506	19	5
107	104044	20	5
107	109582	21	5
107	115120	22	5
107	120658	23	5
107	126196	24	5
107	131734	25	5
107	137272	26	5
107	142810	27	5
107	148348	28	5
107	153886	29	5
107	159424	30	5
107	164962	31	5
107	170500	32	5
107	176038	33	5
107	181576	34	5
107	187114	35	5
107	192652	36	5
107	198190	37	5
107	203728	38	5
107	209266	39	5
107	214804	40	5
107	220342	41	5
107	225880	42	5
107	231509	43	5
107	237037	44	5
107	242565	45	5
107	248093	46	5
107	253621	47	5
107	259149	48	5
107	264766	49	5
107	270284	50	5
107	275802	51	5
107	281320	52	5
107	286838	53	5
107	292448	54	5
107	297956	55	5
107	303464	56	5
107	308972	57	5
107	314480	58	5
107	320079	59	5
107	325577	60	5
107	331075	61	5
107	336573	62	5
107	342071	63	5
107	347656	64	5
107	353144	65	5
107	358632	66	5
107	364120	67	5
107	369699	68	5
107	375177	69	5
107	380655	70	5
107	386133	71	5
107	391611	72	5
107	397825	73	5
107	403293	74	5
107	408761	75	5
107	414229	76	5
107	419697	77	5
107	425165	78	5
107	430633	79	5
107	436101	80	5
107	441569	81	5
107	447037	82	5
107	452505	83	5
107	457973	84	5
107	463441	85	5
107	468909	86	5
107	474377	87	5
107	479845	88	5
107	485313	89	5
107	490781	90	5
107	496249	91	5
107	501717	92	5
107	507185	93	5
107	512653	94	5
107	518121	95	5
107	523589	96	5
107	529057	97	5
107	534525	98	5
107	539993	99	5
107	545461	100	5
108	4853	2	0.021650416841
108	10321	3	0.024977796495
108	15789	4	0.024964796568
108	21257	5	0.024977796609
108	26725	6	0.024964796661
108	32193	7	0.024964796688
108	37661	8	0.024977796701
108	43129	9	0.024964796718
108	48598	10	0.02497779671
108	54202	11	0.025009713872
108	59740	12	0.024977758523
108	65278	13	0.024964663373
108	70816	14	0.024964509964
108	76354	15	0.024977307287
108	81892	16	0.024964065269
108	87430	17	0.024976793363
108	92968	18	0.024963500153
108	98506	19	0.02497619319
108	104044	20	0.024962879009
108	109582	21	0.02497556308
108	115120	22	0.024975249919
108	120658	23	0.024961943156
108	126196	24	0.024974645629
108	131734	25	0.024961359501
108	137272	26	0.024974086318
108	142810	27	0.024973827147
108	148348	28	0.024973582613
108	153886	29	0.024960353026
108	159424	30	0.024973138387
108	164962	31	0.024972938507
108	170500	32	0.024972753015
108	176038	33	0.024959581408
108	181576	34	0.024972423101
108	187114	35	0.024972277436
108	192652	36	0.024972143705
108	198190	37	0.024972021201
108	203728	38	0.024971909212
108	209266	39	0.024958807011
108	214804	40	0.024971713906
108	220342	41	0.024971629211
108	225880	42	0.024971552284
108	231509	43	0.025088297868
108	237037	44	0.02495841929
108	242565	45	0.02497136209
108	248093	46	0.024971310396
108	253621	47	0.024971263726
108	259149	48	0.024971221621
108	264766	49	0.02508799781
108	270284	50	0.024971149524
108	275802	51	0.024958118793
108	281320	52	0.02497109118
108	286838	53	0.024971066374
108	292448	54	0.025087765006
108	297956	55	0.024971024143
108	303464	56	0.024971006252
108	308972	57	0.024970990219
108	314480	58	0.024970975877
108	320079	59	0.025074590662
108	325577	60	0.024970951567
108	331075	61	0.024970941315
108	336573	62	0.024970932159
108	342071	63	0.024970923981
108	347656	64	0.025107916691
108	353144	65	0.024970910184
108	358632	66	0.02497090439
108	364120	67	0.024970899228
108	369699	68	0.025087335663
108	375177	69	0.024970890534
108	380655	70	0.024970886892
108	386133	71	0.024970883651
108	391611	72	0.024970880771
108	397825	73	0.025896984369
108	403293	74	0.02497066156
108	408761	75	0.024970385326
108	414229	76	0.024957053847
108	419697	77	0.024982731871
108	425165	78	0.024969423782
108	430633	79	0.024969120134
108	436101	80	0.024968868548
108	441569	81	0.024968570248
108	447037	82	0.02496826568
108	452505	83	0.024967960869
108	457973	84	0.024967655859
108	463441	85	0.024980350596
108	468909	86	0.024967045054
108	474377	87	0.024966739196
108	479845	88	0.02496643298
108	485313	89	0.024979129019
108	490781	90	0.024965828942
108	496249	91	0.024965520111
108	501717	92	0.024978211038
108	507185	93	0.024964901545
108	512653	94	0.024964591144
108	518121	95	0.024977279478
108	523589	96	0.024963966241
108	529057	97	0.024976653284
108	534525	98	0.024963338945
108	539993	99	0.024976018218
108	545461	100	0.024962693851
109	4853	2	0
109	10321	3	0
109	15789	4	0
109	21257	5	0
109	26725	6	0
109	32193	7	0
109	37661	8	0
109	43129	9	0
109	48598	10	0
109	54202	11	0
109	59740	12	0
109	65278	13	0
109	70816	14	0
109	76354	15	0
109	81892	16	0
109	87430	17	0
109	92968	18	0
109	98506	19	0
109	104044	20	0
109	109582	21	0
109	115120	22	0
109	120658	23	0
109	126196	24	0
109	131734	25	0
109	137272	26	0
109	142810	27	0
109	148348	28	0
109	153886	29	0
109	159424	30	0
109	164962	31	0
109	170500	32	0
109	176038	33	0
109	181576	34	0
109	187114	35	0
109	192652	36	0
109	198190	37	0
109	203728	38	0
109	209266	39	0
109	214804	40	0
109	220342	41	0
109	225880	42	0
109	231509	43	0
109	237037	44	0
109	242565	45	0
109	248093	46	0
109	253621	47	0
109	259149	48	0
109	264766	49	0
109	270284	50	0
109	275802	51	0
109	281320	52	0
109	286838	53	0
109	292448	54	0
109	297956	55	0
109	303464	56	0
109	308972	57	0
109	314480	58	0
109	320079	59	0
109	325577	60	0
109	331075	61	0
109	336573	62	0
109	342071	63	0
109	347656	64	0
109	353144	65	0
109	358632	66	0
109	364120	67	0
109	369699	68	0
109	375177	69	0
109	380655	70	0
109	386133	71	0
109	391611	72	0
109	397825	73	0
109	403293	74	0
109	408761	75	0
109	414229	76	0
109	419697	77	0
109	425165	78	0
109	430633	79	0
109	436101	80	0
109	441569	81	0
109	447037	82	0
109	452505	83	0
109	457973	84	0
109	463441	85	0
109	468909	86	0
109	474377	87	0
109	479845	88	0
109	485313	89	0
109	490781	90	0
109	496249	91	0
109	501717	92	0
109	507185	93	0
109	512653	94	0
109	518121	95	0
109	523589	96	0
109	529057	97	0
109	534525	98	0
109	539993	99	0
109	545461	100	0
110	4854	2	6
110	10322	3	6
110	15790	4	6
110	21258	5	6
110	26726	6	6
110	32194	7	6
110	37662	8	6
110	43130	9	6
110	48599	10	6
110	54203	11	6
110	59741	12	6
110	65279	13	6
110	70817	14	6
110	76355	15	6
110	81893	16	6
110	87431	17	6
110	92969	18	6
110	98507	19	6
110	104045	20	6
110	109583	21	6
110	115121	22	6
110	120659	23	6
110	126197	24	6
110	131735	25	6
110	137273	26	6
110	142811	27	6
110	148349	28	6
110	153887	29	6
110	159425	30	6
110	164963	31	6
110	170501	32	6
110	176039	33	6
110	181577	34	6
110	187115	35	6
110	192653	36	6
110	198191	37	6
110	203729	38	6
110	209267	39	6
110	214805	40	6
110	220343	41	6
110	225881	42	6
110	231510	43	6
110	237038	44	6
110	242566	45	6
110	248094	46	6
110	253622	47	6
110	259150	48	6
110	264767	49	6
110	270285	50	6
110	275803	51	6
110	281321	52	6
110	286839	53	6
110	292449	54	6
110	297957	55	6
110	303465	56	6
110	308973	57	6
110	314481	58	6
110	320080	59	6
110	325578	60	6
110	331076	61	6
110	336574	62	6
110	342072	63	6
110	347657	64	6
110	353145	65	6
110	358633	66	6
110	364121	67	6
110	369700	68	6
110	375178	69	6
110	380656	70	6
110	386134	71	6
110	391612	72	6
110	397826	73	6
110	403294	74	6
110	408762	75	6
110	414230	76	6
110	419698	77	6
110	425166	78	6
110	430634	79	6
110	436102	80	6
110	441570	81	6
110	447038	82	6
110	452506	83	6
110	457974	84	6
110	463442	85	6
110	468910	86	6
110	474378	87	6
110	479846	88	6
110	485314	89	6
110	490782	90	6
110	496250	91	6
110	501718	92	6
110	507186	93	6
110	512654	94	6
110	518122	95	6
110	523590	96	6
110	529058	97	6
110	534526	98	6
110	539994	99	6
110	545462	100	6
111	4854	2	0.021651396827
111	10322	3	0.024977796495
111	15790	4	0.024964796568
111	21258	5	0.024977796609
111	26726	6	0.024964796661
111	32194	7	0.024964796688
111	37662	8	0.024977796701
111	43130	9	0.024964796719
111	48599	10	0.02497779671
111	54203	11	0.025009713856
111	59741	12	0.024977758472
111	65279	13	0.024964663281
111	70817	14	0.024964509811
111	76355	15	0.02497730705
111	81893	16	0.024964064936
111	87431	17	0.024976792924
111	92969	18	0.024963499609
111	98507	19	0.024976192545
111	104045	20	0.024962878272
111	109583	21	0.024975562262
111	115121	22	0.024975249032
111	120659	23	0.024961942215
111	126197	24	0.024974644647
111	131735	25	0.024961358492
111	137273	26	0.024974085295
111	142811	27	0.024973826121
111	148349	28	0.024973581594
111	153887	29	0.024960352024
111	159425	30	0.024973137408
111	164963	31	0.024972937557
111	170501	32	0.024972752102
111	176039	33	0.024959580532
111	181577	34	0.024972422267
111	187115	35	0.024972276644
111	192653	36	0.024972142957
111	198191	37	0.024972020498
111	203729	38	0.024971908554
111	209267	39	0.024958806395
111	214805	40	0.024971713333
111	220343	41	0.024971628678
111	225881	42	0.02497155179
111	231510	43	0.025088297413
111	237038	44	0.02495841887
111	242566	45	0.024971361704
111	248094	46	0.02497131004
111	253622	47	0.024971263401
111	259150	48	0.024971221324
111	264767	49	0.025087997538
111	270285	50	0.024971149276
111	275803	51	0.024958118568
111	281321	52	0.024971090974
111	286839	53	0.024971066188
111	292449	54	0.025087764836
111	297957	55	0.02497102399
111	303465	56	0.024971006113
111	308973	57	0.024970990094
111	314481	58	0.024970975764
111	320080	59	0.025074590559
111	325578	60	0.024970951476
111	331076	61	0.024970941231
111	336574	62	0.024970932084
111	342072	63	0.024970923915
111	347657	64	0.025074450966
111	353145	65	0.02497091013
111	358633	66	0.024970904342
111	364121	67	0.024970899184
111	369700	68	0.025120894585
111	375178	69	0.024970890499
111	380656	70	0.024970886862
111	386134	71	0.024970883622
111	391612	72	0.024970880747
111	397826	73	0.025896984024
111	403294	74	0.024970662616
111	408762	75	0.024970388122
111	414230	76	0.024957057999
111	419698	77	0.024982735456
111	425166	78	0.024969427086
111	430634	79	0.024969123401
111	436102	80	0.024968872929
111	441570	81	0.024968573576
111	447038	82	0.02496826901
111	452506	83	0.024967964197
111	457974	84	0.024967659186
111	463442	85	0.024980353923
111	468910	86	0.02496704838
111	474378	87	0.024966742522
111	479846	88	0.024966436306
111	485314	89	0.024979132344
111	490782	90	0.024965832266
111	496250	91	0.024965523435
111	501718	92	0.024978214361
111	507186	93	0.024964904868
111	512654	94	0.024964594466
111	518122	95	0.024977282799
111	523590	96	0.024963969561
111	529058	97	0.024976656604
111	534526	98	0.024963342263
111	539994	99	0.024976021535
111	545462	100	0.024962697167
112	4854	2	0
112	10322	3	0
112	15790	4	0
112	21258	5	0
112	26726	6	0
112	32194	7	0
112	37662	8	0
112	43130	9	0
112	48599	10	0
112	54203	11	0
112	59741	12	0
112	65279	13	0
112	70817	14	0
112	76355	15	0
112	81893	16	0
112	87431	17	0
112	92969	18	0
112	98507	19	0
112	104045	20	0
112	109583	21	0
112	115121	22	0
112	120659	23	0
112	126197	24	0
112	131735	25	0
112	137273	26	0
112	142811	27	0
112	148349	28	0
112	153887	29	0
112	159425	30	0
112	164963	31	0
112	170501	32	0
112	176039	33	0
112	181577	34	0
112	187115	35	0
112	192653	36	0
112	198191	37	0
112	203729	38	0
112	209267	39	0
112	214805	40	0
112	220343	41	0
112	225881	42	0
112	231510	43	0
112	237038	44	0
112	242566	45	0
112	248094	46	0
112	253622	47	0
112	259150	48	0
112	264767	49	0
112	270285	50	0
112	275803	51	0
112	281321	52	0
112	286839	53	0
112	292449	54	0
112	297957	55	0
112	303465	56	0
112	308973	57	0
112	314481	58	0
112	320080	59	0
112	325578	60	0
112	331076	61	0
112	336574	62	0
112	342072	63	0
112	347657	64	0
112	353145	65	0
112	358633	66	0
112	364121	67	0
112	369700	68	0
112	375178	69	0
112	380656	70	0
112	386134	71	0
112	391612	72	0
112	397826	73	0
112	403294	74	0
112	408762	75	0
112	414230	76	0
112	419698	77	0
112	425166	78	0
112	430634	79	0
112	436102	80	0
112	441570	81	0
112	447038	82	0
112	452506	83	0
112	457974	84	0
112	463442	85	0
112	468910	86	0
112	474378	87	0
112	479846	88	0
112	485314	89	0
112	490782	90	0
112	496250	91	0
112	501718	92	0
112	507186	93	0
112	512654	94	0
112	518122	95	0
112	523590	96	0
112	529058	97	0
112	534526	98	0
112	539994	99	0
112	545462	100	0
113	4855	2	7
113	10323	3	7
113	15791	4	7
113	21259	5	7
113	26727	6	7
113	32195	7	7
113	37663	8	7
113	43131	9	7
113	48600	10	7
113	54204	11	7
113	59742	12	7
113	65280	13	7
113	70818	14	7
113	76356	15	7
113	81894	16	7
113	87432	17	7
113	92970	18	7
113	98508	19	7
113	104046	20	7
113	109584	21	7
113	115122	22	7
113	120660	23	7
113	126198	24	7
113	131736	25	7
113	137274	26	7
113	142812	27	7
113	148350	28	7
113	153888	29	7
113	159426	30	7
113	164964	31	7
113	170502	32	7
113	176040	33	7
113	181578	34	7
113	187116	35	7
113	192654	36	7
113	198192	37	7
113	203730	38	7
113	209268	39	7
113	214806	40	7
113	220344	41	7
113	225882	42	7
113	231511	43	7
113	237039	44	7
113	242567	45	7
113	248095	46	7
113	253623	47	7
113	259151	48	7
113	264768	49	7
113	270286	50	7
113	275804	51	7
113	281322	52	7
113	286840	53	7
113	292450	54	7
113	297958	55	7
113	303466	56	7
113	308974	57	7
113	314482	58	7
113	320081	59	7
113	325579	60	7
113	331077	61	7
113	336575	62	7
113	342073	63	7
113	347658	64	7
113	353146	65	7
113	358634	66	7
113	364122	67	7
113	369701	68	7
113	375179	69	7
113	380657	70	7
113	386135	71	7
113	391613	72	7
113	397827	73	7
113	403295	74	7
113	408763	75	7
113	414231	76	7
113	419699	77	7
113	425167	78	7
113	430635	79	7
113	436103	80	7
113	441571	81	7
113	447039	82	7
113	452507	83	7
113	457975	84	7
113	463443	85	7
113	468911	86	7
113	474379	87	7
113	479847	88	7
113	485315	89	7
113	490783	90	7
113	496251	91	7
113	501719	92	7
113	507187	93	7
113	512655	94	7
113	518123	95	7
113	523591	96	7
113	529059	97	7
113	534527	98	7
113	539995	99	7
113	545463	100	7
114	4855	2	0.021651376813
114	10323	3	0.024977796495
114	15791	4	0.024964796569
114	21259	5	0.024977796608
114	26727	6	0.024964796662
114	32195	7	0.024964796687
114	37663	8	0.024977796702
114	43131	9	0.024964796718
114	48600	10	0.02497779671
114	54204	11	0.025009713863
114	59742	12	0.024977758467
114	65280	13	0.024964663238
114	70818	14	0.024964509716
114	76356	15	0.024977306893
114	81894	16	0.024964064707
114	87432	17	0.024976792618
114	92970	18	0.02496349922
114	98508	19	0.024976192073
114	104046	20	0.024962877717
114	109584	21	0.024975561628
114	115122	22	0.024975248328
114	120660	23	0.024961941446
114	126198	24	0.024974643825
114	131736	25	0.024961357625
114	137274	26	0.024974084394
114	142812	27	0.024973825195
114	148350	28	0.024973580654
114	153888	29	0.024960351079
114	159426	30	0.024973136464
114	164964	31	0.024972936625
114	170502	32	0.024972751184
114	176040	33	0.024959579638
114	181578	34	0.024972421398
114	187116	35	0.024972275806
114	192654	36	0.024972142153
114	198192	37	0.024972019728
114	203730	38	0.024971907821
114	209268	39	0.0249588057
114	214806	40	0.024971712677
114	220344	41	0.02497162806
114	225882	42	0.024971551209
114	231511	43	0.025088296869
114	237039	44	0.024958418362
114	242567	45	0.024971361231
114	248095	46	0.024971309601
114	253623	47	0.024971262993
114	259151	48	0.024971220947
114	264768	49	0.02508799719
114	270286	50	0.024971148954
114	275804	51	0.024958118272
114	281322	52	0.024971090703
114	286840	53	0.024971065939
114	292450	54	0.025087764608
114	297958	55	0.024971023781
114	303466	56	0.024971005923
114	308974	57	0.024970989919
114	314482	58	0.024970975605
114	320081	59	0.025074590416
114	325579	60	0.024970951344
114	331077	61	0.024970941112
114	336575	62	0.024970931976
114	342073	63	0.024970923817
114	347658	64	0.025074450877
114	353146	65	0.02497091005
114	358634	66	0.024970904269
114	364122	67	0.024970899118
114	369701	68	0.025087335565
114	375179	69	0.024970890445
114	380657	70	0.024970886813
114	386135	71	0.02497088358
114	391613	72	0.024970880707
114	397827	73	0.025930634272
114	403295	74	0.024970661634
114	408763	75	0.02497038646
114	414231	76	0.02495705465
114	419699	77	0.024982732037
114	425167	78	0.024969423738
114	430635	79	0.024969120093
114	436103	80	0.024968869829
114	441571	81	0.02496857025
114	447039	82	0.024968265682
114	452507	83	0.024967960869
114	457975	84	0.024967655859
114	463443	85	0.024980350596
114	468911	86	0.024967045054
114	474379	87	0.024966739196
114	479847	88	0.02496643298
114	485315	89	0.024979129796
114	490783	90	0.024965828904
114	496251	91	0.024965520074
114	501719	92	0.024978211028
114	507187	93	0.024964901546
114	512655	94	0.024964591146
114	518123	95	0.024977279478
114	523591	96	0.024963966241
114	529059	97	0.024976653284
114	534527	98	0.024963338945
114	539995	99	0.024976018218
114	545463	100	0.024962693851
115	4855	2	0
115	10323	3	0
115	15791	4	0
115	21259	5	0
115	26727	6	0
115	32195	7	0
115	37663	8	0
115	43131	9	0
115	48600	10	0
115	54204	11	0
115	59742	12	0
115	65280	13	0
115	70818	14	0
115	76356	15	0
115	81894	16	0
115	87432	17	0
115	92970	18	0
115	98508	19	0
115	104046	20	0
115	109584	21	0
115	115122	22	0
115	120660	23	0
115	126198	24	0
115	131736	25	0
115	137274	26	0
115	142812	27	0
115	148350	28	0
115	153888	29	0
115	159426	30	0
115	164964	31	0
115	170502	32	0
115	176040	33	0
115	181578	34	0
115	187116	35	0
115	192654	36	0
115	198192	37	0
115	203730	38	0
115	209268	39	0
115	214806	40	0
115	220344	41	0
115	225882	42	0
115	231511	43	0
115	237039	44	0
115	242567	45	0
115	248095	46	0
115	253623	47	0
115	259151	48	0
115	264768	49	0
115	270286	50	0
115	275804	51	0
115	281322	52	0
115	286840	53	0
115	292450	54	0
115	297958	55	0
115	303466	56	0
115	308974	57	0
115	314482	58	0
115	320081	59	0
115	325579	60	0
115	331077	61	0
115	336575	62	0
115	342073	63	0
115	347658	64	0
115	353146	65	0
115	358634	66	0
115	364122	67	0
115	369701	68	0
115	375179	69	0
115	380657	70	0
115	386135	71	0
115	391613	72	0
115	397827	73	0
115	403295	74	0
115	408763	75	0
115	414231	76	0
115	419699	77	0
115	425167	78	0
115	430635	79	0
115	436103	80	0
115	441571	81	0
115	447039	82	0
115	452507	83	0
115	457975	84	0
115	463443	85	0
115	468911	86	0
115	474379	87	0
115	479847	88	0
115	485315	89	0
115	490783	90	0
115	496251	91	0
115	501719	92	0
115	507187	93	0
115	512655	94	0
115	518123	95	0
115	523591	96	0
115	529059	97	0
115	534527	98	0
115	539995	99	0
115	545463	100	0

