version 3
run BreakRanksNoGui-591-20240710-17:12:24-270183
attr configname BreakRanksNoGui
attr datetime 20240710-17:12:24
attr datetimef 20240710-171224
attr experiment BreakRanksNoGui
attr inifile omnetpp.ini
attr iterationvars "$nCars=3, $platoonSize=2, $nLanes=1, $ploegH=0.5, $controller=1, $headway=0.1, $leaderHeadway=1.2, $leaderSpeed=130, $breakRanksSafetyDistance=10, $minSpeed=120, $maxSpeed=140, $beaconInterval=0.1, $priority=4, $packetSize=200, $sController=\"CACC\", $0=2, $1=0"
attr iterationvarsd nCars=3/platoonSize=2/nLanes=1/ploegH=0.5/controller=1/headway=0.1/leaderHeadway=1.2/leaderSpeed=130/breakRanksSafetyDistance=10/minSpeed=120/maxSpeed=140/beaconInterval=0.1/priority=4/packetSize=200/sController=CACC/2/0
attr iterationvarsf nCars=3,platoonSize=2,nLanes=1,ploegH=0.5,controller=1,headway=0.1,leaderHeadway=1.2,leaderSpeed=130,breakRanksSafetyDistance=10,minSpeed=120,maxSpeed=140,beaconInterval=0.1,priority=4,packetSize=200,sController=CACC,2,0-
attr measurement "$nCars=3, $platoonSize=2, $nLanes=1, $ploegH=0.5, $controller=1, $headway=0.1, $leaderHeadway=1.2, $leaderSpeed=130, $breakRanksSafetyDistance=10, $minSpeed=120, $maxSpeed=140, $beaconInterval=0.1, $priority=4, $packetSize=200, $sController=\"CACC\", $0=2, $1=0"
attr network Highway
attr processid 270183
attr repetition 1
attr replication #1
attr resultdir results
attr runnumber 591
attr seedset 1
itervar beaconInterval 0.1
itervar breakRanksSafetyDistance 10
itervar controller 1
itervar headway 0.1
itervar leaderHeadway 1.2
itervar leaderSpeed 130
itervar maxSpeed 140
itervar minSpeed 120
itervar nCars 3
itervar nLanes 1
itervar packetSize 200
itervar platoonSize 2
itervar ploegH 0.5
itervar priority 4
itervar sController "\"CACC\""
config image-path ../../../veins/images
config repeat 10
config extends BreakRanks
config *.manager.command "\"sumo\""
config *.manager.ignoreGuiCommands true
config output-vector-file "results/BreakRanks_1_0.1_130_10_2 /result_1.vec"
config output-scalar-file "results/BreakRanks_1_0.1_130_10_2 /result_1.sca"
config extends Platooning
config *.node[*].scenario_type "\"BreakRanksScenario\""
config *.manager.command "\"sumo-gui\""
config *.node[*].scenario_type "\"SimpleScenario\""
config cmdenv-express-mode true
config cmdenv-autoflush true
config cmdenv-status-frequency 15s
config num-rngs 6
config network Highway
config debug-on-errors true
config print-undisposed true
config *.playgroundSizeX 65000m
config *.playgroundSizeY 25000m
config *.playgroundSizeZ 50m
config sim-time-limit "100 s"
config *.annotations.draw false
config *.obstacles.debug false
config *.world.useTorus false
config *.world.use2D false
config *.manager.updateInterval 0.01s
config *.manager.host "\"localhost\""
config *.manager.moduleType "\"org.car2x.plexe.PlatoonCar\""
config *.manager.moduleName "\"node\""
config *.manager.moduleDisplayString "\"\""
config *.manager.autoShutdown true
config *.manager.margin 25
config *.connectionManager.sendDirect true
config *.connectionManager.maxInterfDist 2600m
config *.connectionManager.drawMaxIntfDist false
config *.**.nic.mac1609_4.useServiceChannel false
config *.**.nic.mac1609_4.txPower 100mW
config *.**.nic.mac1609_4.bitrate 6Mbps
config *.**.nic.mac1609_4.useAcks true
config *.**.nic.mac1609_4.ackErrorRate 0.0
config *.**.nic.mac1609_4.frameErrorRate 0.0
config *.**.nic.phy80211p.minPowerLevel -94dBm
config *.**.nic.phy80211p.maxTXPower 100mW
config *.**.nic.phy80211p.useNoiseFloor true
config *.**.nic.phy80211p.noiseFloor -95dBm
config *.**.nic.phy80211p.decider "xmldoc(\"config.xml\")"
config *.**.nic.phy80211p.analogueModels "xmldoc(\"config.xml\")"
config *.**.nic.phy80211p.usePropagationDelay true
config *.node[*].mobility.x 0
config *.node[*].mobility.y 0
config *.node[*].mobility.z 1.895
config seed-set 1
config **.seed 1
config *.node[*].prot.rng-0 2
config *.node[*].appl.rng-0 3
config *.node[*].scenario.rng-0 4
config **.traffic.rng-0 5
config *.manager.configFile "\"./sumocfg/freeway.sumo.cfg\""
config *.manager.launchConfig "xmldoc(\"./sumocfg/freeway.launchd.xml\")"
config **.numberOfCars 3
config **.numberOfCarsPerPlatoon 2
config **.numberOfLanes 1
config *.node[*].helper_type "\"PositionHelper\""
config *.node[*].scenario.caccC1 0.5
config *.node[*].scenario.caccXi 1
config *.node[*].scenario.caccOmegaN "0.2 Hz"
config *.node[*].scenario.caccSpacing "2 m"
config *.node[*].scenario.engineTau "0.5 s"
config *.node[*].scenario.ploegH 0.5s
config *.node[*].scenario.ploegKp 0.2
config *.node[*].scenario.ploegKd 0.7
config *.node[*].scenario.useRealisticEngine false
config *.node[*].scenario.useControllerAcceleration true
config *.node[*].scenario.nLanes 1
config **.numericController 1
config **.headway 0.1s
config *.node[*].scenario.accHeadway 0.1s
config *.node[*].scenario.leaderHeadway 1.2s
config *.node[*].scenario.leaderSpeed 130kmph
config *.node[*].appl_type "\"SimplePlatooningApp\""
config *.node[*].appl.*.scalar-recording true
config *.node[*].appl.*.vector-recording true
config *.node[0].appl.breakRanksSafetyDistance 10m
config *.node[*].appl.minSpeed 120kmph
config *.node[*].appl.maxSpeed 140kmph
config *.node[*].protocol_type "\"SimplePlatooningBeaconing\""
config *.node[*].prot.*.scalar-recording true
config *.node[*].prot.*.vector-recording true
config *.node[*].prot.beaconingInterval 0.1s
config *.node[*].prot.priority 4
config *.node[*].prot.packetSize 200
config **.traffic_type "\"PlatoonsTrafficManager\""
config **.traffic.platoonInsertTime "1 s"
config **.traffic.platoonInsertSpeed 130kmph
config **.traffic.nCars 3
config **.traffic.platoonSize 2
config **.traffic.nLanes 1
config **.traffic.platooningVType "\"vtypeauto\""
config **.traffic.controller "\"CACC\""
config **.traffic.platoonInsertDistance 2m
config **.traffic.platoonInsertHeadway 0s
config **.traffic.platoonLeaderHeadway 1.2s
config **.scalar-recording false
config **.vector-recording false

vector 0 Highway.node[0].appl distance ETV
vector 1 Highway.node[0].appl relativeSpeed ETV
vector 2 Highway.node[0].appl nodeId ETV
vector 3 Highway.node[0].appl acceleration ETV
vector 4 Highway.node[0].appl controllerAcceleration ETV
vector 5 Highway.node[0].appl speed ETV
vector 6 Highway.node[0].appl posx ETV
vector 7 Highway.node[0].appl posy ETV
vector 8 Highway.node[1].appl distance ETV
vector 9 Highway.node[1].appl relativeSpeed ETV
vector 10 Highway.node[1].appl nodeId ETV
vector 11 Highway.node[1].appl acceleration ETV
vector 12 Highway.node[1].appl controllerAcceleration ETV
vector 13 Highway.node[1].appl speed ETV
vector 14 Highway.node[1].appl posx ETV
vector 15 Highway.node[1].appl posy ETV
vector 16 Highway.node[2].appl distance ETV
vector 17 Highway.node[2].appl relativeSpeed ETV
vector 18 Highway.node[2].appl nodeId ETV
vector 19 Highway.node[2].appl acceleration ETV
vector 20 Highway.node[2].appl controllerAcceleration ETV
vector 21 Highway.node[2].appl speed ETV
vector 22 Highway.node[2].appl posx ETV
vector 23 Highway.node[2].appl posy ETV
vector 24 Highway.node[1].prot leaderDelay ETV
vector 25 Highway.node[1].prot leaderDelayId ETV
vector 26 Highway.node[1].prot frontDelay ETV
vector 27 Highway.node[1].prot frontDelayId ETV
vector 28 Highway.node[0].prot nodeId ETV
vector 29 Highway.node[0].prot busyTime ETV
vector 30 Highway.node[0].prot collisions ETV
vector 31 Highway.node[1].prot nodeId ETV
vector 32 Highway.node[1].prot busyTime ETV
vector 33 Highway.node[1].prot collisions ETV
vector 34 Highway.node[2].prot nodeId ETV
vector 35 Highway.node[2].prot busyTime ETV
vector 36 Highway.node[2].prot collisions ETV
0	113	1.11	9341.16
0	172	1.21	9341.16
0	231	1.31	9341.16
0	290	1.41	9341.16
0	349	1.51	9341.16
0	408	1.61	9341.16
0	467	1.71	9341.16
0	526	1.81	9341.16
0	585	1.91	9341.16
0	647	2.01	9341.16
0	706	2.11	9341.16
0	765	2.21	-1
0	824	2.31	-1
0	883	2.41	-1
0	942	2.51	-1
0	1001	2.61	-1
0	1060	2.71	-1
0	1119	2.81	-1
0	1178	2.91	-1
0	1240	3.01	-1
0	1299	3.11	-1
0	1358	3.21	-1
0	1417	3.31	-1
0	1476	3.41	-1
0	1535	3.51	-1
0	1594	3.61	-1
0	1653	3.71	-1
0	1712	3.81	-1
0	1771	3.91	-1
0	1833	4.01	-1
0	1892	4.11	-1
0	1951	4.21	-1
0	2010	4.31	-1
0	2069	4.41	-1
0	2128	4.51	-1
0	2187	4.61	-1
0	2246	4.71	-1
0	2305	4.81	-1
0	2364	4.91	-1
0	2426	5.01	-1
0	2485	5.11	-1
0	2544	5.21	-1
0	2603	5.31	-1
0	2662	5.41	-1
0	2721	5.51	-1
0	2780	5.61	-1
0	2839	5.71	-1
0	2898	5.81	-1
0	2957	5.91	-1
0	3019	6.01	-1
0	3078	6.11	-1
0	3137	6.21	-1
0	3196	6.31	-1
0	3255	6.41	-1
0	3314	6.51	-1
0	3373	6.61	-1
0	3432	6.71	-1
0	3491	6.81	-1
0	3550	6.91	-1
0	3612	7.01	-1
0	3671	7.11	-1
0	3730	7.21	-1
0	3789	7.31	-1
0	3848	7.41	-1
0	3907	7.51	-1
0	3966	7.61	-1
0	4025	7.71	-1
0	4084	7.81	-1
0	4143	7.91	-1
0	4205	8.01	-1
0	4264	8.11	-1
0	4323	8.21	-1
0	4382	8.31	-1
0	4441	8.41	-1
0	4500	8.51	-1
0	4559	8.61	-1
0	4618	8.71	-1
0	4677	8.81	-1
0	4736	8.91	-1
0	4798	9.01	-1
0	4857	9.11	-1
0	4916	9.21	-1
0	4975	9.31	-1
0	5034	9.41	-1
0	5093	9.51	-1
0	5152	9.61	-1
0	5211	9.71	-1
0	5270	9.81	-1
0	5329	9.91	-1
0	5422	10.01	-1
0	5482	10.11	-1
0	5542	10.21	-1
0	5602	10.31	-1
0	5662	10.41	-1
0	5722	10.51	-1
0	5782	10.61	-1
0	5842	10.71	-1
0	5902	10.81	-1
0	5962	10.91	-1
0	6025	11.01	-1
0	6085	11.11	-1
0	6145	11.21	-1
0	6205	11.31	-1
0	6265	11.41	-1
0	6325	11.51	-1
0	6385	11.61	-1
0	6445	11.71	-1
0	6505	11.81	-1
0	6565	11.91	-1
0	6628	12.01	-1
0	6688	12.11	-1
0	6748	12.21	-1
0	6808	12.31	-1
0	6868	12.41	-1
0	6928	12.51	-1
0	6988	12.61	-1
0	7048	12.71	-1
0	7108	12.81	-1
0	7168	12.91	-1
0	7231	13.01	-1
0	7291	13.11	-1
0	7351	13.21	-1
0	7411	13.31	-1
0	7471	13.41	-1
0	7531	13.51	-1
0	7591	13.61	-1
0	7651	13.71	-1
0	7711	13.81	-1
0	7771	13.91	-1
0	7834	14.01	-1
0	7894	14.11	-1
0	7954	14.21	-1
0	8014	14.31	-1
0	8074	14.41	-1
0	8134	14.51	-1
0	8194	14.61	-1
0	8254	14.71	-1
0	8314	14.81	-1
0	8374	14.91	-1
0	8437	15.01	-1
0	8497	15.11	-1
0	8557	15.21	-1
0	8617	15.31	-1
0	8677	15.41	-1
0	8737	15.51	-1
0	8797	15.61	-1
0	8857	15.71	-1
0	8917	15.81	-1
0	8977	15.91	-1
0	9040	16.01	-1
0	9100	16.11	-1
0	9160	16.21	-1
0	9220	16.31	-1
0	9280	16.41	-1
0	9340	16.51	-1
0	9400	16.61	-1
0	9460	16.71	-1
0	9520	16.81	-1
0	9580	16.91	-1
0	9643	17.01	-1
0	9703	17.11	-1
0	9763	17.21	-1
0	9823	17.31	-1
0	9883	17.41	-1
0	9943	17.51	-1
0	10003	17.61	-1
0	10063	17.71	-1
0	10123	17.81	-1
0	10183	17.91	-1
0	10246	18.01	-1
0	10306	18.11	-1
0	10366	18.21	-1
0	10426	18.31	-1
0	10486	18.41	-1
0	10546	18.51	-1
0	10606	18.61	-1
0	10666	18.71	-1
0	10726	18.81	-1
0	10786	18.91	-1
0	10849	19.01	-1
0	10909	19.11	-1
0	10969	19.21	-1
0	11029	19.31	-1
0	11089	19.41	-1
0	11149	19.51	-1
0	11209	19.61	-1
0	11269	19.71	-1
0	11329	19.81	-1
0	11389	19.91	-1
0	11452	20.01	-1
0	11512	20.11	-1
0	11572	20.21	-1
0	11632	20.31	-1
0	11692	20.41	-1
0	11752	20.51	-1
0	11812	20.61	-1
0	11872	20.71	-1
0	11932	20.81	-1
0	11992	20.91	-1
0	12055	21.01	-1
0	12115	21.11	-1
0	12175	21.21	-1
0	12235	21.31	-1
0	12295	21.41	-1
0	12355	21.51	-1
0	12415	21.61	-1
0	12475	21.71	-1
0	12535	21.81	-1
0	12595	21.91	-1
0	12658	22.01	-1
0	12718	22.11	-1
0	12778	22.21	-1
0	12838	22.31	-1
0	12898	22.41	-1
0	12958	22.51	-1
0	13018	22.61	-1
0	13078	22.71	-1
0	13138	22.81	-1
0	13198	22.91	-1
0	13261	23.01	-1
0	13321	23.11	-1
0	13381	23.21	-1
0	13441	23.31	-1
0	13501	23.41	-1
0	13561	23.51	-1
0	13621	23.61	-1
0	13681	23.71	-1
0	13741	23.81	-1
0	13801	23.91	-1
0	13864	24.01	-1
0	13924	24.11	-1
0	13984	24.21	-1
0	14044	24.31	-1
0	14104	24.41	-1
0	14164	24.51	-1
0	14224	24.61	-1
0	14284	24.71	-1
0	14344	24.81	-1
0	14404	24.91	-1
0	14467	25.01	-1
0	14527	25.11	-1
0	14587	25.21	-1
0	14647	25.31	-1
0	14707	25.41	-1
0	14767	25.51	-1
0	14827	25.61	-1
0	14887	25.71	-1
0	14947	25.81	-1
0	15007	25.91	-1
0	15070	26.01	-1
0	15130	26.11	-1
0	15190	26.21	-1
0	15250	26.31	-1
0	15310	26.41	-1
0	15370	26.51	-1
0	15430	26.61	-1
0	15490	26.71	-1
0	15550	26.81	-1
0	15610	26.91	-1
0	15673	27.01	-1
0	15733	27.11	-1
0	15793	27.21	-1
0	15853	27.31	-1
0	15913	27.41	-1
0	15973	27.51	-1
0	16033	27.61	-1
0	16093	27.71	-1
0	16153	27.81	-1
0	16213	27.91	-1
0	16276	28.01	-1
0	16336	28.11	-1
0	16396	28.21	-1
0	16456	28.31	-1
0	16516	28.41	-1
0	16576	28.51	-1
0	16636	28.61	-1
0	16696	28.71	-1
0	16756	28.81	-1
0	16816	28.91	-1
0	16879	29.01	-1
0	16939	29.11	-1
0	16999	29.21	-1
0	17059	29.31	-1
0	17119	29.41	-1
0	17179	29.51	-1
0	17239	29.61	-1
0	17299	29.71	-1
0	17359	29.81	-1
0	17419	29.91	-1
0	17482	30.01	-1
0	17542	30.11	-1
0	17602	30.21	-1
0	17662	30.31	-1
0	17722	30.41	-1
0	17782	30.51	-1
0	17842	30.61	-1
0	17902	30.71	-1
0	17962	30.81	-1
0	18022	30.91	-1
0	18085	31.01	-1
0	18145	31.11	-1
0	18205	31.21	-1
0	18265	31.31	-1
0	18325	31.41	-1
0	18385	31.51	-1
0	18445	31.61	-1
0	18505	31.71	-1
0	18565	31.81	-1
0	18625	31.91	-1
0	18688	32.01	-1
0	18748	32.11	-1
0	18808	32.21	-1
0	18868	32.31	-1
0	18928	32.41	-1
0	18988	32.51	-1
0	19048	32.61	-1
0	19108	32.71	-1
0	19168	32.81	-1
0	19228	32.91	-1
0	19291	33.01	-1
0	19351	33.11	-1
0	19411	33.21	-1
0	19471	33.31	-1
0	19531	33.41	-1
0	19591	33.51	-1
0	19651	33.61	-1
0	19711	33.71	-1
0	19771	33.81	-1
0	19831	33.91	-1
0	19894	34.01	-1
0	19954	34.11	-1
0	20014	34.21	-1
0	20074	34.31	-1
0	20134	34.41	-1
0	20194	34.51	-1
0	20254	34.61	-1
0	20314	34.71	-1
0	20374	34.81	-1
0	20434	34.91	-1
0	20497	35.01	-1
0	20557	35.11	-1
0	20617	35.21	-1
0	20677	35.31	-1
0	20737	35.41	-1
0	20797	35.51	-1
0	20857	35.61	-1
0	20917	35.71	-1
0	20977	35.81	-1
0	21037	35.91	-1
0	21100	36.01	-1
0	21160	36.11	-1
0	21220	36.21	-1
0	21280	36.31	-1
0	21340	36.41	-1
0	21400	36.51	-1
0	21460	36.61	-1
0	21520	36.71	-1
0	21580	36.81	-1
0	21640	36.91	-1
0	21703	37.01	-1
0	21763	37.11	-1
0	21823	37.21	-1
0	21883	37.31	-1
0	21943	37.41	-1
0	22003	37.51	-1
0	22063	37.61	-1
0	22123	37.71	-1
0	22183	37.81	-1
0	22243	37.91	-1
0	22306	38.01	-1
0	22366	38.11	-1
0	22426	38.21	-1
0	22486	38.31	-1
0	22546	38.41	-1
0	22606	38.51	-1
0	22666	38.61	-1
0	22726	38.71	-1
0	22786	38.81	-1
0	22846	38.91	-1
0	22909	39.01	-1
0	22969	39.11	-1
0	23029	39.21	-1
0	23089	39.31	-1
0	23149	39.41	-1
0	23209	39.51	-1
0	23269	39.61	-1
0	23329	39.71	-1
0	23389	39.81	-1
0	23449	39.91	-1
0	23512	40.01	-1
0	23572	40.11	-1
0	23632	40.21	-1
0	23692	40.31	-1
0	23752	40.41	-1
0	23812	40.51	-1
0	23872	40.61	-1
0	23932	40.71	-1
0	23992	40.81	-1
0	24052	40.91	-1
0	24115	41.01	-1
0	24175	41.11	-1
0	24235	41.21	-1
0	24295	41.31	-1
0	24355	41.41	-1
0	24415	41.51	-1
0	24475	41.61	-1
0	24535	41.71	-1
0	24595	41.81	-1
0	24655	41.91	-1
0	24718	42.01	-1
0	24778	42.11	-1
0	24838	42.21	-1
0	24898	42.31	-1
0	24958	42.41	-1
0	25018	42.51	-1
0	25078	42.61	-1
0	25204	42.71	-1
0	25263	42.81	-1
0	25322	42.91	-1
0	25384	43.01	-1
0	25443	43.11	-1
0	25502	43.21	-1
0	25561	43.31	-1
0	25620	43.41	-1
0	25679	43.51	-1
0	25738	43.61	-1
0	25797	43.71	-1
0	25856	43.81	-1
0	25915	43.91	-1
0	25977	44.01	-1
0	26036	44.11	-1
0	26095	44.21	-1
0	26154	44.31	-1
0	26213	44.41	-1
0	26272	44.51	-1
0	26331	44.61	-1
0	26390	44.71	-1
0	26449	44.81	-1
0	26508	44.91	-1
0	26570	45.01	-1
0	26629	45.11	-1
0	26688	45.21	-1
0	26747	45.31	-1
0	26806	45.41	-1
0	26865	45.51	-1
0	26924	45.61	-1
0	26983	45.71	-1
0	27042	45.81	-1
0	27101	45.91	-1
0	27163	46.01	-1
0	27222	46.11	-1
0	27281	46.21	-1
0	27340	46.31	-1
0	27399	46.41	-1
0	27458	46.51	-1
0	27517	46.61	-1
0	27576	46.71	-1
0	27635	46.81	-1
0	27694	46.91	-1
0	27756	47.01	-1
0	27815	47.11	-1
0	27874	47.21	-1
0	27933	47.31	-1
0	27992	47.41	-1
0	28051	47.51	-1
0	28110	47.61	-1
0	28169	47.71	-1
0	28228	47.81	-1
0	28287	47.91	-1
0	28349	48.01	-1
0	28408	48.11	-1
0	28467	48.21	-1
0	28526	48.31	-1
0	28585	48.41	-1
0	28644	48.51	-1
0	28703	48.61	-1
0	28762	48.71	-1
0	28821	48.81	-1
0	28880	48.91	-1
0	28942	49.01	-1
0	29001	49.11	-1
0	29060	49.21	-1
0	29119	49.31	-1
0	29178	49.41	-1
0	29237	49.51	-1
0	29296	49.61	-1
0	29355	49.71	-1
0	29414	49.81	-1
0	29473	49.91	-1
0	29535	50.01	-1
0	29594	50.11	-1
0	29653	50.21	-1
0	29712	50.31	-1
0	29771	50.41	-1
0	29830	50.51	-1
0	29889	50.61	-1
0	29948	50.71	-1
0	30007	50.81	-1
0	30066	50.91	-1
0	30128	51.01	-1
0	30187	51.11	-1
0	30246	51.21	-1
0	30305	51.31	-1
0	30364	51.41	-1
0	30423	51.51	-1
0	30482	51.61	-1
0	30541	51.71	-1
0	30600	51.81	-1
0	30659	51.91	-1
0	30721	52.01	-1
0	30780	52.11	-1
0	30839	52.21	-1
0	30898	52.31	-1
0	30957	52.41	-1
0	31016	52.51	-1
0	31075	52.61	-1
0	31134	52.71	-1
0	31193	52.81	-1
0	31252	52.91	-1
0	31314	53.01	-1
0	31373	53.11	-1
0	31432	53.21	-1
0	31491	53.31	-1
0	31550	53.41	-1
0	31609	53.51	-1
0	31668	53.61	-1
0	31727	53.71	-1
0	31786	53.81	-1
0	31845	53.91	-1
0	31907	54.01	-1
0	31966	54.11	-1
0	32025	54.21	-1
0	32084	54.31	-1
0	32143	54.41	-1
0	32202	54.51	-1
0	32261	54.61	-1
0	32320	54.71	-1
0	32379	54.81	-1
0	32438	54.91	-1
0	32500	55.01	-1
0	32559	55.11	-1
0	32618	55.21	-1
0	32677	55.31	-1
0	32736	55.41	-1
0	32795	55.51	-1
0	32854	55.61	-1
0	32913	55.71	-1
0	32972	55.81	-1
0	33031	55.91	-1
0	33093	56.01	-1
0	33152	56.11	-1
0	33211	56.21	-1
0	33270	56.31	-1
0	33329	56.41	-1
0	33388	56.51	-1
0	33447	56.61	-1
0	33506	56.71	-1
0	33565	56.81	-1
0	33624	56.91	-1
0	33686	57.01	-1
0	33745	57.11	-1
0	33804	57.21	-1
0	33863	57.31	-1
0	33922	57.41	-1
0	33981	57.51	-1
0	34040	57.61	-1
0	34099	57.71	-1
0	34158	57.81	-1
0	34217	57.91	-1
0	34279	58.01	-1
0	34338	58.11	-1
0	34397	58.21	-1
0	34456	58.31	-1
0	34515	58.41	-1
0	34574	58.51	-1
0	34633	58.61	-1
0	34692	58.71	-1
0	34751	58.81	-1
0	34810	58.91	-1
0	34872	59.01	-1
0	34931	59.11	-1
0	34990	59.21	-1
0	35049	59.31	-1
0	35108	59.41	-1
0	35167	59.51	-1
0	35226	59.61	-1
0	35285	59.71	-1
0	35344	59.81	-1
0	35403	59.91	-1
0	35465	60.01	-1
0	35524	60.11	-1
0	35583	60.21	-1
0	35642	60.31	-1
0	35701	60.41	-1
0	35760	60.51	-1
0	35819	60.61	-1
0	35878	60.71	-1
0	35937	60.81	-1
0	35996	60.91	-1
0	36058	61.01	-1
0	36117	61.11	-1
0	36176	61.21	-1
0	36235	61.31	-1
0	36294	61.41	-1
0	36353	61.51	-1
0	36412	61.61	-1
0	36471	61.71	-1
0	36530	61.81	-1
0	36589	61.91	-1
0	36651	62.01	-1
0	36710	62.11	-1
0	36769	62.21	-1
0	36828	62.31	-1
0	36887	62.41	-1
0	36946	62.51	-1
0	37005	62.61	-1
0	37064	62.71	-1
0	37123	62.81	-1
0	37182	62.91	-1
0	37244	63.01	-1
0	37303	63.11	-1
0	37362	63.21	-1
0	37421	63.31	-1
0	37480	63.41	-1
0	37539	63.51	-1
0	37598	63.61	-1
0	37657	63.71	-1
0	37716	63.81	-1
0	37775	63.91	-1
0	37837	64.01	-1
0	37896	64.11	-1
0	37955	64.21	-1
0	38014	64.31	-1
0	38073	64.41	-1
0	38132	64.51	-1
0	38191	64.61	-1
0	38250	64.71	-1
0	38309	64.81	-1
0	38368	64.91	-1
0	38430	65.01	-1
0	38489	65.11	-1
0	38548	65.21	-1
0	38607	65.31	-1
0	38666	65.41	-1
0	38725	65.51	-1
0	38784	65.61	-1
0	38843	65.71	-1
0	38902	65.81	-1
0	38961	65.91	-1
0	39023	66.01	-1
0	39082	66.11	-1
0	39141	66.21	-1
0	39200	66.31	-1
0	39259	66.41	-1
0	39318	66.51	-1
0	39377	66.61	-1
0	39436	66.71	-1
0	39495	66.81	-1
0	39554	66.91	-1
0	39616	67.01	-1
0	39675	67.11	-1
0	39734	67.21	-1
0	39793	67.31	-1
0	39852	67.41	-1
0	39911	67.51	-1
0	39970	67.61	-1
0	40029	67.71	-1
0	40088	67.81	-1
0	40147	67.91	-1
0	40209	68.01	-1
0	40268	68.11	-1
0	40327	68.21	-1
0	40386	68.31	-1
0	40445	68.41	-1
0	40504	68.51	-1
0	40563	68.61	-1
0	40622	68.71	-1
0	40681	68.81	-1
0	40740	68.91	-1
0	40802	69.01	-1
0	40861	69.11	-1
0	40920	69.21	-1
0	40979	69.31	-1
0	41038	69.41	-1
0	41097	69.51	-1
0	41156	69.61	-1
0	41215	69.71	-1
0	41274	69.81	-1
0	41333	69.91	-1
0	41395	70.01	-1
0	41454	70.11	-1
0	41513	70.21	-1
0	41572	70.31	-1
0	41631	70.41	-1
0	41690	70.51	-1
0	41749	70.61	-1
0	41808	70.71	-1
0	41867	70.81	-1
0	41926	70.91	-1
0	41988	71.01	-1
0	42047	71.11	-1
0	42106	71.21	-1
0	42165	71.31	-1
0	42224	71.41	-1
0	42283	71.51	-1
0	42342	71.61	-1
0	42401	71.71	-1
0	42460	71.81	-1
0	42519	71.91	-1
0	42581	72.01	-1
0	42640	72.11	-1
0	42699	72.21	-1
0	42758	72.31	-1
0	42817	72.41	-1
0	42876	72.51	-1
0	42935	72.61	-1
0	42994	72.71	-1
0	43053	72.81	-1
0	43112	72.91	-1
0	43174	73.01	-1
0	43233	73.11	-1
0	43292	73.21	-1
0	43351	73.31	-1
0	43410	73.41	-1
0	43469	73.51	-1
0	43528	73.61	-1
0	43587	73.71	-1
0	43646	73.81	-1
0	43705	73.91	-1
0	43767	74.01	-1
0	43826	74.11	-1
0	43885	74.21	-1
0	43944	74.31	-1
0	44003	74.41	-1
0	44062	74.51	-1
0	44121	74.61	-1
0	44180	74.71	-1
0	44239	74.81	-1
0	44298	74.91	-1
0	44360	75.01	-1
0	44419	75.11	-1
0	44478	75.21	-1
0	44537	75.31	-1
0	44596	75.41	-1
0	44655	75.51	-1
0	44714	75.61	-1
0	44773	75.71	-1
0	44832	75.81	-1
0	44891	75.91	-1
0	44953	76.01	-1
0	45012	76.11	-1
0	45071	76.21	-1
0	45130	76.31	-1
0	45189	76.41	-1
0	45248	76.51	-1
0	45307	76.61	-1
0	45366	76.71	-1
0	45425	76.81	-1
0	45484	76.91	-1
0	45546	77.01	-1
0	45605	77.11	-1
0	45664	77.21	-1
0	45723	77.31	-1
0	45782	77.41	-1
0	45841	77.51	-1
0	45900	77.61	-1
0	45959	77.71	-1
0	46018	77.81	-1
0	46077	77.91	-1
0	46139	78.01	-1
0	46198	78.11	-1
0	46257	78.21	-1
0	46316	78.31	-1
0	46375	78.41	-1
0	46434	78.51	-1
0	46493	78.61	-1
0	46552	78.71	-1
0	46611	78.81	-1
0	46670	78.91	-1
0	46732	79.01	-1
0	46791	79.11	-1
0	46850	79.21	-1
0	46909	79.31	-1
0	46968	79.41	-1
0	47027	79.51	-1
0	47086	79.61	-1
0	47145	79.71	-1
0	47204	79.81	-1
0	47263	79.91	-1
0	47325	80.01	-1
0	47384	80.11	-1
0	47443	80.21	-1
0	47502	80.31	-1
0	47561	80.41	-1
0	47620	80.51	-1
0	47679	80.61	-1
0	47738	80.71	-1
0	47797	80.81	-1
0	47856	80.91	-1
0	47918	81.01	-1
0	47977	81.11	-1
0	48036	81.21	-1
0	48095	81.31	-1
0	48154	81.41	-1
0	48213	81.51	-1
0	48272	81.61	-1
0	48331	81.71	-1
0	48390	81.81	-1
0	48449	81.91	-1
0	48511	82.01	-1
0	48570	82.11	-1
0	48629	82.21	-1
0	48688	82.31	-1
0	48747	82.41	-1
0	48806	82.51	-1
0	48865	82.61	-1
0	48924	82.71	-1
0	48983	82.81	-1
0	49042	82.91	-1
0	49104	83.01	-1
0	49163	83.11	-1
0	49222	83.21	-1
0	49281	83.31	-1
0	49340	83.41	-1
0	49399	83.51	-1
0	49458	83.61	-1
0	49517	83.71	-1
0	49576	83.81	-1
0	49635	83.91	-1
0	49697	84.01	-1
0	49756	84.11	-1
0	49815	84.21	-1
0	49874	84.31	-1
0	49933	84.41	-1
0	49992	84.51	-1
0	50051	84.61	-1
0	50110	84.71	-1
0	50169	84.81	-1
0	50228	84.91	-1
0	50290	85.01	-1
0	50349	85.11	-1
0	50408	85.21	-1
0	50467	85.31	-1
0	50526	85.41	-1
0	50585	85.51	-1
0	50644	85.61	-1
0	50703	85.71	-1
0	50762	85.81	-1
0	50821	85.91	-1
0	50883	86.01	-1
0	50942	86.11	-1
0	51001	86.21	-1
0	51060	86.31	-1
0	51119	86.41	-1
0	51178	86.51	-1
0	51237	86.61	-1
0	51296	86.71	-1
0	51355	86.81	-1
0	51414	86.91	-1
0	51476	87.01	-1
0	51535	87.11	-1
0	51594	87.21	-1
0	51653	87.31	-1
0	51712	87.41	-1
0	51771	87.51	-1
0	51830	87.61	-1
0	51889	87.71	-1
0	51948	87.81	-1
0	52007	87.91	-1
0	52069	88.01	-1
0	52128	88.11	-1
0	52187	88.21	-1
0	52246	88.31	-1
0	52305	88.41	-1
0	52364	88.51	-1
0	52423	88.61	-1
0	52482	88.71	-1
0	52541	88.81	-1
0	52600	88.91	-1
0	52662	89.01	-1
0	52721	89.11	-1
0	52780	89.21	-1
0	52839	89.31	-1
0	52898	89.41	-1
0	52957	89.51	-1
0	53016	89.61	-1
0	53075	89.71	-1
0	53134	89.81	-1
0	53193	89.91	-1
0	53255	90.01	-1
0	53314	90.11	-1
0	53373	90.21	-1
0	53432	90.31	-1
0	53491	90.41	-1
0	53550	90.51	-1
0	53609	90.61	-1
0	53668	90.71	-1
0	53727	90.81	-1
0	53786	90.91	-1
0	53848	91.01	-1
0	53907	91.11	-1
0	53966	91.21	-1
0	54025	91.31	-1
0	54084	91.41	-1
0	54143	91.51	-1
0	54202	91.61	-1
0	54261	91.71	-1
0	54320	91.81	-1
0	54379	91.91	-1
0	54441	92.01	-1
0	54500	92.11	-1
0	54559	92.21	-1
0	54618	92.31	-1
0	54677	92.41	-1
0	54736	92.51	-1
0	54795	92.61	-1
0	54854	92.71	-1
0	54913	92.81	-1
0	54972	92.91	-1
0	55034	93.01	-1
0	55093	93.11	-1
0	55152	93.21	-1
0	55211	93.31	-1
0	55270	93.41	-1
0	55329	93.51	-1
0	55388	93.61	-1
0	55447	93.71	-1
0	55506	93.81	-1
0	55565	93.91	-1
0	55627	94.01	-1
0	55686	94.11	-1
0	55745	94.21	-1
0	55804	94.31	-1
0	55863	94.41	-1
0	55922	94.51	-1
0	55981	94.61	-1
0	56040	94.71	-1
0	56099	94.81	-1
0	56158	94.91	-1
0	56220	95.01	-1
0	56279	95.11	-1
0	56338	95.21	-1
0	56397	95.31	-1
0	56456	95.41	-1
0	56515	95.51	-1
0	56574	95.61	-1
0	56633	95.71	-1
0	56692	95.81	-1
0	56751	95.91	-1
0	56813	96.01	-1
0	56872	96.11	-1
0	56931	96.21	-1
0	56990	96.31	-1
0	57049	96.41	-1
0	57108	96.51	-1
0	57167	96.61	-1
0	57226	96.71	-1
0	57285	96.81	-1
0	57344	96.91	-1
0	57406	97.01	-1
0	57465	97.11	-1
0	57524	97.21	-1
0	57583	97.31	-1
0	57642	97.41	-1
0	57701	97.51	-1
0	57760	97.61	-1
0	57819	97.71	-1
0	57878	97.81	-1
0	57937	97.91	-1
0	57999	98.01	-1
0	58058	98.11	-1
0	58117	98.21	-1
0	58176	98.31	-1
0	58235	98.41	-1
0	58294	98.51	-1
0	58353	98.61	-1
0	58412	98.71	-1
0	58471	98.81	-1
0	58530	98.91	-1
0	58592	99.01	-1
0	58651	99.11	-1
0	58710	99.21	-1
0	58769	99.31	-1
0	58828	99.41	-1
0	58887	99.51	-1
0	58946	99.61	-1
0	59005	99.71	-1
0	59064	99.81	-1
0	59123	99.91	-1
1	113	1.11	0
1	172	1.21	0
1	231	1.31	0
1	290	1.41	0
1	349	1.51	0
1	408	1.61	0
1	467	1.71	0
1	526	1.81	0
1	585	1.91	0
1	647	2.01	0
1	706	2.11	0
1	765	2.21	0
1	824	2.31	0
1	883	2.41	0
1	942	2.51	0
1	1001	2.61	0
1	1060	2.71	0
1	1119	2.81	0
1	1178	2.91	0
1	1240	3.01	0
1	1299	3.11	0
1	1358	3.21	0
1	1417	3.31	0
1	1476	3.41	0
1	1535	3.51	0
1	1594	3.61	0
1	1653	3.71	0
1	1712	3.81	0
1	1771	3.91	0
1	1833	4.01	0
1	1892	4.11	0
1	1951	4.21	0
1	2010	4.31	0
1	2069	4.41	0
1	2128	4.51	0
1	2187	4.61	0
1	2246	4.71	0
1	2305	4.81	0
1	2364	4.91	0
1	2426	5.01	0
1	2485	5.11	0
1	2544	5.21	0
1	2603	5.31	0
1	2662	5.41	0
1	2721	5.51	0
1	2780	5.61	0
1	2839	5.71	0
1	2898	5.81	0
1	2957	5.91	0
1	3019	6.01	0
1	3078	6.11	0
1	3137	6.21	0
1	3196	6.31	0
1	3255	6.41	0
1	3314	6.51	0
1	3373	6.61	0
1	3432	6.71	0
1	3491	6.81	0
1	3550	6.91	0
1	3612	7.01	0
1	3671	7.11	0
1	3730	7.21	0
1	3789	7.31	0
1	3848	7.41	0
1	3907	7.51	0
1	3966	7.61	0
1	4025	7.71	0
1	4084	7.81	0
1	4143	7.91	0
1	4205	8.01	0
1	4264	8.11	0
1	4323	8.21	0
1	4382	8.31	0
1	4441	8.41	0
1	4500	8.51	0
1	4559	8.61	0
1	4618	8.71	0
1	4677	8.81	0
1	4736	8.91	0
1	4798	9.01	0
1	4857	9.11	0
1	4916	9.21	0
1	4975	9.31	0
1	5034	9.41	0
1	5093	9.51	0
1	5152	9.61	0
1	5211	9.71	0
1	5270	9.81	0
1	5329	9.91	0
1	5422	10.01	0
1	5482	10.11	0
1	5542	10.21	0
1	5602	10.31	0
1	5662	10.41	0
1	5722	10.51	0
1	5782	10.61	0
1	5842	10.71	0
1	5902	10.81	0
1	5962	10.91	0
1	6025	11.01	0
1	6085	11.11	0
1	6145	11.21	0
1	6205	11.31	0
1	6265	11.41	0
1	6325	11.51	0
1	6385	11.61	0
1	6445	11.71	0
1	6505	11.81	0
1	6565	11.91	0
1	6628	12.01	0
1	6688	12.11	0
1	6748	12.21	0
1	6808	12.31	0
1	6868	12.41	0
1	6928	12.51	0
1	6988	12.61	0
1	7048	12.71	0
1	7108	12.81	0
1	7168	12.91	0
1	7231	13.01	0
1	7291	13.11	0
1	7351	13.21	0
1	7411	13.31	0
1	7471	13.41	0
1	7531	13.51	0
1	7591	13.61	0
1	7651	13.71	0
1	7711	13.81	0
1	7771	13.91	0
1	7834	14.01	0
1	7894	14.11	0
1	7954	14.21	0
1	8014	14.31	0
1	8074	14.41	0
1	8134	14.51	0
1	8194	14.61	0
1	8254	14.71	0
1	8314	14.81	0
1	8374	14.91	0
1	8437	15.01	0
1	8497	15.11	0
1	8557	15.21	0
1	8617	15.31	0
1	8677	15.41	0
1	8737	15.51	0
1	8797	15.61	0
1	8857	15.71	0
1	8917	15.81	0
1	8977	15.91	0
1	9040	16.01	0
1	9100	16.11	0
1	9160	16.21	0
1	9220	16.31	0
1	9280	16.41	0
1	9340	16.51	0
1	9400	16.61	0
1	9460	16.71	0
1	9520	16.81	0
1	9580	16.91	0
1	9643	17.01	0
1	9703	17.11	0
1	9763	17.21	0
1	9823	17.31	0
1	9883	17.41	0
1	9943	17.51	0
1	10003	17.61	0
1	10063	17.71	0
1	10123	17.81	0
1	10183	17.91	0
1	10246	18.01	0
1	10306	18.11	0
1	10366	18.21	0
1	10426	18.31	0
1	10486	18.41	0
1	10546	18.51	0
1	10606	18.61	0
1	10666	18.71	0
1	10726	18.81	0
1	10786	18.91	0
1	10849	19.01	0
1	10909	19.11	0
1	10969	19.21	0
1	11029	19.31	0
1	11089	19.41	0
1	11149	19.51	0
1	11209	19.61	0
1	11269	19.71	0
1	11329	19.81	0
1	11389	19.91	0
1	11452	20.01	0
1	11512	20.11	0
1	11572	20.21	0
1	11632	20.31	0
1	11692	20.41	0
1	11752	20.51	0
1	11812	20.61	0
1	11872	20.71	0
1	11932	20.81	0
1	11992	20.91	0
1	12055	21.01	0
1	12115	21.11	0
1	12175	21.21	0
1	12235	21.31	0
1	12295	21.41	0
1	12355	21.51	0
1	12415	21.61	0
1	12475	21.71	0
1	12535	21.81	0
1	12595	21.91	0
1	12658	22.01	0
1	12718	22.11	0
1	12778	22.21	0
1	12838	22.31	0
1	12898	22.41	0
1	12958	22.51	0
1	13018	22.61	0
1	13078	22.71	0
1	13138	22.81	0
1	13198	22.91	0
1	13261	23.01	0
1	13321	23.11	0
1	13381	23.21	0
1	13441	23.31	0
1	13501	23.41	0
1	13561	23.51	0
1	13621	23.61	0
1	13681	23.71	0
1	13741	23.81	0
1	13801	23.91	0
1	13864	24.01	0
1	13924	24.11	0
1	13984	24.21	0
1	14044	24.31	0
1	14104	24.41	0
1	14164	24.51	0
1	14224	24.61	0
1	14284	24.71	0
1	14344	24.81	0
1	14404	24.91	0
1	14467	25.01	0
1	14527	25.11	0
1	14587	25.21	0
1	14647	25.31	0
1	14707	25.41	0
1	14767	25.51	0
1	14827	25.61	0
1	14887	25.71	0
1	14947	25.81	0
1	15007	25.91	0
1	15070	26.01	0
1	15130	26.11	0
1	15190	26.21	0
1	15250	26.31	0
1	15310	26.41	0
1	15370	26.51	0
1	15430	26.61	0
1	15490	26.71	0
1	15550	26.81	0
1	15610	26.91	0
1	15673	27.01	0
1	15733	27.11	0
1	15793	27.21	0
1	15853	27.31	0
1	15913	27.41	0
1	15973	27.51	0
1	16033	27.61	0
1	16093	27.71	0
1	16153	27.81	0
1	16213	27.91	0
1	16276	28.01	0
1	16336	28.11	0
1	16396	28.21	0
1	16456	28.31	0
1	16516	28.41	0
1	16576	28.51	0
1	16636	28.61	0
1	16696	28.71	0
1	16756	28.81	0
1	16816	28.91	0
1	16879	29.01	0
1	16939	29.11	0
1	16999	29.21	0
1	17059	29.31	0
1	17119	29.41	0
1	17179	29.51	0
1	17239	29.61	0
1	17299	29.71	0
1	17359	29.81	0
1	17419	29.91	0
1	17482	30.01	0
1	17542	30.11	0
1	17602	30.21	0
1	17662	30.31	0
1	17722	30.41	0
1	17782	30.51	0
1	17842	30.61	0
1	17902	30.71	0
1	17962	30.81	0
1	18022	30.91	0
1	18085	31.01	0
1	18145	31.11	0
1	18205	31.21	0
1	18265	31.31	0
1	18325	31.41	0
1	18385	31.51	0
1	18445	31.61	0
1	18505	31.71	0
1	18565	31.81	0
1	18625	31.91	0
1	18688	32.01	0
1	18748	32.11	0
1	18808	32.21	0
1	18868	32.31	0
1	18928	32.41	0
1	18988	32.51	0
1	19048	32.61	0
1	19108	32.71	0
1	19168	32.81	0
1	19228	32.91	0
1	19291	33.01	0
1	19351	33.11	0
1	19411	33.21	0
1	19471	33.31	0
1	19531	33.41	0
1	19591	33.51	0
1	19651	33.61	0
1	19711	33.71	0
1	19771	33.81	0
1	19831	33.91	0
1	19894	34.01	0
1	19954	34.11	0
1	20014	34.21	0
1	20074	34.31	0
1	20134	34.41	0
1	20194	34.51	0
1	20254	34.61	0
1	20314	34.71	0
1	20374	34.81	0
1	20434	34.91	0
1	20497	35.01	0
1	20557	35.11	0
1	20617	35.21	0
1	20677	35.31	0
1	20737	35.41	0
1	20797	35.51	0
1	20857	35.61	0
1	20917	35.71	0
1	20977	35.81	0
1	21037	35.91	0
1	21100	36.01	0
1	21160	36.11	0
1	21220	36.21	0
1	21280	36.31	0
1	21340	36.41	0
1	21400	36.51	0
1	21460	36.61	0
1	21520	36.71	0
1	21580	36.81	0
1	21640	36.91	0
1	21703	37.01	0
1	21763	37.11	0
1	21823	37.21	0
1	21883	37.31	0
1	21943	37.41	0
1	22003	37.51	0
1	22063	37.61	0
1	22123	37.71	0
1	22183	37.81	0
1	22243	37.91	0
1	22306	38.01	0
1	22366	38.11	0
1	22426	38.21	0
1	22486	38.31	0
1	22546	38.41	0
1	22606	38.51	0
1	22666	38.61	0
1	22726	38.71	0
1	22786	38.81	0
1	22846	38.91	0
1	22909	39.01	0
1	22969	39.11	0
1	23029	39.21	0
1	23089	39.31	0
1	23149	39.41	0
1	23209	39.51	0
1	23269	39.61	0
1	23329	39.71	0
1	23389	39.81	0
1	23449	39.91	0
1	23512	40.01	0
1	23572	40.11	0
1	23632	40.21	0
1	23692	40.31	0
1	23752	40.41	0
1	23812	40.51	0
1	23872	40.61	0
1	23932	40.71	0
1	23992	40.81	0
1	24052	40.91	0
1	24115	41.01	0
1	24175	41.11	0
1	24235	41.21	0
1	24295	41.31	0
1	24355	41.41	0
1	24415	41.51	0
1	24475	41.61	0
1	24535	41.71	0
1	24595	41.81	0
1	24655	41.91	0
1	24718	42.01	0
1	24778	42.11	0
1	24838	42.21	0
1	24898	42.31	0
1	24958	42.41	0
1	25018	42.51	0
1	25078	42.61	0
1	25204	42.71	0
1	25263	42.81	0
1	25322	42.91	0
1	25384	43.01	0
1	25443	43.11	0
1	25502	43.21	0
1	25561	43.31	0
1	25620	43.41	0
1	25679	43.51	0
1	25738	43.61	0
1	25797	43.71	0
1	25856	43.81	0
1	25915	43.91	0
1	25977	44.01	0
1	26036	44.11	0
1	26095	44.21	0
1	26154	44.31	0
1	26213	44.41	0
1	26272	44.51	0
1	26331	44.61	0
1	26390	44.71	0
1	26449	44.81	0
1	26508	44.91	0
1	26570	45.01	0
1	26629	45.11	0
1	26688	45.21	0
1	26747	45.31	0
1	26806	45.41	0
1	26865	45.51	0
1	26924	45.61	0
1	26983	45.71	0
1	27042	45.81	0
1	27101	45.91	0
1	27163	46.01	0
1	27222	46.11	0
1	27281	46.21	0
1	27340	46.31	0
1	27399	46.41	0
1	27458	46.51	0
1	27517	46.61	0
1	27576	46.71	0
1	27635	46.81	0
1	27694	46.91	0
1	27756	47.01	0
1	27815	47.11	0
1	27874	47.21	0
1	27933	47.31	0
1	27992	47.41	0
1	28051	47.51	0
1	28110	47.61	0
1	28169	47.71	0
1	28228	47.81	0
1	28287	47.91	0
1	28349	48.01	0
1	28408	48.11	0
1	28467	48.21	0
1	28526	48.31	0
1	28585	48.41	0
1	28644	48.51	0
1	28703	48.61	0
1	28762	48.71	0
1	28821	48.81	0
1	28880	48.91	0
1	28942	49.01	0
1	29001	49.11	0
1	29060	49.21	0
1	29119	49.31	0
1	29178	49.41	0
1	29237	49.51	0
1	29296	49.61	0
1	29355	49.71	0
1	29414	49.81	0
1	29473	49.91	0
1	29535	50.01	0
1	29594	50.11	0
1	29653	50.21	0
1	29712	50.31	0
1	29771	50.41	0
1	29830	50.51	0
1	29889	50.61	0
1	29948	50.71	0
1	30007	50.81	0
1	30066	50.91	0
1	30128	51.01	0
1	30187	51.11	0
1	30246	51.21	0
1	30305	51.31	0
1	30364	51.41	0
1	30423	51.51	0
1	30482	51.61	0
1	30541	51.71	0
1	30600	51.81	0
1	30659	51.91	0
1	30721	52.01	0
1	30780	52.11	0
1	30839	52.21	0
1	30898	52.31	0
1	30957	52.41	0
1	31016	52.51	0
1	31075	52.61	0
1	31134	52.71	0
1	31193	52.81	0
1	31252	52.91	0
1	31314	53.01	0
1	31373	53.11	0
1	31432	53.21	0
1	31491	53.31	0
1	31550	53.41	0
1	31609	53.51	0
1	31668	53.61	0
1	31727	53.71	0
1	31786	53.81	0
1	31845	53.91	0
1	31907	54.01	0
1	31966	54.11	0
1	32025	54.21	0
1	32084	54.31	0
1	32143	54.41	0
1	32202	54.51	0
1	32261	54.61	0
1	32320	54.71	0
1	32379	54.81	0
1	32438	54.91	0
1	32500	55.01	0
1	32559	55.11	0
1	32618	55.21	0
1	32677	55.31	0
1	32736	55.41	0
1	32795	55.51	0
1	32854	55.61	0
1	32913	55.71	0
1	32972	55.81	0
1	33031	55.91	0
1	33093	56.01	0
1	33152	56.11	0
1	33211	56.21	0
1	33270	56.31	0
1	33329	56.41	0
1	33388	56.51	0
1	33447	56.61	0
1	33506	56.71	0
1	33565	56.81	0
1	33624	56.91	0
1	33686	57.01	0
1	33745	57.11	0
1	33804	57.21	0
1	33863	57.31	0
1	33922	57.41	0
1	33981	57.51	0
1	34040	57.61	0
1	34099	57.71	0
1	34158	57.81	0
1	34217	57.91	0
1	34279	58.01	0
1	34338	58.11	0
1	34397	58.21	0
1	34456	58.31	0
1	34515	58.41	0
1	34574	58.51	0
1	34633	58.61	0
1	34692	58.71	0
1	34751	58.81	0
1	34810	58.91	0
1	34872	59.01	0
1	34931	59.11	0
1	34990	59.21	0
1	35049	59.31	0
1	35108	59.41	0
1	35167	59.51	0
1	35226	59.61	0
1	35285	59.71	0
1	35344	59.81	0
1	35403	59.91	0
1	35465	60.01	0
1	35524	60.11	0
1	35583	60.21	0
1	35642	60.31	0
1	35701	60.41	0
1	35760	60.51	0
1	35819	60.61	0
1	35878	60.71	0
1	35937	60.81	0
1	35996	60.91	0
1	36058	61.01	0
1	36117	61.11	0
1	36176	61.21	0
1	36235	61.31	0
1	36294	61.41	0
1	36353	61.51	0
1	36412	61.61	0
1	36471	61.71	0
1	36530	61.81	0
1	36589	61.91	0
1	36651	62.01	0
1	36710	62.11	0
1	36769	62.21	0
1	36828	62.31	0
1	36887	62.41	0
1	36946	62.51	0
1	37005	62.61	0
1	37064	62.71	0
1	37123	62.81	0
1	37182	62.91	0
1	37244	63.01	0
1	37303	63.11	0
1	37362	63.21	0
1	37421	63.31	0
1	37480	63.41	0
1	37539	63.51	0
1	37598	63.61	0
1	37657	63.71	0
1	37716	63.81	0
1	37775	63.91	0
1	37837	64.01	0
1	37896	64.11	0
1	37955	64.21	0
1	38014	64.31	0
1	38073	64.41	0
1	38132	64.51	0
1	38191	64.61	0
1	38250	64.71	0
1	38309	64.81	0
1	38368	64.91	0
1	38430	65.01	0
1	38489	65.11	0
1	38548	65.21	0
1	38607	65.31	0
1	38666	65.41	0
1	38725	65.51	0
1	38784	65.61	0
1	38843	65.71	0
1	38902	65.81	0
1	38961	65.91	0
1	39023	66.01	0
1	39082	66.11	0
1	39141	66.21	0
1	39200	66.31	0
1	39259	66.41	0
1	39318	66.51	0
1	39377	66.61	0
1	39436	66.71	0
1	39495	66.81	0
1	39554	66.91	0
1	39616	67.01	0
1	39675	67.11	0
1	39734	67.21	0
1	39793	67.31	0
1	39852	67.41	0
1	39911	67.51	0
1	39970	67.61	0
1	40029	67.71	0
1	40088	67.81	0
1	40147	67.91	0
1	40209	68.01	0
1	40268	68.11	0
1	40327	68.21	0
1	40386	68.31	0
1	40445	68.41	0
1	40504	68.51	0
1	40563	68.61	0
1	40622	68.71	0
1	40681	68.81	0
1	40740	68.91	0
1	40802	69.01	0
1	40861	69.11	0
1	40920	69.21	0
1	40979	69.31	0
1	41038	69.41	0
1	41097	69.51	0
1	41156	69.61	0
1	41215	69.71	0
1	41274	69.81	0
1	41333	69.91	0
1	41395	70.01	0
1	41454	70.11	0
1	41513	70.21	0
1	41572	70.31	0
1	41631	70.41	0
1	41690	70.51	0
1	41749	70.61	0
1	41808	70.71	0
1	41867	70.81	0
1	41926	70.91	0
1	41988	71.01	0
1	42047	71.11	0
1	42106	71.21	0
1	42165	71.31	0
1	42224	71.41	0
1	42283	71.51	0
1	42342	71.61	0
1	42401	71.71	0
1	42460	71.81	0
1	42519	71.91	0
1	42581	72.01	0
1	42640	72.11	0
1	42699	72.21	0
1	42758	72.31	0
1	42817	72.41	0
1	42876	72.51	0
1	42935	72.61	0
1	42994	72.71	0
1	43053	72.81	0
1	43112	72.91	0
1	43174	73.01	0
1	43233	73.11	0
1	43292	73.21	0
1	43351	73.31	0
1	43410	73.41	0
1	43469	73.51	0
1	43528	73.61	0
1	43587	73.71	0
1	43646	73.81	0
1	43705	73.91	0
1	43767	74.01	0
1	43826	74.11	0
1	43885	74.21	0
1	43944	74.31	0
1	44003	74.41	0
1	44062	74.51	0
1	44121	74.61	0
1	44180	74.71	0
1	44239	74.81	0
1	44298	74.91	0
1	44360	75.01	0
1	44419	75.11	0
1	44478	75.21	0
1	44537	75.31	0
1	44596	75.41	0
1	44655	75.51	0
1	44714	75.61	0
1	44773	75.71	0
1	44832	75.81	0
1	44891	75.91	0
1	44953	76.01	0
1	45012	76.11	0
1	45071	76.21	0
1	45130	76.31	0
1	45189	76.41	0
1	45248	76.51	0
1	45307	76.61	0
1	45366	76.71	0
1	45425	76.81	0
1	45484	76.91	0
1	45546	77.01	0
1	45605	77.11	0
1	45664	77.21	0
1	45723	77.31	0
1	45782	77.41	0
1	45841	77.51	0
1	45900	77.61	0
1	45959	77.71	0
1	46018	77.81	0
1	46077	77.91	0
1	46139	78.01	0
1	46198	78.11	0
1	46257	78.21	0
1	46316	78.31	0
1	46375	78.41	0
1	46434	78.51	0
1	46493	78.61	0
1	46552	78.71	0
1	46611	78.81	0
1	46670	78.91	0
1	46732	79.01	0
1	46791	79.11	0
1	46850	79.21	0
1	46909	79.31	0
1	46968	79.41	0
1	47027	79.51	0
1	47086	79.61	0
1	47145	79.71	0
1	47204	79.81	0
1	47263	79.91	0
1	47325	80.01	0
1	47384	80.11	0
1	47443	80.21	0
1	47502	80.31	0
1	47561	80.41	0
1	47620	80.51	0
1	47679	80.61	0
1	47738	80.71	0
1	47797	80.81	0
1	47856	80.91	0
1	47918	81.01	0
1	47977	81.11	0
1	48036	81.21	0
1	48095	81.31	0
1	48154	81.41	0
1	48213	81.51	0
1	48272	81.61	0
1	48331	81.71	0
1	48390	81.81	0
1	48449	81.91	0
1	48511	82.01	0
1	48570	82.11	0
1	48629	82.21	0
1	48688	82.31	0
1	48747	82.41	0
1	48806	82.51	0
1	48865	82.61	0
1	48924	82.71	0
1	48983	82.81	0
1	49042	82.91	0
1	49104	83.01	0
1	49163	83.11	0
1	49222	83.21	0
1	49281	83.31	0
1	49340	83.41	0
1	49399	83.51	0
1	49458	83.61	0
1	49517	83.71	0
1	49576	83.81	0
1	49635	83.91	0
1	49697	84.01	0
1	49756	84.11	0
1	49815	84.21	0
1	49874	84.31	0
1	49933	84.41	0
1	49992	84.51	0
1	50051	84.61	0
1	50110	84.71	0
1	50169	84.81	0
1	50228	84.91	0
1	50290	85.01	0
1	50349	85.11	0
1	50408	85.21	0
1	50467	85.31	0
1	50526	85.41	0
1	50585	85.51	0
1	50644	85.61	0
1	50703	85.71	0
1	50762	85.81	0
1	50821	85.91	0
1	50883	86.01	0
1	50942	86.11	0
1	51001	86.21	0
1	51060	86.31	0
1	51119	86.41	0
1	51178	86.51	0
1	51237	86.61	0
1	51296	86.71	0
1	51355	86.81	0
1	51414	86.91	0
1	51476	87.01	0
1	51535	87.11	0
1	51594	87.21	0
1	51653	87.31	0
1	51712	87.41	0
1	51771	87.51	0
1	51830	87.61	0
1	51889	87.71	0
1	51948	87.81	0
1	52007	87.91	0
1	52069	88.01	0
1	52128	88.11	0
1	52187	88.21	0
1	52246	88.31	0
1	52305	88.41	0
1	52364	88.51	0
1	52423	88.61	0
1	52482	88.71	0
1	52541	88.81	0
1	52600	88.91	0
1	52662	89.01	0
1	52721	89.11	0
1	52780	89.21	0
1	52839	89.31	0
1	52898	89.41	0
1	52957	89.51	0
1	53016	89.61	0
1	53075	89.71	0
1	53134	89.81	0
1	53193	89.91	0
1	53255	90.01	0
1	53314	90.11	0
1	53373	90.21	0
1	53432	90.31	0
1	53491	90.41	0
1	53550	90.51	0
1	53609	90.61	0
1	53668	90.71	0
1	53727	90.81	0
1	53786	90.91	0
1	53848	91.01	0
1	53907	91.11	0
1	53966	91.21	0
1	54025	91.31	0
1	54084	91.41	0
1	54143	91.51	0
1	54202	91.61	0
1	54261	91.71	0
1	54320	91.81	0
1	54379	91.91	0
1	54441	92.01	0
1	54500	92.11	0
1	54559	92.21	0
1	54618	92.31	0
1	54677	92.41	0
1	54736	92.51	0
1	54795	92.61	0
1	54854	92.71	0
1	54913	92.81	0
1	54972	92.91	0
1	55034	93.01	0
1	55093	93.11	0
1	55152	93.21	0
1	55211	93.31	0
1	55270	93.41	0
1	55329	93.51	0
1	55388	93.61	0
1	55447	93.71	0
1	55506	93.81	0
1	55565	93.91	0
1	55627	94.01	0
1	55686	94.11	0
1	55745	94.21	0
1	55804	94.31	0
1	55863	94.41	0
1	55922	94.51	0
1	55981	94.61	0
1	56040	94.71	0
1	56099	94.81	0
1	56158	94.91	0
1	56220	95.01	0
1	56279	95.11	0
1	56338	95.21	0
1	56397	95.31	0
1	56456	95.41	0
1	56515	95.51	0
1	56574	95.61	0
1	56633	95.71	0
1	56692	95.81	0
1	56751	95.91	0
1	56813	96.01	0
1	56872	96.11	0
1	56931	96.21	0
1	56990	96.31	0
1	57049	96.41	0
1	57108	96.51	0
1	57167	96.61	0
1	57226	96.71	0
1	57285	96.81	0
1	57344	96.91	0
1	57406	97.01	0
1	57465	97.11	0
1	57524	97.21	0
1	57583	97.31	0
1	57642	97.41	0
1	57701	97.51	0
1	57760	97.61	0
1	57819	97.71	0
1	57878	97.81	0
1	57937	97.91	0
1	57999	98.01	0
1	58058	98.11	0
1	58117	98.21	0
1	58176	98.31	0
1	58235	98.41	0
1	58294	98.51	0
1	58353	98.61	0
1	58412	98.71	0
1	58471	98.81	0
1	58530	98.91	0
1	58592	99.01	0
1	58651	99.11	0
1	58710	99.21	0
1	58769	99.31	0
1	58828	99.41	0
1	58887	99.51	0
1	58946	99.61	0
1	59005	99.71	0
1	59064	99.81	0
1	59123	99.91	0
2	113	1.11	0
2	172	1.21	0
2	231	1.31	0
2	290	1.41	0
2	349	1.51	0
2	408	1.61	0
2	467	1.71	0
2	526	1.81	0
2	585	1.91	0
2	647	2.01	0
2	706	2.11	0
2	765	2.21	0
2	824	2.31	0
2	883	2.41	0
2	942	2.51	0
2	1001	2.61	0
2	1060	2.71	0
2	1119	2.81	0
2	1178	2.91	0
2	1240	3.01	0
2	1299	3.11	0
2	1358	3.21	0
2	1417	3.31	0
2	1476	3.41	0
2	1535	3.51	0
2	1594	3.61	0
2	1653	3.71	0
2	1712	3.81	0
2	1771	3.91	0
2	1833	4.01	0
2	1892	4.11	0
2	1951	4.21	0
2	2010	4.31	0
2	2069	4.41	0
2	2128	4.51	0
2	2187	4.61	0
2	2246	4.71	0
2	2305	4.81	0
2	2364	4.91	0
2	2426	5.01	0
2	2485	5.11	0
2	2544	5.21	0
2	2603	5.31	0
2	2662	5.41	0
2	2721	5.51	0
2	2780	5.61	0
2	2839	5.71	0
2	2898	5.81	0
2	2957	5.91	0
2	3019	6.01	0
2	3078	6.11	0
2	3137	6.21	0
2	3196	6.31	0
2	3255	6.41	0
2	3314	6.51	0
2	3373	6.61	0
2	3432	6.71	0
2	3491	6.81	0
2	3550	6.91	0
2	3612	7.01	0
2	3671	7.11	0
2	3730	7.21	0
2	3789	7.31	0
2	3848	7.41	0
2	3907	7.51	0
2	3966	7.61	0
2	4025	7.71	0
2	4084	7.81	0
2	4143	7.91	0
2	4205	8.01	0
2	4264	8.11	0
2	4323	8.21	0
2	4382	8.31	0
2	4441	8.41	0
2	4500	8.51	0
2	4559	8.61	0
2	4618	8.71	0
2	4677	8.81	0
2	4736	8.91	0
2	4798	9.01	0
2	4857	9.11	0
2	4916	9.21	0
2	4975	9.31	0
2	5034	9.41	0
2	5093	9.51	0
2	5152	9.61	0
2	5211	9.71	0
2	5270	9.81	0
2	5329	9.91	0
2	5422	10.01	0
2	5482	10.11	0
2	5542	10.21	0
2	5602	10.31	0
2	5662	10.41	0
2	5722	10.51	0
2	5782	10.61	0
2	5842	10.71	0
2	5902	10.81	0
2	5962	10.91	0
2	6025	11.01	0
2	6085	11.11	0
2	6145	11.21	0
2	6205	11.31	0
2	6265	11.41	0
2	6325	11.51	0
2	6385	11.61	0
2	6445	11.71	0
2	6505	11.81	0
2	6565	11.91	0
2	6628	12.01	0
2	6688	12.11	0
2	6748	12.21	0
2	6808	12.31	0
2	6868	12.41	0
2	6928	12.51	0
2	6988	12.61	0
2	7048	12.71	0
2	7108	12.81	0
2	7168	12.91	0
2	7231	13.01	0
2	7291	13.11	0
2	7351	13.21	0
2	7411	13.31	0
2	7471	13.41	0
2	7531	13.51	0
2	7591	13.61	0
2	7651	13.71	0
2	7711	13.81	0
2	7771	13.91	0
2	7834	14.01	0
2	7894	14.11	0
2	7954	14.21	0
2	8014	14.31	0
2	8074	14.41	0
2	8134	14.51	0
2	8194	14.61	0
2	8254	14.71	0
2	8314	14.81	0
2	8374	14.91	0
2	8437	15.01	0
2	8497	15.11	0
2	8557	15.21	0
2	8617	15.31	0
2	8677	15.41	0
2	8737	15.51	0
2	8797	15.61	0
2	8857	15.71	0
2	8917	15.81	0
2	8977	15.91	0
2	9040	16.01	0
2	9100	16.11	0
2	9160	16.21	0
2	9220	16.31	0
2	9280	16.41	0
2	9340	16.51	0
2	9400	16.61	0
2	9460	16.71	0
2	9520	16.81	0
2	9580	16.91	0
2	9643	17.01	0
2	9703	17.11	0
2	9763	17.21	0
2	9823	17.31	0
2	9883	17.41	0
2	9943	17.51	0
2	10003	17.61	0
2	10063	17.71	0
2	10123	17.81	0
2	10183	17.91	0
2	10246	18.01	0
2	10306	18.11	0
2	10366	18.21	0
2	10426	18.31	0
2	10486	18.41	0
2	10546	18.51	0
2	10606	18.61	0
2	10666	18.71	0
2	10726	18.81	0
2	10786	18.91	0
2	10849	19.01	0
2	10909	19.11	0
2	10969	19.21	0
2	11029	19.31	0
2	11089	19.41	0
2	11149	19.51	0
2	11209	19.61	0
2	11269	19.71	0
2	11329	19.81	0
2	11389	19.91	0
2	11452	20.01	0
2	11512	20.11	0
2	11572	20.21	0
2	11632	20.31	0
2	11692	20.41	0
2	11752	20.51	0
2	11812	20.61	0
2	11872	20.71	0
2	11932	20.81	0
2	11992	20.91	0
2	12055	21.01	0
2	12115	21.11	0
2	12175	21.21	0
2	12235	21.31	0
2	12295	21.41	0
2	12355	21.51	0
2	12415	21.61	0
2	12475	21.71	0
2	12535	21.81	0
2	12595	21.91	0
2	12658	22.01	0
2	12718	22.11	0
2	12778	22.21	0
2	12838	22.31	0
2	12898	22.41	0
2	12958	22.51	0
2	13018	22.61	0
2	13078	22.71	0
2	13138	22.81	0
2	13198	22.91	0
2	13261	23.01	0
2	13321	23.11	0
2	13381	23.21	0
2	13441	23.31	0
2	13501	23.41	0
2	13561	23.51	0
2	13621	23.61	0
2	13681	23.71	0
2	13741	23.81	0
2	13801	23.91	0
2	13864	24.01	0
2	13924	24.11	0
2	13984	24.21	0
2	14044	24.31	0
2	14104	24.41	0
2	14164	24.51	0
2	14224	24.61	0
2	14284	24.71	0
2	14344	24.81	0
2	14404	24.91	0
2	14467	25.01	0
2	14527	25.11	0
2	14587	25.21	0
2	14647	25.31	0
2	14707	25.41	0
2	14767	25.51	0
2	14827	25.61	0
2	14887	25.71	0
2	14947	25.81	0
2	15007	25.91	0
2	15070	26.01	0
2	15130	26.11	0
2	15190	26.21	0
2	15250	26.31	0
2	15310	26.41	0
2	15370	26.51	0
2	15430	26.61	0
2	15490	26.71	0
2	15550	26.81	0
2	15610	26.91	0
2	15673	27.01	0
2	15733	27.11	0
2	15793	27.21	0
2	15853	27.31	0
2	15913	27.41	0
2	15973	27.51	0
2	16033	27.61	0
2	16093	27.71	0
2	16153	27.81	0
2	16213	27.91	0
2	16276	28.01	0
2	16336	28.11	0
2	16396	28.21	0
2	16456	28.31	0
2	16516	28.41	0
2	16576	28.51	0
2	16636	28.61	0
2	16696	28.71	0
2	16756	28.81	0
2	16816	28.91	0
2	16879	29.01	0
2	16939	29.11	0
2	16999	29.21	0
2	17059	29.31	0
2	17119	29.41	0
2	17179	29.51	0
2	17239	29.61	0
2	17299	29.71	0
2	17359	29.81	0
2	17419	29.91	0
2	17482	30.01	0
2	17542	30.11	0
2	17602	30.21	0
2	17662	30.31	0
2	17722	30.41	0
2	17782	30.51	0
2	17842	30.61	0
2	17902	30.71	0
2	17962	30.81	0
2	18022	30.91	0
2	18085	31.01	0
2	18145	31.11	0
2	18205	31.21	0
2	18265	31.31	0
2	18325	31.41	0
2	18385	31.51	0
2	18445	31.61	0
2	18505	31.71	0
2	18565	31.81	0
2	18625	31.91	0
2	18688	32.01	0
2	18748	32.11	0
2	18808	32.21	0
2	18868	32.31	0
2	18928	32.41	0
2	18988	32.51	0
2	19048	32.61	0
2	19108	32.71	0
2	19168	32.81	0
2	19228	32.91	0
2	19291	33.01	0
2	19351	33.11	0
2	19411	33.21	0
2	19471	33.31	0
2	19531	33.41	0
2	19591	33.51	0
2	19651	33.61	0
2	19711	33.71	0
2	19771	33.81	0
2	19831	33.91	0
2	19894	34.01	0
2	19954	34.11	0
2	20014	34.21	0
2	20074	34.31	0
2	20134	34.41	0
2	20194	34.51	0
2	20254	34.61	0
2	20314	34.71	0
2	20374	34.81	0
2	20434	34.91	0
2	20497	35.01	0
2	20557	35.11	0
2	20617	35.21	0
2	20677	35.31	0
2	20737	35.41	0
2	20797	35.51	0
2	20857	35.61	0
2	20917	35.71	0
2	20977	35.81	0
2	21037	35.91	0
2	21100	36.01	0
2	21160	36.11	0
2	21220	36.21	0
2	21280	36.31	0
2	21340	36.41	0
2	21400	36.51	0
2	21460	36.61	0
2	21520	36.71	0
2	21580	36.81	0
2	21640	36.91	0
2	21703	37.01	0
2	21763	37.11	0
2	21823	37.21	0
2	21883	37.31	0
2	21943	37.41	0
2	22003	37.51	0
2	22063	37.61	0
2	22123	37.71	0
2	22183	37.81	0
2	22243	37.91	0
2	22306	38.01	0
2	22366	38.11	0
2	22426	38.21	0
2	22486	38.31	0
2	22546	38.41	0
2	22606	38.51	0
2	22666	38.61	0
2	22726	38.71	0
2	22786	38.81	0
2	22846	38.91	0
2	22909	39.01	0
2	22969	39.11	0
2	23029	39.21	0
2	23089	39.31	0
2	23149	39.41	0
2	23209	39.51	0
2	23269	39.61	0
2	23329	39.71	0
2	23389	39.81	0
2	23449	39.91	0
2	23512	40.01	0
2	23572	40.11	0
2	23632	40.21	0
2	23692	40.31	0
2	23752	40.41	0
2	23812	40.51	0
2	23872	40.61	0
2	23932	40.71	0
2	23992	40.81	0
2	24052	40.91	0
2	24115	41.01	0
2	24175	41.11	0
2	24235	41.21	0
2	24295	41.31	0
2	24355	41.41	0
2	24415	41.51	0
2	24475	41.61	0
2	24535	41.71	0
2	24595	41.81	0
2	24655	41.91	0
2	24718	42.01	0
2	24778	42.11	0
2	24838	42.21	0
2	24898	42.31	0
2	24958	42.41	0
2	25018	42.51	0
2	25078	42.61	0
2	25204	42.71	0
2	25263	42.81	0
2	25322	42.91	0
2	25384	43.01	0
2	25443	43.11	0
2	25502	43.21	0
2	25561	43.31	0
2	25620	43.41	0
2	25679	43.51	0
2	25738	43.61	0
2	25797	43.71	0
2	25856	43.81	0
2	25915	43.91	0
2	25977	44.01	0
2	26036	44.11	0
2	26095	44.21	0
2	26154	44.31	0
2	26213	44.41	0
2	26272	44.51	0
2	26331	44.61	0
2	26390	44.71	0
2	26449	44.81	0
2	26508	44.91	0
2	26570	45.01	0
2	26629	45.11	0
2	26688	45.21	0
2	26747	45.31	0
2	26806	45.41	0
2	26865	45.51	0
2	26924	45.61	0
2	26983	45.71	0
2	27042	45.81	0
2	27101	45.91	0
2	27163	46.01	0
2	27222	46.11	0
2	27281	46.21	0
2	27340	46.31	0
2	27399	46.41	0
2	27458	46.51	0
2	27517	46.61	0
2	27576	46.71	0
2	27635	46.81	0
2	27694	46.91	0
2	27756	47.01	0
2	27815	47.11	0
2	27874	47.21	0
2	27933	47.31	0
2	27992	47.41	0
2	28051	47.51	0
2	28110	47.61	0
2	28169	47.71	0
2	28228	47.81	0
2	28287	47.91	0
2	28349	48.01	0
2	28408	48.11	0
2	28467	48.21	0
2	28526	48.31	0
2	28585	48.41	0
2	28644	48.51	0
2	28703	48.61	0
2	28762	48.71	0
2	28821	48.81	0
2	28880	48.91	0
2	28942	49.01	0
2	29001	49.11	0
2	29060	49.21	0
2	29119	49.31	0
2	29178	49.41	0
2	29237	49.51	0
2	29296	49.61	0
2	29355	49.71	0
2	29414	49.81	0
2	29473	49.91	0
2	29535	50.01	0
2	29594	50.11	0
2	29653	50.21	0
2	29712	50.31	0
2	29771	50.41	0
2	29830	50.51	0
2	29889	50.61	0
2	29948	50.71	0
2	30007	50.81	0
2	30066	50.91	0
2	30128	51.01	0
2	30187	51.11	0
2	30246	51.21	0
2	30305	51.31	0
2	30364	51.41	0
2	30423	51.51	0
2	30482	51.61	0
2	30541	51.71	0
2	30600	51.81	0
2	30659	51.91	0
2	30721	52.01	0
2	30780	52.11	0
2	30839	52.21	0
2	30898	52.31	0
2	30957	52.41	0
2	31016	52.51	0
2	31075	52.61	0
2	31134	52.71	0
2	31193	52.81	0
2	31252	52.91	0
2	31314	53.01	0
2	31373	53.11	0
2	31432	53.21	0
2	31491	53.31	0
2	31550	53.41	0
2	31609	53.51	0
2	31668	53.61	0
2	31727	53.71	0
2	31786	53.81	0
2	31845	53.91	0
2	31907	54.01	0
2	31966	54.11	0
2	32025	54.21	0
2	32084	54.31	0
2	32143	54.41	0
2	32202	54.51	0
2	32261	54.61	0
2	32320	54.71	0
2	32379	54.81	0
2	32438	54.91	0
2	32500	55.01	0
2	32559	55.11	0
2	32618	55.21	0
2	32677	55.31	0
2	32736	55.41	0
2	32795	55.51	0
2	32854	55.61	0
2	32913	55.71	0
2	32972	55.81	0
2	33031	55.91	0
2	33093	56.01	0
2	33152	56.11	0
2	33211	56.21	0
2	33270	56.31	0
2	33329	56.41	0
2	33388	56.51	0
2	33447	56.61	0
2	33506	56.71	0
2	33565	56.81	0
2	33624	56.91	0
2	33686	57.01	0
2	33745	57.11	0
2	33804	57.21	0
2	33863	57.31	0
2	33922	57.41	0
2	33981	57.51	0
2	34040	57.61	0
2	34099	57.71	0
2	34158	57.81	0
2	34217	57.91	0
2	34279	58.01	0
2	34338	58.11	0
2	34397	58.21	0
2	34456	58.31	0
2	34515	58.41	0
2	34574	58.51	0
2	34633	58.61	0
2	34692	58.71	0
2	34751	58.81	0
2	34810	58.91	0
2	34872	59.01	0
2	34931	59.11	0
2	34990	59.21	0
2	35049	59.31	0
2	35108	59.41	0
2	35167	59.51	0
2	35226	59.61	0
2	35285	59.71	0
2	35344	59.81	0
2	35403	59.91	0
2	35465	60.01	0
2	35524	60.11	0
2	35583	60.21	0
2	35642	60.31	0
2	35701	60.41	0
2	35760	60.51	0
2	35819	60.61	0
2	35878	60.71	0
2	35937	60.81	0
2	35996	60.91	0
2	36058	61.01	0
2	36117	61.11	0
2	36176	61.21	0
2	36235	61.31	0
2	36294	61.41	0
2	36353	61.51	0
2	36412	61.61	0
2	36471	61.71	0
2	36530	61.81	0
2	36589	61.91	0
2	36651	62.01	0
2	36710	62.11	0
2	36769	62.21	0
2	36828	62.31	0
2	36887	62.41	0
2	36946	62.51	0
2	37005	62.61	0
2	37064	62.71	0
2	37123	62.81	0
2	37182	62.91	0
2	37244	63.01	0
2	37303	63.11	0
2	37362	63.21	0
2	37421	63.31	0
2	37480	63.41	0
2	37539	63.51	0
2	37598	63.61	0
2	37657	63.71	0
2	37716	63.81	0
2	37775	63.91	0
2	37837	64.01	0
2	37896	64.11	0
2	37955	64.21	0
2	38014	64.31	0
2	38073	64.41	0
2	38132	64.51	0
2	38191	64.61	0
2	38250	64.71	0
2	38309	64.81	0
2	38368	64.91	0
2	38430	65.01	0
2	38489	65.11	0
2	38548	65.21	0
2	38607	65.31	0
2	38666	65.41	0
2	38725	65.51	0
2	38784	65.61	0
2	38843	65.71	0
2	38902	65.81	0
2	38961	65.91	0
2	39023	66.01	0
2	39082	66.11	0
2	39141	66.21	0
2	39200	66.31	0
2	39259	66.41	0
2	39318	66.51	0
2	39377	66.61	0
2	39436	66.71	0
2	39495	66.81	0
2	39554	66.91	0
2	39616	67.01	0
2	39675	67.11	0
2	39734	67.21	0
2	39793	67.31	0
2	39852	67.41	0
2	39911	67.51	0
2	39970	67.61	0
2	40029	67.71	0
2	40088	67.81	0
2	40147	67.91	0
2	40209	68.01	0
2	40268	68.11	0
2	40327	68.21	0
2	40386	68.31	0
2	40445	68.41	0
2	40504	68.51	0
2	40563	68.61	0
2	40622	68.71	0
2	40681	68.81	0
2	40740	68.91	0
2	40802	69.01	0
2	40861	69.11	0
2	40920	69.21	0
2	40979	69.31	0
2	41038	69.41	0
2	41097	69.51	0
2	41156	69.61	0
2	41215	69.71	0
2	41274	69.81	0
2	41333	69.91	0
2	41395	70.01	0
2	41454	70.11	0
2	41513	70.21	0
2	41572	70.31	0
2	41631	70.41	0
2	41690	70.51	0
2	41749	70.61	0
2	41808	70.71	0
2	41867	70.81	0
2	41926	70.91	0
2	41988	71.01	0
2	42047	71.11	0
2	42106	71.21	0
2	42165	71.31	0
2	42224	71.41	0
2	42283	71.51	0
2	42342	71.61	0
2	42401	71.71	0
2	42460	71.81	0
2	42519	71.91	0
2	42581	72.01	0
2	42640	72.11	0
2	42699	72.21	0
2	42758	72.31	0
2	42817	72.41	0
2	42876	72.51	0
2	42935	72.61	0
2	42994	72.71	0
2	43053	72.81	0
2	43112	72.91	0
2	43174	73.01	0
2	43233	73.11	0
2	43292	73.21	0
2	43351	73.31	0
2	43410	73.41	0
2	43469	73.51	0
2	43528	73.61	0
2	43587	73.71	0
2	43646	73.81	0
2	43705	73.91	0
2	43767	74.01	0
2	43826	74.11	0
2	43885	74.21	0
2	43944	74.31	0
2	44003	74.41	0
2	44062	74.51	0
2	44121	74.61	0
2	44180	74.71	0
2	44239	74.81	0
2	44298	74.91	0
2	44360	75.01	0
2	44419	75.11	0
2	44478	75.21	0
2	44537	75.31	0
2	44596	75.41	0
2	44655	75.51	0
2	44714	75.61	0
2	44773	75.71	0
2	44832	75.81	0
2	44891	75.91	0
2	44953	76.01	0
2	45012	76.11	0
2	45071	76.21	0
2	45130	76.31	0
2	45189	76.41	0
2	45248	76.51	0
2	45307	76.61	0
2	45366	76.71	0
2	45425	76.81	0
2	45484	76.91	0
2	45546	77.01	0
2	45605	77.11	0
2	45664	77.21	0
2	45723	77.31	0
2	45782	77.41	0
2	45841	77.51	0
2	45900	77.61	0
2	45959	77.71	0
2	46018	77.81	0
2	46077	77.91	0
2	46139	78.01	0
2	46198	78.11	0
2	46257	78.21	0
2	46316	78.31	0
2	46375	78.41	0
2	46434	78.51	0
2	46493	78.61	0
2	46552	78.71	0
2	46611	78.81	0
2	46670	78.91	0
2	46732	79.01	0
2	46791	79.11	0
2	46850	79.21	0
2	46909	79.31	0
2	46968	79.41	0
2	47027	79.51	0
2	47086	79.61	0
2	47145	79.71	0
2	47204	79.81	0
2	47263	79.91	0
2	47325	80.01	0
2	47384	80.11	0
2	47443	80.21	0
2	47502	80.31	0
2	47561	80.41	0
2	47620	80.51	0
2	47679	80.61	0
2	47738	80.71	0
2	47797	80.81	0
2	47856	80.91	0
2	47918	81.01	0
2	47977	81.11	0
2	48036	81.21	0
2	48095	81.31	0
2	48154	81.41	0
2	48213	81.51	0
2	48272	81.61	0
2	48331	81.71	0
2	48390	81.81	0
2	48449	81.91	0
2	48511	82.01	0
2	48570	82.11	0
2	48629	82.21	0
2	48688	82.31	0
2	48747	82.41	0
2	48806	82.51	0
2	48865	82.61	0
2	48924	82.71	0
2	48983	82.81	0
2	49042	82.91	0
2	49104	83.01	0
2	49163	83.11	0
2	49222	83.21	0
2	49281	83.31	0
2	49340	83.41	0
2	49399	83.51	0
2	49458	83.61	0
2	49517	83.71	0
2	49576	83.81	0
2	49635	83.91	0
2	49697	84.01	0
2	49756	84.11	0
2	49815	84.21	0
2	49874	84.31	0
2	49933	84.41	0
2	49992	84.51	0
2	50051	84.61	0
2	50110	84.71	0
2	50169	84.81	0
2	50228	84.91	0
2	50290	85.01	0
2	50349	85.11	0
2	50408	85.21	0
2	50467	85.31	0
2	50526	85.41	0
2	50585	85.51	0
2	50644	85.61	0
2	50703	85.71	0
2	50762	85.81	0
2	50821	85.91	0
2	50883	86.01	0
2	50942	86.11	0
2	51001	86.21	0
2	51060	86.31	0
2	51119	86.41	0
2	51178	86.51	0
2	51237	86.61	0
2	51296	86.71	0
2	51355	86.81	0
2	51414	86.91	0
2	51476	87.01	0
2	51535	87.11	0
2	51594	87.21	0
2	51653	87.31	0
2	51712	87.41	0
2	51771	87.51	0
2	51830	87.61	0
2	51889	87.71	0
2	51948	87.81	0
2	52007	87.91	0
2	52069	88.01	0
2	52128	88.11	0
2	52187	88.21	0
2	52246	88.31	0
2	52305	88.41	0
2	52364	88.51	0
2	52423	88.61	0
2	52482	88.71	0
2	52541	88.81	0
2	52600	88.91	0
2	52662	89.01	0
2	52721	89.11	0
2	52780	89.21	0
2	52839	89.31	0
2	52898	89.41	0
2	52957	89.51	0
2	53016	89.61	0
2	53075	89.71	0
2	53134	89.81	0
2	53193	89.91	0
2	53255	90.01	0
2	53314	90.11	0
2	53373	90.21	0
2	53432	90.31	0
2	53491	90.41	0
2	53550	90.51	0
2	53609	90.61	0
2	53668	90.71	0
2	53727	90.81	0
2	53786	90.91	0
2	53848	91.01	0
2	53907	91.11	0
2	53966	91.21	0
2	54025	91.31	0
2	54084	91.41	0
2	54143	91.51	0
2	54202	91.61	0
2	54261	91.71	0
2	54320	91.81	0
2	54379	91.91	0
2	54441	92.01	0
2	54500	92.11	0
2	54559	92.21	0
2	54618	92.31	0
2	54677	92.41	0
2	54736	92.51	0
2	54795	92.61	0
2	54854	92.71	0
2	54913	92.81	0
2	54972	92.91	0
2	55034	93.01	0
2	55093	93.11	0
2	55152	93.21	0
2	55211	93.31	0
2	55270	93.41	0
2	55329	93.51	0
2	55388	93.61	0
2	55447	93.71	0
2	55506	93.81	0
2	55565	93.91	0
2	55627	94.01	0
2	55686	94.11	0
2	55745	94.21	0
2	55804	94.31	0
2	55863	94.41	0
2	55922	94.51	0
2	55981	94.61	0
2	56040	94.71	0
2	56099	94.81	0
2	56158	94.91	0
2	56220	95.01	0
2	56279	95.11	0
2	56338	95.21	0
2	56397	95.31	0
2	56456	95.41	0
2	56515	95.51	0
2	56574	95.61	0
2	56633	95.71	0
2	56692	95.81	0
2	56751	95.91	0
2	56813	96.01	0
2	56872	96.11	0
2	56931	96.21	0
2	56990	96.31	0
2	57049	96.41	0
2	57108	96.51	0
2	57167	96.61	0
2	57226	96.71	0
2	57285	96.81	0
2	57344	96.91	0
2	57406	97.01	0
2	57465	97.11	0
2	57524	97.21	0
2	57583	97.31	0
2	57642	97.41	0
2	57701	97.51	0
2	57760	97.61	0
2	57819	97.71	0
2	57878	97.81	0
2	57937	97.91	0
2	57999	98.01	0
2	58058	98.11	0
2	58117	98.21	0
2	58176	98.31	0
2	58235	98.41	0
2	58294	98.51	0
2	58353	98.61	0
2	58412	98.71	0
2	58471	98.81	0
2	58530	98.91	0
2	58592	99.01	0
2	58651	99.11	0
2	58710	99.21	0
2	58769	99.31	0
2	58828	99.41	0
2	58887	99.51	0
2	58946	99.61	0
2	59005	99.71	0
2	59064	99.81	0
2	59123	99.91	0
3	113	1.11	0.000179096
3	172	1.21	0.000340852
3	231	1.31	0.000467435
3	290	1.41	0.000562893
3	349	1.51	0.000631106
3	408	1.61	0.000675745
3	467	1.71	0.000700245
3	526	1.81	0.000707784
3	585	1.91	0.000701273
3	647	2.01	0.000683354
3	706	2.11	0.000656398
3	765	2.21	0.000622512
3	824	2.31	0.000583548
3	883	2.41	0.000541117
3	942	2.51	0.000496604
3	1001	2.61	0.000451181
3	1060	2.71	0.000405825
3	1119	2.81	0.00036134
3	1178	2.91	0.000318365
3	1240	3.01	0.0002774
3	1299	3.11	0.00023882
3	1358	3.21	0.000202887
3	1417	3.31	0.00016977
3	1476	3.41	0.000139558
3	1535	3.51	0.000112271
3	1594	3.61	8.78717e-05
3	1653	3.71	6.628e-05
3	1712	3.81	4.73785e-05
3	1771	3.91	3.1023e-05
3	1833	4.01	1.70493e-05
3	1892	4.11	5.28023e-06
3	1951	4.21	-4.46922e-06
3	2010	4.31	-1.2387e-05
3	2069	4.41	-1.86602e-05
3	2128	4.51	-2.34717e-05
3	2187	4.61	-2.69978e-05
3	2246	4.71	-2.94062e-05
3	2305	4.81	-3.08545e-05
3	2364	4.91	-3.14892e-05
3	2426	5.01	-3.14451e-05
3	2485	5.11	-3.0845e-05
3	2544	5.21	-2.97994e-05
3	2603	5.31	-2.84072e-05
3	2662	5.41	-2.67556e-05
3	2721	5.51	-2.49208e-05
3	2780	5.61	-2.29687e-05
3	2839	5.71	-2.09553e-05
3	2898	5.81	-1.89277e-05
3	2957	5.91	-1.6925e-05
3	3019	6.01	-1.49784e-05
3	3078	6.11	-1.31129e-05
3	3137	6.21	-1.13474e-05
3	3196	6.31	-9.69553e-06
3	3255	6.41	-8.16651e-06
3	3314	6.51	-6.76571e-06
3	3373	6.61	-5.49522e-06
3	3432	6.71	-4.35441e-06
3	3491	6.81	-3.34045e-06
3	3550	6.91	-2.44874e-06
3	3612	7.01	-1.6733e-06
3	3671	7.11	-1.00716e-06
3	3730	7.21	-4.42628e-07
3	3789	7.31	2.84224e-08
3	3848	7.41	4.14339e-07
3	3907	7.51	7.23492e-07
3	3966	7.61	9.6413e-07
3	4025	7.71	1.14424e-06
3	4084	7.81	1.27148e-06
3	4143	7.91	1.35305e-06
3	4205	8.01	1.3957e-06
3	4264	8.11	1.40565e-06
3	4323	8.21	1.3886e-06
3	4382	8.31	1.34971e-06
3	4441	8.41	1.2936e-06
3	4500	8.51	1.22437e-06
3	4559	8.61	1.14561e-06
3	4618	8.71	1.06046e-06
3	4677	8.81	9.71582e-07
3	4736	8.91	8.81246e-07
3	4798	9.01	7.91334e-07
3	4857	9.11	7.03381e-07
3	4916	9.21	6.18613e-07
3	4975	9.31	5.37979e-07
3	5034	9.41	4.62183e-07
3	5093	9.51	3.91714e-07
3	5152	9.61	3.26878e-07
3	5211	9.71	2.67827e-07
3	5270	9.81	2.14581e-07
3	5329	9.91	1.67052e-07
3	5422	10.01	1.25066e-07
3	5482	10.11	8.83794e-08
3	5542	10.21	5.66978e-08
3	5602	10.31	2.96922e-08
3	5662	10.41	7.00453e-09
3	5722	10.51	-1.17325e-08
3	5782	10.61	-2.68933e-08
3	5842	10.71	-3.88482e-08
3	5902	10.81	-4.79581e-08
3	5962	10.91	-5.45704e-08
3	6025	11.01	-5.90177e-08
3	6085	11.11	-6.16069e-08
3	6145	11.21	-6.26265e-08
3	6205	11.31	-6.23395e-08
3	6265	11.41	-6.09859e-08
3	6325	11.51	-5.87811e-08
3	6385	11.61	-5.59183e-08
3	6445	11.71	-5.25674e-08
3	6505	11.81	-4.88761e-08
3	6565	11.91	-4.4971e-08
3	6628	12.01	-4.09599e-08
3	6688	12.11	-3.69354e-08
3	6748	12.21	-3.29713e-08
3	6808	12.31	-2.9128e-08
3	6868	12.41	-2.54531e-08
3	6928	12.51	-2.19821e-08
3	6988	12.61	-1.87399e-08
3	7048	12.71	-1.57428e-08
3	7108	12.81	-1.30029e-08
3	7168	12.91	-1.05217e-08
3	7231	13.01	-8.29772e-09
3	7291	13.11	-6.32454e-09
3	7351	13.21	-4.59224e-09
3	7411	13.31	-3.08802e-09
3	7471	13.41	-1.79838e-09
3	7531	13.51	-7.08411e-10
3	7591	13.61	1.98241e-10
3	7651	13.71	9.37916e-10
3	7711	13.81	1.52767e-09
3	7771	13.91	1.98384e-09
3	7834	14.01	2.32276e-09
3	7894	14.11	2.55937e-09
3	7954	14.21	2.70788e-09
3	8014	14.31	2.78249e-09
3	8074	14.41	2.79243e-09
3	8134	14.51	2.7498e-09
3	8194	14.61	2.66525e-09
3	8254	14.71	2.54872e-09
3	8314	14.81	2.40803e-09
3	8374	14.91	2.24887e-09
3	8437	15.01	2.07763e-09
3	8497	15.11	1.89999e-09
3	8557	15.21	1.72236e-09
3	8617	15.31	1.54472e-09
3	8677	15.41	1.37064e-09
3	8737	15.51	1.20295e-09
3	8797	15.61	1.04379e-09
3	8857	15.71	8.94573e-10
3	8917	15.81	7.56017e-10
3	8977	15.91	6.29541e-10
3	9040	16.01	5.13012e-10
3	9100	16.11	4.09273e-10
3	9160	16.21	3.16902e-10
3	9220	16.31	2.3519e-10
3	9280	16.41	1.63425e-10
3	9340	16.51	1.02318e-10
3	9400	16.61	4.9738e-11
3	9460	16.71	5.68434e-12
3	9520	16.81	-3.05533e-11
3	9580	16.91	-5.8975e-11
3	9643	17.01	-8.10019e-11
3	9703	17.11	-9.80549e-11
3	9763	17.21	-1.11555e-10
3	9823	17.31	-1.18661e-10
3	9883	17.41	-1.23634e-10
3	9943	17.51	-1.23634e-10
3	10003	17.61	-1.23634e-10
3	10063	17.71	-1.21503e-10
3	10123	17.81	-1.14397e-10
3	10183	17.91	-1.07292e-10
3	10246	18.01	-1.00187e-10
3	10306	18.11	-9.30811e-11
3	10366	18.21	-8.59757e-11
3	10426	18.31	-7.88702e-11
3	10486	18.41	-7.17648e-11
3	10546	18.51	-6.46594e-11
3	10606	18.61	-5.7554e-11
3	10666	18.71	-5.04485e-11
3	10726	18.81	-4.33431e-11
3	10786	18.91	-3.62377e-11
3	10849	19.01	-2.91323e-11
3	10909	19.11	-2.20268e-11
3	10969	19.21	-1.7053e-11
3	11029	19.31	-1.49214e-11
3	11089	19.41	-1.35003e-11
3	11149	19.51	-1.27898e-11
3	11209	19.61	-1.13687e-11
3	11269	19.71	-9.9476e-12
3	11329	19.81	-9.23706e-12
3	11389	19.91	-8.52651e-12
3	11452	20.01	-7.81597e-12
3	11512	20.11	-7.10543e-12
3	11572	20.21	-6.39488e-12
3	11632	20.31	-5.68434e-12
3	11692	20.41	-4.9738e-12
3	11752	20.51	-4.26326e-12
3	11812	20.61	-4.26326e-12
3	11872	20.71	-3.55271e-12
3	11932	20.81	-3.55271e-12
3	11992	20.91	-2.84217e-12
3	12055	21.01	-2.84217e-12
3	12115	21.11	-2.84217e-12
3	12175	21.21	-2.13163e-12
3	12235	21.31	-2.13163e-12
3	12295	21.41	-2.13163e-12
3	12355	21.51	-1.42109e-12
3	12415	21.61	-1.42109e-12
3	12475	21.71	-1.42109e-12
3	12535	21.81	-1.42109e-12
3	12595	21.91	-1.42109e-12
3	12658	22.01	-7.10543e-13
3	12718	22.11	-7.10543e-13
3	12778	22.21	-7.10543e-13
3	12838	22.31	-7.10543e-13
3	12898	22.41	-7.10543e-13
3	12958	22.51	-7.10543e-13
3	13018	22.61	-7.10543e-13
3	13078	22.71	-7.10543e-13
3	13138	22.81	-7.10543e-13
3	13198	22.91	-7.10543e-13
3	13261	23.01	0
3	13321	23.11	0
3	13381	23.21	0
3	13441	23.31	0
3	13501	23.41	0
3	13561	23.51	0
3	13621	23.61	0
3	13681	23.71	0
3	13741	23.81	0
3	13801	23.91	0
3	13864	24.01	0
3	13924	24.11	0
3	13984	24.21	0
3	14044	24.31	0
3	14104	24.41	0
3	14164	24.51	0
3	14224	24.61	0
3	14284	24.71	0
3	14344	24.81	0
3	14404	24.91	0
3	14467	25.01	0
3	14527	25.11	0
3	14587	25.21	0
3	14647	25.31	0
3	14707	25.41	0
3	14767	25.51	0
3	14827	25.61	0
3	14887	25.71	0
3	14947	25.81	0
3	15007	25.91	0
3	15070	26.01	0
3	15130	26.11	0
3	15190	26.21	0
3	15250	26.31	0
3	15310	26.41	0
3	15370	26.51	0
3	15430	26.61	0
3	15490	26.71	0
3	15550	26.81	0
3	15610	26.91	0
3	15673	27.01	0
3	15733	27.11	0
3	15793	27.21	0
3	15853	27.31	0
3	15913	27.41	0
3	15973	27.51	0
3	16033	27.61	0
3	16093	27.71	0
3	16153	27.81	0
3	16213	27.91	0
3	16276	28.01	0
3	16336	28.11	0
3	16396	28.21	0
3	16456	28.31	0
3	16516	28.41	0
3	16576	28.51	0
3	16636	28.61	0
3	16696	28.71	0
3	16756	28.81	0
3	16816	28.91	0
3	16879	29.01	0
3	16939	29.11	0
3	16999	29.21	0
3	17059	29.31	0
3	17119	29.41	0
3	17179	29.51	0
3	17239	29.61	0
3	17299	29.71	0
3	17359	29.81	0
3	17419	29.91	0
3	17482	30.01	0
3	17542	30.11	0
3	17602	30.21	0
3	17662	30.31	0
3	17722	30.41	0
3	17782	30.51	0
3	17842	30.61	0
3	17902	30.71	0
3	17962	30.81	0
3	18022	30.91	0
3	18085	31.01	0
3	18145	31.11	0
3	18205	31.21	0
3	18265	31.31	0
3	18325	31.41	0
3	18385	31.51	0
3	18445	31.61	0
3	18505	31.71	0
3	18565	31.81	0
3	18625	31.91	0
3	18688	32.01	0
3	18748	32.11	0
3	18808	32.21	0
3	18868	32.31	0
3	18928	32.41	0
3	18988	32.51	0
3	19048	32.61	0
3	19108	32.71	0
3	19168	32.81	0
3	19228	32.91	0
3	19291	33.01	0
3	19351	33.11	0
3	19411	33.21	0
3	19471	33.31	0
3	19531	33.41	0
3	19591	33.51	0
3	19651	33.61	0
3	19711	33.71	0
3	19771	33.81	0
3	19831	33.91	0
3	19894	34.01	0
3	19954	34.11	0
3	20014	34.21	0
3	20074	34.31	0
3	20134	34.41	0
3	20194	34.51	0
3	20254	34.61	0
3	20314	34.71	0
3	20374	34.81	0
3	20434	34.91	0
3	20497	35.01	0
3	20557	35.11	0
3	20617	35.21	0
3	20677	35.31	0
3	20737	35.41	0
3	20797	35.51	0
3	20857	35.61	0
3	20917	35.71	0
3	20977	35.81	0
3	21037	35.91	0
3	21100	36.01	0
3	21160	36.11	0
3	21220	36.21	0
3	21280	36.31	0
3	21340	36.41	0
3	21400	36.51	0
3	21460	36.61	0
3	21520	36.71	0
3	21580	36.81	0
3	21640	36.91	0
3	21703	37.01	0
3	21763	37.11	0
3	21823	37.21	0
3	21883	37.31	0
3	21943	37.41	0
3	22003	37.51	0
3	22063	37.61	0
3	22123	37.71	0
3	22183	37.81	0
3	22243	37.91	0
3	22306	38.01	0
3	22366	38.11	0
3	22426	38.21	0
3	22486	38.31	0
3	22546	38.41	0
3	22606	38.51	0
3	22666	38.61	0
3	22726	38.71	0
3	22786	38.81	0
3	22846	38.91	0
3	22909	39.01	0
3	22969	39.11	0
3	23029	39.21	0
3	23089	39.31	0
3	23149	39.41	0
3	23209	39.51	0
3	23269	39.61	0
3	23329	39.71	0
3	23389	39.81	0
3	23449	39.91	0
3	23512	40.01	0
3	23572	40.11	0
3	23632	40.21	0
3	23692	40.31	0
3	23752	40.41	0
3	23812	40.51	0
3	23872	40.61	0
3	23932	40.71	0
3	23992	40.81	0
3	24052	40.91	0
3	24115	41.01	0
3	24175	41.11	0
3	24235	41.21	0
3	24295	41.31	0
3	24355	41.41	0
3	24415	41.51	0
3	24475	41.61	0
3	24535	41.71	0
3	24595	41.81	0
3	24655	41.91	0
3	24718	42.01	0
3	24778	42.11	0
3	24838	42.21	0
3	24898	42.31	0
3	24958	42.41	0
3	25018	42.51	0
3	25078	42.61	0
3	25204	42.71	0
3	25263	42.81	0
3	25322	42.91	0
3	25384	43.01	0
3	25443	43.11	0
3	25502	43.21	0
3	25561	43.31	0
3	25620	43.41	0
3	25679	43.51	0
3	25738	43.61	0
3	25797	43.71	0
3	25856	43.81	0
3	25915	43.91	0
3	25977	44.01	0
3	26036	44.11	0
3	26095	44.21	0
3	26154	44.31	0
3	26213	44.41	0
3	26272	44.51	0
3	26331	44.61	0
3	26390	44.71	0
3	26449	44.81	0
3	26508	44.91	0
3	26570	45.01	0
3	26629	45.11	0
3	26688	45.21	0
3	26747	45.31	0
3	26806	45.41	0
3	26865	45.51	0
3	26924	45.61	0
3	26983	45.71	0
3	27042	45.81	0
3	27101	45.91	0
3	27163	46.01	0
3	27222	46.11	0
3	27281	46.21	0
3	27340	46.31	0
3	27399	46.41	0
3	27458	46.51	0
3	27517	46.61	0
3	27576	46.71	0
3	27635	46.81	0
3	27694	46.91	0
3	27756	47.01	0
3	27815	47.11	0
3	27874	47.21	0
3	27933	47.31	0
3	27992	47.41	0
3	28051	47.51	0
3	28110	47.61	0
3	28169	47.71	0
3	28228	47.81	0
3	28287	47.91	0
3	28349	48.01	0
3	28408	48.11	0
3	28467	48.21	0
3	28526	48.31	0
3	28585	48.41	0
3	28644	48.51	0
3	28703	48.61	0
3	28762	48.71	0
3	28821	48.81	0
3	28880	48.91	0
3	28942	49.01	0
3	29001	49.11	0
3	29060	49.21	0
3	29119	49.31	0
3	29178	49.41	0
3	29237	49.51	0
3	29296	49.61	0
3	29355	49.71	0
3	29414	49.81	0
3	29473	49.91	0
3	29535	50.01	0
3	29594	50.11	0
3	29653	50.21	0
3	29712	50.31	0
3	29771	50.41	0
3	29830	50.51	0
3	29889	50.61	0
3	29948	50.71	0
3	30007	50.81	0
3	30066	50.91	0
3	30128	51.01	0
3	30187	51.11	0
3	30246	51.21	0
3	30305	51.31	0
3	30364	51.41	0
3	30423	51.51	0
3	30482	51.61	0
3	30541	51.71	0
3	30600	51.81	0
3	30659	51.91	0
3	30721	52.01	0
3	30780	52.11	0
3	30839	52.21	0
3	30898	52.31	0
3	30957	52.41	0
3	31016	52.51	0
3	31075	52.61	0
3	31134	52.71	0
3	31193	52.81	0
3	31252	52.91	0
3	31314	53.01	0
3	31373	53.11	0
3	31432	53.21	0
3	31491	53.31	0
3	31550	53.41	0
3	31609	53.51	0
3	31668	53.61	0
3	31727	53.71	0
3	31786	53.81	0
3	31845	53.91	0
3	31907	54.01	0
3	31966	54.11	0
3	32025	54.21	0
3	32084	54.31	0
3	32143	54.41	0
3	32202	54.51	0
3	32261	54.61	0
3	32320	54.71	0
3	32379	54.81	0
3	32438	54.91	0
3	32500	55.01	0
3	32559	55.11	0
3	32618	55.21	0
3	32677	55.31	0
3	32736	55.41	0
3	32795	55.51	0
3	32854	55.61	0
3	32913	55.71	0
3	32972	55.81	0
3	33031	55.91	0
3	33093	56.01	0
3	33152	56.11	0
3	33211	56.21	0
3	33270	56.31	0
3	33329	56.41	0
3	33388	56.51	0
3	33447	56.61	0
3	33506	56.71	0
3	33565	56.81	0
3	33624	56.91	0
3	33686	57.01	0
3	33745	57.11	0
3	33804	57.21	0
3	33863	57.31	0
3	33922	57.41	0
3	33981	57.51	0
3	34040	57.61	0
3	34099	57.71	0
3	34158	57.81	0
3	34217	57.91	0
3	34279	58.01	0
3	34338	58.11	0
3	34397	58.21	0
3	34456	58.31	0
3	34515	58.41	0
3	34574	58.51	0
3	34633	58.61	0
3	34692	58.71	0
3	34751	58.81	0
3	34810	58.91	0
3	34872	59.01	0
3	34931	59.11	0
3	34990	59.21	0
3	35049	59.31	0
3	35108	59.41	0
3	35167	59.51	0
3	35226	59.61	0
3	35285	59.71	0
3	35344	59.81	0
3	35403	59.91	0
3	35465	60.01	0
3	35524	60.11	0
3	35583	60.21	0
3	35642	60.31	0
3	35701	60.41	0
3	35760	60.51	0
3	35819	60.61	0
3	35878	60.71	0
3	35937	60.81	0
3	35996	60.91	0
3	36058	61.01	0
3	36117	61.11	0
3	36176	61.21	0
3	36235	61.31	0
3	36294	61.41	0
3	36353	61.51	0
3	36412	61.61	0
3	36471	61.71	0
3	36530	61.81	0
3	36589	61.91	0
3	36651	62.01	0
3	36710	62.11	0
3	36769	62.21	0
3	36828	62.31	0
3	36887	62.41	0
3	36946	62.51	0
3	37005	62.61	0
3	37064	62.71	0
3	37123	62.81	0
3	37182	62.91	0
3	37244	63.01	0
3	37303	63.11	0
3	37362	63.21	0
3	37421	63.31	0
3	37480	63.41	0
3	37539	63.51	0
3	37598	63.61	0
3	37657	63.71	0
3	37716	63.81	0
3	37775	63.91	0
3	37837	64.01	0
3	37896	64.11	0
3	37955	64.21	0
3	38014	64.31	0
3	38073	64.41	0
3	38132	64.51	0
3	38191	64.61	0
3	38250	64.71	0
3	38309	64.81	0
3	38368	64.91	0
3	38430	65.01	0
3	38489	65.11	0
3	38548	65.21	0
3	38607	65.31	0
3	38666	65.41	0
3	38725	65.51	0
3	38784	65.61	0
3	38843	65.71	0
3	38902	65.81	0
3	38961	65.91	0
3	39023	66.01	0
3	39082	66.11	0
3	39141	66.21	0
3	39200	66.31	0
3	39259	66.41	0
3	39318	66.51	0
3	39377	66.61	0
3	39436	66.71	0
3	39495	66.81	0
3	39554	66.91	0
3	39616	67.01	0
3	39675	67.11	0
3	39734	67.21	0
3	39793	67.31	0
3	39852	67.41	0
3	39911	67.51	0
3	39970	67.61	0
3	40029	67.71	0
3	40088	67.81	0
3	40147	67.91	0
3	40209	68.01	0
3	40268	68.11	0
3	40327	68.21	0
3	40386	68.31	0
3	40445	68.41	0
3	40504	68.51	0
3	40563	68.61	0
3	40622	68.71	0
3	40681	68.81	0
3	40740	68.91	0
3	40802	69.01	0
3	40861	69.11	0
3	40920	69.21	0
3	40979	69.31	0
3	41038	69.41	0
3	41097	69.51	0
3	41156	69.61	0
3	41215	69.71	0
3	41274	69.81	0
3	41333	69.91	0
3	41395	70.01	0
3	41454	70.11	0
3	41513	70.21	0
3	41572	70.31	0
3	41631	70.41	0
3	41690	70.51	0
3	41749	70.61	0
3	41808	70.71	0
3	41867	70.81	0
3	41926	70.91	0
3	41988	71.01	0
3	42047	71.11	0
3	42106	71.21	0
3	42165	71.31	0
3	42224	71.41	0
3	42283	71.51	0
3	42342	71.61	0
3	42401	71.71	0
3	42460	71.81	0
3	42519	71.91	0
3	42581	72.01	0
3	42640	72.11	0
3	42699	72.21	0
3	42758	72.31	0
3	42817	72.41	0
3	42876	72.51	0
3	42935	72.61	0
3	42994	72.71	0
3	43053	72.81	0
3	43112	72.91	0
3	43174	73.01	0
3	43233	73.11	0
3	43292	73.21	0
3	43351	73.31	0
3	43410	73.41	0
3	43469	73.51	0
3	43528	73.61	0
3	43587	73.71	0
3	43646	73.81	0
3	43705	73.91	0
3	43767	74.01	0
3	43826	74.11	0
3	43885	74.21	0
3	43944	74.31	0
3	44003	74.41	0
3	44062	74.51	0
3	44121	74.61	0
3	44180	74.71	0
3	44239	74.81	0
3	44298	74.91	0
3	44360	75.01	0
3	44419	75.11	0
3	44478	75.21	0
3	44537	75.31	0
3	44596	75.41	0
3	44655	75.51	0
3	44714	75.61	0
3	44773	75.71	0
3	44832	75.81	0
3	44891	75.91	0
3	44953	76.01	0
3	45012	76.11	0
3	45071	76.21	0
3	45130	76.31	0
3	45189	76.41	0
3	45248	76.51	0
3	45307	76.61	0
3	45366	76.71	0
3	45425	76.81	0
3	45484	76.91	0
3	45546	77.01	0
3	45605	77.11	0
3	45664	77.21	0
3	45723	77.31	0
3	45782	77.41	0
3	45841	77.51	0
3	45900	77.61	0
3	45959	77.71	0
3	46018	77.81	0
3	46077	77.91	0
3	46139	78.01	0
3	46198	78.11	0
3	46257	78.21	0
3	46316	78.31	0
3	46375	78.41	0
3	46434	78.51	0
3	46493	78.61	0
3	46552	78.71	0
3	46611	78.81	0
3	46670	78.91	0
3	46732	79.01	0
3	46791	79.11	0
3	46850	79.21	0
3	46909	79.31	0
3	46968	79.41	0
3	47027	79.51	0
3	47086	79.61	0
3	47145	79.71	0
3	47204	79.81	0
3	47263	79.91	0
3	47325	80.01	0
3	47384	80.11	0
3	47443	80.21	0
3	47502	80.31	0
3	47561	80.41	0
3	47620	80.51	0
3	47679	80.61	0
3	47738	80.71	0
3	47797	80.81	0
3	47856	80.91	0
3	47918	81.01	0
3	47977	81.11	0
3	48036	81.21	0
3	48095	81.31	0
3	48154	81.41	0
3	48213	81.51	0
3	48272	81.61	0
3	48331	81.71	0
3	48390	81.81	0
3	48449	81.91	0
3	48511	82.01	0
3	48570	82.11	0
3	48629	82.21	0
3	48688	82.31	0
3	48747	82.41	0
3	48806	82.51	0
3	48865	82.61	0
3	48924	82.71	0
3	48983	82.81	0
3	49042	82.91	0
3	49104	83.01	0
3	49163	83.11	0
3	49222	83.21	0
3	49281	83.31	0
3	49340	83.41	0
3	49399	83.51	0
3	49458	83.61	0
3	49517	83.71	0
3	49576	83.81	0
3	49635	83.91	0
3	49697	84.01	0
3	49756	84.11	0
3	49815	84.21	0
3	49874	84.31	0
3	49933	84.41	0
3	49992	84.51	0
3	50051	84.61	0
3	50110	84.71	0
3	50169	84.81	0
3	50228	84.91	0
3	50290	85.01	0
3	50349	85.11	0
3	50408	85.21	0
3	50467	85.31	0
3	50526	85.41	0
3	50585	85.51	0
3	50644	85.61	0
3	50703	85.71	0
3	50762	85.81	0
3	50821	85.91	0
3	50883	86.01	0
3	50942	86.11	0
3	51001	86.21	0
3	51060	86.31	0
3	51119	86.41	0
3	51178	86.51	0
3	51237	86.61	0
3	51296	86.71	0
3	51355	86.81	0
3	51414	86.91	0
3	51476	87.01	0
3	51535	87.11	0
3	51594	87.21	0
3	51653	87.31	0
3	51712	87.41	0
3	51771	87.51	0
3	51830	87.61	0
3	51889	87.71	0
3	51948	87.81	0
3	52007	87.91	0
3	52069	88.01	0
3	52128	88.11	0
3	52187	88.21	0
3	52246	88.31	0
3	52305	88.41	0
3	52364	88.51	0
3	52423	88.61	0
3	52482	88.71	0
3	52541	88.81	0
3	52600	88.91	0
3	52662	89.01	0
3	52721	89.11	0
3	52780	89.21	0
3	52839	89.31	0
3	52898	89.41	0
3	52957	89.51	0
3	53016	89.61	0
3	53075	89.71	0
3	53134	89.81	0
3	53193	89.91	0
3	53255	90.01	0
3	53314	90.11	0
3	53373	90.21	0
3	53432	90.31	0
3	53491	90.41	0
3	53550	90.51	0
3	53609	90.61	0
3	53668	90.71	0
3	53727	90.81	0
3	53786	90.91	0
3	53848	91.01	0
3	53907	91.11	0
3	53966	91.21	0
3	54025	91.31	0
3	54084	91.41	0
3	54143	91.51	0
3	54202	91.61	0
3	54261	91.71	0
3	54320	91.81	0
3	54379	91.91	0
3	54441	92.01	0
3	54500	92.11	0
3	54559	92.21	0
3	54618	92.31	0
3	54677	92.41	0
3	54736	92.51	0
3	54795	92.61	0
3	54854	92.71	0
3	54913	92.81	0
3	54972	92.91	0
3	55034	93.01	0
3	55093	93.11	0
3	55152	93.21	0
3	55211	93.31	0
3	55270	93.41	0
3	55329	93.51	0
3	55388	93.61	0
3	55447	93.71	0
3	55506	93.81	0
3	55565	93.91	0
3	55627	94.01	0
3	55686	94.11	0
3	55745	94.21	0
3	55804	94.31	0
3	55863	94.41	0
3	55922	94.51	0
3	55981	94.61	0
3	56040	94.71	0
3	56099	94.81	0
3	56158	94.91	0
3	56220	95.01	0
3	56279	95.11	0
3	56338	95.21	0
3	56397	95.31	0
3	56456	95.41	0
3	56515	95.51	0
3	56574	95.61	0
3	56633	95.71	0
3	56692	95.81	0
3	56751	95.91	0
3	56813	96.01	0
3	56872	96.11	0
3	56931	96.21	0
3	56990	96.31	0
3	57049	96.41	0
3	57108	96.51	0
3	57167	96.61	0
3	57226	96.71	0
3	57285	96.81	0
3	57344	96.91	0
3	57406	97.01	0
3	57465	97.11	0
3	57524	97.21	0
3	57583	97.31	0
3	57642	97.41	0
3	57701	97.51	0
3	57760	97.61	0
3	57819	97.71	0
3	57878	97.81	0
3	57937	97.91	0
3	57999	98.01	0
3	58058	98.11	0
3	58117	98.21	0
3	58176	98.31	0
3	58235	98.41	0
3	58294	98.51	0
3	58353	98.61	0
3	58412	98.71	0
3	58471	98.81	0
3	58530	98.91	0
3	58592	99.01	0
3	58651	99.11	0
3	58710	99.21	0
3	58769	99.31	0
3	58828	99.41	0
3	58887	99.51	0
3	58946	99.61	0
3	59005	99.71	0
3	59064	99.81	0
3	59123	99.91	0
4	113	1.11	0.00109259
4	172	1.21	0.00106709
4	231	1.31	0.00102704
4	290	1.41	0.000975759
4	349	1.51	0.00091619
4	408	1.61	0.000850891
4	467	1.71	0.000782061
4	526	1.81	0.00071157
4	585	1.91	0.00064098
4	647	2.01	0.000571575
4	706	2.11	0.000504387
4	765	2.21	0.000440223
4	824	2.31	0.000379691
4	883	2.41	0.000323223
4	942	2.51	0.000271102
4	1001	2.61	0.000223482
4	1060	2.71	0.000180409
4	1119	2.81	0.000141839
4	1178	2.91	0.000107653
4	1240	3.01	7.76787e-05
4	1299	3.11	5.16957e-05
4	1358	3.21	2.94534e-05
4	1417	3.31	1.06787e-05
4	1476	3.41	-4.91459e-06
4	1535	3.51	-1.76184e-05
4	1594	3.61	-2.7724e-05
4	1653	3.71	-3.55168e-05
4	1712	3.81	-4.12726e-05
4	1771	3.91	-4.52541e-05
4	1833	4.01	-4.77086e-05
4	1892	4.11	-4.88665e-05
4	1951	4.21	-4.89399e-05
4	2010	4.31	-4.81224e-05
4	2069	4.41	-4.65886e-05
4	2128	4.51	-4.44947e-05
4	2187	4.61	-4.1979e-05
4	2246	4.71	-3.91623e-05
4	2305	4.81	-3.61492e-05
4	2364	4.91	-3.3029e-05
4	2426	5.01	-2.9877e-05
4	2485	5.11	-2.67554e-05
4	2544	5.21	-2.37147e-05
4	2603	5.31	-2.07949e-05
4	2662	5.41	-1.80267e-05
4	2721	5.51	-1.54325e-05
4	2780	5.61	-1.30275e-05
4	2839	5.71	-1.0821e-05
4	2898	5.81	-8.81673e-06
4	2957	5.91	-7.01443e-06
4	3019	6.01	-5.4101e-06
4	3078	6.11	-3.99696e-06
4	3137	6.21	-2.766e-06
4	3196	6.31	-1.70658e-06
4	3255	6.41	-8.06872e-07
4	3314	6.51	-5.43281e-08
4	3373	6.61	5.63994e-07
4	3432	6.71	1.06112e-06
4	3491	6.81	1.4499e-06
4	3550	6.91	1.74283e-06
4	3612	7.01	1.95188e-06
4	3671	7.11	2.08836e-06
4	3730	7.21	2.16287e-06
4	3789	7.31	2.1852e-06
4	3848	7.41	2.16432e-06
4	3907	7.51	2.10838e-06
4	3966	7.61	2.02467e-06
4	4025	7.71	1.91968e-06
4	4084	7.81	1.79913e-06
4	4143	7.91	1.66796e-06
4	4205	8.01	1.53044e-06
4	4264	8.11	1.39018e-06
4	4323	8.21	1.25018e-06
4	4382	8.31	1.11291e-06
4	4441	8.41	9.80339e-07
4	4500	8.51	8.54002e-07
4	4559	8.61	7.35044e-07
4	4618	8.71	6.24274e-07
4	4677	8.81	5.22206e-07
4	4736	8.91	4.2911e-07
4	4798	9.01	3.45041e-07
4	4857	9.11	2.69888e-07
4	4916	9.21	2.03394e-07
4	4975	9.31	1.45199e-07
4	5034	9.41	9.48539e-08
4	5093	9.51	5.18526e-08
4	5152	9.61	1.56462e-08
4	5211	9.71	-1.43366e-08
4	5270	9.81	-3.86756e-08
4	5329	9.91	-5.79483e-08
4	5422	10.01	-7.27191e-08
4	5482	10.11	-8.35328e-08
4	5542	10.21	-9.09047e-08
4	5602	10.31	-9.53222e-08
4	5662	10.41	-9.72364e-08
4	5722	10.51	-9.7063e-08
4	5782	10.61	-9.51793e-08
4	5842	10.71	-9.19272e-08
4	5902	10.81	-8.76099e-08
4	5962	10.91	-8.24976e-08
4	6025	11.01	-7.68239e-08
4	6085	11.11	-7.07914e-08
4	6145	11.21	-6.45734e-08
4	6205	11.31	-5.83135e-08
4	6265	11.41	-5.21325e-08
4	6325	11.51	-4.6127e-08
4	6385	11.61	-4.0373e-08
4	6445	11.71	-3.49289e-08
4	6505	11.81	-2.98357e-08
4	6565	11.91	-2.51227e-08
4	6628	12.01	-2.08054e-08
4	6688	12.11	-1.6891e-08
4	6748	12.21	-1.33767e-08
4	6808	12.31	-1.02538e-08
4	6868	12.41	-7.50759e-09
4	6928	12.51	-5.12017e-09
4	6988	12.61	-3.07026e-09
4	7048	12.71	-1.33298e-09
4	7108	12.81	1.15818e-10
4	7168	12.91	1.30242e-09
4	7231	13.01	2.25242e-09
4	7291	13.11	2.99138e-09
4	7351	13.21	3.54419e-09
4	7411	13.31	3.93356e-09
4	7471	13.41	4.18297e-09
4	7531	13.51	4.31157e-09
4	7591	13.61	4.34071e-09
4	7651	13.71	4.28599e-09
4	7711	13.81	4.16449e-09
4	7771	13.91	3.99041e-09
4	7834	14.01	3.77582e-09
4	7894	14.11	3.53211e-09
4	7954	14.21	3.2685e-09
4	8014	14.31	2.99423e-09
4	8074	14.41	2.71498e-09
4	8134	14.51	2.43716e-09
4	8194	14.61	2.16573e-09
4	8254	14.71	1.90425e-09
4	8314	14.81	1.65556e-09
4	8374	14.91	1.4218e-09
4	8437	15.01	1.20437e-09
4	8497	15.11	1.00471e-09
4	8557	15.21	8.22808e-10
4	8617	15.31	6.57963e-10
4	8677	15.41	5.11591e-10
4	8737	15.51	3.82272e-10
4	8797	15.61	2.69296e-10
4	8857	15.71	1.71951e-10
4	8917	15.81	8.88178e-11
4	8977	15.91	1.84741e-11
4	9040	16.01	-3.90799e-11
4	9100	16.11	-8.52651e-11
4	9160	16.21	-1.22213e-10
4	9220	16.31	-1.49925e-10
4	9280	16.41	-1.7053e-10
4	9340	16.51	-1.84031e-10
4	9400	16.61	-1.91847e-10
4	9460	16.71	-1.94689e-10
4	9520	16.81	-1.93268e-10
4	9580	16.91	-1.89004e-10
4	9643	17.01	-1.81899e-10
4	9703	17.11	-1.73372e-10
4	9763	17.21	-1.62714e-10
4	9823	17.31	-1.51346e-10
4	9883	17.41	-1.39266e-10
4	9943	17.51	-1.26477e-10
4	10003	17.61	-1.14397e-10
4	10063	17.71	-1.02318e-10
4	10123	17.81	-9.02389e-11
4	10183	17.91	-7.88702e-11
4	10246	18.01	-6.89226e-11
4	10306	18.11	-5.8975e-11
4	10366	18.21	-4.9738e-11
4	10426	18.31	-4.1922e-11
4	10486	18.41	-3.41061e-11
4	10546	18.51	-2.70006e-11
4	10606	18.61	-2.13163e-11
4	10666	18.71	-1.56319e-11
4	10726	18.81	-1.06581e-11
4	10786	18.91	-7.10543e-12
4	10849	19.01	-3.55271e-12
4	10909	19.11	-7.10543e-13
4	10969	19.21	7.10543e-13
4	11029	19.31	2.84217e-12
4	11089	19.41	4.26326e-12
4	11149	19.51	4.9738e-12
4	11209	19.61	6.39488e-12
4	11269	19.71	7.81597e-12
4	11329	19.81	8.52651e-12
4	11389	19.91	9.23706e-12
4	11452	20.01	9.9476e-12
4	11512	20.11	1.06581e-11
4	11572	20.21	1.13687e-11
4	11632	20.31	1.20792e-11
4	11692	20.41	1.27898e-11
4	11752	20.51	1.35003e-11
4	11812	20.61	1.35003e-11
4	11872	20.71	1.42109e-11
4	11932	20.81	1.42109e-11
4	11992	20.91	1.49214e-11
4	12055	21.01	1.49214e-11
4	12115	21.11	1.49214e-11
4	12175	21.21	1.56319e-11
4	12235	21.31	1.56319e-11
4	12295	21.41	1.56319e-11
4	12355	21.51	1.63425e-11
4	12415	21.61	1.63425e-11
4	12475	21.71	1.63425e-11
4	12535	21.81	1.63425e-11
4	12595	21.91	1.63425e-11
4	12658	22.01	1.7053e-11
4	12718	22.11	1.7053e-11
4	12778	22.21	1.7053e-11
4	12838	22.31	1.7053e-11
4	12898	22.41	1.7053e-11
4	12958	22.51	1.7053e-11
4	13018	22.61	1.7053e-11
4	13078	22.71	1.7053e-11
4	13138	22.81	1.7053e-11
4	13198	22.91	1.7053e-11
4	13261	23.01	1.77636e-11
4	13321	23.11	1.77636e-11
4	13381	23.21	1.77636e-11
4	13441	23.31	1.77636e-11
4	13501	23.41	1.77636e-11
4	13561	23.51	1.77636e-11
4	13621	23.61	1.77636e-11
4	13681	23.71	1.77636e-11
4	13741	23.81	1.77636e-11
4	13801	23.91	1.77636e-11
4	13864	24.01	1.77636e-11
4	13924	24.11	1.77636e-11
4	13984	24.21	1.77636e-11
4	14044	24.31	1.77636e-11
4	14104	24.41	1.77636e-11
4	14164	24.51	1.77636e-11
4	14224	24.61	1.77636e-11
4	14284	24.71	1.77636e-11
4	14344	24.81	1.77636e-11
4	14404	24.91	1.77636e-11
4	14467	25.01	1.77636e-11
4	14527	25.11	1.77636e-11
4	14587	25.21	1.77636e-11
4	14647	25.31	1.77636e-11
4	14707	25.41	1.77636e-11
4	14767	25.51	1.77636e-11
4	14827	25.61	1.77636e-11
4	14887	25.71	1.77636e-11
4	14947	25.81	1.77636e-11
4	15007	25.91	1.77636e-11
4	15070	26.01	1.77636e-11
4	15130	26.11	1.77636e-11
4	15190	26.21	1.77636e-11
4	15250	26.31	1.77636e-11
4	15310	26.41	1.77636e-11
4	15370	26.51	1.77636e-11
4	15430	26.61	1.77636e-11
4	15490	26.71	1.77636e-11
4	15550	26.81	1.77636e-11
4	15610	26.91	1.77636e-11
4	15673	27.01	1.77636e-11
4	15733	27.11	1.77636e-11
4	15793	27.21	1.77636e-11
4	15853	27.31	1.77636e-11
4	15913	27.41	1.77636e-11
4	15973	27.51	1.77636e-11
4	16033	27.61	1.77636e-11
4	16093	27.71	1.77636e-11
4	16153	27.81	1.77636e-11
4	16213	27.91	1.77636e-11
4	16276	28.01	1.77636e-11
4	16336	28.11	1.77636e-11
4	16396	28.21	1.77636e-11
[...]
27	46185	78.097783767061	1
27	46244	78.197793880454	1
27	46303	78.297790994429	1
27	46362	78.397788108986	1
27	46421	78.497785224125	1
27	46480	78.597795339846	1
27	46539	78.697792456149	1
27	46598	78.797789573034	1
27	46657	78.897786690503	1
27	46716	78.997783808554	1
27	46778	79.097793927187	1
27	46837	79.197791046404	1
27	46896	79.297788166203	1
27	46955	79.397785286585	1
27	47014	79.49779540755	1
27	47073	79.597792529099	1
27	47132	79.69778965123	1
27	47191	79.797786773945	1
27	47250	79.897783897243	1
27	47309	79.997794021125	1
27	47371	80.09779114559	1
27	47430	80.197788270639	1
27	47489	80.297785396272	1
27	47548	80.397795522489	1
27	47607	80.49779264929	1
27	47666	80.597789776675	1
27	47725	80.697786904644	1
27	47784	80.797784033197	1
27	47843	80.897794162335	1
27	47902	80.997791292057	1
27	47964	81.097788422363	1
27	48023	81.197785553254	1
27	48082	81.29778268473	1
27	48141	81.39779281679	1
27	48200	81.497789949434	1
27	48259	81.597787082664	1
27	48318	81.697784216478	1
27	48377	81.797794350878	1
27	48436	81.897791485862	1
27	48495	81.997788621432	1
27	48557	82.097785757586	1
27	48616	82.197782894326	1
27	48675	82.297793031652	1
27	48734	82.397790169562	1
27	48793	82.497787308058	1
27	48852	82.59778444714	1
27	48911	82.697794586808	1
27	48970	82.797791727061	1
27	49029	82.897788867899	1
27	49088	82.997786009323	1
27	49150	83.097783151333	1
27	49209	83.197793293929	1
27	49268	83.297790437111	1
27	49327	83.397787580879	1
27	49386	83.497784725233	1
27	49445	83.597794870173	1
27	49504	83.697792015699	1
27	49563	83.797789161811	1
27	49622	83.89778630851	1
27	49681	83.997783455795	1
27	49743	84.097793603666	1
27	49802	84.197790752124	1
27	49861	84.297787901168	1
27	49920	84.397785050799	1
27	49979	84.497795201016	1
27	50038	84.59779235182	1
27	50097	84.697789503211	1
27	50156	84.797786655188	1
27	50215	84.897783807753	1
27	50274	84.997793960904	1
27	50336	85.097791114642	1
27	50395	85.197788268967	1
27	50454	85.297785423879	1
27	50513	85.397795579378	1
27	50572	85.497792735464	1
27	50631	85.597789892137	1
27	50690	85.697787049398	1
27	50749	85.797784207245	1
27	50808	85.89779436568	1
27	50867	85.997791524702	1
27	50929	86.097788684311	1
27	50988	86.197785844508	1
27	51047	86.297783005292	1
27	51106	86.397793166663	1
27	51165	86.497790328622	1
27	51224	86.597787491169	1
27	51283	86.697784654304	1
27	51342	86.797794818025	1
27	51401	86.897791982334	1
27	51460	86.997789147231	1
27	51522	87.097786312716	1
27	51581	87.197783478789	1
27	51640	87.29779364545	1
27	51699	87.397790812698	1
27	51758	87.497787980534	1
27	51817	87.597785148958	1
27	51876	87.697795317969	1
27	51935	87.797792487568	1
27	51994	87.897789657755	1
27	52053	87.997786828531	1
27	52115	88.097783999895	1
27	52174	88.197794171847	1
27	52233	88.297791344387	1
27	52292	88.397788517516	1
27	52351	88.497785691233	1
27	52410	88.597782865538	1
27	52469	88.697793040431	1
27	52528	88.797790215912	1
27	52587	88.897787391982	1
27	52646	88.99778456864	1
27	52708	89.097794745887	1
27	52767	89.197791923722	1
27	52826	89.297789102145	1
27	52885	89.397786281157	1
27	52944	89.497783460758	1
27	53003	89.597793640947	1
27	53062	89.697790821724	1
27	53121	89.79778800309	1
27	53180	89.897785185045	1
27	53239	89.997795367588	1
27	53301	90.09779255072	1
27	53360	90.197789734441	1
27	53419	90.297786918751	1
27	53478	90.397784103649	1
27	53537	90.497794289136	1
27	53596	90.597791475212	1
27	53655	90.697788661877	1
27	53714	90.797785849131	1
27	53773	90.897783036974	1
27	53832	90.997793225406	1
27	53894	91.097790414427	1
27	53953	91.197787604037	1
27	54012	91.297784794235	1
27	54071	91.397794985023	1
27	54130	91.4977921764	1
27	54189	91.597789368366	1
27	54248	91.697786560921	1
27	54307	91.797783754065	1
27	54366	91.897793947798	1
27	54425	91.99779114212	1
27	54487	92.097788337032	1
27	54546	92.197785532533	1
27	54605	92.297782728623	1
27	54664	92.397792925303	1
27	54723	92.497790122571	1
27	54782	92.597787320429	1
27	54841	92.697784518877	1
27	54900	92.797794717913	1
27	54959	92.897791917539	1
27	55018	92.997789117755	1
27	55080	93.09778631856	1
27	55139	93.197783519954	1
27	55198	93.297793721938	1
27	55257	93.397790924512	1
27	55316	93.497788127674	1
27	55375	93.597785331426	1
27	55434	93.697795535768	1
27	55493	93.7977927407	1
27	55552	93.897789946221	1
27	55611	93.997787152331	1
27	55673	94.097784359031	1
27	55732	94.197794566321	1
27	55791	94.297791774201	1
27	55850	94.397788982671	1
27	55909	94.49778619173	1
27	55968	94.597783401378	1
27	56027	94.697793611616	1
27	56086	94.797790822444	1
27	56145	94.897788033862	1
27	56204	94.99778524587	1
27	56266	95.097795458468	1
27	56325	95.197792671656	1
27	56384	95.297789885434	1
27	56443	95.397787099802	1
27	56502	95.497784314759	1
27	56561	95.597794530305	1
27	56620	95.697791746441	1
27	56679	95.797788963167	1
27	56738	95.897786180483	1
27	56797	95.997783398389	1
27	56859	96.097793616885	1
27	56918	96.197790835971	1
27	56977	96.297788055647	1
27	57036	96.397785275913	1
27	57095	96.497795496769	1
27	57154	96.597792718215	1
27	57213	96.697789940251	1
27	57272	96.797787162877	1
27	57331	96.897784386095	1
27	57390	96.997794609903	1
27	57452	97.097791834301	1
27	57511	97.197789059289	1
27	57570	97.297786284867	1
27	57629	97.397783511035	1
27	57688	97.497793737793	1
27	57747	97.597790965141	1
27	57806	97.697788193079	1
27	57865	97.797785421607	1
27	57924	97.897782650726	1
27	57983	97.997792880436	1
27	58045	98.097790110736	1
27	58104	98.197787341626	1
27	58163	98.297784573106	1
27	58222	98.397794805176	1
27	58281	98.497792037836	1
27	58340	98.597789271088	1
27	58399	98.69778650493	1
27	58458	98.797783739362	1
27	58517	98.897793974384	1
27	58576	98.997791209996	1
27	58638	99.0977884462	1
27	58697	99.197785682994	1
27	58756	99.297782920378	1
27	58815	99.397793158352	1
27	58874	99.497790396917	1
27	58933	99.597787636073	1
27	58992	99.697784875819	1
27	59051	99.797795116155	1
27	59110	99.897792357082	1
27	59169	99.9977895986	1
28	633	2	0
28	1226	3	0
28	1819	4	0
28	2412	5	0
28	3005	6	0
28	3598	7	0
28	4191	8	0
28	4784	9	0
28	5379	10	0
28	6010	11	0
28	6613	12	0
28	7216	13	0
28	7819	14	0
28	8422	15	0
28	9025	16	0
28	9628	17	0
28	10231	18	0
28	10834	19	0
28	11437	20	0
28	12040	21	0
28	12643	22	0
28	13246	23	0
28	13849	24	0
28	14452	25	0
28	15055	26	0
28	15658	27	0
28	16261	28	0
28	16864	29	0
28	17467	30	0
28	18070	31	0
28	18673	32	0
28	19276	33	0
28	19879	34	0
28	20482	35	0
28	21085	36	0
28	21688	37	0
28	22291	38	0
28	22894	39	0
28	23497	40	0
28	24100	41	0
28	24703	42	0
28	25370	43	0
28	25963	44	0
28	26556	45	0
28	27149	46	0
28	27742	47	0
28	28335	48	0
28	28928	49	0
28	29521	50	0
28	30114	51	0
28	30707	52	0
28	31300	53	0
28	31893	54	0
28	32486	55	0
28	33079	56	0
28	33672	57	0
28	34265	58	0
28	34858	59	0
28	35451	60	0
28	36044	61	0
28	36637	62	0
28	37230	63	0
28	37823	64	0
28	38416	65	0
28	39009	66	0
28	39602	67	0
28	40195	68	0
28	40788	69	0
28	41381	70	0
28	41974	71	0
28	42567	72	0
28	43160	73	0
28	43753	74	0
28	44346	75	0
28	44939	76	0
28	45532	77	0
28	46125	78	0
28	46718	79	0
28	47311	80	0
28	47904	81	0
28	48497	82	0
28	49090	83	0
28	49683	84	0
28	50276	85	0
28	50869	86	0
28	51462	87	0
28	52055	88	0
28	52648	89	0
28	53241	90	0
28	53834	91	0
28	54427	92	0
28	55020	93	0
28	55613	94	0
28	56206	95	0
28	56799	96	0
28	57392	97	0
28	57985	98	0
28	58578	99	0
28	59171	100	0
29	633	2	0.005625
29	1226	3	0.00625
29	1819	4	0.00625
29	2412	5	0.00625
29	3005	6	0.00625
29	3598	7	0.00625
29	4191	8	0.00625
29	4784	9	0.00625
29	5379	10	0.00625
29	6010	11	0.006299
29	6613	12	0.00625
29	7216	13	0.00625
29	7819	14	0.00625
29	8422	15	0.00625
29	9025	16	0.00625
29	9628	17	0.00625
29	10231	18	0.00625
29	10834	19	0.00625
29	11437	20	0.00625
29	12040	21	0.00625
29	12643	22	0.00625
29	13246	23	0.00625
29	13849	24	0.00625
29	14452	25	0.00625
29	15055	26	0.00625
29	15658	27	0.00625
29	16261	28	0.00625
29	16864	29	0.00625
29	17467	30	0.00625
29	18070	31	0.00625
29	18673	32	0.00625
29	19276	33	0.00625
29	19879	34	0.00625
29	20482	35	0.00625
29	21085	36	0.00625
29	21688	37	0.00625
29	22291	38	0.00625
29	22894	39	0.00625
29	23497	40	0.00625
29	24100	41	0.00625
29	24703	42	0.00625
29	25370	43	0.006539092734
29	25963	44	0.00625
29	26556	45	0.00625
29	27149	46	0.00625
29	27742	47	0.00625
29	28335	48	0.00625
29	28928	49	0.00625
29	29521	50	0.00625
29	30114	51	0.00625
29	30707	52	0.00625
29	31300	53	0.00625
29	31893	54	0.00625
29	32486	55	0.00625
29	33079	56	0.00625
29	33672	57	0.00625
29	34265	58	0.00625
29	34858	59	0.00625
29	35451	60	0.00625
29	36044	61	0.00625
29	36637	62	0.00625
29	37230	63	0.00625
29	37823	64	0.00625
29	38416	65	0.00625
29	39009	66	0.00625
29	39602	67	0.00625
29	40195	68	0.00625
29	40788	69	0.00625
29	41381	70	0.00625
29	41974	71	0.00625
29	42567	72	0.00625
29	43160	73	0.00625
29	43753	74	0.00625
29	44346	75	0.00625
29	44939	76	0.00625
29	45532	77	0.00625
29	46125	78	0.00625
29	46718	79	0.00625
29	47311	80	0.00625
29	47904	81	0.00625
29	48497	82	0.00625
29	49090	83	0.00625
29	49683	84	0.00625
29	50276	85	0.00625
29	50869	86	0.00625
29	51462	87	0.00625
29	52055	88	0.00625
29	52648	89	0.00625
29	53241	90	0.00625
29	53834	91	0.00625
29	54427	92	0.00625
29	55020	93	0.00625
29	55613	94	0.00625
29	56206	95	0.00625
29	56799	96	0.00625
29	57392	97	0.00625
29	57985	98	0.00625
29	58578	99	0.00625
29	59171	100	0.00625
30	633	2	0
30	1226	3	0
30	1819	4	0
30	2412	5	0
30	3005	6	0
30	3598	7	0
30	4191	8	0
30	4784	9	0
30	5379	10	0
30	6010	11	0
30	6613	12	0
30	7216	13	0
30	7819	14	0
30	8422	15	0
30	9025	16	0
30	9628	17	0
30	10231	18	0
30	10834	19	0
30	11437	20	0
30	12040	21	0
30	12643	22	0
30	13246	23	0
30	13849	24	0
30	14452	25	0
30	15055	26	0
30	15658	27	0
30	16261	28	0
30	16864	29	0
30	17467	30	0
30	18070	31	0
30	18673	32	0
30	19276	33	0
30	19879	34	0
30	20482	35	0
30	21085	36	0
30	21688	37	0
30	22291	38	0
30	22894	39	0
30	23497	40	0
30	24100	41	0
30	24703	42	0
30	25370	43	0
30	25963	44	0
30	26556	45	0
30	27149	46	0
30	27742	47	0
30	28335	48	0
30	28928	49	0
30	29521	50	0
30	30114	51	0
30	30707	52	0
30	31300	53	0
30	31893	54	0
30	32486	55	0
30	33079	56	0
30	33672	57	0
30	34265	58	0
30	34858	59	0
30	35451	60	0
30	36044	61	0
30	36637	62	0
30	37230	63	0
30	37823	64	0
30	38416	65	0
30	39009	66	0
30	39602	67	0
30	40195	68	0
30	40788	69	0
30	41381	70	0
30	41974	71	0
30	42567	72	0
30	43160	73	0
30	43753	74	0
30	44346	75	0
30	44939	76	0
30	45532	77	0
30	46125	78	0
30	46718	79	0
30	47311	80	0
30	47904	81	0
30	48497	82	0
30	49090	83	0
30	49683	84	0
30	50276	85	0
30	50869	86	0
30	51462	87	0
30	52055	88	0
30	52648	89	0
30	53241	90	0
30	53834	91	0
30	54427	92	0
30	55020	93	0
30	55613	94	0
30	56206	95	0
30	56799	96	0
30	57392	97	0
30	57985	98	0
30	58578	99	0
30	59171	100	0
31	634	2	1
31	1227	3	1
31	1820	4	1
31	2413	5	1
31	3006	6	1
31	3599	7	1
31	4192	8	1
31	4785	9	1
31	5380	10	1
31	6011	11	1
31	6614	12	1
31	7217	13	1
31	7820	14	1
31	8423	15	1
31	9026	16	1
31	9629	17	1
31	10232	18	1
31	10835	19	1
31	11438	20	1
31	12041	21	1
31	12644	22	1
31	13247	23	1
31	13850	24	1
31	14453	25	1
31	15056	26	1
31	15659	27	1
31	16262	28	1
31	16865	29	1
31	17468	30	1
31	18071	31	1
31	18674	32	1
31	19277	33	1
31	19880	34	1
31	20483	35	1
31	21086	36	1
31	21689	37	1
31	22292	38	1
31	22895	39	1
31	23498	40	1
31	24101	41	1
31	24704	42	1
31	25371	43	1
31	25964	44	1
31	26557	45	1
31	27150	46	1
31	27743	47	1
31	28336	48	1
31	28929	49	1
31	29522	50	1
31	30115	51	1
31	30708	52	1
31	31301	53	1
31	31894	54	1
31	32487	55	1
31	33080	56	1
31	33673	57	1
31	34266	58	1
31	34859	59	1
31	35452	60	1
31	36045	61	1
31	36638	62	1
31	37231	63	1
31	37824	64	1
31	38417	65	1
31	39010	66	1
31	39603	67	1
31	40196	68	1
31	40789	69	1
31	41382	70	1
31	41975	71	1
31	42568	72	1
31	43161	73	1
31	43754	74	1
31	44347	75	1
31	44940	76	1
31	45533	77	1
31	46126	78	1
31	46719	79	1
31	47312	80	1
31	47905	81	1
31	48498	82	1
31	49091	83	1
31	49684	84	1
31	50277	85	1
31	50870	86	1
31	51463	87	1
31	52056	88	1
31	52649	89	1
31	53242	90	1
31	53835	91	1
31	54428	92	1
31	55021	93	1
31	55614	94	1
31	56207	95	1
31	56800	96	1
31	57393	97	1
31	57986	98	1
31	58579	99	1
31	59172	100	1
32	634	2	0.005625
32	1227	3	0.00625
32	1820	4	0.00625
32	2413	5	0.00625
32	3006	6	0.00625
32	3599	7	0.00625
32	4192	8	0.00625
32	4785	9	0.00625
32	5380	10	0.00625
32	6011	11	0.006298
32	6614	12	0.00625
32	7217	13	0.00625
32	7820	14	0.00625
32	8423	15	0.00625
32	9026	16	0.00625
32	9629	17	0.00625
32	10232	18	0.00625
32	10835	19	0.00625
32	11438	20	0.00625
32	12041	21	0.00625
32	12644	22	0.00625
32	13247	23	0.00625
32	13850	24	0.00625
32	14453	25	0.00625
32	15056	26	0.00625
32	15659	27	0.00625
32	16262	28	0.00625
32	16865	29	0.00625
32	17468	30	0.00625
32	18071	31	0.00625
32	18674	32	0.00625
32	19277	33	0.00625
32	19880	34	0.00625
32	20483	35	0.00625
32	21086	36	0.00625
32	21689	37	0.00625
32	22292	38	0.00625
32	22895	39	0.00625
32	23498	40	0.00625
32	24101	41	0.00625
32	24704	42	0.00625
32	25371	43	0.006539092734
32	25964	44	0.00625
32	26557	45	0.00625
32	27150	46	0.00625
32	27743	47	0.00625
32	28336	48	0.00625
32	28929	49	0.00625
32	29522	50	0.00625
32	30115	51	0.00625
32	30708	52	0.00625
32	31301	53	0.00625
32	31894	54	0.00625
32	32487	55	0.00625
32	33080	56	0.00625
32	33673	57	0.00625
32	34266	58	0.00625
32	34859	59	0.00625
32	35452	60	0.00625
32	36045	61	0.00625
32	36638	62	0.00625
32	37231	63	0.00625
32	37824	64	0.00625
32	38417	65	0.00625
32	39010	66	0.00625
32	39603	67	0.00625
32	40196	68	0.00625
32	40789	69	0.00625
32	41382	70	0.00625
32	41975	71	0.00625
32	42568	72	0.00625
32	43161	73	0.00625
32	43754	74	0.00625
32	44347	75	0.00625
32	44940	76	0.00625
32	45533	77	0.00625
32	46126	78	0.00625
32	46719	79	0.00625
32	47312	80	0.00625
32	47905	81	0.00625
32	48498	82	0.00625
32	49091	83	0.00625
32	49684	84	0.00625
32	50277	85	0.00625
32	50870	86	0.00625
32	51463	87	0.00625
32	52056	88	0.00625
32	52649	89	0.00625
32	53242	90	0.00625
32	53835	91	0.00625
32	54428	92	0.00625
32	55021	93	0.00625
32	55614	94	0.00625
32	56207	95	0.00625
32	56800	96	0.00625
32	57393	97	0.00625
32	57986	98	0.00625
32	58579	99	0.00625
32	59172	100	0.00625
33	634	2	0
33	1227	3	0
33	1820	4	0
33	2413	5	0
33	3006	6	0
33	3599	7	0
33	4192	8	0
33	4785	9	0
33	5380	10	0
33	6011	11	0
33	6614	12	0
33	7217	13	0
33	7820	14	0
33	8423	15	0
33	9026	16	0
33	9629	17	0
33	10232	18	0
33	10835	19	0
33	11438	20	0
33	12041	21	0
33	12644	22	0
33	13247	23	0
33	13850	24	0
33	14453	25	0
33	15056	26	0
33	15659	27	0
33	16262	28	0
33	16865	29	0
33	17468	30	0
33	18071	31	0
33	18674	32	0
33	19277	33	0
33	19880	34	0
33	20483	35	0
33	21086	36	0
33	21689	37	0
33	22292	38	0
33	22895	39	0
33	23498	40	0
33	24101	41	0
33	24704	42	0
33	25371	43	0
33	25964	44	0
33	26557	45	0
33	27150	46	0
33	27743	47	0
33	28336	48	0
33	28929	49	0
33	29522	50	0
33	30115	51	0
33	30708	52	0
33	31301	53	0
33	31894	54	0
33	32487	55	0
33	33080	56	0
33	33673	57	0
33	34266	58	0
33	34859	59	0
33	35452	60	0
33	36045	61	0
33	36638	62	0
33	37231	63	0
33	37824	64	0
33	38417	65	0
33	39010	66	0
33	39603	67	0
33	40196	68	0
33	40789	69	0
33	41382	70	0
33	41975	71	0
33	42568	72	0
33	43161	73	0
33	43754	74	0
33	44347	75	0
33	44940	76	0
33	45533	77	0
33	46126	78	0
33	46719	79	0
33	47312	80	0
33	47905	81	0
33	48498	82	0
33	49091	83	0
33	49684	84	0
33	50277	85	0
33	50870	86	0
33	51463	87	0
33	52056	88	0
33	52649	89	0
33	53242	90	0
33	53835	91	0
33	54428	92	0
33	55021	93	0
33	55614	94	0
33	56207	95	0
33	56800	96	0
33	57393	97	0
33	57986	98	0
33	58579	99	0
33	59172	100	0
34	635	2	2
34	1228	3	2
34	1821	4	2
34	2414	5	2
34	3007	6	2
34	3600	7	2
34	4193	8	2
34	4786	9	2
34	5381	10	2
34	6012	11	2
34	6615	12	2
34	7218	13	2
34	7821	14	2
34	8424	15	2
34	9027	16	2
34	9630	17	2
34	10233	18	2
34	10836	19	2
34	11439	20	2
34	12042	21	2
34	12645	22	2
34	13248	23	2
34	13851	24	2
34	14454	25	2
34	15057	26	2
34	15660	27	2
34	16263	28	2
34	16866	29	2
34	17469	30	2
34	18072	31	2
34	18675	32	2
34	19278	33	2
34	19881	34	2
34	20484	35	2
34	21087	36	2
34	21690	37	2
34	22293	38	2
34	22896	39	2
34	23499	40	2
34	24102	41	2
34	24705	42	2
34	25372	43	2
34	25965	44	2
34	26558	45	2
34	27151	46	2
34	27744	47	2
34	28337	48	2
34	28930	49	2
34	29523	50	2
34	30116	51	2
34	30709	52	2
34	31302	53	2
34	31895	54	2
34	32488	55	2
34	33081	56	2
34	33674	57	2
34	34267	58	2
34	34860	59	2
34	35453	60	2
34	36046	61	2
34	36639	62	2
34	37232	63	2
34	37825	64	2
34	38418	65	2
34	39011	66	2
34	39604	67	2
34	40197	68	2
34	40790	69	2
34	41383	70	2
34	41976	71	2
34	42569	72	2
34	43162	73	2
34	43755	74	2
34	44348	75	2
34	44941	76	2
34	45534	77	2
34	46127	78	2
34	46720	79	2
34	47313	80	2
34	47906	81	2
34	48499	82	2
34	49092	83	2
34	49685	84	2
34	50278	85	2
34	50871	86	2
34	51464	87	2
34	52057	88	2
34	52650	89	2
34	53243	90	2
34	53836	91	2
34	54429	92	2
34	55022	93	2
34	55615	94	2
34	56208	95	2
34	56801	96	2
34	57394	97	2
34	57987	98	2
34	58580	99	2
34	59173	100	2
35	635	2	0.002504
35	1228	3	0.00313
35	1821	4	0.00313
35	2414	5	0.00313
35	3007	6	0.00313
35	3600	7	0.00313
35	4193	8	0.00313
35	4786	9	0.00313
35	5381	10	0.00313
35	6012	11	0.003179
35	6615	12	0.00313
35	7218	13	0.00313
35	7821	14	0.00313
35	8424	15	0.00313
35	9027	16	0.00313
35	9630	17	0.00313
35	10233	18	0.00313
35	10836	19	0.00313
35	11439	20	0.00313
35	12042	21	0.00313
35	12645	22	0.00313
35	13248	23	0.00313
35	13851	24	0.00313
35	14454	25	0.00313
35	15057	26	0.00313
35	15660	27	0.00313
35	16263	28	0.00313
35	16866	29	0.00313
35	17469	30	0.00313
35	18072	31	0.00313
35	18675	32	0.00313
35	19278	33	0.00313
35	19881	34	0.00313
35	20484	35	0.00313
35	21087	36	0.00313
35	21690	37	0.00313
35	22293	38	0.00313
35	22896	39	0.00313
35	23499	40	0.00313
35	24102	41	0.00313
35	24705	42	0.00313
35	25372	43	0.00313
35	25965	44	0.00313
35	26558	45	0.00313
35	27151	46	0.00313
35	27744	47	0.00313
35	28337	48	0.00313
35	28930	49	0.00313
35	29523	50	0.00313
35	30116	51	0.00313
35	30709	52	0.00313
35	31302	53	0.00313
35	31895	54	0.00313
35	32488	55	0.00313
35	33081	56	0.00313
35	33674	57	0.00313
35	34267	58	0.00313
35	34860	59	0.00313
35	35453	60	0.00313
35	36046	61	0.00313
35	36639	62	0.00313
35	37232	63	0.00313
35	37825	64	0.00313
35	38418	65	0.00313
35	39011	66	0.00313
35	39604	67	0.00313
35	40197	68	0.00313
35	40790	69	0.00313
35	41383	70	0.00313
35	41976	71	0.00313
35	42569	72	0.00313
35	43162	73	0.00313
35	43755	74	0.00313
35	44348	75	0.00313
35	44941	76	0.00313
35	45534	77	0.00313
35	46127	78	0.00313
35	46720	79	0.00313
35	47313	80	0.00313
35	47906	81	0.00313
35	48499	82	0.00313
35	49092	83	0.00313
35	49685	84	0.00313
35	50278	85	0.00313
35	50871	86	0.00313
35	51464	87	0.00313
35	52057	88	0.00313
35	52650	89	0.00313
35	53243	90	0.00313
35	53836	91	0.00313
35	54429	92	0.00313
35	55022	93	0.00313
35	55615	94	0.00313
35	56208	95	0.00313
35	56801	96	0.00313
35	57394	97	0.00313
35	57987	98	0.00313
35	58580	99	0.00313
35	59173	100	0.00313
36	635	2	0
36	1228	3	0
36	1821	4	0
36	2414	5	0
36	3007	6	0
36	3600	7	0
36	4193	8	0
36	4786	9	0
36	5381	10	0
36	6012	11	0
36	6615	12	0
36	7218	13	0
36	7821	14	0
36	8424	15	0
36	9027	16	0
36	9630	17	0
36	10233	18	0
36	10836	19	0
36	11439	20	0
36	12042	21	0
36	12645	22	0
36	13248	23	0
36	13851	24	0
36	14454	25	0
36	15057	26	0
36	15660	27	0
36	16263	28	0
36	16866	29	0
36	17469	30	0
36	18072	31	0
36	18675	32	0
36	19278	33	0
36	19881	34	0
36	20484	35	0
36	21087	36	0
36	21690	37	0
36	22293	38	0
36	22896	39	0
36	23499	40	0
36	24102	41	0
36	24705	42	0
36	25372	43	0
36	25965	44	0
36	26558	45	0
36	27151	46	0
36	27744	47	0
36	28337	48	0
36	28930	49	0
36	29523	50	0
36	30116	51	0
36	30709	52	0
36	31302	53	0
36	31895	54	0
36	32488	55	0
36	33081	56	0
36	33674	57	0
36	34267	58	0
36	34860	59	0
36	35453	60	0
36	36046	61	0
36	36639	62	0
36	37232	63	0
36	37825	64	0
36	38418	65	0
36	39011	66	0
36	39604	67	0
36	40197	68	0
36	40790	69	0
36	41383	70	0
36	41976	71	0
36	42569	72	0
36	43162	73	0
36	43755	74	0
36	44348	75	0
36	44941	76	0
36	45534	77	0
36	46127	78	0
36	46720	79	0
36	47313	80	0
36	47906	81	0
36	48499	82	0
36	49092	83	0
36	49685	84	0
36	50278	85	0
36	50871	86	0
36	51464	87	0
36	52057	88	0
36	52650	89	0
36	53243	90	0
36	53836	91	0
36	54429	92	0
36	55022	93	0
36	55615	94	0
36	56208	95	0
36	56801	96	0
36	57394	97	0
36	57987	98	0
36	58580	99	0
36	59173	100	0

