version 3
run BreakRanksNoGui-568-20240711-12:38:15-287028
attr configname BreakRanksNoGui
attr datetime 20240711-12:38:15
attr datetimef 20240711-123815
attr experiment BreakRanksNoGui
attr inifile omnetpp.ini
attr iterationvars "$nCars=9, $platoonSize=8, $nLanes=1, $ploegH=0.5, $controller=1, $headway=0.1, $leaderHeadway=1.2, $leaderSpeed=110, $breakRanksSafetyDistance=2, $minSpeed=100, $maxSpeed=120, $beaconInterval=0.1, $priority=4, $packetSize=200, $sController=\"CACC\", $0=2, $1=0"
attr iterationvarsd nCars=9/platoonSize=8/nLanes=1/ploegH=0.5/controller=1/headway=0.1/leaderHeadway=1.2/leaderSpeed=110/breakRanksSafetyDistance=2/minSpeed=100/maxSpeed=120/beaconInterval=0.1/priority=4/packetSize=200/sController=CACC/2/0
attr iterationvarsf nCars=9,platoonSize=8,nLanes=1,ploegH=0.5,controller=1,headway=0.1,leaderHeadway=1.2,leaderSpeed=110,breakRanksSafetyDistance=2,minSpeed=100,maxSpeed=120,beaconInterval=0.1,priority=4,packetSize=200,sController=CACC,2,0-
attr measurement "$nCars=9, $platoonSize=8, $nLanes=1, $ploegH=0.5, $controller=1, $headway=0.1, $leaderHeadway=1.2, $leaderSpeed=110, $breakRanksSafetyDistance=2, $minSpeed=100, $maxSpeed=120, $beaconInterval=0.1, $priority=4, $packetSize=200, $sController=\"CACC\", $0=2, $1=0"
attr network Highway
attr processid 287028
attr repetition 8
attr replication #8
attr resultdir results
attr runnumber 568
attr seedset 8
itervar beaconInterval 0.1
itervar breakRanksSafetyDistance 2
itervar controller 1
itervar headway 0.1
itervar leaderHeadway 1.2
itervar leaderSpeed 110
itervar maxSpeed 120
itervar minSpeed 100
itervar nCars 9
itervar nLanes 1
itervar packetSize 200
itervar platoonSize 8
itervar ploegH 0.5
itervar priority 4
itervar sController "\"CACC\""
config image-path ../../../veins/images
config repeat 10
config extends BreakRanks
config *.manager.command "\"sumo\""
config *.manager.ignoreGuiCommands true
config output-vector-file "results/BreakRanks_1_0.1_110_2_8 /result_8.vec"
config output-scalar-file "results/BreakRanks_1_0.1_110_2_8 /result_8.sca"
config extends Platooning
config *.node[*].scenario_type "\"BreakRanksScenario\""
config *.manager.command "\"sumo-gui\""
config *.node[*].scenario_type "\"SimpleScenario\""
config cmdenv-express-mode true
config cmdenv-autoflush true
config cmdenv-status-frequency 15s
config num-rngs 6
config network Highway
config debug-on-errors true
config print-undisposed true
config *.playgroundSizeX 65000m
config *.playgroundSizeY 25000m
config *.playgroundSizeZ 50m
config sim-time-limit "100 s"
config *.annotations.draw false
config *.obstacles.debug false
config *.world.useTorus false
config *.world.use2D false
config *.manager.updateInterval 0.01s
config *.manager.host "\"localhost\""
config *.manager.moduleType "\"org.car2x.plexe.PlatoonCar\""
config *.manager.moduleName "\"node\""
config *.manager.moduleDisplayString "\"\""
config *.manager.autoShutdown true
config *.manager.margin 25
config *.connectionManager.sendDirect true
config *.connectionManager.maxInterfDist 2600m
config *.connectionManager.drawMaxIntfDist false
config *.**.nic.mac1609_4.useServiceChannel false
config *.**.nic.mac1609_4.txPower 100mW
config *.**.nic.mac1609_4.bitrate 6Mbps
config *.**.nic.mac1609_4.useAcks true
config *.**.nic.mac1609_4.ackErrorRate 0.0
config *.**.nic.mac1609_4.frameErrorRate 0.0
config *.**.nic.phy80211p.minPowerLevel -94dBm
config *.**.nic.phy80211p.maxTXPower 100mW
config *.**.nic.phy80211p.useNoiseFloor true
config *.**.nic.phy80211p.noiseFloor -95dBm
config *.**.nic.phy80211p.decider "xmldoc(\"config.xml\")"
config *.**.nic.phy80211p.analogueModels "xmldoc(\"config.xml\")"
config *.**.nic.phy80211p.usePropagationDelay true
config *.node[*].mobility.x 0
config *.node[*].mobility.y 0
config *.node[*].mobility.z 1.895
config seed-set 8
config **.seed 8
config *.node[*].prot.rng-0 2
config *.node[*].appl.rng-0 3
config *.node[*].scenario.rng-0 4
config **.traffic.rng-0 5
config *.manager.configFile "\"./sumocfg/freeway.sumo.cfg\""
config *.manager.launchConfig "xmldoc(\"./sumocfg/freeway.launchd.xml\")"
config **.numberOfCars 9
config **.numberOfCarsPerPlatoon 8
config **.numberOfLanes 1
config *.node[*].helper_type "\"PositionHelper\""
config *.node[*].scenario.caccC1 0.5
config *.node[*].scenario.caccXi 1
config *.node[*].scenario.caccOmegaN "0.2 Hz"
config *.node[*].scenario.caccSpacing "2 m"
config *.node[*].scenario.engineTau "0.5 s"
config *.node[*].scenario.ploegH 0.5s
config *.node[*].scenario.ploegKp 0.2
config *.node[*].scenario.ploegKd 0.7
config *.node[*].scenario.useRealisticEngine false
config *.node[*].scenario.useControllerAcceleration true
config *.node[*].scenario.nLanes 1
config **.numericController 1
config **.headway 0.1s
config *.node[*].scenario.accHeadway 0.1s
config *.node[*].scenario.leaderHeadway 1.2s
config *.node[*].scenario.leaderSpeed 110kmph
config *.node[*].appl_type "\"SimplePlatooningApp\""
config *.node[*].appl.*.scalar-recording true
config *.node[*].appl.*.vector-recording true
config *.node[0].appl.breakRanksSafetyDistance 2m
config *.node[*].appl.minSpeed 100kmph
config *.node[*].appl.maxSpeed 120kmph
config *.node[*].protocol_type "\"SimplePlatooningBeaconing\""
config *.node[*].prot.*.scalar-recording true
config *.node[*].prot.*.vector-recording true
config *.node[*].prot.beaconingInterval 0.1s
config *.node[*].prot.priority 4
config *.node[*].prot.packetSize 200
config **.traffic_type "\"PlatoonsTrafficManager\""
config **.traffic.platoonInsertTime "1 s"
config **.traffic.platoonInsertSpeed 110kmph
config **.traffic.nCars 9
config **.traffic.platoonSize 8
config **.traffic.nLanes 1
config **.traffic.platooningVType "\"vtypeauto\""
config **.traffic.controller "\"CACC\""
config **.traffic.platoonInsertDistance 2m
config **.traffic.platoonInsertHeadway 0s
config **.traffic.platoonLeaderHeadway 1.2s
config **.scalar-recording false
config **.vector-recording false

vector 0 Highway.node[0].appl distance ETV
vector 1 Highway.node[0].appl relativeSpeed ETV
vector 2 Highway.node[0].appl nodeId ETV
vector 3 Highway.node[0].appl acceleration ETV
vector 4 Highway.node[0].appl controllerAcceleration ETV
vector 5 Highway.node[0].appl speed ETV
vector 6 Highway.node[0].appl posx ETV
vector 7 Highway.node[0].appl posy ETV
vector 8 Highway.node[1].appl distance ETV
vector 9 Highway.node[1].appl relativeSpeed ETV
vector 10 Highway.node[1].appl nodeId ETV
vector 11 Highway.node[1].appl acceleration ETV
vector 12 Highway.node[1].appl controllerAcceleration ETV
vector 13 Highway.node[1].appl speed ETV
vector 14 Highway.node[1].appl posx ETV
vector 15 Highway.node[1].appl posy ETV
vector 16 Highway.node[2].appl distance ETV
vector 17 Highway.node[2].appl relativeSpeed ETV
vector 18 Highway.node[2].appl nodeId ETV
vector 19 Highway.node[2].appl acceleration ETV
vector 20 Highway.node[2].appl controllerAcceleration ETV
vector 21 Highway.node[2].appl speed ETV
vector 22 Highway.node[2].appl posx ETV
vector 23 Highway.node[2].appl posy ETV
vector 24 Highway.node[3].appl distance ETV
vector 25 Highway.node[3].appl relativeSpeed ETV
vector 26 Highway.node[3].appl nodeId ETV
vector 27 Highway.node[3].appl acceleration ETV
vector 28 Highway.node[3].appl controllerAcceleration ETV
vector 29 Highway.node[3].appl speed ETV
vector 30 Highway.node[3].appl posx ETV
vector 31 Highway.node[3].appl posy ETV
vector 32 Highway.node[4].appl distance ETV
vector 33 Highway.node[4].appl relativeSpeed ETV
vector 34 Highway.node[4].appl nodeId ETV
vector 35 Highway.node[4].appl acceleration ETV
vector 36 Highway.node[4].appl controllerAcceleration ETV
vector 37 Highway.node[4].appl speed ETV
vector 38 Highway.node[4].appl posx ETV
vector 39 Highway.node[4].appl posy ETV
vector 40 Highway.node[5].appl distance ETV
vector 41 Highway.node[5].appl relativeSpeed ETV
vector 42 Highway.node[5].appl nodeId ETV
vector 43 Highway.node[5].appl acceleration ETV
vector 44 Highway.node[5].appl controllerAcceleration ETV
vector 45 Highway.node[5].appl speed ETV
vector 46 Highway.node[5].appl posx ETV
vector 47 Highway.node[5].appl posy ETV
vector 48 Highway.node[6].appl distance ETV
vector 49 Highway.node[6].appl relativeSpeed ETV
vector 50 Highway.node[6].appl nodeId ETV
vector 51 Highway.node[6].appl acceleration ETV
vector 52 Highway.node[6].appl controllerAcceleration ETV
vector 53 Highway.node[6].appl speed ETV
vector 54 Highway.node[6].appl posx ETV
vector 55 Highway.node[6].appl posy ETV
vector 56 Highway.node[7].appl distance ETV
vector 57 Highway.node[7].appl relativeSpeed ETV
vector 58 Highway.node[7].appl nodeId ETV
vector 59 Highway.node[7].appl acceleration ETV
vector 60 Highway.node[7].appl controllerAcceleration ETV
vector 61 Highway.node[7].appl speed ETV
vector 62 Highway.node[7].appl posx ETV
vector 63 Highway.node[7].appl posy ETV
vector 64 Highway.node[8].appl distance ETV
vector 65 Highway.node[8].appl relativeSpeed ETV
vector 66 Highway.node[8].appl nodeId ETV
vector 67 Highway.node[8].appl acceleration ETV
vector 68 Highway.node[8].appl controllerAcceleration ETV
vector 69 Highway.node[8].appl speed ETV
vector 70 Highway.node[8].appl posx ETV
vector 71 Highway.node[8].appl posy ETV
vector 72 Highway.node[4].prot frontDelay ETV
vector 73 Highway.node[4].prot frontDelayId ETV
vector 74 Highway.node[2].prot frontDelay ETV
vector 75 Highway.node[2].prot frontDelayId ETV
vector 76 Highway.node[3].prot frontDelay ETV
vector 77 Highway.node[3].prot frontDelayId ETV
vector 78 Highway.node[5].prot frontDelay ETV
vector 79 Highway.node[5].prot frontDelayId ETV
vector 80 Highway.node[7].prot frontDelay ETV
vector 81 Highway.node[7].prot frontDelayId ETV
vector 82 Highway.node[1].prot leaderDelay ETV
vector 83 Highway.node[1].prot leaderDelayId ETV
vector 84 Highway.node[1].prot frontDelay ETV
vector 85 Highway.node[1].prot frontDelayId ETV
vector 86 Highway.node[2].prot leaderDelay ETV
vector 87 Highway.node[2].prot leaderDelayId ETV
vector 88 Highway.node[3].prot leaderDelay ETV
vector 89 Highway.node[3].prot leaderDelayId ETV
vector 90 Highway.node[4].prot leaderDelay ETV
vector 91 Highway.node[4].prot leaderDelayId ETV
vector 92 Highway.node[5].prot leaderDelay ETV
vector 93 Highway.node[5].prot leaderDelayId ETV
vector 94 Highway.node[6].prot leaderDelay ETV
vector 95 Highway.node[6].prot leaderDelayId ETV
vector 96 Highway.node[7].prot leaderDelay ETV
vector 97 Highway.node[7].prot leaderDelayId ETV
vector 98 Highway.node[6].prot frontDelay ETV
vector 99 Highway.node[6].prot frontDelayId ETV
vector 100 Highway.node[0].prot nodeId ETV
vector 101 Highway.node[0].prot busyTime ETV
vector 102 Highway.node[0].prot collisions ETV
vector 103 Highway.node[1].prot nodeId ETV
vector 104 Highway.node[1].prot busyTime ETV
vector 105 Highway.node[1].prot collisions ETV
vector 106 Highway.node[2].prot nodeId ETV
vector 107 Highway.node[2].prot busyTime ETV
vector 108 Highway.node[2].prot collisions ETV
vector 109 Highway.node[3].prot nodeId ETV
vector 110 Highway.node[3].prot busyTime ETV
vector 111 Highway.node[3].prot collisions ETV
vector 112 Highway.node[4].prot nodeId ETV
vector 113 Highway.node[4].prot busyTime ETV
vector 114 Highway.node[4].prot collisions ETV
vector 115 Highway.node[5].prot nodeId ETV
vector 116 Highway.node[5].prot busyTime ETV
vector 117 Highway.node[5].prot collisions ETV
vector 118 Highway.node[6].prot nodeId ETV
vector 119 Highway.node[6].prot busyTime ETV
vector 120 Highway.node[6].prot collisions ETV
vector 121 Highway.node[7].prot nodeId ETV
vector 122 Highway.node[7].prot busyTime ETV
vector 123 Highway.node[7].prot collisions ETV
vector 124 Highway.node[8].prot nodeId ETV
vector 125 Highway.node[8].prot busyTime ETV
vector 126 Highway.node[8].prot collisions ETV
0	113	1.11	9311.84
0	670	1.21	9311.84
0	1227	1.31	9311.84
0	1784	1.41	9311.84
0	2341	1.51	9311.84
0	2898	1.61	9311.84
0	3455	1.71	-1
0	4012	1.81	-1
0	4569	1.91	-1
0	5135	2.01	-1
0	5692	2.11	-1
0	6249	2.21	-1
0	6806	2.31	-1
0	7363	2.41	-1
0	7920	2.51	-1
0	8477	2.61	-1
0	9034	2.71	-1
0	9591	2.81	-1
0	10148	2.91	-1
0	10714	3.01	-1
0	11271	3.11	-1
0	11828	3.21	-1
0	12385	3.31	-1
0	12942	3.41	-1
0	13499	3.51	-1
0	14056	3.61	-1
0	14613	3.71	-1
0	15170	3.81	-1
0	15727	3.91	-1
0	16293	4.01	-1
0	16850	4.11	-1
0	17407	4.21	-1
0	17964	4.31	-1
0	18521	4.41	-1
0	19078	4.51	-1
0	19635	4.61	-1
0	20192	4.71	-1
0	20749	4.81	-1
0	21306	4.91	-1
0	21872	5.01	-1
0	22429	5.11	-1
0	22986	5.21	-1
0	23543	5.31	-1
0	24100	5.41	-1
0	24657	5.51	-1
0	25214	5.61	-1
0	25771	5.71	-1
0	26328	5.81	-1
0	26885	5.91	-1
0	27451	6.01	-1
0	28008	6.11	-1
0	28565	6.21	-1
0	29122	6.31	-1
0	29679	6.41	-1
0	30236	6.51	-1
0	30793	6.61	-1
0	31350	6.71	-1
0	31907	6.81	-1
0	32464	6.91	-1
0	33030	7.01	-1
0	33587	7.11	-1
0	34144	7.21	-1
0	34701	7.31	-1
0	35258	7.41	-1
0	35815	7.51	-1
0	36372	7.61	-1
0	36929	7.71	-1
0	37486	7.81	-1
0	38043	7.91	-1
0	38609	8.01	-1
0	39166	8.11	-1
0	39723	8.21	-1
0	40280	8.31	-1
0	40837	8.41	-1
0	41394	8.51	-1
0	41951	8.61	-1
0	42508	8.71	-1
0	43065	8.81	-1
0	43622	8.91	-1
0	44188	9.01	-1
0	44745	9.11	-1
0	45302	9.21	-1
0	45859	9.31	-1
0	46416	9.41	-1
0	46973	9.51	-1
0	47530	9.61	-1
0	48087	9.71	-1
0	48644	9.81	-1
0	49201	9.91	-1
0	51733	10.01	-1
0	52290	10.11	-1
0	52847	10.21	-1
0	53404	10.31	-1
0	53961	10.41	-1
0	54518	10.51	-1
0	55075	10.61	-1
0	55632	10.71	-1
0	56189	10.81	-1
0	56746	10.91	-1
0	57312	11.01	-1
0	57869	11.11	-1
0	58426	11.21	-1
0	58983	11.31	-1
0	59540	11.41	-1
0	60097	11.51	-1
0	60654	11.61	-1
0	61211	11.71	-1
0	61768	11.81	-1
0	62325	11.91	-1
0	62891	12.01	-1
0	63448	12.11	-1
0	64005	12.21	-1
0	64562	12.31	-1
0	65119	12.41	-1
0	65676	12.51	-1
0	66233	12.61	-1
0	66790	12.71	-1
0	67347	12.81	-1
0	67904	12.91	-1
0	68470	13.01	-1
0	69027	13.11	-1
0	69584	13.21	-1
0	70141	13.31	-1
0	70698	13.41	-1
0	71255	13.51	-1
0	71812	13.61	-1
0	72369	13.71	-1
0	72926	13.81	-1
0	73483	13.91	-1
0	74049	14.01	-1
0	74606	14.11	-1
0	75163	14.21	-1
0	75720	14.31	-1
0	76277	14.41	-1
0	76834	14.51	-1
0	77391	14.61	-1
0	77948	14.71	-1
0	78505	14.81	-1
0	79062	14.91	-1
0	79628	15.01	-1
0	80185	15.11	-1
0	80742	15.21	-1
0	81299	15.31	-1
0	81856	15.41	-1
0	82413	15.51	-1
0	82970	15.61	-1
0	83527	15.71	-1
0	84084	15.81	-1
0	84641	15.91	-1
0	85207	16.01	-1
0	85764	16.11	-1
0	86321	16.21	-1
0	86878	16.31	-1
0	87435	16.41	-1
0	87992	16.51	-1
0	88549	16.61	-1
0	89106	16.71	-1
0	89663	16.81	-1
0	90220	16.91	-1
0	90786	17.01	-1
0	91343	17.11	-1
0	91900	17.21	-1
0	92457	17.31	-1
0	93014	17.41	-1
0	93571	17.51	-1
0	94128	17.61	-1
0	94685	17.71	-1
0	95242	17.81	-1
0	95799	17.91	-1
0	96365	18.01	-1
0	96922	18.11	-1
0	97479	18.21	-1
0	98036	18.31	-1
0	98593	18.41	-1
0	99150	18.51	-1
0	99707	18.61	-1
0	100264	18.71	-1
0	100821	18.81	-1
0	101378	18.91	-1
0	101944	19.01	-1
0	102501	19.11	-1
0	103058	19.21	-1
0	103615	19.31	-1
0	104172	19.41	-1
0	104729	19.51	-1
0	105286	19.61	-1
0	105843	19.71	-1
0	106400	19.81	-1
0	106957	19.91	-1
0	107523	20.01	-1
0	108080	20.11	-1
0	108637	20.21	-1
0	109194	20.31	-1
0	109751	20.41	-1
0	110308	20.51	-1
0	110865	20.61	-1
0	111422	20.71	-1
0	111979	20.81	-1
0	112536	20.91	-1
0	113102	21.01	-1
0	113659	21.11	-1
0	114216	21.21	-1
0	114773	21.31	-1
0	115330	21.41	-1
0	115887	21.51	-1
0	116444	21.61	-1
0	117001	21.71	-1
0	117558	21.81	-1
0	118115	21.91	-1
0	118681	22.01	-1
0	119238	22.11	-1
0	119795	22.21	-1
0	120352	22.31	-1
0	120909	22.41	-1
0	121466	22.51	-1
0	122023	22.61	-1
0	122580	22.71	-1
0	123137	22.81	-1
0	123694	22.91	-1
0	124260	23.01	-1
0	124817	23.11	-1
0	125374	23.21	-1
0	125931	23.31	-1
0	126488	23.41	-1
0	127045	23.51	-1
0	127602	23.61	-1
0	128159	23.71	-1
0	128716	23.81	-1
0	129273	23.91	-1
0	129839	24.01	-1
0	130396	24.11	-1
0	130953	24.21	-1
0	131510	24.31	-1
0	132067	24.41	-1
0	132624	24.51	-1
0	133181	24.61	-1
0	133738	24.71	-1
0	134295	24.81	-1
0	134852	24.91	-1
0	135418	25.01	-1
0	135975	25.11	-1
0	136532	25.21	-1
0	137089	25.31	-1
0	137646	25.41	-1
0	138203	25.51	-1
0	138760	25.61	-1
0	139317	25.71	-1
0	139874	25.81	-1
0	140431	25.91	-1
0	140997	26.01	-1
0	141554	26.11	-1
0	142111	26.21	-1
0	142668	26.31	-1
0	143225	26.41	-1
0	143782	26.51	-1
0	144339	26.61	-1
0	144896	26.71	-1
0	145453	26.81	-1
0	146010	26.91	-1
0	146576	27.01	-1
0	147133	27.11	-1
0	147690	27.21	-1
0	148247	27.31	-1
0	148804	27.41	-1
0	149361	27.51	-1
0	149918	27.61	-1
0	150475	27.71	-1
0	151032	27.81	-1
0	151589	27.91	-1
0	152155	28.01	-1
0	152712	28.11	-1
0	153269	28.21	-1
0	153826	28.31	-1
0	154383	28.41	-1
0	154940	28.51	-1
0	155497	28.61	-1
0	156054	28.71	-1
0	156611	28.81	-1
0	157168	28.91	-1
0	157734	29.01	-1
0	158291	29.11	-1
0	158848	29.21	-1
0	159405	29.31	-1
0	159962	29.41	-1
0	160519	29.51	-1
0	161076	29.61	-1
0	161633	29.71	-1
0	162190	29.81	-1
0	162747	29.91	-1
0	163313	30.01	-1
0	163870	30.11	-1
0	164427	30.21	-1
0	164984	30.31	-1
0	165541	30.41	-1
0	166098	30.51	-1
0	166655	30.61	-1
0	167212	30.71	-1
0	167769	30.81	-1
0	168326	30.91	-1
0	168892	31.01	-1
0	169449	31.11	-1
0	170006	31.21	-1
0	170563	31.31	-1
0	171120	31.41	-1
0	171677	31.51	-1
0	172234	31.61	-1
0	172791	31.71	-1
0	173348	31.81	-1
0	173905	31.91	-1
0	174471	32.01	-1
0	175028	32.11	-1
0	175585	32.21	-1
0	176142	32.31	-1
0	176699	32.41	-1
0	177256	32.51	-1
0	177813	32.61	-1
0	178370	32.71	-1
0	178927	32.81	-1
0	179484	32.91	-1
0	180050	33.01	-1
0	180607	33.11	-1
0	181164	33.21	-1
0	181721	33.31	-1
0	182278	33.41	-1
0	182835	33.51	-1
0	183392	33.61	-1
0	183949	33.71	-1
0	184506	33.81	-1
0	185063	33.91	-1
0	185629	34.01	-1
0	186186	34.11	-1
0	186743	34.21	-1
0	187300	34.31	-1
0	187857	34.41	-1
0	188414	34.51	-1
0	188971	34.61	-1
0	189528	34.71	-1
0	190085	34.81	-1
0	190642	34.91	-1
0	191208	35.01	-1
0	191765	35.11	-1
0	192322	35.21	-1
0	192879	35.31	-1
0	193436	35.41	-1
0	193993	35.51	-1
0	194550	35.61	-1
0	195107	35.71	-1
0	195664	35.81	-1
0	196221	35.91	-1
0	196787	36.01	-1
0	197344	36.11	-1
0	197901	36.21	-1
0	198458	36.31	-1
0	199015	36.41	-1
0	199572	36.51	-1
0	200129	36.61	-1
0	200686	36.71	-1
0	201243	36.81	-1
0	201800	36.91	-1
0	202366	37.01	-1
0	202923	37.11	-1
0	203480	37.21	-1
0	204037	37.31	-1
0	204594	37.41	-1
0	205151	37.51	-1
0	205708	37.61	-1
0	206265	37.71	-1
0	206822	37.81	-1
0	207379	37.91	-1
0	207945	38.01	-1
0	208502	38.11	-1
0	209059	38.21	-1
0	209616	38.31	-1
0	210173	38.41	-1
0	210730	38.51	-1
0	211287	38.61	-1
0	211844	38.71	-1
0	212401	38.81	-1
0	212958	38.91	-1
0	213524	39.01	-1
0	214081	39.11	-1
0	214638	39.21	-1
0	215195	39.31	-1
0	215752	39.41	-1
0	216309	39.51	-1
0	216866	39.61	-1
0	217423	39.71	-1
0	217980	39.81	-1
0	218537	39.91	-1
0	219103	40.01	-1
0	219660	40.11	-1
0	220217	40.21	-1
0	220774	40.31	-1
0	221331	40.41	-1
0	221888	40.51	-1
0	222445	40.61	-1
0	223002	40.71	-1
0	223559	40.81	-1
0	224116	40.91	-1
0	224682	41.01	-1
0	225239	41.11	-1
0	225796	41.21	-1
0	226353	41.31	-1
0	226910	41.41	-1
0	227467	41.51	-1
0	228024	41.61	-1
0	228581	41.71	-1
0	229138	41.81	-1
0	229695	41.91	-1
0	230261	42.01	-1
0	230818	42.11	-1
0	231375	42.21	-1
0	231932	42.31	-1
0	232489	42.41	-1
0	233046	42.51	-1
0	233603	42.61	-1
0	234160	42.71	-1
0	234717	42.81	-1
0	235274	42.91	-1
0	235840	43.01	-1
0	236397	43.11	-1
0	236954	43.21	-1
0	237511	43.31	-1
0	238068	43.41	-1
0	238625	43.51	-1
0	239182	43.61	-1
0	239739	43.71	-1
0	240296	43.81	-1
0	240853	43.91	-1
0	241419	44.01	-1
0	241976	44.11	-1
0	242533	44.21	-1
0	243090	44.31	-1
0	243647	44.41	-1
0	244204	44.51	-1
0	244761	44.61	-1
0	245318	44.71	-1
0	245875	44.81	-1
0	246432	44.91	-1
0	246998	45.01	-1
0	247555	45.11	-1
0	248112	45.21	-1
0	248669	45.31	-1
0	249226	45.41	-1
0	249783	45.51	-1
0	250340	45.61	-1
0	250897	45.71	-1
0	251454	45.81	-1
0	252011	45.91	-1
0	252577	46.01	-1
0	253134	46.11	-1
0	253691	46.21	-1
0	254248	46.31	-1
0	254805	46.41	-1
0	255362	46.51	-1
0	255919	46.61	-1
0	256476	46.71	-1
0	257033	46.81	-1
0	257590	46.91	-1
0	258156	47.01	-1
0	258713	47.11	-1
0	259270	47.21	-1
0	259827	47.31	-1
0	260384	47.41	-1
0	260941	47.51	-1
0	261498	47.61	-1
0	262055	47.71	-1
0	262612	47.81	-1
0	263169	47.91	-1
0	263735	48.01	-1
0	264292	48.11	-1
0	264849	48.21	-1
0	265406	48.31	-1
0	265963	48.41	-1
0	266520	48.51	-1
0	267077	48.61	-1
0	267634	48.71	-1
0	268191	48.81	-1
0	268748	48.91	-1
0	269314	49.01	-1
0	269871	49.11	-1
0	270428	49.21	-1
0	270985	49.31	-1
0	271542	49.41	-1
0	272099	49.51	-1
0	272656	49.61	-1
0	273213	49.71	-1
0	273770	49.81	-1
0	274327	49.91	-1
0	274893	50.01	-1
0	275450	50.11	-1
0	276007	50.21	-1
0	276564	50.31	-1
0	277121	50.41	-1
0	277678	50.51	-1
0	278235	50.61	-1
0	278792	50.71	-1
0	279349	50.81	-1
0	279906	50.91	-1
0	280472	51.01	-1
0	281029	51.11	-1
0	281586	51.21	-1
0	282143	51.31	-1
0	282700	51.41	-1
0	283257	51.51	-1
0	283814	51.61	-1
0	284371	51.71	-1
0	284928	51.81	-1
0	285485	51.91	-1
0	286051	52.01	-1
0	286608	52.11	-1
0	287165	52.21	-1
0	287722	52.31	-1
0	288279	52.41	-1
0	288836	52.51	-1
0	289393	52.61	-1
0	289950	52.71	-1
0	290507	52.81	-1
0	291064	52.91	-1
0	291630	53.01	-1
0	292187	53.11	-1
0	292744	53.21	-1
0	293301	53.31	21.9594
0	293858	53.41	22.2038
0	294415	53.51	22.4483
0	294972	53.61	22.6927
0	295529	53.71	22.9372
0	296086	53.81	23.1816
0	296643	53.91	23.426
0	297209	54.01	23.6705
0	297766	54.11	23.9149
0	298323	54.21	24.1594
0	298880	54.31	24.4038
0	299437	54.41	24.6482
0	299994	54.51	24.8927
0	300551	54.61	25.1371
0	301108	54.71	25.3816
0	301665	54.81	25.626
0	302222	54.91	25.8704
0	302788	55.01	26.1149
0	303345	55.11	26.3593
0	303902	55.21	26.6038
0	304459	55.31	26.8482
0	305016	55.41	27.0926
0	305573	55.51	27.3371
0	306130	55.61	27.5815
0	306687	55.71	27.826
0	307244	55.81	28.0704
0	307801	55.91	28.3148
0	308367	56.01	28.5593
0	308924	56.11	28.8037
0	309481	56.21	29.0482
0	310038	56.31	29.2926
0	310595	56.41	29.537
0	311152	56.51	29.7815
0	311709	56.61	30.0259
0	312266	56.71	30.2704
0	312823	56.81	30.5148
0	313380	56.91	30.7592
0	313946	57.01	31.0037
0	314503	57.11	31.2481
0	315060	57.21	31.4926
0	315617	57.31	31.737
0	316174	57.41	31.9814
0	316731	57.51	32.2259
0	317288	57.61	32.4703
0	317845	57.71	32.7148
0	318402	57.81	32.9592
0	318959	57.91	33.2036
0	319525	58.01	33.4481
0	320082	58.11	33.6925
0	320639	58.21	33.937
0	321196	58.31	34.1814
0	321753	58.41	34.4258
0	322310	58.51	34.6703
0	322867	58.61	34.9147
0	323424	58.71	35.1592
0	323981	58.81	35.4036
0	324538	58.91	35.648
0	325104	59.01	35.8925
0	325661	59.11	36.1369
0	326218	59.21	36.3814
0	326775	59.31	36.6258
0	327332	59.41	36.8702
0	327889	59.51	37.1147
0	328446	59.61	37.3591
0	329003	59.71	37.6036
0	329560	59.81	37.848
0	330117	59.91	38.0924
0	330683	60.01	38.3369
0	331240	60.11	38.5813
0	331797	60.21	38.8258
0	332354	60.31	39.0702
0	332911	60.41	39.3146
0	333468	60.51	39.5591
0	334025	60.61	39.8035
0	334582	60.71	40.048
0	335139	60.81	40.2924
0	335696	60.91	40.5368
0	336262	61.01	40.7813
0	336819	61.11	41.0257
0	337376	61.21	41.2702
0	337933	61.31	41.5146
0	338490	61.41	41.759
0	339047	61.51	42.0035
0	339604	61.61	42.2479
0	340161	61.71	42.4924
0	340718	61.81	42.7368
0	341275	61.91	42.9812
0	341841	62.01	43.2257
0	342398	62.11	43.4701
0	342955	62.21	43.7146
0	343512	62.31	43.959
0	344069	62.41	44.2034
0	344626	62.51	44.4479
0	345183	62.61	44.6923
0	345740	62.71	44.9368
0	346297	62.81	45.1812
0	346854	62.91	45.4256
0	347420	63.01	45.6701
0	347977	63.11	45.9145
0	348534	63.21	46.159
0	349091	63.31	46.4034
0	349648	63.41	46.6478
0	350205	63.51	46.8923
0	350762	63.61	47.1367
0	351319	63.71	47.3812
0	351876	63.81	47.6256
0	352433	63.91	47.87
0	352999	64.01	48.1145
0	353556	64.11	48.3589
0	354113	64.21	48.6034
0	354670	64.31	48.8478
0	355227	64.41	49.0922
0	355784	64.51	49.3367
0	356341	64.61	49.5811
0	356898	64.71	49.8256
0	357455	64.81	50.07
0	358012	64.91	50.3144
0	358578	65.01	50.5589
0	359135	65.11	50.8033
0	359692	65.21	51.0478
0	360249	65.31	51.2922
0	360806	65.41	51.5366
0	361363	65.51	51.7811
0	361920	65.61	52.0255
0	362477	65.71	52.27
0	363034	65.81	52.5144
0	363591	65.91	52.7588
0	364157	66.01	53.0033
0	364714	66.11	53.2477
0	365271	66.21	53.4922
0	365828	66.31	53.7366
0	366385	66.41	53.981
0	366942	66.51	54.2255
0	367499	66.61	54.4699
0	368056	66.71	54.7144
0	368613	66.81	54.9588
0	369170	66.91	55.2032
0	369736	67.01	55.4477
0	370293	67.11	55.6921
0	370850	67.21	55.9366
0	371407	67.31	56.181
0	371964	67.41	56.4254
0	372521	67.51	56.6699
0	373078	67.61	56.9143
0	373635	67.71	57.1588
0	374192	67.81	57.4032
0	374749	67.91	57.6476
0	375315	68.01	57.8921
0	375872	68.11	58.1365
0	376429	68.21	58.381
0	376986	68.31	58.6254
0	377543	68.41	58.8698
0	378100	68.51	59.1143
0	378657	68.61	59.3587
0	379214	68.71	59.6032
0	379771	68.81	59.8476
0	380328	68.91	60.092
0	380894	69.01	60.3365
0	381451	69.11	60.5809
0	382008	69.21	60.8254
0	382565	69.31	61.0698
0	383122	69.41	61.3142
0	383679	69.51	61.5587
0	384236	69.61	61.8031
0	384793	69.71	62.0476
0	385350	69.81	62.292
0	385907	69.91	62.5364
0	386473	70.01	62.7809
0	387030	70.11	63.0253
0	387587	70.21	63.2698
0	388144	70.31	63.5142
0	388701	70.41	63.7586
0	389258	70.51	64.0031
0	389815	70.61	64.2475
0	390372	70.71	64.492
0	390929	70.81	64.7364
0	391486	70.91	64.9808
0	392052	71.01	65.2253
0	392609	71.11	65.4697
0	393166	71.21	65.7142
0	393723	71.31	65.9586
0	394280	71.41	66.203
0	394837	71.51	66.4475
0	395394	71.61	66.6919
0	395951	71.71	66.9364
0	396508	71.81	67.1808
0	397065	71.91	67.4252
0	397631	72.01	67.6697
0	398188	72.11	67.9141
0	398745	72.21	68.1586
0	399302	72.31	68.403
0	399859	72.41	68.6474
0	400416	72.51	68.8919
0	400973	72.61	69.1363
0	401530	72.71	69.3808
0	402087	72.81	69.6252
0	402644	72.91	69.8696
0	403210	73.01	70.1141
0	403767	73.11	70.3585
0	404324	73.21	70.603
0	404881	73.31	70.8474
0	405438	73.41	71.0918
0	405995	73.51	71.3363
0	406552	73.61	71.5807
0	407109	73.71	71.8252
0	407666	73.81	72.0696
0	408223	73.91	72.314
0	408789	74.01	72.5585
0	409346	74.11	72.8029
0	409903	74.21	73.0474
0	410460	74.31	73.2918
0	411017	74.41	73.5362
0	411574	74.51	73.7807
0	412131	74.61	74.0251
0	412688	74.71	74.2696
0	413245	74.81	25.6757
0	413802	74.91	25.8201
0	414368	75.01	25.9646
0	414925	75.11	26.109
0	415482	75.21	26.2535
0	416039	75.31	26.3979
0	416596	75.41	26.5423
0	417153	75.51	26.6868
0	417710	75.61	26.8312
0	418267	75.71	26.9757
0	418824	75.81	27.1201
0	419381	75.91	27.2645
0	419947	76.01	27.409
0	420504	76.11	27.5534
0	421061	76.21	27.6979
0	421618	76.31	27.8423
0	422175	76.41	27.9867
0	422732	76.51	28.1312
0	423289	76.61	28.2756
0	423846	76.71	28.4201
0	424403	76.81	28.5645
0	424960	76.91	28.7089
0	425526	77.01	28.8534
0	426083	77.11	28.9978
0	426640	77.21	29.1423
0	427197	77.31	29.2867
0	427754	77.41	29.4311
0	428311	77.51	29.5756
0	428868	77.61	29.72
0	429425	77.71	29.8645
0	429982	77.81	30.0089
0	430539	77.91	30.1533
0	431105	78.01	30.2978
0	431662	78.11	30.4422
0	432219	78.21	30.5867
0	432776	78.31	30.7311
0	433333	78.41	30.8755
0	433890	78.51	31.02
0	434447	78.61	31.1644
0	435004	78.71	31.3089
0	435561	78.81	31.4533
0	436118	78.91	31.5977
0	436684	79.01	31.7422
0	437241	79.11	31.8866
0	437798	79.21	32.0311
0	438355	79.31	32.1755
0	438912	79.41	32.3199
0	439469	79.51	32.4644
0	440026	79.61	32.6088
0	440583	79.71	32.7533
0	441140	79.81	32.8977
0	441697	79.91	33.0421
0	442263	80.01	33.1866
0	442820	80.11	33.331
0	443377	80.21	33.4755
0	443934	80.31	33.6199
0	444491	80.41	33.7643
0	445048	80.51	33.9088
0	445605	80.61	34.0532
0	446162	80.71	34.1977
0	446719	80.81	34.3421
0	447276	80.91	34.4865
0	447842	81.01	34.631
0	448399	81.11	34.7754
0	448956	81.21	34.9199
0	449513	81.31	35.0643
0	450070	81.41	35.2087
0	450627	81.51	35.3532
0	451184	81.61	35.4976
0	451741	81.71	35.6421
0	452298	81.81	35.7865
0	452855	81.91	35.9309
0	453421	82.01	36.0754
0	453978	82.11	36.2198
0	454535	82.21	36.3643
0	455092	82.31	36.5087
0	455649	82.41	36.6531
0	456206	82.51	36.7976
0	456763	82.61	36.942
0	457320	82.71	37.0865
0	457877	82.81	37.2309
0	458434	82.91	37.3753
0	459000	83.01	37.5198
0	459557	83.11	37.6642
0	460114	83.21	37.8087
0	460671	83.31	37.9531
0	461228	83.41	38.0975
0	461785	83.51	38.242
0	462342	83.61	38.3864
0	462899	83.71	38.5309
0	463456	83.81	38.6753
0	464013	83.91	38.8197
0	464579	84.01	38.9642
0	465136	84.11	39.1086
0	465693	84.21	39.2531
0	466250	84.31	39.3975
0	466807	84.41	39.5419
0	467364	84.51	39.6864
0	467921	84.61	39.8308
0	468478	84.71	39.9753
0	469035	84.81	40.1197
0	469592	84.91	40.2641
0	470158	85.01	40.4086
0	470715	85.11	40.553
0	471272	85.21	40.6975
0	471829	85.31	40.8419
0	472386	85.41	40.9863
0	472943	85.51	41.1308
0	473500	85.61	41.2752
0	474057	85.71	41.4197
0	474614	85.81	41.5641
0	475171	85.91	41.7085
0	475737	86.01	41.853
0	476294	86.11	41.9974
0	476851	86.21	42.1419
0	477408	86.31	42.2863
0	477965	86.41	42.4307
0	478522	86.51	42.5752
0	479079	86.61	42.7196
0	479636	86.71	42.8641
0	480193	86.81	43.0085
0	480750	86.91	43.1529
0	481316	87.01	43.2974
0	481873	87.11	43.4418
0	482430	87.21	43.5863
0	482987	87.31	43.7307
0	483544	87.41	43.8751
0	484101	87.51	44.0196
0	484658	87.61	44.164
0	485215	87.71	44.3085
0	485772	87.81	44.4529
0	486329	87.91	44.5973
0	486895	88.01	44.7418
0	487452	88.11	44.8862
0	488009	88.21	45.0307
0	488566	88.31	45.1751
0	489123	88.41	45.3195
0	489680	88.51	45.464
0	490237	88.61	45.6084
0	490794	88.71	45.7529
0	491351	88.81	45.8973
0	491908	88.91	46.0417
0	492474	89.01	46.1862
0	493031	89.11	46.3306
0	493588	89.21	46.4751
0	494145	89.31	46.6195
0	494702	89.41	46.7639
0	495259	89.51	46.9084
0	495816	89.61	47.0528
0	496373	89.71	47.1973
0	496930	89.81	47.3417
0	497487	89.91	47.4861
0	498053	90.01	47.6306
0	498610	90.11	47.775
0	499167	90.21	47.9195
0	499724	90.31	48.0639
0	500281	90.41	48.2083
0	500838	90.51	48.3528
0	501395	90.61	48.4972
0	501952	90.71	48.6417
0	502509	90.81	48.7861
0	503066	90.91	48.9305
0	503632	91.01	49.075
0	504189	91.11	49.2194
0	504746	91.21	49.3639
0	505303	91.31	49.5083
0	505860	91.41	49.6527
0	506417	91.51	49.7972
0	506974	91.61	49.9416
0	507531	91.71	50.0861
0	508088	91.81	50.2305
0	508645	91.91	50.3749
0	509211	92.01	50.5194
0	509768	92.11	50.6638
0	510325	92.21	50.8083
0	510882	92.31	50.9527
0	511439	92.41	51.0971
0	511996	92.51	51.2416
0	512553	92.61	51.386
0	513110	92.71	51.5305
0	513667	92.81	51.6749
0	514224	92.91	51.8193
0	514790	93.01	51.9638
0	515347	93.11	52.1082
0	515904	93.21	52.2527
0	516461	93.31	52.3971
0	517018	93.41	52.5415
0	517575	93.51	52.686
0	518132	93.61	52.8304
0	518689	93.71	52.9749
0	519246	93.81	53.1193
0	519803	93.91	53.2637
0	520369	94.01	53.4082
0	520926	94.11	53.5526
0	521483	94.21	53.6971
0	522040	94.31	53.8415
0	522597	94.41	53.9859
0	523154	94.51	54.1304
0	523711	94.61	54.2748
0	524268	94.71	54.4193
0	524825	94.81	54.5637
0	525382	94.91	54.7081
0	525948	95.01	54.8526
0	526505	95.11	54.997
0	527062	95.21	55.1415
0	527619	95.31	55.2859
0	528176	95.41	55.4303
0	528733	95.51	55.5748
0	529290	95.61	55.7192
0	529847	95.71	55.8637
0	530404	95.81	56.0081
0	530961	95.91	56.1525
0	531527	96.01	56.297
0	532084	96.11	56.4414
0	532641	96.21	56.5859
0	533198	96.31	56.7303
0	533755	96.41	56.8747
0	534312	96.51	57.0192
0	534869	96.61	57.1636
0	535426	96.71	57.3081
0	535983	96.81	57.4525
0	536540	96.91	57.5969
0	537106	97.01	57.7414
0	537663	97.11	57.8858
0	538220	97.21	58.0303
0	538777	97.31	58.1747
0	539334	97.41	58.3191
0	539891	97.51	58.4636
0	540448	97.61	58.608
0	541005	97.71	58.7525
0	541562	97.81	58.8969
0	542119	97.91	59.0413
0	542685	98.01	59.1858
0	543242	98.11	59.3302
0	543799	98.21	59.4747
0	544356	98.31	59.6191
0	544913	98.41	59.7635
0	545470	98.51	59.908
0	546027	98.61	60.0524
0	546584	98.71	60.1969
0	547141	98.81	60.3413
0	547698	98.91	60.4857
0	548264	99.01	60.6302
0	548821	99.11	60.7746
0	549378	99.21	60.9191
0	549935	99.31	61.0635
0	550492	99.41	61.2079
0	551049	99.51	61.3524
0	551606	99.61	61.4968
0	552163	99.71	61.6413
0	552720	99.81	61.7857
0	553277	99.91	61.9301
1	113	1.11	0
1	670	1.21	0
1	1227	1.31	0
1	1784	1.41	0
1	2341	1.51	0
1	2898	1.61	0
1	3455	1.71	0
1	4012	1.81	0
1	4569	1.91	0
1	5135	2.01	0
1	5692	2.11	0
1	6249	2.21	0
1	6806	2.31	0
1	7363	2.41	0
1	7920	2.51	0
1	8477	2.61	0
1	9034	2.71	0
1	9591	2.81	0
1	10148	2.91	0
1	10714	3.01	0
1	11271	3.11	0
1	11828	3.21	0
1	12385	3.31	0
1	12942	3.41	0
1	13499	3.51	0
1	14056	3.61	0
1	14613	3.71	0
1	15170	3.81	0
1	15727	3.91	0
1	16293	4.01	0
1	16850	4.11	0
1	17407	4.21	0
1	17964	4.31	0
1	18521	4.41	0
1	19078	4.51	0
1	19635	4.61	0
1	20192	4.71	0
1	20749	4.81	0
1	21306	4.91	0
1	21872	5.01	0
1	22429	5.11	0
1	22986	5.21	0
1	23543	5.31	0
1	24100	5.41	0
1	24657	5.51	0
1	25214	5.61	0
1	25771	5.71	0
1	26328	5.81	0
1	26885	5.91	0
1	27451	6.01	0
1	28008	6.11	0
1	28565	6.21	0
1	29122	6.31	0
1	29679	6.41	0
1	30236	6.51	0
1	30793	6.61	0
1	31350	6.71	0
1	31907	6.81	0
1	32464	6.91	0
1	33030	7.01	0
1	33587	7.11	0
1	34144	7.21	0
1	34701	7.31	0
1	35258	7.41	0
1	35815	7.51	0
1	36372	7.61	0
1	36929	7.71	0
1	37486	7.81	0
1	38043	7.91	0
1	38609	8.01	0
1	39166	8.11	0
1	39723	8.21	0
1	40280	8.31	0
1	40837	8.41	0
1	41394	8.51	0
1	41951	8.61	0
1	42508	8.71	0
1	43065	8.81	0
1	43622	8.91	0
1	44188	9.01	0
1	44745	9.11	0
1	45302	9.21	0
1	45859	9.31	0
1	46416	9.41	0
1	46973	9.51	0
1	47530	9.61	0
1	48087	9.71	0
1	48644	9.81	0
1	49201	9.91	0
1	51733	10.01	0
1	52290	10.11	0
1	52847	10.21	0
1	53404	10.31	0
1	53961	10.41	0
1	54518	10.51	0
1	55075	10.61	0
1	55632	10.71	0
1	56189	10.81	0
1	56746	10.91	0
1	57312	11.01	0
1	57869	11.11	0
1	58426	11.21	0
1	58983	11.31	0
1	59540	11.41	0
1	60097	11.51	0
1	60654	11.61	0
1	61211	11.71	0
1	61768	11.81	0
1	62325	11.91	0
1	62891	12.01	0
1	63448	12.11	0
1	64005	12.21	0
1	64562	12.31	0
1	65119	12.41	0
1	65676	12.51	0
1	66233	12.61	0
1	66790	12.71	0
1	67347	12.81	0
1	67904	12.91	0
1	68470	13.01	0
1	69027	13.11	0
1	69584	13.21	0
1	70141	13.31	0
1	70698	13.41	0
1	71255	13.51	0
1	71812	13.61	0
1	72369	13.71	0
1	72926	13.81	0
1	73483	13.91	0
1	74049	14.01	0
1	74606	14.11	0
1	75163	14.21	0
1	75720	14.31	0
1	76277	14.41	0
1	76834	14.51	0
1	77391	14.61	0
1	77948	14.71	0
1	78505	14.81	0
1	79062	14.91	0
1	79628	15.01	0
1	80185	15.11	0
1	80742	15.21	0
1	81299	15.31	0
1	81856	15.41	0
1	82413	15.51	0
1	82970	15.61	0
1	83527	15.71	0
1	84084	15.81	0
1	84641	15.91	0
1	85207	16.01	0
1	85764	16.11	0
1	86321	16.21	0
1	86878	16.31	0
1	87435	16.41	0
1	87992	16.51	0
1	88549	16.61	0
1	89106	16.71	0
1	89663	16.81	0
1	90220	16.91	0
1	90786	17.01	0
1	91343	17.11	0
1	91900	17.21	0
1	92457	17.31	0
1	93014	17.41	0
1	93571	17.51	0
1	94128	17.61	0
1	94685	17.71	0
1	95242	17.81	0
1	95799	17.91	0
1	96365	18.01	0
1	96922	18.11	0
1	97479	18.21	0
1	98036	18.31	0
1	98593	18.41	0
1	99150	18.51	0
1	99707	18.61	0
1	100264	18.71	0
1	100821	18.81	0
1	101378	18.91	0
1	101944	19.01	0
1	102501	19.11	0
1	103058	19.21	0
1	103615	19.31	0
1	104172	19.41	0
1	104729	19.51	0
1	105286	19.61	0
1	105843	19.71	0
1	106400	19.81	0
1	106957	19.91	0
1	107523	20.01	0
1	108080	20.11	0
1	108637	20.21	0
1	109194	20.31	0
1	109751	20.41	0
1	110308	20.51	0
1	110865	20.61	0
1	111422	20.71	0
1	111979	20.81	0
1	112536	20.91	0
1	113102	21.01	0
1	113659	21.11	0
1	114216	21.21	0
1	114773	21.31	0
1	115330	21.41	0
1	115887	21.51	0
1	116444	21.61	0
1	117001	21.71	0
1	117558	21.81	0
1	118115	21.91	0
1	118681	22.01	0
1	119238	22.11	0
1	119795	22.21	0
1	120352	22.31	0
1	120909	22.41	0
1	121466	22.51	0
1	122023	22.61	0
1	122580	22.71	0
1	123137	22.81	0
1	123694	22.91	0
1	124260	23.01	0
1	124817	23.11	0
1	125374	23.21	0
1	125931	23.31	0
1	126488	23.41	0
1	127045	23.51	0
1	127602	23.61	0
1	128159	23.71	0
1	128716	23.81	0
1	129273	23.91	0
1	129839	24.01	0
1	130396	24.11	0
1	130953	24.21	0
1	131510	24.31	0
1	132067	24.41	0
1	132624	24.51	0
1	133181	24.61	0
1	133738	24.71	0
1	134295	24.81	0
1	134852	24.91	0
1	135418	25.01	0
1	135975	25.11	0
1	136532	25.21	0
1	137089	25.31	0
1	137646	25.41	0
1	138203	25.51	0
1	138760	25.61	0
1	139317	25.71	0
1	139874	25.81	0
1	140431	25.91	0
1	140997	26.01	0
1	141554	26.11	0
1	142111	26.21	0
1	142668	26.31	0
1	143225	26.41	0
1	143782	26.51	0
1	144339	26.61	0
1	144896	26.71	0
1	145453	26.81	0
1	146010	26.91	0
1	146576	27.01	0
1	147133	27.11	0
1	147690	27.21	0
1	148247	27.31	0
1	148804	27.41	0
1	149361	27.51	0
1	149918	27.61	0
1	150475	27.71	0
1	151032	27.81	0
1	151589	27.91	0
1	152155	28.01	0
1	152712	28.11	0
1	153269	28.21	0
1	153826	28.31	0
1	154383	28.41	0
1	154940	28.51	0
1	155497	28.61	0
1	156054	28.71	0
1	156611	28.81	0
1	157168	28.91	0
1	157734	29.01	0
1	158291	29.11	0
1	158848	29.21	0
1	159405	29.31	0
1	159962	29.41	0
1	160519	29.51	0
1	161076	29.61	0
1	161633	29.71	0
1	162190	29.81	0
1	162747	29.91	0
1	163313	30.01	0
1	163870	30.11	0
1	164427	30.21	0
1	164984	30.31	0
1	165541	30.41	0
1	166098	30.51	0
1	166655	30.61	0
1	167212	30.71	0
1	167769	30.81	0
1	168326	30.91	0
1	168892	31.01	0
1	169449	31.11	0
1	170006	31.21	0
1	170563	31.31	0
1	171120	31.41	0
1	171677	31.51	0
1	172234	31.61	0
1	172791	31.71	0
1	173348	31.81	0
1	173905	31.91	0
1	174471	32.01	0
1	175028	32.11	0
1	175585	32.21	0
1	176142	32.31	0
1	176699	32.41	0
1	177256	32.51	0
1	177813	32.61	0
1	178370	32.71	0
1	178927	32.81	0
1	179484	32.91	0
1	180050	33.01	0
1	180607	33.11	0
1	181164	33.21	0
1	181721	33.31	0
1	182278	33.41	0
1	182835	33.51	0
1	183392	33.61	0
1	183949	33.71	0
1	184506	33.81	0
1	185063	33.91	0
1	185629	34.01	0
1	186186	34.11	0
1	186743	34.21	0
1	187300	34.31	0
1	187857	34.41	0
1	188414	34.51	0
1	188971	34.61	0
1	189528	34.71	0
1	190085	34.81	0
1	190642	34.91	0
1	191208	35.01	0
1	191765	35.11	0
1	192322	35.21	0
1	192879	35.31	0
1	193436	35.41	0
1	193993	35.51	0
1	194550	35.61	0
1	195107	35.71	0
1	195664	35.81	0
1	196221	35.91	0
1	196787	36.01	0
1	197344	36.11	0
1	197901	36.21	0
1	198458	36.31	0
1	199015	36.41	0
1	199572	36.51	0
1	200129	36.61	0
1	200686	36.71	0
1	201243	36.81	0
1	201800	36.91	0
1	202366	37.01	0
1	202923	37.11	0
1	203480	37.21	0
1	204037	37.31	0
1	204594	37.41	0
1	205151	37.51	0
1	205708	37.61	0
1	206265	37.71	0
1	206822	37.81	0
1	207379	37.91	0
1	207945	38.01	0
1	208502	38.11	0
1	209059	38.21	0
1	209616	38.31	0
1	210173	38.41	0
1	210730	38.51	0
1	211287	38.61	0
1	211844	38.71	0
1	212401	38.81	0
1	212958	38.91	0
1	213524	39.01	0
1	214081	39.11	0
1	214638	39.21	0
1	215195	39.31	0
1	215752	39.41	0
1	216309	39.51	0
1	216866	39.61	0
1	217423	39.71	0
1	217980	39.81	0
1	218537	39.91	0
1	219103	40.01	0
1	219660	40.11	0
1	220217	40.21	0
1	220774	40.31	0
1	221331	40.41	0
1	221888	40.51	0
1	222445	40.61	0
1	223002	40.71	0
1	223559	40.81	0
1	224116	40.91	0
1	224682	41.01	0
1	225239	41.11	0
1	225796	41.21	0
1	226353	41.31	0
1	226910	41.41	0
1	227467	41.51	0
1	228024	41.61	0
1	228581	41.71	0
1	229138	41.81	0
1	229695	41.91	0
1	230261	42.01	0
1	230818	42.11	0
1	231375	42.21	0
1	231932	42.31	0
1	232489	42.41	0
1	233046	42.51	0
1	233603	42.61	0
1	234160	42.71	0
1	234717	42.81	0
1	235274	42.91	0
1	235840	43.01	0
1	236397	43.11	0
1	236954	43.21	0
1	237511	43.31	0
1	238068	43.41	0
1	238625	43.51	0
1	239182	43.61	0
1	239739	43.71	0
1	240296	43.81	0
1	240853	43.91	0
1	241419	44.01	0
1	241976	44.11	0
1	242533	44.21	0
1	243090	44.31	0
1	243647	44.41	0
1	244204	44.51	0
1	244761	44.61	0
1	245318	44.71	0
1	245875	44.81	0
1	246432	44.91	0
1	246998	45.01	0
1	247555	45.11	0
1	248112	45.21	0
1	248669	45.31	0
1	249226	45.41	0
1	249783	45.51	0
1	250340	45.61	0
1	250897	45.71	0
1	251454	45.81	0
1	252011	45.91	0
1	252577	46.01	0
1	253134	46.11	0
1	253691	46.21	0
1	254248	46.31	0
1	254805	46.41	0
1	255362	46.51	0
1	255919	46.61	0
1	256476	46.71	0
1	257033	46.81	0
1	257590	46.91	0
1	258156	47.01	0
1	258713	47.11	0
1	259270	47.21	0
1	259827	47.31	0
1	260384	47.41	0
1	260941	47.51	0
1	261498	47.61	0
1	262055	47.71	0
1	262612	47.81	0
1	263169	47.91	0
1	263735	48.01	0
1	264292	48.11	0
1	264849	48.21	0
1	265406	48.31	0
1	265963	48.41	0
1	266520	48.51	0
1	267077	48.61	0
1	267634	48.71	0
1	268191	48.81	0
1	268748	48.91	0
1	269314	49.01	0
1	269871	49.11	0
1	270428	49.21	0
1	270985	49.31	0
1	271542	49.41	0
1	272099	49.51	0
1	272656	49.61	0
1	273213	49.71	0
1	273770	49.81	0
1	274327	49.91	0
1	274893	50.01	0
1	275450	50.11	0
1	276007	50.21	0
1	276564	50.31	0
1	277121	50.41	0
1	277678	50.51	0
1	278235	50.61	0
1	278792	50.71	0
1	279349	50.81	0
1	279906	50.91	0
1	280472	51.01	0
1	281029	51.11	0
1	281586	51.21	0
1	282143	51.31	0
1	282700	51.41	0
1	283257	51.51	0
1	283814	51.61	0
1	284371	51.71	0
1	284928	51.81	0
1	285485	51.91	0
1	286051	52.01	0
1	286608	52.11	0
1	287165	52.21	0
1	287722	52.31	0
1	288279	52.41	0
1	288836	52.51	0
1	289393	52.61	0
1	289950	52.71	0
1	290507	52.81	0
1	291064	52.91	0
1	291630	53.01	0
1	292187	53.11	0
1	292744	53.21	0
1	293301	53.31	2.4444
1	293858	53.41	2.4444
1	294415	53.51	2.4444
1	294972	53.61	2.4444
1	295529	53.71	2.4444
1	296086	53.81	2.4444
1	296643	53.91	2.4444
1	297209	54.01	2.4444
1	297766	54.11	2.4444
1	298323	54.21	2.4444
1	298880	54.31	2.4444
1	299437	54.41	2.4444
1	299994	54.51	2.4444
1	300551	54.61	2.4444
1	301108	54.71	2.4444
1	301665	54.81	2.4444
1	302222	54.91	2.4444
1	302788	55.01	2.4444
1	303345	55.11	2.4444
1	303902	55.21	2.4444
1	304459	55.31	2.4444
1	305016	55.41	2.4444
1	305573	55.51	2.4444
1	306130	55.61	2.4444
1	306687	55.71	2.4444
1	307244	55.81	2.4444
1	307801	55.91	2.4444
1	308367	56.01	2.4444
1	308924	56.11	2.4444
1	309481	56.21	2.4444
1	310038	56.31	2.4444
1	310595	56.41	2.4444
1	311152	56.51	2.4444
1	311709	56.61	2.4444
1	312266	56.71	2.4444
1	312823	56.81	2.4444
1	313380	56.91	2.4444
1	313946	57.01	2.4444
1	314503	57.11	2.4444
1	315060	57.21	2.4444
1	315617	57.31	2.4444
1	316174	57.41	2.4444
1	316731	57.51	2.4444
1	317288	57.61	2.4444
1	317845	57.71	2.4444
1	318402	57.81	2.4444
1	318959	57.91	2.4444
1	319525	58.01	2.4444
1	320082	58.11	2.4444
1	320639	58.21	2.4444
1	321196	58.31	2.4444
1	321753	58.41	2.4444
1	322310	58.51	2.4444
1	322867	58.61	2.4444
1	323424	58.71	2.4444
1	323981	58.81	2.4444
1	324538	58.91	2.4444
1	325104	59.01	2.4444
1	325661	59.11	2.4444
1	326218	59.21	2.4444
1	326775	59.31	2.4444
1	327332	59.41	2.4444
1	327889	59.51	2.4444
1	328446	59.61	2.4444
1	329003	59.71	2.4444
1	329560	59.81	2.4444
1	330117	59.91	2.4444
1	330683	60.01	2.4444
1	331240	60.11	2.4444
1	331797	60.21	2.4444
1	332354	60.31	2.4444
1	332911	60.41	2.4444
1	333468	60.51	2.4444
1	334025	60.61	2.4444
1	334582	60.71	2.4444
1	335139	60.81	2.4444
1	335696	60.91	2.4444
1	336262	61.01	2.4444
1	336819	61.11	2.4444
1	337376	61.21	2.4444
1	337933	61.31	2.4444
1	338490	61.41	2.4444
1	339047	61.51	2.4444
1	339604	61.61	2.4444
1	340161	61.71	2.4444
1	340718	61.81	2.4444
1	341275	61.91	2.4444
1	341841	62.01	2.4444
1	342398	62.11	2.4444
1	342955	62.21	2.4444
1	343512	62.31	2.4444
1	344069	62.41	2.4444
1	344626	62.51	2.4444
1	345183	62.61	2.4444
1	345740	62.71	2.4444
1	346297	62.81	2.4444
1	346854	62.91	2.4444
1	347420	63.01	2.4444
1	347977	63.11	2.4444
1	348534	63.21	2.4444
1	349091	63.31	2.4444
1	349648	63.41	2.4444
1	350205	63.51	2.4444
1	350762	63.61	2.4444
1	351319	63.71	2.4444
1	351876	63.81	2.4444
1	352433	63.91	2.4444
1	352999	64.01	2.4444
1	353556	64.11	2.4444
1	354113	64.21	2.4444
1	354670	64.31	2.4444
1	355227	64.41	2.4444
1	355784	64.51	2.4444
1	356341	64.61	2.4444
1	356898	64.71	2.4444
1	357455	64.81	2.4444
1	358012	64.91	2.4444
1	358578	65.01	2.4444
1	359135	65.11	2.4444
1	359692	65.21	2.4444
1	360249	65.31	2.4444
1	360806	65.41	2.4444
1	361363	65.51	2.4444
1	361920	65.61	2.4444
1	362477	65.71	2.4444
1	363034	65.81	2.4444
1	363591	65.91	2.4444
1	364157	66.01	2.4444
1	364714	66.11	2.4444
1	365271	66.21	2.4444
1	365828	66.31	2.4444
1	366385	66.41	2.4444
1	366942	66.51	2.4444
1	367499	66.61	2.4444
1	368056	66.71	2.4444
1	368613	66.81	2.4444
1	369170	66.91	2.4444
1	369736	67.01	2.4444
1	370293	67.11	2.4444
1	370850	67.21	2.4444
1	371407	67.31	2.4444
1	371964	67.41	2.4444
1	372521	67.51	2.4444
1	373078	67.61	2.4444
1	373635	67.71	2.4444
1	374192	67.81	2.4444
1	374749	67.91	2.4444
1	375315	68.01	2.4444
1	375872	68.11	2.4444
1	376429	68.21	2.4444
1	376986	68.31	2.4444
1	377543	68.41	2.4444
1	378100	68.51	2.4444
1	378657	68.61	2.4444
1	379214	68.71	2.4444
1	379771	68.81	2.4444
1	380328	68.91	2.4444
1	380894	69.01	2.4444
1	381451	69.11	2.4444
1	382008	69.21	2.4444
1	382565	69.31	2.4444
1	383122	69.41	2.4444
1	383679	69.51	2.4444
1	384236	69.61	2.4444
1	384793	69.71	2.4444
1	385350	69.81	2.4444
1	385907	69.91	2.4444
1	386473	70.01	2.4444
1	387030	70.11	2.4444
1	387587	70.21	2.4444
1	388144	70.31	2.4444
1	388701	70.41	2.4444
1	389258	70.51	2.4444
1	389815	70.61	2.4444
1	390372	70.71	2.4444
1	390929	70.81	2.4444
1	391486	70.91	2.4444
1	392052	71.01	2.4444
1	392609	71.11	2.4444
1	393166	71.21	2.4444
1	393723	71.31	2.4444
1	394280	71.41	2.4444
1	394837	71.51	2.4444
1	395394	71.61	2.4444
1	395951	71.71	2.4444
1	396508	71.81	2.4444
1	397065	71.91	2.4444
1	397631	72.01	2.4444
1	398188	72.11	2.4444
1	398745	72.21	2.4444
1	399302	72.31	2.4444
1	399859	72.41	2.4444
1	400416	72.51	2.4444
1	400973	72.61	2.4444
1	401530	72.71	2.4444
1	402087	72.81	2.4444
1	402644	72.91	2.4444
1	403210	73.01	2.4444
1	403767	73.11	2.4444
1	404324	73.21	2.4444
1	404881	73.31	2.4444
1	405438	73.41	2.4444
1	405995	73.51	2.4444
1	406552	73.61	2.4444
1	407109	73.71	2.4444
1	407666	73.81	2.4444
1	408223	73.91	2.4444
1	408789	74.01	2.4444
1	409346	74.11	2.4444
1	409903	74.21	2.4444
1	410460	74.31	2.4444
1	411017	74.41	2.4444
1	411574	74.51	2.4444
1	412131	74.61	2.4444
1	412688	74.71	2.4444
1	413245	74.81	1.4444
1	413802	74.91	1.4444
1	414368	75.01	1.4444
1	414925	75.11	1.4444
1	415482	75.21	1.4444
1	416039	75.31	1.4444
1	416596	75.41	1.4444
1	417153	75.51	1.4444
1	417710	75.61	1.4444
1	418267	75.71	1.4444
1	418824	75.81	1.4444
1	419381	75.91	1.4444
1	419947	76.01	1.4444
1	420504	76.11	1.4444
1	421061	76.21	1.4444
1	421618	76.31	1.4444
1	422175	76.41	1.4444
1	422732	76.51	1.4444
1	423289	76.61	1.4444
1	423846	76.71	1.4444
1	424403	76.81	1.4444
1	424960	76.91	1.4444
1	425526	77.01	1.4444
1	426083	77.11	1.4444
1	426640	77.21	1.4444
1	427197	77.31	1.4444
1	427754	77.41	1.4444
1	428311	77.51	1.4444
1	428868	77.61	1.4444
1	429425	77.71	1.4444
1	429982	77.81	1.4444
1	430539	77.91	1.4444
1	431105	78.01	1.4444
1	431662	78.11	1.4444
1	432219	78.21	1.4444
1	432776	78.31	1.4444
1	433333	78.41	1.4444
1	433890	78.51	1.4444
1	434447	78.61	1.4444
1	435004	78.71	1.4444
1	435561	78.81	1.4444
1	436118	78.91	1.4444
1	436684	79.01	1.4444
1	437241	79.11	1.4444
1	437798	79.21	1.4444
1	438355	79.31	1.4444
1	438912	79.41	1.4444
1	439469	79.51	1.4444
1	440026	79.61	1.4444
1	440583	79.71	1.4444
1	441140	79.81	1.4444
1	441697	79.91	1.4444
1	442263	80.01	1.4444
1	442820	80.11	1.4444
1	443377	80.21	1.4444
1	443934	80.31	1.4444
1	444491	80.41	1.4444
1	445048	80.51	1.4444
1	445605	80.61	1.4444
1	446162	80.71	1.4444
1	446719	80.81	1.4444
1	447276	80.91	1.4444
1	447842	81.01	1.4444
1	448399	81.11	1.4444
1	448956	81.21	1.4444
1	449513	81.31	1.4444
1	450070	81.41	1.4444
1	450627	81.51	1.4444
1	451184	81.61	1.4444
1	451741	81.71	1.4444
1	452298	81.81	1.4444
1	452855	81.91	1.4444
1	453421	82.01	1.4444
1	453978	82.11	1.4444
1	454535	82.21	1.4444
1	455092	82.31	1.4444
1	455649	82.41	1.4444
1	456206	82.51	1.4444
1	456763	82.61	1.4444
1	457320	82.71	1.4444
1	457877	82.81	1.4444
1	458434	82.91	1.4444
1	459000	83.01	1.4444
1	459557	83.11	1.4444
1	460114	83.21	1.4444
1	460671	83.31	1.4444
1	461228	83.41	1.4444
1	461785	83.51	1.4444
1	462342	83.61	1.4444
1	462899	83.71	1.4444
1	463456	83.81	1.4444
1	464013	83.91	1.4444
1	464579	84.01	1.4444
1	465136	84.11	1.4444
1	465693	84.21	1.4444
1	466250	84.31	1.4444
1	466807	84.41	1.4444
1	467364	84.51	1.4444
1	467921	84.61	1.4444
1	468478	84.71	1.4444
1	469035	84.81	1.4444
1	469592	84.91	1.4444
1	470158	85.01	1.4444
1	470715	85.11	1.4444
1	471272	85.21	1.4444
1	471829	85.31	1.4444
1	472386	85.41	1.4444
1	472943	85.51	1.4444
1	473500	85.61	1.4444
1	474057	85.71	1.4444
1	474614	85.81	1.4444
1	475171	85.91	1.4444
1	475737	86.01	1.4444
1	476294	86.11	1.4444
1	476851	86.21	1.4444
1	477408	86.31	1.4444
1	477965	86.41	1.4444
1	478522	86.51	1.4444
1	479079	86.61	1.4444
1	479636	86.71	1.4444
1	480193	86.81	1.4444
1	480750	86.91	1.4444
1	481316	87.01	1.4444
1	481873	87.11	1.4444
1	482430	87.21	1.4444
1	482987	87.31	1.4444
1	483544	87.41	1.4444
1	484101	87.51	1.4444
1	484658	87.61	1.4444
1	485215	87.71	1.4444
1	485772	87.81	1.4444
1	486329	87.91	1.4444
1	486895	88.01	1.4444
1	487452	88.11	1.4444
1	488009	88.21	1.4444
1	488566	88.31	1.4444
1	489123	88.41	1.4444
1	489680	88.51	1.4444
1	490237	88.61	1.4444
1	490794	88.71	1.4444
1	491351	88.81	1.4444
1	491908	88.91	1.4444
1	492474	89.01	1.4444
1	493031	89.11	1.4444
1	493588	89.21	1.4444
1	494145	89.31	1.4444
1	494702	89.41	1.4444
1	495259	89.51	1.4444
1	495816	89.61	1.4444
1	496373	89.71	1.4444
1	496930	89.81	1.4444
1	497487	89.91	1.4444
1	498053	90.01	1.4444
1	498610	90.11	1.4444
1	499167	90.21	1.4444
1	499724	90.31	1.4444
1	500281	90.41	1.4444
1	500838	90.51	1.4444
1	501395	90.61	1.4444
1	501952	90.71	1.4444
1	502509	90.81	1.4444
1	503066	90.91	1.4444
1	503632	91.01	1.4444
1	504189	91.11	1.4444
1	504746	91.21	1.4444
1	505303	91.31	1.4444
1	505860	91.41	1.4444
1	506417	91.51	1.4444
1	506974	91.61	1.4444
1	507531	91.71	1.4444
1	508088	91.81	1.4444
1	508645	91.91	1.4444
1	509211	92.01	1.4444
1	509768	92.11	1.4444
1	510325	92.21	1.4444
1	510882	92.31	1.4444
1	511439	92.41	1.4444
1	511996	92.51	1.4444
1	512553	92.61	1.4444
1	513110	92.71	1.4444
1	513667	92.81	1.4444
1	514224	92.91	1.4444
1	514790	93.01	1.4444
1	515347	93.11	1.4444
1	515904	93.21	1.4444
1	516461	93.31	1.4444
1	517018	93.41	1.4444
1	517575	93.51	1.4444
1	518132	93.61	1.4444
1	518689	93.71	1.4444
1	519246	93.81	1.4444
1	519803	93.91	1.4444
1	520369	94.01	1.4444
1	520926	94.11	1.4444
1	521483	94.21	1.4444
1	522040	94.31	1.4444
1	522597	94.41	1.4444
1	523154	94.51	1.4444
1	523711	94.61	1.4444
1	524268	94.71	1.4444
1	524825	94.81	1.4444
1	525382	94.91	1.4444
1	525948	95.01	1.4444
1	526505	95.11	1.4444
1	527062	95.21	1.4444
1	527619	95.31	1.4444
1	528176	95.41	1.4444
1	528733	95.51	1.4444
1	529290	95.61	1.4444
1	529847	95.71	1.4444
1	530404	95.81	1.4444
1	530961	95.91	1.4444
1	531527	96.01	1.4444
1	532084	96.11	1.4444
1	532641	96.21	1.4444
1	533198	96.31	1.4444
1	533755	96.41	1.4444
1	534312	96.51	1.4444
1	534869	96.61	1.4444
1	535426	96.71	1.4444
1	535983	96.81	1.4444
1	536540	96.91	1.4444
1	537106	97.01	1.4444
1	537663	97.11	1.4444
1	538220	97.21	1.4444
1	538777	97.31	1.4444
1	539334	97.41	1.4444
1	539891	97.51	1.4444
1	540448	97.61	1.4444
1	541005	97.71	1.4444
1	541562	97.81	1.4444
1	542119	97.91	1.4444
1	542685	98.01	1.4444
1	543242	98.11	1.4444
1	543799	98.21	1.4444
1	544356	98.31	1.4444
1	544913	98.41	1.4444
1	545470	98.51	1.4444
1	546027	98.61	1.4444
1	546584	98.71	1.4444
1	547141	98.81	1.4444
1	547698	98.91	1.4444
1	548264	99.01	1.4444
1	548821	99.11	1.4444
1	549378	99.21	1.4444
1	549935	99.31	1.4444
1	550492	99.41	1.4444
1	551049	99.51	1.4444
1	551606	99.61	1.4444
1	552163	99.71	1.4444
1	552720	99.81	1.4444
1	553277	99.91	1.4444
2	113	1.11	0
2	670	1.21	0
2	1227	1.31	0
2	1784	1.41	0
2	2341	1.51	0
2	2898	1.61	0
2	3455	1.71	0
2	4012	1.81	0
2	4569	1.91	0
2	5135	2.01	0
2	5692	2.11	0
2	6249	2.21	0
2	6806	2.31	0
2	7363	2.41	0
2	7920	2.51	0
2	8477	2.61	0
2	9034	2.71	0
2	9591	2.81	0
2	10148	2.91	0
2	10714	3.01	0
2	11271	3.11	0
2	11828	3.21	0
2	12385	3.31	0
2	12942	3.41	0
2	13499	3.51	0
2	14056	3.61	0
2	14613	3.71	0
2	15170	3.81	0
2	15727	3.91	0
2	16293	4.01	0
2	16850	4.11	0
2	17407	4.21	0
2	17964	4.31	0
2	18521	4.41	0
2	19078	4.51	0
2	19635	4.61	0
2	20192	4.71	0
2	20749	4.81	0
2	21306	4.91	0
2	21872	5.01	0
2	22429	5.11	0
2	22986	5.21	0
2	23543	5.31	0
2	24100	5.41	0
2	24657	5.51	0
2	25214	5.61	0
2	25771	5.71	0
2	26328	5.81	0
2	26885	5.91	0
2	27451	6.01	0
2	28008	6.11	0
2	28565	6.21	0
2	29122	6.31	0
2	29679	6.41	0
2	30236	6.51	0
2	30793	6.61	0
2	31350	6.71	0
2	31907	6.81	0
2	32464	6.91	0
2	33030	7.01	0
2	33587	7.11	0
2	34144	7.21	0
2	34701	7.31	0
2	35258	7.41	0
2	35815	7.51	0
2	36372	7.61	0
2	36929	7.71	0
2	37486	7.81	0
2	38043	7.91	0
2	38609	8.01	0
2	39166	8.11	0
2	39723	8.21	0
2	40280	8.31	0
2	40837	8.41	0
2	41394	8.51	0
2	41951	8.61	0
2	42508	8.71	0
2	43065	8.81	0
2	43622	8.91	0
2	44188	9.01	0
2	44745	9.11	0
2	45302	9.21	0
2	45859	9.31	0
2	46416	9.41	0
2	46973	9.51	0
2	47530	9.61	0
2	48087	9.71	0
2	48644	9.81	0
2	49201	9.91	0
2	51733	10.01	0
2	52290	10.11	0
2	52847	10.21	0
2	53404	10.31	0
2	53961	10.41	0
2	54518	10.51	0
2	55075	10.61	0
2	55632	10.71	0
2	56189	10.81	0
2	56746	10.91	0
2	57312	11.01	0
2	57869	11.11	0
2	58426	11.21	0
2	58983	11.31	0
2	59540	11.41	0
2	60097	11.51	0
2	60654	11.61	0
2	61211	11.71	0
2	61768	11.81	0
2	62325	11.91	0
2	62891	12.01	0
2	63448	12.11	0
2	64005	12.21	0
2	64562	12.31	0
2	65119	12.41	0
2	65676	12.51	0
2	66233	12.61	0
2	66790	12.71	0
2	67347	12.81	0
2	67904	12.91	0
2	68470	13.01	0
2	69027	13.11	0
2	69584	13.21	0
2	70141	13.31	0
2	70698	13.41	0
2	71255	13.51	0
2	71812	13.61	0
2	72369	13.71	0
2	72926	13.81	0
2	73483	13.91	0
2	74049	14.01	0
2	74606	14.11	0
2	75163	14.21	0
2	75720	14.31	0
2	76277	14.41	0
2	76834	14.51	0
2	77391	14.61	0
2	77948	14.71	0
2	78505	14.81	0
2	79062	14.91	0
2	79628	15.01	0
2	80185	15.11	0
2	80742	15.21	0
2	81299	15.31	0
2	81856	15.41	0
2	82413	15.51	0
2	82970	15.61	0
2	83527	15.71	0
2	84084	15.81	0
2	84641	15.91	0
2	85207	16.01	0
2	85764	16.11	0
2	86321	16.21	0
2	86878	16.31	0
2	87435	16.41	0
2	87992	16.51	0
2	88549	16.61	0
2	89106	16.71	0
2	89663	16.81	0
2	90220	16.91	0
2	90786	17.01	0
2	91343	17.11	0
2	91900	17.21	0
2	92457	17.31	0
2	93014	17.41	0
2	93571	17.51	0
2	94128	17.61	0
2	94685	17.71	0
2	95242	17.81	0
2	95799	17.91	0
2	96365	18.01	0
2	96922	18.11	0
2	97479	18.21	0
2	98036	18.31	0
2	98593	18.41	0
2	99150	18.51	0
2	99707	18.61	0
2	100264	18.71	0
2	100821	18.81	0
2	101378	18.91	0
2	101944	19.01	0
2	102501	19.11	0
2	103058	19.21	0
2	103615	19.31	0
2	104172	19.41	0
2	104729	19.51	0
2	105286	19.61	0
2	105843	19.71	0
2	106400	19.81	0
2	106957	19.91	0
2	107523	20.01	0
2	108080	20.11	0
2	108637	20.21	0
2	109194	20.31	0
2	109751	20.41	0
2	110308	20.51	0
2	110865	20.61	0
2	111422	20.71	0
2	111979	20.81	0
2	112536	20.91	0
2	113102	21.01	0
2	113659	21.11	0
2	114216	21.21	0
2	114773	21.31	0
2	115330	21.41	0
2	115887	21.51	0
2	116444	21.61	0
2	117001	21.71	0
2	117558	21.81	0
2	118115	21.91	0
2	118681	22.01	0
2	119238	22.11	0
2	119795	22.21	0
2	120352	22.31	0
2	120909	22.41	0
2	121466	22.51	0
2	122023	22.61	0
2	122580	22.71	0
2	123137	22.81	0
2	123694	22.91	0
2	124260	23.01	0
2	124817	23.11	0
2	125374	23.21	0
2	125931	23.31	0
2	126488	23.41	0
2	127045	23.51	0
2	127602	23.61	0
2	128159	23.71	0
2	128716	23.81	0
2	129273	23.91	0
2	129839	24.01	0
2	130396	24.11	0
2	130953	24.21	0
2	131510	24.31	0
2	132067	24.41	0
2	132624	24.51	0
2	133181	24.61	0
2	133738	24.71	0
2	134295	24.81	0
2	134852	24.91	0
2	135418	25.01	0
2	135975	25.11	0
2	136532	25.21	0
2	137089	25.31	0
2	137646	25.41	0
2	138203	25.51	0
2	138760	25.61	0
2	139317	25.71	0
2	139874	25.81	0
2	140431	25.91	0
2	140997	26.01	0
2	141554	26.11	0
2	142111	26.21	0
2	142668	26.31	0
2	143225	26.41	0
2	143782	26.51	0
2	144339	26.61	0
2	144896	26.71	0
2	145453	26.81	0
2	146010	26.91	0
2	146576	27.01	0
2	147133	27.11	0
2	147690	27.21	0
2	148247	27.31	0
2	148804	27.41	0
2	149361	27.51	0
2	149918	27.61	0
2	150475	27.71	0
2	151032	27.81	0
2	151589	27.91	0
2	152155	28.01	0
2	152712	28.11	0
2	153269	28.21	0
2	153826	28.31	0
2	154383	28.41	0
2	154940	28.51	0
2	155497	28.61	0
2	156054	28.71	0
2	156611	28.81	0
2	157168	28.91	0
2	157734	29.01	0
2	158291	29.11	0
2	158848	29.21	0
2	159405	29.31	0
2	159962	29.41	0
2	160519	29.51	0
2	161076	29.61	0
2	161633	29.71	0
2	162190	29.81	0
2	162747	29.91	0
2	163313	30.01	0
2	163870	30.11	0
2	164427	30.21	0
2	164984	30.31	0
2	165541	30.41	0
2	166098	30.51	0
2	166655	30.61	0
2	167212	30.71	0
2	167769	30.81	0
2	168326	30.91	0
2	168892	31.01	0
2	169449	31.11	0
2	170006	31.21	0
2	170563	31.31	0
2	171120	31.41	0
2	171677	31.51	0
2	172234	31.61	0
2	172791	31.71	0
2	173348	31.81	0
2	173905	31.91	0
2	174471	32.01	0
2	175028	32.11	0
2	175585	32.21	0
2	176142	32.31	0
2	176699	32.41	0
2	177256	32.51	0
2	177813	32.61	0
2	178370	32.71	0
2	178927	32.81	0
2	179484	32.91	0
2	180050	33.01	0
2	180607	33.11	0
2	181164	33.21	0
2	181721	33.31	0
2	182278	33.41	0
2	182835	33.51	0
2	183392	33.61	0
2	183949	33.71	0
2	184506	33.81	0
2	185063	33.91	0
2	185629	34.01	0
2	186186	34.11	0
2	186743	34.21	0
2	187300	34.31	0
2	187857	34.41	0
2	188414	34.51	0
2	188971	34.61	0
2	189528	34.71	0
2	190085	34.81	0
2	190642	34.91	0
2	191208	35.01	0
2	191765	35.11	0
2	192322	35.21	0
2	192879	35.31	0
2	193436	35.41	0
2	193993	35.51	0
2	194550	35.61	0
2	195107	35.71	0
2	195664	35.81	0
2	196221	35.91	0
2	196787	36.01	0
2	197344	36.11	0
2	197901	36.21	0
2	198458	36.31	0
2	199015	36.41	0
2	199572	36.51	0
2	200129	36.61	0
2	200686	36.71	0
2	201243	36.81	0
2	201800	36.91	0
2	202366	37.01	0
2	202923	37.11	0
2	203480	37.21	0
2	204037	37.31	0
2	204594	37.41	0
2	205151	37.51	0
2	205708	37.61	0
2	206265	37.71	0
2	206822	37.81	0
2	207379	37.91	0
2	207945	38.01	0
2	208502	38.11	0
2	209059	38.21	0
2	209616	38.31	0
2	210173	38.41	0
2	210730	38.51	0
2	211287	38.61	0
2	211844	38.71	0
2	212401	38.81	0
2	212958	38.91	0
2	213524	39.01	0
2	214081	39.11	0
2	214638	39.21	0
2	215195	39.31	0
2	215752	39.41	0
2	216309	39.51	0
2	216866	39.61	0
2	217423	39.71	0
2	217980	39.81	0
2	218537	39.91	0
2	219103	40.01	0
2	219660	40.11	0
2	220217	40.21	0
2	220774	40.31	0
2	221331	40.41	0
2	221888	40.51	0
2	222445	40.61	0
2	223002	40.71	0
2	223559	40.81	0
2	224116	40.91	0
2	224682	41.01	0
2	225239	41.11	0
2	225796	41.21	0
2	226353	41.31	0
2	226910	41.41	0
2	227467	41.51	0
2	228024	41.61	0
2	228581	41.71	0
2	229138	41.81	0
2	229695	41.91	0
2	230261	42.01	0
2	230818	42.11	0
2	231375	42.21	0
2	231932	42.31	0
2	232489	42.41	0
2	233046	42.51	0
2	233603	42.61	0
2	234160	42.71	0
2	234717	42.81	0
2	235274	42.91	0
2	235840	43.01	0
2	236397	43.11	0
2	236954	43.21	0
2	237511	43.31	0
2	238068	43.41	0
2	238625	43.51	0
2	239182	43.61	0
2	239739	43.71	0
2	240296	43.81	0
2	240853	43.91	0
2	241419	44.01	0
2	241976	44.11	0
2	242533	44.21	0
2	243090	44.31	0
2	243647	44.41	0
2	244204	44.51	0
2	244761	44.61	0
2	245318	44.71	0
2	245875	44.81	0
2	246432	44.91	0
2	246998	45.01	0
2	247555	45.11	0
2	248112	45.21	0
2	248669	45.31	0
2	249226	45.41	0
2	249783	45.51	0
2	250340	45.61	0
2	250897	45.71	0
2	251454	45.81	0
2	252011	45.91	0
2	252577	46.01	0
2	253134	46.11	0
2	253691	46.21	0
2	254248	46.31	0
2	254805	46.41	0
2	255362	46.51	0
2	255919	46.61	0
2	256476	46.71	0
2	257033	46.81	0
2	257590	46.91	0
2	258156	47.01	0
2	258713	47.11	0
2	259270	47.21	0
2	259827	47.31	0
2	260384	47.41	0
2	260941	47.51	0
2	261498	47.61	0
2	262055	47.71	0
2	262612	47.81	0
2	263169	47.91	0
2	263735	48.01	0
2	264292	48.11	0
2	264849	48.21	0
2	265406	48.31	0
2	265963	48.41	0
2	266520	48.51	0
2	267077	48.61	0
2	267634	48.71	0
2	268191	48.81	0
2	268748	48.91	0
2	269314	49.01	0
2	269871	49.11	0
2	270428	49.21	0
2	270985	49.31	0
2	271542	49.41	0
2	272099	49.51	0
2	272656	49.61	0
2	273213	49.71	0
2	273770	49.81	0
2	274327	49.91	0
2	274893	50.01	0
2	275450	50.11	0
2	276007	50.21	0
2	276564	50.31	0
2	277121	50.41	0
2	277678	50.51	0
2	278235	50.61	0
2	278792	50.71	0
2	279349	50.81	0
2	279906	50.91	0
2	280472	51.01	0
2	281029	51.11	0
2	281586	51.21	0
2	282143	51.31	0
2	282700	51.41	0
2	283257	51.51	0
2	283814	51.61	0
2	284371	51.71	0
2	284928	51.81	0
2	285485	51.91	0
2	286051	52.01	0
2	286608	52.11	0
2	287165	52.21	0
2	287722	52.31	0
2	288279	52.41	0
2	288836	52.51	0
2	289393	52.61	0
2	289950	52.71	0
2	290507	52.81	0
2	291064	52.91	0
2	291630	53.01	0
2	292187	53.11	0
2	292744	53.21	0
2	293301	53.31	0
2	293858	53.41	0
2	294415	53.51	0
2	294972	53.61	0
2	295529	53.71	0
2	296086	53.81	0
2	296643	53.91	0
2	297209	54.01	0
2	297766	54.11	0
2	298323	54.21	0
2	298880	54.31	0
2	299437	54.41	0
2	299994	54.51	0
2	300551	54.61	0
2	301108	54.71	0
2	301665	54.81	0
2	302222	54.91	0
2	302788	55.01	0
2	303345	55.11	0
2	303902	55.21	0
2	304459	55.31	0
2	305016	55.41	0
2	305573	55.51	0
2	306130	55.61	0
2	306687	55.71	0
2	307244	55.81	0
2	307801	55.91	0
2	308367	56.01	0
2	308924	56.11	0
2	309481	56.21	0
2	310038	56.31	0
2	310595	56.41	0
2	311152	56.51	0
2	311709	56.61	0
2	312266	56.71	0
2	312823	56.81	0
2	313380	56.91	0
2	313946	57.01	0
2	314503	57.11	0
2	315060	57.21	0
2	315617	57.31	0
2	316174	57.41	0
2	316731	57.51	0
2	317288	57.61	0
2	317845	57.71	0
2	318402	57.81	0
2	318959	57.91	0
2	319525	58.01	0
2	320082	58.11	0
2	320639	58.21	0
2	321196	58.31	0
2	321753	58.41	0
2	322310	58.51	0
2	322867	58.61	0
2	323424	58.71	0
2	323981	58.81	0
2	324538	58.91	0
2	325104	59.01	0
2	325661	59.11	0
2	326218	59.21	0
2	326775	59.31	0
2	327332	59.41	0
2	327889	59.51	0
2	328446	59.61	0
2	329003	59.71	0
2	329560	59.81	0
2	330117	59.91	0
2	330683	60.01	0
2	331240	60.11	0
2	331797	60.21	0
2	332354	60.31	0
2	332911	60.41	0
2	333468	60.51	0
2	334025	60.61	0
2	334582	60.71	0
2	335139	60.81	0
2	335696	60.91	0
2	336262	61.01	0
2	336819	61.11	0
2	337376	61.21	0
2	337933	61.31	0
2	338490	61.41	0
2	339047	61.51	0
2	339604	61.61	0
2	340161	61.71	0
2	340718	61.81	0
2	341275	61.91	0
2	341841	62.01	0
2	342398	62.11	0
2	342955	62.21	0
2	343512	62.31	0
2	344069	62.41	0
2	344626	62.51	0
2	345183	62.61	0
2	345740	62.71	0
2	346297	62.81	0
2	346854	62.91	0
2	347420	63.01	0
2	347977	63.11	0
2	348534	63.21	0
2	349091	63.31	0
2	349648	63.41	0
2	350205	63.51	0
2	350762	63.61	0
2	351319	63.71	0
2	351876	63.81	0
2	352433	63.91	0
2	352999	64.01	0
2	353556	64.11	0
2	354113	64.21	0
2	354670	64.31	0
2	355227	64.41	0
2	355784	64.51	0
2	356341	64.61	0
2	356898	64.71	0
2	357455	64.81	0
2	358012	64.91	0
2	358578	65.01	0
2	359135	65.11	0
2	359692	65.21	0
2	360249	65.31	0
2	360806	65.41	0
2	361363	65.51	0
2	361920	65.61	0
2	362477	65.71	0
2	363034	65.81	0
2	363591	65.91	0
2	364157	66.01	0
2	364714	66.11	0
2	365271	66.21	0
2	365828	66.31	0
2	366385	66.41	0
2	366942	66.51	0
2	367499	66.61	0
2	368056	66.71	0
2	368613	66.81	0
2	369170	66.91	0
2	369736	67.01	0
2	370293	67.11	0
2	370850	67.21	0
2	371407	67.31	0
2	371964	67.41	0
2	372521	67.51	0
2	373078	67.61	0
2	373635	67.71	0
2	374192	67.81	0
2	374749	67.91	0
2	375315	68.01	0
2	375872	68.11	0
2	376429	68.21	0
2	376986	68.31	0
2	377543	68.41	0
2	378100	68.51	0
2	378657	68.61	0
2	379214	68.71	0
2	379771	68.81	0
2	380328	68.91	0
2	380894	69.01	0
2	381451	69.11	0
2	382008	69.21	0
2	382565	69.31	0
2	383122	69.41	0
2	383679	69.51	0
2	384236	69.61	0
2	384793	69.71	0
2	385350	69.81	0
2	385907	69.91	0
2	386473	70.01	0
2	387030	70.11	0
2	387587	70.21	0
2	388144	70.31	0
2	388701	70.41	0
2	389258	70.51	0
2	389815	70.61	0
2	390372	70.71	0
2	390929	70.81	0
2	391486	70.91	0
2	392052	71.01	0
2	392609	71.11	0
2	393166	71.21	0
2	393723	71.31	0
2	394280	71.41	0
2	394837	71.51	0
2	395394	71.61	0
2	395951	71.71	0
2	396508	71.81	0
2	397065	71.91	0
2	397631	72.01	0
2	398188	72.11	0
2	398745	72.21	0
2	399302	72.31	0
2	399859	72.41	0
2	400416	72.51	0
2	400973	72.61	0
2	401530	72.71	0
2	402087	72.81	0
2	402644	72.91	0
2	403210	73.01	0
2	403767	73.11	0
2	404324	73.21	0
2	404881	73.31	0
2	405438	73.41	0
2	405995	73.51	0
2	406552	73.61	0
2	407109	73.71	0
2	407666	73.81	0
2	408223	73.91	0
2	408789	74.01	0
2	409346	74.11	0
2	409903	74.21	0
2	410460	74.31	0
2	411017	74.41	0
2	411574	74.51	0
2	412131	74.61	0
2	412688	74.71	0
2	413245	74.81	0
2	413802	74.91	0
2	414368	75.01	0
2	414925	75.11	0
2	415482	75.21	0
2	416039	75.31	0
2	416596	75.41	0
2	417153	75.51	0
2	417710	75.61	0
2	418267	75.71	0
2	418824	75.81	0
2	419381	75.91	0
2	419947	76.01	0
2	420504	76.11	0
2	421061	76.21	0
2	421618	76.31	0
2	422175	76.41	0
2	422732	76.51	0
2	423289	76.61	0
2	423846	76.71	0
2	424403	76.81	0
2	424960	76.91	0
2	425526	77.01	0
2	426083	77.11	0
2	426640	77.21	0
2	427197	77.31	0
2	427754	77.41	0
2	428311	77.51	0
2	428868	77.61	0
2	429425	77.71	0
2	429982	77.81	0
2	430539	77.91	0
2	431105	78.01	0
2	431662	78.11	0
2	432219	78.21	0
2	432776	78.31	0
2	433333	78.41	0
2	433890	78.51	0
2	434447	78.61	0
2	435004	78.71	0
2	435561	78.81	0
2	436118	78.91	0
2	436684	79.01	0
2	437241	79.11	0
2	437798	79.21	0
2	438355	79.31	0
2	438912	79.41	0
2	439469	79.51	0
2	440026	79.61	0
2	440583	79.71	0
2	441140	79.81	0
2	441697	79.91	0
2	442263	80.01	0
2	442820	80.11	0
2	443377	80.21	0
2	443934	80.31	0
2	444491	80.41	0
2	445048	80.51	0
2	445605	80.61	0
2	446162	80.71	0
2	446719	80.81	0
2	447276	80.91	0
2	447842	81.01	0
2	448399	81.11	0
2	448956	81.21	0
2	449513	81.31	0
2	450070	81.41	0
2	450627	81.51	0
2	451184	81.61	0
2	451741	81.71	0
2	452298	81.81	0
2	452855	81.91	0
2	453421	82.01	0
2	453978	82.11	0
2	454535	82.21	0
2	455092	82.31	0
2	455649	82.41	0
2	456206	82.51	0
2	456763	82.61	0
2	457320	82.71	0
2	457877	82.81	0
2	458434	82.91	0
2	459000	83.01	0
2	459557	83.11	0
2	460114	83.21	0
2	460671	83.31	0
2	461228	83.41	0
2	461785	83.51	0
2	462342	83.61	0
2	462899	83.71	0
2	463456	83.81	0
2	464013	83.91	0
2	464579	84.01	0
2	465136	84.11	0
2	465693	84.21	0
2	466250	84.31	0
2	466807	84.41	0
2	467364	84.51	0
2	467921	84.61	0
2	468478	84.71	0
2	469035	84.81	0
2	469592	84.91	0
2	470158	85.01	0
2	470715	85.11	0
2	471272	85.21	0
2	471829	85.31	0
2	472386	85.41	0
2	472943	85.51	0
2	473500	85.61	0
2	474057	85.71	0
2	474614	85.81	0
2	475171	85.91	0
2	475737	86.01	0
2	476294	86.11	0
2	476851	86.21	0
2	477408	86.31	0
2	477965	86.41	0
2	478522	86.51	0
2	479079	86.61	0
2	479636	86.71	0
2	480193	86.81	0
2	480750	86.91	0
2	481316	87.01	0
2	481873	87.11	0
2	482430	87.21	0
2	482987	87.31	0
2	483544	87.41	0
2	484101	87.51	0
2	484658	87.61	0
2	485215	87.71	0
2	485772	87.81	0
2	486329	87.91	0
2	486895	88.01	0
2	487452	88.11	0
2	488009	88.21	0
2	488566	88.31	0
2	489123	88.41	0
2	489680	88.51	0
2	490237	88.61	0
2	490794	88.71	0
2	491351	88.81	0
2	491908	88.91	0
2	492474	89.01	0
2	493031	89.11	0
2	493588	89.21	0
2	494145	89.31	0
2	494702	89.41	0
2	495259	89.51	0
2	495816	89.61	0
2	496373	89.71	0
2	496930	89.81	0
2	497487	89.91	0
2	498053	90.01	0
2	498610	90.11	0
2	499167	90.21	0
2	499724	90.31	0
2	500281	90.41	0
2	500838	90.51	0
2	501395	90.61	0
2	501952	90.71	0
2	502509	90.81	0
2	503066	90.91	0
2	503632	91.01	0
2	504189	91.11	0
2	504746	91.21	0
2	505303	91.31	0
2	505860	91.41	0
2	506417	91.51	0
2	506974	91.61	0
2	507531	91.71	0
2	508088	91.81	0
2	508645	91.91	0
2	509211	92.01	0
2	509768	92.11	0
2	510325	92.21	0
2	510882	92.31	0
2	511439	92.41	0
2	511996	92.51	0
2	512553	92.61	0
2	513110	92.71	0
2	513667	92.81	0
2	514224	92.91	0
2	514790	93.01	0
2	515347	93.11	0
2	515904	93.21	0
2	516461	93.31	0
2	517018	93.41	0
2	517575	93.51	0
2	518132	93.61	0
2	518689	93.71	0
2	519246	93.81	0
2	519803	93.91	0
2	520369	94.01	0
2	520926	94.11	0
2	521483	94.21	0
2	522040	94.31	0
2	522597	94.41	0
2	523154	94.51	0
2	523711	94.61	0
2	524268	94.71	0
2	524825	94.81	0
2	525382	94.91	0
2	525948	95.01	0
2	526505	95.11	0
2	527062	95.21	0
2	527619	95.31	0
2	528176	95.41	0
2	528733	95.51	0
2	529290	95.61	0
2	529847	95.71	0
2	530404	95.81	0
2	530961	95.91	0
2	531527	96.01	0
2	532084	96.11	0
2	532641	96.21	0
2	533198	96.31	0
2	533755	96.41	0
2	534312	96.51	0
2	534869	96.61	0
2	535426	96.71	0
2	535983	96.81	0
2	536540	96.91	0
2	537106	97.01	0
2	537663	97.11	0
2	538220	97.21	0
2	538777	97.31	0
2	539334	97.41	0
2	539891	97.51	0
2	540448	97.61	0
2	541005	97.71	0
2	541562	97.81	0
2	542119	97.91	0
2	542685	98.01	0
2	543242	98.11	0
2	543799	98.21	0
2	544356	98.31	0
2	544913	98.41	0
2	545470	98.51	0
2	546027	98.61	0
2	546584	98.71	0
2	547141	98.81	0
2	547698	98.91	0
2	548264	99.01	0
2	548821	99.11	0
2	549378	99.21	0
2	549935	99.31	0
2	550492	99.41	0
2	551049	99.51	0
2	551606	99.61	0
2	552163	99.71	0
2	552720	99.81	0
2	553277	99.91	0
3	113	1.11	-0.000716383
3	670	1.21	-0.00136341
3	1227	1.31	-0.00186974
3	1784	1.41	-0.00225157
3	2341	1.51	-0.00252443
3	2898	1.61	-0.00270298
3	3455	1.71	-0.00280098
3	4012	1.81	-0.00283113
3	4569	1.91	-0.00280509
3	5135	2.01	-0.00273342
3	5692	2.11	-0.00262559
3	6249	2.21	-0.00249005
3	6806	2.31	-0.00233419
3	7363	2.41	-0.00216447
3	7920	2.51	-0.00198642
3	8477	2.61	-0.00180472
3	9034	2.71	-0.0016233
3	9591	2.81	-0.00144536
3	10148	2.91	-0.00127346
3	10714	3.01	-0.0011096
3	11271	3.11	-0.000955278
3	11828	3.21	-0.000811546
3	12385	3.31	-0.00067908
3	12942	3.41	-0.000558232
3	13499	3.51	-0.000449082
3	14056	3.61	-0.000351487
3	14613	3.71	-0.00026512
3	15170	3.81	-0.000189514
3	15727	3.91	-0.000124092
3	16293	4.01	-6.81972e-05
3	16850	4.11	-2.11209e-05
3	17407	4.21	1.78769e-05
3	17964	4.31	4.9548e-05
3	18521	4.41	7.46407e-05
3	19078	4.51	9.38867e-05
3	19635	4.61	0.000107991
3	20192	4.71	0.000117625
3	20749	4.81	0.000123418
3	21306	4.91	0.000125957
3	21872	5.01	0.000125781
3	22429	5.11	0.00012338
3	22986	5.21	0.000119198
3	23543	5.31	0.000113629
3	24100	5.41	0.000107022
3	24657	5.51	9.96832e-05
3	25214	5.61	9.18747e-05
3	25771	5.71	8.38211e-05
3	26328	5.81	7.57109e-05
3	26885	5.91	6.76999e-05
3	27451	6.01	5.99137e-05
3	28008	6.11	5.24518e-05
3	28565	6.21	4.53896e-05
3	29122	6.31	3.87821e-05
3	29679	6.41	3.2666e-05
3	30236	6.51	2.70628e-05
3	30793	6.61	2.19809e-05
3	31350	6.71	1.74176e-05
3	31907	6.81	1.33618e-05
3	32464	6.91	9.79494e-06
3	33030	7.01	6.6932e-06
3	33587	7.11	4.02864e-06
3	34144	7.21	1.77051e-06
3	34701	7.31	-1.13691e-07
3	35258	7.41	-1.65736e-06
3	35815	7.51	-2.89397e-06
3	36372	7.61	-3.85652e-06
3	36929	7.71	-4.57698e-06
3	37486	7.81	-5.08591e-06
3	38043	7.91	-5.41219e-06
3	38609	8.01	-5.58279e-06
3	39166	8.11	-5.6226e-06
3	39723	8.21	-5.55442e-06
3	40280	8.31	-5.39886e-06
3	40837	8.41	-5.17441e-06
3	41394	8.51	-4.89748e-06
3	41951	8.61	-4.58246e-06
3	42508	8.71	-4.24184e-06
3	43065	8.81	-3.88634e-06
3	43622	8.91	-3.52499e-06
3	44188	9.01	-3.16534e-06
3	44745	9.11	-2.81353e-06
3	45302	9.21	-2.47446e-06
3	45859	9.31	-2.15192e-06
3	46416	9.41	-1.84873e-06
3	46973	9.51	-1.56685e-06
3	47530	9.61	-1.30751e-06
3	48087	9.71	-1.0713e-06
3	48644	9.81	-8.58321e-07
3	49201	9.91	-6.68206e-07
3	51733	10.01	-5.0026e-07
3	52290	10.11	-3.53514e-07
3	52847	10.21	-2.2679e-07
3	53404	10.31	-1.18765e-07
3	53961	10.41	-2.80163e-08
3	54518	10.51	4.6931e-08
3	55075	10.61	1.07573e-07
3	55632	10.71	1.55391e-07
3	56189	10.81	1.91831e-07
3	56746	10.91	2.18284e-07
3	57312	11.01	2.3607e-07
3	57869	11.11	2.46427e-07
3	58426	11.21	2.50502e-07
3	58983	11.31	2.49353e-07
3	59540	11.41	2.43938e-07
3	60097	11.51	2.3512e-07
3	60654	11.61	2.23669e-07
3	61211	11.71	2.10264e-07
3	61768	11.81	1.95496e-07
3	62325	11.91	1.79874e-07
3	62891	12.01	1.63833e-07
3	63448	12.11	1.47736e-07
3	64005	12.21	1.3188e-07
3	64562	12.31	1.16508e-07
3	65119	12.41	1.01807e-07
3	65676	12.51	8.79222e-08
3	66233	12.61	7.49541e-08
3	66790	12.71	6.29711e-08
3	67347	12.81	5.20114e-08
3	67904	12.91	4.20883e-08
3	68470	13.01	3.3193e-08
3	69027	13.11	2.53003e-08
3	69584	13.21	1.83718e-08
3	70141	13.31	1.23581e-08
3	70698	13.41	7.20348e-09
3	71255	13.51	2.84537e-09
3	71812	13.61	-7.80886e-10
3	72369	13.71	-3.74136e-09
3	72926	13.81	-6.10285e-09
3	73483	13.91	-7.93072e-09
3	74049	14.01	-9.28821e-09
3	74606	14.11	-1.0235e-08
3	75163	14.21	-1.08283e-08
3	75720	14.31	-1.11211e-08
3	76277	14.41	-1.11612e-08
3	76834	14.51	-1.09946e-08
3	77391	14.61	-1.06599e-08
3	77948	14.71	-1.01945e-08
3	78505	14.81	-9.62999e-09
3	79062	14.91	-8.99405e-09
3	79628	15.01	-8.31086e-09
3	80185	15.11	-7.60103e-09
3	80742	15.21	-6.88338e-09
3	81299	15.31	-6.17071e-09
3	81856	15.41	-5.47544e-09
3	82413	15.51	-4.80682e-09
3	82970	15.61	-4.17266e-09
3	83527	15.71	-3.57687e-09
3	84084	15.81	-3.02443e-09
3	84641	15.91	-2.51674e-09
3	85207	16.01	-2.05489e-09
3	85764	16.11	-1.63958e-09
3	86321	16.21	-1.26903e-09
3	86878	16.31	-9.42535e-10
3	87435	16.41	-6.57963e-10
3	87992	16.51	-4.1247e-10
3	88549	16.61	-2.04636e-10
3	89106	16.71	-2.91323e-11
3	89663	16.81	1.14753e-10
3	90220	16.91	2.30926e-10
3	90786	17.01	3.22231e-10
3	91343	17.11	3.91154e-10
3	91900	17.21	4.40892e-10
3	92457	17.31	4.73577e-10
3	93014	17.41	4.92051e-10
3	93571	17.51	4.98446e-10
3	94128	17.61	4.94893e-10
3	94685	17.71	4.82814e-10
3	95242	17.81	4.6434e-10
3	95799	17.91	4.40892e-10
3	96365	18.01	4.13536e-10
3	96922	18.11	3.83693e-10
3	97479	18.21	3.51719e-10
3	98036	18.31	3.19744e-10
3	98593	18.41	2.8777e-10
3	99150	18.51	2.55795e-10
3	99707	18.61	2.25953e-10
3	100264	18.71	1.97531e-10
3	100821	18.81	1.6982e-10
3	101378	18.91	1.44951e-10
3	101944	19.01	1.21503e-10
3	102501	19.11	1.00187e-10
3	103058	19.21	8.10019e-11
3	103615	19.31	6.32383e-11
3	104172	19.41	4.86722e-11
3	104729	19.51	3.44613e-11
3	105286	19.61	2.34479e-11
3	105843	19.71	1.27898e-11
3	106400	19.81	4.9738e-12
3	106957	19.91	-2.13163e-12
3	107523	20.01	-8.17124e-12
3	108080	20.11	-1.1724e-11
3	108637	20.21	-1.52767e-11
3	109194	20.31	-1.88294e-11
3	109751	20.41	-2.02505e-11
3	110308	20.51	-2.02505e-11
3	110865	20.61	-2.02505e-11
3	111422	20.71	-2.02505e-11
3	111979	20.81	-2.02505e-11
3	112536	20.91	-2.02505e-11
3	113102	21.01	-2.02505e-11
3	113659	21.11	-2.02505e-11
3	114216	21.21	-2.02505e-11
3	114773	21.31	-1.88294e-11
3	115330	21.41	-1.7053e-11
3	115887	21.51	-1.52767e-11
3	116444	21.61	-1.38556e-11
3	117001	21.71	-1.24345e-11
3	117558	21.81	-1.13687e-11
3	118115	21.91	-1.03029e-11
3	118681	22.01	-9.23706e-12
3	119238	22.11	-8.52651e-12
3	119795	22.21	-7.4607e-12
3	120352	22.31	-6.75016e-12
3	120909	22.41	-6.03961e-12
3	121466	22.51	-5.68434e-12
3	122023	22.61	-4.9738e-12
3	122580	22.71	-4.61853e-12
3	123137	22.81	-4.26326e-12
3	123694	22.91	-3.90799e-12
3	124260	23.01	-3.55271e-12
3	124817	23.11	-3.19744e-12
3	125374	23.21	-2.84217e-12
3	125931	23.31	-2.4869e-12
3	126488	23.41	-2.13163e-12
3	127045	23.51	-2.13163e-12
3	127602	23.61	-1.77636e-12
3	128159	23.71	-1.77636e-12
3	128716	23.81	-1.42109e-12
3	129273	23.91	-1.42109e-12
3	129839	24.01	-1.06581e-12
3	130396	24.11	-1.06581e-12
3	130953	24.21	-1.06581e-12
3	131510	24.31	-1.06581e-12
3	132067	24.41	-7.10543e-13
3	132624	24.51	-7.10543e-13
3	133181	24.61	-7.10543e-13
3	133738	24.71	-7.10543e-13
3	134295	24.81	-7.10543e-13
3	134852	24.91	-3.55271e-13
3	135418	25.01	-3.55271e-13
3	135975	25.11	-3.55271e-13
3	136532	25.21	-3.55271e-13
3	137089	25.31	-3.55271e-13
3	137646	25.41	-3.55271e-13
3	138203	25.51	-3.55271e-13
3	138760	25.61	-3.55271e-13
3	139317	25.71	-3.55271e-13
3	139874	25.81	-3.55271e-13
3	140431	25.91	0
3	140997	26.01	0
3	141554	26.11	0
3	142111	26.21	0
3	142668	26.31	0
3	143225	26.41	0
3	143782	26.51	0
3	144339	26.61	0
3	144896	26.71	0
3	145453	26.81	0
3	146010	26.91	0
3	146576	27.01	0
3	147133	27.11	0
3	147690	27.21	0
3	148247	27.31	0
3	148804	27.41	0
3	149361	27.51	0
3	149918	27.61	0
3	150475	27.71	0
3	151032	27.81	0
3	151589	27.91	0
3	152155	28.01	0
3	152712	28.11	0
3	153269	28.21	0
3	153826	28.31	0
3	154383	28.41	0
3	154940	28.51	0
3	155497	28.61	0
3	156054	28.71	0
3	156611	28.81	0
3	157168	28.91	0
3	157734	29.01	0
3	158291	29.11	0
3	158848	29.21	0
3	159405	29.31	0
3	159962	29.41	0
3	160519	29.51	0
3	161076	29.61	0
3	161633	29.71	0
3	162190	29.81	0
3	162747	29.91	0
3	163313	30.01	0
3	163870	30.11	0
3	164427	30.21	0
3	164984	30.31	0
3	165541	30.41	0
3	166098	30.51	0
3	166655	30.61	0
3	167212	30.71	0
3	167769	30.81	0
3	168326	30.91	0
3	168892	31.01	0
3	169449	31.11	0
3	170006	31.21	0
3	170563	31.31	0
3	171120	31.41	0
3	171677	31.51	0
3	172234	31.61	0
3	172791	31.71	0
3	173348	31.81	0
3	173905	31.91	0
3	174471	32.01	0
3	175028	32.11	0
3	175585	32.21	0
3	176142	32.31	0
3	176699	32.41	0
3	177256	32.51	0
3	177813	32.61	0
3	178370	32.71	0
3	178927	32.81	0
3	179484	32.91	0
3	180050	33.01	0
3	180607	33.11	0
3	181164	33.21	0
3	181721	33.31	0
3	182278	33.41	0
3	182835	33.51	0
3	183392	33.61	0
3	183949	33.71	0
3	184506	33.81	0
3	185063	33.91	0
3	185629	34.01	0
3	186186	34.11	0
3	186743	34.21	0
3	187300	34.31	0
3	187857	34.41	0
3	188414	34.51	0
3	188971	34.61	0
3	189528	34.71	0
3	190085	34.81	0
3	190642	34.91	0
3	191208	35.01	0
3	191765	35.11	0
3	192322	35.21	0
3	192879	35.31	0
3	193436	35.41	0
3	193993	35.51	0
3	194550	35.61	0
3	195107	35.71	0
3	195664	35.81	0
3	196221	35.91	0
3	196787	36.01	0
3	197344	36.11	0
3	197901	36.21	0
3	198458	36.31	0
3	199015	36.41	0
3	199572	36.51	0
3	200129	36.61	0
3	200686	36.71	0
3	201243	36.81	0
3	201800	36.91	0
3	202366	37.01	0
3	202923	37.11	0
3	203480	37.21	0
3	204037	37.31	0
3	204594	37.41	0
3	205151	37.51	0
3	205708	37.61	0
3	206265	37.71	0
3	206822	37.81	0
3	207379	37.91	0
3	207945	38.01	0
3	208502	38.11	0
3	209059	38.21	0
3	209616	38.31	0
3	210173	38.41	0
3	210730	38.51	0
3	211287	38.61	0
3	211844	38.71	0
3	212401	38.81	0
3	212958	38.91	0
3	213524	39.01	0
3	214081	39.11	0
3	214638	39.21	0
3	215195	39.31	0
3	215752	39.41	0
3	216309	39.51	0
3	216866	39.61	0
3	217423	39.71	0
3	217980	39.81	0
3	218537	39.91	0
3	219103	40.01	0
3	219660	40.11	0
3	220217	40.21	0
3	220774	40.31	0
3	221331	40.41	0
3	221888	40.51	0
3	222445	40.61	0
3	223002	40.71	0
3	223559	40.81	0
3	224116	40.91	0
3	224682	41.01	0
3	225239	41.11	0
3	225796	41.21	0
3	226353	41.31	0
3	226910	41.41	0
3	227467	41.51	0
3	228024	41.61	0
3	228581	41.71	0
3	229138	41.81	0
3	229695	41.91	0
3	230261	42.01	0
3	230818	42.11	0
3	231375	42.21	0
3	231932	42.31	0
3	232489	42.41	0
3	233046	42.51	0
3	233603	42.61	0
3	234160	42.71	0
3	234717	42.81	0
3	235274	42.91	0
3	235840	43.01	0
3	236397	43.11	0
3	236954	43.21	0
3	237511	43.31	0
3	238068	43.41	0
3	238625	43.51	0
3	239182	43.61	0
3	239739	43.71	0
3	240296	43.81	0
3	240853	43.91	0
3	241419	44.01	0
3	241976	44.11	0
3	242533	44.21	0
3	243090	44.31	0
3	243647	44.41	0
3	244204	44.51	0
3	244761	44.61	0
3	245318	44.71	0
3	245875	44.81	0
3	246432	44.91	0
3	246998	45.01	0
3	247555	45.11	0
3	248112	45.21	0
3	248669	45.31	0
3	249226	45.41	0
3	249783	45.51	0
3	250340	45.61	0
3	250897	45.71	0
3	251454	45.81	0
3	252011	45.91	0
3	252577	46.01	0
3	253134	46.11	0
3	253691	46.21	0
3	254248	46.31	0
3	254805	46.41	0
3	255362	46.51	0
3	255919	46.61	0
3	256476	46.71	0
3	257033	46.81	0
3	257590	46.91	0
3	258156	47.01	0
3	258713	47.11	0
3	259270	47.21	0
3	259827	47.31	0
3	260384	47.41	0
3	260941	47.51	0
3	261498	47.61	0
3	262055	47.71	0
3	262612	47.81	0
3	263169	47.91	0
3	263735	48.01	0
3	264292	48.11	0
3	264849	48.21	0
3	265406	48.31	0
3	265963	48.41	0
3	266520	48.51	0
3	267077	48.61	0
3	267634	48.71	0
3	268191	48.81	0
3	268748	48.91	0
3	269314	49.01	0
3	269871	49.11	0
3	270428	49.21	0
3	270985	49.31	0
3	271542	49.41	0
3	272099	49.51	0
3	272656	49.61	0
3	273213	49.71	0
3	273770	49.81	0
3	274327	49.91	0
3	274893	50.01	0
3	275450	50.11	0
3	276007	50.21	0
3	276564	50.31	0
3	277121	50.41	0
3	277678	50.51	0
3	278235	50.61	0
3	278792	50.71	0
3	279349	50.81	0
3	279906	50.91	0
3	280472	51.01	0
3	281029	51.11	0
3	281586	51.21	0
3	282143	51.31	0
3	282700	51.41	0
3	283257	51.51	0
3	283814	51.61	0
3	284371	51.71	0
3	284928	51.81	0
3	285485	51.91	0
3	286051	52.01	0
3	286608	52.11	0
3	287165	52.21	0
3	287722	52.31	0
3	288279	52.41	0
3	288836	52.51	0
3	289393	52.61	0
3	289950	52.71	0
3	290507	52.81	0
3	291064	52.91	0
3	291630	53.01	0
3	292187	53.11	0
3	292744	53.21	0
3	293301	53.31	0
3	293858	53.41	0
3	294415	53.51	0
3	294972	53.61	0
3	295529	53.71	0
3	296086	53.81	0
3	296643	53.91	0
3	297209	54.01	0
3	297766	54.11	0
3	298323	54.21	0
3	298880	54.31	0
3	299437	54.41	0
3	299994	54.51	0
3	300551	54.61	0
3	301108	54.71	0
3	301665	54.81	0
3	302222	54.91	0
3	302788	55.01	0
3	303345	55.11	0
3	303902	55.21	0
3	304459	55.31	0
3	305016	55.41	0
3	305573	55.51	0
3	306130	55.61	0
3	306687	55.71	0
3	307244	55.81	0
3	307801	55.91	0
3	308367	56.01	0
3	308924	56.11	0
3	309481	56.21	0
3	310038	56.31	0
3	310595	56.41	0
3	311152	56.51	0
3	311709	56.61	0
3	312266	56.71	0
3	312823	56.81	0
3	313380	56.91	0
3	313946	57.01	0
3	314503	57.11	0
3	315060	57.21	0
3	315617	57.31	0
3	316174	57.41	0
3	316731	57.51	0
3	317288	57.61	0
3	317845	57.71	0
3	318402	57.81	0
3	318959	57.91	0
3	319525	58.01	0
3	320082	58.11	0
3	320639	58.21	0
3	321196	58.31	0
3	321753	58.41	0
3	322310	58.51	0
3	322867	58.61	0
3	323424	58.71	0
3	323981	58.81	0
3	324538	58.91	0
3	325104	59.01	0
3	325661	59.11	0
3	326218	59.21	0
3	326775	59.31	0
3	327332	59.41	0
3	327889	59.51	0
3	328446	59.61	0
3	329003	59.71	0
3	329560	59.81	0
3	330117	59.91	0
3	330683	60.01	0
3	331240	60.11	0
3	331797	60.21	0
3	332354	60.31	0
3	332911	60.41	0
3	333468	60.51	0
3	334025	60.61	0
3	334582	60.71	0
3	335139	60.81	0
3	335696	60.91	0
3	336262	61.01	0
3	336819	61.11	0
3	337376	61.21	0
3	337933	61.31	0
3	338490	61.41	0
3	339047	61.51	0
3	339604	61.61	0
3	340161	61.71	0
3	340718	61.81	0
3	341275	61.91	0
3	341841	62.01	0
3	342398	62.11	0
3	342955	62.21	0
3	343512	62.31	0
3	344069	62.41	0
3	344626	62.51	0
3	345183	62.61	0
3	345740	62.71	0
3	346297	62.81	0
3	346854	62.91	0
3	347420	63.01	0
3	347977	63.11	0
3	348534	63.21	0
3	349091	63.31	0
3	349648	63.41	0
3	350205	63.51	0
3	350762	63.61	0
3	351319	63.71	0
3	351876	63.81	0
3	352433	63.91	0
3	352999	64.01	0
3	353556	64.11	0
3	354113	64.21	0
3	354670	64.31	0
[...]
115	408784	74	5
115	414363	75	5
115	419942	76	5
115	425521	77	5
115	431100	78	5
115	436679	79	5
115	442258	80	5
115	447837	81	5
115	453416	82	5
115	458995	83	5
115	464574	84	5
115	470153	85	5
115	475732	86	5
115	481311	87	5
115	486890	88	5
115	492469	89	5
115	498048	90	5
115	503627	91	5
115	509206	92	5
115	514785	93	5
115	520364	94	5
115	525943	95	5
115	531522	96	5
115	537101	97	5
115	542680	98	5
115	548259	99	5
115	553838	100	5
116	5130	2	0.022473
116	10709	3	0.02497
116	16288	4	0.02497
116	21867	5	0.02497
116	27446	6	0.02497
116	33025	7	0.02497
116	38604	8	0.02497
116	44183	9	0.02497
116	49764	10	0.02497
116	57307	11	0.027071560371
116	62886	12	0.02497
116	68465	13	0.02497
116	74044	14	0.02497
116	79623	15	0.02497
116	85202	16	0.02497
116	90781	17	0.02497
116	96360	18	0.02497
116	101939	19	0.02497
116	107518	20	0.02497
116	113097	21	0.02497
116	118676	22	0.02497
116	124255	23	0.02497
116	129834	24	0.02497
116	135413	25	0.02497
116	140992	26	0.02497
116	146571	27	0.02497
116	152150	28	0.02497
116	157729	29	0.02497
116	163308	30	0.02497
116	168887	31	0.02497
116	174466	32	0.02497
116	180045	33	0.02497
116	185624	34	0.02497
116	191203	35	0.02497
116	196782	36	0.02497
116	202361	37	0.02497
116	207940	38	0.02497
116	213519	39	0.02497
116	219098	40	0.02497
116	224677	41	0.02497
116	230256	42	0.02497
116	235835	43	0.02497
116	241414	44	0.02497
116	246993	45	0.02497
116	252572	46	0.02497
116	258151	47	0.02497
116	263730	48	0.02497
116	269309	49	0.02497
116	274888	50	0.02497
116	280467	51	0.02497
116	286046	52	0.02497
116	291625	53	0.02497
116	297204	54	0.02497
116	302783	55	0.02497
116	308362	56	0.02497
116	313941	57	0.02497
116	319520	58	0.02497
116	325099	59	0.02497
116	330678	60	0.02497
116	336257	61	0.02497
116	341836	62	0.02497
116	347415	63	0.02497
116	352994	64	0.02497
116	358573	65	0.02497
116	364152	66	0.02497
116	369731	67	0.02497
116	375310	68	0.02497
116	380889	69	0.02497
116	386468	70	0.02497
116	392047	71	0.02497
116	397626	72	0.02497
116	403205	73	0.02497
116	408784	74	0.02497
116	414363	75	0.02497
116	419942	76	0.02497
116	425521	77	0.02497
116	431100	78	0.02497
116	436679	79	0.02497
116	442258	80	0.02497
116	447837	81	0.02497
116	453416	82	0.02497
116	458995	83	0.02497
116	464574	84	0.02497
116	470153	85	0.02497
116	475732	86	0.02497
116	481311	87	0.02497
116	486890	88	0.02497
116	492469	89	0.02497
116	498048	90	0.02497
116	503627	91	0.02497
116	509206	92	0.02497
116	514785	93	0.02497
116	520364	94	0.02497
116	525943	95	0.02497
116	531522	96	0.02497
116	537101	97	0.02497
116	542680	98	0.02497
116	548259	99	0.02497
116	553838	100	0.02497
117	5130	2	0
117	10709	3	0
117	16288	4	0
117	21867	5	0
117	27446	6	0
117	33025	7	0
117	38604	8	0
117	44183	9	0
117	49764	10	0
117	57307	11	0
117	62886	12	0
117	68465	13	0
117	74044	14	0
117	79623	15	0
117	85202	16	0
117	90781	17	0
117	96360	18	0
117	101939	19	0
117	107518	20	0
117	113097	21	0
117	118676	22	0
117	124255	23	0
117	129834	24	0
117	135413	25	0
117	140992	26	0
117	146571	27	0
117	152150	28	0
117	157729	29	0
117	163308	30	0
117	168887	31	0
117	174466	32	0
117	180045	33	0
117	185624	34	0
117	191203	35	0
117	196782	36	0
117	202361	37	0
117	207940	38	0
117	213519	39	0
117	219098	40	0
117	224677	41	0
117	230256	42	0
117	235835	43	0
117	241414	44	0
117	246993	45	0
117	252572	46	0
117	258151	47	0
117	263730	48	0
117	269309	49	0
117	274888	50	0
117	280467	51	0
117	286046	52	0
117	291625	53	0
117	297204	54	0
117	302783	55	0
117	308362	56	0
117	313941	57	0
117	319520	58	0
117	325099	59	0
117	330678	60	0
117	336257	61	0
117	341836	62	0
117	347415	63	0
117	352994	64	0
117	358573	65	0
117	364152	66	0
117	369731	67	0
117	375310	68	0
117	380889	69	0
117	386468	70	0
117	392047	71	0
117	397626	72	0
117	403205	73	0
117	408784	74	0
117	414363	75	0
117	419942	76	0
117	425521	77	0
117	431100	78	0
117	436679	79	0
117	442258	80	0
117	447837	81	0
117	453416	82	0
117	458995	83	0
117	464574	84	0
117	470153	85	0
117	475732	86	0
117	481311	87	0
117	486890	88	0
117	492469	89	0
117	498048	90	0
117	503627	91	0
117	509206	92	0
117	514785	93	0
117	520364	94	0
117	525943	95	0
117	531522	96	0
117	537101	97	0
117	542680	98	0
117	548259	99	0
117	553838	100	0
118	5131	2	6
118	10710	3	6
118	16289	4	6
118	21868	5	6
118	27447	6	6
118	33026	7	6
118	38605	8	6
118	44184	9	6
118	49765	10	6
118	57308	11	6
118	62887	12	6
118	68466	13	6
118	74045	14	6
118	79624	15	6
118	85203	16	6
118	90782	17	6
118	96361	18	6
118	101940	19	6
118	107519	20	6
118	113098	21	6
118	118677	22	6
118	124256	23	6
118	129835	24	6
118	135414	25	6
118	140993	26	6
118	146572	27	6
118	152151	28	6
118	157730	29	6
118	163309	30	6
118	168888	31	6
118	174467	32	6
118	180046	33	6
118	185625	34	6
118	191204	35	6
118	196783	36	6
118	202362	37	6
118	207941	38	6
118	213520	39	6
118	219099	40	6
118	224678	41	6
118	230257	42	6
118	235836	43	6
118	241415	44	6
118	246994	45	6
118	252573	46	6
118	258152	47	6
118	263731	48	6
118	269310	49	6
118	274889	50	6
118	280468	51	6
118	286047	52	6
118	291626	53	6
118	297205	54	6
118	302784	55	6
118	308363	56	6
118	313942	57	6
118	319521	58	6
118	325100	59	6
118	330679	60	6
118	336258	61	6
118	341837	62	6
118	347416	63	6
118	352995	64	6
118	358574	65	6
118	364153	66	6
118	369732	67	6
118	375311	68	6
118	380890	69	6
118	386469	70	6
118	392048	71	6
118	397627	72	6
118	403206	73	6
118	408785	74	6
118	414364	75	6
118	419943	76	6
118	425522	77	6
118	431101	78	6
118	436680	79	6
118	442259	80	6
118	447838	81	6
118	453417	82	6
118	458996	83	6
118	464575	84	6
118	470154	85	6
118	475733	86	6
118	481312	87	6
118	486891	88	6
118	492470	89	6
118	498049	90	6
118	503628	91	6
118	509207	92	6
118	514786	93	6
118	520365	94	6
118	525944	95	6
118	531523	96	6
118	537102	97	6
118	542681	98	6
118	548260	99	6
118	553839	100	6
119	5131	2	0.022473
119	10710	3	0.02497
119	16289	4	0.02497
119	21868	5	0.02497
119	27447	6	0.02497
119	33026	7	0.02497
119	38605	8	0.02497
119	44184	9	0.02497
119	49765	10	0.02497
119	57308	11	0.027044600392
119	62887	12	0.02497
119	68466	13	0.02497
119	74045	14	0.02497
119	79624	15	0.02497
119	85203	16	0.02497
119	90782	17	0.02497
119	96361	18	0.02497
119	101940	19	0.02497
119	107519	20	0.02497
119	113098	21	0.02497
119	118677	22	0.02497
119	124256	23	0.02497
119	129835	24	0.02497
119	135414	25	0.02497
119	140993	26	0.02497
119	146572	27	0.02497
119	152151	28	0.02497
119	157730	29	0.02497
119	163309	30	0.02497
119	168888	31	0.02497
119	174467	32	0.02497
119	180046	33	0.02497
119	185625	34	0.02497
119	191204	35	0.02497
119	196783	36	0.02497
119	202362	37	0.02497
119	207941	38	0.02497
119	213520	39	0.02497
119	219099	40	0.02497
119	224678	41	0.02497
119	230257	42	0.02497
119	235836	43	0.02497
119	241415	44	0.02497
119	246994	45	0.02497
119	252573	46	0.02497
119	258152	47	0.02497
119	263731	48	0.02497
119	269310	49	0.02497
119	274889	50	0.02497
119	280468	51	0.02497
119	286047	52	0.02497
119	291626	53	0.02497
119	297205	54	0.02497
119	302784	55	0.02497
119	308363	56	0.02497
119	313942	57	0.02497
119	319521	58	0.02497
119	325100	59	0.02497
119	330679	60	0.02497
119	336258	61	0.02497
119	341837	62	0.02497
119	347416	63	0.02497
119	352995	64	0.02497
119	358574	65	0.02497
119	364153	66	0.02497
119	369732	67	0.02497
119	375311	68	0.02497
119	380890	69	0.02497
119	386469	70	0.02497
119	392048	71	0.02497
119	397627	72	0.02497
119	403206	73	0.02497
119	408785	74	0.02497
119	414364	75	0.02497
119	419943	76	0.02497
119	425522	77	0.02497
119	431101	78	0.02497
119	436680	79	0.02497
119	442259	80	0.02497
119	447838	81	0.02497
119	453417	82	0.02497
119	458996	83	0.02497
119	464575	84	0.02497
119	470154	85	0.02497
119	475733	86	0.02497
119	481312	87	0.02497
119	486891	88	0.02497
119	492470	89	0.02497
119	498049	90	0.02497
119	503628	91	0.02497
119	509207	92	0.02497
119	514786	93	0.02497
119	520365	94	0.02497
119	525944	95	0.02497
119	531523	96	0.02497
119	537102	97	0.02497
119	542681	98	0.02497
119	548260	99	0.02497
119	553839	100	0.02497
120	5131	2	0
120	10710	3	0
120	16289	4	0
120	21868	5	0
120	27447	6	0
120	33026	7	0
120	38605	8	0
120	44184	9	0
120	49765	10	0
120	57308	11	0
120	62887	12	0
120	68466	13	0
120	74045	14	0
120	79624	15	0
120	85203	16	0
120	90782	17	0
120	96361	18	0
120	101940	19	0
120	107519	20	0
120	113098	21	0
120	118677	22	0
120	124256	23	0
120	129835	24	0
120	135414	25	0
120	140993	26	0
120	146572	27	0
120	152151	28	0
120	157730	29	0
120	163309	30	0
120	168888	31	0
120	174467	32	0
120	180046	33	0
120	185625	34	0
120	191204	35	0
120	196783	36	0
120	202362	37	0
120	207941	38	0
120	213520	39	0
120	219099	40	0
120	224678	41	0
120	230257	42	0
120	235836	43	0
120	241415	44	0
120	246994	45	0
120	252573	46	0
120	258152	47	0
120	263731	48	0
120	269310	49	0
120	274889	50	0
120	280468	51	0
120	286047	52	0
120	291626	53	0
120	297205	54	0
120	302784	55	0
120	308363	56	0
120	313942	57	0
120	319521	58	0
120	325100	59	0
120	330679	60	0
120	336258	61	0
120	341837	62	0
120	347416	63	0
120	352995	64	0
120	358574	65	0
120	364153	66	0
120	369732	67	0
120	375311	68	0
120	380890	69	0
120	386469	70	0
120	392048	71	0
120	397627	72	0
120	403206	73	0
120	408785	74	0
120	414364	75	0
120	419943	76	0
120	425522	77	0
120	431101	78	0
120	436680	79	0
120	442259	80	0
120	447838	81	0
120	453417	82	0
120	458996	83	0
120	464575	84	0
120	470154	85	0
120	475733	86	0
120	481312	87	0
120	486891	88	0
120	492470	89	0
120	498049	90	0
120	503628	91	0
120	509207	92	0
120	514786	93	0
120	520365	94	0
120	525944	95	0
120	531523	96	0
120	537102	97	0
120	542681	98	0
120	548260	99	0
120	553839	100	0
121	5132	2	7
121	10711	3	7
121	16290	4	7
121	21869	5	7
121	27448	6	7
121	33027	7	7
121	38606	8	7
121	44185	9	7
121	49766	10	7
121	57309	11	7
121	62888	12	7
121	68467	13	7
121	74046	14	7
121	79625	15	7
121	85204	16	7
121	90783	17	7
121	96362	18	7
121	101941	19	7
121	107520	20	7
121	113099	21	7
121	118678	22	7
121	124257	23	7
121	129836	24	7
121	135415	25	7
121	140994	26	7
121	146573	27	7
121	152152	28	7
121	157731	29	7
121	163310	30	7
121	168889	31	7
121	174468	32	7
121	180047	33	7
121	185626	34	7
121	191205	35	7
121	196784	36	7
121	202363	37	7
121	207942	38	7
121	213521	39	7
121	219100	40	7
121	224679	41	7
121	230258	42	7
121	235837	43	7
121	241416	44	7
121	246995	45	7
121	252574	46	7
121	258153	47	7
121	263732	48	7
121	269311	49	7
121	274890	50	7
121	280469	51	7
121	286048	52	7
121	291627	53	7
121	297206	54	7
121	302785	55	7
121	308364	56	7
121	313943	57	7
121	319522	58	7
121	325101	59	7
121	330680	60	7
121	336259	61	7
121	341838	62	7
121	347417	63	7
121	352996	64	7
121	358575	65	7
121	364154	66	7
121	369733	67	7
121	375312	68	7
121	380891	69	7
121	386470	70	7
121	392049	71	7
121	397628	72	7
121	403207	73	7
121	408786	74	7
121	414365	75	7
121	419944	76	7
121	425523	77	7
121	431102	78	7
121	436681	79	7
121	442260	80	7
121	447839	81	7
121	453418	82	7
121	458997	83	7
121	464576	84	7
121	470155	85	7
121	475734	86	7
121	481313	87	7
121	486892	88	7
121	492471	89	7
121	498050	90	7
121	503629	91	7
121	509208	92	7
121	514787	93	7
121	520366	94	7
121	525945	95	7
121	531524	96	7
121	537103	97	7
121	542682	98	7
121	548261	99	7
121	553840	100	7
122	5132	2	0.022473
122	10711	3	0.02497
122	16290	4	0.02497
122	21869	5	0.02497
122	27448	6	0.02497
122	33027	7	0.02497
122	38606	8	0.02497
122	44185	9	0.02497
122	49766	10	0.02497
122	57309	11	0.026938360239
122	62888	12	0.02497
122	68467	13	0.02497
122	74046	14	0.02497
122	79625	15	0.02497
122	85204	16	0.02497
122	90783	17	0.02497
122	96362	18	0.02497
122	101941	19	0.02497
122	107520	20	0.02497
122	113099	21	0.02497
122	118678	22	0.02497
122	124257	23	0.02497
122	129836	24	0.02497
122	135415	25	0.02497
122	140994	26	0.02497
122	146573	27	0.02497
122	152152	28	0.02497
122	157731	29	0.02497
122	163310	30	0.02497
122	168889	31	0.02497
122	174468	32	0.02497
122	180047	33	0.02497
122	185626	34	0.02497
122	191205	35	0.02497
122	196784	36	0.02497
122	202363	37	0.02497
122	207942	38	0.02497
122	213521	39	0.02497
122	219100	40	0.02497
122	224679	41	0.02497
122	230258	42	0.02497
122	235837	43	0.02497
122	241416	44	0.02497
122	246995	45	0.02497
122	252574	46	0.02497
122	258153	47	0.02497
122	263732	48	0.02497
122	269311	49	0.02497
122	274890	50	0.02497
122	280469	51	0.02497
122	286048	52	0.02497
122	291627	53	0.02497
122	297206	54	0.02497
122	302785	55	0.02497
122	308364	56	0.02497
122	313943	57	0.02497
122	319522	58	0.02497
122	325101	59	0.02497
122	330680	60	0.02497
122	336259	61	0.02497
122	341838	62	0.02497
122	347417	63	0.02497
122	352996	64	0.02497
122	358575	65	0.02497
122	364154	66	0.02497
122	369733	67	0.02497
122	375312	68	0.02497
122	380891	69	0.02497
122	386470	70	0.02497
122	392049	71	0.02497
122	397628	72	0.02497
122	403207	73	0.02497
122	408786	74	0.02497
122	414365	75	0.02497
122	419944	76	0.02497
122	425523	77	0.02497
122	431102	78	0.02497
122	436681	79	0.02497
122	442260	80	0.02497
122	447839	81	0.02497
122	453418	82	0.02497
122	458997	83	0.02497
122	464576	84	0.02497
122	470155	85	0.02497
122	475734	86	0.02497
122	481313	87	0.02497
122	486892	88	0.02497
122	492471	89	0.02497
122	498050	90	0.02497
122	503629	91	0.02497
122	509208	92	0.02497
122	514787	93	0.02497
122	520366	94	0.02497
122	525945	95	0.02497
122	531524	96	0.02497
122	537103	97	0.02497
122	542682	98	0.02497
122	548261	99	0.02497
122	553840	100	0.02497
123	5132	2	0
123	10711	3	0
123	16290	4	0
123	21869	5	0
123	27448	6	0
123	33027	7	0
123	38606	8	0
123	44185	9	0
123	49766	10	0
123	57309	11	0
123	62888	12	0
123	68467	13	0
123	74046	14	0
123	79625	15	0
123	85204	16	0
123	90783	17	0
123	96362	18	0
123	101941	19	0
123	107520	20	0
123	113099	21	0
123	118678	22	0
123	124257	23	0
123	129836	24	0
123	135415	25	0
123	140994	26	0
123	146573	27	0
123	152152	28	0
123	157731	29	0
123	163310	30	0
123	168889	31	0
123	174468	32	0
123	180047	33	0
123	185626	34	0
123	191205	35	0
123	196784	36	0
123	202363	37	0
123	207942	38	0
123	213521	39	0
123	219100	40	0
123	224679	41	0
123	230258	42	0
123	235837	43	0
123	241416	44	0
123	246995	45	0
123	252574	46	0
123	258153	47	0
123	263732	48	0
123	269311	49	0
123	274890	50	0
123	280469	51	0
123	286048	52	0
123	291627	53	0
123	297206	54	0
123	302785	55	0
123	308364	56	0
123	313943	57	0
123	319522	58	0
123	325101	59	0
123	330680	60	0
123	336259	61	0
123	341838	62	0
123	347417	63	0
123	352996	64	0
123	358575	65	0
123	364154	66	0
123	369733	67	0
123	375312	68	0
123	380891	69	0
123	386470	70	0
123	392049	71	0
123	397628	72	0
123	403207	73	0
123	408786	74	0
123	414365	75	0
123	419944	76	0
123	425523	77	0
123	431102	78	0
123	436681	79	0
123	442260	80	0
123	447839	81	0
123	453418	82	0
123	458997	83	0
123	464576	84	0
123	470155	85	0
123	475734	86	0
123	481313	87	0
123	486892	88	0
123	492471	89	0
123	498050	90	0
123	503629	91	0
123	509208	92	0
123	514787	93	0
123	520366	94	0
123	525945	95	0
123	531524	96	0
123	537103	97	0
123	542682	98	0
123	548261	99	0
123	553840	100	0
124	5133	2	8
124	10712	3	8
124	16291	4	8
124	21870	5	8
124	27449	6	8
124	33028	7	8
124	38607	8	8
124	44186	9	8
124	49767	10	8
124	57310	11	8
124	62889	12	8
124	68468	13	8
124	74047	14	8
124	79626	15	8
124	85205	16	8
124	90784	17	8
124	96363	18	8
124	101942	19	8
124	107521	20	8
124	113100	21	8
124	118679	22	8
124	124258	23	8
124	129837	24	8
124	135416	25	8
124	140995	26	8
124	146574	27	8
124	152153	28	8
124	157732	29	8
124	163311	30	8
124	168890	31	8
124	174469	32	8
124	180048	33	8
124	185627	34	8
124	191206	35	8
124	196785	36	8
124	202364	37	8
124	207943	38	8
124	213522	39	8
124	219101	40	8
124	224680	41	8
124	230259	42	8
124	235838	43	8
124	241417	44	8
124	246996	45	8
124	252575	46	8
124	258154	47	8
124	263733	48	8
124	269312	49	8
124	274891	50	8
124	280470	51	8
124	286049	52	8
124	291628	53	8
124	297207	54	8
124	302786	55	8
124	308365	56	8
124	313944	57	8
124	319523	58	8
124	325102	59	8
124	330681	60	8
124	336260	61	8
124	341839	62	8
124	347418	63	8
124	352997	64	8
124	358576	65	8
124	364155	66	8
124	369734	67	8
124	375313	68	8
124	380892	69	8
124	386471	70	8
124	392050	71	8
124	397629	72	8
124	403208	73	8
124	408787	74	8
124	414366	75	8
124	419945	76	8
124	425524	77	8
124	431103	78	8
124	436682	79	8
124	442261	80	8
124	447840	81	8
124	453419	82	8
124	458998	83	8
124	464577	84	8
124	470156	85	8
124	475735	86	8
124	481314	87	8
124	486893	88	8
124	492472	89	8
124	498051	90	8
124	503630	91	8
124	509209	92	8
124	514788	93	8
124	520367	94	8
124	525946	95	8
124	531525	96	8
124	537104	97	8
124	542683	98	8
124	548262	99	8
124	553841	100	8
125	5133	2	0.002817
125	10712	3	0.00313
125	16291	4	0.00313
125	21870	5	0.00313
125	27449	6	0.00313
125	33028	7	0.00313
125	38607	8	0.00313
125	44186	9	0.00313
125	49767	10	0.00313
125	57310	11	0.003179
125	62889	12	0.00313
125	68468	13	0.00313
125	74047	14	0.00313
125	79626	15	0.00313
125	85205	16	0.00313
125	90784	17	0.00313
125	96363	18	0.00313
125	101942	19	0.00313
125	107521	20	0.00313
125	113100	21	0.00313
125	118679	22	0.00313
125	124258	23	0.00313
125	129837	24	0.00313
125	135416	25	0.00313
125	140995	26	0.00313
125	146574	27	0.00313
125	152153	28	0.00313
125	157732	29	0.00313
125	163311	30	0.00313
125	168890	31	0.00313
125	174469	32	0.00313
125	180048	33	0.00313
125	185627	34	0.00313
125	191206	35	0.00313
125	196785	36	0.00313
125	202364	37	0.00313
125	207943	38	0.00313
125	213522	39	0.00313
125	219101	40	0.00313
125	224680	41	0.00313
125	230259	42	0.00313
125	235838	43	0.00313
125	241417	44	0.00313
125	246996	45	0.00313
125	252575	46	0.00313
125	258154	47	0.00313
125	263733	48	0.00313
125	269312	49	0.00313
125	274891	50	0.00313
125	280470	51	0.00313
125	286049	52	0.00313
125	291628	53	0.00313
125	297207	54	0.00313
125	302786	55	0.00313
125	308365	56	0.00313
125	313944	57	0.00313
125	319523	58	0.00313
125	325102	59	0.00313
125	330681	60	0.00313
125	336260	61	0.00313
125	341839	62	0.00313
125	347418	63	0.00313
125	352997	64	0.00313
125	358576	65	0.00313
125	364155	66	0.00313
125	369734	67	0.00313
125	375313	68	0.00313
125	380892	69	0.00313
125	386471	70	0.00313
125	392050	71	0.00313
125	397629	72	0.00313
125	403208	73	0.00313
125	408787	74	0.00313
125	414366	75	0.00313
125	419945	76	0.00313
125	425524	77	0.00313
125	431103	78	0.00313
125	436682	79	0.00313
125	442261	80	0.00313
125	447840	81	0.00313
125	453419	82	0.00313
125	458998	83	0.00313
125	464577	84	0.00313
125	470156	85	0.00313
125	475735	86	0.00313
125	481314	87	0.00313
125	486893	88	0.00313
125	492472	89	0.00313
125	498051	90	0.00313
125	503630	91	0.00313
125	509209	92	0.00313
125	514788	93	0.00313
125	520367	94	0.00313
125	525946	95	0.00313
125	531525	96	0.00313
125	537104	97	0.00313
125	542683	98	0.00313
125	548262	99	0.00313
125	553841	100	0.00313
126	5133	2	0
126	10712	3	0
126	16291	4	0
126	21870	5	0
126	27449	6	0
126	33028	7	0
126	38607	8	0
126	44186	9	0
126	49767	10	0
126	57310	11	0
126	62889	12	0
126	68468	13	0
126	74047	14	0
126	79626	15	0
126	85205	16	0
126	90784	17	0
126	96363	18	0
126	101942	19	0
126	107521	20	0
126	113100	21	0
126	118679	22	0
126	124258	23	0
126	129837	24	0
126	135416	25	0
126	140995	26	0
126	146574	27	0
126	152153	28	0
126	157732	29	0
126	163311	30	0
126	168890	31	0
126	174469	32	0
126	180048	33	0
126	185627	34	0
126	191206	35	0
126	196785	36	0
126	202364	37	0
126	207943	38	0
126	213522	39	0
126	219101	40	0
126	224680	41	0
126	230259	42	0
126	235838	43	0
126	241417	44	0
126	246996	45	0
126	252575	46	0
126	258154	47	0
126	263733	48	0
126	269312	49	0
126	274891	50	0
126	280470	51	0
126	286049	52	0
126	291628	53	0
126	297207	54	0
126	302786	55	0
126	308365	56	0
126	313944	57	0
126	319523	58	0
126	325102	59	0
126	330681	60	0
126	336260	61	0
126	341839	62	0
126	347418	63	0
126	352997	64	0
126	358576	65	0
126	364155	66	0
126	369734	67	0
126	375313	68	0
126	380892	69	0
126	386471	70	0
126	392050	71	0
126	397629	72	0
126	403208	73	0
126	408787	74	0
126	414366	75	0
126	419945	76	0
126	425524	77	0
126	431103	78	0
126	436682	79	0
126	442261	80	0
126	447840	81	0
126	453419	82	0
126	458998	83	0
126	464577	84	0
126	470156	85	0
126	475735	86	0
126	481314	87	0
126	486893	88	0
126	492472	89	0
126	498051	90	0
126	503630	91	0
126	509209	92	0
126	514788	93	0
126	520367	94	0
126	525946	95	0
126	531525	96	0
126	537104	97	0
126	542683	98	0
126	548262	99	0
126	553841	100	0

