file 2440900 1720454282                                         
version 3
run BreakRanksNoGui-28-20240708-17:57:48-156407
attr configname BreakRanksNoGui
attr datetime 20240708-17:57:48
attr datetimef 20240708-175748
attr experiment BreakRanksNoGui
attr inifile omnetpp.ini
attr iterationvars "$nCars=8, $platoonSize=8, $nLanes=1, $ploegH=0.5, $controller=1, $headway=0.1, $leaderHeadway=1.2, $leaderSpeed=110, $breakRanksSafetyDistance=3, $minSpeed=100, $maxSpeed=120, $beaconInterval=0.1, $priority=4, $packetSize=200, $sController=\"CACC\", $0=2, $1=0"
attr iterationvarsd nCars=8/platoonSize=8/nLanes=1/ploegH=0.5/controller=1/headway=0.1/leaderHeadway=1.2/leaderSpeed=110/breakRanksSafetyDistance=3/minSpeed=100/maxSpeed=120/beaconInterval=0.1/priority=4/packetSize=200/sController=CACC/2/0
attr iterationvarsf nCars=8,platoonSize=8,nLanes=1,ploegH=0.5,controller=1,headway=0.1,leaderHeadway=1.2,leaderSpeed=110,breakRanksSafetyDistance=3,minSpeed=100,maxSpeed=120,beaconInterval=0.1,priority=4,packetSize=200,sController=CACC,2,0-
attr measurement "$nCars=8, $platoonSize=8, $nLanes=1, $ploegH=0.5, $controller=1, $headway=0.1, $leaderHeadway=1.2, $leaderSpeed=110, $breakRanksSafetyDistance=3, $minSpeed=100, $maxSpeed=120, $beaconInterval=0.1, $priority=4, $packetSize=200, $sController=\"CACC\", $0=2, $1=0"
attr network Highway
attr processid 156407
attr repetition 8
attr replication #8
attr resultdir results
attr runnumber 28
attr seedset 8
itervar beaconInterval 0.1
itervar breakRanksSafetyDistance 3
itervar controller 1
itervar headway 0.1
itervar leaderHeadway 1.2
itervar leaderSpeed 110
itervar maxSpeed 120
itervar minSpeed 100
itervar nCars 8
itervar nLanes 1
itervar packetSize 200
itervar platoonSize 8
itervar ploegH 0.5
itervar priority 4
itervar sController "\"CACC\""
config image-path ../../../veins/images
config repeat 10
config extends BreakRanks
config *.manager.command "\"sumo\""
config *.manager.ignoreGuiCommands true
config output-vector-file results/BreakRanks_1_0.1_110_3/result_8.vec
config output-scalar-file results/BreakRanks_1_0.1_110_3/result_8.sca
config extends Platooning
config *.node[*].scenario_type "\"BreakRanksScenario\""
config *.manager.command "\"sumo-gui\""
config *.node[*].scenario_type "\"SimpleScenario\""
config cmdenv-express-mode true
config cmdenv-autoflush true
config cmdenv-status-frequency 15s
config num-rngs 6
config network Highway
config debug-on-errors true
config print-undisposed true
config *.playgroundSizeX 65000m
config *.playgroundSizeY 25000m
config *.playgroundSizeZ 50m
config sim-time-limit "100 s"
config *.annotations.draw false
config *.obstacles.debug false
config *.world.useTorus false
config *.world.use2D false
config *.manager.updateInterval 0.01s
config *.manager.host "\"localhost\""
config *.manager.moduleType "\"org.car2x.plexe.PlatoonCar\""
config *.manager.moduleName "\"node\""
config *.manager.moduleDisplayString "\"\""
config *.manager.autoShutdown true
config *.manager.margin 25
config *.connectionManager.sendDirect true
config *.connectionManager.maxInterfDist 2600m
config *.connectionManager.drawMaxIntfDist false
config *.**.nic.mac1609_4.useServiceChannel false
config *.**.nic.mac1609_4.txPower 100mW
config *.**.nic.mac1609_4.bitrate 6Mbps
config *.**.nic.mac1609_4.useAcks true
config *.**.nic.mac1609_4.ackErrorRate 0.0
config *.**.nic.mac1609_4.frameErrorRate 0.0
config *.**.nic.phy80211p.minPowerLevel -94dBm
config *.**.nic.phy80211p.maxTXPower 100mW
config *.**.nic.phy80211p.useNoiseFloor true
config *.**.nic.phy80211p.noiseFloor -95dBm
config *.**.nic.phy80211p.decider "xmldoc(\"config.xml\")"
config *.**.nic.phy80211p.analogueModels "xmldoc(\"config.xml\")"
config *.**.nic.phy80211p.usePropagationDelay true
config *.node[*].mobility.x 0
config *.node[*].mobility.y 0
config *.node[*].mobility.z 1.895
config seed-set 8
config **.seed 8
config *.node[*].prot.rng-0 2
config *.node[*].appl.rng-0 3
config *.node[*].scenario.rng-0 4
config **.traffic.rng-0 5
config *.manager.configFile "\"./sumocfg/freeway.sumo.cfg\""
config *.manager.launchConfig "xmldoc(\"./sumocfg/freeway.launchd.xml\")"
config **.numberOfCars 8
config **.numberOfCarsPerPlatoon 8
config **.numberOfLanes 1
config *.node[*].helper_type "\"PositionHelper\""
config *.node[*].scenario.caccC1 0.5
config *.node[*].scenario.caccXi 1
config *.node[*].scenario.caccOmegaN "0.2 Hz"
config *.node[*].scenario.caccSpacing "2 m"
config *.node[*].scenario.engineTau "0.5 s"
config *.node[*].scenario.ploegH 0.5s
config *.node[*].scenario.ploegKp 0.2
config *.node[*].scenario.ploegKd 0.7
config *.node[*].scenario.useRealisticEngine false
config *.node[*].scenario.useControllerAcceleration true
config *.node[*].scenario.nLanes 1
config **.numericController 1
config **.headway 0.1s
config *.node[*].scenario.accHeadway 0.1s
config *.node[*].scenario.leaderHeadway 1.2s
config *.node[*].scenario.leaderSpeed 110kmph
config *.node[*].appl_type "\"SimplePlatooningApp\""
config *.node[*].appl.*.scalar-recording true
config *.node[*].appl.*.vector-recording true
config *.node[0].appl.breakRanksSafetyDistance 3m
config *.node[*].appl.minSpeed 100kmph
config *.node[*].appl.maxSpeed 120kmph
config *.node[*].protocol_type "\"SimplePlatooningBeaconing\""
config *.node[*].prot.*.scalar-recording true
config *.node[*].prot.*.vector-recording true
config *.node[*].prot.beaconingInterval 0.1s
config *.node[*].prot.priority 4
config *.node[*].prot.packetSize 200
config **.traffic_type "\"PlatoonsTrafficManager\""
config **.traffic.platoonInsertTime "1 s"
config **.traffic.platoonInsertSpeed 110kmph
config **.traffic.nCars 8
config **.traffic.platoonSize 8
config **.traffic.nLanes 1
config **.traffic.platooningVType "\"vtypeauto\""
config **.traffic.controller "\"CACC\""
config **.traffic.platoonInsertDistance 2m
config **.traffic.platoonInsertHeadway 0s
config **.traffic.platoonLeaderHeadway 1.2s
config **.scalar-recording false
config **.vector-recording false
config output-vector-file results/BreakRanksNoGui_1_0.1_110_3/result_8.vec
config output-scalar-file results/BreakRanksNoGui_1_0.1_110_3/result_8.sca

vector 0 Highway.node[0].appl distance ETV
vector 1 Highway.node[0].appl relativeSpeed ETV
vector 2 Highway.node[0].appl nodeId ETV
vector 3 Highway.node[0].appl acceleration ETV
vector 4 Highway.node[0].appl controllerAcceleration ETV
vector 5 Highway.node[0].appl speed ETV
vector 6 Highway.node[0].appl posx ETV
vector 7 Highway.node[0].appl posy ETV
vector 8 Highway.node[1].appl distance ETV
vector 9 Highway.node[1].appl relativeSpeed ETV
vector 10 Highway.node[1].appl nodeId ETV
vector 11 Highway.node[1].appl acceleration ETV
vector 12 Highway.node[1].appl controllerAcceleration ETV
vector 13 Highway.node[1].appl speed ETV
vector 14 Highway.node[1].appl posx ETV
vector 15 Highway.node[1].appl posy ETV
vector 16 Highway.node[2].appl distance ETV
vector 17 Highway.node[2].appl relativeSpeed ETV
vector 18 Highway.node[2].appl nodeId ETV
vector 19 Highway.node[2].appl acceleration ETV
vector 20 Highway.node[2].appl controllerAcceleration ETV
vector 21 Highway.node[2].appl speed ETV
vector 22 Highway.node[2].appl posx ETV
vector 23 Highway.node[2].appl posy ETV
vector 24 Highway.node[3].appl distance ETV
vector 25 Highway.node[3].appl relativeSpeed ETV
vector 26 Highway.node[3].appl nodeId ETV
vector 27 Highway.node[3].appl acceleration ETV
vector 28 Highway.node[3].appl controllerAcceleration ETV
vector 29 Highway.node[3].appl speed ETV
vector 30 Highway.node[3].appl posx ETV
vector 31 Highway.node[3].appl posy ETV
vector 32 Highway.node[4].appl distance ETV
vector 33 Highway.node[4].appl relativeSpeed ETV
vector 34 Highway.node[4].appl nodeId ETV
vector 35 Highway.node[4].appl acceleration ETV
vector 36 Highway.node[4].appl controllerAcceleration ETV
vector 37 Highway.node[4].appl speed ETV
vector 38 Highway.node[4].appl posx ETV
vector 39 Highway.node[4].appl posy ETV
vector 40 Highway.node[5].appl distance ETV
vector 41 Highway.node[5].appl relativeSpeed ETV
vector 42 Highway.node[5].appl nodeId ETV
vector 43 Highway.node[5].appl acceleration ETV
vector 44 Highway.node[5].appl controllerAcceleration ETV
vector 45 Highway.node[5].appl speed ETV
vector 46 Highway.node[5].appl posx ETV
vector 47 Highway.node[5].appl posy ETV
vector 48 Highway.node[6].appl distance ETV
vector 49 Highway.node[6].appl relativeSpeed ETV
vector 50 Highway.node[6].appl nodeId ETV
vector 51 Highway.node[6].appl acceleration ETV
vector 52 Highway.node[6].appl controllerAcceleration ETV
vector 53 Highway.node[6].appl speed ETV
vector 54 Highway.node[6].appl posx ETV
vector 55 Highway.node[6].appl posy ETV
vector 56 Highway.node[7].appl distance ETV
vector 57 Highway.node[7].appl relativeSpeed ETV
vector 58 Highway.node[7].appl nodeId ETV
vector 59 Highway.node[7].appl acceleration ETV
vector 60 Highway.node[7].appl controllerAcceleration ETV
vector 61 Highway.node[7].appl speed ETV
vector 62 Highway.node[7].appl posx ETV
vector 63 Highway.node[7].appl posy ETV
vector 64 Highway.node[4].prot frontDelay ETV
vector 65 Highway.node[4].prot frontDelayId ETV
vector 66 Highway.node[2].prot frontDelay ETV
vector 67 Highway.node[2].prot frontDelayId ETV
vector 68 Highway.node[3].prot frontDelay ETV
vector 69 Highway.node[3].prot frontDelayId ETV
vector 70 Highway.node[5].prot frontDelay ETV
vector 71 Highway.node[5].prot frontDelayId ETV
vector 72 Highway.node[7].prot frontDelay ETV
vector 73 Highway.node[7].prot frontDelayId ETV
vector 74 Highway.node[1].prot leaderDelay ETV
vector 75 Highway.node[1].prot leaderDelayId ETV
vector 76 Highway.node[1].prot frontDelay ETV
vector 77 Highway.node[1].prot frontDelayId ETV
vector 78 Highway.node[2].prot leaderDelay ETV
vector 79 Highway.node[2].prot leaderDelayId ETV
vector 80 Highway.node[3].prot leaderDelay ETV
vector 81 Highway.node[3].prot leaderDelayId ETV
vector 82 Highway.node[4].prot leaderDelay ETV
vector 83 Highway.node[4].prot leaderDelayId ETV
vector 84 Highway.node[5].prot leaderDelay ETV
vector 85 Highway.node[5].prot leaderDelayId ETV
vector 86 Highway.node[6].prot leaderDelay ETV
vector 87 Highway.node[6].prot leaderDelayId ETV
vector 88 Highway.node[7].prot leaderDelay ETV
vector 89 Highway.node[7].prot leaderDelayId ETV
vector 90 Highway.node[6].prot frontDelay ETV
vector 91 Highway.node[6].prot frontDelayId ETV
vector 92 Highway.node[0].prot nodeId ETV
vector 93 Highway.node[0].prot busyTime ETV
vector 94 Highway.node[0].prot collisions ETV
vector 95 Highway.node[1].prot nodeId ETV
vector 96 Highway.node[1].prot busyTime ETV
vector 97 Highway.node[1].prot collisions ETV
vector 98 Highway.node[2].prot nodeId ETV
vector 99 Highway.node[2].prot busyTime ETV
vector 100 Highway.node[2].prot collisions ETV
vector 101 Highway.node[3].prot nodeId ETV
vector 102 Highway.node[3].prot busyTime ETV
vector 103 Highway.node[3].prot collisions ETV
vector 104 Highway.node[4].prot nodeId ETV
vector 105 Highway.node[4].prot busyTime ETV
vector 106 Highway.node[4].prot collisions ETV
vector 107 Highway.node[5].prot nodeId ETV
vector 108 Highway.node[5].prot busyTime ETV
vector 109 Highway.node[5].prot collisions ETV
vector 110 Highway.node[6].prot nodeId ETV
vector 111 Highway.node[6].prot busyTime ETV
vector 112 Highway.node[6].prot collisions ETV
vector 113 Highway.node[7].prot nodeId ETV
vector 114 Highway.node[7].prot busyTime ETV
vector 115 Highway.node[7].prot collisions ETV
0	11335 17510 113 543894 1.11 99.91 989 -1 -1 -989 989
1	28845 16521 113 543894 1.11 99.91 989 0 0 0 0
2	45366 16521 113 543894 1.11 99.91 989 0 0 0 0
3	61887 19109 113 543894 1.11 99.91 989 -0.00283113 0.000125957 -0.043966303784312 9.6812896349407e-05
4	80996 26489 113 543894 1.11 99.91 989 -0.00437036 0.00019576 -0.042459310034081 0.00013890441444735
5	107485 22451 113 543894 1.11 99.91 989 30.5554 30.56 30219.5304 923377.16656332
6	129936 22349 113 543894 1.11 99.91 989 65.6804 3084.58 1557804.5716 3206389031.5438
7	152285 21466 113 543894 1.11 99.91 989 242.45 242.45 239783.05 58135400.472499
8	173751 21250 114 543895 1.11 99.91 989 -1 121.888 23809.53435 2127063.1563676
9	195001 22278 114 543895 1.11 99.91 989 -0.0004354 2.5556 656.53834269263 1652.8932114098
10	217279 17510 114 543895 1.11 99.91 989 1 1 989 989
11	234789 25467 114 543895 1.11 99.91 989 -1.35985 0.0607485 -25.562049419741 27.101320904845
12	260256 27040 114 543895 1.11 99.91 989 -1.5 0.0944214 -24.754208013168 33.852248233184
13	287296 21544 114 543895 1.11 99.91 989 27.9056 30.56 29019.3729 853055.44864235
14	308840 23386 114 543895 1.11 99.91 989 59.6804 2958.69 1523356.1416 3042595138.865
15	332226 22455 114 543895 1.11 99.91 989 242.45 245.75 240525.55 58497888.9725
16	354681 23342 115 543896 1.11 99.91 989 1.99977 85.0879 20791.88141 936877.83486852
17	378023 23747 115 543896 1.11 99.91 989 -8.70308e-05 3.66031 1015.7729973039 2881.3751517139
18	401770 17510 115 543896 1.11 99.91 989 2 2 1978 3956
19	419280 27030 115 543896 1.11 99.91 989 -1.55245 0.0673794 -35.555437864848 46.261631224359
20	446310 27022 115 543896 1.11 99.91 989 -2.36876 0.104679 -34.471207584411 57.983631567297
21	473332 21840 115 543896 1.11 99.91 989 26.8953 30.56 28547.22 827009.04260576
22	495172 23379 115 543896 1.11 99.91 989 53.6804 2905.52 1505964.7122 2967955486.7151
23	518551 22455 115 543896 1.11 99.91 989 242.45 242.45 239783.05 58135400.472499
24	541006 22968 116 543897 1.11 99.91 989 -1 60.9036 13992.13673 513956.67816524
25	563974 24680 116 543897 1.11 99.91 989 -2.08946 5.23188 208.51274671236 909.56378433729
26	588654 17510 116 543897 1.11 99.91 989 3 3 2967 8901
27	606164 25798 116 543897 1.11 99.91 989 -2.33595 1.48393 14.385266220819 186.75405919066
28	631962 25699 116 543897 1.11 99.91 989 -2.96569 1.5 14.63715093282 222.87320394889
29	657661 23343 116 543897 1.11 99.91 989 24.4035 32.0861 28929.5925 850732.34255919
30	681004 23328 116 543897 1.11 99.91 989 47.6804 2937.51 1493892.2444 2925801030.5701
31	704332 22455 116 543897 1.11 99.91 989 242.45 249.05 241010.65 58738656.9725
32	726787 22370 117 543898 1.11 99.91 989 -1 74.1846 10520.0886 509066.53163351
33	749157 23791 117 543898 1.11 99.91 989 -2.10354 3.15596 195.25911687404 739.79093037133
34	772948 17510 117 543898 1.11 99.91 989 4 4 3956 15824
35	790458 26118 117 543898 1.11 99.91 989 -2.58183 1.49499 4.4559652539464 245.90458930738
36	816576 26039 117 543898 1.11 99.91 989 -2.96856 1.5 6.1038005660734 276.70045413995
37	842615 22590 117 543898 1.11 99.91 989 22.133 31.1035 29025.1619 858293.11077651
38	865205 23369 117 543898 1.11 99.91 989 41.6804 2941.12 1485521.8854 2901174618.3837
39	888574 22455 117 543898 1.11 99.91 989 242.45 252.35 242261.35 59359724.8925
40	911029 21170 118 543899 1.11 99.91 989 -1 20.3686 1219.85632 7577.8719351348
41	932199 22334 118 543899 1.11 99.91 989 -2.4759e-05 8.44524 150.30032371121 995.27609356892
42	954533 17510 118 543899 1.11 99.91 989 5 5 4945 24725
43	972043 25842 118 543899 1.11 99.91 989 -2.63571 1.5 24.464541672533 390.5363502566
44	997885 26101 118 543899 1.11 99.91 989 -2.96807 1.5 26.063488720002 428.72197457111
45	1023986 22130 118 543899 1.11 99.91 989 20.5513 33.1037 30353.206 938396.04793272
46	1046116 23367 118 543899 1.11 99.91 989 35.6804 3067.82 1511204.1936 3045394748.7496
47	1069483 22455 118 543899 1.11 99.91 989 242.45 252.35 242693.65 59570991.552501
48	1091938 21216 119 543900 1.11 99.91 989 -1 38.934 2778.78337 62497.352073848
49	1113154 21895 119 543900 1.11 99.91 989 -0.000469608 3 213.31081587193 612.26353016669
50	1135049 17510 119 543900 1.11 99.91 989 6 6 5934 35604
51	1152559 25191 119 543900 1.11 99.91 989 -0.988117 0.0440223 -15.562088448519 11.951504347608
52	1177750 26819 119 543900 1.11 99.91 989 -1.5 0.0683511 -14.757764168569 16.647924782612
53	1204569 21511 119 543900 1.11 99.91 989 28.9316 30.56 29432.0438 876392.57952854
54	1226080 23360 119 543900 1.11 99.91 989 29.6804 2969.91 1500756.1278 2992151858.8724
55	1249440 22455 119 543900 1.11 99.91 989 242.45 249.05 242713.44999999 59574951.552502
56	1271895 22849 120 543901 1.11 99.91 989 -1 50.9822 17195.40721 625991.69275547
57	1294744 24200 120 543901 1.11 99.91 989 -1.23579 1.00456 181.81522765984 221.04419050028
58	1318944 17510 120 543901 1.11 99.91 989 7 7 6923 48461
59	1336454 26458 120 543901 1.11 99.91 989 -1.02142 1.4788 14.44383390675 69.048532753969
60	1362912 26375 120 543901 1.11 99.91 989 -1.12825 1.5 15.871119754809 80.779834505444
61	1389287 22708 120 543901 1.11 99.91 989 27.8365 32.1025 29922.8845 907111.45947637
62	1411995 23354 120 543901 1.11 99.91 989 23.6804 3012.84 1495658.3678 2983573274.9987
63	1435349 22455 120 543901 1.11 99.91 989 242.45 245.75 241360.45 58905487.1525
64	1457804 39985 768 543997 1.218681580402 99.918679876416 988 0.099987480317 0.100008782348 98.799998776347 9.879999765747
65	1497789 27251 768 543997 1.218681580402 99.918679876416 988 4 4 3952 15808
66	1525040 40000 835 544082 1.22410962043 99.924108111408 988 0.099987480318 0.100008776819 98.799998971311 9.8799998044403
67	1565040 27276 835 544082 1.22410962043 99.924108111408 988 2 2 1976 3952
68	1592316 39982 902 544131 1.233905640444 99.933904220844 988 0.099987480317 0.100008834665 98.799999060733 9.8799998226376
69	1632298 27244 902 544131 1.233905640444 99.933904220844 988 3 3 2964 8892
70	1659542 39990 968 544227 1.236616680472 99.936615658444 988 0.099987480317 0.100008834668 98.799999458305 9.8799999021516
71	1699532 27263 968 544227 1.236616680472 99.936615658444 988 5 5 4940 24700
72	1726795 39985 1036 544283 1.2505597205 99.950558477067 988 0.099987480318 0.100008768585 98.7999992369 9.8799998575689
73	1766780 27265 1036 544283 1.2505597205 99.950558477067 988 7 7 6916 48412
74	1794045 40010 1097 544350 1.260290840583 99.960290136615 988 0.099987480317 0.100008834681 98.799999776365 9.8799999657643
75	1834055 27282 1097 544350 1.260290840583 99.960290136615 988 1 1 988 988
76	1861337 40010 1097 544350 1.260290840583 99.960290136615 988 0.099987480317 0.100008834681 98.799999776365 9.8799999657643
77	1901347 27282 1097 544350 1.260290840583 99.960290136615 988 1 1 988 988
78	1928629 40010 1103 544368 1.260290860597 99.960290314123 988 0.099987480317 0.100008834682 98.799999933859 9.8799999972631
79	1968639 27268 1103 544368 1.260290860597 99.960290314123 988 2 2 1976 3952
80	1995907 39979 1109 544362 1.26029088061 99.960290207085 988 0.099987480317 0.100008834683 98.799999806807 9.8799999718527
81	2035886 27260 1109 544362 1.26029088061 99.960290207085 988 3 3 2964 8892
82	2063146 40016 1115 544356 1.260290900624 99.960290195865 988 0.099987480317 0.100008834685 98.799999775574 9.8799999656061
83	2103162 27273 1115 544356 1.260290900624 99.960290195865 988 4 4 3952 15808
84	2130435 39997 1121 544332 1.260290920638 99.960289772833 988 0.099987480317 0.100008834687 98.799999332528 9.8799998769969
85	2170432 27268 1121 544332 1.260290920638 99.960289772833 988 5 5 4940 24700
86	2197700 39990 1127 544344 1.260290940652 99.96029009919 988 0.099987480317 0.10000883469 98.799999638871 9.8799999382655
87	2237690 27256 1127 544344 1.260290940652 99.96029009919 988 6 6 5928 35568
88	2264946 39998 1133 544338 1.260290960666 99.960289955573 988 0.099987480317 0.100008834695 98.79999947524 9.8799999055393
89	2304944 27259 1133 544338 1.260290960666 99.960289955573 988 7 7 6916 48412
90	2332203 39972 1170 544411 1.271698940652 99.97169810038 988 0.099987480317 0.100008786142 98.799999640061 9.8799999384846
91	2372175 27253 1170 544411 1.271698940652 99.97169810038 988 6 6 5928 35568
92	2399428 1459 5026 544439 2 100 99 0 0 0 0
93	2400887 2068 5026 544439 2 100 99 0.022473 0.026130303388 2.471606303388 0.061713137821149
94	2402955 1459 5026 544439 2 100 99 0 0 0 0
95	2404414 1459 5027 544440 2 100 99 1 1 99 99
96	2405873 2068 5027 544440 2 100 99 0.022473 0.025898 2.471214046036 0.06169302261439
97	2407941 1459 5027 544440 2 100 99 0 0 0 0
98	2409400 1459 5028 544441 2 100 99 2 2 198 396
99	2410859 2068 5028 544441 2 100 99 0.022473 0.025898 2.471214092388 0.061693024942658
100	2412927 1558 5028 544441 2 100 99 0 0 0 0
101	2414485 1558 5029 544442 2 100 99 3 3 297 891
102	2416043 2167 5029 544442 2 100 99 0.022473 0.025898 2.471214138866 0.061693027277258
103	2418210 1558 5029 544442 2 100 99 0 0 0 0
104	2419768 1558 5030 544443 2 100 99 4 4 396 1584
105	2421326 2166 5030 544443 2 100 99 0.022473 0.025898 2.47121418539 0.061693029614174
106	2423492 1558 5030 544443 2 100 99 0 0 0 0
107	2425050 1558 5031 544444 2 100 99 5 5 495 2475
108	2426608 2167 5031 544444 2 100 99 0.022473 0.025898 2.471214231948 0.061693031952802
109	2428775 1558 5031 544444 2 100 99 0 0 0 0
110	2430333 1558 5032 544445 2 100 99 6 6 594 3564
111	2431891 2167 5032 544445 2 100 99 0.022473 0.025898 2.471214278524 0.061693034292338
112	2434058 1558 5032 544445 2 100 99 0 0 0 0
113	2435616 1558 5033 544446 2 100 99 7 7 693 4851
114	2437174 2167 5033 544446 2 100 99 0.022473 0.025931325106 2.471214325106 0.061693091018753
115	2439341 1558 5033 544446 2 100 99 0 0 0 0

