file 3728673 1720621663                                         
version 3
run BreakRanksNoGui-1531-20240710-16:27:30-265373
attr configname BreakRanksNoGui
attr datetime 20240710-16:27:30
attr datetimef 20240710-162730
attr experiment BreakRanksNoGui
attr inifile omnetpp.ini
attr iterationvars "$nCars=12, $platoonSize=6, $nLanes=1, $ploegH=0.5, $controller=1, $headway=0.1, $leaderHeadway=1.2, $leaderSpeed=110, $breakRanksSafetyDistance=3, $minSpeed=100, $maxSpeed=120, $beaconInterval=0.1, $priority=4, $packetSize=200, $sController=\"CACC\", $0=2, $1=0"
attr iterationvarsd nCars=12/platoonSize=6/nLanes=1/ploegH=0.5/controller=1/headway=0.1/leaderHeadway=1.2/leaderSpeed=110/breakRanksSafetyDistance=3/minSpeed=100/maxSpeed=120/beaconInterval=0.1/priority=4/packetSize=200/sController=CACC/2/0
attr iterationvarsf nCars=12,platoonSize=6,nLanes=1,ploegH=0.5,controller=1,headway=0.1,leaderHeadway=1.2,leaderSpeed=110,breakRanksSafetyDistance=3,minSpeed=100,maxSpeed=120,beaconInterval=0.1,priority=4,packetSize=200,sController=CACC,2,0-
attr measurement "$nCars=12, $platoonSize=6, $nLanes=1, $ploegH=0.5, $controller=1, $headway=0.1, $leaderHeadway=1.2, $leaderSpeed=110, $breakRanksSafetyDistance=3, $minSpeed=100, $maxSpeed=120, $beaconInterval=0.1, $priority=4, $packetSize=200, $sController=\"CACC\", $0=2, $1=0"
attr network Highway
attr processid 265373
attr repetition 1
attr replication #1
attr resultdir results
attr runnumber 1531
attr seedset 1
itervar beaconInterval 0.1
itervar breakRanksSafetyDistance 3
itervar controller 1
itervar headway 0.1
itervar leaderHeadway 1.2
itervar leaderSpeed 110
itervar maxSpeed 120
itervar minSpeed 100
itervar nCars 12
itervar nLanes 1
itervar packetSize 200
itervar platoonSize 6
itervar ploegH 0.5
itervar priority 4
itervar sController "\"CACC\""
config image-path ../../../veins/images
config repeat 10
config extends BreakRanks
config *.manager.command "\"sumo\""
config *.manager.ignoreGuiCommands true
config output-vector-file "results/BreakRanks_1_0.1_110_3_6 /result_1.vec"
config output-scalar-file "results/BreakRanks_1_0.1_110_3_6 /result_1.sca"
config extends Platooning
config *.node[*].scenario_type "\"BreakRanksScenario\""
config *.manager.command "\"sumo-gui\""
config *.node[*].scenario_type "\"SimpleScenario\""
config cmdenv-express-mode true
config cmdenv-autoflush true
config cmdenv-status-frequency 15s
config num-rngs 6
config network Highway
config debug-on-errors true
config print-undisposed true
config *.playgroundSizeX 65000m
config *.playgroundSizeY 25000m
config *.playgroundSizeZ 50m
config sim-time-limit "100 s"
config *.annotations.draw false
config *.obstacles.debug false
config *.world.useTorus false
config *.world.use2D false
config *.manager.updateInterval 0.01s
config *.manager.host "\"localhost\""
config *.manager.moduleType "\"org.car2x.plexe.PlatoonCar\""
config *.manager.moduleName "\"node\""
config *.manager.moduleDisplayString "\"\""
config *.manager.autoShutdown true
config *.manager.margin 25
config *.connectionManager.sendDirect true
config *.connectionManager.maxInterfDist 2600m
config *.connectionManager.drawMaxIntfDist false
config *.**.nic.mac1609_4.useServiceChannel false
config *.**.nic.mac1609_4.txPower 100mW
config *.**.nic.mac1609_4.bitrate 6Mbps
config *.**.nic.mac1609_4.useAcks true
config *.**.nic.mac1609_4.ackErrorRate 0.0
config *.**.nic.mac1609_4.frameErrorRate 0.0
config *.**.nic.phy80211p.minPowerLevel -94dBm
config *.**.nic.phy80211p.maxTXPower 100mW
config *.**.nic.phy80211p.useNoiseFloor true
config *.**.nic.phy80211p.noiseFloor -95dBm
config *.**.nic.phy80211p.decider "xmldoc(\"config.xml\")"
config *.**.nic.phy80211p.analogueModels "xmldoc(\"config.xml\")"
config *.**.nic.phy80211p.usePropagationDelay true
config *.node[*].mobility.x 0
config *.node[*].mobility.y 0
config *.node[*].mobility.z 1.895
config seed-set 1
config **.seed 1
config *.node[*].prot.rng-0 2
config *.node[*].appl.rng-0 3
config *.node[*].scenario.rng-0 4
config **.traffic.rng-0 5
config *.manager.configFile "\"./sumocfg/freeway.sumo.cfg\""
config *.manager.launchConfig "xmldoc(\"./sumocfg/freeway.launchd.xml\")"
config **.numberOfCars 12
config **.numberOfCarsPerPlatoon 6
config **.numberOfLanes 1
config *.node[*].helper_type "\"PositionHelper\""
config *.node[*].scenario.caccC1 0.5
config *.node[*].scenario.caccXi 1
config *.node[*].scenario.caccOmegaN "0.2 Hz"
config *.node[*].scenario.caccSpacing "2 m"
config *.node[*].scenario.engineTau "0.5 s"
config *.node[*].scenario.ploegH 0.5s
config *.node[*].scenario.ploegKp 0.2
config *.node[*].scenario.ploegKd 0.7
config *.node[*].scenario.useRealisticEngine false
config *.node[*].scenario.useControllerAcceleration true
config *.node[*].scenario.nLanes 1
config **.numericController 1
config **.headway 0.1s
config *.node[*].scenario.accHeadway 0.1s
config *.node[*].scenario.leaderHeadway 1.2s
config *.node[*].scenario.leaderSpeed 110kmph
config *.node[*].appl_type "\"SimplePlatooningApp\""
config *.node[*].appl.*.scalar-recording true
config *.node[*].appl.*.vector-recording true
config *.node[0].appl.breakRanksSafetyDistance 3m
config *.node[*].appl.minSpeed 100kmph
config *.node[*].appl.maxSpeed 120kmph
config *.node[*].protocol_type "\"SimplePlatooningBeaconing\""
config *.node[*].prot.*.scalar-recording true
config *.node[*].prot.*.vector-recording true
config *.node[*].prot.beaconingInterval 0.1s
config *.node[*].prot.priority 4
config *.node[*].prot.packetSize 200
config **.traffic_type "\"PlatoonsTrafficManager\""
config **.traffic.platoonInsertTime "1 s"
config **.traffic.platoonInsertSpeed 110kmph
config **.traffic.nCars 12
config **.traffic.platoonSize 6
config **.traffic.nLanes 1
config **.traffic.platooningVType "\"vtypeauto\""
config **.traffic.controller "\"CACC\""
config **.traffic.platoonInsertDistance 2m
config **.traffic.platoonInsertHeadway 0s
config **.traffic.platoonLeaderHeadway 1.2s
config **.scalar-recording false
config **.vector-recording false

vector 0 Highway.node[0].appl distance ETV
vector 1 Highway.node[0].appl relativeSpeed ETV
vector 2 Highway.node[0].appl nodeId ETV
vector 3 Highway.node[0].appl acceleration ETV
vector 4 Highway.node[0].appl controllerAcceleration ETV
vector 5 Highway.node[0].appl speed ETV
vector 6 Highway.node[0].appl posx ETV
vector 7 Highway.node[0].appl posy ETV
vector 8 Highway.node[1].appl distance ETV
vector 9 Highway.node[1].appl relativeSpeed ETV
vector 10 Highway.node[1].appl nodeId ETV
vector 11 Highway.node[1].appl acceleration ETV
vector 12 Highway.node[1].appl controllerAcceleration ETV
vector 13 Highway.node[1].appl speed ETV
vector 14 Highway.node[1].appl posx ETV
vector 15 Highway.node[1].appl posy ETV
vector 16 Highway.node[2].appl distance ETV
vector 17 Highway.node[2].appl relativeSpeed ETV
vector 18 Highway.node[2].appl nodeId ETV
vector 19 Highway.node[2].appl acceleration ETV
vector 20 Highway.node[2].appl controllerAcceleration ETV
vector 21 Highway.node[2].appl speed ETV
vector 22 Highway.node[2].appl posx ETV
vector 23 Highway.node[2].appl posy ETV
vector 24 Highway.node[3].appl distance ETV
vector 25 Highway.node[3].appl relativeSpeed ETV
vector 26 Highway.node[3].appl nodeId ETV
vector 27 Highway.node[3].appl acceleration ETV
vector 28 Highway.node[3].appl controllerAcceleration ETV
vector 29 Highway.node[3].appl speed ETV
vector 30 Highway.node[3].appl posx ETV
vector 31 Highway.node[3].appl posy ETV
vector 32 Highway.node[4].appl distance ETV
vector 33 Highway.node[4].appl relativeSpeed ETV
vector 34 Highway.node[4].appl nodeId ETV
vector 35 Highway.node[4].appl acceleration ETV
vector 36 Highway.node[4].appl controllerAcceleration ETV
vector 37 Highway.node[4].appl speed ETV
vector 38 Highway.node[4].appl posx ETV
vector 39 Highway.node[4].appl posy ETV
vector 40 Highway.node[5].appl distance ETV
vector 41 Highway.node[5].appl relativeSpeed ETV
vector 42 Highway.node[5].appl nodeId ETV
vector 43 Highway.node[5].appl acceleration ETV
vector 44 Highway.node[5].appl controllerAcceleration ETV
vector 45 Highway.node[5].appl speed ETV
vector 46 Highway.node[5].appl posx ETV
vector 47 Highway.node[5].appl posy ETV
vector 48 Highway.node[6].appl distance ETV
vector 49 Highway.node[6].appl relativeSpeed ETV
vector 50 Highway.node[6].appl nodeId ETV
vector 51 Highway.node[6].appl acceleration ETV
vector 52 Highway.node[6].appl controllerAcceleration ETV
vector 53 Highway.node[6].appl speed ETV
vector 54 Highway.node[6].appl posx ETV
vector 55 Highway.node[6].appl posy ETV
vector 56 Highway.node[7].appl distance ETV
vector 57 Highway.node[7].appl relativeSpeed ETV
vector 58 Highway.node[7].appl nodeId ETV
vector 59 Highway.node[7].appl acceleration ETV
vector 60 Highway.node[7].appl controllerAcceleration ETV
vector 61 Highway.node[7].appl speed ETV
vector 62 Highway.node[7].appl posx ETV
vector 63 Highway.node[7].appl posy ETV
vector 64 Highway.node[8].appl distance ETV
vector 65 Highway.node[8].appl relativeSpeed ETV
vector 66 Highway.node[8].appl nodeId ETV
vector 67 Highway.node[8].appl acceleration ETV
vector 68 Highway.node[8].appl controllerAcceleration ETV
vector 69 Highway.node[8].appl speed ETV
vector 70 Highway.node[8].appl posx ETV
vector 71 Highway.node[8].appl posy ETV
vector 72 Highway.node[9].appl distance ETV
vector 73 Highway.node[9].appl relativeSpeed ETV
vector 74 Highway.node[9].appl nodeId ETV
vector 75 Highway.node[9].appl acceleration ETV
vector 76 Highway.node[9].appl controllerAcceleration ETV
vector 77 Highway.node[9].appl speed ETV
vector 78 Highway.node[9].appl posx ETV
vector 79 Highway.node[9].appl posy ETV
vector 80 Highway.node[10].appl distance ETV
vector 81 Highway.node[10].appl relativeSpeed ETV
vector 82 Highway.node[10].appl nodeId ETV
vector 83 Highway.node[10].appl acceleration ETV
vector 84 Highway.node[10].appl controllerAcceleration ETV
vector 85 Highway.node[10].appl speed ETV
vector 86 Highway.node[10].appl posx ETV
vector 87 Highway.node[10].appl posy ETV
vector 88 Highway.node[11].appl distance ETV
vector 89 Highway.node[11].appl relativeSpeed ETV
vector 90 Highway.node[11].appl nodeId ETV
vector 91 Highway.node[11].appl acceleration ETV
vector 92 Highway.node[11].appl controllerAcceleration ETV
vector 93 Highway.node[11].appl speed ETV
vector 94 Highway.node[11].appl posx ETV
vector 95 Highway.node[11].appl posy ETV
vector 96 Highway.node[4].prot frontDelay ETV
vector 97 Highway.node[4].prot frontDelayId ETV
vector 98 Highway.node[11].prot frontDelay ETV
vector 99 Highway.node[11].prot frontDelayId ETV
vector 100 Highway.node[9].prot leaderDelay ETV
vector 101 Highway.node[9].prot leaderDelayId ETV
vector 102 Highway.node[9].prot frontDelay ETV
vector 103 Highway.node[9].prot frontDelayId ETV
vector 104 Highway.node[10].prot leaderDelay ETV
vector 105 Highway.node[10].prot leaderDelayId ETV
vector 106 Highway.node[11].prot leaderDelay ETV
vector 107 Highway.node[11].prot leaderDelayId ETV
vector 108 Highway.node[2].prot leaderDelay ETV
vector 109 Highway.node[2].prot leaderDelayId ETV
vector 110 Highway.node[3].prot leaderDelay ETV
vector 111 Highway.node[3].prot leaderDelayId ETV
vector 112 Highway.node[6].prot frontDelay ETV
vector 113 Highway.node[6].prot frontDelayId ETV
vector 114 Highway.node[10].prot frontDelay ETV
vector 115 Highway.node[10].prot frontDelayId ETV
vector 116 Highway.node[7].prot frontDelay ETV
vector 117 Highway.node[7].prot frontDelayId ETV
vector 118 Highway.node[2].prot frontDelay ETV
vector 119 Highway.node[2].prot frontDelayId ETV
vector 120 Highway.node[5].prot frontDelay ETV
vector 121 Highway.node[5].prot frontDelayId ETV
vector 122 Highway.node[1].prot leaderDelay ETV
vector 123 Highway.node[1].prot leaderDelayId ETV
vector 124 Highway.node[1].prot frontDelay ETV
vector 125 Highway.node[1].prot frontDelayId ETV
vector 126 Highway.node[4].prot leaderDelay ETV
vector 127 Highway.node[4].prot leaderDelayId ETV
vector 128 Highway.node[5].prot leaderDelay ETV
vector 129 Highway.node[5].prot leaderDelayId ETV
vector 130 Highway.node[6].prot leaderDelay ETV
vector 131 Highway.node[6].prot leaderDelayId ETV
vector 132 Highway.node[7].prot leaderDelay ETV
vector 133 Highway.node[7].prot leaderDelayId ETV
vector 134 Highway.node[3].prot frontDelay ETV
vector 135 Highway.node[3].prot frontDelayId ETV
vector 136 Highway.node[0].prot nodeId ETV
vector 137 Highway.node[0].prot busyTime ETV
vector 138 Highway.node[0].prot collisions ETV
vector 139 Highway.node[1].prot nodeId ETV
vector 140 Highway.node[1].prot busyTime ETV
vector 141 Highway.node[1].prot collisions ETV
vector 142 Highway.node[2].prot nodeId ETV
vector 143 Highway.node[2].prot busyTime ETV
vector 144 Highway.node[2].prot collisions ETV
vector 145 Highway.node[3].prot nodeId ETV
vector 146 Highway.node[3].prot busyTime ETV
vector 147 Highway.node[3].prot collisions ETV
vector 148 Highway.node[4].prot nodeId ETV
vector 149 Highway.node[4].prot busyTime ETV
vector 150 Highway.node[4].prot collisions ETV
vector 151 Highway.node[5].prot nodeId ETV
vector 152 Highway.node[5].prot busyTime ETV
vector 153 Highway.node[5].prot collisions ETV
vector 154 Highway.node[6].prot nodeId ETV
vector 155 Highway.node[6].prot busyTime ETV
vector 156 Highway.node[6].prot collisions ETV
vector 157 Highway.node[7].prot nodeId ETV
vector 158 Highway.node[7].prot busyTime ETV
vector 159 Highway.node[7].prot collisions ETV
vector 160 Highway.node[8].prot nodeId ETV
vector 161 Highway.node[8].prot busyTime ETV
vector 162 Highway.node[8].prot collisions ETV
vector 163 Highway.node[9].prot nodeId ETV
vector 164 Highway.node[9].prot busyTime ETV
vector 165 Highway.node[9].prot collisions ETV
vector 166 Highway.node[10].prot nodeId ETV
vector 167 Highway.node[10].prot busyTime ETV
vector 168 Highway.node[10].prot collisions ETV
vector 169 Highway.node[11].prot nodeId ETV
vector 170 Highway.node[11].prot busyTime ETV
vector 171 Highway.node[11].prot collisions ETV
0	13838 17778 113 1190299 1.11 99.91 989 -1 -1 -989 989
1	31616 16789 113 1190299 1.11 99.91 989 0 0 0 0
2	48405 16789 113 1190299 1.11 99.91 989 0 0 0 0
3	65194 19377 113 1190299 1.11 99.91 989 -0.00283113 0.000125957 -0.043966303784312 9.6812896349407e-05
4	84571 26757 113 1190299 1.11 99.91 989 -0.00437036 0.00019576 -0.042459310034081 0.00013890441444735
5	111328 22719 113 1190299 1.11 99.91 989 30.5554 30.56 30219.5304 923377.16656332
6	134047 22642 113 1190299 1.11 99.91 989 111.02 3129.92 1602645.821 3349683833.9994
7	156689 21734 113 1190299 1.11 99.91 989 242.45 242.45 239783.05 58135400.472499
8	178423 22207 114 1190300 1.11 99.91 989 1.99891 3 2777.41899 7916.3550390813
9	200630 26038 114 1190300 1.11 99.91 989 -0.000537994 0.0796792 9.999980750679 0.52736836775646
10	226668 17778 114 1190300 1.11 99.91 989 1 1 989 989
11	244446 27349 114 1190300 1.11 99.91 989 -0.0302753 0.00643866 -0.0433495786731 0.021150540229898
12	271795 27373 114 1190300 1.11 99.91 989 -0.0398603 0.00649154 -0.0260129590111 0.024730265576305
13	299168 23653 114 1190300 1.11 99.91 989 30.4759 30.56 30209.5315 922766.64922667
14	322821 23639 114 1190300 1.11 99.91 989 105.02 3122.92 1595912.463 3327459411.0493
15	346460 22723 114 1190300 1.11 99.91 989 242.45 242.45 239783.05 58135400.472499
16	369183 23617 115 1190301 1.11 99.91 989 1.98996 65.5195 22574.53682 901975.2210143
17	392800 23828 115 1190301 1.11 99.91 989 -0.00331504 1.04398 445.96146585097 368.35971889886
18	416628 18767 115 1190301 1.11 99.91 989 10 10 9890 98900
19	435395 26155 115 1190301 1.11 99.91 989 -0.990673 0.17679 -15.56302340946 33.299031249844
20	461550 26275 115 1190301 1.11 99.91 989 -1.5 0.177322 -14.676306011083 40.511856968364
21	487825 22505 115 1190301 1.11 99.91 989 27.4192 30.56 29148.0678 859870.77108732
22	510330 23638 115 1190301 1.11 99.91 989 16.3604 2928.19 1456976.9056 2852504289.7276
23	533968 22723 115 1190301 1.11 99.91 989 242.45 242.45 239783.05 58135400.472499
24	556691 23622 116 1190302 1.11 99.91 989 1.98968 61.3739 18928.96745 597933.22932512
25	580313 24279 116 1190302 1.11 99.91 989 -0.00242675 2.83471 615.94727492217 987.38101561519
26	604592 18767 116 1190302 1.11 99.91 989 11 11 10879 119669
27	623359 26159 116 1190302 1.11 99.91 989 -1.35591 0.183364 -25.561326366168 51.868497532868
28	649518 26111 116 1190302 1.11 99.91 989 -1.5 0.183972 -24.602787547914 61.072247625989
29	675629 22845 116 1190302 1.11 99.91 989 27.0165 30.56 28709.2747 834803.45270389
30	698474 23635 116 1190302 1.11 99.91 989 10.3604 2878.36 1437182.1929 2776366101.2157
31	722109 22723 116 1190302 1.11 99.91 989 242.45 245.75 240165.85 58322283.4325
32	744832 23593 117 1190303 1.11 99.91 989 1.99968 2.99998 2752.70306 7785.6413254386
33	768425 26952 117 1190303 1.11 99.91 989 -6.49554e-05 0.0629375 9.999768998804 0.42560433086147
34	795377 17778 117 1190303 1.11 99.91 989 2 2 1978 3956
35	813155 27305 117 1190303 1.11 99.91 989 -0.0470034 0.00995092 -0.043378850936001 0.05713599164321
36	840460 27308 117 1190303 1.11 99.91 989 -0.0598321 0.0100241 -0.026028670224999 0.065745241448444
37	867768 23646 117 1190303 1.11 99.91 989 30.4157 30.56 30199.5356 922157.13068862
38	891414 23620 117 1190303 1.11 99.91 989 99.0204 3115.92 1589203.6204 3305367541.9593
39	915034 22723 117 1190303 1.11 99.91 989 242.45 242.45 239783.05 58135400.472499
40	937757 23578 118 1190304 1.11 99.91 989 1.9996 2.99989 2727.29241 7652.5884426583
41	961335 26878 118 1190304 1.11 99.91 989 -0.000309847 0.0534259 9.99894344025 0.36511146398634
42	988213 17778 118 1190304 1.11 99.91 989 3 3 2967 8901
43	1005991 27179 118 1190304 1.11 99.91 989 -0.0564706 0.0119052 -0.043472346680001 0.091218964903916
44	1033170 27178 118 1190304 1.11 99.91 989 -0.0699858 0.0119534 -0.026126311827 0.10314167063308
45	1060348 23643 118 1190304 1.11 99.91 989 30.3683 30.56 30189.5371 921548.02312898
46	1083991 23603 118 1190304 1.11 99.91 989 93.0204 3108.92 1582520.5002 3283413458.3305
47	1107594 22723 118 1190304 1.11 99.91 989 242.45 242.45 239783.05 58135400.472499
48	1130317 23527 119 1190305 1.11 99.91 989 1.99974 2.99978 2702.55255 7523.2094962041
49	1153844 26794 119 1190305 1.11 99.91 989 -4.55618e-05 0.0466296 9.997758372901 0.3201587691486
50	1180638 17778 119 1190305 1.11 99.91 989 4 4 3956 15824
51	1198416 27115 119 1190305 1.11 99.91 989 -0.0614718 0.0128726 -0.04358288491 0.11819695954005
52	1225531 27145 119 1190305 1.11 99.91 989 -0.0747302 0.0129346 -0.026233660002 0.13117839706519
53	1252676 23629 119 1190305 1.11 99.91 989 30.3308 30.56 30179.5374 920939.24169405
54	1276305 23604 119 1190305 1.11 99.91 989 87.0204 3101.92 1575861.808 3261596799.0106
55	1299909 22723 119 1190305 1.11 99.91 989 242.45 242.45 239783.05 58135400.472499
56	1322632 23464 120 1190306 1.11 99.91 989 1.55327 2 1877.91317 3586.3423826007
57	1346096 26884 120 1190306 1.11 99.91 989 -0.0644688 0.0214535 -0.0029398491489971 0.28317044927182
58	1372980 17778 120 1190306 1.11 99.91 989 5 5 4945 24725
59	1390758 27177 120 1190306 1.11 99.91 989 -0.0357558 0.00986316 -0.044296879244 0.064490916521645
60	1417935 27194 120 1190306 1.11 99.91 989 -0.0381969 0.00989406 -0.044294069561001 0.068322252300463
61	1445129 23617 120 1190306 1.11 99.91 989 30.3625 30.56 30179.5389 920938.53351528
62	1468746 23608 120 1190306 1.11 99.91 989 81.0204 3095.92 1570027.8816 3242906843.8042
63	1492354 22723 120 1190306 1.11 99.91 989 242.45 242.45 239783.05 58135400.472499
64	1515077 23607 121 1190307 1.11 99.91 989 36.66 38.6665 37969.0873 1457888.8255619
65	1538684 26456 121 1190307 1.11 99.91 989 1.74837e-05 0.170784 20.0651777911 1.7333885695415
66	1565140 17778 121 1190307 1.11 99.91 989 6 6 5934 35604
67	1582918 26938 121 1190307 1.11 99.91 989 -0.109211 0.0186171 -0.043184683699998 0.20267857014409
68	1609856 26918 121 1190307 1.11 99.91 989 -0.16661 0.0208855 0.01424726842 0.2686118469496
69	1636774 23620 121 1190307 1.11 99.91 989 30.331 30.5586 30159.4702 919715.82292669
70	1660394 23603 121 1190307 1.11 99.91 989 40.3604 3053.25 1528102.8222 3110967727.6343
71	1683997 22723 121 1190307 1.11 99.91 989 242.45 242.45 239783.05 58135400.472499
72	1706720 22013 122 1190308 1.11 99.91 989 -1 14.9962 7153.68905 101392.28761081
73	1728733 23089 122 1190308 1.11 99.91 989 -0.0132686 1.03612 129.962436725 89.201372731348
74	1751822 17778 122 1190308 1.11 99.91 989 7 7 6923 48461
75	1769600 26634 122 1190308 1.11 99.91 989 -0.392941 0.288048 4.4221729350086 5.0259838554755
76	1796234 26651 122 1190308 1.11 99.91 989 -0.509656 0.447655 4.6745183177978 6.2122781470266
77	1822885 22416 122 1190308 1.11 99.91 989 29.3449 31.02 30170.1138 920562.27056572
78	1845301 23602 122 1190308 1.11 99.91 989 34.3604 3048.29 1514000.4065 3067086076.876
79	1868903 22723 122 1190308 1.11 99.91 989 242.45 245.75 240858.85 58660606.0325
80	1891626 23585 123 1190309 1.11 99.91 989 1.99073 51.5431 21020.01904 692799.7043948
81	1915211 25315 123 1190309 1.11 99.91 989 -0.00275046 0.819922 305.74617977192 168.9446615115
82	1940526 17778 123 1190309 1.11 99.91 989 8 8 7912 63296
83	1958304 26512 123 1190309 1.11 99.91 989 -0.612096 0.132963 -5.5705243627177 11.97878249931
84	1984816 26488 123 1190309 1.11 99.91 989 -0.770549 0.133613 -4.9924642672571 14.056756162853
85	2011304 22411 123 1190309 1.11 99.91 989 28.5455 30.56 29723.7633 893592.15426831
86	2033715 23642 123 1190309 1.11 99.91 989 28.3604 2997.71 1492995.5774 2985141082.7259
87	2057357 22723 123 1190309 1.11 99.91 989 242.45 242.45 239783.05 58135400.472499
88	2080080 23573 124 1190310 1.11 99.91 989 1.99712 38.9932 19102.51866 550079.62550188
89	2103653 25427 124 1190310 1.11 99.91 989 -0.00196765 0.690482 180.0545957117 76.051055215382
90	2129080 17778 124 1190310 1.11 99.91 989 9 9 8901 80109
91	2146858 25815 124 1190310 1.11 99.91 989 -0.732887 0.173253 4.224084072 17.416744372605
92	2172673 25823 124 1190310 1.11 99.91 989 -0.896435 0.205681 4.772649252 19.81783288427
93	2198496 23612 124 1190310 1.11 99.91 989 27.9203 30.9795 29860.173 902230.60304346
94	2222108 23597 124 1190310 1.11 99.91 989 22.3604 3005.3 1481134.4839 2952000213.5631
95	2245705 22723 124 1190310 1.11 99.91 989 242.45 245.75 240858.85 58660606.0325
96	2268428 40281 1369 1190357 1.21242518578 99.912419879016 988 0.099991165763 0.100006396555 98.799998859002 9.8799998115915
97	2308709 27550 1369 1190357 1.21242518578 99.912419879016 988 2 2 1976 3952
98	2336259 40252 1464 1190446 1.21290044149 99.912882300981 988 0.099901355321 0.100097272552 98.800038025257 9.8800093718718
99	2376511 27532 1464 1190446 1.21290044149 99.912882300981 988 9 9 8892 80028
100	2404043 41244 1558 1190546 1.234357481514 99.934365478457 988 0.099990596719 0.10000719369 98.800012162706 9.8800024724262
101	2445287 28521 1558 1190546 1.234357481514 99.934365478457 988 7 7 6916 48412
102	2473808 41244 1558 1190546 1.234357481514 99.934365478457 988 0.099990596719 0.10000719369 98.800012162706 9.8800024724262
103	2515052 28521 1558 1190546 1.234357481514 99.934365478457 988 7 7 6916 48412
104	2543573 41234 1564 1190570 1.234357501528 99.934365643955 988 0.099990595769 0.10000719369 98.800012308191 9.8800025015233
105	2584807 28529 1564 1190570 1.234357501528 99.934365643955 988 8 8 7904 63232
106	2613336 41270 1570 1190558 1.234357521542 99.934365618912 988 0.099990596089 0.10000719369 98.800012263134 9.8800024925119
107	2654606 28539 1570 1190558 1.234357521542 99.934365618912 988 9 9 8892 80028
108	2683145 41255 1576 1190600 1.234357541556 99.934365875948 988 0.099990595773 0.100007193689 98.800012500156 9.8800025399163
109	2724400 29504 1576 1190600 1.234357541556 99.934365875948 988 10 10 9880 98800
110	2753904 41257 1582 1190606 1.234357561569 99.93436604226 988 0.099990595969 0.10000719369 98.800012646454 9.8800025691759
111	2795161 29520 1582 1190606 1.234357561569 99.93436604226 988 11 11 10868 119548
112	2824681 41261 1761 1190749 1.248697857307 99.948693834923 988 0.099987942866 0.10000639863 98.800000143379 9.8800000685851
113	2865942 28523 1761 1190749 1.248697857307 99.948693834923 988 4 4 3952 15808
114	2894465 41270 1860 1190860 1.253138052976 99.953134183293 988 0.0999878064 0.100006398815 98.80000029608 9.880000099135
115	2935735 28545 1860 1190860 1.253138052976 99.953134183293 988 8 8 7904 63232
116	2964280 41273 1959 1190941 1.263870228631 99.963879213182 988 0.099991165763 0.100007193783 98.800000150314 9.8800000699508
117	3005553 28541 1959 1190941 1.263870228631 99.963879213182 988 5 5 4940 24700
118	3034094 41258 2052 1191058 1.271911444314 99.971907773467 988 0.099987318368 0.100006396319 98.800000494916 9.8800001388852
119	3075352 29521 2052 1191058 1.271911444314 99.971907773467 988 10 10 9880 98800
120	3104873 41278 2256 1191244 1.297366700025 99.997375907982 988 0.099990596972 0.100007193845 98.80000037372 9.8800001146885
121	3146151 28523 2256 1191244 1.297366700025 99.997375907982 988 3 3 2964 8892
122	3174674 41229 2348 1191336 1.297789740053 99.997785954681 988 0.099987657605 0.100006395518 98.800000380391 9.8800001159791
123	3215903 28510 2348 1191336 1.297789740053 99.997785954681 988 1 1 988 988
124	3244413 41229 2348 1191336 1.297789740053 99.997785954681 988 0.099987657605 0.100006395518 98.800000380391 9.8800001159791
125	3285642 28510 2348 1191336 1.297789740053 99.997785954681 988 1 1 988 988
126	3314152 41258 2354 1191342 1.297789760067 99.997785978031 988 0.099987657605 0.100006395518 98.800000383727 9.8800001166463
127	3355410 28514 2354 1191342 1.297789760067 99.997785978031 988 2 2 1976 3952
128	3383924 41273 2360 1191348 1.29778978008 99.99778600138 988 0.099987657607 0.100006395518 98.800000387062 9.8800001173133
129	3425197 28531 2360 1191348 1.29778978008 99.99778600138 988 3 3 2964 8892
130	3453728 41297 2366 1191354 1.297789800094 99.997786024729 988 0.099987657609 0.100006395518 98.800000390398 9.8800001179805
131	3495025 28541 2366 1191354 1.297789800094 99.997786024729 988 4 4 3952 15808
132	3523566 41267 2372 1191360 1.297789820108 99.997786044742 988 0.099987657611 0.100006395518 98.800000390397 9.8800001179803
133	3564833 28519 2372 1191360 1.297789820108 99.997786044742 988 5 5 4940 24700
134	3593352 41217 2447 1190237 1.307209055805 99.907199372336 987 0.099990595765 0.100006393835 98.699994482294 9.8699989362594
135	3634569 29484 2447 1190237 1.307209055805 99.907199372336 987 11 11 10857 119427
136	3664053 1585 10796 1191398 2 100 99 0 0 0 0
137	3665638 2196 10796 1191398 2 100 99 0.033393 0.038122 3.705238478617 0.13869166094955
138	3667834 1585 10796 1191398 2 100 99 0 0 0 0
139	3669419 1585 10797 1191399 2 100 99 1 1 99 99
140	3671004 2202 10797 1191399 2 100 99 0.033393 0.038122 3.705142484631 0.13868444662451
141	3673206 1585 10797 1191399 2 100 99 0 0 0 0
142	3674791 1684 10798 1191400 2 100 99 10 10 990 9900
143	3676475 2196 10798 1191400 2 100 99 0.033392 0.038154 3.705173505808 0.13868682234896
144	3678671 1585 10798 1191400 2 100 99 0 0 0 0
145	3680256 1684 10799 1191401 2 100 99 11 11 1089 11979
146	3681940 2196 10799 1191401 2 100 99 0.033393 0.038187632462 3.705174632462 0.13868693847805
147	3684136 1585 10799 1191401 2 100 99 0 0 0 0
148	3685721 1585 10800 1191402 2 100 99 2 2 198 396
149	3687306 2202 10800 1191402 2 100 99 0.033393 0.038122 3.705142490957 0.1386844471079
150	3689508 1585 10800 1191402 2 100 99 0 0 0 0
151	3691093 1585 10801 1191403 2 100 99 3 3 297 891
152	3692678 2202 10801 1191403 2 100 99 0.033393 0.038122 3.705142497407 0.13868444760062
153	3694880 1585 10801 1191403 2 100 99 0 0 0 0
154	3696465 1585 10802 1191404 2 100 99 4 4 396 1584
155	3698050 2201 10802 1191404 2 100 99 0.033393 0.038122 3.705142503907 0.13868444809711
156	3700251 1585 10802 1191404 2 100 99 0 0 0 0
157	3701836 1585 10803 1191405 2 100 99 5 5 495 2475
158	3703421 2196 10803 1191405 2 100 99 0.033393 0.038122 3.705109278491 0.13868195097479
159	3705617 1585 10803 1191405 2 100 99 0 0 0 0
160	3707202 1585 10804 1191406 2 100 99 6 6 594 3564
161	3708787 2202 10804 1191406 2 100 99 0.033393 0.038320898958 3.705436898961 0.13870682946717
162	3710989 1585 10804 1191406 2 100 99 0 0 0 0
163	3712574 1585 10805 1191407 2 100 99 7 7 693 4851
164	3714159 2196 10805 1191407 2 100 99 0.033393 0.038154 3.705174126092 0.13868686058287
165	3716355 1585 10805 1191407 2 100 99 0 0 0 0
166	3717940 1585 10806 1191408 2 100 99 8 8 792 6336
167	3719525 2196 10806 1191408 2 100 99 0.033393 0.038154 3.705174252588 0.13868687009416
168	3721721 1585 10806 1191408 2 100 99 0 0 0 0
169	3723306 1585 10807 1191409 2 100 99 9 9 891 8019
170	3724891 2196 10807 1191409 2 100 99 0.033393 0.038154 3.705174379186 0.13868687961314
171	3727087 1585 10807 1191409 2 100 99 0 0 0 0

