version 3
run BreakRanksNoGui-576-20240711-14:14:39-290404
attr configname BreakRanksNoGui
attr datetime 20240711-14:14:39
attr datetimef 20240711-141439
attr experiment BreakRanksNoGui
attr inifile omnetpp.ini
attr iterationvars "$nCars=9, $platoonSize=8, $nLanes=1, $ploegH=0.5, $controller=1, $headway=0.1, $leaderHeadway=1.2, $leaderSpeed=130, $breakRanksSafetyDistance=3, $minSpeed=120, $maxSpeed=140, $beaconInterval=0.1, $priority=4, $packetSize=200, $sController=\"CACC\", $0=2, $1=0"
attr iterationvarsd nCars=9/platoonSize=8/nLanes=1/ploegH=0.5/controller=1/headway=0.1/leaderHeadway=1.2/leaderSpeed=130/breakRanksSafetyDistance=3/minSpeed=120/maxSpeed=140/beaconInterval=0.1/priority=4/packetSize=200/sController=CACC/2/0
attr iterationvarsf nCars=9,platoonSize=8,nLanes=1,ploegH=0.5,controller=1,headway=0.1,leaderHeadway=1.2,leaderSpeed=130,breakRanksSafetyDistance=3,minSpeed=120,maxSpeed=140,beaconInterval=0.1,priority=4,packetSize=200,sController=CACC,2,0-
attr measurement "$nCars=9, $platoonSize=8, $nLanes=1, $ploegH=0.5, $controller=1, $headway=0.1, $leaderHeadway=1.2, $leaderSpeed=130, $breakRanksSafetyDistance=3, $minSpeed=120, $maxSpeed=140, $beaconInterval=0.1, $priority=4, $packetSize=200, $sController=\"CACC\", $0=2, $1=0"
attr network Highway
attr processid 290404
attr repetition 6
attr replication #6
attr resultdir results
attr runnumber 576
attr seedset 6
itervar beaconInterval 0.1
itervar breakRanksSafetyDistance 3
itervar controller 1
itervar headway 0.1
itervar leaderHeadway 1.2
itervar leaderSpeed 130
itervar maxSpeed 140
itervar minSpeed 120
itervar nCars 9
itervar nLanes 1
itervar packetSize 200
itervar platoonSize 8
itervar ploegH 0.5
itervar priority 4
itervar sController "\"CACC\""
config image-path ../../../veins/images
config repeat 10
config extends BreakRanks
config *.manager.command "\"sumo\""
config *.manager.ignoreGuiCommands true
config output-vector-file "results/BreakRanks_1_0.1_130_3_8 /result_6.vec"
config output-scalar-file "results/BreakRanks_1_0.1_130_3_8 /result_6.sca"
config extends Platooning
config *.node[*].scenario_type "\"BreakRanksScenario\""
config *.manager.command "\"sumo-gui\""
config *.node[*].scenario_type "\"SimpleScenario\""
config cmdenv-express-mode true
config cmdenv-autoflush true
config cmdenv-status-frequency 15s
config num-rngs 6
config network Highway
config debug-on-errors true
config print-undisposed true
config *.playgroundSizeX 65000m
config *.playgroundSizeY 25000m
config *.playgroundSizeZ 50m
config sim-time-limit "100 s"
config *.annotations.draw false
config *.obstacles.debug false
config *.world.useTorus false
config *.world.use2D false
config *.manager.updateInterval 0.01s
config *.manager.host "\"localhost\""
config *.manager.moduleType "\"org.car2x.plexe.PlatoonCar\""
config *.manager.moduleName "\"node\""
config *.manager.moduleDisplayString "\"\""
config *.manager.autoShutdown true
config *.manager.margin 25
config *.connectionManager.sendDirect true
config *.connectionManager.maxInterfDist 2600m
config *.connectionManager.drawMaxIntfDist false
config *.**.nic.mac1609_4.useServiceChannel false
config *.**.nic.mac1609_4.txPower 100mW
config *.**.nic.mac1609_4.bitrate 6Mbps
config *.**.nic.mac1609_4.useAcks true
config *.**.nic.mac1609_4.ackErrorRate 0.0
config *.**.nic.mac1609_4.frameErrorRate 0.0
config *.**.nic.phy80211p.minPowerLevel -94dBm
config *.**.nic.phy80211p.maxTXPower 100mW
config *.**.nic.phy80211p.useNoiseFloor true
config *.**.nic.phy80211p.noiseFloor -95dBm
config *.**.nic.phy80211p.decider "xmldoc(\"config.xml\")"
config *.**.nic.phy80211p.analogueModels "xmldoc(\"config.xml\")"
config *.**.nic.phy80211p.usePropagationDelay true
config *.node[*].mobility.x 0
config *.node[*].mobility.y 0
config *.node[*].mobility.z 1.895
config seed-set 6
config **.seed 6
config *.node[*].prot.rng-0 2
config *.node[*].appl.rng-0 3
config *.node[*].scenario.rng-0 4
config **.traffic.rng-0 5
config *.manager.configFile "\"./sumocfg/freeway.sumo.cfg\""
config *.manager.launchConfig "xmldoc(\"./sumocfg/freeway.launchd.xml\")"
config **.numberOfCars 9
config **.numberOfCarsPerPlatoon 8
config **.numberOfLanes 1
config *.node[*].helper_type "\"PositionHelper\""
config *.node[*].scenario.caccC1 0.5
config *.node[*].scenario.caccXi 1
config *.node[*].scenario.caccOmegaN "0.2 Hz"
config *.node[*].scenario.caccSpacing "2 m"
config *.node[*].scenario.engineTau "0.5 s"
config *.node[*].scenario.ploegH 0.5s
config *.node[*].scenario.ploegKp 0.2
config *.node[*].scenario.ploegKd 0.7
config *.node[*].scenario.useRealisticEngine false
config *.node[*].scenario.useControllerAcceleration true
config *.node[*].scenario.nLanes 1
config **.numericController 1
config **.headway 0.1s
config *.node[*].scenario.accHeadway 0.1s
config *.node[*].scenario.leaderHeadway 1.2s
config *.node[*].scenario.leaderSpeed 130kmph
config *.node[*].appl_type "\"SimplePlatooningApp\""
config *.node[*].appl.*.scalar-recording true
config *.node[*].appl.*.vector-recording true
config *.node[0].appl.breakRanksSafetyDistance 3m
config *.node[*].appl.minSpeed 120kmph
config *.node[*].appl.maxSpeed 140kmph
config *.node[*].protocol_type "\"SimplePlatooningBeaconing\""
config *.node[*].prot.*.scalar-recording true
config *.node[*].prot.*.vector-recording true
config *.node[*].prot.beaconingInterval 0.1s
config *.node[*].prot.priority 4
config *.node[*].prot.packetSize 200
config **.traffic_type "\"PlatoonsTrafficManager\""
config **.traffic.platoonInsertTime "1 s"
config **.traffic.platoonInsertSpeed 130kmph
config **.traffic.nCars 9
config **.traffic.platoonSize 8
config **.traffic.nLanes 1
config **.traffic.platooningVType "\"vtypeauto\""
config **.traffic.controller "\"CACC\""
config **.traffic.platoonInsertDistance 2m
config **.traffic.platoonInsertHeadway 0s
config **.traffic.platoonLeaderHeadway 1.2s
config **.scalar-recording false
config **.vector-recording false

vector 0 Highway.node[0].appl distance ETV
vector 1 Highway.node[0].appl relativeSpeed ETV
vector 2 Highway.node[0].appl nodeId ETV
vector 3 Highway.node[0].appl acceleration ETV
vector 4 Highway.node[0].appl controllerAcceleration ETV
vector 5 Highway.node[0].appl speed ETV
vector 6 Highway.node[0].appl posx ETV
vector 7 Highway.node[0].appl posy ETV
vector 8 Highway.node[1].appl distance ETV
vector 9 Highway.node[1].appl relativeSpeed ETV
vector 10 Highway.node[1].appl nodeId ETV
vector 11 Highway.node[1].appl acceleration ETV
vector 12 Highway.node[1].appl controllerAcceleration ETV
vector 13 Highway.node[1].appl speed ETV
vector 14 Highway.node[1].appl posx ETV
vector 15 Highway.node[1].appl posy ETV
vector 16 Highway.node[2].appl distance ETV
vector 17 Highway.node[2].appl relativeSpeed ETV
vector 18 Highway.node[2].appl nodeId ETV
vector 19 Highway.node[2].appl acceleration ETV
vector 20 Highway.node[2].appl controllerAcceleration ETV
vector 21 Highway.node[2].appl speed ETV
vector 22 Highway.node[2].appl posx ETV
vector 23 Highway.node[2].appl posy ETV
vector 24 Highway.node[3].appl distance ETV
vector 25 Highway.node[3].appl relativeSpeed ETV
vector 26 Highway.node[3].appl nodeId ETV
vector 27 Highway.node[3].appl acceleration ETV
vector 28 Highway.node[3].appl controllerAcceleration ETV
vector 29 Highway.node[3].appl speed ETV
vector 30 Highway.node[3].appl posx ETV
vector 31 Highway.node[3].appl posy ETV
vector 32 Highway.node[4].appl distance ETV
vector 33 Highway.node[4].appl relativeSpeed ETV
vector 34 Highway.node[4].appl nodeId ETV
vector 35 Highway.node[4].appl acceleration ETV
vector 36 Highway.node[4].appl controllerAcceleration ETV
vector 37 Highway.node[4].appl speed ETV
vector 38 Highway.node[4].appl posx ETV
vector 39 Highway.node[4].appl posy ETV
vector 40 Highway.node[5].appl distance ETV
vector 41 Highway.node[5].appl relativeSpeed ETV
vector 42 Highway.node[5].appl nodeId ETV
vector 43 Highway.node[5].appl acceleration ETV
vector 44 Highway.node[5].appl controllerAcceleration ETV
vector 45 Highway.node[5].appl speed ETV
vector 46 Highway.node[5].appl posx ETV
vector 47 Highway.node[5].appl posy ETV
vector 48 Highway.node[6].appl distance ETV
vector 49 Highway.node[6].appl relativeSpeed ETV
vector 50 Highway.node[6].appl nodeId ETV
vector 51 Highway.node[6].appl acceleration ETV
vector 52 Highway.node[6].appl controllerAcceleration ETV
vector 53 Highway.node[6].appl speed ETV
vector 54 Highway.node[6].appl posx ETV
vector 55 Highway.node[6].appl posy ETV
vector 56 Highway.node[7].appl distance ETV
vector 57 Highway.node[7].appl relativeSpeed ETV
vector 58 Highway.node[7].appl nodeId ETV
vector 59 Highway.node[7].appl acceleration ETV
vector 60 Highway.node[7].appl controllerAcceleration ETV
vector 61 Highway.node[7].appl speed ETV
vector 62 Highway.node[7].appl posx ETV
vector 63 Highway.node[7].appl posy ETV
vector 64 Highway.node[8].appl distance ETV
vector 65 Highway.node[8].appl relativeSpeed ETV
vector 66 Highway.node[8].appl nodeId ETV
vector 67 Highway.node[8].appl acceleration ETV
vector 68 Highway.node[8].appl controllerAcceleration ETV
vector 69 Highway.node[8].appl speed ETV
vector 70 Highway.node[8].appl posx ETV
vector 71 Highway.node[8].appl posy ETV
vector 72 Highway.node[1].prot leaderDelay ETV
vector 73 Highway.node[1].prot leaderDelayId ETV
vector 74 Highway.node[1].prot frontDelay ETV
vector 75 Highway.node[1].prot frontDelayId ETV
vector 76 Highway.node[2].prot leaderDelay ETV
vector 77 Highway.node[2].prot leaderDelayId ETV
vector 78 Highway.node[3].prot leaderDelay ETV
vector 79 Highway.node[3].prot leaderDelayId ETV
vector 80 Highway.node[4].prot leaderDelay ETV
vector 81 Highway.node[4].prot leaderDelayId ETV
vector 82 Highway.node[5].prot leaderDelay ETV
vector 83 Highway.node[5].prot leaderDelayId ETV
vector 84 Highway.node[6].prot leaderDelay ETV
vector 85 Highway.node[6].prot leaderDelayId ETV
vector 86 Highway.node[7].prot leaderDelay ETV
vector 87 Highway.node[7].prot leaderDelayId ETV
vector 88 Highway.node[7].prot frontDelay ETV
vector 89 Highway.node[7].prot frontDelayId ETV
vector 90 Highway.node[3].prot frontDelay ETV
vector 91 Highway.node[3].prot frontDelayId ETV
vector 92 Highway.node[6].prot frontDelay ETV
vector 93 Highway.node[6].prot frontDelayId ETV
vector 94 Highway.node[2].prot frontDelay ETV
vector 95 Highway.node[2].prot frontDelayId ETV
vector 96 Highway.node[4].prot frontDelay ETV
vector 97 Highway.node[4].prot frontDelayId ETV
vector 98 Highway.node[5].prot frontDelay ETV
vector 99 Highway.node[5].prot frontDelayId ETV
vector 100 Highway.node[0].prot nodeId ETV
vector 101 Highway.node[0].prot busyTime ETV
vector 102 Highway.node[0].prot collisions ETV
vector 103 Highway.node[1].prot nodeId ETV
vector 104 Highway.node[1].prot busyTime ETV
vector 105 Highway.node[1].prot collisions ETV
vector 106 Highway.node[2].prot nodeId ETV
vector 107 Highway.node[2].prot busyTime ETV
vector 108 Highway.node[2].prot collisions ETV
vector 109 Highway.node[3].prot nodeId ETV
vector 110 Highway.node[3].prot busyTime ETV
vector 111 Highway.node[3].prot collisions ETV
vector 112 Highway.node[4].prot nodeId ETV
vector 113 Highway.node[4].prot busyTime ETV
vector 114 Highway.node[4].prot collisions ETV
vector 115 Highway.node[5].prot nodeId ETV
vector 116 Highway.node[5].prot busyTime ETV
vector 117 Highway.node[5].prot collisions ETV
vector 118 Highway.node[6].prot nodeId ETV
vector 119 Highway.node[6].prot busyTime ETV
vector 120 Highway.node[6].prot collisions ETV
vector 121 Highway.node[7].prot nodeId ETV
vector 122 Highway.node[7].prot busyTime ETV
vector 123 Highway.node[7].prot collisions ETV
vector 124 Highway.node[8].prot nodeId ETV
vector 125 Highway.node[8].prot busyTime ETV
vector 126 Highway.node[8].prot collisions ETV
0	113	1.11	9305.17
0	670	1.21	9305.17
0	1227	1.31	9305.17
0	1784	1.41	9305.17
0	2341	1.51	9305.17
0	2898	1.61	9305.17
0	3455	1.71	9305.17
0	4012	1.81	9305.17
0	4569	1.91	9305.17
0	5135	2.01	9305.17
0	5692	2.11	-1
0	6249	2.21	-1
0	6806	2.31	-1
0	7363	2.41	-1
0	7920	2.51	-1
0	8477	2.61	-1
0	9034	2.71	-1
0	9591	2.81	-1
0	10148	2.91	-1
0	10714	3.01	-1
0	11271	3.11	-1
0	11828	3.21	-1
0	12385	3.31	-1
0	12942	3.41	-1
0	13499	3.51	-1
0	14056	3.61	-1
0	14613	3.71	-1
0	15170	3.81	-1
0	15727	3.91	-1
0	16293	4.01	-1
0	16850	4.11	-1
0	17407	4.21	-1
0	17964	4.31	-1
0	18521	4.41	-1
0	19078	4.51	-1
0	19635	4.61	-1
0	20192	4.71	-1
0	20749	4.81	-1
0	21306	4.91	-1
0	21872	5.01	-1
0	22429	5.11	-1
0	22986	5.21	-1
0	23543	5.31	-1
0	24100	5.41	-1
0	24657	5.51	-1
0	25214	5.61	-1
0	25771	5.71	-1
0	26328	5.81	-1
0	26885	5.91	-1
0	27451	6.01	-1
0	28008	6.11	-1
0	28565	6.21	-1
0	29122	6.31	-1
0	29679	6.41	-1
0	30236	6.51	-1
0	30793	6.61	-1
0	31350	6.71	-1
0	31907	6.81	-1
0	32464	6.91	-1
0	33030	7.01	-1
0	33587	7.11	-1
0	34144	7.21	-1
0	34701	7.31	-1
0	35258	7.41	-1
0	35815	7.51	-1
0	36372	7.61	-1
0	36929	7.71	-1
0	37486	7.81	-1
0	38043	7.91	-1
0	38609	8.01	-1
0	39166	8.11	-1
0	39723	8.21	-1
0	40280	8.31	-1
0	40837	8.41	-1
0	41394	8.51	-1
0	41951	8.61	-1
0	42508	8.71	-1
0	43065	8.81	-1
0	43622	8.91	-1
0	44188	9.01	-1
0	44745	9.11	-1
0	45302	9.21	-1
0	45859	9.31	-1
0	46416	9.41	-1
0	46973	9.51	-1
0	47530	9.61	-1
0	48087	9.71	-1
0	48644	9.81	-1
0	49201	9.91	-1
0	49852	10.01	-1
0	50416	10.11	-1
0	50980	10.21	-1
0	51544	10.31	-1
0	52108	10.41	-1
0	52672	10.51	-1
0	53236	10.61	-1
0	53800	10.71	-1
0	54364	10.81	-1
0	54928	10.91	-1
0	55501	11.01	-1
0	56065	11.11	-1
0	56629	11.21	-1
0	57193	11.31	-1
0	57757	11.41	-1
0	58321	11.51	-1
0	58885	11.61	-1
0	59449	11.71	-1
0	60013	11.81	-1
0	60577	11.91	-1
0	61150	12.01	-1
0	61714	12.11	-1
0	62278	12.21	-1
0	62842	12.31	-1
0	63406	12.41	-1
0	63970	12.51	-1
0	64534	12.61	-1
0	65098	12.71	-1
0	65662	12.81	-1
0	66226	12.91	-1
0	66799	13.01	-1
0	67363	13.11	-1
0	67927	13.21	-1
0	68491	13.31	-1
0	69055	13.41	-1
0	69619	13.51	-1
0	70183	13.61	-1
0	70747	13.71	-1
0	71311	13.81	-1
0	71875	13.91	-1
0	72448	14.01	-1
0	73012	14.11	-1
0	73576	14.21	-1
0	74140	14.31	-1
0	74704	14.41	-1
0	75268	14.51	-1
0	75832	14.61	-1
0	76396	14.71	-1
0	76960	14.81	-1
0	77524	14.91	-1
0	78097	15.01	-1
0	78661	15.11	-1
0	79225	15.21	-1
0	79789	15.31	-1
0	80353	15.41	-1
0	80917	15.51	-1
0	81481	15.61	-1
0	82045	15.71	-1
0	82609	15.81	-1
0	83173	15.91	-1
0	83746	16.01	-1
0	84310	16.11	-1
0	84874	16.21	-1
0	85438	16.31	-1
0	86002	16.41	-1
0	86566	16.51	-1
0	87130	16.61	-1
0	87694	16.71	-1
0	88258	16.81	-1
0	88822	16.91	-1
0	89395	17.01	-1
0	89959	17.11	-1
0	90523	17.21	-1
0	91087	17.31	-1
0	91651	17.41	-1
0	92215	17.51	-1
0	92779	17.61	-1
0	93343	17.71	-1
0	93907	17.81	-1
0	94471	17.91	-1
0	95044	18.01	-1
0	95608	18.11	-1
0	96172	18.21	-1
0	96736	18.31	-1
0	97300	18.41	-1
0	97864	18.51	-1
0	98428	18.61	-1
0	98992	18.71	-1
0	99556	18.81	-1
0	100120	18.91	-1
0	100693	19.01	-1
0	101257	19.11	-1
0	101821	19.21	-1
0	102385	19.31	-1
0	102949	19.41	-1
0	103513	19.51	-1
0	104077	19.61	-1
0	104641	19.71	-1
0	105205	19.81	-1
0	105769	19.91	-1
0	106342	20.01	-1
0	106906	20.11	-1
0	107470	20.21	-1
0	108034	20.31	-1
0	108598	20.41	-1
0	109162	20.51	-1
0	109726	20.61	-1
0	110290	20.71	-1
0	110854	20.81	-1
0	111418	20.91	-1
0	111991	21.01	-1
0	112555	21.11	-1
0	113119	21.21	-1
0	113683	21.31	-1
0	114247	21.41	-1
0	114811	21.51	-1
0	115375	21.61	-1
0	115939	21.71	-1
0	116503	21.81	-1
0	117067	21.91	-1
0	117640	22.01	-1
0	118204	22.11	-1
0	118768	22.21	-1
0	119332	22.31	-1
0	119896	22.41	-1
0	120460	22.51	-1
0	121024	22.61	-1
0	121588	22.71	-1
0	122152	22.81	-1
0	122716	22.91	-1
0	123289	23.01	-1
0	123853	23.11	-1
0	124417	23.21	-1
0	124981	23.31	-1
0	125545	23.41	-1
0	126109	23.51	-1
0	126673	23.61	-1
0	127237	23.71	-1
0	127801	23.81	-1
0	128365	23.91	-1
0	128938	24.01	-1
0	129502	24.11	-1
0	130066	24.21	-1
0	130630	24.31	-1
0	131194	24.41	-1
0	131758	24.51	-1
0	132322	24.61	-1
0	132886	24.71	-1
0	133450	24.81	-1
0	134014	24.91	-1
0	134587	25.01	-1
0	135151	25.11	-1
0	135715	25.21	-1
0	136279	25.31	-1
0	136843	25.41	-1
0	137407	25.51	-1
0	137971	25.61	-1
0	138535	25.71	-1
0	139099	25.81	-1
0	139663	25.91	-1
0	140236	26.01	-1
0	140800	26.11	-1
0	141364	26.21	-1
0	141928	26.31	-1
0	142492	26.41	-1
0	143056	26.51	-1
0	143620	26.61	-1
0	144184	26.71	-1
0	144748	26.81	-1
0	145312	26.91	-1
0	145885	27.01	-1
0	146449	27.11	-1
0	147013	27.21	-1
0	147577	27.31	-1
0	148141	27.41	-1
0	148705	27.51	-1
0	149269	27.61	-1
0	149833	27.71	-1
0	150397	27.81	-1
0	150961	27.91	-1
0	151534	28.01	-1
0	152098	28.11	-1
0	152662	28.21	-1
0	153226	28.31	-1
0	153790	28.41	-1
0	154354	28.51	-1
0	154918	28.61	-1
0	155482	28.71	-1
0	156046	28.81	-1
0	156610	28.91	-1
0	157183	29.01	-1
0	157747	29.11	-1
0	158311	29.21	-1
0	158968	29.31	-1
0	159531	29.41	-1
0	160094	29.51	-1
0	160657	29.61	-1
0	161220	29.71	-1
0	161783	29.81	-1
0	162346	29.91	-1
0	162918	30.01	-1
0	163481	30.11	-1
0	164044	30.21	-1
0	164607	30.31	-1
0	165170	30.41	-1
0	165733	30.51	-1
0	166296	30.61	-1
0	166859	30.71	-1
0	167422	30.81	-1
0	167985	30.91	-1
0	168557	31.01	-1
0	169120	31.11	-1
0	169683	31.21	-1
0	170246	31.31	-1
0	170809	31.41	-1
0	171372	31.51	-1
0	171935	31.61	-1
0	172498	31.71	-1
0	173061	31.81	-1
0	173624	31.91	-1
0	174196	32.01	-1
0	174759	32.11	-1
0	175322	32.21	-1
0	175885	32.31	-1
0	176448	32.41	-1
0	177011	32.51	-1
0	177574	32.61	-1
0	178137	32.71	-1
0	178700	32.81	-1
0	179263	32.91	-1
0	179835	33.01	-1
0	180398	33.11	-1
0	180961	33.21	-1
0	181524	33.31	-1
0	182087	33.41	-1
0	182743	33.51	-1
0	183305	33.61	-1
0	183867	33.71	-1
0	184429	33.81	-1
0	184991	33.91	-1
0	185562	34.01	-1
0	186124	34.11	-1
0	186686	34.21	-1
0	187248	34.31	-1
0	187810	34.41	-1
0	188372	34.51	-1
0	188934	34.61	-1
0	189496	34.71	-1
0	190058	34.81	-1
0	190620	34.91	-1
0	191191	35.01	-1
0	191753	35.11	-1
0	192315	35.21	-1
0	192877	35.31	-1
0	193439	35.41	-1
0	194001	35.51	-1
0	194563	35.61	-1
0	195125	35.71	-1
0	195687	35.81	-1
0	196249	35.91	-1
0	196820	36.01	-1
0	197382	36.11	-1
0	197944	36.21	-1
0	198506	36.31	-1
0	199068	36.41	-1
0	199630	36.51	-1
0	200192	36.61	-1
0	200754	36.71	-1
0	201316	36.81	-1
0	201878	36.91	-1
0	202449	37.01	-1
0	203011	37.11	-1
0	203573	37.21	-1
0	204135	37.31	-1
0	204697	37.41	-1
0	205352	37.51	-1
0	205913	37.61	-1
0	206474	37.71	-1
0	207035	37.81	-1
0	207596	37.91	-1
0	208166	38.01	-1
0	208727	38.11	-1
0	209288	38.21	-1
0	209849	38.31	-1
0	210410	38.41	-1
0	210971	38.51	-1
0	211532	38.61	-1
0	212093	38.71	-1
0	212654	38.81	-1
0	213215	38.91	-1
0	213785	39.01	-1
0	214346	39.11	-1
0	214907	39.21	-1
0	215468	39.31	-1
0	216029	39.41	-1
0	216590	39.51	-1
0	217151	39.61	-1
0	217712	39.71	-1
0	218273	39.81	-1
0	218834	39.91	-1
0	219404	40.01	-1
0	219965	40.11	-1
0	220526	40.21	-1
0	221087	40.31	-1
0	221648	40.41	-1
0	222209	40.51	-1
0	222770	40.61	-1
0	223331	40.71	-1
0	223892	40.81	-1
0	224453	40.91	-1
0	225023	41.01	-1
0	225584	41.11	-1
0	226145	41.21	-1
0	226799	41.31	-1
0	227359	41.41	-1
0	227919	41.51	-1
0	228479	41.61	-1
0	229039	41.71	-1
0	229599	41.81	-1
0	230159	41.91	-1
0	230728	42.01	-1
0	231288	42.11	-1
0	231848	42.21	-1
0	232408	42.31	-1
0	232968	42.41	-1
0	233528	42.51	-1
0	234088	42.61	-1
0	234648	42.71	-1
0	235208	42.81	-1
0	235768	42.91	-1
0	236337	43.01	-1
0	236897	43.11	-1
0	237457	43.21	-1
0	238017	43.31	-1
0	238577	43.41	-1
0	239137	43.51	-1
0	239697	43.61	-1
0	240257	43.71	-1
0	240817	43.81	-1
0	241377	43.91	-1
0	241946	44.01	-1
0	242506	44.11	-1
0	243066	44.21	-1
0	243626	44.31	-1
0	244186	44.41	-1
0	244746	44.51	-1
0	245306	44.61	-1
0	245866	44.71	-1
0	246426	44.81	-1
0	246986	44.91	-1
0	247648	45.01	-1
0	248207	45.11	-1
0	248766	45.21	-1
0	249325	45.31	-1
0	249884	45.41	-1
0	250443	45.51	-1
0	251002	45.61	-1
0	251561	45.71	-1
0	252120	45.81	-1
0	252679	45.91	-1
0	253247	46.01	-1
0	253806	46.11	-1
0	254365	46.21	-1
0	254924	46.31	-1
0	255483	46.41	-1
0	256042	46.51	-1
0	256601	46.61	-1
0	257160	46.71	-1
0	257719	46.81	-1
0	258278	46.91	-1
0	258846	47.01	-1
0	259405	47.11	-1
0	259964	47.21	-1
0	260523	47.31	-1
0	261082	47.41	-1
0	261641	47.51	-1
0	262200	47.61	-1
0	262759	47.71	-1
0	263318	47.81	-1
0	263877	47.91	-1
0	264445	48.01	-1
0	265004	48.11	-1
0	265563	48.21	-1
0	266122	48.31	-1
0	266681	48.41	-1
0	267240	48.51	-1
0	267909	48.61	-1
0	268467	48.71	-1
0	269025	48.81	-1
0	269583	48.91	-1
0	270150	49.01	-1
0	270708	49.11	-1
0	271266	49.21	-1
0	271824	49.31	-1
0	272382	49.41	-1
0	272940	49.51	-1
0	273498	49.61	-1
0	274056	49.71	-1
0	274614	49.81	-1
0	275172	49.91	-1
0	275739	50.01	-1
0	276297	50.11	-1
0	276855	50.21	-1
0	277413	50.31	-1
0	277971	50.41	-1
0	278529	50.51	-1
0	279087	50.61	-1
0	279645	50.71	-1
0	280203	50.81	-1
0	280761	50.91	-1
0	281328	51.01	-1
0	281886	51.11	-1
0	282444	51.21	-1
0	283002	51.31	-1
0	283560	51.41	-1
0	284118	51.51	-1
0	284676	51.61	-1
0	285234	51.71	-1
0	285792	51.81	-1
0	286350	51.91	-1
0	286917	52.01	-1
0	288219	52.11	-1
0	288776	52.21	-1
0	289333	52.31	-1
0	289890	52.41	-1
0	290447	52.51	-1
0	291004	52.61	-1
0	291561	52.71	-1
0	292118	52.81	-1
0	292675	52.91	-1
0	293241	53.01	-1
0	293798	53.11	-1
0	294355	53.21	-1
0	294912	53.31	-1
0	295469	53.41	-1
0	296026	53.51	-1
0	296583	53.61	-1
0	297140	53.71	-1
0	297697	53.81	-1
0	298254	53.91	-1
0	298820	54.01	-1
0	299377	54.11	-1
0	299934	54.21	-1
0	300491	54.31	-1
0	301048	54.41	-1
0	301605	54.51	-1
0	302162	54.61	-1
0	302719	54.71	-1
0	303276	54.81	-1
0	303833	54.91	-1
0	304399	55.01	-1
0	304956	55.11	-1
0	305513	55.21	-1
0	306070	55.31	-1
0	306627	55.41	-1
0	307184	55.51	-1
0	307741	55.61	-1
0	308298	55.71	-1
0	308855	55.81	-1
0	309412	55.91	-1
0	309978	56.01	-1
0	310535	56.11	-1
0	311092	56.21	-1
0	311649	56.31	-1
0	312206	56.41	-1
0	312763	56.51	-1
0	313320	56.61	-1
0	313877	56.71	-1
0	314434	56.81	-1
0	314991	56.91	-1
0	315557	57.01	-1
0	316114	57.11	-1
0	316671	57.21	-1
0	317228	57.31	-1
0	317785	57.41	-1
0	318342	57.51	-1
0	318899	57.61	-1
0	319456	57.71	-1
0	320013	57.81	-1
0	320570	57.91	-1
0	321136	58.01	-1
0	321693	58.11	-1
0	322250	58.21	-1
0	322807	58.31	-1
0	323364	58.41	-1
0	323921	58.51	-1
0	324478	58.61	-1
0	325035	58.71	-1
0	325592	58.81	-1
0	326149	58.91	-1
0	326715	59.01	-1
0	327272	59.11	-1
0	327829	59.21	-1
0	328386	59.31	-1
0	328943	59.41	-1
0	329500	59.51	-1
0	330057	59.61	-1
0	330614	59.71	-1
0	331171	59.81	-1
0	331728	59.91	-1
0	332294	60.01	-1
0	332851	60.11	-1
0	333408	60.21	-1
0	333965	60.31	-1
0	334522	60.41	-1
0	335079	60.51	-1
0	335636	60.61	-1
0	336193	60.71	-1
0	336750	60.81	-1
0	337307	60.91	-1
0	337873	61.01	-1
0	338430	61.11	-1
0	338987	61.21	-1
0	339544	61.31	-1
0	340101	61.41	-1
0	340658	61.51	-1
0	341215	61.61	-1
0	341772	61.71	-1
0	342329	61.81	-1
0	342886	61.91	-1
0	343452	62.01	-1
0	344009	62.11	-1
0	344566	62.21	-1
0	345123	62.31	-1
0	345680	62.41	-1
0	346237	62.51	-1
0	346794	62.61	-1
0	347351	62.71	-1
0	347908	62.81	-1
0	348465	62.91	-1
0	349031	63.01	-1
0	349588	63.11	-1
0	350145	63.21	-1
0	350702	63.31	-1
0	351259	63.41	-1
0	351816	63.51	-1
0	352373	63.61	-1
0	352930	63.71	-1
0	353487	63.81	-1
0	354044	63.91	-1
0	354610	64.01	-1
0	355167	64.11	-1
0	355724	64.21	-1
0	356281	64.31	-1
0	356838	64.41	-1
0	357395	64.51	-1
0	357952	64.61	-1
0	358509	64.71	-1
0	359066	64.81	-1
0	359623	64.91	-1
0	360189	65.01	-1
0	360746	65.11	-1
0	361303	65.21	-1
0	361860	65.31	-1
0	362417	65.41	-1
0	362974	65.51	-1
0	363531	65.61	-1
0	364088	65.71	-1
0	364645	65.81	-1
0	365202	65.91	-1
0	365768	66.01	-1
0	366325	66.11	-1
0	366882	66.21	-1
0	367439	66.31	-1
0	367996	66.41	-1
0	368553	66.51	-1
0	369110	66.61	-1
0	369667	66.71	-1
0	370224	66.81	-1
0	370781	66.91	-1
0	371347	67.01	-1
0	371904	67.11	-1
0	372461	67.21	-1
0	373018	67.31	-1
0	373575	67.41	-1
0	374132	67.51	-1
0	374689	67.61	-1
0	375246	67.71	-1
0	375803	67.81	-1
0	376360	67.91	-1
0	376926	68.01	-1
0	377483	68.11	-1
0	378040	68.21	-1
0	378597	68.31	-1
0	379154	68.41	-1
0	379711	68.51	-1
0	380268	68.61	-1
0	380825	68.71	-1
0	381382	68.81	-1
0	381939	68.91	-1
0	382505	69.01	-1
0	383062	69.11	-1
0	383619	69.21	-1
0	384176	69.31	-1
0	384733	69.41	-1
0	385290	69.51	-1
0	385847	69.61	-1
0	386404	69.71	-1
0	386961	69.81	-1
0	387518	69.91	-1
0	388084	70.01	-1
0	388641	70.11	-1
0	389198	70.21	-1
0	389755	70.31	-1
0	390312	70.41	-1
0	390869	70.51	-1
0	391426	70.61	-1
0	391983	70.71	-1
0	392540	70.81	-1
0	393097	70.91	-1
0	393663	71.01	-1
0	394220	71.11	-1
0	394777	71.21	-1
0	395334	71.31	-1
0	395891	71.41	-1
0	396448	71.51	-1
0	397005	71.61	-1
0	397562	71.71	-1
0	398119	71.81	-1
0	398676	71.91	-1
0	399242	72.01	-1
0	399799	72.11	-1
0	400356	72.21	-1
0	400913	72.31	-1
0	401470	72.41	-1
0	402027	72.51	-1
0	402584	72.61	-1
0	403141	72.71	-1
0	403698	72.81	-1
0	404255	72.91	-1
0	404821	73.01	-1
0	405378	73.11	-1
0	405935	73.21	-1
0	406492	73.31	-1
0	407049	73.41	-1
0	407606	73.51	-1
0	408163	73.61	-1
0	408720	73.71	-1
0	409277	73.81	-1
0	409834	73.91	-1
0	410400	74.01	-1
0	410957	74.11	28.4628
0	411514	74.21	28.6516
0	412071	74.31	28.8405
0	412628	74.41	29.0294
0	413185	74.51	29.2183
0	413742	74.61	29.4072
0	414299	74.71	29.5961
0	414856	74.81	29.785
0	415413	74.91	29.9739
0	415979	75.01	30.1628
0	416536	75.11	30.3517
0	417093	75.21	30.5405
0	417650	75.31	30.7294
0	418207	75.41	30.9183
0	418764	75.51	31.1072
0	419321	75.61	31.2961
0	419878	75.71	31.485
0	420435	75.81	31.6739
0	420992	75.91	31.8628
0	421558	76.01	32.0517
0	422115	76.11	32.2406
0	422672	76.21	32.4294
0	423229	76.31	32.6183
0	423786	76.41	32.8072
0	424343	76.51	32.9961
0	424900	76.61	33.185
0	425457	76.71	33.3739
0	426014	76.81	33.5628
0	426571	76.91	33.7517
0	427137	77.01	33.9406
0	427694	77.11	34.1295
0	428251	77.21	34.3183
0	428808	77.31	34.5072
0	429365	77.41	34.6961
0	429922	77.51	34.885
0	430479	77.61	35.0739
0	431036	77.71	35.2628
0	431593	77.81	35.4517
0	432150	77.91	35.6406
0	432716	78.01	35.8295
0	433273	78.11	36.0184
0	433830	78.21	36.2072
0	434387	78.31	36.3961
0	434944	78.41	36.585
0	435501	78.51	36.7739
0	436058	78.61	36.9628
0	436615	78.71	37.1517
0	437172	78.81	37.3406
0	437729	78.91	37.5295
0	438295	79.01	37.7184
0	438852	79.11	37.9073
0	439409	79.21	38.0961
0	439966	79.31	38.285
0	440523	79.41	38.4739
0	441080	79.51	38.6628
0	441637	79.61	38.8517
0	442194	79.71	39.0406
0	442751	79.81	39.2295
0	443308	79.91	39.4184
0	443874	80.01	39.6073
0	444431	80.11	39.7962
0	444988	80.21	39.985
0	445545	80.31	40.1739
0	446102	80.41	40.3628
0	446659	80.51	40.5517
0	447216	80.61	40.7406
0	447773	80.71	40.9295
0	448330	80.81	41.1184
0	448887	80.91	41.3073
0	449453	81.01	41.4962
0	450010	81.11	41.6851
0	450567	81.21	41.8739
0	451124	81.31	42.0628
0	451681	81.41	42.2517
0	452238	81.51	42.4406
0	452795	81.61	42.6295
0	453352	81.71	42.8184
0	453909	81.81	43.0073
0	454466	81.91	43.1962
0	455032	82.01	43.3851
0	455589	82.11	43.574
0	456146	82.21	43.7628
0	456703	82.31	43.9517
0	457260	82.41	44.1406
0	457817	82.51	44.3295
0	458374	82.61	44.5184
0	458931	82.71	44.7073
0	459488	82.81	44.8962
0	460045	82.91	45.0851
0	460611	83.01	45.274
0	461168	83.11	45.4629
0	461725	83.21	45.6517
0	462282	83.31	45.8406
0	462839	83.41	46.0295
0	463396	83.51	46.2184
0	463953	83.61	46.4073
0	464510	83.71	46.5962
0	465067	83.81	46.7851
0	465624	83.91	46.974
0	466190	84.01	47.1629
0	466747	84.11	47.3518
0	467304	84.21	47.5406
0	467861	84.31	47.7295
0	468418	84.41	47.9184
0	468975	84.51	48.1073
0	469532	84.61	48.2962
0	470089	84.71	48.4851
0	470646	84.81	48.674
0	471203	84.91	48.8629
0	471769	85.01	49.0518
0	472326	85.11	49.2407
0	472883	85.21	49.4295
0	473440	85.31	49.6184
0	473997	85.41	49.8073
0	474554	85.51	49.9962
0	475111	85.61	50.1851
0	475668	85.71	50.374
0	476225	85.81	50.5629
0	476782	85.91	50.7518
0	477348	86.01	50.9407
0	477905	86.11	51.1296
0	478462	86.21	51.3184
0	479019	86.31	51.5073
0	479576	86.41	51.6962
0	480133	86.51	51.8851
0	480690	86.61	52.074
0	481247	86.71	52.2629
0	481804	86.81	52.4518
0	482361	86.91	52.6407
0	482927	87.01	52.8296
0	483484	87.11	53.0185
0	484041	87.21	53.2073
0	484598	87.31	53.3962
0	485155	87.41	53.5851
0	485712	87.51	53.774
0	486269	87.61	53.9629
0	486826	87.71	54.1518
0	487383	87.81	54.3407
0	487940	87.91	54.5296
0	488506	88.01	54.7185
0	489063	88.11	54.9074
0	489620	88.21	55.0962
0	490177	88.31	55.2851
0	490734	88.41	55.474
0	491291	88.51	55.6629
0	491848	88.61	55.8518
0	492405	88.71	56.0407
0	492962	88.81	56.2296
0	493519	88.91	56.4185
0	494085	89.01	56.6074
0	494642	89.11	56.7963
0	495199	89.21	56.9851
0	495756	89.31	57.174
0	496313	89.41	57.3629
0	496870	89.51	57.5518
0	497427	89.61	57.7407
0	497984	89.71	57.9296
0	498541	89.81	58.1185
0	499098	89.91	58.3074
0	499664	90.01	58.4963
0	500221	90.11	58.6852
0	500778	90.21	58.874
0	501335	90.31	59.0629
0	501892	90.41	59.2518
0	502449	90.51	59.4407
0	503006	90.61	59.6296
0	503563	90.71	59.8185
0	504120	90.81	60.0074
0	504677	90.91	60.1963
0	505243	91.01	60.3852
0	505800	91.11	60.5741
0	506357	91.21	60.7629
0	506914	91.31	60.9518
0	507471	91.41	61.1407
0	508028	91.51	61.3296
0	508585	91.61	61.5185
0	509142	91.71	61.7074
0	509699	91.81	61.8963
0	510256	91.91	62.0852
0	510822	92.01	62.2741
0	511379	92.11	62.463
0	511936	92.21	62.6518
0	512493	92.31	62.8407
0	513050	92.41	63.0296
0	513607	92.51	63.2185
0	514164	92.61	63.4074
0	514721	92.71	63.5963
0	515278	92.81	63.7852
0	515835	92.91	63.9741
0	516401	93.01	64.163
0	516958	93.11	64.3519
0	517515	93.21	64.5407
0	518072	93.31	64.7296
0	518629	93.41	64.9185
0	519186	93.51	65.1074
0	519743	93.61	65.2963
0	520300	93.71	65.4852
0	520857	93.81	65.6741
0	521414	93.91	65.863
0	521980	94.01	66.0519
0	522537	94.11	66.2408
0	523094	94.21	66.4296
0	523651	94.31	66.6185
0	524208	94.41	66.8074
0	524765	94.51	66.9963
0	525322	94.61	67.1852
0	525879	94.71	67.3741
0	526436	94.81	67.563
0	526993	94.91	67.7519
0	527559	95.01	67.9408
0	528116	95.11	68.1297
0	528673	95.21	68.3185
0	529230	95.31	68.5074
0	529787	95.41	68.6963
0	530344	95.51	68.8852
0	530901	95.61	69.0741
0	531458	95.71	69.263
0	532015	95.81	69.4519
0	532572	95.91	69.6408
0	533138	96.01	69.8297
0	533695	96.11	70.0186
0	534252	96.21	70.2074
0	534809	96.31	70.3963
0	535366	96.41	70.5852
0	535923	96.51	70.7741
0	536480	96.61	70.963
0	537037	96.71	71.1519
0	537594	96.81	71.3408
0	538151	96.91	71.5297
0	538717	97.01	71.7186
0	539274	97.11	71.9075
0	539831	97.21	72.0963
0	540388	97.31	72.2852
0	540945	97.41	72.4741
0	541502	97.51	72.663
0	542059	97.61	72.8519
0	542616	97.71	73.0408
0	543173	97.81	73.2297
0	543730	97.91	73.4186
0	544296	98.01	73.6075
0	544853	98.11	73.7964
0	545410	98.21	73.9852
0	545967	98.31	74.1741
0	546524	98.41	74.363
0	547081	98.51	74.5519
0	547638	98.61	74.7408
0	548195	98.71	74.9297
0	548752	98.81	75.1186
0	549309	98.91	75.3075
0	549875	99.01	75.4964
0	550432	99.11	75.6853
0	550989	99.21	75.8741
0	551546	99.31	76.063
0	552103	99.41	76.2519
0	552660	99.51	76.4408
0	553217	99.61	76.6297
0	553774	99.71	76.8186
0	554331	99.81	77.0075
0	554888	99.91	77.1964
1	113	1.11	0
1	670	1.21	0
1	1227	1.31	0
1	1784	1.41	0
1	2341	1.51	0
1	2898	1.61	0
1	3455	1.71	0
1	4012	1.81	0
1	4569	1.91	0
1	5135	2.01	0
1	5692	2.11	0
1	6249	2.21	0
1	6806	2.31	0
1	7363	2.41	0
1	7920	2.51	0
1	8477	2.61	0
1	9034	2.71	0
1	9591	2.81	0
1	10148	2.91	0
1	10714	3.01	0
1	11271	3.11	0
1	11828	3.21	0
1	12385	3.31	0
1	12942	3.41	0
1	13499	3.51	0
1	14056	3.61	0
1	14613	3.71	0
1	15170	3.81	0
1	15727	3.91	0
1	16293	4.01	0
1	16850	4.11	0
1	17407	4.21	0
1	17964	4.31	0
1	18521	4.41	0
1	19078	4.51	0
1	19635	4.61	0
1	20192	4.71	0
1	20749	4.81	0
1	21306	4.91	0
1	21872	5.01	0
1	22429	5.11	0
1	22986	5.21	0
1	23543	5.31	0
1	24100	5.41	0
1	24657	5.51	0
1	25214	5.61	0
1	25771	5.71	0
1	26328	5.81	0
1	26885	5.91	0
1	27451	6.01	0
1	28008	6.11	0
1	28565	6.21	0
1	29122	6.31	0
1	29679	6.41	0
1	30236	6.51	0
1	30793	6.61	0
1	31350	6.71	0
1	31907	6.81	0
1	32464	6.91	0
1	33030	7.01	0
1	33587	7.11	0
1	34144	7.21	0
1	34701	7.31	0
1	35258	7.41	0
1	35815	7.51	0
1	36372	7.61	0
1	36929	7.71	0
1	37486	7.81	0
1	38043	7.91	0
1	38609	8.01	0
1	39166	8.11	0
1	39723	8.21	0
1	40280	8.31	0
1	40837	8.41	0
1	41394	8.51	0
1	41951	8.61	0
1	42508	8.71	0
1	43065	8.81	0
1	43622	8.91	0
1	44188	9.01	0
1	44745	9.11	0
1	45302	9.21	0
1	45859	9.31	0
1	46416	9.41	0
1	46973	9.51	0
1	47530	9.61	0
1	48087	9.71	0
1	48644	9.81	0
1	49201	9.91	0
1	49852	10.01	0
1	50416	10.11	0
1	50980	10.21	0
1	51544	10.31	0
1	52108	10.41	0
1	52672	10.51	0
1	53236	10.61	0
1	53800	10.71	0
1	54364	10.81	0
1	54928	10.91	0
1	55501	11.01	0
1	56065	11.11	0
1	56629	11.21	0
1	57193	11.31	0
1	57757	11.41	0
1	58321	11.51	0
1	58885	11.61	0
1	59449	11.71	0
1	60013	11.81	0
1	60577	11.91	0
1	61150	12.01	0
1	61714	12.11	0
1	62278	12.21	0
1	62842	12.31	0
1	63406	12.41	0
1	63970	12.51	0
1	64534	12.61	0
1	65098	12.71	0
1	65662	12.81	0
1	66226	12.91	0
1	66799	13.01	0
1	67363	13.11	0
1	67927	13.21	0
1	68491	13.31	0
1	69055	13.41	0
1	69619	13.51	0
1	70183	13.61	0
1	70747	13.71	0
1	71311	13.81	0
1	71875	13.91	0
1	72448	14.01	0
1	73012	14.11	0
1	73576	14.21	0
1	74140	14.31	0
1	74704	14.41	0
1	75268	14.51	0
1	75832	14.61	0
1	76396	14.71	0
1	76960	14.81	0
1	77524	14.91	0
1	78097	15.01	0
1	78661	15.11	0
1	79225	15.21	0
1	79789	15.31	0
1	80353	15.41	0
1	80917	15.51	0
1	81481	15.61	0
1	82045	15.71	0
1	82609	15.81	0
1	83173	15.91	0
1	83746	16.01	0
1	84310	16.11	0
1	84874	16.21	0
1	85438	16.31	0
1	86002	16.41	0
1	86566	16.51	0
1	87130	16.61	0
1	87694	16.71	0
1	88258	16.81	0
1	88822	16.91	0
1	89395	17.01	0
1	89959	17.11	0
1	90523	17.21	0
1	91087	17.31	0
1	91651	17.41	0
1	92215	17.51	0
1	92779	17.61	0
1	93343	17.71	0
1	93907	17.81	0
1	94471	17.91	0
1	95044	18.01	0
1	95608	18.11	0
1	96172	18.21	0
1	96736	18.31	0
1	97300	18.41	0
1	97864	18.51	0
1	98428	18.61	0
1	98992	18.71	0
1	99556	18.81	0
1	100120	18.91	0
1	100693	19.01	0
1	101257	19.11	0
1	101821	19.21	0
1	102385	19.31	0
1	102949	19.41	0
1	103513	19.51	0
1	104077	19.61	0
1	104641	19.71	0
1	105205	19.81	0
1	105769	19.91	0
1	106342	20.01	0
1	106906	20.11	0
1	107470	20.21	0
1	108034	20.31	0
1	108598	20.41	0
1	109162	20.51	0
1	109726	20.61	0
1	110290	20.71	0
1	110854	20.81	0
1	111418	20.91	0
1	111991	21.01	0
1	112555	21.11	0
1	113119	21.21	0
1	113683	21.31	0
1	114247	21.41	0
1	114811	21.51	0
1	115375	21.61	0
1	115939	21.71	0
1	116503	21.81	0
1	117067	21.91	0
1	117640	22.01	0
1	118204	22.11	0
1	118768	22.21	0
1	119332	22.31	0
1	119896	22.41	0
1	120460	22.51	0
1	121024	22.61	0
1	121588	22.71	0
1	122152	22.81	0
1	122716	22.91	0
1	123289	23.01	0
1	123853	23.11	0
1	124417	23.21	0
1	124981	23.31	0
1	125545	23.41	0
1	126109	23.51	0
1	126673	23.61	0
1	127237	23.71	0
1	127801	23.81	0
1	128365	23.91	0
1	128938	24.01	0
1	129502	24.11	0
1	130066	24.21	0
1	130630	24.31	0
1	131194	24.41	0
1	131758	24.51	0
1	132322	24.61	0
1	132886	24.71	0
1	133450	24.81	0
1	134014	24.91	0
1	134587	25.01	0
1	135151	25.11	0
1	135715	25.21	0
1	136279	25.31	0
1	136843	25.41	0
1	137407	25.51	0
1	137971	25.61	0
1	138535	25.71	0
1	139099	25.81	0
1	139663	25.91	0
1	140236	26.01	0
1	140800	26.11	0
1	141364	26.21	0
1	141928	26.31	0
1	142492	26.41	0
1	143056	26.51	0
1	143620	26.61	0
1	144184	26.71	0
1	144748	26.81	0
1	145312	26.91	0
1	145885	27.01	0
1	146449	27.11	0
1	147013	27.21	0
1	147577	27.31	0
1	148141	27.41	0
1	148705	27.51	0
1	149269	27.61	0
1	149833	27.71	0
1	150397	27.81	0
1	150961	27.91	0
1	151534	28.01	0
1	152098	28.11	0
1	152662	28.21	0
1	153226	28.31	0
1	153790	28.41	0
1	154354	28.51	0
1	154918	28.61	0
1	155482	28.71	0
1	156046	28.81	0
1	156610	28.91	0
1	157183	29.01	0
1	157747	29.11	0
1	158311	29.21	0
1	158968	29.31	0
1	159531	29.41	0
1	160094	29.51	0
1	160657	29.61	0
1	161220	29.71	0
1	161783	29.81	0
1	162346	29.91	0
1	162918	30.01	0
1	163481	30.11	0
1	164044	30.21	0
1	164607	30.31	0
1	165170	30.41	0
1	165733	30.51	0
1	166296	30.61	0
1	166859	30.71	0
1	167422	30.81	0
1	167985	30.91	0
1	168557	31.01	0
1	169120	31.11	0
1	169683	31.21	0
1	170246	31.31	0
1	170809	31.41	0
1	171372	31.51	0
1	171935	31.61	0
1	172498	31.71	0
1	173061	31.81	0
1	173624	31.91	0
1	174196	32.01	0
1	174759	32.11	0
1	175322	32.21	0
1	175885	32.31	0
1	176448	32.41	0
1	177011	32.51	0
1	177574	32.61	0
1	178137	32.71	0
1	178700	32.81	0
1	179263	32.91	0
1	179835	33.01	0
1	180398	33.11	0
1	180961	33.21	0
1	181524	33.31	0
1	182087	33.41	0
1	182743	33.51	0
1	183305	33.61	0
1	183867	33.71	0
1	184429	33.81	0
1	184991	33.91	0
1	185562	34.01	0
1	186124	34.11	0
1	186686	34.21	0
1	187248	34.31	0
1	187810	34.41	0
1	188372	34.51	0
1	188934	34.61	0
1	189496	34.71	0
1	190058	34.81	0
1	190620	34.91	0
1	191191	35.01	0
1	191753	35.11	0
1	192315	35.21	0
1	192877	35.31	0
1	193439	35.41	0
1	194001	35.51	0
1	194563	35.61	0
1	195125	35.71	0
1	195687	35.81	0
1	196249	35.91	0
1	196820	36.01	0
1	197382	36.11	0
1	197944	36.21	0
1	198506	36.31	0
1	199068	36.41	0
1	199630	36.51	0
1	200192	36.61	0
1	200754	36.71	0
1	201316	36.81	0
1	201878	36.91	0
1	202449	37.01	0
1	203011	37.11	0
1	203573	37.21	0
1	204135	37.31	0
1	204697	37.41	0
1	205352	37.51	0
1	205913	37.61	0
1	206474	37.71	0
1	207035	37.81	0
1	207596	37.91	0
1	208166	38.01	0
1	208727	38.11	0
1	209288	38.21	0
1	209849	38.31	0
1	210410	38.41	0
1	210971	38.51	0
1	211532	38.61	0
1	212093	38.71	0
1	212654	38.81	0
1	213215	38.91	0
1	213785	39.01	0
1	214346	39.11	0
1	214907	39.21	0
1	215468	39.31	0
1	216029	39.41	0
1	216590	39.51	0
1	217151	39.61	0
1	217712	39.71	0
1	218273	39.81	0
1	218834	39.91	0
1	219404	40.01	0
1	219965	40.11	0
1	220526	40.21	0
1	221087	40.31	0
1	221648	40.41	0
1	222209	40.51	0
1	222770	40.61	0
1	223331	40.71	0
1	223892	40.81	0
1	224453	40.91	0
1	225023	41.01	0
1	225584	41.11	0
1	226145	41.21	0
1	226799	41.31	0
1	227359	41.41	0
1	227919	41.51	0
1	228479	41.61	0
1	229039	41.71	0
1	229599	41.81	0
1	230159	41.91	0
1	230728	42.01	0
1	231288	42.11	0
1	231848	42.21	0
1	232408	42.31	0
1	232968	42.41	0
1	233528	42.51	0
1	234088	42.61	0
1	234648	42.71	0
1	235208	42.81	0
1	235768	42.91	0
1	236337	43.01	0
1	236897	43.11	0
1	237457	43.21	0
1	238017	43.31	0
1	238577	43.41	0
1	239137	43.51	0
1	239697	43.61	0
1	240257	43.71	0
1	240817	43.81	0
1	241377	43.91	0
1	241946	44.01	0
1	242506	44.11	0
1	243066	44.21	0
1	243626	44.31	0
1	244186	44.41	0
1	244746	44.51	0
1	245306	44.61	0
1	245866	44.71	0
1	246426	44.81	0
1	246986	44.91	0
1	247648	45.01	0
1	248207	45.11	0
1	248766	45.21	0
1	249325	45.31	0
1	249884	45.41	0
1	250443	45.51	0
1	251002	45.61	0
1	251561	45.71	0
1	252120	45.81	0
1	252679	45.91	0
1	253247	46.01	0
1	253806	46.11	0
1	254365	46.21	0
1	254924	46.31	0
1	255483	46.41	0
1	256042	46.51	0
1	256601	46.61	0
1	257160	46.71	0
1	257719	46.81	0
1	258278	46.91	0
1	258846	47.01	0
1	259405	47.11	0
1	259964	47.21	0
1	260523	47.31	0
1	261082	47.41	0
1	261641	47.51	0
1	262200	47.61	0
1	262759	47.71	0
1	263318	47.81	0
1	263877	47.91	0
1	264445	48.01	0
1	265004	48.11	0
1	265563	48.21	0
1	266122	48.31	0
1	266681	48.41	0
1	267240	48.51	0
1	267909	48.61	0
1	268467	48.71	0
1	269025	48.81	0
1	269583	48.91	0
1	270150	49.01	0
1	270708	49.11	0
1	271266	49.21	0
1	271824	49.31	0
1	272382	49.41	0
1	272940	49.51	0
1	273498	49.61	0
1	274056	49.71	0
1	274614	49.81	0
1	275172	49.91	0
1	275739	50.01	0
1	276297	50.11	0
1	276855	50.21	0
1	277413	50.31	0
1	277971	50.41	0
1	278529	50.51	0
1	279087	50.61	0
1	279645	50.71	0
1	280203	50.81	0
1	280761	50.91	0
1	281328	51.01	0
1	281886	51.11	0
1	282444	51.21	0
1	283002	51.31	0
1	283560	51.41	0
1	284118	51.51	0
1	284676	51.61	0
1	285234	51.71	0
1	285792	51.81	0
1	286350	51.91	0
1	286917	52.01	0
1	288219	52.11	0
1	288776	52.21	0
1	289333	52.31	0
1	289890	52.41	0
1	290447	52.51	0
1	291004	52.61	0
1	291561	52.71	0
1	292118	52.81	0
1	292675	52.91	0
1	293241	53.01	0
1	293798	53.11	0
1	294355	53.21	0
1	294912	53.31	0
1	295469	53.41	0
1	296026	53.51	0
1	296583	53.61	0
1	297140	53.71	0
1	297697	53.81	0
1	298254	53.91	0
1	298820	54.01	0
1	299377	54.11	0
1	299934	54.21	0
1	300491	54.31	0
1	301048	54.41	0
1	301605	54.51	0
1	302162	54.61	0
1	302719	54.71	0
1	303276	54.81	0
1	303833	54.91	0
1	304399	55.01	0
1	304956	55.11	0
1	305513	55.21	0
1	306070	55.31	0
1	306627	55.41	0
1	307184	55.51	0
1	307741	55.61	0
1	308298	55.71	0
1	308855	55.81	0
1	309412	55.91	0
1	309978	56.01	0
1	310535	56.11	0
1	311092	56.21	0
1	311649	56.31	0
1	312206	56.41	0
1	312763	56.51	0
1	313320	56.61	0
1	313877	56.71	0
1	314434	56.81	0
1	314991	56.91	0
1	315557	57.01	0
1	316114	57.11	0
1	316671	57.21	0
1	317228	57.31	0
1	317785	57.41	0
1	318342	57.51	0
1	318899	57.61	0
1	319456	57.71	0
1	320013	57.81	0
1	320570	57.91	0
1	321136	58.01	0
1	321693	58.11	0
1	322250	58.21	0
1	322807	58.31	0
1	323364	58.41	0
1	323921	58.51	0
1	324478	58.61	0
1	325035	58.71	0
1	325592	58.81	0
1	326149	58.91	0
1	326715	59.01	0
1	327272	59.11	0
1	327829	59.21	0
1	328386	59.31	0
1	328943	59.41	0
1	329500	59.51	0
1	330057	59.61	0
1	330614	59.71	0
1	331171	59.81	0
1	331728	59.91	0
1	332294	60.01	0
1	332851	60.11	0
1	333408	60.21	0
1	333965	60.31	0
1	334522	60.41	0
1	335079	60.51	0
1	335636	60.61	0
1	336193	60.71	0
1	336750	60.81	0
1	337307	60.91	0
1	337873	61.01	0
1	338430	61.11	0
1	338987	61.21	0
1	339544	61.31	0
1	340101	61.41	0
1	340658	61.51	0
1	341215	61.61	0
1	341772	61.71	0
1	342329	61.81	0
1	342886	61.91	0
1	343452	62.01	0
1	344009	62.11	0
1	344566	62.21	0
1	345123	62.31	0
1	345680	62.41	0
1	346237	62.51	0
1	346794	62.61	0
1	347351	62.71	0
1	347908	62.81	0
1	348465	62.91	0
1	349031	63.01	0
1	349588	63.11	0
1	350145	63.21	0
1	350702	63.31	0
1	351259	63.41	0
1	351816	63.51	0
1	352373	63.61	0
1	352930	63.71	0
1	353487	63.81	0
1	354044	63.91	0
1	354610	64.01	0
1	355167	64.11	0
1	355724	64.21	0
1	356281	64.31	0
1	356838	64.41	0
1	357395	64.51	0
1	357952	64.61	0
1	358509	64.71	0
1	359066	64.81	0
1	359623	64.91	0
1	360189	65.01	0
1	360746	65.11	0
1	361303	65.21	0
1	361860	65.31	0
1	362417	65.41	0
1	362974	65.51	0
1	363531	65.61	0
1	364088	65.71	0
1	364645	65.81	0
1	365202	65.91	0
1	365768	66.01	0
1	366325	66.11	0
1	366882	66.21	0
1	367439	66.31	0
1	367996	66.41	0
1	368553	66.51	0
1	369110	66.61	0
1	369667	66.71	0
1	370224	66.81	0
1	370781	66.91	0
1	371347	67.01	0
1	371904	67.11	0
1	372461	67.21	0
1	373018	67.31	0
1	373575	67.41	0
1	374132	67.51	0
1	374689	67.61	0
1	375246	67.71	0
1	375803	67.81	0
1	376360	67.91	0
1	376926	68.01	0
1	377483	68.11	0
1	378040	68.21	0
1	378597	68.31	0
1	379154	68.41	0
1	379711	68.51	0
1	380268	68.61	0
1	380825	68.71	0
1	381382	68.81	0
1	381939	68.91	0
1	382505	69.01	0
1	383062	69.11	0
1	383619	69.21	0
1	384176	69.31	0
1	384733	69.41	0
1	385290	69.51	0
1	385847	69.61	0
1	386404	69.71	0
1	386961	69.81	0
1	387518	69.91	0
1	388084	70.01	0
1	388641	70.11	0
1	389198	70.21	0
1	389755	70.31	0
1	390312	70.41	0
1	390869	70.51	0
1	391426	70.61	0
1	391983	70.71	0
1	392540	70.81	0
1	393097	70.91	0
1	393663	71.01	0
1	394220	71.11	0
1	394777	71.21	0
1	395334	71.31	0
1	395891	71.41	0
1	396448	71.51	0
1	397005	71.61	0
1	397562	71.71	0
1	398119	71.81	0
1	398676	71.91	0
1	399242	72.01	0
1	399799	72.11	0
1	400356	72.21	0
1	400913	72.31	0
1	401470	72.41	0
1	402027	72.51	0
1	402584	72.61	0
1	403141	72.71	0
1	403698	72.81	0
1	404255	72.91	0
1	404821	73.01	0
1	405378	73.11	0
1	405935	73.21	0
1	406492	73.31	0
1	407049	73.41	0
1	407606	73.51	0
1	408163	73.61	0
1	408720	73.71	0
1	409277	73.81	0
1	409834	73.91	0
1	410400	74.01	0
1	410957	74.11	1.8889
1	411514	74.21	1.8889
1	412071	74.31	1.8889
1	412628	74.41	1.8889
1	413185	74.51	1.8889
1	413742	74.61	1.8889
1	414299	74.71	1.8889
1	414856	74.81	1.8889
1	415413	74.91	1.8889
1	415979	75.01	1.8889
1	416536	75.11	1.8889
1	417093	75.21	1.8889
1	417650	75.31	1.8889
1	418207	75.41	1.8889
1	418764	75.51	1.8889
1	419321	75.61	1.8889
1	419878	75.71	1.8889
1	420435	75.81	1.8889
1	420992	75.91	1.8889
1	421558	76.01	1.8889
1	422115	76.11	1.8889
1	422672	76.21	1.8889
1	423229	76.31	1.8889
1	423786	76.41	1.8889
1	424343	76.51	1.8889
1	424900	76.61	1.8889
1	425457	76.71	1.8889
1	426014	76.81	1.8889
1	426571	76.91	1.8889
1	427137	77.01	1.8889
1	427694	77.11	1.8889
1	428251	77.21	1.8889
1	428808	77.31	1.8889
1	429365	77.41	1.8889
1	429922	77.51	1.8889
1	430479	77.61	1.8889
1	431036	77.71	1.8889
1	431593	77.81	1.8889
1	432150	77.91	1.8889
1	432716	78.01	1.8889
1	433273	78.11	1.8889
1	433830	78.21	1.8889
1	434387	78.31	1.8889
1	434944	78.41	1.8889
1	435501	78.51	1.8889
1	436058	78.61	1.8889
1	436615	78.71	1.8889
1	437172	78.81	1.8889
1	437729	78.91	1.8889
1	438295	79.01	1.8889
1	438852	79.11	1.8889
1	439409	79.21	1.8889
1	439966	79.31	1.8889
1	440523	79.41	1.8889
1	441080	79.51	1.8889
1	441637	79.61	1.8889
1	442194	79.71	1.8889
1	442751	79.81	1.8889
1	443308	79.91	1.8889
1	443874	80.01	1.8889
1	444431	80.11	1.8889
1	444988	80.21	1.8889
1	445545	80.31	1.8889
1	446102	80.41	1.8889
1	446659	80.51	1.8889
1	447216	80.61	1.8889
1	447773	80.71	1.8889
1	448330	80.81	1.8889
1	448887	80.91	1.8889
1	449453	81.01	1.8889
1	450010	81.11	1.8889
1	450567	81.21	1.8889
1	451124	81.31	1.8889
1	451681	81.41	1.8889
1	452238	81.51	1.8889
1	452795	81.61	1.8889
1	453352	81.71	1.8889
1	453909	81.81	1.8889
1	454466	81.91	1.8889
1	455032	82.01	1.8889
1	455589	82.11	1.8889
1	456146	82.21	1.8889
1	456703	82.31	1.8889
1	457260	82.41	1.8889
1	457817	82.51	1.8889
1	458374	82.61	1.8889
1	458931	82.71	1.8889
1	459488	82.81	1.8889
1	460045	82.91	1.8889
1	460611	83.01	1.8889
1	461168	83.11	1.8889
1	461725	83.21	1.8889
1	462282	83.31	1.8889
1	462839	83.41	1.8889
1	463396	83.51	1.8889
1	463953	83.61	1.8889
1	464510	83.71	1.8889
1	465067	83.81	1.8889
1	465624	83.91	1.8889
1	466190	84.01	1.8889
1	466747	84.11	1.8889
1	467304	84.21	1.8889
1	467861	84.31	1.8889
1	468418	84.41	1.8889
1	468975	84.51	1.8889
1	469532	84.61	1.8889
1	470089	84.71	1.8889
1	470646	84.81	1.8889
1	471203	84.91	1.8889
1	471769	85.01	1.8889
1	472326	85.11	1.8889
1	472883	85.21	1.8889
1	473440	85.31	1.8889
1	473997	85.41	1.8889
1	474554	85.51	1.8889
1	475111	85.61	1.8889
1	475668	85.71	1.8889
1	476225	85.81	1.8889
1	476782	85.91	1.8889
1	477348	86.01	1.8889
1	477905	86.11	1.8889
1	478462	86.21	1.8889
1	479019	86.31	1.8889
1	479576	86.41	1.8889
1	480133	86.51	1.8889
1	480690	86.61	1.8889
1	481247	86.71	1.8889
1	481804	86.81	1.8889
1	482361	86.91	1.8889
1	482927	87.01	1.8889
1	483484	87.11	1.8889
1	484041	87.21	1.8889
1	484598	87.31	1.8889
1	485155	87.41	1.8889
1	485712	87.51	1.8889
1	486269	87.61	1.8889
1	486826	87.71	1.8889
1	487383	87.81	1.8889
1	487940	87.91	1.8889
1	488506	88.01	1.8889
1	489063	88.11	1.8889
1	489620	88.21	1.8889
1	490177	88.31	1.8889
1	490734	88.41	1.8889
1	491291	88.51	1.8889
1	491848	88.61	1.8889
1	492405	88.71	1.8889
1	492962	88.81	1.8889
1	493519	88.91	1.8889
1	494085	89.01	1.8889
1	494642	89.11	1.8889
1	495199	89.21	1.8889
1	495756	89.31	1.8889
1	496313	89.41	1.8889
1	496870	89.51	1.8889
1	497427	89.61	1.8889
1	497984	89.71	1.8889
1	498541	89.81	1.8889
1	499098	89.91	1.8889
1	499664	90.01	1.8889
1	500221	90.11	1.8889
1	500778	90.21	1.8889
1	501335	90.31	1.8889
1	501892	90.41	1.8889
1	502449	90.51	1.8889
1	503006	90.61	1.8889
1	503563	90.71	1.8889
1	504120	90.81	1.8889
1	504677	90.91	1.8889
1	505243	91.01	1.8889
1	505800	91.11	1.8889
1	506357	91.21	1.8889
1	506914	91.31	1.8889
1	507471	91.41	1.8889
1	508028	91.51	1.8889
1	508585	91.61	1.8889
1	509142	91.71	1.8889
1	509699	91.81	1.8889
1	510256	91.91	1.8889
1	510822	92.01	1.8889
1	511379	92.11	1.8889
1	511936	92.21	1.8889
1	512493	92.31	1.8889
1	513050	92.41	1.8889
1	513607	92.51	1.8889
1	514164	92.61	1.8889
1	514721	92.71	1.8889
1	515278	92.81	1.8889
1	515835	92.91	1.8889
1	516401	93.01	1.8889
1	516958	93.11	1.8889
1	517515	93.21	1.8889
1	518072	93.31	1.8889
1	518629	93.41	1.8889
1	519186	93.51	1.8889
1	519743	93.61	1.8889
1	520300	93.71	1.8889
1	520857	93.81	1.8889
1	521414	93.91	1.8889
1	521980	94.01	1.8889
1	522537	94.11	1.8889
1	523094	94.21	1.8889
1	523651	94.31	1.8889
1	524208	94.41	1.8889
1	524765	94.51	1.8889
1	525322	94.61	1.8889
1	525879	94.71	1.8889
1	526436	94.81	1.8889
1	526993	94.91	1.8889
1	527559	95.01	1.8889
1	528116	95.11	1.8889
1	528673	95.21	1.8889
1	529230	95.31	1.8889
1	529787	95.41	1.8889
1	530344	95.51	1.8889
1	530901	95.61	1.8889
1	531458	95.71	1.8889
1	532015	95.81	1.8889
1	532572	95.91	1.8889
1	533138	96.01	1.8889
1	533695	96.11	1.8889
1	534252	96.21	1.8889
1	534809	96.31	1.8889
1	535366	96.41	1.8889
1	535923	96.51	1.8889
1	536480	96.61	1.8889
1	537037	96.71	1.8889
1	537594	96.81	1.8889
1	538151	96.91	1.8889
1	538717	97.01	1.8889
1	539274	97.11	1.8889
1	539831	97.21	1.8889
1	540388	97.31	1.8889
1	540945	97.41	1.8889
1	541502	97.51	1.8889
1	542059	97.61	1.8889
1	542616	97.71	1.8889
1	543173	97.81	1.8889
1	543730	97.91	1.8889
1	544296	98.01	1.8889
1	544853	98.11	1.8889
1	545410	98.21	1.8889
1	545967	98.31	1.8889
1	546524	98.41	1.8889
1	547081	98.51	1.8889
1	547638	98.61	1.8889
1	548195	98.71	1.8889
1	548752	98.81	1.8889
1	549309	98.91	1.8889
1	549875	99.01	1.8889
1	550432	99.11	1.8889
1	550989	99.21	1.8889
1	551546	99.31	1.8889
1	552103	99.41	1.8889
1	552660	99.51	1.8889
1	553217	99.61	1.8889
1	553774	99.71	1.8889
1	554331	99.81	1.8889
1	554888	99.91	1.8889
2	113	1.11	0
2	670	1.21	0
2	1227	1.31	0
2	1784	1.41	0
2	2341	1.51	0
2	2898	1.61	0
2	3455	1.71	0
2	4012	1.81	0
2	4569	1.91	0
2	5135	2.01	0
2	5692	2.11	0
2	6249	2.21	0
2	6806	2.31	0
2	7363	2.41	0
2	7920	2.51	0
2	8477	2.61	0
2	9034	2.71	0
2	9591	2.81	0
2	10148	2.91	0
2	10714	3.01	0
2	11271	3.11	0
2	11828	3.21	0
2	12385	3.31	0
2	12942	3.41	0
2	13499	3.51	0
2	14056	3.61	0
2	14613	3.71	0
2	15170	3.81	0
2	15727	3.91	0
2	16293	4.01	0
2	16850	4.11	0
2	17407	4.21	0
2	17964	4.31	0
2	18521	4.41	0
2	19078	4.51	0
2	19635	4.61	0
2	20192	4.71	0
2	20749	4.81	0
2	21306	4.91	0
2	21872	5.01	0
2	22429	5.11	0
2	22986	5.21	0
2	23543	5.31	0
2	24100	5.41	0
2	24657	5.51	0
2	25214	5.61	0
2	25771	5.71	0
2	26328	5.81	0
2	26885	5.91	0
2	27451	6.01	0
2	28008	6.11	0
2	28565	6.21	0
2	29122	6.31	0
2	29679	6.41	0
2	30236	6.51	0
2	30793	6.61	0
2	31350	6.71	0
2	31907	6.81	0
2	32464	6.91	0
2	33030	7.01	0
2	33587	7.11	0
2	34144	7.21	0
2	34701	7.31	0
2	35258	7.41	0
2	35815	7.51	0
2	36372	7.61	0
2	36929	7.71	0
2	37486	7.81	0
2	38043	7.91	0
2	38609	8.01	0
2	39166	8.11	0
2	39723	8.21	0
2	40280	8.31	0
2	40837	8.41	0
2	41394	8.51	0
2	41951	8.61	0
2	42508	8.71	0
2	43065	8.81	0
2	43622	8.91	0
2	44188	9.01	0
2	44745	9.11	0
2	45302	9.21	0
2	45859	9.31	0
2	46416	9.41	0
2	46973	9.51	0
2	47530	9.61	0
2	48087	9.71	0
2	48644	9.81	0
2	49201	9.91	0
2	49852	10.01	0
2	50416	10.11	0
2	50980	10.21	0
2	51544	10.31	0
2	52108	10.41	0
2	52672	10.51	0
2	53236	10.61	0
2	53800	10.71	0
2	54364	10.81	0
2	54928	10.91	0
2	55501	11.01	0
2	56065	11.11	0
2	56629	11.21	0
2	57193	11.31	0
2	57757	11.41	0
2	58321	11.51	0
2	58885	11.61	0
2	59449	11.71	0
2	60013	11.81	0
2	60577	11.91	0
2	61150	12.01	0
2	61714	12.11	0
2	62278	12.21	0
2	62842	12.31	0
2	63406	12.41	0
2	63970	12.51	0
2	64534	12.61	0
2	65098	12.71	0
2	65662	12.81	0
2	66226	12.91	0
2	66799	13.01	0
2	67363	13.11	0
2	67927	13.21	0
2	68491	13.31	0
2	69055	13.41	0
2	69619	13.51	0
2	70183	13.61	0
2	70747	13.71	0
2	71311	13.81	0
2	71875	13.91	0
2	72448	14.01	0
2	73012	14.11	0
2	73576	14.21	0
2	74140	14.31	0
2	74704	14.41	0
2	75268	14.51	0
2	75832	14.61	0
2	76396	14.71	0
2	76960	14.81	0
2	77524	14.91	0
2	78097	15.01	0
2	78661	15.11	0
2	79225	15.21	0
2	79789	15.31	0
2	80353	15.41	0
2	80917	15.51	0
2	81481	15.61	0
2	82045	15.71	0
2	82609	15.81	0
2	83173	15.91	0
2	83746	16.01	0
2	84310	16.11	0
2	84874	16.21	0
2	85438	16.31	0
2	86002	16.41	0
2	86566	16.51	0
2	87130	16.61	0
2	87694	16.71	0
2	88258	16.81	0
2	88822	16.91	0
2	89395	17.01	0
2	89959	17.11	0
2	90523	17.21	0
2	91087	17.31	0
2	91651	17.41	0
2	92215	17.51	0
2	92779	17.61	0
2	93343	17.71	0
2	93907	17.81	0
2	94471	17.91	0
2	95044	18.01	0
2	95608	18.11	0
2	96172	18.21	0
2	96736	18.31	0
2	97300	18.41	0
2	97864	18.51	0
2	98428	18.61	0
2	98992	18.71	0
2	99556	18.81	0
2	100120	18.91	0
2	100693	19.01	0
2	101257	19.11	0
2	101821	19.21	0
2	102385	19.31	0
2	102949	19.41	0
2	103513	19.51	0
2	104077	19.61	0
2	104641	19.71	0
2	105205	19.81	0
2	105769	19.91	0
2	106342	20.01	0
2	106906	20.11	0
2	107470	20.21	0
2	108034	20.31	0
2	108598	20.41	0
2	109162	20.51	0
2	109726	20.61	0
2	110290	20.71	0
2	110854	20.81	0
2	111418	20.91	0
2	111991	21.01	0
2	112555	21.11	0
2	113119	21.21	0
2	113683	21.31	0
2	114247	21.41	0
2	114811	21.51	0
2	115375	21.61	0
2	115939	21.71	0
2	116503	21.81	0
2	117067	21.91	0
2	117640	22.01	0
2	118204	22.11	0
2	118768	22.21	0
2	119332	22.31	0
2	119896	22.41	0
2	120460	22.51	0
2	121024	22.61	0
2	121588	22.71	0
2	122152	22.81	0
2	122716	22.91	0
2	123289	23.01	0
2	123853	23.11	0
2	124417	23.21	0
2	124981	23.31	0
2	125545	23.41	0
2	126109	23.51	0
2	126673	23.61	0
2	127237	23.71	0
2	127801	23.81	0
2	128365	23.91	0
2	128938	24.01	0
2	129502	24.11	0
2	130066	24.21	0
2	130630	24.31	0
2	131194	24.41	0
2	131758	24.51	0
2	132322	24.61	0
2	132886	24.71	0
2	133450	24.81	0
2	134014	24.91	0
2	134587	25.01	0
2	135151	25.11	0
2	135715	25.21	0
2	136279	25.31	0
2	136843	25.41	0
2	137407	25.51	0
2	137971	25.61	0
2	138535	25.71	0
2	139099	25.81	0
2	139663	25.91	0
2	140236	26.01	0
2	140800	26.11	0
2	141364	26.21	0
2	141928	26.31	0
2	142492	26.41	0
2	143056	26.51	0
2	143620	26.61	0
2	144184	26.71	0
2	144748	26.81	0
2	145312	26.91	0
2	145885	27.01	0
2	146449	27.11	0
2	147013	27.21	0
2	147577	27.31	0
2	148141	27.41	0
2	148705	27.51	0
2	149269	27.61	0
2	149833	27.71	0
2	150397	27.81	0
2	150961	27.91	0
2	151534	28.01	0
2	152098	28.11	0
2	152662	28.21	0
2	153226	28.31	0
2	153790	28.41	0
2	154354	28.51	0
2	154918	28.61	0
2	155482	28.71	0
2	156046	28.81	0
2	156610	28.91	0
2	157183	29.01	0
2	157747	29.11	0
2	158311	29.21	0
2	158968	29.31	0
2	159531	29.41	0
2	160094	29.51	0
2	160657	29.61	0
2	161220	29.71	0
2	161783	29.81	0
2	162346	29.91	0
2	162918	30.01	0
2	163481	30.11	0
2	164044	30.21	0
2	164607	30.31	0
2	165170	30.41	0
2	165733	30.51	0
2	166296	30.61	0
2	166859	30.71	0
2	167422	30.81	0
2	167985	30.91	0
2	168557	31.01	0
2	169120	31.11	0
2	169683	31.21	0
2	170246	31.31	0
2	170809	31.41	0
2	171372	31.51	0
2	171935	31.61	0
2	172498	31.71	0
2	173061	31.81	0
2	173624	31.91	0
2	174196	32.01	0
2	174759	32.11	0
2	175322	32.21	0
2	175885	32.31	0
2	176448	32.41	0
2	177011	32.51	0
2	177574	32.61	0
2	178137	32.71	0
2	178700	32.81	0
2	179263	32.91	0
2	179835	33.01	0
2	180398	33.11	0
2	180961	33.21	0
2	181524	33.31	0
2	182087	33.41	0
2	182743	33.51	0
2	183305	33.61	0
2	183867	33.71	0
2	184429	33.81	0
2	184991	33.91	0
2	185562	34.01	0
2	186124	34.11	0
2	186686	34.21	0
2	187248	34.31	0
2	187810	34.41	0
2	188372	34.51	0
2	188934	34.61	0
2	189496	34.71	0
2	190058	34.81	0
2	190620	34.91	0
2	191191	35.01	0
2	191753	35.11	0
2	192315	35.21	0
2	192877	35.31	0
2	193439	35.41	0
2	194001	35.51	0
2	194563	35.61	0
2	195125	35.71	0
2	195687	35.81	0
2	196249	35.91	0
2	196820	36.01	0
2	197382	36.11	0
2	197944	36.21	0
2	198506	36.31	0
2	199068	36.41	0
2	199630	36.51	0
2	200192	36.61	0
2	200754	36.71	0
2	201316	36.81	0
2	201878	36.91	0
2	202449	37.01	0
2	203011	37.11	0
2	203573	37.21	0
2	204135	37.31	0
2	204697	37.41	0
2	205352	37.51	0
2	205913	37.61	0
2	206474	37.71	0
2	207035	37.81	0
2	207596	37.91	0
2	208166	38.01	0
2	208727	38.11	0
2	209288	38.21	0
2	209849	38.31	0
2	210410	38.41	0
2	210971	38.51	0
2	211532	38.61	0
2	212093	38.71	0
2	212654	38.81	0
2	213215	38.91	0
2	213785	39.01	0
2	214346	39.11	0
2	214907	39.21	0
2	215468	39.31	0
2	216029	39.41	0
2	216590	39.51	0
2	217151	39.61	0
2	217712	39.71	0
2	218273	39.81	0
2	218834	39.91	0
2	219404	40.01	0
2	219965	40.11	0
2	220526	40.21	0
2	221087	40.31	0
2	221648	40.41	0
2	222209	40.51	0
2	222770	40.61	0
2	223331	40.71	0
2	223892	40.81	0
2	224453	40.91	0
2	225023	41.01	0
2	225584	41.11	0
2	226145	41.21	0
2	226799	41.31	0
2	227359	41.41	0
2	227919	41.51	0
2	228479	41.61	0
2	229039	41.71	0
2	229599	41.81	0
2	230159	41.91	0
2	230728	42.01	0
2	231288	42.11	0
2	231848	42.21	0
2	232408	42.31	0
2	232968	42.41	0
2	233528	42.51	0
2	234088	42.61	0
2	234648	42.71	0
2	235208	42.81	0
2	235768	42.91	0
2	236337	43.01	0
2	236897	43.11	0
2	237457	43.21	0
2	238017	43.31	0
2	238577	43.41	0
2	239137	43.51	0
2	239697	43.61	0
2	240257	43.71	0
2	240817	43.81	0
2	241377	43.91	0
2	241946	44.01	0
2	242506	44.11	0
2	243066	44.21	0
2	243626	44.31	0
2	244186	44.41	0
2	244746	44.51	0
2	245306	44.61	0
2	245866	44.71	0
2	246426	44.81	0
2	246986	44.91	0
2	247648	45.01	0
2	248207	45.11	0
2	248766	45.21	0
2	249325	45.31	0
2	249884	45.41	0
2	250443	45.51	0
2	251002	45.61	0
2	251561	45.71	0
2	252120	45.81	0
2	252679	45.91	0
2	253247	46.01	0
2	253806	46.11	0
2	254365	46.21	0
2	254924	46.31	0
2	255483	46.41	0
2	256042	46.51	0
2	256601	46.61	0
2	257160	46.71	0
2	257719	46.81	0
2	258278	46.91	0
2	258846	47.01	0
2	259405	47.11	0
2	259964	47.21	0
2	260523	47.31	0
2	261082	47.41	0
2	261641	47.51	0
2	262200	47.61	0
2	262759	47.71	0
2	263318	47.81	0
2	263877	47.91	0
2	264445	48.01	0
2	265004	48.11	0
2	265563	48.21	0
2	266122	48.31	0
2	266681	48.41	0
2	267240	48.51	0
2	267909	48.61	0
2	268467	48.71	0
2	269025	48.81	0
2	269583	48.91	0
2	270150	49.01	0
2	270708	49.11	0
2	271266	49.21	0
2	271824	49.31	0
2	272382	49.41	0
2	272940	49.51	0
2	273498	49.61	0
2	274056	49.71	0
2	274614	49.81	0
2	275172	49.91	0
2	275739	50.01	0
2	276297	50.11	0
2	276855	50.21	0
2	277413	50.31	0
2	277971	50.41	0
2	278529	50.51	0
2	279087	50.61	0
2	279645	50.71	0
2	280203	50.81	0
2	280761	50.91	0
2	281328	51.01	0
2	281886	51.11	0
2	282444	51.21	0
2	283002	51.31	0
2	283560	51.41	0
2	284118	51.51	0
2	284676	51.61	0
2	285234	51.71	0
2	285792	51.81	0
2	286350	51.91	0
2	286917	52.01	0
2	288219	52.11	0
2	288776	52.21	0
2	289333	52.31	0
2	289890	52.41	0
2	290447	52.51	0
2	291004	52.61	0
2	291561	52.71	0
2	292118	52.81	0
2	292675	52.91	0
2	293241	53.01	0
2	293798	53.11	0
2	294355	53.21	0
2	294912	53.31	0
2	295469	53.41	0
2	296026	53.51	0
2	296583	53.61	0
2	297140	53.71	0
2	297697	53.81	0
2	298254	53.91	0
2	298820	54.01	0
2	299377	54.11	0
2	299934	54.21	0
2	300491	54.31	0
2	301048	54.41	0
2	301605	54.51	0
2	302162	54.61	0
2	302719	54.71	0
2	303276	54.81	0
2	303833	54.91	0
2	304399	55.01	0
2	304956	55.11	0
2	305513	55.21	0
2	306070	55.31	0
2	306627	55.41	0
2	307184	55.51	0
2	307741	55.61	0
2	308298	55.71	0
2	308855	55.81	0
2	309412	55.91	0
2	309978	56.01	0
2	310535	56.11	0
2	311092	56.21	0
2	311649	56.31	0
2	312206	56.41	0
2	312763	56.51	0
2	313320	56.61	0
2	313877	56.71	0
2	314434	56.81	0
2	314991	56.91	0
2	315557	57.01	0
2	316114	57.11	0
2	316671	57.21	0
2	317228	57.31	0
2	317785	57.41	0
2	318342	57.51	0
2	318899	57.61	0
2	319456	57.71	0
2	320013	57.81	0
2	320570	57.91	0
2	321136	58.01	0
2	321693	58.11	0
2	322250	58.21	0
2	322807	58.31	0
2	323364	58.41	0
2	323921	58.51	0
2	324478	58.61	0
2	325035	58.71	0
2	325592	58.81	0
2	326149	58.91	0
2	326715	59.01	0
2	327272	59.11	0
2	327829	59.21	0
2	328386	59.31	0
2	328943	59.41	0
2	329500	59.51	0
2	330057	59.61	0
2	330614	59.71	0
2	331171	59.81	0
2	331728	59.91	0
2	332294	60.01	0
2	332851	60.11	0
2	333408	60.21	0
2	333965	60.31	0
2	334522	60.41	0
2	335079	60.51	0
2	335636	60.61	0
2	336193	60.71	0
2	336750	60.81	0
2	337307	60.91	0
2	337873	61.01	0
2	338430	61.11	0
2	338987	61.21	0
2	339544	61.31	0
2	340101	61.41	0
2	340658	61.51	0
2	341215	61.61	0
2	341772	61.71	0
2	342329	61.81	0
2	342886	61.91	0
2	343452	62.01	0
2	344009	62.11	0
2	344566	62.21	0
2	345123	62.31	0
2	345680	62.41	0
2	346237	62.51	0
2	346794	62.61	0
2	347351	62.71	0
2	347908	62.81	0
2	348465	62.91	0
2	349031	63.01	0
2	349588	63.11	0
2	350145	63.21	0
2	350702	63.31	0
2	351259	63.41	0
2	351816	63.51	0
2	352373	63.61	0
2	352930	63.71	0
2	353487	63.81	0
2	354044	63.91	0
2	354610	64.01	0
2	355167	64.11	0
2	355724	64.21	0
2	356281	64.31	0
2	356838	64.41	0
2	357395	64.51	0
2	357952	64.61	0
2	358509	64.71	0
2	359066	64.81	0
2	359623	64.91	0
2	360189	65.01	0
2	360746	65.11	0
2	361303	65.21	0
2	361860	65.31	0
2	362417	65.41	0
2	362974	65.51	0
2	363531	65.61	0
2	364088	65.71	0
2	364645	65.81	0
2	365202	65.91	0
2	365768	66.01	0
2	366325	66.11	0
2	366882	66.21	0
2	367439	66.31	0
2	367996	66.41	0
2	368553	66.51	0
2	369110	66.61	0
2	369667	66.71	0
2	370224	66.81	0
2	370781	66.91	0
2	371347	67.01	0
2	371904	67.11	0
2	372461	67.21	0
2	373018	67.31	0
2	373575	67.41	0
2	374132	67.51	0
2	374689	67.61	0
2	375246	67.71	0
2	375803	67.81	0
2	376360	67.91	0
2	376926	68.01	0
2	377483	68.11	0
2	378040	68.21	0
2	378597	68.31	0
2	379154	68.41	0
2	379711	68.51	0
2	380268	68.61	0
2	380825	68.71	0
2	381382	68.81	0
2	381939	68.91	0
2	382505	69.01	0
2	383062	69.11	0
2	383619	69.21	0
2	384176	69.31	0
2	384733	69.41	0
2	385290	69.51	0
2	385847	69.61	0
2	386404	69.71	0
2	386961	69.81	0
2	387518	69.91	0
2	388084	70.01	0
2	388641	70.11	0
2	389198	70.21	0
2	389755	70.31	0
2	390312	70.41	0
2	390869	70.51	0
2	391426	70.61	0
2	391983	70.71	0
2	392540	70.81	0
2	393097	70.91	0
2	393663	71.01	0
2	394220	71.11	0
2	394777	71.21	0
2	395334	71.31	0
2	395891	71.41	0
2	396448	71.51	0
2	397005	71.61	0
2	397562	71.71	0
2	398119	71.81	0
2	398676	71.91	0
2	399242	72.01	0
2	399799	72.11	0
2	400356	72.21	0
2	400913	72.31	0
2	401470	72.41	0
2	402027	72.51	0
2	402584	72.61	0
2	403141	72.71	0
2	403698	72.81	0
2	404255	72.91	0
2	404821	73.01	0
2	405378	73.11	0
2	405935	73.21	0
2	406492	73.31	0
2	407049	73.41	0
2	407606	73.51	0
2	408163	73.61	0
2	408720	73.71	0
2	409277	73.81	0
2	409834	73.91	0
2	410400	74.01	0
2	410957	74.11	0
2	411514	74.21	0
2	412071	74.31	0
2	412628	74.41	0
2	413185	74.51	0
2	413742	74.61	0
2	414299	74.71	0
2	414856	74.81	0
2	415413	74.91	0
2	415979	75.01	0
2	416536	75.11	0
2	417093	75.21	0
2	417650	75.31	0
2	418207	75.41	0
2	418764	75.51	0
2	419321	75.61	0
2	419878	75.71	0
2	420435	75.81	0
2	420992	75.91	0
2	421558	76.01	0
2	422115	76.11	0
2	422672	76.21	0
2	423229	76.31	0
2	423786	76.41	0
2	424343	76.51	0
2	424900	76.61	0
2	425457	76.71	0
2	426014	76.81	0
2	426571	76.91	0
2	427137	77.01	0
2	427694	77.11	0
2	428251	77.21	0
2	428808	77.31	0
2	429365	77.41	0
2	429922	77.51	0
2	430479	77.61	0
2	431036	77.71	0
2	431593	77.81	0
2	432150	77.91	0
2	432716	78.01	0
2	433273	78.11	0
2	433830	78.21	0
2	434387	78.31	0
2	434944	78.41	0
2	435501	78.51	0
2	436058	78.61	0
2	436615	78.71	0
2	437172	78.81	0
2	437729	78.91	0
2	438295	79.01	0
2	438852	79.11	0
2	439409	79.21	0
2	439966	79.31	0
2	440523	79.41	0
2	441080	79.51	0
2	441637	79.61	0
2	442194	79.71	0
2	442751	79.81	0
2	443308	79.91	0
2	443874	80.01	0
2	444431	80.11	0
2	444988	80.21	0
2	445545	80.31	0
2	446102	80.41	0
2	446659	80.51	0
2	447216	80.61	0
2	447773	80.71	0
2	448330	80.81	0
2	448887	80.91	0
2	449453	81.01	0
2	450010	81.11	0
2	450567	81.21	0
2	451124	81.31	0
2	451681	81.41	0
2	452238	81.51	0
2	452795	81.61	0
2	453352	81.71	0
2	453909	81.81	0
2	454466	81.91	0
2	455032	82.01	0
2	455589	82.11	0
2	456146	82.21	0
2	456703	82.31	0
2	457260	82.41	0
2	457817	82.51	0
2	458374	82.61	0
2	458931	82.71	0
2	459488	82.81	0
2	460045	82.91	0
2	460611	83.01	0
2	461168	83.11	0
2	461725	83.21	0
2	462282	83.31	0
2	462839	83.41	0
2	463396	83.51	0
2	463953	83.61	0
2	464510	83.71	0
2	465067	83.81	0
2	465624	83.91	0
2	466190	84.01	0
2	466747	84.11	0
2	467304	84.21	0
2	467861	84.31	0
2	468418	84.41	0
2	468975	84.51	0
2	469532	84.61	0
2	470089	84.71	0
2	470646	84.81	0
2	471203	84.91	0
2	471769	85.01	0
2	472326	85.11	0
2	472883	85.21	0
2	473440	85.31	0
2	473997	85.41	0
2	474554	85.51	0
2	475111	85.61	0
2	475668	85.71	0
2	476225	85.81	0
2	476782	85.91	0
2	477348	86.01	0
2	477905	86.11	0
2	478462	86.21	0
2	479019	86.31	0
2	479576	86.41	0
2	480133	86.51	0
2	480690	86.61	0
2	481247	86.71	0
2	481804	86.81	0
2	482361	86.91	0
2	482927	87.01	0
2	483484	87.11	0
2	484041	87.21	0
2	484598	87.31	0
2	485155	87.41	0
2	485712	87.51	0
2	486269	87.61	0
2	486826	87.71	0
2	487383	87.81	0
2	487940	87.91	0
2	488506	88.01	0
2	489063	88.11	0
2	489620	88.21	0
2	490177	88.31	0
2	490734	88.41	0
2	491291	88.51	0
2	491848	88.61	0
2	492405	88.71	0
2	492962	88.81	0
2	493519	88.91	0
2	494085	89.01	0
2	494642	89.11	0
2	495199	89.21	0
2	495756	89.31	0
2	496313	89.41	0
2	496870	89.51	0
2	497427	89.61	0
2	497984	89.71	0
2	498541	89.81	0
2	499098	89.91	0
2	499664	90.01	0
2	500221	90.11	0
2	500778	90.21	0
2	501335	90.31	0
2	501892	90.41	0
2	502449	90.51	0
2	503006	90.61	0
2	503563	90.71	0
2	504120	90.81	0
2	504677	90.91	0
2	505243	91.01	0
2	505800	91.11	0
2	506357	91.21	0
2	506914	91.31	0
2	507471	91.41	0
2	508028	91.51	0
2	508585	91.61	0
2	509142	91.71	0
2	509699	91.81	0
2	510256	91.91	0
2	510822	92.01	0
2	511379	92.11	0
2	511936	92.21	0
2	512493	92.31	0
2	513050	92.41	0
2	513607	92.51	0
2	514164	92.61	0
2	514721	92.71	0
2	515278	92.81	0
2	515835	92.91	0
2	516401	93.01	0
2	516958	93.11	0
2	517515	93.21	0
2	518072	93.31	0
2	518629	93.41	0
2	519186	93.51	0
2	519743	93.61	0
2	520300	93.71	0
2	520857	93.81	0
2	521414	93.91	0
2	521980	94.01	0
2	522537	94.11	0
2	523094	94.21	0
2	523651	94.31	0
2	524208	94.41	0
2	524765	94.51	0
2	525322	94.61	0
2	525879	94.71	0
2	526436	94.81	0
2	526993	94.91	0
2	527559	95.01	0
2	528116	95.11	0
2	528673	95.21	0
2	529230	95.31	0
2	529787	95.41	0
2	530344	95.51	0
2	530901	95.61	0
2	531458	95.71	0
2	532015	95.81	0
2	532572	95.91	0
2	533138	96.01	0
2	533695	96.11	0
2	534252	96.21	0
2	534809	96.31	0
2	535366	96.41	0
2	535923	96.51	0
2	536480	96.61	0
2	537037	96.71	0
2	537594	96.81	0
2	538151	96.91	0
2	538717	97.01	0
2	539274	97.11	0
2	539831	97.21	0
2	540388	97.31	0
2	540945	97.41	0
2	541502	97.51	0
2	542059	97.61	0
2	542616	97.71	0
2	543173	97.81	0
2	543730	97.91	0
2	544296	98.01	0
2	544853	98.11	0
2	545410	98.21	0
2	545967	98.31	0
2	546524	98.41	0
2	547081	98.51	0
2	547638	98.61	0
2	548195	98.71	0
2	548752	98.81	0
2	549309	98.91	0
2	549875	99.01	0
2	550432	99.11	0
2	550989	99.21	0
2	551546	99.31	0
2	552103	99.41	0
2	552660	99.51	0
2	553217	99.61	0
2	553774	99.71	0
2	554331	99.81	0
2	554888	99.91	0
3	113	1.11	0.000179096
3	670	1.21	0.000340852
3	1227	1.31	0.000467435
3	1784	1.41	0.000562893
3	2341	1.51	0.000631106
3	2898	1.61	0.000675745
3	3455	1.71	0.000700245
3	4012	1.81	0.000707784
3	4569	1.91	0.000701273
3	5135	2.01	0.000683354
3	5692	2.11	0.000656398
3	6249	2.21	0.000622512
3	6806	2.31	0.000583548
3	7363	2.41	0.000541117
3	7920	2.51	0.000496604
3	8477	2.61	0.000451181
3	9034	2.71	0.000405825
3	9591	2.81	0.00036134
3	10148	2.91	0.000318365
3	10714	3.01	0.0002774
3	11271	3.11	0.00023882
3	11828	3.21	0.000202887
3	12385	3.31	0.00016977
3	12942	3.41	0.000139558
3	13499	3.51	0.000112271
3	14056	3.61	8.78717e-05
3	14613	3.71	6.628e-05
3	15170	3.81	4.73785e-05
3	15727	3.91	3.1023e-05
3	16293	4.01	1.70493e-05
3	16850	4.11	5.28023e-06
3	17407	4.21	-4.46922e-06
3	17964	4.31	-1.2387e-05
3	18521	4.41	-1.86602e-05
3	19078	4.51	-2.34717e-05
3	19635	4.61	-2.69978e-05
3	20192	4.71	-2.94062e-05
3	20749	4.81	-3.08545e-05
3	21306	4.91	-3.14892e-05
3	21872	5.01	-3.14451e-05
3	22429	5.11	-3.0845e-05
3	22986	5.21	-2.97994e-05
3	23543	5.31	-2.84072e-05
3	24100	5.41	-2.67556e-05
3	24657	5.51	-2.49208e-05
3	25214	5.61	-2.29687e-05
3	25771	5.71	-2.09553e-05
3	26328	5.81	-1.89277e-05
3	26885	5.91	-1.6925e-05
3	27451	6.01	-1.49784e-05
3	28008	6.11	-1.31129e-05
3	28565	6.21	-1.13474e-05
3	29122	6.31	-9.69553e-06
3	29679	6.41	-8.16651e-06
3	30236	6.51	-6.76571e-06
3	30793	6.61	-5.49522e-06
3	31350	6.71	-4.35441e-06
3	31907	6.81	-3.34045e-06
3	32464	6.91	-2.44874e-06
3	33030	7.01	-1.6733e-06
3	33587	7.11	-1.00716e-06
3	34144	7.21	-4.42628e-07
3	34701	7.31	2.84224e-08
3	35258	7.41	4.14339e-07
3	35815	7.51	7.23492e-07
3	36372	7.61	9.6413e-07
3	36929	7.71	1.14424e-06
3	37486	7.81	1.27148e-06
3	38043	7.91	1.35305e-06
3	38609	8.01	1.3957e-06
3	39166	8.11	1.40565e-06
3	39723	8.21	1.3886e-06
3	40280	8.31	1.34971e-06
3	40837	8.41	1.2936e-06
3	41394	8.51	1.22437e-06
3	41951	8.61	1.14561e-06
3	42508	8.71	1.06046e-06
3	43065	8.81	9.71582e-07
3	43622	8.91	8.81246e-07
3	44188	9.01	7.91334e-07
3	44745	9.11	7.03381e-07
3	45302	9.21	6.18613e-07
3	45859	9.31	5.37979e-07
3	46416	9.41	4.62183e-07
3	46973	9.51	3.91714e-07
3	47530	9.61	3.26878e-07
3	48087	9.71	2.67827e-07
3	48644	9.81	2.14581e-07
3	49201	9.91	1.67052e-07
3	49852	10.01	1.25066e-07
3	50416	10.11	8.83794e-08
3	50980	10.21	5.66978e-08
3	51544	10.31	2.96922e-08
3	52108	10.41	7.00453e-09
3	52672	10.51	-1.17325e-08
3	53236	10.61	-2.68933e-08
3	53800	10.71	-3.88482e-08
3	54364	10.81	-4.79581e-08
3	54928	10.91	-5.45704e-08
3	55501	11.01	-5.90177e-08
3	56065	11.11	-6.16069e-08
3	56629	11.21	-6.26265e-08
3	57193	11.31	-6.23395e-08
3	57757	11.41	-6.09859e-08
3	58321	11.51	-5.87811e-08
3	58885	11.61	-5.59183e-08
3	59449	11.71	-5.25674e-08
3	60013	11.81	-4.88761e-08
3	60577	11.91	-4.4971e-08
3	61150	12.01	-4.09599e-08
3	61714	12.11	-3.69354e-08
3	62278	12.21	-3.29713e-08
3	62842	12.31	-2.9128e-08
3	63406	12.41	-2.54531e-08
3	63970	12.51	-2.19821e-08
3	64534	12.61	-1.87399e-08
3	65098	12.71	-1.57428e-08
3	65662	12.81	-1.30029e-08
3	66226	12.91	-1.05217e-08
3	66799	13.01	-8.29772e-09
3	67363	13.11	-6.32454e-09
3	67927	13.21	-4.59224e-09
3	68491	13.31	-3.08802e-09
3	69055	13.41	-1.79838e-09
3	69619	13.51	-7.08411e-10
3	70183	13.61	1.98241e-10
3	70747	13.71	9.37916e-10
3	71311	13.81	1.52767e-09
3	71875	13.91	1.98384e-09
3	72448	14.01	2.32276e-09
3	73012	14.11	2.55937e-09
3	73576	14.21	2.70788e-09
3	74140	14.31	2.78249e-09
3	74704	14.41	2.79243e-09
3	75268	14.51	2.7498e-09
3	75832	14.61	2.66525e-09
3	76396	14.71	2.54872e-09
3	76960	14.81	2.40803e-09
3	77524	14.91	2.24887e-09
3	78097	15.01	2.07763e-09
3	78661	15.11	1.89999e-09
3	79225	15.21	1.72236e-09
3	79789	15.31	1.54472e-09
3	80353	15.41	1.37064e-09
3	80917	15.51	1.20295e-09
3	81481	15.61	1.04379e-09
3	82045	15.71	8.94573e-10
3	82609	15.81	7.56017e-10
3	83173	15.91	6.29541e-10
3	83746	16.01	5.13012e-10
3	84310	16.11	4.09273e-10
3	84874	16.21	3.16902e-10
3	85438	16.31	2.3519e-10
3	86002	16.41	1.63425e-10
3	86566	16.51	1.02318e-10
3	87130	16.61	4.9738e-11
3	87694	16.71	5.68434e-12
3	88258	16.81	-3.05533e-11
3	88822	16.91	-5.8975e-11
3	89395	17.01	-8.10019e-11
3	89959	17.11	-9.80549e-11
3	90523	17.21	-1.11555e-10
3	91087	17.31	-1.18661e-10
3	91651	17.41	-1.23634e-10
3	92215	17.51	-1.23634e-10
3	92779	17.61	-1.23634e-10
3	93343	17.71	-1.21503e-10
3	93907	17.81	-1.14397e-10
3	94471	17.91	-1.07292e-10
3	95044	18.01	-1.00187e-10
3	95608	18.11	-9.30811e-11
3	96172	18.21	-8.59757e-11
3	96736	18.31	-7.88702e-11
3	97300	18.41	-7.17648e-11
3	97864	18.51	-6.46594e-11
3	98428	18.61	-5.7554e-11
3	98992	18.71	-5.04485e-11
3	99556	18.81	-4.33431e-11
3	100120	18.91	-3.62377e-11
3	100693	19.01	-2.91323e-11
3	101257	19.11	-2.20268e-11
3	101821	19.21	-1.7053e-11
3	102385	19.31	-1.49214e-11
3	102949	19.41	-1.35003e-11
3	103513	19.51	-1.27898e-11
3	104077	19.61	-1.13687e-11
3	104641	19.71	-9.9476e-12
3	105205	19.81	-9.23706e-12
3	105769	19.91	-8.52651e-12
3	106342	20.01	-7.81597e-12
3	106906	20.11	-7.10543e-12
3	107470	20.21	-6.39488e-12
3	108034	20.31	-5.68434e-12
3	108598	20.41	-4.9738e-12
3	109162	20.51	-4.26326e-12
3	109726	20.61	-4.26326e-12
3	110290	20.71	-3.55271e-12
3	110854	20.81	-3.55271e-12
3	111418	20.91	-2.84217e-12
3	111991	21.01	-2.84217e-12
3	112555	21.11	-2.84217e-12
3	113119	21.21	-2.13163e-12
3	113683	21.31	-2.13163e-12
3	114247	21.41	-2.13163e-12
3	114811	21.51	-1.42109e-12
3	115375	21.61	-1.42109e-12
3	115939	21.71	-1.42109e-12
3	116503	21.81	-1.42109e-12
3	117067	21.91	-1.42109e-12
3	117640	22.01	-7.10543e-13
3	118204	22.11	-7.10543e-13
3	118768	22.21	-7.10543e-13
3	119332	22.31	-7.10543e-13
3	119896	22.41	-7.10543e-13
3	120460	22.51	-7.10543e-13
3	121024	22.61	-7.10543e-13
3	121588	22.71	-7.10543e-13
3	122152	22.81	-7.10543e-13
3	122716	22.91	-7.10543e-13
3	123289	23.01	0
3	123853	23.11	0
3	124417	23.21	0
3	124981	23.31	0
3	125545	23.41	0
3	126109	23.51	0
3	126673	23.61	0
3	127237	23.71	0
3	127801	23.81	0
3	128365	23.91	0
3	128938	24.01	0
3	129502	24.11	0
3	130066	24.21	0
3	130630	24.31	0
3	131194	24.41	0
3	131758	24.51	0
3	132322	24.61	0
3	132886	24.71	0
3	133450	24.81	0
3	134014	24.91	0
3	134587	25.01	0
3	135151	25.11	0
3	135715	25.21	0
3	136279	25.31	0
3	136843	25.41	0
3	137407	25.51	0
3	137971	25.61	0
3	138535	25.71	0
3	139099	25.81	0
3	139663	25.91	0
3	140236	26.01	0
3	140800	26.11	0
3	141364	26.21	0
3	141928	26.31	0
3	142492	26.41	0
3	143056	26.51	0
3	143620	26.61	0
3	144184	26.71	0
3	144748	26.81	0
3	145312	26.91	0
3	145885	27.01	0
3	146449	27.11	0
3	147013	27.21	0
3	147577	27.31	0
3	148141	27.41	0
3	148705	27.51	0
3	149269	27.61	0
3	149833	27.71	0
3	150397	27.81	0
3	150961	27.91	0
3	151534	28.01	0
3	152098	28.11	0
3	152662	28.21	0
3	153226	28.31	0
3	153790	28.41	0
3	154354	28.51	0
3	154918	28.61	0
3	155482	28.71	0
3	156046	28.81	0
3	156610	28.91	0
3	157183	29.01	0
3	157747	29.11	0
3	158311	29.21	0
3	158968	29.31	0
3	159531	29.41	0
3	160094	29.51	0
3	160657	29.61	0
3	161220	29.71	0
3	161783	29.81	0
3	162346	29.91	0
3	162918	30.01	0
3	163481	30.11	0
3	164044	30.21	0
3	164607	30.31	0
3	165170	30.41	0
3	165733	30.51	0
3	166296	30.61	0
3	166859	30.71	0
3	167422	30.81	0
3	167985	30.91	0
3	168557	31.01	0
3	169120	31.11	0
3	169683	31.21	0
3	170246	31.31	0
3	170809	31.41	0
3	171372	31.51	0
3	171935	31.61	0
3	172498	31.71	0
3	173061	31.81	0
3	173624	31.91	0
3	174196	32.01	0
3	174759	32.11	0
3	175322	32.21	0
3	175885	32.31	0
3	176448	32.41	0
3	177011	32.51	0
3	177574	32.61	0
3	178137	32.71	0
3	178700	32.81	0
3	179263	32.91	0
3	179835	33.01	0
3	180398	33.11	0
3	180961	33.21	0
3	181524	33.31	0
3	182087	33.41	0
3	182743	33.51	0
3	183305	33.61	0
3	183867	33.71	0
3	184429	33.81	0
3	184991	33.91	0
3	185562	34.01	0
3	186124	34.11	0
3	186686	34.21	0
3	187248	34.31	0
3	187810	34.41	0
3	188372	34.51	0
3	188934	34.61	0
3	189496	34.71	0
3	190058	34.81	0
3	190620	34.91	0
3	191191	35.01	0
3	191753	35.11	0
3	192315	35.21	0
3	192877	35.31	0
3	193439	35.41	0
3	194001	35.51	0
3	194563	35.61	0
3	195125	35.71	0
3	195687	35.81	0
3	196249	35.91	0
3	196820	36.01	0
3	197382	36.11	0
3	197944	36.21	0
3	198506	36.31	0
3	199068	36.41	0
3	199630	36.51	0
3	200192	36.61	0
3	200754	36.71	0
3	201316	36.81	0
3	201878	36.91	0
3	202449	37.01	0
3	203011	37.11	0
3	203573	37.21	0
3	204135	37.31	0
3	204697	37.41	0
3	205352	37.51	0
3	205913	37.61	0
3	206474	37.71	0
3	207035	37.81	0
3	207596	37.91	0
3	208166	38.01	0
3	208727	38.11	0
3	209288	38.21	0
3	209849	38.31	0
3	210410	38.41	0
3	210971	38.51	0
3	211532	38.61	0
3	212093	38.71	0
3	212654	38.81	0
3	213215	38.91	0
3	213785	39.01	0
3	214346	39.11	0
3	214907	39.21	0
3	215468	39.31	0
3	216029	39.41	0
3	216590	39.51	0
3	217151	39.61	0
3	217712	39.71	0
3	218273	39.81	0
3	218834	39.91	0
3	219404	40.01	0
3	219965	40.11	0
3	220526	40.21	0
3	221087	40.31	0
3	221648	40.41	0
3	222209	40.51	0
3	222770	40.61	0
3	223331	40.71	0
3	223892	40.81	0
3	224453	40.91	0
3	225023	41.01	0
3	225584	41.11	0
3	226145	41.21	0
3	226799	41.31	0
3	227359	41.41	0
3	227919	41.51	0
3	228479	41.61	0
3	229039	41.71	0
3	229599	41.81	0
3	230159	41.91	0
3	230728	42.01	0
3	231288	42.11	0
3	231848	42.21	0
3	232408	42.31	0
3	232968	42.41	0
3	233528	42.51	0
3	234088	42.61	0
3	234648	42.71	0
3	235208	42.81	0
3	235768	42.91	0
3	236337	43.01	0
3	236897	43.11	0
3	237457	43.21	0
3	238017	43.31	0
3	238577	43.41	0
3	239137	43.51	0
3	239697	43.61	0
3	240257	43.71	0
3	240817	43.81	0
3	241377	43.91	0
3	241946	44.01	0
3	242506	44.11	0
3	243066	44.21	0
3	243626	44.31	0
3	244186	44.41	0
3	244746	44.51	0
3	245306	44.61	0
3	245866	44.71	0
3	246426	44.81	0
3	246986	44.91	0
3	247648	45.01	0
3	248207	45.11	0
3	248766	45.21	0
3	249325	45.31	0
3	249884	45.41	0
3	250443	45.51	0
3	251002	45.61	0
3	251561	45.71	0
3	252120	45.81	0
3	252679	45.91	0
3	253247	46.01	0
3	253806	46.11	0
3	254365	46.21	0
3	254924	46.31	0
3	255483	46.41	0
3	256042	46.51	0
3	256601	46.61	0
3	257160	46.71	0
3	257719	46.81	0
3	258278	46.91	0
3	258846	47.01	0
3	259405	47.11	0
3	259964	47.21	0
3	260523	47.31	0
3	261082	47.41	0
3	261641	47.51	0
3	262200	47.61	0
3	262759	47.71	0
3	263318	47.81	0
3	263877	47.91	0
3	264445	48.01	0
3	265004	48.11	0
3	265563	48.21	0
3	266122	48.31	0
3	266681	48.41	0
3	267240	48.51	0
3	267909	48.61	0
3	268467	48.71	0
3	269025	48.81	0
3	269583	48.91	0
3	270150	49.01	0
3	270708	49.11	0
3	271266	49.21	0
3	271824	49.31	0
3	272382	49.41	0
3	272940	49.51	0
3	273498	49.61	0
3	274056	49.71	0
3	274614	49.81	0
3	275172	49.91	0
3	275739	50.01	0
3	276297	50.11	0
3	276855	50.21	0
3	277413	50.31	0
3	277971	50.41	0
3	278529	50.51	0
3	279087	50.61	0
3	279645	50.71	0
3	280203	50.81	0
3	280761	50.91	0
3	281328	51.01	0
3	281886	51.11	0
3	282444	51.21	0
3	283002	51.31	0
3	283560	51.41	0
3	284118	51.51	0
3	284676	51.61	0
3	285234	51.71	0
3	285792	51.81	0
3	286350	51.91	0
3	286917	52.01	0
3	288219	52.11	0
3	288776	52.21	0
3	289333	52.31	0
3	289890	52.41	0
3	290447	52.51	0
3	291004	52.61	0
3	291561	52.71	0
3	292118	52.81	0
3	292675	52.91	0
3	293241	53.01	0
3	293798	53.11	0
3	294355	53.21	0
3	294912	53.31	0
3	295469	53.41	0
3	296026	53.51	0
3	296583	53.61	0
3	297140	53.71	0
3	297697	53.81	0
3	298254	53.91	0
3	298820	54.01	0
3	299377	54.11	0
3	299934	54.21	0
3	300491	54.31	0
3	301048	54.41	0
3	301605	54.51	0
3	302162	54.61	0
3	302719	54.71	0
3	303276	54.81	0
3	303833	54.91	0
3	304399	55.01	0
3	304956	55.11	0
3	305513	55.21	0
3	306070	55.31	0
3	306627	55.41	0
3	307184	55.51	0
3	307741	55.61	0
3	308298	55.71	0
3	308855	55.81	0
3	309412	55.91	0
3	309978	56.01	0
3	310535	56.11	0
3	311092	56.21	0
3	311649	56.31	0
3	312206	56.41	0
3	312763	56.51	0
3	313320	56.61	0
3	313877	56.71	0
3	314434	56.81	0
3	314991	56.91	0
3	315557	57.01	0
3	316114	57.11	0
3	316671	57.21	0
3	317228	57.31	0
3	317785	57.41	0
3	318342	57.51	0
3	318899	57.61	0
3	319456	57.71	0
3	320013	57.81	0
3	320570	57.91	0
3	321136	58.01	0
3	321693	58.11	0
3	322250	58.21	0
3	322807	58.31	0
3	323364	58.41	0
3	323921	58.51	0
3	324478	58.61	0
3	325035	58.71	0
3	325592	58.81	0
3	326149	58.91	0
3	326715	59.01	0
3	327272	59.11	0
3	327829	59.21	0
3	328386	59.31	0
3	328943	59.41	0
3	329500	59.51	0
3	330057	59.61	0
3	330614	59.71	0
3	331171	59.81	0
3	331728	59.91	0
3	332294	60.01	0
3	332851	60.11	0
3	333408	60.21	0
3	333965	60.31	0
3	334522	60.41	0
3	335079	60.51	0
3	335636	60.61	0
3	336193	60.71	0
3	336750	60.81	0
3	337307	60.91	0
3	337873	61.01	0
3	338430	61.11	0
3	338987	61.21	0
3	339544	61.31	0
3	340101	61.41	0
3	340658	61.51	0
3	341215	61.61	0
3	341772	61.71	0
3	342329	61.81	0
3	342886	61.91	0
3	343452	62.01	0
3	344009	62.11	0
3	344566	62.21	0
3	345123	62.31	0
3	345680	62.41	0
3	346237	62.51	0
3	346794	62.61	0
3	347351	62.71	0
3	347908	62.81	0
3	348465	62.91	0
3	349031	63.01	0
3	349588	63.11	0
3	350145	63.21	0
3	350702	63.31	0
3	351259	63.41	0
3	351816	63.51	0
3	352373	63.61	0
3	352930	63.71	0
3	353487	63.81	0
3	354044	63.91	0
3	354610	64.01	0
3	355167	64.11	0
3	355724	64.21	0
3	356281	64.31	0
3	356838	64.41	0
3	357395	64.51	0
3	357952	64.61	0
3	358509	64.71	0
3	359066	64.81	0
3	359623	64.91	0
3	360189	65.01	0
3	360746	65.11	0
3	361303	65.21	0
3	361860	65.31	0
3	362417	65.41	0
3	362974	65.51	0
3	363531	65.61	0
3	364088	65.71	0
3	364645	65.81	0
3	365202	65.91	0
3	365768	66.01	0
3	366325	66.11	0
3	366882	66.21	0
3	367439	66.31	0
3	367996	66.41	0
3	368553	66.51	0
3	369110	66.61	0
3	369667	66.71	0
3	370224	66.81	0
3	370781	66.91	0
3	371347	67.01	0
3	371904	67.11	0
3	372461	67.21	0
3	373018	67.31	0
3	373575	67.41	0
3	374132	67.51	0
3	374689	67.61	0
3	375246	67.71	0
3	375803	67.81	0
3	376360	67.91	0
3	376926	68.01	0
3	377483	68.11	0
3	378040	68.21	0
3	378597	68.31	0
3	379154	68.41	0
3	379711	68.51	0
3	380268	68.61	0
3	380825	68.71	0
3	381382	68.81	0
3	381939	68.91	0
3	382505	69.01	0
3	383062	69.11	0
3	383619	69.21	0
3	384176	69.31	0
3	384733	69.41	0
3	385290	69.51	0
3	385847	69.61	0
3	386404	69.71	0
3	386961	69.81	0
3	387518	69.91	0
3	388084	70.01	0
3	388641	70.11	0
3	389198	70.21	0
3	389755	70.31	0
3	390312	70.41	0
3	390869	70.51	0
3	391426	70.61	0
3	391983	70.71	0
3	392540	70.81	0
3	393097	70.91	0
3	393663	71.01	0
3	394220	71.11	0
3	394777	71.21	0
3	395334	71.31	0
3	395891	71.41	0
3	396448	71.51	0
3	397005	71.61	0
3	397562	71.71	0
3	398119	71.81	0
3	398676	71.91	0
3	399242	72.01	0
3	399799	72.11	0
3	400356	72.21	0
3	400913	72.31	0
3	401470	72.41	0
3	402027	72.51	0
3	402584	72.61	0
3	403141	72.71	0
3	403698	72.81	0
3	404255	72.91	0
3	404821	73.01	0
3	405378	73.11	0
3	405935	73.21	0
3	406492	73.31	0
3	407049	73.41	0
3	407606	73.51	0
3	408163	73.61	0
3	408720	73.71	0
3	409277	73.81	0
3	409834	73.91	0
3	410400	74.01	0
3	410957	74.11	0
3	411514	74.21	0
3	412071	74.31	0
3	412628	74.41	0
3	413185	74.51	0
3	413742	74.61	0
3	414299	74.71	0
3	414856	74.81	0
3	415413	74.91	0
3	415979	75.01	0
3	416536	75.11	0
3	417093	75.21	0
3	417650	75.31	0
3	418207	75.41	0
3	418764	75.51	0
3	419321	75.61	0
3	419878	75.71	0
3	420435	75.81	0
3	420992	75.91	0
3	421558	76.01	0
3	422115	76.11	0
3	422672	76.21	0
3	423229	76.31	0
3	423786	76.41	0
3	424343	76.51	0
3	424900	76.61	0
3	425457	76.71	0
3	426014	76.81	0
3	426571	76.91	0
3	427137	77.01	0
3	427694	77.11	0
3	428251	77.21	0
3	428808	77.31	0
3	429365	77.41	0
3	429922	77.51	0
3	430479	77.61	0
3	431036	77.71	0
3	431593	77.81	0
3	432150	77.91	0
3	432716	78.01	0
3	433273	78.11	0
[...]
116	320890	58	0.024960458415
116	326469	59	0.024972714561
116	332048	60	0.024972007834
116	337627	61	0.024971338904
116	343206	62	0.024970704006
116	348785	63	0.024970097727
116	354364	64	0.024969515308
116	359943	65	0.02496893864
116	365522	66	0.024968383431
116	371101	67	0.02496791655
116	376680	68	0.024967531842
116	382259	69	0.024980189154
116	387838	70	0.02496682719
116	393417	71	0.024966454164
116	398996	72	0.024966073945
116	404575	73	0.024978689749
116	410154	74	0.024965302752
116	415733	75	0.024964909482
116	421312	76	0.024977517081
116	426891	77	0.024964122623
116	432470	78	0.024976725725
116	438049	79	0.024963326324
116	443628	80	0.024975924117
116	449207	81	0.024962518296
116	454786	82	0.024975112466
116	460365	83	0.024974715668
116	465944	84	0.024961269221
116	471523	85	0.02497378518
116	477102	86	0.024973273948
116	482681	87	0.024972748727
116	488260	88	0.024959216744
116	493839	89	0.024971681087
116	499418	90	0.024971143194
116	504997	91	0.024970603769
116	510576	92	0.024970063192
116	516155	93	0.024969521691
116	521734	94	0.024968979429
116	527313	95	0.024968436521
116	532892	96	0.024980893055
116	538471	97	0.0249673491
116	544050	98	0.024966804722
116	549629	99	0.024966274021
116	555208	100	0.024978737715
117	4889	2	0
117	10468	3	0
117	16047	4	0
117	21626	5	0
117	27205	6	0
117	32784	7	0
117	38363	8	0
117	43942	9	0
117	49523	10	0
117	55248	11	0
117	60897	12	0
117	66546	13	0
117	72195	14	0
117	77844	15	0
117	83493	16	0
117	89142	17	0
117	94791	18	0
117	100440	19	0
117	106089	20	0
117	111738	21	0
117	117387	22	0
117	123036	23	0
117	128685	24	0
117	134334	25	0
117	139983	26	0
117	145632	27	0
117	151281	28	0
117	156930	29	0
117	162666	30	0
117	168305	31	0
117	173944	32	0
117	179583	33	0
117	185311	34	0
117	190940	35	0
117	196569	36	0
117	202198	37	0
117	207916	38	0
117	213535	39	0
117	219154	40	0
117	224773	41	0
117	230479	42	0
117	236088	43	0
117	241697	44	0
117	247306	45	0
117	252999	46	0
117	258598	47	0
117	264197	48	0
117	269903	49	0
117	275492	50	0
117	281081	51	0
117	286670	52	0
117	292995	53	0
117	298574	54	0
117	304153	55	0
117	309732	56	0
117	315311	57	0
117	320890	58	0
117	326469	59	0
117	332048	60	0
117	337627	61	0
117	343206	62	0
117	348785	63	0
117	354364	64	0
117	359943	65	0
117	365522	66	0
117	371101	67	0
117	376680	68	0
117	382259	69	0
117	387838	70	0
117	393417	71	0
117	398996	72	0
117	404575	73	0
117	410154	74	0
117	415733	75	0
117	421312	76	0
117	426891	77	0
117	432470	78	0
117	438049	79	0
117	443628	80	0
117	449207	81	0
117	454786	82	0
117	460365	83	0
117	465944	84	0
117	471523	85	0
117	477102	86	0
117	482681	87	0
117	488260	88	0
117	493839	89	0
117	499418	90	0
117	504997	91	0
117	510576	92	0
117	516155	93	0
117	521734	94	0
117	527313	95	0
117	532892	96	0
117	538471	97	0
117	544050	98	0
117	549629	99	0
117	555208	100	0
118	4890	2	6
118	10469	3	6
118	16048	4	6
118	21627	5	6
118	27206	6	6
118	32785	7	6
118	38364	8	6
118	43943	9	6
118	49524	10	6
118	55249	11	6
118	60898	12	6
118	66547	13	6
118	72196	14	6
118	77845	15	6
118	83494	16	6
118	89143	17	6
118	94792	18	6
118	100441	19	6
118	106090	20	6
118	111739	21	6
118	117388	22	6
118	123037	23	6
118	128686	24	6
118	134335	25	6
118	139984	26	6
118	145633	27	6
118	151282	28	6
118	156931	29	6
118	162667	30	6
118	168306	31	6
118	173945	32	6
118	179584	33	6
118	185312	34	6
118	190941	35	6
118	196570	36	6
118	202199	37	6
118	207917	38	6
118	213536	39	6
118	219155	40	6
118	224774	41	6
118	230480	42	6
118	236089	43	6
118	241698	44	6
118	247307	45	6
118	253000	46	6
118	258599	47	6
118	264198	48	6
118	269904	49	6
118	275493	50	6
118	281082	51	6
118	286671	52	6
118	292996	53	6
118	298575	54	6
118	304154	55	6
118	309733	56	6
118	315312	57	6
118	320891	58	6
118	326470	59	6
118	332049	60	6
118	337628	61	6
118	343207	62	6
118	348786	63	6
118	354365	64	6
118	359944	65	6
118	365523	66	6
118	371102	67	6
118	376681	68	6
118	382260	69	6
118	387839	70	6
118	393418	71	6
118	398997	72	6
118	404576	73	6
118	410155	74	6
118	415734	75	6
118	421313	76	6
118	426892	77	6
118	432471	78	6
118	438050	79	6
118	443629	80	6
118	449208	81	6
118	454787	82	6
118	460366	83	6
118	465945	84	6
118	471524	85	6
118	477103	86	6
118	482682	87	6
118	488261	88	6
118	493840	89	6
118	499419	90	6
118	504998	91	6
118	510577	92	6
118	516156	93	6
118	521735	94	6
118	527314	95	6
118	532893	96	6
118	538472	97	6
118	544051	98	6
118	549630	99	6
118	555209	100	6
119	4890	2	0.021463516893
119	10469	3	0.024964796364
119	16048	4	0.02497779636
119	21627	5	0.024964796355
119	27206	6	0.024977796343
119	32785	7	0.02496479634
119	38364	8	0.02496479634
119	43943	9	0.02497779634
119	49524	10	0.02496479634
119	55249	11	0.025022755988
119	60898	12	0.024964791733
119	66547	13	0.024977780041
119	72196	14	0.02496476108
119	77845	15	0.024964735949
119	83494	16	0.02497770587
119	89143	17	0.024964672018
119	94792	18	0.024977635465
119	100441	19	0.024964597145
119	106090	20	0.024977557891
119	111739	21	0.024964518393
119	117388	22	0.024964479216
119	123037	23	0.024977440829
119	128686	24	0.024964403579
119	134335	25	0.024977367745
119	139984	26	0.024964333527
119	145633	27	0.024977301063
119	151282	28	0.024964270428
119	156931	29	0.024964241661
119	162667	30	0.025094168734
119	168306	31	0.024964189724
119	173945	32	0.024964166482
119	179584	33	0.024977144979
119	185312	34	0.025081032752
119	190941	35	0.024964106888
119	196570	36	0.024977090126
119	202199	37	0.024964074787
119	207917	38	0.025081014233
119	213536	39	0.024977047942
119	219155	40	0.024964036286
119	224774	41	0.024977025679
119	230480	42	0.025080969444
119	236089	43	0.024964007303
119	241698	44	0.024976999385
119	247307	45	0.02496399222
119	253000	46	0.025080753806
119	258599	47	0.024976979901
119	264198	48	0.02496397463
119	269904	49	0.025115155695
119	275493	50	0.024976965598
119	281082	51	0.024963961753
119	286671	52	0.024976958297
119	292996	53	0.025891388894
119	298575	54	0.024976545993
119	304154	55	0.024962882687
119	309733	56	0.024975069007
119	315312	57	0.024974241372
119	320891	58	0.024960458362
119	326470	59	0.024972714567
119	332049	60	0.024972007844
119	337628	61	0.024971338907
119	343207	62	0.024970704006
119	348786	63	0.024970097727
119	354365	64	0.024969515307
119	359944	65	0.02496893864
119	365523	66	0.024968383431
119	371102	67	0.02496791655
119	376681	68	0.024967531842
119	382260	69	0.024980189154
119	387839	70	0.02496682719
119	393418	71	0.024966454164
119	398997	72	0.024966073945
119	404576	73	0.024978689749
119	410155	74	0.024965302752
119	415734	75	0.024964909482
119	421313	76	0.024977517081
119	426892	77	0.024964122623
119	432471	78	0.024976725725
119	438050	79	0.024963326324
119	443629	80	0.024975924117
119	449208	81	0.024962518296
119	454787	82	0.024975112466
119	460366	83	0.024974715628
119	465945	84	0.024961268831
119	471524	85	0.024973784647
119	477103	86	0.024973273632
119	482682	87	0.024972748658
119	488261	88	0.024959216759
119	493840	89	0.024971681103
119	499419	90	0.024971143198
119	504998	91	0.024970603769
119	510577	92	0.024970063191
119	516156	93	0.024969521691
119	521735	94	0.024968979429
119	527314	95	0.024968436521
119	532893	96	0.024980893055
119	538472	97	0.0249673491
119	544051	98	0.024966804722
119	549630	99	0.024966274021
119	555209	100	0.024978737715
120	4890	2	0
120	10469	3	0
120	16048	4	0
120	21627	5	0
120	27206	6	0
120	32785	7	0
120	38364	8	0
120	43943	9	0
120	49524	10	0
120	55249	11	0
120	60898	12	0
120	66547	13	0
120	72196	14	0
120	77845	15	0
120	83494	16	0
120	89143	17	0
120	94792	18	0
120	100441	19	0
120	106090	20	0
120	111739	21	0
120	117388	22	0
120	123037	23	0
120	128686	24	0
120	134335	25	0
120	139984	26	0
120	145633	27	0
120	151282	28	0
120	156931	29	0
120	162667	30	0
120	168306	31	0
120	173945	32	0
120	179584	33	0
120	185312	34	0
120	190941	35	0
120	196570	36	0
120	202199	37	0
120	207917	38	0
120	213536	39	0
120	219155	40	0
120	224774	41	0
120	230480	42	0
120	236089	43	0
120	241698	44	0
120	247307	45	0
120	253000	46	0
120	258599	47	0
120	264198	48	0
120	269904	49	0
120	275493	50	0
120	281082	51	0
120	286671	52	0
120	292996	53	0
120	298575	54	0
120	304154	55	0
120	309733	56	0
120	315312	57	0
120	320891	58	0
120	326470	59	0
120	332049	60	0
120	337628	61	0
120	343207	62	0
120	348786	63	0
120	354365	64	0
120	359944	65	0
120	365523	66	0
120	371102	67	0
120	376681	68	0
120	382260	69	0
120	387839	70	0
120	393418	71	0
120	398997	72	0
120	404576	73	0
120	410155	74	0
120	415734	75	0
120	421313	76	0
120	426892	77	0
120	432471	78	0
120	438050	79	0
120	443629	80	0
120	449208	81	0
120	454787	82	0
120	460366	83	0
120	465945	84	0
120	471524	85	0
120	477103	86	0
120	482682	87	0
120	488261	88	0
120	493840	89	0
120	499419	90	0
120	504998	91	0
120	510577	92	0
120	516156	93	0
120	521735	94	0
120	527314	95	0
120	532893	96	0
120	538472	97	0
120	544051	98	0
120	549630	99	0
120	555209	100	0
121	4891	2	7
121	10470	3	7
121	16049	4	7
121	21628	5	7
121	27207	6	7
121	32786	7	7
121	38365	8	7
121	43944	9	7
121	49525	10	7
121	55250	11	7
121	60899	12	7
121	66548	13	7
121	72197	14	7
121	77846	15	7
121	83495	16	7
121	89144	17	7
121	94793	18	7
121	100442	19	7
121	106091	20	7
121	111740	21	7
121	117389	22	7
121	123038	23	7
121	128687	24	7
121	134336	25	7
121	139985	26	7
121	145634	27	7
121	151283	28	7
121	156932	29	7
121	162668	30	7
121	168307	31	7
121	173946	32	7
121	179585	33	7
121	185313	34	7
121	190942	35	7
121	196571	36	7
121	202200	37	7
121	207918	38	7
121	213537	39	7
121	219156	40	7
121	224775	41	7
121	230481	42	7
121	236090	43	7
121	241699	44	7
121	247308	45	7
121	253001	46	7
121	258600	47	7
121	264199	48	7
121	269905	49	7
121	275494	50	7
121	281083	51	7
121	286672	52	7
121	292997	53	7
121	298576	54	7
121	304155	55	7
121	309734	56	7
121	315313	57	7
121	320892	58	7
121	326471	59	7
121	332050	60	7
121	337629	61	7
121	343208	62	7
121	348787	63	7
121	354366	64	7
121	359945	65	7
121	365524	66	7
121	371103	67	7
121	376682	68	7
121	382261	69	7
121	387840	70	7
121	393419	71	7
121	398998	72	7
121	404577	73	7
121	410156	74	7
121	415735	75	7
121	421314	76	7
121	426893	77	7
121	432472	78	7
121	438051	79	7
121	443630	80	7
121	449209	81	7
121	454788	82	7
121	460367	83	7
121	465946	84	7
121	471525	85	7
121	477104	86	7
121	482683	87	7
121	488262	88	7
121	493841	89	7
121	499420	90	7
121	504999	91	7
121	510578	92	7
121	516157	93	7
121	521736	94	7
121	527315	95	7
121	532894	96	7
121	538473	97	7
121	544052	98	7
121	549631	99	7
121	555210	100	7
122	4891	2	0.021463496879
122	10470	3	0.024964796364
122	16049	4	0.02497779636
122	21628	5	0.024964796355
122	27207	6	0.024977796343
122	32786	7	0.02496479634
122	38365	8	0.02496479634
122	43944	9	0.02497779634
122	49525	10	0.02496479634
122	55250	11	0.025022755988
122	60899	12	0.024964791729
122	66548	13	0.024977780036
122	72197	14	0.024964761069
122	77846	15	0.024964735929
122	83495	16	0.024977705844
122	89144	17	0.02496467198
122	94793	18	0.024977635417
122	100442	19	0.024964597087
122	106091	20	0.024977557821
122	111740	21	0.024964518314
122	117389	22	0.024964479128
122	123038	23	0.024977440733
122	128687	24	0.024964403475
122	134336	25	0.024977367637
122	139985	26	0.024964333414
122	145634	27	0.024977300947
122	151283	28	0.024964270311
122	156932	29	0.024964241542
122	162668	30	0.025094168616
122	168307	31	0.024964189608
122	173946	32	0.024964166367
122	179585	33	0.024977144867
122	185313	34	0.025081032644
122	190942	35	0.024964106783
122	196571	36	0.024977090026
122	202200	37	0.02496407469
122	207918	38	0.025081014142
122	213537	39	0.024977047855
122	219156	40	0.024964036204
122	224775	41	0.024977025602
122	230481	42	0.025080969372
122	236090	43	0.024964007235
122	241699	44	0.024976999321
122	247308	45	0.024963992161
122	253001	46	0.025080753751
122	258600	47	0.02497697985
122	264199	48	0.024963974583
122	269905	49	0.025080877134
122	275494	50	0.024976965557
122	281083	51	0.024963961716
122	286672	52	0.024976958264
122	292997	53	0.025924709918
122	298576	54	0.024976558058
122	304155	55	0.024962889502
122	309734	56	0.024975071903
122	315313	57	0.024974240267
122	320892	58	0.024960455225
122	326471	59	0.024972711101
122	332050	60	0.024972004516
122	337629	61	0.024971335668
122	343208	62	0.024970700774
122	348787	63	0.024970094476
122	354366	64	0.024969512043
122	359945	65	0.024968935366
122	365524	66	0.024968380151
122	371103	67	0.024967913264
122	376682	68	0.024967528551
122	382261	69	0.024980185859
122	387840	70	0.024966823892
122	393419	71	0.024966450863
122	398998	72	0.02496607064
122	404577	73	0.024978686443
122	410156	74	0.024965299443
122	415735	75	0.024964906171
122	421314	76	0.024977513769
122	426893	77	0.024964119309
122	432472	78	0.024976722409
122	438051	79	0.024963323007
122	443630	80	0.0249759208
122	449209	81	0.024962514977
122	454788	82	0.024975109671
122	460367	83	0.024974711644
122	465946	84	0.024961265704
122	471525	85	0.024973781802
122	477104	86	0.024973270629
122	482683	87	0.024972745412
122	488262	88	0.024959213423
122	493841	89	0.024971677762
122	499420	90	0.024971139868
122	504999	91	0.024970600443
122	510578	92	0.024970059866
122	516157	93	0.024969518364
122	521736	94	0.024968976102
122	527315	95	0.024968433194
122	532894	96	0.024980889727
122	538473	97	0.024967345772
122	544052	98	0.024966801394
122	549631	99	0.024966271044
122	555210	100	0.02497873438
123	4891	2	0
123	10470	3	0
123	16049	4	0
123	21628	5	0
123	27207	6	0
123	32786	7	0
123	38365	8	0
123	43944	9	0
123	49525	10	0
123	55250	11	0
123	60899	12	0
123	66548	13	0
123	72197	14	0
123	77846	15	0
123	83495	16	0
123	89144	17	0
123	94793	18	0
123	100442	19	0
123	106091	20	0
123	111740	21	0
123	117389	22	0
123	123038	23	0
123	128687	24	0
123	134336	25	0
123	139985	26	0
123	145634	27	0
123	151283	28	0
123	156932	29	0
123	162668	30	0
123	168307	31	0
123	173946	32	0
123	179585	33	0
123	185313	34	0
123	190942	35	0
123	196571	36	0
123	202200	37	0
123	207918	38	0
123	213537	39	0
123	219156	40	0
123	224775	41	0
123	230481	42	0
123	236090	43	0
123	241699	44	0
123	247308	45	0
123	253001	46	0
123	258600	47	0
123	264199	48	0
123	269905	49	0
123	275494	50	0
123	281083	51	0
123	286672	52	0
123	292997	53	0
123	298576	54	0
123	304155	55	0
123	309734	56	0
123	315313	57	0
123	320892	58	0
123	326471	59	0
123	332050	60	0
123	337629	61	0
123	343208	62	0
123	348787	63	0
123	354366	64	0
123	359945	65	0
123	365524	66	0
123	371103	67	0
123	376682	68	0
123	382261	69	0
123	387840	70	0
123	393419	71	0
123	398998	72	0
123	404577	73	0
123	410156	74	0
123	415735	75	0
123	421314	76	0
123	426893	77	0
123	432472	78	0
123	438051	79	0
123	443630	80	0
123	449209	81	0
123	454788	82	0
123	460367	83	0
123	465946	84	0
123	471525	85	0
123	477104	86	0
123	482683	87	0
123	488262	88	0
123	493841	89	0
123	499420	90	0
123	504999	91	0
123	510578	92	0
123	516157	93	0
123	521736	94	0
123	527315	95	0
123	532894	96	0
123	538473	97	0
123	544052	98	0
123	549631	99	0
123	555210	100	0
124	4892	2	8
124	10471	3	8
124	16050	4	8
124	21629	5	8
124	27208	6	8
124	32787	7	8
124	38366	8	8
124	43945	9	8
124	49526	10	8
124	55251	11	8
124	60900	12	8
124	66549	13	8
124	72198	14	8
124	77847	15	8
124	83496	16	8
124	89145	17	8
124	94794	18	8
124	100443	19	8
124	106092	20	8
124	111741	21	8
124	117390	22	8
124	123039	23	8
124	128688	24	8
124	134337	25	8
124	139986	26	8
124	145635	27	8
124	151284	28	8
124	156933	29	8
124	162669	30	8
124	168308	31	8
124	173947	32	8
124	179586	33	8
124	185314	34	8
124	190943	35	8
124	196572	36	8
124	202201	37	8
124	207919	38	8
124	213538	39	8
124	219157	40	8
124	224776	41	8
124	230482	42	8
124	236091	43	8
124	241700	44	8
124	247309	45	8
124	253002	46	8
124	258601	47	8
124	264200	48	8
124	269906	49	8
124	275495	50	8
124	281084	51	8
124	286673	52	8
124	292998	53	8
124	298577	54	8
124	304156	55	8
124	309735	56	8
124	315314	57	8
124	320893	58	8
124	326472	59	8
124	332051	60	8
124	337630	61	8
124	343209	62	8
124	348788	63	8
124	354367	64	8
124	359946	65	8
124	365525	66	8
124	371104	67	8
124	376683	68	8
124	382262	69	8
124	387841	70	8
124	393420	71	8
124	398999	72	8
124	404578	73	8
124	410157	74	8
124	415736	75	8
124	421315	76	8
124	426894	77	8
124	432473	78	8
124	438052	79	8
124	443631	80	8
124	449210	81	8
124	454789	82	8
124	460368	83	8
124	465947	84	8
124	471526	85	8
124	477105	86	8
124	482684	87	8
124	488263	88	8
124	493842	89	8
124	499421	90	8
124	505000	91	8
124	510579	92	8
124	516158	93	8
124	521737	94	8
124	527316	95	8
124	532895	96	8
124	538474	97	8
124	544053	98	8
124	549632	99	8
124	555211	100	8
125	4892	2	0.002817
125	10471	3	0.00313
125	16050	4	0.00313
125	21629	5	0.00313
125	27208	6	0.00313
125	32787	7	0.00313
125	38366	8	0.00313
125	43945	9	0.00313
125	49526	10	0.00313
125	55251	11	0.003179
125	60900	12	0.00313
125	66549	13	0.00313
125	72198	14	0.00313
125	77847	15	0.00313
125	83496	16	0.00313
125	89145	17	0.00313
125	94794	18	0.00313
125	100443	19	0.00313
125	106092	20	0.00313
125	111741	21	0.00313
125	117390	22	0.00313
125	123039	23	0.00313
125	128688	24	0.00313
125	134337	25	0.00313
125	139986	26	0.00313
125	145635	27	0.00313
125	151284	28	0.00313
125	156933	29	0.00313
125	162669	30	0.00313
125	168308	31	0.00313
125	173947	32	0.00313
125	179586	33	0.00313
125	185314	34	0.00313
125	190943	35	0.00313
125	196572	36	0.00313
125	202201	37	0.00313
125	207919	38	0.00313
125	213538	39	0.00313
125	219157	40	0.00313
125	224776	41	0.00313
125	230482	42	0.00313
125	236091	43	0.00313
125	241700	44	0.00313
125	247309	45	0.00313
125	253002	46	0.00313
125	258601	47	0.00313
125	264200	48	0.00313
125	269906	49	0.00313
125	275495	50	0.00313
125	281084	51	0.00313
125	286673	52	0.00313
125	292998	53	0.00313
125	298577	54	0.00313
125	304156	55	0.00313
125	309735	56	0.00313
125	315314	57	0.00313
125	320893	58	0.00313
125	326472	59	0.00313
125	332051	60	0.00313
125	337630	61	0.00313
125	343209	62	0.00313
125	348788	63	0.00313
125	354367	64	0.00313
125	359946	65	0.00313
125	365525	66	0.00313
125	371104	67	0.00313
125	376683	68	0.00313
125	382262	69	0.00313
125	387841	70	0.00313
125	393420	71	0.00313
125	398999	72	0.00313
125	404578	73	0.00313
125	410157	74	0.00313
125	415736	75	0.00313
125	421315	76	0.00313
125	426894	77	0.00313
125	432473	78	0.00313
125	438052	79	0.00313
125	443631	80	0.00313
125	449210	81	0.00313
125	454789	82	0.00313
125	460368	83	0.00313
125	465947	84	0.00313
125	471526	85	0.00313
125	477105	86	0.00313
125	482684	87	0.00313
125	488263	88	0.00313
125	493842	89	0.00313
125	499421	90	0.00313
125	505000	91	0.00313
125	510579	92	0.00313
125	516158	93	0.00313
125	521737	94	0.00313
125	527316	95	0.00313
125	532895	96	0.00313
125	538474	97	0.00313
125	544053	98	0.00313
125	549632	99	0.00313
125	555211	100	0.00313
126	4892	2	0
126	10471	3	0
126	16050	4	0
126	21629	5	0
126	27208	6	0
126	32787	7	0
126	38366	8	0
126	43945	9	0
126	49526	10	0
126	55251	11	0
126	60900	12	0
126	66549	13	0
126	72198	14	0
126	77847	15	0
126	83496	16	0
126	89145	17	0
126	94794	18	0
126	100443	19	0
126	106092	20	0
126	111741	21	0
126	117390	22	0
126	123039	23	0
126	128688	24	0
126	134337	25	0
126	139986	26	0
126	145635	27	0
126	151284	28	0
126	156933	29	0
126	162669	30	0
126	168308	31	0
126	173947	32	0
126	179586	33	0
126	185314	34	0
126	190943	35	0
126	196572	36	0
126	202201	37	0
126	207919	38	0
126	213538	39	0
126	219157	40	0
126	224776	41	0
126	230482	42	0
126	236091	43	0
126	241700	44	0
126	247309	45	0
126	253002	46	0
126	258601	47	0
126	264200	48	0
126	269906	49	0
126	275495	50	0
126	281084	51	0
126	286673	52	0
126	292998	53	0
126	298577	54	0
126	304156	55	0
126	309735	56	0
126	315314	57	0
126	320893	58	0
126	326472	59	0
126	332051	60	0
126	337630	61	0
126	343209	62	0
126	348788	63	0
126	354367	64	0
126	359946	65	0
126	365525	66	0
126	371104	67	0
126	376683	68	0
126	382262	69	0
126	387841	70	0
126	393420	71	0
126	398999	72	0
126	404578	73	0
126	410157	74	0
126	415736	75	0
126	421315	76	0
126	426894	77	0
126	432473	78	0
126	438052	79	0
126	443631	80	0
126	449210	81	0
126	454789	82	0
126	460368	83	0
126	465947	84	0
126	471526	85	0
126	477105	86	0
126	482684	87	0
126	488263	88	0
126	493842	89	0
126	499421	90	0
126	505000	91	0
126	510579	92	0
126	516158	93	0
126	521737	94	0
126	527316	95	0
126	532895	96	0
126	538474	97	0
126	544053	98	0
126	549632	99	0
126	555211	100	0

