file 2448917 1720451544                                         
version 3
run BreakRanksNoGui-25-20240708-17:12:09-153222
attr configname BreakRanksNoGui
attr datetime 20240708-17:12:09
attr datetimef 20240708-171209
attr experiment BreakRanksNoGui
attr inifile omnetpp.ini
attr iterationvars "$nCars=8, $platoonSize=8, $nLanes=1, $ploegH=0.5, $controller=1, $headway=0.1, $leaderHeadway=1.2, $leaderSpeed=110, $breakRanksSafetyDistance=5, $minSpeed=100, $maxSpeed=120, $beaconInterval=0.1, $priority=4, $packetSize=200, $sController=\"CACC\", $0=2, $1=0"
attr iterationvarsd nCars=8/platoonSize=8/nLanes=1/ploegH=0.5/controller=1/headway=0.1/leaderHeadway=1.2/leaderSpeed=110/breakRanksSafetyDistance=5/minSpeed=100/maxSpeed=120/beaconInterval=0.1/priority=4/packetSize=200/sController=CACC/2/0
attr iterationvarsf nCars=8,platoonSize=8,nLanes=1,ploegH=0.5,controller=1,headway=0.1,leaderHeadway=1.2,leaderSpeed=110,breakRanksSafetyDistance=5,minSpeed=100,maxSpeed=120,beaconInterval=0.1,priority=4,packetSize=200,sController=CACC,2,0-
attr measurement "$nCars=8, $platoonSize=8, $nLanes=1, $ploegH=0.5, $controller=1, $headway=0.1, $leaderHeadway=1.2, $leaderSpeed=110, $breakRanksSafetyDistance=5, $minSpeed=100, $maxSpeed=120, $beaconInterval=0.1, $priority=4, $packetSize=200, $sController=\"CACC\", $0=2, $1=0"
attr network Highway
attr processid 153222
attr repetition 5
attr replication #5
attr resultdir results
attr runnumber 25
attr seedset 5
itervar beaconInterval 0.1
itervar breakRanksSafetyDistance 5
itervar controller 1
itervar headway 0.1
itervar leaderHeadway 1.2
itervar leaderSpeed 110
itervar maxSpeed 120
itervar minSpeed 100
itervar nCars 8
itervar nLanes 1
itervar packetSize 200
itervar platoonSize 8
itervar ploegH 0.5
itervar priority 4
itervar sController "\"CACC\""
config image-path ../../../veins/images
config repeat 10
config extends BreakRanks
config *.manager.command "\"sumo\""
config *.manager.ignoreGuiCommands true
config output-vector-file results/BreakRanks_1_0.1_110_5/result_5.vec
config output-scalar-file results/BreakRanks_1_0.1_110_5/result_5.sca
config extends Platooning
config *.node[*].scenario_type "\"BreakRanksScenario\""
config *.manager.command "\"sumo-gui\""
config *.node[*].scenario_type "\"SimpleScenario\""
config cmdenv-express-mode true
config cmdenv-autoflush true
config cmdenv-status-frequency 15s
config num-rngs 6
config network Highway
config debug-on-errors true
config print-undisposed true
config *.playgroundSizeX 65000m
config *.playgroundSizeY 25000m
config *.playgroundSizeZ 50m
config sim-time-limit "100 s"
config *.annotations.draw false
config *.obstacles.debug false
config *.world.useTorus false
config *.world.use2D false
config *.manager.updateInterval 0.01s
config *.manager.host "\"localhost\""
config *.manager.moduleType "\"org.car2x.plexe.PlatoonCar\""
config *.manager.moduleName "\"node\""
config *.manager.moduleDisplayString "\"\""
config *.manager.autoShutdown true
config *.manager.margin 25
config *.connectionManager.sendDirect true
config *.connectionManager.maxInterfDist 2600m
config *.connectionManager.drawMaxIntfDist false
config *.**.nic.mac1609_4.useServiceChannel false
config *.**.nic.mac1609_4.txPower 100mW
config *.**.nic.mac1609_4.bitrate 6Mbps
config *.**.nic.mac1609_4.useAcks true
config *.**.nic.mac1609_4.ackErrorRate 0.0
config *.**.nic.mac1609_4.frameErrorRate 0.0
config *.**.nic.phy80211p.minPowerLevel -94dBm
config *.**.nic.phy80211p.maxTXPower 100mW
config *.**.nic.phy80211p.useNoiseFloor true
config *.**.nic.phy80211p.noiseFloor -95dBm
config *.**.nic.phy80211p.decider "xmldoc(\"config.xml\")"
config *.**.nic.phy80211p.analogueModels "xmldoc(\"config.xml\")"
config *.**.nic.phy80211p.usePropagationDelay true
config *.node[*].mobility.x 0
config *.node[*].mobility.y 0
config *.node[*].mobility.z 1.895
config seed-set 5
config **.seed 5
config *.node[*].prot.rng-0 2
config *.node[*].appl.rng-0 3
config *.node[*].scenario.rng-0 4
config **.traffic.rng-0 5
config *.manager.configFile "\"./sumocfg/freeway.sumo.cfg\""
config *.manager.launchConfig "xmldoc(\"./sumocfg/freeway.launchd.xml\")"
config **.numberOfCars 8
config **.numberOfCarsPerPlatoon 8
config **.numberOfLanes 1
config *.node[*].helper_type "\"PositionHelper\""
config *.node[*].scenario.caccC1 0.5
config *.node[*].scenario.caccXi 1
config *.node[*].scenario.caccOmegaN "0.2 Hz"
config *.node[*].scenario.caccSpacing "2 m"
config *.node[*].scenario.engineTau "0.5 s"
config *.node[*].scenario.ploegH 0.5s
config *.node[*].scenario.ploegKp 0.2
config *.node[*].scenario.ploegKd 0.7
config *.node[*].scenario.useRealisticEngine false
config *.node[*].scenario.useControllerAcceleration true
config *.node[*].scenario.nLanes 1
config **.numericController 1
config **.headway 0.1s
config *.node[*].scenario.accHeadway 0.1s
config *.node[*].scenario.leaderHeadway 1.2s
config *.node[*].scenario.leaderSpeed 110kmph
config *.node[*].appl_type "\"SimplePlatooningApp\""
config *.node[*].appl.*.scalar-recording true
config *.node[*].appl.*.vector-recording true
config *.node[0].appl.breakRanksSafetyDistance 5m
config *.node[*].appl.minSpeed 100kmph
config *.node[*].appl.maxSpeed 120kmph
config *.node[*].protocol_type "\"SimplePlatooningBeaconing\""
config *.node[*].prot.*.scalar-recording true
config *.node[*].prot.*.vector-recording true
config *.node[*].prot.beaconingInterval 0.1s
config *.node[*].prot.priority 4
config *.node[*].prot.packetSize 200
config **.traffic_type "\"PlatoonsTrafficManager\""
config **.traffic.platoonInsertTime "1 s"
config **.traffic.platoonInsertSpeed 110kmph
config **.traffic.nCars 8
config **.traffic.platoonSize 8
config **.traffic.nLanes 1
config **.traffic.platooningVType "\"vtypeauto\""
config **.traffic.controller "\"CACC\""
config **.traffic.platoonInsertDistance 2m
config **.traffic.platoonInsertHeadway 0s
config **.traffic.platoonLeaderHeadway 1.2s
config **.scalar-recording false
config **.vector-recording false
config output-vector-file results/BreakRanksNoGui_1_0.1_110_5/result_5.vec
config output-scalar-file results/BreakRanksNoGui_1_0.1_110_5/result_5.sca

vector 0 Highway.node[0].appl distance ETV
vector 1 Highway.node[0].appl relativeSpeed ETV
vector 2 Highway.node[0].appl nodeId ETV
vector 3 Highway.node[0].appl acceleration ETV
vector 4 Highway.node[0].appl controllerAcceleration ETV
vector 5 Highway.node[0].appl speed ETV
vector 6 Highway.node[0].appl posx ETV
vector 7 Highway.node[0].appl posy ETV
vector 8 Highway.node[1].appl distance ETV
vector 9 Highway.node[1].appl relativeSpeed ETV
vector 10 Highway.node[1].appl nodeId ETV
vector 11 Highway.node[1].appl acceleration ETV
vector 12 Highway.node[1].appl controllerAcceleration ETV
vector 13 Highway.node[1].appl speed ETV
vector 14 Highway.node[1].appl posx ETV
vector 15 Highway.node[1].appl posy ETV
vector 16 Highway.node[2].appl distance ETV
vector 17 Highway.node[2].appl relativeSpeed ETV
vector 18 Highway.node[2].appl nodeId ETV
vector 19 Highway.node[2].appl acceleration ETV
vector 20 Highway.node[2].appl controllerAcceleration ETV
vector 21 Highway.node[2].appl speed ETV
vector 22 Highway.node[2].appl posx ETV
vector 23 Highway.node[2].appl posy ETV
vector 24 Highway.node[3].appl distance ETV
vector 25 Highway.node[3].appl relativeSpeed ETV
vector 26 Highway.node[3].appl nodeId ETV
vector 27 Highway.node[3].appl acceleration ETV
vector 28 Highway.node[3].appl controllerAcceleration ETV
vector 29 Highway.node[3].appl speed ETV
vector 30 Highway.node[3].appl posx ETV
vector 31 Highway.node[3].appl posy ETV
vector 32 Highway.node[4].appl distance ETV
vector 33 Highway.node[4].appl relativeSpeed ETV
vector 34 Highway.node[4].appl nodeId ETV
vector 35 Highway.node[4].appl acceleration ETV
vector 36 Highway.node[4].appl controllerAcceleration ETV
vector 37 Highway.node[4].appl speed ETV
vector 38 Highway.node[4].appl posx ETV
vector 39 Highway.node[4].appl posy ETV
vector 40 Highway.node[5].appl distance ETV
vector 41 Highway.node[5].appl relativeSpeed ETV
vector 42 Highway.node[5].appl nodeId ETV
vector 43 Highway.node[5].appl acceleration ETV
vector 44 Highway.node[5].appl controllerAcceleration ETV
vector 45 Highway.node[5].appl speed ETV
vector 46 Highway.node[5].appl posx ETV
vector 47 Highway.node[5].appl posy ETV
vector 48 Highway.node[6].appl distance ETV
vector 49 Highway.node[6].appl relativeSpeed ETV
vector 50 Highway.node[6].appl nodeId ETV
vector 51 Highway.node[6].appl acceleration ETV
vector 52 Highway.node[6].appl controllerAcceleration ETV
vector 53 Highway.node[6].appl speed ETV
vector 54 Highway.node[6].appl posx ETV
vector 55 Highway.node[6].appl posy ETV
vector 56 Highway.node[7].appl distance ETV
vector 57 Highway.node[7].appl relativeSpeed ETV
vector 58 Highway.node[7].appl nodeId ETV
vector 59 Highway.node[7].appl acceleration ETV
vector 60 Highway.node[7].appl controllerAcceleration ETV
vector 61 Highway.node[7].appl speed ETV
vector 62 Highway.node[7].appl posx ETV
vector 63 Highway.node[7].appl posy ETV
vector 64 Highway.node[2].prot frontDelay ETV
vector 65 Highway.node[2].prot frontDelayId ETV
vector 66 Highway.node[6].prot frontDelay ETV
vector 67 Highway.node[6].prot frontDelayId ETV
vector 68 Highway.node[3].prot frontDelay ETV
vector 69 Highway.node[3].prot frontDelayId ETV
vector 70 Highway.node[4].prot frontDelay ETV
vector 71 Highway.node[4].prot frontDelayId ETV
vector 72 Highway.node[5].prot frontDelay ETV
vector 73 Highway.node[5].prot frontDelayId ETV
vector 74 Highway.node[1].prot leaderDelay ETV
vector 75 Highway.node[1].prot leaderDelayId ETV
vector 76 Highway.node[1].prot frontDelay ETV
vector 77 Highway.node[1].prot frontDelayId ETV
vector 78 Highway.node[2].prot leaderDelay ETV
vector 79 Highway.node[2].prot leaderDelayId ETV
vector 80 Highway.node[3].prot leaderDelay ETV
vector 81 Highway.node[3].prot leaderDelayId ETV
vector 82 Highway.node[4].prot leaderDelay ETV
vector 83 Highway.node[4].prot leaderDelayId ETV
vector 84 Highway.node[5].prot leaderDelay ETV
vector 85 Highway.node[5].prot leaderDelayId ETV
vector 86 Highway.node[6].prot leaderDelay ETV
vector 87 Highway.node[6].prot leaderDelayId ETV
vector 88 Highway.node[7].prot leaderDelay ETV
vector 89 Highway.node[7].prot leaderDelayId ETV
vector 90 Highway.node[7].prot frontDelay ETV
vector 91 Highway.node[7].prot frontDelayId ETV
vector 92 Highway.node[0].prot nodeId ETV
vector 93 Highway.node[0].prot busyTime ETV
vector 94 Highway.node[0].prot collisions ETV
vector 95 Highway.node[1].prot nodeId ETV
vector 96 Highway.node[1].prot busyTime ETV
vector 97 Highway.node[1].prot collisions ETV
vector 98 Highway.node[2].prot nodeId ETV
vector 99 Highway.node[2].prot busyTime ETV
vector 100 Highway.node[2].prot collisions ETV
vector 101 Highway.node[3].prot nodeId ETV
vector 102 Highway.node[3].prot busyTime ETV
vector 103 Highway.node[3].prot collisions ETV
vector 104 Highway.node[4].prot nodeId ETV
vector 105 Highway.node[4].prot busyTime ETV
vector 106 Highway.node[4].prot collisions ETV
vector 107 Highway.node[5].prot nodeId ETV
vector 108 Highway.node[5].prot busyTime ETV
vector 109 Highway.node[5].prot collisions ETV
vector 110 Highway.node[6].prot nodeId ETV
vector 111 Highway.node[6].prot busyTime ETV
vector 112 Highway.node[6].prot collisions ETV
vector 113 Highway.node[7].prot nodeId ETV
vector 114 Highway.node[7].prot busyTime ETV
vector 115 Highway.node[7].prot collisions ETV
0	11335 17524 113 544537 1.11 99.91 989 -1 22.5874 -918.971 2483.74840972
1	28859 16536 113 544537 1.11 99.91 989 0 2.4444 7.3332 17.92527408
2	45395 16521 113 544537 1.11 99.91 989 0 0 0 0
3	61916 19109 113 544537 1.11 99.91 989 -0.00283113 0.000125957 -0.043966303784312 9.6812896349407e-05
4	81025 26489 113 544537 1.11 99.91 989 -0.00437036 0.00019576 -0.042459310034081 0.00013890441444735
5	107514 22451 113 544537 1.11 99.91 989 30.5554 30.56 30219.5304 923377.16656332
6	129965 22377 113 544537 1.11 99.91 989 57.9104 3076.81 1550120.0359 3182240445.4135
7	152342 21466 113 544537 1.11 99.91 989 242.45 242.45 239783.05 58135400.472499
8	173808 21395 114 544538 1.11 99.91 989 -1 98.118 12280.73618 671370.11796841
9	195203 21989 114 544538 1.11 99.91 989 -0.000537994 4 724.65148672539 2737.7792302126
10	217192 17510 114 544538 1.11 99.91 989 1 1 989 989
11	234702 26363 114 544538 1.11 99.91 989 -0.999982 0.0445393 -15.562243660174 12.27245865283
12	261065 26899 114 544538 1.11 99.91 989 -1.5 0.0691472 -14.743906297697 17.109241591991
13	287964 22048 114 544538 1.11 99.91 989 28.9308 30.56 29630.1679 888229.42889409
14	310012 23369 114 544538 1.11 99.91 989 51.9104 3011.95 1531730.9514 3100855965.2105
15	333381 22455 114 544538 1.11 99.91 989 242.45 249.05 241159.15 58808519.2925
16	355836 23321 115 544539 1.11 99.91 989 1.99968 65.107 14934.80125 470807.43523665
17	379157 25267 115 544539 1.11 99.91 989 -0.0945831 2.57857 295.2659450199 351.16790926027
18	404424 17510 115 544539 1.11 99.91 989 2 2 1978 3956
19	421934 25963 115 544539 1.11 99.91 989 -1.33594 1.36877 24.41218981074 51.766209570485
20	447897 25912 115 544539 1.11 99.91 989 -2.03798 1.5 25.211138866232 68.548855970945
21	473809 23356 115 544539 1.11 99.91 989 28.4421 33.0946 30070.2759 914889.31589731
22	497165 23355 115 544539 1.11 99.91 989 45.9104 3049.76 1527553.6658 3096918630.4623
23	520520 22455 115 544539 1.11 99.91 989 242.45 245.75 240020.65 58251396.7925
24	542975 21707 116 544540 1.11 99.91 989 -1 21.0813 2481.30713 16555.339788154
25	564682 22936 116 544540 1.11 99.91 989 -0.000158139 2.86958 93.27088019367 142.15145074451
26	587618 17510 116 544540 1.11 99.91 989 3 3 2967 8901
27	605128 26404 116 544540 1.11 99.91 989 -2.15992 1.49903 24.415245820613 166.97602211178
28	631532 26303 116 544540 1.11 99.91 989 -2.79843 1.5 24.80921869399 195.92258045622
29	657835 22409 116 544540 1.11 99.91 989 26.0612 33.1038 30666.6266 953061.6186251
30	680244 23092 116 544540 1.11 99.91 989 39.9104 3103.4 1529842.9381 3128400823.0257
31	703336 22455 116 544540 1.11 99.91 989 242.45 249.05 241386.85 58921577.292501
32	725791 23279 117 544541 1.11 99.91 989 1.99978 102.949 18627.44537 986039.39637172
33	749070 24926 117 544541 1.11 99.91 989 -8.0285e-05 3.73715 481.90202207327 718.46930662453
34	773996 17510 117 544541 1.11 99.91 989 4 4 3956 15824
35	791506 26319 117 544541 1.11 99.91 989 -2.42602 1.39245 -15.596926904287 158.62396064736
36	817825 26241 117 544541 1.11 99.91 989 -2.80223 1.5 -15.511761710127 201.92290810453
37	844066 22413 117 544541 1.11 99.91 989 24.7361 30.56 29370.5979 873387.80400349
38	866479 23357 117 544541 1.11 99.91 989 33.9104 2967.99 1501625.3116 2993005232.7562
39	889836 22455 117 544541 1.11 99.91 989 242.45 242.45 239783.05 58135400.472499
40	912291 21488 118 544542 1.11 99.91 989 -1 4.96161 1865.62004 9275.60034118
41	933779 22625 118 544542 1.11 99.91 989 -0.000158641 0.125857 29.61836049149 2.6032901427018
42	956404 17510 118 544542 1.11 99.91 989 5 5 4945 24725
43	973914 25941 118 544542 1.11 99.91 989 -0.19228 1.34136 24.438978956945 26.84216965906
44	999855 26514 118 544542 1.11 99.91 989 -0.232415 1.5 24.615412165559 35.079988988602
45	1026369 22084 118 544542 1.11 99.91 989 29.7912 33.0931 30941.3483 969677.47834171
46	1048453 23376 118 544542 1.11 99.91 989 27.9104 3118.87 1524750.5356 3131857225.9316
47	1071829 22455 118 544542 1.11 99.91 989 242.45 252.35 242736.55 59592240.252501
48	1094284 23245 119 544543 1.11 99.91 989 -1 68.7845 18886.86335 872930.65007948
49	1117529 23908 119 544543 1.11 99.91 989 -0.00119431 5.142 621.8395138725 1860.1428270721
50	1141437 17510 119 544543 1.11 99.91 989 6 6 5934 35604
51	1158947 26472 119 544543 1.11 99.91 989 -1.35874 0.0605887 -25.555286250897 28.233609285369
52	1185419 26429 119 544543 1.11 99.91 989 -1.5 0.0942141 -24.603134377749 34.972452151164
53	1211848 22382 119 544543 1.11 99.91 989 27.9058 30.56 29128.5749 859122.53219239
54	1234230 23372 119 544543 1.11 99.91 989 21.9104 2931.84 1485007.4095 2936471548.1662
55	1257602 22455 119 544543 1.11 99.91 989 242.45 252.35 241208.65 58835647.2725
56	1280057 23237 120 544544 1.11 99.91 989 1.99723 69.5084 18615.76997 813194.38807893
57	1303294 24406 120 544544 1.11 99.91 989 -1.31093 3.2708 610.18343296532 1180.4636318662
58	1327700 17510 120 544544 1.11 99.91 989 7 7 6923 48461
59	1345210 26151 120 544544 1.11 99.91 989 -2.14954 0.859926 -35.515563638017 89.802798694316
60	1371361 26375 120 544544 1.11 99.91 989 -2.23502 1.26241 -34.075932268118 112.40026596974
61	1397736 22245 120 544544 1.11 99.91 989 25.6182 30.56 28720.0545 836559.64055437
62	1419981 23361 120 544544 1.11 99.91 989 15.9104 2885.04 1470044.3954 2874700532.0427
63	1443342 22455 120 544544 1.11 99.91 989 242.45 245.75 240033.85 58257841.0325
64	1465797 39967 702 544574 1.21723162043 99.917219576759 988 0.099987600393 0.100009254574 98.799988556745 9.8799977243987
65	1505764 27243 702 544574 1.21723162043 99.917219576759 988 2 2 1976 3952
66	1533007 40010 771 544673 1.244031700485 99.944033431586 988 0.099987600391 0.100009254583 98.800002331517 9.8800004792489
67	1573017 27276 771 544673 1.244031700485 99.944033431586 988 6 6 5928 35568
68	1600293 40004 837 544721 1.248211760527 99.948213216728 988 0.099987600389 0.100003600389 98.799989056617 9.8799978240244
69	1640297 27260 837 544721 1.248211760527 99.948213216728 988 3 3 2964 8892
70	1667557 39963 904 544800 1.253002780541 99.953004669051 988 0.09998760039 0.100009059622 98.800002488926 9.8800005105763
71	1707520 27244 904 544800 1.253002780541 99.953004669051 988 4 4 3952 15808
72	1734764 39988 971 544879 1.266282800555 99.966272173236 988 0.099987600391 0.100009254588 98.799989973097 9.8799980076688
73	1774752 27267 971 544879 1.266282800555 99.966272173236 988 5 5 4940 24700
74	1802019 39998 1100 544996 1.296353000694 99.996355803593 988 0.099987600391 0.10000925461 98.800003403315 9.8800006936114
75	1842017 27263 1100 544996 1.296353000694 99.996355803593 988 1 1 988 988
76	1869280 39998 1100 544996 1.296353000694 99.996355803593 988 0.099987600391 0.10000925461 98.800003403315 9.8800006936114
77	1909278 27263 1100 544996 1.296353000694 99.996355803593 988 1 1 988 988
78	1936541 39983 1106 544984 1.296353020708 99.996355676943 988 0.099987600391 0.10000925461 98.800003256651 9.8800006642786
79	1976524 27259 1106 544984 1.296353020708 99.996355676943 988 2 2 1976 3952
80	2003783 40008 1112 544978 1.296353040721 99.996355676201 988 0.099987600391 0.100009254611 98.800003235895 9.8800006601274
81	2043791 27267 1112 544978 1.296353040721 99.996355676201 988 3 3 2964 8892
82	2071058 40001 1118 545002 1.296353060735 99.996355950217 988 0.099987600391 0.100009254613 98.800003489898 9.880000710928
83	2111059 27278 1118 545002 1.296353060735 99.996355950217 988 4 4 3952 15808
84	2138337 39999 1124 544990 1.296353080749 99.996355728239 988 0.099987600391 0.100009254615 98.800003247906 9.8800006625296
85	2178336 27271 1124 544990 1.296353080749 99.996355728239 988 5 5 4940 24700
86	2205607 39996 1130 545008 1.296353100763 99.996356071109 988 0.099987600391 0.100009254619 98.800003570762 9.8800007271009
87	2245603 27279 1130 545008 1.296353100763 99.996356071109 988 6 6 5928 35568
88	2272882 40046 1136 545014 1.296353120777 99.996356227524 988 0.099987600391 0.100009254624 98.800003707163 9.880000754381
89	2312928 27299 1136 545014 1.296353120777 99.996356227524 988 7 7 6916 48412
90	2340227 39970 1173 544505 1.305928120777 99.905928338922 987 0.09998760039 0.100009191766 98.700000818561 9.8700001769141
91	2380197 27250 1173 544505 1.305928120777 99.905928338922 987 7 7 6909 48363
92	2407447 1459 4960 545016 2 100 99 0 0 0 0
93	2408906 2068 4960 545016 2 100 99 0.022161 0.026130677688 2.471294677688 0.061699231574434
94	2410974 1459 4960 545016 2 100 99 0 0 0 0
95	2412433 1459 4961 545017 2 100 99 1 1 99 99
96	2413892 2068 4961 545017 2 100 99 0.022161 0.025898 2.470902059378 0.06167909747656
97	2415960 1459 4961 545017 2 100 99 0 0 0 0
98	2417419 1459 4962 545018 2 100 99 2 2 198 396
99	2418878 2067 4962 545018 2 100 99 0.022161 0.025898 2.47090211912 0.061679100477412
100	2420945 1558 4962 545018 2 100 99 0 0 0 0
101	2422503 1558 4963 545019 2 100 99 3 3 297 891
102	2424061 2167 4963 545019 2 100 99 0.022161 0.025898 2.470902178974 0.061679103483896
103	2426228 1558 4963 545019 2 100 99 0 0 0 0
104	2427786 1558 4964 545020 2 100 99 4 4 396 1584
105	2429344 2167 4964 545020 2 100 99 0.022161 0.025898 2.470902238868 0.061679106492397
106	2431511 1558 4964 545020 2 100 99 0 0 0 0
107	2433069 1558 4965 545021 2 100 99 5 5 495 2475
108	2434627 2167 4965 545021 2 100 99 0.022161 0.025898 2.470902298802 0.061679109502914
109	2436794 1558 4965 545021 2 100 99 0 0 0 0
110	2438352 1558 4966 545022 2 100 99 6 6 594 3564
111	2439910 2165 4966 545022 2 100 99 0.02216 0.025898 2.47090135874 0.061679068192639
112	2442075 1558 4966 545022 2 100 99 0 0 0 0
113	2443633 1558 4967 545023 2 100 99 7 7 693 4851
114	2445191 2167 4967 545023 2 100 99 0.022161 0.025931418692 2.470902418692 0.06167917006438
115	2447358 1558 4967 545023 2 100 99 0 0 0 0

