file 2454952 1720582829                                         
version 3
run BreakRanksNoGui-26-20240710-05:40:20-232832
attr configname BreakRanksNoGui
attr datetime 20240710-05:40:20
attr datetimef 20240710-054020
attr experiment BreakRanksNoGui
attr inifile omnetpp.ini
attr iterationvars "$nCars=8, $platoonSize=8, $nLanes=1, $ploegH=0.5, $controller=1, $headway=0.1, $leaderHeadway=1.2, $leaderSpeed=110, $breakRanksSafetyDistance=5, $minSpeed=100, $maxSpeed=120, $beaconInterval=0.1, $priority=4, $packetSize=200, $sController=\"CACC\", $0=2, $1=0"
attr iterationvarsd nCars=8/platoonSize=8/nLanes=1/ploegH=0.5/controller=1/headway=0.1/leaderHeadway=1.2/leaderSpeed=110/breakRanksSafetyDistance=5/minSpeed=100/maxSpeed=120/beaconInterval=0.1/priority=4/packetSize=200/sController=CACC/2/0
attr iterationvarsf nCars=8,platoonSize=8,nLanes=1,ploegH=0.5,controller=1,headway=0.1,leaderHeadway=1.2,leaderSpeed=110,breakRanksSafetyDistance=5,minSpeed=100,maxSpeed=120,beaconInterval=0.1,priority=4,packetSize=200,sController=CACC,2,0-
attr measurement "$nCars=8, $platoonSize=8, $nLanes=1, $ploegH=0.5, $controller=1, $headway=0.1, $leaderHeadway=1.2, $leaderSpeed=110, $breakRanksSafetyDistance=5, $minSpeed=100, $maxSpeed=120, $beaconInterval=0.1, $priority=4, $packetSize=200, $sController=\"CACC\", $0=2, $1=0"
attr network Highway
attr processid 232832
attr repetition 6
attr replication #6
attr resultdir results
attr runnumber 26
attr seedset 6
itervar beaconInterval 0.1
itervar breakRanksSafetyDistance 5
itervar controller 1
itervar headway 0.1
itervar leaderHeadway 1.2
itervar leaderSpeed 110
itervar maxSpeed 120
itervar minSpeed 100
itervar nCars 8
itervar nLanes 1
itervar packetSize 200
itervar platoonSize 8
itervar ploegH 0.5
itervar priority 4
itervar sController "\"CACC\""
config image-path ../../../veins/images
config repeat 10
config extends BreakRanks
config *.manager.command "\"sumo\""
config *.manager.ignoreGuiCommands true
config output-vector-file results/BreakRanks_1_0.1_110_5/result_6.vec
config output-scalar-file results/BreakRanks_1_0.1_110_5/result_6.sca
config extends Platooning
config *.node[*].scenario_type "\"BreakRanksScenario\""
config *.manager.command "\"sumo-gui\""
config *.node[*].scenario_type "\"SimpleScenario\""
config cmdenv-express-mode true
config cmdenv-autoflush true
config cmdenv-status-frequency 15s
config num-rngs 6
config network Highway
config debug-on-errors true
config print-undisposed true
config *.playgroundSizeX 65000m
config *.playgroundSizeY 25000m
config *.playgroundSizeZ 50m
config sim-time-limit "100 s"
config *.annotations.draw false
config *.obstacles.debug false
config *.world.useTorus false
config *.world.use2D false
config *.manager.updateInterval 0.01s
config *.manager.host "\"localhost\""
config *.manager.moduleType "\"org.car2x.plexe.PlatoonCar\""
config *.manager.moduleName "\"node\""
config *.manager.moduleDisplayString "\"\""
config *.manager.autoShutdown true
config *.manager.margin 25
config *.connectionManager.sendDirect true
config *.connectionManager.maxInterfDist 2600m
config *.connectionManager.drawMaxIntfDist false
config *.**.nic.mac1609_4.useServiceChannel false
config *.**.nic.mac1609_4.txPower 100mW
config *.**.nic.mac1609_4.bitrate 6Mbps
config *.**.nic.mac1609_4.useAcks true
config *.**.nic.mac1609_4.ackErrorRate 0.0
config *.**.nic.mac1609_4.frameErrorRate 0.0
config *.**.nic.phy80211p.minPowerLevel -94dBm
config *.**.nic.phy80211p.maxTXPower 100mW
config *.**.nic.phy80211p.useNoiseFloor true
config *.**.nic.phy80211p.noiseFloor -95dBm
config *.**.nic.phy80211p.decider "xmldoc(\"config.xml\")"
config *.**.nic.phy80211p.analogueModels "xmldoc(\"config.xml\")"
config *.**.nic.phy80211p.usePropagationDelay true
config *.node[*].mobility.x 0
config *.node[*].mobility.y 0
config *.node[*].mobility.z 1.895
config seed-set 6
config **.seed 6
config *.node[*].prot.rng-0 2
config *.node[*].appl.rng-0 3
config *.node[*].scenario.rng-0 4
config **.traffic.rng-0 5
config *.manager.configFile "\"./sumocfg/freeway.sumo.cfg\""
config *.manager.launchConfig "xmldoc(\"./sumocfg/freeway.launchd.xml\")"
config **.numberOfCars 8
config **.numberOfCarsPerPlatoon 8
config **.numberOfLanes 1
config *.node[*].helper_type "\"PositionHelper\""
config *.node[*].scenario.caccC1 0.5
config *.node[*].scenario.caccXi 1
config *.node[*].scenario.caccOmegaN "0.2 Hz"
config *.node[*].scenario.caccSpacing "2 m"
config *.node[*].scenario.engineTau "0.5 s"
config *.node[*].scenario.ploegH 0.5s
config *.node[*].scenario.ploegKp 0.2
config *.node[*].scenario.ploegKd 0.7
config *.node[*].scenario.useRealisticEngine false
config *.node[*].scenario.useControllerAcceleration true
config *.node[*].scenario.nLanes 1
config **.numericController 1
config **.headway 0.1s
config *.node[*].scenario.accHeadway 0.1s
config *.node[*].scenario.leaderHeadway 1.2s
config *.node[*].scenario.leaderSpeed 110kmph
config *.node[*].appl_type "\"SimplePlatooningApp\""
config *.node[*].appl.*.scalar-recording true
config *.node[*].appl.*.vector-recording true
config *.node[0].appl.breakRanksSafetyDistance 5m
config *.node[*].appl.minSpeed 100kmph
config *.node[*].appl.maxSpeed 120kmph
config *.node[*].protocol_type "\"SimplePlatooningBeaconing\""
config *.node[*].prot.*.scalar-recording true
config *.node[*].prot.*.vector-recording true
config *.node[*].prot.beaconingInterval 0.1s
config *.node[*].prot.priority 4
config *.node[*].prot.packetSize 200
config **.traffic_type "\"PlatoonsTrafficManager\""
config **.traffic.platoonInsertTime "1 s"
config **.traffic.platoonInsertSpeed 110kmph
config **.traffic.nCars 8
config **.traffic.platoonSize 8
config **.traffic.nLanes 1
config **.traffic.platooningVType "\"vtypeauto\""
config **.traffic.controller "\"CACC\""
config **.traffic.platoonInsertDistance 2m
config **.traffic.platoonInsertHeadway 0s
config **.traffic.platoonLeaderHeadway 1.2s
config **.scalar-recording false
config **.vector-recording false

vector 0 Highway.node[0].appl distance ETV
vector 1 Highway.node[0].appl relativeSpeed ETV
vector 2 Highway.node[0].appl nodeId ETV
vector 3 Highway.node[0].appl acceleration ETV
vector 4 Highway.node[0].appl controllerAcceleration ETV
vector 5 Highway.node[0].appl speed ETV
vector 6 Highway.node[0].appl posx ETV
vector 7 Highway.node[0].appl posy ETV
vector 8 Highway.node[1].appl distance ETV
vector 9 Highway.node[1].appl relativeSpeed ETV
vector 10 Highway.node[1].appl nodeId ETV
vector 11 Highway.node[1].appl acceleration ETV
vector 12 Highway.node[1].appl controllerAcceleration ETV
vector 13 Highway.node[1].appl speed ETV
vector 14 Highway.node[1].appl posx ETV
vector 15 Highway.node[1].appl posy ETV
vector 16 Highway.node[2].appl distance ETV
vector 17 Highway.node[2].appl relativeSpeed ETV
vector 18 Highway.node[2].appl nodeId ETV
vector 19 Highway.node[2].appl acceleration ETV
vector 20 Highway.node[2].appl controllerAcceleration ETV
vector 21 Highway.node[2].appl speed ETV
vector 22 Highway.node[2].appl posx ETV
vector 23 Highway.node[2].appl posy ETV
vector 24 Highway.node[3].appl distance ETV
vector 25 Highway.node[3].appl relativeSpeed ETV
vector 26 Highway.node[3].appl nodeId ETV
vector 27 Highway.node[3].appl acceleration ETV
vector 28 Highway.node[3].appl controllerAcceleration ETV
vector 29 Highway.node[3].appl speed ETV
vector 30 Highway.node[3].appl posx ETV
vector 31 Highway.node[3].appl posy ETV
vector 32 Highway.node[4].appl distance ETV
vector 33 Highway.node[4].appl relativeSpeed ETV
vector 34 Highway.node[4].appl nodeId ETV
vector 35 Highway.node[4].appl acceleration ETV
vector 36 Highway.node[4].appl controllerAcceleration ETV
vector 37 Highway.node[4].appl speed ETV
vector 38 Highway.node[4].appl posx ETV
vector 39 Highway.node[4].appl posy ETV
vector 40 Highway.node[5].appl distance ETV
vector 41 Highway.node[5].appl relativeSpeed ETV
vector 42 Highway.node[5].appl nodeId ETV
vector 43 Highway.node[5].appl acceleration ETV
vector 44 Highway.node[5].appl controllerAcceleration ETV
vector 45 Highway.node[5].appl speed ETV
vector 46 Highway.node[5].appl posx ETV
vector 47 Highway.node[5].appl posy ETV
vector 48 Highway.node[6].appl distance ETV
vector 49 Highway.node[6].appl relativeSpeed ETV
vector 50 Highway.node[6].appl nodeId ETV
vector 51 Highway.node[6].appl acceleration ETV
vector 52 Highway.node[6].appl controllerAcceleration ETV
vector 53 Highway.node[6].appl speed ETV
vector 54 Highway.node[6].appl posx ETV
vector 55 Highway.node[6].appl posy ETV
vector 56 Highway.node[7].appl distance ETV
vector 57 Highway.node[7].appl relativeSpeed ETV
vector 58 Highway.node[7].appl nodeId ETV
vector 59 Highway.node[7].appl acceleration ETV
vector 60 Highway.node[7].appl controllerAcceleration ETV
vector 61 Highway.node[7].appl speed ETV
vector 62 Highway.node[7].appl posx ETV
vector 63 Highway.node[7].appl posy ETV
vector 64 Highway.node[1].prot leaderDelay ETV
vector 65 Highway.node[1].prot leaderDelayId ETV
vector 66 Highway.node[1].prot frontDelay ETV
vector 67 Highway.node[1].prot frontDelayId ETV
vector 68 Highway.node[2].prot leaderDelay ETV
vector 69 Highway.node[2].prot leaderDelayId ETV
vector 70 Highway.node[3].prot leaderDelay ETV
vector 71 Highway.node[3].prot leaderDelayId ETV
vector 72 Highway.node[4].prot leaderDelay ETV
vector 73 Highway.node[4].prot leaderDelayId ETV
vector 74 Highway.node[5].prot leaderDelay ETV
vector 75 Highway.node[5].prot leaderDelayId ETV
vector 76 Highway.node[6].prot leaderDelay ETV
vector 77 Highway.node[6].prot leaderDelayId ETV
vector 78 Highway.node[7].prot leaderDelay ETV
vector 79 Highway.node[7].prot leaderDelayId ETV
vector 80 Highway.node[7].prot frontDelay ETV
vector 81 Highway.node[7].prot frontDelayId ETV
vector 82 Highway.node[3].prot frontDelay ETV
vector 83 Highway.node[3].prot frontDelayId ETV
vector 84 Highway.node[6].prot frontDelay ETV
vector 85 Highway.node[6].prot frontDelayId ETV
vector 86 Highway.node[2].prot frontDelay ETV
vector 87 Highway.node[2].prot frontDelayId ETV
vector 88 Highway.node[4].prot frontDelay ETV
vector 89 Highway.node[4].prot frontDelayId ETV
vector 90 Highway.node[5].prot frontDelay ETV
vector 91 Highway.node[5].prot frontDelayId ETV
vector 92 Highway.node[0].prot nodeId ETV
vector 93 Highway.node[0].prot busyTime ETV
vector 94 Highway.node[0].prot collisions ETV
vector 95 Highway.node[1].prot nodeId ETV
vector 96 Highway.node[1].prot busyTime ETV
vector 97 Highway.node[1].prot collisions ETV
vector 98 Highway.node[2].prot nodeId ETV
vector 99 Highway.node[2].prot busyTime ETV
vector 100 Highway.node[2].prot collisions ETV
vector 101 Highway.node[3].prot nodeId ETV
vector 102 Highway.node[3].prot busyTime ETV
vector 103 Highway.node[3].prot collisions ETV
vector 104 Highway.node[4].prot nodeId ETV
vector 105 Highway.node[4].prot busyTime ETV
vector 106 Highway.node[4].prot collisions ETV
vector 107 Highway.node[5].prot nodeId ETV
vector 108 Highway.node[5].prot busyTime ETV
vector 109 Highway.node[5].prot collisions ETV
vector 110 Highway.node[6].prot nodeId ETV
vector 111 Highway.node[6].prot busyTime ETV
vector 112 Highway.node[6].prot collisions ETV
vector 113 Highway.node[7].prot nodeId ETV
vector 114 Highway.node[7].prot busyTime ETV
vector 115 Highway.node[7].prot collisions ETV
0	11185 17510 113 544564 1.11 99.91 989 -1 -1 -989 989
1	28695 16521 113 544564 1.11 99.91 989 0 0 0 0
2	45216 16521 113 544564 1.11 99.91 989 0 0 0 0
3	61737 19109 113 544564 1.11 99.91 989 -0.00283113 0.000125957 -0.043966303784312 9.6812896349407e-05
4	80846 26489 113 544564 1.11 99.91 989 -0.00437036 0.00019576 -0.042459310034081 0.00013890441444735
5	107335 22451 113 544564 1.11 99.91 989 30.5554 30.56 30219.5304 923377.16656332
6	129786 22273 113 544564 1.11 99.91 989 53.7704 3072.67 1546025.5779 3169422406.5712
7	152059 21466 113 544564 1.11 99.91 989 242.45 242.45 239783.05 58135400.472499
8	173525 21608 114 544565 1.11 99.91 989 -1 101.401 14960.00211 881921.64211214
9	195133 21831 114 544565 1.11 99.91 989 -0.000377192 4 885.98443231154 3428.7406516897
10	216964 17510 114 544565 1.11 99.91 989 1 1 989 989
11	234474 26411 114 544565 1.11 99.91 989 -1.46281 0.065198 -35.562261674014 42.272734464152
12	260885 26776 114 544565 1.11 99.91 989 -1.5 0.101245 -34.734866485093 49.485549375968
13	287661 22117 114 544565 1.11 99.91 989 26.8987 30.56 28933.4648 849201.55814594
14	309778 23358 114 544565 1.11 99.91 989 47.7704 2938.24 1515499.6687 3023885130.9688
15	333136 22455 114 544565 1.11 99.91 989 242.45 245.75 241000.75 58729881.6125
16	355591 23346 115 544566 1.11 99.91 989 1.99956 105.351 23996.15363 1539865.0049863
17	378937 24708 115 544566 1.11 99.91 989 -0.000184926 2.65333 944.80152681467 2322.3420202593
18	403645 17510 115 544566 1.11 99.91 989 2 2 1978 3956
19	421155 26185 115 544566 1.11 99.91 989 -1.41121 0.0628959 -25.55753776164 29.209663251719
20	447340 26710 115 544566 1.11 99.91 989 -2.03798 0.0976692 -24.545984700966 38.328666282482
21	474050 22056 115 544566 1.11 99.91 989 27.9023 30.56 29244.7457 866142.23838357
22	496106 23358 115 544566 1.11 99.91 989 41.7704 2963.32 1513062.8132 3027895086.4531
23	519464 22455 115 544566 1.11 99.91 989 242.45 242.45 239783.05 58135400.472499
24	541919 23311 116 544567 1.11 99.91 989 1.99957 34.6412 11931.7898 287617.19314057
25	565230 25089 116 544567 1.11 99.91 989 -0.000132606 2.51845 326.4592936585 425.90968027291
26	590319 17510 116 544567 1.11 99.91 989 3 3 2967 8901
27	607829 25820 116 544567 1.11 99.91 989 -2.16424 0.307621 -26.500334861147 89.648357679668
28	633649 25842 116 544567 1.11 99.91 989 -2.79842 0.341393 -25.18554383049 108.63439353834
29	659491 23342 116 544567 1.11 99.91 989 25.4139 30.56 28918.286 848131.88050026
30	682833 23350 116 544567 1.11 99.91 989 35.7704 2924.68 1497174.0611 2962142688.5755
31	706183 22455 116 544567 1.11 99.91 989 242.45 242.45 239783.05 58135400.472499
32	728638 23289 117 544568 1.11 99.91 989 1.99976 34.5024 11503.94543 272784.40086913
33	751927 25090 117 544568 1.11 99.91 989 -4.95273e-05 2.47061 325.07816824724 419.06532052433
34	777017 17510 117 544568 1.11 99.91 989 4 4 3956 15824
35	794527 25653 117 544568 1.11 99.91 989 -2.4268 0.511002 -27.57852924937 153.19182185955
36	820180 25654 117 544568 1.11 99.91 989 -2.80223 0.543694 -26.208805393338 173.97268786254
37	845834 23348 117 544568 1.11 99.91 989 23.1634 30.56 28593.206 831024.65465086
38	869182 23339 117 544568 1.11 99.91 989 29.7704 2886.17 1481713.9979 2898889692.5988
39	892521 22455 117 544568 1.11 99.91 989 242.45 242.45 239783.05 58135400.472499
40	914976 21513 118 544569 1.11 99.91 989 -1 4.96141 1865.03386 9271.6006114946
41	936489 22598 118 544569 1.11 99.91 989 -0.00121235 0.125692 29.616345854164 2.60716514408
42	959087 17510 118 544569 1.11 99.91 989 5 5 4945 24725
43	976597 25356 118 544569 1.11 99.91 989 -0.193259 0.29491 4.4348001953889 2.3034308323549
44	1001953 26506 118 544569 1.11 99.91 989 -0.229742 0.458309 4.7780686577312 3.0701945185144
45	1028459 21940 118 544569 1.11 99.91 989 29.7897 31.0204 30229.4687 924133.11900455
46	1050399 23377 118 544569 1.11 99.91 989 23.7704 3043.64 1507988.0189 3050803112.9399
47	1073776 22455 118 544569 1.11 99.91 989 242.45 249.05 241512.25 58982971.812501
48	1096231 22268 119 544570 1.11 99.91 989 -1 60.7317 7892.13595 258286.22532892
49	1118499 23567 119 544570 1.11 99.91 989 -0.000627066 4.11232 499.52789373505 1886.1252950422
50	1142066 17510 119 544570 1.11 99.91 989 6 6 5934 35604
51	1159576 25961 119 544570 1.11 99.91 989 -1.46056 0.0651906 -35.555481564403 43.234684969465
52	1185537 26366 119 544570 1.11 99.91 989 -1.5 0.101287 -34.62315878048 50.363731808337
53	1211903 22107 119 544570 1.11 99.91 989 26.8987 30.56 28784.1522 840178.23204058
54	1234010 23366 119 544570 1.11 99.91 989 17.7704 2893.31 1474980.181 2893375921.2207
55	1257376 22455 119 544570 1.11 99.91 989 242.45 249.05 242093.05 59270351.652501
56	1279831 23296 120 544571 1.11 99.91 989 1.99984 58.1124 17373.48073 675712.417705
57	1303127 25379 120 544571 1.11 99.91 989 -2.05724 3.01004 -172.95338491743 432.01930273571
58	1328506 17510 120 544571 1.11 99.91 989 7 7 6923 48461
59	1346016 25838 120 544571 1.11 99.91 989 -2.16664 1.4952 -34.296705677552 188.82116582913
60	1371854 25677 120 544571 1.11 99.91 989 -2.25048 1.5 -34.289800457776 224.40640761273
61	1397531 23342 120 544571 1.11 99.91 989 23.8886 30.56 28896.6578 846509.28518732
62	1420873 23323 120 544571 1.11 99.91 989 11.7704 2898.55 1469129.4652 2879270042.8021
63	1444196 22455 120 544571 1.11 99.91 989 242.45 245.75 240875.35 58668661.3325
64	1466651 40008 699 544616 1.249406540374 99.949415379107 988 0.099987520333 0.100008814151 98.800009359093 9.8800018829095
65	1506659 27275 699 544616 1.249406540374 99.949415379107 988 1 1 988 988
66	1533934 40008 699 544616 1.249406540374 99.949415379107 988 0.099987520333 0.100008814151 98.800009359093 9.8800018829095
67	1573942 27275 699 544616 1.249406540374 99.949415379107 988 1 1 988 988
68	1601217 40011 705 544610 1.249406560388 99.949415295187 988 0.099987520334 0.100008814155 98.800009255159 9.8800018621227
69	1641228 27276 705 544610 1.249406560388 99.949415295187 988 2 2 1976 3952
70	1668504 39997 711 544622 1.249406580401 99.949415424093 988 0.099987520333 0.100008814163 98.800009364051 9.8800018839011
71	1708501 27252 711 544622 1.249406580401 99.949415424093 988 3 3 2964 8892
72	1735753 40005 717 544640 1.249406600415 99.949415552538 988 0.099987520333 0.100008814174 98.800009472483 9.8800019055875
73	1775758 27278 717 544640 1.249406600415 99.949415552538 988 4 4 3952 15808
74	1803036 40012 723 544604 1.249406620429 99.949415027484 988 0.099987520333 0.100008814189 98.800008927415 9.8800017965739
75	1843048 27277 723 544604 1.249406620429 99.949415027484 988 5 5 4940 24700
76	1870325 39986 729 544634 1.249406640443 99.949415529251 988 0.099987520333 0.100008814207 98.800009409168 9.8800018929245
77	1910311 27244 729 544634 1.249406640443 99.949415529251 988 6 6 5928 35568
78	1937555 40002 735 544628 1.249406660457 99.949415511441 988 0.099987520333 0.100008814228 98.800009371344 9.8800018853597
79	1977557 27264 735 544628 1.249406660457 99.949415511441 988 7 7 6916 48412
80	2004821 40018 841 544740 1.280893700485 99.980902552823 988 0.099987520333 0.100008814272 98.800009372698 9.8800018856312
81	2044839 27276 841 544740 1.280893700485 99.980902552823 988 7 7 6916 48412
82	2072115 40004 908 544813 1.29643578054 99.996431895876 988 0.099987520333 0.100008943836 98.799996635696 9.879999338382
83	2112119 27260 908 544813 1.29643578054 99.996431895876 988 3 3 2964 8892
84	2139379 39950 978 544361 1.300069840582 99.900077283017 987 0.099987520333 0.100009135584 98.700007962795 9.8700016040083
85	2179329 27233 978 544361 1.300069840582 99.900077283017 987 6 6 5922 35532
86	2206562 39945 1041 544400 1.300453920637 99.900474217395 987 0.099792754636 0.100242814102 98.699968817118 9.8699956853235
87	2246507 27244 1041 544400 1.300453920637 99.900474217395 987 2 2 1974 3948
88	2273751 39944 1107 544478 1.301721960665 99.901729308013 987 0.099987520334 0.100009135545 98.700007867708 9.870001585079
89	2313695 27234 1107 544478 1.301721960665 99.901729308013 987 4 4 3948 15792
90	2340929 39966 1173 544556 1.304796980679 99.904791833379 987 0.099987520331 0.100009009819 98.69999537306 9.8699990860489
91	2380895 27249 1173 544556 1.304796980679 99.904791833379 987 5 5 4935 24675
92	2408144 1459 4785 544868 2 100 99 0 0 0 0
93	2409603 2734 4785 544868 2 100 99 0.02146343686 0.02612297036 2.470592544352 0.061668553568509
94	2412337 1459 4785 544868 2 100 99 0 0 0 0
95	2413796 1459 4786 544869 2 100 99 1 1 99 99
96	2415255 2726 4786 544869 2 100 99 0.021462456873 0.025889294867 2.470197670592 0.06164831637531
97	2417981 1459 4786 544869 2 100 99 0 0 0 0
98	2419440 1459 4787 544870 2 100 99 2 2 198 396
99	2420899 2740 4787 544870 2 100 99 0.021463476887 0.025889292951 2.470198814058 0.061648366327448
100	2423639 1558 4787 544870 2 100 99 0 0 0 0
101	2425197 1558 4788 544871 2 100 99 3 3 297 891
102	2426755 2836 4788 544871 2 100 99 0.0214624969 0.025889292174 2.470197745062 0.061648319816112
103	2429591 1558 4788 544871 2 100 99 0 0 0 0
104	2431149 1558 4789 544872 2 100 99 4 4 396 1584
105	2432707 2836 4789 544872 2 100 99 0.021462516914 0.025889288598 2.470197676546 0.061648316257109
106	2435543 1558 4789 544872 2 100 99 0 0 0 0
107	2437101 1558 4790 544873 2 100 99 5 5 495 2475
108	2438659 2833 4790 544873 2 100 99 0.021463536928 0.025889294112 2.470199262789 0.061648388340393
109	2441492 1558 4790 544873 2 100 99 0 0 0 0
110	2443050 1558 4791 544874 2 100 99 6 6 594 3564
111	2444608 2836 4791 544874 2 100 99 0.021463516914 0.025889290885 2.470198819953 0.061648366370773
112	2447444 1558 4791 544874 2 100 99 0 0 0 0
113	2449002 1558 4792 544875 2 100 99 7 7 693 4851
114	2450560 2833 4792 544875 2 100 99 0.0214634969 0.02592270756 2.470198897556 0.06164842456599
115	2453393 1558 4792 544875 2 100 99 0 0 0 0

