file 2449054 1720582861                                         
version 3
run BreakRanksNoGui-29-20240710-05:40:52-232883
attr configname BreakRanksNoGui
attr datetime 20240710-05:40:52
attr datetimef 20240710-054052
attr experiment BreakRanksNoGui
attr inifile omnetpp.ini
attr iterationvars "$nCars=8, $platoonSize=8, $nLanes=1, $ploegH=0.5, $controller=1, $headway=0.1, $leaderHeadway=1.2, $leaderSpeed=110, $breakRanksSafetyDistance=5, $minSpeed=100, $maxSpeed=120, $beaconInterval=0.1, $priority=4, $packetSize=200, $sController=\"CACC\", $0=2, $1=0"
attr iterationvarsd nCars=8/platoonSize=8/nLanes=1/ploegH=0.5/controller=1/headway=0.1/leaderHeadway=1.2/leaderSpeed=110/breakRanksSafetyDistance=5/minSpeed=100/maxSpeed=120/beaconInterval=0.1/priority=4/packetSize=200/sController=CACC/2/0
attr iterationvarsf nCars=8,platoonSize=8,nLanes=1,ploegH=0.5,controller=1,headway=0.1,leaderHeadway=1.2,leaderSpeed=110,breakRanksSafetyDistance=5,minSpeed=100,maxSpeed=120,beaconInterval=0.1,priority=4,packetSize=200,sController=CACC,2,0-
attr measurement "$nCars=8, $platoonSize=8, $nLanes=1, $ploegH=0.5, $controller=1, $headway=0.1, $leaderHeadway=1.2, $leaderSpeed=110, $breakRanksSafetyDistance=5, $minSpeed=100, $maxSpeed=120, $beaconInterval=0.1, $priority=4, $packetSize=200, $sController=\"CACC\", $0=2, $1=0"
attr network Highway
attr processid 232883
attr repetition 9
attr replication #9
attr resultdir results
attr runnumber 29
attr seedset 9
itervar beaconInterval 0.1
itervar breakRanksSafetyDistance 5
itervar controller 1
itervar headway 0.1
itervar leaderHeadway 1.2
itervar leaderSpeed 110
itervar maxSpeed 120
itervar minSpeed 100
itervar nCars 8
itervar nLanes 1
itervar packetSize 200
itervar platoonSize 8
itervar ploegH 0.5
itervar priority 4
itervar sController "\"CACC\""
config image-path ../../../veins/images
config repeat 10
config extends BreakRanks
config *.manager.command "\"sumo\""
config *.manager.ignoreGuiCommands true
config output-vector-file results/BreakRanks_1_0.1_110_5/result_9.vec
config output-scalar-file results/BreakRanks_1_0.1_110_5/result_9.sca
config extends Platooning
config *.node[*].scenario_type "\"BreakRanksScenario\""
config *.manager.command "\"sumo-gui\""
config *.node[*].scenario_type "\"SimpleScenario\""
config cmdenv-express-mode true
config cmdenv-autoflush true
config cmdenv-status-frequency 15s
config num-rngs 6
config network Highway
config debug-on-errors true
config print-undisposed true
config *.playgroundSizeX 65000m
config *.playgroundSizeY 25000m
config *.playgroundSizeZ 50m
config sim-time-limit "100 s"
config *.annotations.draw false
config *.obstacles.debug false
config *.world.useTorus false
config *.world.use2D false
config *.manager.updateInterval 0.01s
config *.manager.host "\"localhost\""
config *.manager.moduleType "\"org.car2x.plexe.PlatoonCar\""
config *.manager.moduleName "\"node\""
config *.manager.moduleDisplayString "\"\""
config *.manager.autoShutdown true
config *.manager.margin 25
config *.connectionManager.sendDirect true
config *.connectionManager.maxInterfDist 2600m
config *.connectionManager.drawMaxIntfDist false
config *.**.nic.mac1609_4.useServiceChannel false
config *.**.nic.mac1609_4.txPower 100mW
config *.**.nic.mac1609_4.bitrate 6Mbps
config *.**.nic.mac1609_4.useAcks true
config *.**.nic.mac1609_4.ackErrorRate 0.0
config *.**.nic.mac1609_4.frameErrorRate 0.0
config *.**.nic.phy80211p.minPowerLevel -94dBm
config *.**.nic.phy80211p.maxTXPower 100mW
config *.**.nic.phy80211p.useNoiseFloor true
config *.**.nic.phy80211p.noiseFloor -95dBm
config *.**.nic.phy80211p.decider "xmldoc(\"config.xml\")"
config *.**.nic.phy80211p.analogueModels "xmldoc(\"config.xml\")"
config *.**.nic.phy80211p.usePropagationDelay true
config *.node[*].mobility.x 0
config *.node[*].mobility.y 0
config *.node[*].mobility.z 1.895
config seed-set 9
config **.seed 9
config *.node[*].prot.rng-0 2
config *.node[*].appl.rng-0 3
config *.node[*].scenario.rng-0 4
config **.traffic.rng-0 5
config *.manager.configFile "\"./sumocfg/freeway.sumo.cfg\""
config *.manager.launchConfig "xmldoc(\"./sumocfg/freeway.launchd.xml\")"
config **.numberOfCars 8
config **.numberOfCarsPerPlatoon 8
config **.numberOfLanes 1
config *.node[*].helper_type "\"PositionHelper\""
config *.node[*].scenario.caccC1 0.5
config *.node[*].scenario.caccXi 1
config *.node[*].scenario.caccOmegaN "0.2 Hz"
config *.node[*].scenario.caccSpacing "2 m"
config *.node[*].scenario.engineTau "0.5 s"
config *.node[*].scenario.ploegH 0.5s
config *.node[*].scenario.ploegKp 0.2
config *.node[*].scenario.ploegKd 0.7
config *.node[*].scenario.useRealisticEngine false
config *.node[*].scenario.useControllerAcceleration true
config *.node[*].scenario.nLanes 1
config **.numericController 1
config **.headway 0.1s
config *.node[*].scenario.accHeadway 0.1s
config *.node[*].scenario.leaderHeadway 1.2s
config *.node[*].scenario.leaderSpeed 110kmph
config *.node[*].appl_type "\"SimplePlatooningApp\""
config *.node[*].appl.*.scalar-recording true
config *.node[*].appl.*.vector-recording true
config *.node[0].appl.breakRanksSafetyDistance 5m
config *.node[*].appl.minSpeed 100kmph
config *.node[*].appl.maxSpeed 120kmph
config *.node[*].protocol_type "\"SimplePlatooningBeaconing\""
config *.node[*].prot.*.scalar-recording true
config *.node[*].prot.*.vector-recording true
config *.node[*].prot.beaconingInterval 0.1s
config *.node[*].prot.priority 4
config *.node[*].prot.packetSize 200
config **.traffic_type "\"PlatoonsTrafficManager\""
config **.traffic.platoonInsertTime "1 s"
config **.traffic.platoonInsertSpeed 110kmph
config **.traffic.nCars 8
config **.traffic.platoonSize 8
config **.traffic.nLanes 1
config **.traffic.platooningVType "\"vtypeauto\""
config **.traffic.controller "\"CACC\""
config **.traffic.platoonInsertDistance 2m
config **.traffic.platoonInsertHeadway 0s
config **.traffic.platoonLeaderHeadway 1.2s
config **.scalar-recording false
config **.vector-recording false

vector 0 Highway.node[0].appl distance ETV
vector 1 Highway.node[0].appl relativeSpeed ETV
vector 2 Highway.node[0].appl nodeId ETV
vector 3 Highway.node[0].appl acceleration ETV
vector 4 Highway.node[0].appl controllerAcceleration ETV
vector 5 Highway.node[0].appl speed ETV
vector 6 Highway.node[0].appl posx ETV
vector 7 Highway.node[0].appl posy ETV
vector 8 Highway.node[1].appl distance ETV
vector 9 Highway.node[1].appl relativeSpeed ETV
vector 10 Highway.node[1].appl nodeId ETV
vector 11 Highway.node[1].appl acceleration ETV
vector 12 Highway.node[1].appl controllerAcceleration ETV
vector 13 Highway.node[1].appl speed ETV
vector 14 Highway.node[1].appl posx ETV
vector 15 Highway.node[1].appl posy ETV
vector 16 Highway.node[2].appl distance ETV
vector 17 Highway.node[2].appl relativeSpeed ETV
vector 18 Highway.node[2].appl nodeId ETV
vector 19 Highway.node[2].appl acceleration ETV
vector 20 Highway.node[2].appl controllerAcceleration ETV
vector 21 Highway.node[2].appl speed ETV
vector 22 Highway.node[2].appl posx ETV
vector 23 Highway.node[2].appl posy ETV
vector 24 Highway.node[3].appl distance ETV
vector 25 Highway.node[3].appl relativeSpeed ETV
vector 26 Highway.node[3].appl nodeId ETV
vector 27 Highway.node[3].appl acceleration ETV
vector 28 Highway.node[3].appl controllerAcceleration ETV
vector 29 Highway.node[3].appl speed ETV
vector 30 Highway.node[3].appl posx ETV
vector 31 Highway.node[3].appl posy ETV
vector 32 Highway.node[4].appl distance ETV
vector 33 Highway.node[4].appl relativeSpeed ETV
vector 34 Highway.node[4].appl nodeId ETV
vector 35 Highway.node[4].appl acceleration ETV
vector 36 Highway.node[4].appl controllerAcceleration ETV
vector 37 Highway.node[4].appl speed ETV
vector 38 Highway.node[4].appl posx ETV
vector 39 Highway.node[4].appl posy ETV
vector 40 Highway.node[5].appl distance ETV
vector 41 Highway.node[5].appl relativeSpeed ETV
vector 42 Highway.node[5].appl nodeId ETV
vector 43 Highway.node[5].appl acceleration ETV
vector 44 Highway.node[5].appl controllerAcceleration ETV
vector 45 Highway.node[5].appl speed ETV
vector 46 Highway.node[5].appl posx ETV
vector 47 Highway.node[5].appl posy ETV
vector 48 Highway.node[6].appl distance ETV
vector 49 Highway.node[6].appl relativeSpeed ETV
vector 50 Highway.node[6].appl nodeId ETV
vector 51 Highway.node[6].appl acceleration ETV
vector 52 Highway.node[6].appl controllerAcceleration ETV
vector 53 Highway.node[6].appl speed ETV
vector 54 Highway.node[6].appl posx ETV
vector 55 Highway.node[6].appl posy ETV
vector 56 Highway.node[7].appl distance ETV
vector 57 Highway.node[7].appl relativeSpeed ETV
vector 58 Highway.node[7].appl nodeId ETV
vector 59 Highway.node[7].appl acceleration ETV
vector 60 Highway.node[7].appl controllerAcceleration ETV
vector 61 Highway.node[7].appl speed ETV
vector 62 Highway.node[7].appl posx ETV
vector 63 Highway.node[7].appl posy ETV
vector 64 Highway.node[2].prot frontDelay ETV
vector 65 Highway.node[2].prot frontDelayId ETV
vector 66 Highway.node[7].prot frontDelay ETV
vector 67 Highway.node[7].prot frontDelayId ETV
vector 68 Highway.node[3].prot frontDelay ETV
vector 69 Highway.node[3].prot frontDelayId ETV
vector 70 Highway.node[6].prot frontDelay ETV
vector 71 Highway.node[6].prot frontDelayId ETV
vector 72 Highway.node[5].prot frontDelay ETV
vector 73 Highway.node[5].prot frontDelayId ETV
vector 74 Highway.node[4].prot frontDelay ETV
vector 75 Highway.node[4].prot frontDelayId ETV
vector 76 Highway.node[1].prot leaderDelay ETV
vector 77 Highway.node[1].prot leaderDelayId ETV
vector 78 Highway.node[1].prot frontDelay ETV
vector 79 Highway.node[1].prot frontDelayId ETV
vector 80 Highway.node[2].prot leaderDelay ETV
vector 81 Highway.node[2].prot leaderDelayId ETV
vector 82 Highway.node[3].prot leaderDelay ETV
vector 83 Highway.node[3].prot leaderDelayId ETV
vector 84 Highway.node[4].prot leaderDelay ETV
vector 85 Highway.node[4].prot leaderDelayId ETV
vector 86 Highway.node[5].prot leaderDelay ETV
vector 87 Highway.node[5].prot leaderDelayId ETV
vector 88 Highway.node[6].prot leaderDelay ETV
vector 89 Highway.node[6].prot leaderDelayId ETV
vector 90 Highway.node[7].prot leaderDelay ETV
vector 91 Highway.node[7].prot leaderDelayId ETV
vector 92 Highway.node[0].prot nodeId ETV
vector 93 Highway.node[0].prot busyTime ETV
vector 94 Highway.node[0].prot collisions ETV
vector 95 Highway.node[1].prot nodeId ETV
vector 96 Highway.node[1].prot busyTime ETV
vector 97 Highway.node[1].prot collisions ETV
vector 98 Highway.node[2].prot nodeId ETV
vector 99 Highway.node[2].prot busyTime ETV
vector 100 Highway.node[2].prot collisions ETV
vector 101 Highway.node[3].prot nodeId ETV
vector 102 Highway.node[3].prot busyTime ETV
vector 103 Highway.node[3].prot collisions ETV
vector 104 Highway.node[4].prot nodeId ETV
vector 105 Highway.node[4].prot busyTime ETV
vector 106 Highway.node[4].prot collisions ETV
vector 107 Highway.node[5].prot nodeId ETV
vector 108 Highway.node[5].prot busyTime ETV
vector 109 Highway.node[5].prot collisions ETV
vector 110 Highway.node[6].prot nodeId ETV
vector 111 Highway.node[6].prot busyTime ETV
vector 112 Highway.node[6].prot collisions ETV
vector 113 Highway.node[7].prot nodeId ETV
vector 114 Highway.node[7].prot busyTime ETV
vector 115 Highway.node[7].prot collisions ETV
0	11185 17510 113 544537 1.11 99.91 989 -1 -1 -989 989
1	28695 16521 113 544537 1.11 99.91 989 0 0 0 0
2	45216 16521 113 544537 1.11 99.91 989 0 0 0 0
3	61737 19109 113 544537 1.11 99.91 989 -0.00283113 0.000125957 -0.043966303784312 9.6812896349407e-05
4	80846 26489 113 544537 1.11 99.91 989 -0.00437036 0.00019576 -0.042459310034081 0.00013890441444735
5	107335 22451 113 544537 1.11 99.91 989 30.5554 30.56 30219.5304 923377.16656332
6	129786 22360 113 544537 1.11 99.91 989 67.2304 3086.13 1559337.5215 3211220601.7681
7	152146 21466 113 544537 1.11 99.91 989 242.45 242.45 239783.05 58135400.472499
8	173612 21114 114 544538 1.11 99.91 989 -1 46.8688 6167.58378 144960.74228813
9	194726 22379 114 544538 1.11 99.91 989 -0.000570904 6 498.8628763387 1997.250598636
10	217105 17510 114 544538 1.11 99.91 989 1 1 989 989
11	234615 26419 114 544538 1.11 99.91 989 -1.46281 0.065198 -35.562261194795 42.272728892165
12	261034 26779 114 544538 1.11 99.91 989 -1.5 0.101245 -34.734854737168 49.485541146264
13	287813 22110 114 544538 1.11 99.91 989 26.8987 30.56 28933.4641 849201.51656599
14	309923 22999 114 544538 1.11 99.91 989 61.2304 2951.7 1528811.6813 3064861610.1228
15	332922 22455 114 544538 1.11 99.91 989 242.45 245.75 240697.15 58581664.0925
16	355377 23304 115 544539 1.11 99.91 989 1.99967 37.9604 14047.41349 392324.33154783
17	378681 25219 115 544539 1.11 99.91 989 -6.53874e-05 2.11349 269.65433076142 288.17535441204
18	403900 17510 115 544539 1.11 99.91 989 2 2 1978 3956
19	421410 25999 115 544539 1.11 99.91 989 -1.33594 0.233868 -0.70038790119001 24.209725102969
20	447409 25978 115 544539 1.11 99.91 989 -2.03798 0.263789 0.34632054963298 33.401909627862
21	473387 23356 115 544539 1.11 99.91 989 28.4421 30.56 29919.8913 905367.03153791
22	496743 23334 115 544539 1.11 99.91 989 55.2304 3044.17 1536322.7144 3122795982.4803
23	520077 22455 115 544539 1.11 99.91 989 242.45 242.45 239783.05 58135400.472499
24	542532 23318 116 544540 1.11 99.91 989 1.99963 37.5998 12708.85796 335599.80527652
25	565850 25086 116 544540 1.11 99.91 989 -6.16722e-05 2.75086 356.05048245178 514.71973723607
26	590936 17510 116 544540 1.11 99.91 989 3 3 2967 8901
27	608446 25739 116 544540 1.11 99.91 989 -2.15992 0.485038 -1.7444307653 90.281262579699
28	634185 25759 116 544540 1.11 99.91 989 -2.79843 0.520123 -0.38906858008999 110.1887242181
29	659944 23343 116 544540 1.11 99.91 989 25.8498 30.56 29563.8428 884881.32445054
30	683287 23324 116 544540 1.11 99.91 989 49.2304 3002.57 1519657.6275 3051903451.6484
31	706611 22455 116 544540 1.11 99.91 989 242.45 242.45 239783.05 58135400.472499
32	729066 23307 117 544541 1.11 99.91 989 1.99937 63.9678 14542.79182 511065.26512841
33	752373 25265 117 544541 1.11 99.91 989 -0.00110817 3.1189 621.23806167872 1434.776671636
34	777638 17510 117 544541 1.11 99.91 989 4 4 3956 15824
35	795148 26307 117 544541 1.11 99.91 989 -2.42602 0.693192 -35.552195170846 153.30244008108
36	821455 26291 117 544541 1.11 99.91 989 -2.80223 0.728687 -34.281498788591 175.18353280129
37	847746 22453 117 544541 1.11 99.91 989 23.5301 30.56 28641.7254 833270.4392787
38	870199 23342 117 544541 1.11 99.91 989 43.2304 2904.52 1497864.5866 2953190802.6303
39	893541 22455 117 544541 1.11 99.91 989 242.45 242.45 239783.05 58135400.472499
40	915996 21934 118 544542 1.11 99.91 989 -1 63.9367 6136.72416 211256.55648552
41	937930 22613 118 544542 1.11 99.91 989 -0.000620084 4 393.61723829312 1458.6067111198
42	960543 17510 118 544542 1.11 99.91 989 5 5 4945 24725
43	978053 25950 118 544542 1.11 99.91 989 -0.994118 0.0442819 -15.562292779692 13.194124806813
44	1004003 26508 118 544542 1.11 99.91 989 -1.5 0.0687497 -14.740879504642 18.075861279497
45	1030511 22037 118 544542 1.11 99.91 989 28.9312 30.56 29510.8185 881009.52106453
46	1052548 23380 118 544542 1.11 99.91 989 37.2304 2985.33 1508384.7814 3022790251.609
47	1075928 22455 118 544542 1.11 99.91 989 242.45 249.05 241918.15 59183811.132501
48	1098383 22674 119 544543 1.11 99.91 989 -1 48.8755 10567.22501 310672.55593811
49	1121057 24372 119 544543 1.11 99.91 989 -1.68293 4.63041 184.24804289907 595.09413242446
50	1145429 17510 119 544543 1.11 99.91 989 6 6 5934 35604
51	1162939 25947 119 544543 1.11 99.91 989 -1.16002 1.04493 -5.578554831854 45.568708255484
52	1188886 25977 119 544543 1.11 99.91 989 -1.26799 1.5 -5.1968450797024 53.990523745188
53	1214863 23107 119 544543 1.11 99.91 989 27.0596 30.56 29362.6074 872929.22379428
54	1237970 23339 119 544543 1.11 99.91 989 31.2304 2964.46 1494910.0315 2968677672.5441
55	1261309 22455 119 544543 1.11 99.91 989 242.45 252.35 242162.35 59307080.652501
56	1283764 21697 120 544544 1.11 99.91 989 -1 22.8006 2809.10011 29191.543958997
57	1305461 22955 120 544544 1.11 99.91 989 -1.32878 3.93677 35.897632564824 181.4193969295
58	1328416 17510 120 544544 1.11 99.91 989 7 7 6923 48461
59	1345926 26092 120 544544 1.11 99.91 989 -2.17183 1.49998 24.463571416311 257.96411443314
60	1372018 25835 120 544544 1.11 99.91 989 -2.26022 1.5 25.077993066043 288.61963734515
61	1397853 22529 120 544544 1.11 99.91 989 23.5123 33.1037 30312.1862 932473.36696572
62	1420382 23363 120 544544 1.11 99.91 989 25.2304 3053.27 1500105.8999 3015507764.1702
63	1443745 22455 120 544544 1.11 99.91 989 242.45 252.35 242165.65 59311457.7725
64	1466200 40012 703 544599 1.22081946032 99.920814211931 988 0.099987440284 0.100008773182 98.799995191917 9.8799990486557
65	1506212 27275 703 544599 1.22081946032 99.920814211931 988 2 2 1976 3952
66	1533487 40021 770 544672 1.230758560389 99.930766248102 988 0.099987440283 0.10000864432 98.800008128019 9.88000163595
67	1573508 27273 770 544672 1.230758560389 99.930766248102 988 7 7 6916 48412
68	1600781 40013 837 544715 1.244324640444 99.944332356966 988 0.099987440284 0.100008644342 98.800008156828 9.8800016417156
69	1640794 27272 837 544715 1.244324640444 99.944332356966 988 3 3 2964 8892
70	1668066 40011 904 544782 1.252209700486 99.952204485261 988 0.099987440285 0.100008773222 98.799995225081 9.8799990550842
71	1708077 27272 904 544782 1.252209700486 99.952204485261 988 6 6 5928 35568
72	1735349 40002 1038 544922 1.278015800556 99.978011410151 988 0.099987440284 0.100008709829 98.799996049901 9.8799992200352
73	1775351 27259 1038 544922 1.278015800556 99.978011410151 988 5 5 4940 24700
74	1802610 40006 1106 545014 1.29367482057 99.993670795783 988 0.099987440286 0.100008835341 98.799996415519 9.8799992931054
75	1842616 27266 1106 545014 1.29367482057 99.993670795783 988 4 4 3952 15808
76	1869882 39987 1167 544529 1.308748880611 99.908755903257 987 0.099987440286 0.100008835295 98.700007462951 9.8700015024365
77	1909869 27259 1167 544529 1.308748880611 99.908755903257 987 1 1 987 987
78	1937128 39987 1167 544529 1.308748880611 99.908755903257 987 0.099987440286 0.100008835295 98.700007462951 9.8700015024365
79	1977115 27259 1167 544529 1.308748880611 99.908755903257 987 1 1 987 987
80	2004374 39971 1173 544505 1.308748900625 99.908755594815 987 0.099987440286 0.100008835296 98.700007134495 9.8700014367453
81	2044345 27242 1173 544505 1.308748900625 99.908755594815 987 2 2 1974 3948
82	2071587 39959 1179 544511 1.308748920638 99.908755733577 987 0.099987440286 0.100008835297 98.700007253243 9.8700014604949
83	2111546 27256 1179 544511 1.308748920638 99.908755733577 987 3 3 2961 8883
84	2138802 39963 1185 544535 1.308748940652 99.908756060612 987 0.099987440286 0.100008835298 98.700007560265 9.8700015218993
85	2178765 27237 1185 544535 1.308748940652 99.908756060612 987 4 4 3948 15792
86	2206002 39976 1191 544517 1.308748960666 99.908755791241 987 0.099987440286 0.100008835301 98.70000727088 9.8700014640223
87	2245978 27249 1191 544517 1.308748960666 99.908755791241 987 5 5 4935 24675
88	2273227 39945 1197 544523 1.30874898068 99.908755861276 987 0.099987440286 0.100008835304 98.700007320901 9.8700014740265
89	2313172 27219 1197 544523 1.30874898068 99.908755861276 987 6 6 5922 35532
90	2340391 39962 1203 544499 1.308749000694 99.908755565 987 0.099987440286 0.100008835309 98.700007004611 9.8700014107685
91	2380353 27233 1203 544499 1.308749000694 99.908755565 987 7 7 6909 48363
92	2407586 1459 4960 545016 2 100 99 0 0 0 0
93	2409045 2067 4960 545016 2 100 99 0.02216 0.026130677686 2.471293677686 0.06169918725333
94	2411112 1459 4960 545016 2 100 99 0 0 0 0
95	2412571 1459 4961 545017 2 100 99 1 1 99 99
96	2414030 2068 4961 545017 2 100 99 0.022161 0.025898 2.470902059378 0.06167909747656
97	2416098 1459 4961 545017 2 100 99 0 0 0 0
98	2417557 1459 4962 545018 2 100 99 2 2 198 396
99	2419016 2067 4962 545018 2 100 99 0.022161 0.025898 2.47090211912 0.061679100477412
100	2421083 1558 4962 545018 2 100 99 0 0 0 0
101	2422641 1558 4963 545019 2 100 99 3 3 297 891
102	2424199 2167 4963 545019 2 100 99 0.022161 0.025898 2.470902178974 0.061679103483896
103	2426366 1558 4963 545019 2 100 99 0 0 0 0
104	2427924 1558 4964 545020 2 100 99 4 4 396 1584
105	2429482 2167 4964 545020 2 100 99 0.022161 0.025898 2.470902238868 0.061679106492397
106	2431649 1558 4964 545020 2 100 99 0 0 0 0
107	2433207 1558 4965 545021 2 100 99 5 5 495 2475
108	2434765 2165 4965 545021 2 100 99 0.022161 0.025898 2.4709022988 0.061679109502813
109	2436930 1558 4965 545021 2 100 99 0 0 0 0
110	2438488 1558 4966 545022 2 100 99 6 6 594 3564
111	2440046 2167 4966 545022 2 100 99 0.022161 0.025898 2.470902358738 0.061679112513538
112	2442213 1558 4966 545022 2 100 99 0 0 0 0
113	2443771 1558 4967 545023 2 100 99 7 7 693 4851
114	2445329 2166 4967 545023 2 100 99 0.022161 0.02593141869 2.47090241869 0.061679170064276
115	2447495 1558 4967 545023 2 100 99 0 0 0 0

