version 3
run BreakRanksNoGui-25-20240710-05:40:08-232810
attr configname BreakRanksNoGui
attr datetime 20240710-05:40:08
attr datetimef 20240710-054008
attr experiment BreakRanksNoGui
attr inifile omnetpp.ini
attr iterationvars "$nCars=8, $platoonSize=8, $nLanes=1, $ploegH=0.5, $controller=1, $headway=0.1, $leaderHeadway=1.2, $leaderSpeed=110, $breakRanksSafetyDistance=5, $minSpeed=100, $maxSpeed=120, $beaconInterval=0.1, $priority=4, $packetSize=200, $sController=\"CACC\", $0=2, $1=0"
attr iterationvarsd nCars=8/platoonSize=8/nLanes=1/ploegH=0.5/controller=1/headway=0.1/leaderHeadway=1.2/leaderSpeed=110/breakRanksSafetyDistance=5/minSpeed=100/maxSpeed=120/beaconInterval=0.1/priority=4/packetSize=200/sController=CACC/2/0
attr iterationvarsf nCars=8,platoonSize=8,nLanes=1,ploegH=0.5,controller=1,headway=0.1,leaderHeadway=1.2,leaderSpeed=110,breakRanksSafetyDistance=5,minSpeed=100,maxSpeed=120,beaconInterval=0.1,priority=4,packetSize=200,sController=CACC,2,0-
attr measurement "$nCars=8, $platoonSize=8, $nLanes=1, $ploegH=0.5, $controller=1, $headway=0.1, $leaderHeadway=1.2, $leaderSpeed=110, $breakRanksSafetyDistance=5, $minSpeed=100, $maxSpeed=120, $beaconInterval=0.1, $priority=4, $packetSize=200, $sController=\"CACC\", $0=2, $1=0"
attr network Highway
attr processid 232810
attr repetition 5
attr replication #5
attr resultdir results
attr runnumber 25
attr seedset 5
itervar beaconInterval 0.1
itervar breakRanksSafetyDistance 5
itervar controller 1
itervar headway 0.1
itervar leaderHeadway 1.2
itervar leaderSpeed 110
itervar maxSpeed 120
itervar minSpeed 100
itervar nCars 8
itervar nLanes 1
itervar packetSize 200
itervar platoonSize 8
itervar ploegH 0.5
itervar priority 4
itervar sController "\"CACC\""
config image-path ../../../veins/images
config repeat 10
config extends BreakRanks
config *.manager.command "\"sumo\""
config *.manager.ignoreGuiCommands true
config output-vector-file results/BreakRanks_1_0.1_110_5/result_5.vec
config output-scalar-file results/BreakRanks_1_0.1_110_5/result_5.sca
config extends Platooning
config *.node[*].scenario_type "\"BreakRanksScenario\""
config *.manager.command "\"sumo-gui\""
config *.node[*].scenario_type "\"SimpleScenario\""
config cmdenv-express-mode true
config cmdenv-autoflush true
config cmdenv-status-frequency 15s
config num-rngs 6
config network Highway
config debug-on-errors true
config print-undisposed true
config *.playgroundSizeX 65000m
config *.playgroundSizeY 25000m
config *.playgroundSizeZ 50m
config sim-time-limit "100 s"
config *.annotations.draw false
config *.obstacles.debug false
config *.world.useTorus false
config *.world.use2D false
config *.manager.updateInterval 0.01s
config *.manager.host "\"localhost\""
config *.manager.moduleType "\"org.car2x.plexe.PlatoonCar\""
config *.manager.moduleName "\"node\""
config *.manager.moduleDisplayString "\"\""
config *.manager.autoShutdown true
config *.manager.margin 25
config *.connectionManager.sendDirect true
config *.connectionManager.maxInterfDist 2600m
config *.connectionManager.drawMaxIntfDist false
config *.**.nic.mac1609_4.useServiceChannel false
config *.**.nic.mac1609_4.txPower 100mW
config *.**.nic.mac1609_4.bitrate 6Mbps
config *.**.nic.mac1609_4.useAcks true
config *.**.nic.mac1609_4.ackErrorRate 0.0
config *.**.nic.mac1609_4.frameErrorRate 0.0
config *.**.nic.phy80211p.minPowerLevel -94dBm
config *.**.nic.phy80211p.maxTXPower 100mW
config *.**.nic.phy80211p.useNoiseFloor true
config *.**.nic.phy80211p.noiseFloor -95dBm
config *.**.nic.phy80211p.decider "xmldoc(\"config.xml\")"
config *.**.nic.phy80211p.analogueModels "xmldoc(\"config.xml\")"
config *.**.nic.phy80211p.usePropagationDelay true
config *.node[*].mobility.x 0
config *.node[*].mobility.y 0
config *.node[*].mobility.z 1.895
config seed-set 5
config **.seed 5
config *.node[*].prot.rng-0 2
config *.node[*].appl.rng-0 3
config *.node[*].scenario.rng-0 4
config **.traffic.rng-0 5
config *.manager.configFile "\"./sumocfg/freeway.sumo.cfg\""
config *.manager.launchConfig "xmldoc(\"./sumocfg/freeway.launchd.xml\")"
config **.numberOfCars 8
config **.numberOfCarsPerPlatoon 8
config **.numberOfLanes 1
config *.node[*].helper_type "\"PositionHelper\""
config *.node[*].scenario.caccC1 0.5
config *.node[*].scenario.caccXi 1
config *.node[*].scenario.caccOmegaN "0.2 Hz"
config *.node[*].scenario.caccSpacing "2 m"
config *.node[*].scenario.engineTau "0.5 s"
config *.node[*].scenario.ploegH 0.5s
config *.node[*].scenario.ploegKp 0.2
config *.node[*].scenario.ploegKd 0.7
config *.node[*].scenario.useRealisticEngine false
config *.node[*].scenario.useControllerAcceleration true
config *.node[*].scenario.nLanes 1
config **.numericController 1
config **.headway 0.1s
config *.node[*].scenario.accHeadway 0.1s
config *.node[*].scenario.leaderHeadway 1.2s
config *.node[*].scenario.leaderSpeed 110kmph
config *.node[*].appl_type "\"SimplePlatooningApp\""
config *.node[*].appl.*.scalar-recording true
config *.node[*].appl.*.vector-recording true
config *.node[0].appl.breakRanksSafetyDistance 5m
config *.node[*].appl.minSpeed 100kmph
config *.node[*].appl.maxSpeed 120kmph
config *.node[*].protocol_type "\"SimplePlatooningBeaconing\""
config *.node[*].prot.*.scalar-recording true
config *.node[*].prot.*.vector-recording true
config *.node[*].prot.beaconingInterval 0.1s
config *.node[*].prot.priority 4
config *.node[*].prot.packetSize 200
config **.traffic_type "\"PlatoonsTrafficManager\""
config **.traffic.platoonInsertTime "1 s"
config **.traffic.platoonInsertSpeed 110kmph
config **.traffic.nCars 8
config **.traffic.platoonSize 8
config **.traffic.nLanes 1
config **.traffic.platooningVType "\"vtypeauto\""
config **.traffic.controller "\"CACC\""
config **.traffic.platoonInsertDistance 2m
config **.traffic.platoonInsertHeadway 0s
config **.traffic.platoonLeaderHeadway 1.2s
config **.scalar-recording false
config **.vector-recording false

vector 0 Highway.node[0].appl distance ETV
vector 1 Highway.node[0].appl relativeSpeed ETV
vector 2 Highway.node[0].appl nodeId ETV
vector 3 Highway.node[0].appl acceleration ETV
vector 4 Highway.node[0].appl controllerAcceleration ETV
vector 5 Highway.node[0].appl speed ETV
vector 6 Highway.node[0].appl posx ETV
vector 7 Highway.node[0].appl posy ETV
vector 8 Highway.node[1].appl distance ETV
vector 9 Highway.node[1].appl relativeSpeed ETV
vector 10 Highway.node[1].appl nodeId ETV
vector 11 Highway.node[1].appl acceleration ETV
vector 12 Highway.node[1].appl controllerAcceleration ETV
vector 13 Highway.node[1].appl speed ETV
vector 14 Highway.node[1].appl posx ETV
vector 15 Highway.node[1].appl posy ETV
vector 16 Highway.node[2].appl distance ETV
vector 17 Highway.node[2].appl relativeSpeed ETV
vector 18 Highway.node[2].appl nodeId ETV
vector 19 Highway.node[2].appl acceleration ETV
vector 20 Highway.node[2].appl controllerAcceleration ETV
vector 21 Highway.node[2].appl speed ETV
vector 22 Highway.node[2].appl posx ETV
vector 23 Highway.node[2].appl posy ETV
vector 24 Highway.node[3].appl distance ETV
vector 25 Highway.node[3].appl relativeSpeed ETV
vector 26 Highway.node[3].appl nodeId ETV
vector 27 Highway.node[3].appl acceleration ETV
vector 28 Highway.node[3].appl controllerAcceleration ETV
vector 29 Highway.node[3].appl speed ETV
vector 30 Highway.node[3].appl posx ETV
vector 31 Highway.node[3].appl posy ETV
vector 32 Highway.node[4].appl distance ETV
vector 33 Highway.node[4].appl relativeSpeed ETV
vector 34 Highway.node[4].appl nodeId ETV
vector 35 Highway.node[4].appl acceleration ETV
vector 36 Highway.node[4].appl controllerAcceleration ETV
vector 37 Highway.node[4].appl speed ETV
vector 38 Highway.node[4].appl posx ETV
vector 39 Highway.node[4].appl posy ETV
vector 40 Highway.node[5].appl distance ETV
vector 41 Highway.node[5].appl relativeSpeed ETV
vector 42 Highway.node[5].appl nodeId ETV
vector 43 Highway.node[5].appl acceleration ETV
vector 44 Highway.node[5].appl controllerAcceleration ETV
vector 45 Highway.node[5].appl speed ETV
vector 46 Highway.node[5].appl posx ETV
vector 47 Highway.node[5].appl posy ETV
vector 48 Highway.node[6].appl distance ETV
vector 49 Highway.node[6].appl relativeSpeed ETV
vector 50 Highway.node[6].appl nodeId ETV
vector 51 Highway.node[6].appl acceleration ETV
vector 52 Highway.node[6].appl controllerAcceleration ETV
vector 53 Highway.node[6].appl speed ETV
vector 54 Highway.node[6].appl posx ETV
vector 55 Highway.node[6].appl posy ETV
vector 56 Highway.node[7].appl distance ETV
vector 57 Highway.node[7].appl relativeSpeed ETV
vector 58 Highway.node[7].appl nodeId ETV
vector 59 Highway.node[7].appl acceleration ETV
vector 60 Highway.node[7].appl controllerAcceleration ETV
vector 61 Highway.node[7].appl speed ETV
vector 62 Highway.node[7].appl posx ETV
vector 63 Highway.node[7].appl posy ETV
vector 64 Highway.node[2].prot frontDelay ETV
vector 65 Highway.node[2].prot frontDelayId ETV
vector 66 Highway.node[6].prot frontDelay ETV
vector 67 Highway.node[6].prot frontDelayId ETV
vector 68 Highway.node[3].prot frontDelay ETV
vector 69 Highway.node[3].prot frontDelayId ETV
vector 70 Highway.node[4].prot frontDelay ETV
vector 71 Highway.node[4].prot frontDelayId ETV
vector 72 Highway.node[5].prot frontDelay ETV
vector 73 Highway.node[5].prot frontDelayId ETV
vector 74 Highway.node[1].prot leaderDelay ETV
vector 75 Highway.node[1].prot leaderDelayId ETV
vector 76 Highway.node[1].prot frontDelay ETV
vector 77 Highway.node[1].prot frontDelayId ETV
vector 78 Highway.node[2].prot leaderDelay ETV
vector 79 Highway.node[2].prot leaderDelayId ETV
vector 80 Highway.node[3].prot leaderDelay ETV
vector 81 Highway.node[3].prot leaderDelayId ETV
vector 82 Highway.node[4].prot leaderDelay ETV
vector 83 Highway.node[4].prot leaderDelayId ETV
vector 84 Highway.node[5].prot leaderDelay ETV
vector 85 Highway.node[5].prot leaderDelayId ETV
vector 86 Highway.node[6].prot leaderDelay ETV
vector 87 Highway.node[6].prot leaderDelayId ETV
vector 88 Highway.node[7].prot leaderDelay ETV
vector 89 Highway.node[7].prot leaderDelayId ETV
vector 90 Highway.node[7].prot frontDelay ETV
vector 91 Highway.node[7].prot frontDelayId ETV
vector 92 Highway.node[0].prot nodeId ETV
vector 93 Highway.node[0].prot busyTime ETV
vector 94 Highway.node[0].prot collisions ETV
vector 95 Highway.node[1].prot nodeId ETV
vector 96 Highway.node[1].prot busyTime ETV
vector 97 Highway.node[1].prot collisions ETV
vector 98 Highway.node[2].prot nodeId ETV
vector 99 Highway.node[2].prot busyTime ETV
vector 100 Highway.node[2].prot collisions ETV
vector 101 Highway.node[3].prot nodeId ETV
vector 102 Highway.node[3].prot busyTime ETV
vector 103 Highway.node[3].prot collisions ETV
vector 104 Highway.node[4].prot nodeId ETV
vector 105 Highway.node[4].prot busyTime ETV
vector 106 Highway.node[4].prot collisions ETV
vector 107 Highway.node[5].prot nodeId ETV
vector 108 Highway.node[5].prot busyTime ETV
vector 109 Highway.node[5].prot collisions ETV
vector 110 Highway.node[6].prot nodeId ETV
vector 111 Highway.node[6].prot busyTime ETV
vector 112 Highway.node[6].prot collisions ETV
vector 113 Highway.node[7].prot nodeId ETV
vector 114 Highway.node[7].prot busyTime ETV
vector 115 Highway.node[7].prot collisions ETV
0	113	1.11	-1
0	659	1.21	-1
0	1205	1.31	-1
0	1751	1.41	-1
0	2297	1.51	-1
0	2843	1.61	-1
0	3389	1.71	-1
0	3935	1.81	-1
0	4481	1.91	-1
0	5035	2.01	-1
0	5581	2.11	-1
0	6127	2.21	-1
0	6673	2.31	-1
0	7219	2.41	-1
0	7765	2.51	-1
0	8311	2.61	-1
0	8857	2.71	-1
0	9403	2.81	-1
0	9949	2.91	-1
0	10503	3.01	-1
0	11049	3.11	-1
0	11595	3.21	-1
0	12141	3.31	-1
0	12687	3.41	-1
0	13233	3.51	-1
0	13779	3.61	-1
0	14325	3.71	-1
0	14871	3.81	-1
0	15417	3.91	-1
0	15971	4.01	-1
0	16517	4.11	-1
0	17063	4.21	-1
0	17609	4.31	-1
0	18155	4.41	-1
0	18701	4.51	-1
0	19247	4.61	-1
0	19793	4.71	-1
0	20339	4.81	-1
0	20885	4.91	-1
0	21439	5.01	-1
0	21985	5.11	-1
0	22531	5.21	-1
0	23077	5.31	-1
0	23623	5.41	-1
0	24169	5.51	-1
0	24715	5.61	-1
0	25261	5.71	-1
0	25807	5.81	-1
0	26353	5.91	-1
0	26907	6.01	-1
0	27453	6.11	-1
0	27999	6.21	-1
0	28545	6.31	-1
0	29091	6.41	-1
0	29637	6.51	-1
0	30183	6.61	-1
0	30729	6.71	-1
0	31275	6.81	-1
0	31821	6.91	-1
0	32375	7.01	-1
0	32921	7.11	-1
0	33467	7.21	-1
0	34013	7.31	-1
0	34559	7.41	-1
0	35105	7.51	-1
0	35651	7.61	-1
0	36197	7.71	-1
0	36743	7.81	-1
0	37289	7.91	-1
0	37843	8.01	-1
0	38389	8.11	-1
0	38935	8.21	-1
0	39481	8.31	-1
0	40027	8.41	-1
0	40573	8.51	-1
0	41119	8.61	-1
0	41665	8.71	-1
0	42211	8.81	-1
0	42757	8.91	-1
0	43311	9.01	-1
0	43857	9.11	-1
0	44403	9.21	-1
0	44949	9.31	-1
0	45495	9.41	-1
0	46041	9.51	-1
0	46587	9.61	-1
0	47133	9.71	-1
0	47679	9.81	-1
0	48225	9.91	-1
0	48853	10.01	-1
0	49406	10.11	-1
0	49959	10.21	-1
0	50512	10.31	-1
0	51065	10.41	-1
0	51618	10.51	-1
0	52171	10.61	-1
0	52724	10.71	-1
0	53277	10.81	-1
0	53830	10.91	-1
0	54391	11.01	-1
0	54944	11.11	-1
0	55497	11.21	-1
0	56050	11.31	-1
0	56603	11.41	-1
0	57156	11.51	-1
0	57709	11.61	-1
0	58262	11.71	-1
0	58815	11.81	-1
0	59368	11.91	-1
0	59929	12.01	-1
0	60482	12.11	-1
0	61035	12.21	-1
0	61588	12.31	-1
0	62141	12.41	-1
0	62694	12.51	-1
0	63247	12.61	-1
0	63800	12.71	-1
0	64353	12.81	-1
0	64906	12.91	-1
0	65467	13.01	-1
0	66020	13.11	-1
0	66573	13.21	-1
0	67126	13.31	-1
0	67679	13.41	-1
0	68232	13.51	-1
0	68785	13.61	-1
0	69338	13.71	-1
0	69891	13.81	-1
0	70444	13.91	-1
0	71005	14.01	-1
0	71558	14.11	-1
0	72111	14.21	-1
0	72664	14.31	-1
0	73217	14.41	-1
0	73770	14.51	-1
0	74323	14.61	-1
0	74876	14.71	-1
0	75429	14.81	-1
0	75982	14.91	-1
0	76543	15.01	-1
0	77096	15.11	-1
0	77649	15.21	-1
0	78202	15.31	-1
0	78755	15.41	-1
0	79308	15.51	-1
0	79861	15.61	-1
0	80414	15.71	-1
0	80967	15.81	-1
0	81520	15.91	-1
0	82081	16.01	-1
0	82634	16.11	-1
0	83187	16.21	-1
0	83740	16.31	-1
0	84293	16.41	-1
0	84846	16.51	-1
0	85399	16.61	-1
0	85952	16.71	-1
0	86505	16.81	-1
0	87058	16.91	-1
0	87619	17.01	-1
0	88172	17.11	-1
0	88725	17.21	-1
0	89278	17.31	-1
0	89831	17.41	-1
0	90384	17.51	-1
0	90937	17.61	-1
0	91490	17.71	-1
0	92043	17.81	-1
0	92596	17.91	-1
0	93157	18.01	-1
0	93710	18.11	-1
0	94263	18.21	-1
0	94816	18.31	-1
0	95369	18.41	-1
0	95922	18.51	-1
0	96475	18.61	-1
0	97028	18.71	-1
0	97581	18.81	-1
0	98134	18.91	-1
0	98695	19.01	-1
0	99248	19.11	-1
0	99801	19.21	-1
0	100354	19.31	-1
0	100907	19.41	-1
0	101460	19.51	-1
0	102013	19.61	-1
0	102566	19.71	-1
0	103119	19.81	-1
0	103672	19.91	-1
0	104233	20.01	-1
0	104786	20.11	-1
0	105339	20.21	-1
0	105892	20.31	-1
0	106445	20.41	-1
0	106998	20.51	-1
0	107551	20.61	-1
0	108104	20.71	-1
0	108657	20.81	-1
0	109210	20.91	-1
0	109771	21.01	-1
0	110324	21.11	-1
0	110877	21.21	-1
0	111430	21.31	-1
0	111983	21.41	-1
0	112536	21.51	-1
0	113089	21.61	-1
0	113642	21.71	-1
0	114195	21.81	-1
0	114748	21.91	-1
0	115309	22.01	-1
0	115862	22.11	-1
0	116415	22.21	-1
0	116968	22.31	-1
0	117521	22.41	-1
0	118074	22.51	-1
0	118627	22.61	-1
0	119180	22.71	-1
0	119733	22.81	-1
0	120286	22.91	-1
0	120847	23.01	-1
0	121400	23.11	-1
0	121953	23.21	-1
0	122506	23.31	-1
0	123059	23.41	-1
0	123612	23.51	-1
0	124165	23.61	-1
0	124718	23.71	-1
0	125271	23.81	-1
0	125824	23.91	-1
0	126385	24.01	-1
0	126938	24.11	-1
0	127491	24.21	-1
0	128044	24.31	-1
0	128597	24.41	-1
0	129150	24.51	-1
0	129703	24.61	-1
0	130256	24.71	-1
0	130809	24.81	-1
0	131362	24.91	-1
0	131923	25.01	-1
0	132476	25.11	-1
0	133029	25.21	-1
0	133582	25.31	-1
0	134135	25.41	-1
0	134688	25.51	-1
0	135241	25.61	-1
0	135794	25.71	-1
0	136347	25.81	-1
0	136900	25.91	-1
0	137461	26.01	-1
0	138014	26.11	-1
0	138567	26.21	-1
0	139120	26.31	-1
0	139673	26.41	-1
0	140226	26.51	-1
0	140779	26.61	-1
0	141332	26.71	-1
0	141885	26.81	-1
0	142438	26.91	-1
0	142999	27.01	-1
0	143552	27.11	-1
0	144105	27.21	-1
0	144658	27.31	-1
0	145211	27.41	-1
0	145764	27.51	-1
0	146317	27.61	-1
0	146870	27.71	-1
0	147423	27.81	-1
0	147976	27.91	-1
0	148537	28.01	-1
0	149090	28.11	-1
0	149643	28.21	-1
0	150196	28.31	-1
0	150749	28.41	-1
0	151302	28.51	-1
0	151855	28.61	-1
0	152408	28.71	-1
0	152961	28.81	-1
0	153514	28.91	-1
0	154075	29.01	-1
0	154628	29.11	-1
0	155181	29.21	-1
0	155734	29.31	-1
0	156287	29.41	-1
0	156840	29.51	-1
0	157393	29.61	-1
0	157946	29.71	-1
0	158499	29.81	-1
0	159052	29.91	-1
0	159613	30.01	-1
0	160166	30.11	-1
0	160719	30.21	-1
0	161272	30.31	-1
0	161825	30.41	-1
0	162378	30.51	-1
0	162931	30.61	-1
0	163484	30.71	-1
0	164037	30.81	-1
0	164590	30.91	-1
0	165151	31.01	-1
0	165704	31.11	-1
0	166257	31.21	-1
0	166810	31.31	-1
0	167363	31.41	-1
0	167916	31.51	-1
0	168469	31.61	-1
0	169022	31.71	-1
0	169575	31.81	-1
0	170128	31.91	-1
0	170689	32.01	-1
0	171242	32.11	-1
0	171795	32.21	-1
0	172348	32.31	-1
0	172901	32.41	-1
0	173454	32.51	-1
0	174007	32.61	-1
0	174560	32.71	-1
0	175113	32.81	-1
0	175666	32.91	-1
0	176227	33.01	-1
0	176780	33.11	-1
0	177333	33.21	-1
0	177886	33.31	-1
0	178439	33.41	-1
0	178992	33.51	-1
0	179545	33.61	-1
0	180098	33.71	-1
0	180651	33.81	-1
0	181204	33.91	-1
0	181765	34.01	-1
0	182318	34.11	-1
0	182871	34.21	-1
0	183424	34.31	-1
0	183977	34.41	-1
0	184530	34.51	-1
0	185083	34.61	-1
0	185636	34.71	-1
0	186189	34.81	-1
0	186742	34.91	-1
0	187303	35.01	-1
0	187856	35.11	-1
0	188409	35.21	-1
0	188962	35.31	-1
0	189515	35.41	-1
0	190068	35.51	-1
0	190621	35.61	-1
0	191174	35.71	-1
0	191727	35.81	-1
0	192280	35.91	-1
0	192841	36.01	-1
0	193394	36.11	-1
0	193947	36.21	-1
0	194500	36.31	-1
0	195146	36.41	-1
0	195698	36.51	-1
0	196250	36.61	-1
0	196802	36.71	-1
0	197354	36.81	-1
0	197906	36.91	-1
0	198466	37.01	-1
0	199018	37.11	-1
0	199570	37.21	-1
0	200122	37.31	-1
0	200674	37.41	-1
0	201226	37.51	-1
0	201778	37.61	-1
0	202330	37.71	-1
0	202882	37.81	-1
0	203434	37.91	-1
0	203994	38.01	-1
0	204546	38.11	-1
0	205098	38.21	-1
0	205650	38.31	-1
0	206202	38.41	-1
0	206754	38.51	-1
0	207306	38.61	-1
0	207858	38.71	-1
0	208410	38.81	-1
0	208962	38.91	-1
0	209522	39.01	-1
0	210074	39.11	-1
0	210626	39.21	-1
0	211178	39.31	-1
0	211730	39.41	-1
0	212282	39.51	-1
0	212834	39.61	-1
0	213386	39.71	-1
0	213938	39.81	-1
0	214490	39.91	-1
0	215050	40.01	-1
0	215602	40.11	-1
0	216154	40.21	-1
0	216706	40.31	-1
0	217258	40.41	-1
0	217810	40.51	-1
0	218362	40.61	-1
0	218914	40.71	-1
0	219466	40.81	-1
0	220018	40.91	-1
0	220578	41.01	-1
0	221130	41.11	-1
0	221682	41.21	-1
0	222234	41.31	-1
0	222786	41.41	-1
0	223431	41.51	-1
0	223982	41.61	-1
0	224533	41.71	-1
0	225084	41.81	-1
0	225635	41.91	-1
0	226194	42.01	-1
0	226745	42.11	-1
0	227296	42.21	-1
0	227847	42.31	-1
0	228398	42.41	-1
0	228949	42.51	-1
0	229500	42.61	-1
0	230051	42.71	-1
0	230602	42.81	-1
0	231153	42.91	-1
0	231712	43.01	-1
0	232263	43.11	-1
0	232814	43.21	-1
0	233365	43.31	-1
0	233916	43.41	-1
0	234467	43.51	-1
0	235018	43.61	-1
0	235569	43.71	-1
0	236120	43.81	-1
0	236671	43.91	-1
0	237230	44.01	-1
0	237781	44.11	-1
0	238332	44.21	-1
0	238883	44.31	-1
0	239434	44.41	-1
0	239985	44.51	-1
0	240536	44.61	-1
0	241087	44.71	-1
0	241638	44.81	-1
0	242189	44.91	-1
0	242748	45.01	-1
0	243299	45.11	-1
0	243850	45.21	-1
0	244401	45.31	-1
0	244952	45.41	-1
0	245503	45.51	-1
0	246054	45.61	-1
0	246605	45.71	-1
0	247156	45.81	-1
0	247707	45.91	-1
0	248266	46.01	-1
0	248817	46.11	-1
0	249461	46.21	-1
0	250011	46.31	-1
0	250561	46.41	-1
0	251111	46.51	-1
0	251661	46.61	-1
0	252211	46.71	-1
0	252761	46.81	-1
0	253311	46.91	-1
0	253869	47.01	-1
0	254419	47.11	-1
0	254969	47.21	-1
0	255519	47.31	-1
0	256069	47.41	-1
0	256619	47.51	-1
0	257169	47.61	-1
0	257719	47.71	-1
0	258269	47.81	-1
0	258819	47.91	-1
0	259377	48.01	-1
0	259927	48.11	-1
0	260477	48.21	-1
0	261027	48.31	-1
0	261577	48.41	-1
0	262127	48.51	-1
0	262677	48.61	-1
0	263227	48.71	-1
0	263777	48.81	-1
0	264327	48.91	-1
0	264885	49.01	-1
0	265435	49.11	-1
0	265985	49.21	-1
0	266535	49.31	-1
0	267085	49.41	-1
0	267635	49.51	-1
0	268185	49.61	-1
0	268735	49.71	-1
0	269285	49.81	-1
0	269835	49.91	-1
0	270393	50.01	-1
0	270943	50.11	-1
0	271493	50.21	-1
0	272043	50.31	-1
0	272593	50.41	-1
0	273143	50.51	-1
0	273786	50.61	-1
0	274335	50.71	-1
0	274884	50.81	-1
0	275433	50.91	-1
0	275990	51.01	-1
0	276539	51.11	-1
0	277088	51.21	-1
0	277637	51.31	-1
0	278186	51.41	-1
0	278735	51.51	-1
0	279284	51.61	-1
0	279833	51.71	-1
0	280382	51.81	-1
0	280931	51.91	-1
0	281488	52.01	-1
0	282037	52.11	-1
0	282586	52.21	-1
0	283135	52.31	-1
0	283684	52.41	-1
0	284233	52.51	-1
0	284782	52.61	-1
0	285331	52.71	-1
0	285880	52.81	-1
0	286429	52.91	-1
0	286986	53.01	-1
0	287535	53.11	-1
0	288084	53.21	-1
0	288633	53.31	-1
0	289182	53.41	-1
0	289731	53.51	-1
0	290280	53.61	-1
0	290829	53.71	-1
0	291378	53.81	-1
0	291927	53.91	-1
0	292484	54.01	-1
0	293033	54.11	-1
0	293582	54.21	-1
0	294131	54.31	-1
0	294680	54.41	-1
0	295229	54.51	-1
0	295778	54.61	-1
0	296327	54.71	-1
0	296876	54.81	-1
0	297518	54.91	-1
0	298074	55.01	-1
0	298622	55.11	-1
0	299170	55.21	-1
0	299718	55.31	-1
0	300266	55.41	-1
0	300814	55.51	-1
0	301362	55.61	-1
0	301910	55.71	-1
0	302458	55.81	-1
0	303006	55.91	-1
0	303562	56.01	-1
0	304110	56.11	-1
0	304658	56.21	-1
0	305206	56.31	-1
0	305754	56.41	-1
0	306302	56.51	-1
0	306850	56.61	-1
0	307398	56.71	-1
0	307946	56.81	-1
0	308494	56.91	-1
0	309050	57.01	-1
0	309598	57.11	-1
0	310146	57.21	-1
0	310694	57.31	-1
0	311242	57.41	-1
0	311790	57.51	-1
0	312338	57.61	-1
0	312886	57.71	-1
0	313434	57.81	-1
0	313982	57.91	-1
0	314538	58.01	-1
0	315086	58.11	-1
0	315634	58.21	-1
0	316182	58.31	-1
0	316730	58.41	-1
0	317278	58.51	-1
0	317826	58.61	-1
0	318374	58.71	-1
0	318922	58.81	-1
0	319470	58.91	-1
0	320119	59.01	-1
0	320666	59.11	-1
0	321213	59.21	-1
0	321760	59.31	-1
0	322307	59.41	-1
0	322854	59.51	-1
0	323401	59.61	-1
0	323948	59.71	-1
0	324495	59.81	-1
0	325042	59.91	-1
0	325597	60.01	-1
0	326144	60.11	-1
0	326691	60.21	-1
0	327238	60.31	-1
0	327785	60.41	-1
0	328332	60.51	-1
0	328879	60.61	-1
0	329426	60.71	-1
0	329973	60.81	-1
0	330520	60.91	-1
0	331075	61.01	-1
0	331622	61.11	-1
0	332169	61.21	-1
0	332716	61.31	-1
0	333263	61.41	-1
0	333810	61.51	-1
0	334357	61.61	-1
0	334904	61.71	-1
0	335451	61.81	-1
0	335998	61.91	-1
0	336553	62.01	-1
0	337100	62.11	-1
0	337647	62.21	-1
0	338194	62.31	-1
0	338741	62.41	-1
0	339288	62.51	-1
0	339835	62.61	-1
0	340382	62.71	-1
0	340929	62.81	-1
0	341476	62.91	-1
0	342775	63.01	-1
0	343321	63.11	-1
0	343867	63.21	-1
0	344413	63.31	-1
0	344959	63.41	-1
0	345505	63.51	-1
0	346051	63.61	-1
0	346597	63.71	-1
0	347143	63.81	-1
0	347689	63.91	-1
0	348243	64.01	-1
0	348789	64.11	-1
0	349335	64.21	-1
0	349881	64.31	-1
0	350427	64.41	-1
0	350973	64.51	-1
0	351519	64.61	-1
0	352065	64.71	-1
0	352611	64.81	-1
0	353157	64.91	-1
0	353711	65.01	-1
0	354257	65.11	-1
0	354803	65.21	-1
0	355349	65.31	-1
0	355895	65.41	-1
0	356441	65.51	-1
0	356987	65.61	-1
0	357533	65.71	-1
0	358079	65.81	-1
0	358625	65.91	-1
0	359179	66.01	-1
0	359725	66.11	-1
0	360271	66.21	-1
0	360817	66.31	-1
0	361363	66.41	-1
0	361909	66.51	-1
0	362455	66.61	-1
0	363001	66.71	-1
0	363547	66.81	-1
0	364093	66.91	-1
0	364647	67.01	-1
0	365193	67.11	-1
0	365739	67.21	-1
0	366285	67.31	-1
0	366831	67.41	-1
0	367377	67.51	-1
0	367923	67.61	-1
0	368469	67.71	-1
0	369015	67.81	-1
0	369561	67.91	-1
0	370115	68.01	-1
0	370661	68.11	-1
0	371207	68.21	-1
0	371753	68.31	-1
0	372299	68.41	-1
0	372845	68.51	-1
0	373391	68.61	-1
0	373937	68.71	-1
0	374483	68.81	-1
0	375029	68.91	-1
0	375583	69.01	-1
0	376129	69.11	-1
0	376675	69.21	-1
0	377221	69.31	-1
0	377767	69.41	-1
0	378313	69.51	-1
0	378859	69.61	-1
0	379405	69.71	-1
0	379951	69.81	-1
0	380497	69.91	-1
0	381051	70.01	-1
0	381597	70.11	-1
0	382143	70.21	-1
0	382689	70.31	-1
0	383235	70.41	-1
0	383781	70.51	-1
0	384327	70.61	-1
0	384873	70.71	-1
0	385419	70.81	-1
0	385965	70.91	-1
0	386519	71.01	-1
0	387065	71.11	-1
0	387611	71.21	-1
0	388157	71.31	-1
0	388703	71.41	-1
0	389249	71.51	-1
0	389795	71.61	-1
0	390341	71.71	-1
0	390887	71.81	-1
0	391433	71.91	-1
0	391987	72.01	-1
0	392533	72.11	-1
0	393079	72.21	-1
0	393625	72.31	-1
0	394171	72.41	-1
0	394717	72.51	-1
0	395263	72.61	-1
0	395809	72.71	-1
0	396355	72.81	-1
0	396901	72.91	-1
0	397455	73.01	-1
0	398001	73.11	-1
0	398547	73.21	-1
0	399093	73.31	-1
0	399639	73.41	-1
0	400185	73.51	-1
0	400731	73.61	-1
0	401277	73.71	-1
0	401823	73.81	-1
0	402369	73.91	-1
0	402923	74.01	-1
0	403469	74.11	-1
0	404015	74.21	-1
0	404561	74.31	-1
0	405107	74.41	-1
0	405653	74.51	-1
0	406199	74.61	-1
0	406745	74.71	-1
0	407291	74.81	-1
0	407837	74.91	-1
0	408391	75.01	-1
0	408937	75.11	-1
0	409483	75.21	-1
0	410029	75.31	-1
0	410575	75.41	-1
0	411121	75.51	-1
0	411667	75.61	-1
0	412213	75.71	-1
0	412759	75.81	-1
0	413305	75.91	-1
0	413859	76.01	-1
0	414405	76.11	-1
0	414951	76.21	-1
0	415497	76.31	-1
0	416043	76.41	-1
0	416589	76.51	-1
0	417135	76.61	-1
0	417681	76.71	-1
0	418227	76.81	-1
0	418773	76.91	-1
0	419327	77.01	-1
0	419873	77.11	-1
0	420419	77.21	-1
0	420965	77.31	-1
0	421511	77.41	-1
0	422057	77.51	-1
0	422603	77.61	-1
0	423149	77.71	-1
0	423695	77.81	-1
0	424241	77.91	-1
0	424795	78.01	-1
0	425341	78.11	-1
0	425887	78.21	-1
0	426433	78.31	-1
0	426979	78.41	-1
0	427525	78.51	-1
0	428071	78.61	22.0052
0	428617	78.71	22.2496
0	429163	78.81	22.4941
0	429709	78.91	22.7385
0	430263	79.01	22.983
0	430809	79.11	23.2274
0	431355	79.21	23.4718
0	431901	79.31	23.7163
0	432447	79.41	23.9607
0	432993	79.51	24.2052
0	433539	79.61	24.4496
0	434085	79.71	24.694
0	434631	79.81	24.9385
0	435177	79.91	25.1829
0	435731	80.01	25.4274
0	436277	80.11	25.6718
0	436823	80.21	25.9162
0	437369	80.31	26.1607
0	437915	80.41	26.4051
0	438461	80.51	26.6496
0	439007	80.61	26.894
0	439553	80.71	27.1384
0	440099	80.81	27.3829
0	440645	80.91	27.6273
0	441199	81.01	27.8718
0	441745	81.11	28.1162
0	442291	81.21	28.3606
0	442837	81.31	28.6051
0	443383	81.41	28.8495
0	443929	81.51	29.094
0	444475	81.61	29.3384
0	445021	81.71	29.5828
0	445567	81.81	29.8273
0	446113	81.91	30.0717
0	446667	82.01	30.3162
0	447213	82.11	30.5606
0	447759	82.21	30.805
0	448305	82.31	31.0495
0	448851	82.41	31.2939
0	449397	82.51	31.5384
0	449943	82.61	31.7828
0	450489	82.71	32.0272
0	451035	82.81	32.2717
0	451581	82.91	32.5161
0	452135	83.01	32.7606
0	452681	83.11	33.005
0	453227	83.21	33.2494
0	453773	83.31	33.4939
0	454319	83.41	33.7383
0	454865	83.51	33.9828
0	455411	83.61	34.2272
0	455957	83.71	34.4716
0	456503	83.81	34.7161
0	457049	83.91	34.9605
0	457603	84.01	35.205
0	458149	84.11	35.4494
0	458695	84.21	35.6938
0	459241	84.31	35.9383
0	459787	84.41	36.1827
0	460333	84.51	36.4272
0	460879	84.61	36.6716
0	461425	84.71	36.916
0	461971	84.81	37.1605
0	462517	84.91	37.4049
0	463071	85.01	37.6494
0	463617	85.11	37.8938
0	464163	85.21	38.1382
0	464709	85.31	38.3827
0	465255	85.41	38.6271
0	465801	85.51	38.8716
0	466347	85.61	39.116
0	466893	85.71	39.3604
0	467439	85.81	39.6049
0	467985	85.91	39.8493
0	468539	86.01	40.0938
0	469085	86.11	40.3382
0	469631	86.21	40.5826
0	470177	86.31	40.8271
0	470723	86.41	41.0715
0	471269	86.51	41.316
0	471815	86.61	41.5604
0	472361	86.71	41.8048
0	472907	86.81	42.0493
0	473453	86.91	42.2937
0	474007	87.01	42.5382
0	474553	87.11	42.7826
0	475099	87.21	43.027
0	475645	87.31	43.2715
0	476191	87.41	43.5159
0	476737	87.51	43.7604
0	477283	87.61	44.0048
0	477829	87.71	44.2492
0	478375	87.81	44.4937
0	478921	87.91	44.7381
0	479475	88.01	44.9826
0	480021	88.11	45.227
0	480567	88.21	45.4714
0	481113	88.31	45.7159
0	481659	88.41	45.9603
0	482205	88.51	46.2048
0	482751	88.61	46.4492
0	483297	88.71	46.6936
0	483843	88.81	46.9381
0	484389	88.91	47.1825
0	484943	89.01	47.427
0	485489	89.11	47.6714
0	486035	89.21	47.9158
0	486581	89.31	48.1603
0	487127	89.41	48.4047
0	487673	89.51	48.6492
0	488219	89.61	48.8936
0	488765	89.71	49.138
0	489311	89.81	49.3825
0	489857	89.91	49.6269
0	490411	90.01	49.8714
0	490957	90.11	50.1158
0	491503	90.21	50.3602
0	492049	90.31	50.6047
0	492595	90.41	50.8491
0	493141	90.51	51.0936
0	493687	90.61	51.338
0	494233	90.71	51.5824
0	494779	90.81	51.8269
0	495325	90.91	52.0713
0	495879	91.01	52.3158
0	496425	91.11	52.5602
0	496971	91.21	52.8046
0	497517	91.31	53.0491
0	498063	91.41	53.2935
0	498609	91.51	53.538
0	499155	91.61	53.7824
0	499701	91.71	54.0268
0	500247	91.81	54.2713
0	500793	91.91	54.5157
0	501347	92.01	54.7602
0	501893	92.11	55.0046
0	502439	92.21	55.249
0	502985	92.31	55.4935
0	503531	92.41	55.7379
0	504077	92.51	55.9824
0	504623	92.61	56.2268
0	505169	92.71	56.4712
0	505715	92.81	56.7157
0	506261	92.91	56.9601
0	506815	93.01	57.2046
0	507361	93.11	57.449
0	507907	93.21	57.6934
0	508453	93.31	57.9379
0	508999	93.41	58.1823
0	509545	93.51	58.4268
0	510091	93.61	58.6712
0	510637	93.71	58.9156
0	511183	93.81	59.1601
0	511729	93.91	59.4045
0	512283	94.01	59.649
0	512829	94.11	59.8934
0	513375	94.21	60.1378
0	513921	94.31	60.3823
0	514467	94.41	60.6267
0	515013	94.51	60.8712
0	515559	94.61	61.1156
0	516105	94.71	61.36
0	516651	94.81	61.6045
0	517197	94.91	61.8489
0	517751	95.01	62.0934
0	518297	95.11	62.3378
0	518843	95.21	62.5822
0	519389	95.31	62.8267
0	519935	95.41	63.0711
0	520481	95.51	63.3156
0	521027	95.61	63.56
0	521573	95.71	63.8044
0	522119	95.81	64.0489
0	522665	95.91	64.2933
0	523219	96.01	64.5378
0	523765	96.11	64.7822
0	524311	96.21	65.0266
0	524857	96.31	65.2711
0	525403	96.41	65.5155
0	525949	96.51	65.76
0	526495	96.61	66.0044
0	527041	96.71	66.2488
0	527587	96.81	66.4933
0	528133	96.91	66.7377
0	528687	97.01	66.9822
0	529233	97.11	67.2266
0	529779	97.21	67.471
0	530325	97.31	67.7155
0	530871	97.41	67.9599
0	531417	97.51	68.2044
0	531963	97.61	68.4488
0	532509	97.71	68.6932
0	533055	97.81	68.9377
0	533601	97.91	69.1821
0	534155	98.01	69.4266
0	534701	98.11	69.671
0	535247	98.21	69.9154
0	535793	98.31	70.1599
0	536339	98.41	70.4043
0	536885	98.51	70.6488
0	537431	98.61	70.8932
0	537977	98.71	71.1376
0	538523	98.81	71.3821
0	539069	98.91	71.6265
0	539623	99.01	71.871
0	540169	99.11	72.1154
0	540715	99.21	72.3598
0	541261	99.31	72.6043
0	541807	99.41	72.8487
0	542353	99.51	73.0932
0	542899	99.61	73.3376
0	543445	99.71	73.582
0	543991	99.81	73.8265
0	544537	99.91	74.0709
1	113	1.11	0
1	659	1.21	0
1	1205	1.31	0
1	1751	1.41	0
1	2297	1.51	0
1	2843	1.61	0
1	3389	1.71	0
1	3935	1.81	0
1	4481	1.91	0
1	5035	2.01	0
1	5581	2.11	0
1	6127	2.21	0
1	6673	2.31	0
1	7219	2.41	0
1	7765	2.51	0
1	8311	2.61	0
1	8857	2.71	0
1	9403	2.81	0
1	9949	2.91	0
1	10503	3.01	0
1	11049	3.11	0
1	11595	3.21	0
1	12141	3.31	0
1	12687	3.41	0
1	13233	3.51	0
1	13779	3.61	0
1	14325	3.71	0
1	14871	3.81	0
1	15417	3.91	0
1	15971	4.01	0
1	16517	4.11	0
1	17063	4.21	0
1	17609	4.31	0
1	18155	4.41	0
1	18701	4.51	0
1	19247	4.61	0
1	19793	4.71	0
1	20339	4.81	0
1	20885	4.91	0
1	21439	5.01	0
1	21985	5.11	0
1	22531	5.21	0
1	23077	5.31	0
1	23623	5.41	0
1	24169	5.51	0
1	24715	5.61	0
1	25261	5.71	0
1	25807	5.81	0
1	26353	5.91	0
1	26907	6.01	0
1	27453	6.11	0
1	27999	6.21	0
1	28545	6.31	0
1	29091	6.41	0
1	29637	6.51	0
1	30183	6.61	0
1	30729	6.71	0
1	31275	6.81	0
1	31821	6.91	0
1	32375	7.01	0
1	32921	7.11	0
1	33467	7.21	0
1	34013	7.31	0
1	34559	7.41	0
1	35105	7.51	0
1	35651	7.61	0
1	36197	7.71	0
1	36743	7.81	0
1	37289	7.91	0
1	37843	8.01	0
1	38389	8.11	0
1	38935	8.21	0
1	39481	8.31	0
1	40027	8.41	0
1	40573	8.51	0
1	41119	8.61	0
1	41665	8.71	0
1	42211	8.81	0
1	42757	8.91	0
1	43311	9.01	0
1	43857	9.11	0
1	44403	9.21	0
1	44949	9.31	0
1	45495	9.41	0
1	46041	9.51	0
1	46587	9.61	0
1	47133	9.71	0
1	47679	9.81	0
1	48225	9.91	0
1	48853	10.01	0
1	49406	10.11	0
1	49959	10.21	0
1	50512	10.31	0
1	51065	10.41	0
1	51618	10.51	0
1	52171	10.61	0
1	52724	10.71	0
1	53277	10.81	0
1	53830	10.91	0
1	54391	11.01	0
1	54944	11.11	0
1	55497	11.21	0
1	56050	11.31	0
1	56603	11.41	0
1	57156	11.51	0
1	57709	11.61	0
1	58262	11.71	0
1	58815	11.81	0
1	59368	11.91	0
1	59929	12.01	0
1	60482	12.11	0
1	61035	12.21	0
1	61588	12.31	0
1	62141	12.41	0
1	62694	12.51	0
1	63247	12.61	0
1	63800	12.71	0
1	64353	12.81	0
1	64906	12.91	0
1	65467	13.01	0
1	66020	13.11	0
1	66573	13.21	0
1	67126	13.31	0
1	67679	13.41	0
1	68232	13.51	0
1	68785	13.61	0
1	69338	13.71	0
1	69891	13.81	0
1	70444	13.91	0
1	71005	14.01	0
1	71558	14.11	0
1	72111	14.21	0
1	72664	14.31	0
1	73217	14.41	0
1	73770	14.51	0
1	74323	14.61	0
1	74876	14.71	0
1	75429	14.81	0
1	75982	14.91	0
1	76543	15.01	0
1	77096	15.11	0
1	77649	15.21	0
1	78202	15.31	0
1	78755	15.41	0
1	79308	15.51	0
1	79861	15.61	0
1	80414	15.71	0
1	80967	15.81	0
1	81520	15.91	0
1	82081	16.01	0
1	82634	16.11	0
1	83187	16.21	0
1	83740	16.31	0
1	84293	16.41	0
1	84846	16.51	0
1	85399	16.61	0
1	85952	16.71	0
1	86505	16.81	0
1	87058	16.91	0
1	87619	17.01	0
1	88172	17.11	0
1	88725	17.21	0
1	89278	17.31	0
1	89831	17.41	0
1	90384	17.51	0
1	90937	17.61	0
1	91490	17.71	0
1	92043	17.81	0
1	92596	17.91	0
1	93157	18.01	0
1	93710	18.11	0
1	94263	18.21	0
1	94816	18.31	0
1	95369	18.41	0
1	95922	18.51	0
1	96475	18.61	0
1	97028	18.71	0
1	97581	18.81	0
1	98134	18.91	0
1	98695	19.01	0
1	99248	19.11	0
1	99801	19.21	0
1	100354	19.31	0
1	100907	19.41	0
1	101460	19.51	0
1	102013	19.61	0
1	102566	19.71	0
1	103119	19.81	0
1	103672	19.91	0
1	104233	20.01	0
1	104786	20.11	0
1	105339	20.21	0
1	105892	20.31	0
1	106445	20.41	0
1	106998	20.51	0
1	107551	20.61	0
1	108104	20.71	0
1	108657	20.81	0
1	109210	20.91	0
1	109771	21.01	0
1	110324	21.11	0
1	110877	21.21	0
1	111430	21.31	0
1	111983	21.41	0
1	112536	21.51	0
1	113089	21.61	0
1	113642	21.71	0
1	114195	21.81	0
1	114748	21.91	0
1	115309	22.01	0
1	115862	22.11	0
1	116415	22.21	0
1	116968	22.31	0
1	117521	22.41	0
1	118074	22.51	0
1	118627	22.61	0
1	119180	22.71	0
1	119733	22.81	0
1	120286	22.91	0
1	120847	23.01	0
1	121400	23.11	0
1	121953	23.21	0
1	122506	23.31	0
1	123059	23.41	0
1	123612	23.51	0
1	124165	23.61	0
1	124718	23.71	0
1	125271	23.81	0
1	125824	23.91	0
1	126385	24.01	0
1	126938	24.11	0
1	127491	24.21	0
1	128044	24.31	0
1	128597	24.41	0
1	129150	24.51	0
1	129703	24.61	0
1	130256	24.71	0
1	130809	24.81	0
1	131362	24.91	0
1	131923	25.01	0
1	132476	25.11	0
1	133029	25.21	0
1	133582	25.31	0
1	134135	25.41	0
1	134688	25.51	0
1	135241	25.61	0
1	135794	25.71	0
1	136347	25.81	0
1	136900	25.91	0
1	137461	26.01	0
1	138014	26.11	0
1	138567	26.21	0
1	139120	26.31	0
1	139673	26.41	0
1	140226	26.51	0
1	140779	26.61	0
1	141332	26.71	0
1	141885	26.81	0
1	142438	26.91	0
1	142999	27.01	0
1	143552	27.11	0
1	144105	27.21	0
1	144658	27.31	0
1	145211	27.41	0
1	145764	27.51	0
1	146317	27.61	0
1	146870	27.71	0
1	147423	27.81	0
1	147976	27.91	0
1	148537	28.01	0
1	149090	28.11	0
1	149643	28.21	0
1	150196	28.31	0
1	150749	28.41	0
1	151302	28.51	0
1	151855	28.61	0
1	152408	28.71	0
1	152961	28.81	0
1	153514	28.91	0
1	154075	29.01	0
1	154628	29.11	0
1	155181	29.21	0
1	155734	29.31	0
1	156287	29.41	0
1	156840	29.51	0
1	157393	29.61	0
1	157946	29.71	0
1	158499	29.81	0
1	159052	29.91	0
1	159613	30.01	0
1	160166	30.11	0
1	160719	30.21	0
1	161272	30.31	0
1	161825	30.41	0
1	162378	30.51	0
1	162931	30.61	0
1	163484	30.71	0
1	164037	30.81	0
1	164590	30.91	0
1	165151	31.01	0
1	165704	31.11	0
1	166257	31.21	0
1	166810	31.31	0
1	167363	31.41	0
1	167916	31.51	0
1	168469	31.61	0
1	169022	31.71	0
1	169575	31.81	0
1	170128	31.91	0
1	170689	32.01	0
1	171242	32.11	0
1	171795	32.21	0
1	172348	32.31	0
1	172901	32.41	0
1	173454	32.51	0
1	174007	32.61	0
1	174560	32.71	0
1	175113	32.81	0
1	175666	32.91	0
1	176227	33.01	0
1	176780	33.11	0
1	177333	33.21	0
1	177886	33.31	0
1	178439	33.41	0
1	178992	33.51	0
1	179545	33.61	0
1	180098	33.71	0
1	180651	33.81	0
1	181204	33.91	0
1	181765	34.01	0
1	182318	34.11	0
1	182871	34.21	0
1	183424	34.31	0
1	183977	34.41	0
1	184530	34.51	0
1	185083	34.61	0
1	185636	34.71	0
1	186189	34.81	0
1	186742	34.91	0
1	187303	35.01	0
1	187856	35.11	0
1	188409	35.21	0
1	188962	35.31	0
1	189515	35.41	0
1	190068	35.51	0
1	190621	35.61	0
1	191174	35.71	0
1	191727	35.81	0
1	192280	35.91	0
1	192841	36.01	0
1	193394	36.11	0
1	193947	36.21	0
1	194500	36.31	0
1	195146	36.41	0
1	195698	36.51	0
1	196250	36.61	0
1	196802	36.71	0
1	197354	36.81	0
1	197906	36.91	0
1	198466	37.01	0
1	199018	37.11	0
1	199570	37.21	0
1	200122	37.31	0
1	200674	37.41	0
1	201226	37.51	0
1	201778	37.61	0
1	202330	37.71	0
1	202882	37.81	0
1	203434	37.91	0
1	203994	38.01	0
1	204546	38.11	0
1	205098	38.21	0
1	205650	38.31	0
1	206202	38.41	0
1	206754	38.51	0
1	207306	38.61	0
1	207858	38.71	0
1	208410	38.81	0
1	208962	38.91	0
1	209522	39.01	0
1	210074	39.11	0
1	210626	39.21	0
1	211178	39.31	0
1	211730	39.41	0
1	212282	39.51	0
1	212834	39.61	0
1	213386	39.71	0
1	213938	39.81	0
1	214490	39.91	0
1	215050	40.01	0
1	215602	40.11	0
1	216154	40.21	0
1	216706	40.31	0
1	217258	40.41	0
1	217810	40.51	0
1	218362	40.61	0
1	218914	40.71	0
1	219466	40.81	0
1	220018	40.91	0
1	220578	41.01	0
1	221130	41.11	0
1	221682	41.21	0
1	222234	41.31	0
1	222786	41.41	0
1	223431	41.51	0
1	223982	41.61	0
1	224533	41.71	0
1	225084	41.81	0
1	225635	41.91	0
1	226194	42.01	0
1	226745	42.11	0
1	227296	42.21	0
1	227847	42.31	0
1	228398	42.41	0
1	228949	42.51	0
1	229500	42.61	0
1	230051	42.71	0
1	230602	42.81	0
1	231153	42.91	0
1	231712	43.01	0
1	232263	43.11	0
1	232814	43.21	0
1	233365	43.31	0
1	233916	43.41	0
1	234467	43.51	0
1	235018	43.61	0
1	235569	43.71	0
1	236120	43.81	0
1	236671	43.91	0
1	237230	44.01	0
1	237781	44.11	0
1	238332	44.21	0
1	238883	44.31	0
1	239434	44.41	0
1	239985	44.51	0
1	240536	44.61	0
1	241087	44.71	0
1	241638	44.81	0
1	242189	44.91	0
1	242748	45.01	0
1	243299	45.11	0
1	243850	45.21	0
1	244401	45.31	0
1	244952	45.41	0
1	245503	45.51	0
1	246054	45.61	0
1	246605	45.71	0
1	247156	45.81	0
1	247707	45.91	0
1	248266	46.01	0
1	248817	46.11	0
1	249461	46.21	0
1	250011	46.31	0
1	250561	46.41	0
1	251111	46.51	0
1	251661	46.61	0
1	252211	46.71	0
1	252761	46.81	0
1	253311	46.91	0
1	253869	47.01	0
1	254419	47.11	0
1	254969	47.21	0
1	255519	47.31	0
1	256069	47.41	0
1	256619	47.51	0
1	257169	47.61	0
1	257719	47.71	0
1	258269	47.81	0
1	258819	47.91	0
1	259377	48.01	0
1	259927	48.11	0
1	260477	48.21	0
1	261027	48.31	0
1	261577	48.41	0
1	262127	48.51	0
1	262677	48.61	0
1	263227	48.71	0
1	263777	48.81	0
1	264327	48.91	0
1	264885	49.01	0
1	265435	49.11	0
1	265985	49.21	0
1	266535	49.31	0
1	267085	49.41	0
1	267635	49.51	0
1	268185	49.61	0
1	268735	49.71	0
1	269285	49.81	0
1	269835	49.91	0
1	270393	50.01	0
1	270943	50.11	0
1	271493	50.21	0
1	272043	50.31	0
1	272593	50.41	0
1	273143	50.51	0
1	273786	50.61	0
1	274335	50.71	0
1	274884	50.81	0
1	275433	50.91	0
1	275990	51.01	0
1	276539	51.11	0
1	277088	51.21	0
1	277637	51.31	0
1	278186	51.41	0
1	278735	51.51	0
1	279284	51.61	0
1	279833	51.71	0
1	280382	51.81	0
1	280931	51.91	0
1	281488	52.01	0
1	282037	52.11	0
1	282586	52.21	0
1	283135	52.31	0
1	283684	52.41	0
1	284233	52.51	0
1	284782	52.61	0
1	285331	52.71	0
1	285880	52.81	0
1	286429	52.91	0
1	286986	53.01	0
1	287535	53.11	0
1	288084	53.21	0
1	288633	53.31	0
1	289182	53.41	0
1	289731	53.51	0
1	290280	53.61	0
1	290829	53.71	0
1	291378	53.81	0
1	291927	53.91	0
1	292484	54.01	0
1	293033	54.11	0
1	293582	54.21	0
1	294131	54.31	0
1	294680	54.41	0
1	295229	54.51	0
1	295778	54.61	0
1	296327	54.71	0
1	296876	54.81	0
1	297518	54.91	0
1	298074	55.01	0
1	298622	55.11	0
1	299170	55.21	0
1	299718	55.31	0
1	300266	55.41	0
1	300814	55.51	0
1	301362	55.61	0
1	301910	55.71	0
1	302458	55.81	0
1	303006	55.91	0
1	303562	56.01	0
1	304110	56.11	0
1	304658	56.21	0
1	305206	56.31	0
1	305754	56.41	0
1	306302	56.51	0
1	306850	56.61	0
1	307398	56.71	0
1	307946	56.81	0
1	308494	56.91	0
1	309050	57.01	0
1	309598	57.11	0
1	310146	57.21	0
1	310694	57.31	0
1	311242	57.41	0
1	311790	57.51	0
1	312338	57.61	0
1	312886	57.71	0
1	313434	57.81	0
1	313982	57.91	0
1	314538	58.01	0
1	315086	58.11	0
1	315634	58.21	0
1	316182	58.31	0
1	316730	58.41	0
1	317278	58.51	0
1	317826	58.61	0
1	318374	58.71	0
1	318922	58.81	0
1	319470	58.91	0
1	320119	59.01	0
1	320666	59.11	0
1	321213	59.21	0
1	321760	59.31	0
1	322307	59.41	0
1	322854	59.51	0
1	323401	59.61	0
1	323948	59.71	0
1	324495	59.81	0
1	325042	59.91	0
1	325597	60.01	0
1	326144	60.11	0
1	326691	60.21	0
1	327238	60.31	0
1	327785	60.41	0
1	328332	60.51	0
1	328879	60.61	0
1	329426	60.71	0
1	329973	60.81	0
1	330520	60.91	0
1	331075	61.01	0
1	331622	61.11	0
1	332169	61.21	0
1	332716	61.31	0
1	333263	61.41	0
1	333810	61.51	0
1	334357	61.61	0
1	334904	61.71	0
1	335451	61.81	0
1	335998	61.91	0
1	336553	62.01	0
1	337100	62.11	0
1	337647	62.21	0
1	338194	62.31	0
1	338741	62.41	0
1	339288	62.51	0
1	339835	62.61	0
1	340382	62.71	0
1	340929	62.81	0
1	341476	62.91	0
1	342775	63.01	0
1	343321	63.11	0
1	343867	63.21	0
1	344413	63.31	0
1	344959	63.41	0
1	345505	63.51	0
1	346051	63.61	0
1	346597	63.71	0
1	347143	63.81	0
1	347689	63.91	0
1	348243	64.01	0
1	348789	64.11	0
1	349335	64.21	0
1	349881	64.31	0
1	350427	64.41	0
1	350973	64.51	0
1	351519	64.61	0
1	352065	64.71	0
1	352611	64.81	0
1	353157	64.91	0
1	353711	65.01	0
1	354257	65.11	0
1	354803	65.21	0
1	355349	65.31	0
1	355895	65.41	0
1	356441	65.51	0
1	356987	65.61	0
1	357533	65.71	0
1	358079	65.81	0
1	358625	65.91	0
1	359179	66.01	0
1	359725	66.11	0
1	360271	66.21	0
1	360817	66.31	0
1	361363	66.41	0
1	361909	66.51	0
1	362455	66.61	0
1	363001	66.71	0
1	363547	66.81	0
1	364093	66.91	0
1	364647	67.01	0
1	365193	67.11	0
1	365739	67.21	0
1	366285	67.31	0
1	366831	67.41	0
1	367377	67.51	0
1	367923	67.61	0
1	368469	67.71	0
1	369015	67.81	0
1	369561	67.91	0
1	370115	68.01	0
1	370661	68.11	0
1	371207	68.21	0
1	371753	68.31	0
1	372299	68.41	0
1	372845	68.51	0
1	373391	68.61	0
1	373937	68.71	0
1	374483	68.81	0
1	375029	68.91	0
1	375583	69.01	0
1	376129	69.11	0
1	376675	69.21	0
1	377221	69.31	0
1	377767	69.41	0
1	378313	69.51	0
1	378859	69.61	0
1	379405	69.71	0
1	379951	69.81	0
1	380497	69.91	0
1	381051	70.01	0
1	381597	70.11	0
1	382143	70.21	0
1	382689	70.31	0
1	383235	70.41	0
1	383781	70.51	0
1	384327	70.61	0
1	384873	70.71	0
1	385419	70.81	0
1	385965	70.91	0
1	386519	71.01	0
1	387065	71.11	0
1	387611	71.21	0
1	388157	71.31	0
1	388703	71.41	0
1	389249	71.51	0
1	389795	71.61	0
1	390341	71.71	0
1	390887	71.81	0
1	391433	71.91	0
1	391987	72.01	0
1	392533	72.11	0
1	393079	72.21	0
1	393625	72.31	0
1	394171	72.41	0
1	394717	72.51	0
1	395263	72.61	0
1	395809	72.71	0
1	396355	72.81	0
1	396901	72.91	0
1	397455	73.01	0
1	398001	73.11	0
1	398547	73.21	0
1	399093	73.31	0
1	399639	73.41	0
1	400185	73.51	0
1	400731	73.61	0
1	401277	73.71	0
1	401823	73.81	0
1	402369	73.91	0
1	402923	74.01	0
1	403469	74.11	0
1	404015	74.21	0
1	404561	74.31	0
1	405107	74.41	0
1	405653	74.51	0
1	406199	74.61	0
1	406745	74.71	0
1	407291	74.81	0
1	407837	74.91	0
1	408391	75.01	0
1	408937	75.11	0
1	409483	75.21	0
1	410029	75.31	0
1	410575	75.41	0
1	411121	75.51	0
1	411667	75.61	0
1	412213	75.71	0
1	412759	75.81	0
1	413305	75.91	0
1	413859	76.01	0
1	414405	76.11	0
1	414951	76.21	0
1	415497	76.31	0
1	416043	76.41	0
1	416589	76.51	0
1	417135	76.61	0
1	417681	76.71	0
1	418227	76.81	0
1	418773	76.91	0
1	419327	77.01	0
1	419873	77.11	0
1	420419	77.21	0
1	420965	77.31	0
1	421511	77.41	0
1	422057	77.51	0
1	422603	77.61	0
1	423149	77.71	0
1	423695	77.81	0
1	424241	77.91	0
1	424795	78.01	0
1	425341	78.11	0
1	425887	78.21	0
1	426433	78.31	0
1	426979	78.41	0
1	427525	78.51	0
1	428071	78.61	2.4444
1	428617	78.71	2.4444
1	429163	78.81	2.4444
1	429709	78.91	2.4444
1	430263	79.01	2.4444
1	430809	79.11	2.4444
1	431355	79.21	2.4444
1	431901	79.31	2.4444
1	432447	79.41	2.4444
1	432993	79.51	2.4444
1	433539	79.61	2.4444
1	434085	79.71	2.4444
1	434631	79.81	2.4444
1	435177	79.91	2.4444
1	435731	80.01	2.4444
1	436277	80.11	2.4444
1	436823	80.21	2.4444
1	437369	80.31	2.4444
1	437915	80.41	2.4444
1	438461	80.51	2.4444
1	439007	80.61	2.4444
1	439553	80.71	2.4444
1	440099	80.81	2.4444
1	440645	80.91	2.4444
1	441199	81.01	2.4444
1	441745	81.11	2.4444
1	442291	81.21	2.4444
1	442837	81.31	2.4444
1	443383	81.41	2.4444
1	443929	81.51	2.4444
1	444475	81.61	2.4444
1	445021	81.71	2.4444
1	445567	81.81	2.4444
1	446113	81.91	2.4444
1	446667	82.01	2.4444
1	447213	82.11	2.4444
1	447759	82.21	2.4444
1	448305	82.31	2.4444
1	448851	82.41	2.4444
1	449397	82.51	2.4444
1	449943	82.61	2.4444
1	450489	82.71	2.4444
1	451035	82.81	2.4444
1	451581	82.91	2.4444
1	452135	83.01	2.4444
1	452681	83.11	2.4444
1	453227	83.21	2.4444
1	453773	83.31	2.4444
1	454319	83.41	2.4444
1	454865	83.51	2.4444
1	455411	83.61	2.4444
1	455957	83.71	2.4444
1	456503	83.81	2.4444
1	457049	83.91	2.4444
1	457603	84.01	2.4444
1	458149	84.11	2.4444
1	458695	84.21	2.4444
1	459241	84.31	2.4444
1	459787	84.41	2.4444
1	460333	84.51	2.4444
1	460879	84.61	2.4444
1	461425	84.71	2.4444
1	461971	84.81	2.4444
1	462517	84.91	2.4444
1	463071	85.01	2.4444
1	463617	85.11	2.4444
1	464163	85.21	2.4444
1	464709	85.31	2.4444
1	465255	85.41	2.4444
1	465801	85.51	2.4444
1	466347	85.61	2.4444
1	466893	85.71	2.4444
1	467439	85.81	2.4444
1	467985	85.91	2.4444
1	468539	86.01	2.4444
1	469085	86.11	2.4444
1	469631	86.21	2.4444
1	470177	86.31	2.4444
1	470723	86.41	2.4444
1	471269	86.51	2.4444
1	471815	86.61	2.4444
1	472361	86.71	2.4444
1	472907	86.81	2.4444
1	473453	86.91	2.4444
1	474007	87.01	2.4444
1	474553	87.11	2.4444
1	475099	87.21	2.4444
1	475645	87.31	2.4444
1	476191	87.41	2.4444
1	476737	87.51	2.4444
1	477283	87.61	2.4444
1	477829	87.71	2.4444
1	478375	87.81	2.4444
1	478921	87.91	2.4444
1	479475	88.01	2.4444
1	480021	88.11	2.4444
1	480567	88.21	2.4444
1	481113	88.31	2.4444
1	481659	88.41	2.4444
1	482205	88.51	2.4444
1	482751	88.61	2.4444
1	483297	88.71	2.4444
1	483843	88.81	2.4444
1	484389	88.91	2.4444
1	484943	89.01	2.4444
1	485489	89.11	2.4444
1	486035	89.21	2.4444
1	486581	89.31	2.4444
1	487127	89.41	2.4444
1	487673	89.51	2.4444
1	488219	89.61	2.4444
1	488765	89.71	2.4444
1	489311	89.81	2.4444
1	489857	89.91	2.4444
1	490411	90.01	2.4444
1	490957	90.11	2.4444
1	491503	90.21	2.4444
1	492049	90.31	2.4444
1	492595	90.41	2.4444
1	493141	90.51	2.4444
1	493687	90.61	2.4444
1	494233	90.71	2.4444
1	494779	90.81	2.4444
1	495325	90.91	2.4444
1	495879	91.01	2.4444
1	496425	91.11	2.4444
1	496971	91.21	2.4444
1	497517	91.31	2.4444
1	498063	91.41	2.4444
1	498609	91.51	2.4444
1	499155	91.61	2.4444
1	499701	91.71	2.4444
1	500247	91.81	2.4444
1	500793	91.91	2.4444
1	501347	92.01	2.4444
1	501893	92.11	2.4444
1	502439	92.21	2.4444
1	502985	92.31	2.4444
1	503531	92.41	2.4444
1	504077	92.51	2.4444
1	504623	92.61	2.4444
1	505169	92.71	2.4444
1	505715	92.81	2.4444
1	506261	92.91	2.4444
1	506815	93.01	2.4444
1	507361	93.11	2.4444
1	507907	93.21	2.4444
1	508453	93.31	2.4444
1	508999	93.41	2.4444
1	509545	93.51	2.4444
1	510091	93.61	2.4444
1	510637	93.71	2.4444
1	511183	93.81	2.4444
1	511729	93.91	2.4444
1	512283	94.01	2.4444
1	512829	94.11	2.4444
1	513375	94.21	2.4444
1	513921	94.31	2.4444
1	514467	94.41	2.4444
1	515013	94.51	2.4444
1	515559	94.61	2.4444
1	516105	94.71	2.4444
1	516651	94.81	2.4444
1	517197	94.91	2.4444
1	517751	95.01	2.4444
1	518297	95.11	2.4444
1	518843	95.21	2.4444
1	519389	95.31	2.4444
1	519935	95.41	2.4444
1	520481	95.51	2.4444
1	521027	95.61	2.4444
1	521573	95.71	2.4444
1	522119	95.81	2.4444
1	522665	95.91	2.4444
1	523219	96.01	2.4444
1	523765	96.11	2.4444
1	524311	96.21	2.4444
1	524857	96.31	2.4444
1	525403	96.41	2.4444
1	525949	96.51	2.4444
1	526495	96.61	2.4444
1	527041	96.71	2.4444
1	527587	96.81	2.4444
1	528133	96.91	2.4444
1	528687	97.01	2.4444
1	529233	97.11	2.4444
1	529779	97.21	2.4444
1	530325	97.31	2.4444
1	530871	97.41	2.4444
1	531417	97.51	2.4444
1	531963	97.61	2.4444
1	532509	97.71	2.4444
1	533055	97.81	2.4444
1	533601	97.91	2.4444
1	534155	98.01	2.4444
1	534701	98.11	2.4444
1	535247	98.21	2.4444
1	535793	98.31	2.4444
1	536339	98.41	2.4444
1	536885	98.51	2.4444
1	537431	98.61	2.4444
1	537977	98.71	2.4444
1	538523	98.81	2.4444
1	539069	98.91	2.4444
1	539623	99.01	2.4444
1	540169	99.11	2.4444
1	540715	99.21	2.4444
1	541261	99.31	2.4444
1	541807	99.41	2.4444
1	542353	99.51	2.4444
1	542899	99.61	2.4444
1	543445	99.71	2.4444
1	543991	99.81	2.4444
1	544537	99.91	2.4444
2	113	1.11	0
2	659	1.21	0
2	1205	1.31	0
2	1751	1.41	0
2	2297	1.51	0
2	2843	1.61	0
2	3389	1.71	0
2	3935	1.81	0
2	4481	1.91	0
2	5035	2.01	0
2	5581	2.11	0
2	6127	2.21	0
2	6673	2.31	0
2	7219	2.41	0
2	7765	2.51	0
2	8311	2.61	0
2	8857	2.71	0
2	9403	2.81	0
2	9949	2.91	0
2	10503	3.01	0
2	11049	3.11	0
2	11595	3.21	0
2	12141	3.31	0
2	12687	3.41	0
2	13233	3.51	0
2	13779	3.61	0
2	14325	3.71	0
2	14871	3.81	0
2	15417	3.91	0
2	15971	4.01	0
2	16517	4.11	0
2	17063	4.21	0
2	17609	4.31	0
2	18155	4.41	0
2	18701	4.51	0
2	19247	4.61	0
2	19793	4.71	0
2	20339	4.81	0
2	20885	4.91	0
2	21439	5.01	0
2	21985	5.11	0
2	22531	5.21	0
2	23077	5.31	0
2	23623	5.41	0
2	24169	5.51	0
2	24715	5.61	0
2	25261	5.71	0
2	25807	5.81	0
2	26353	5.91	0
2	26907	6.01	0
2	27453	6.11	0
2	27999	6.21	0
2	28545	6.31	0
2	29091	6.41	0
2	29637	6.51	0
2	30183	6.61	0
2	30729	6.71	0
2	31275	6.81	0
2	31821	6.91	0
2	32375	7.01	0
2	32921	7.11	0
2	33467	7.21	0
2	34013	7.31	0
2	34559	7.41	0
2	35105	7.51	0
2	35651	7.61	0
2	36197	7.71	0
2	36743	7.81	0
2	37289	7.91	0
2	37843	8.01	0
2	38389	8.11	0
2	38935	8.21	0
2	39481	8.31	0
2	40027	8.41	0
2	40573	8.51	0
2	41119	8.61	0
2	41665	8.71	0
2	42211	8.81	0
2	42757	8.91	0
2	43311	9.01	0
2	43857	9.11	0
2	44403	9.21	0
2	44949	9.31	0
2	45495	9.41	0
2	46041	9.51	0
2	46587	9.61	0
2	47133	9.71	0
2	47679	9.81	0
2	48225	9.91	0
2	48853	10.01	0
2	49406	10.11	0
2	49959	10.21	0
2	50512	10.31	0
2	51065	10.41	0
2	51618	10.51	0
2	52171	10.61	0
2	52724	10.71	0
2	53277	10.81	0
2	53830	10.91	0
2	54391	11.01	0
2	54944	11.11	0
2	55497	11.21	0
2	56050	11.31	0
2	56603	11.41	0
2	57156	11.51	0
2	57709	11.61	0
2	58262	11.71	0
2	58815	11.81	0
2	59368	11.91	0
2	59929	12.01	0
2	60482	12.11	0
2	61035	12.21	0
2	61588	12.31	0
2	62141	12.41	0
2	62694	12.51	0
2	63247	12.61	0
2	63800	12.71	0
2	64353	12.81	0
2	64906	12.91	0
2	65467	13.01	0
2	66020	13.11	0
2	66573	13.21	0
2	67126	13.31	0
2	67679	13.41	0
2	68232	13.51	0
2	68785	13.61	0
2	69338	13.71	0
2	69891	13.81	0
2	70444	13.91	0
2	71005	14.01	0
2	71558	14.11	0
2	72111	14.21	0
2	72664	14.31	0
2	73217	14.41	0
2	73770	14.51	0
2	74323	14.61	0
2	74876	14.71	0
2	75429	14.81	0
2	75982	14.91	0
2	76543	15.01	0
2	77096	15.11	0
2	77649	15.21	0
2	78202	15.31	0
2	78755	15.41	0
2	79308	15.51	0
2	79861	15.61	0
2	80414	15.71	0
2	80967	15.81	0
2	81520	15.91	0
2	82081	16.01	0
2	82634	16.11	0
2	83187	16.21	0
2	83740	16.31	0
2	84293	16.41	0
2	84846	16.51	0
2	85399	16.61	0
2	85952	16.71	0
2	86505	16.81	0
2	87058	16.91	0
2	87619	17.01	0
2	88172	17.11	0
2	88725	17.21	0
2	89278	17.31	0
2	89831	17.41	0
2	90384	17.51	0
2	90937	17.61	0
2	91490	17.71	0
2	92043	17.81	0
2	92596	17.91	0
2	93157	18.01	0
2	93710	18.11	0
2	94263	18.21	0
2	94816	18.31	0
2	95369	18.41	0
2	95922	18.51	0
2	96475	18.61	0
2	97028	18.71	0
2	97581	18.81	0
2	98134	18.91	0
2	98695	19.01	0
2	99248	19.11	0
2	99801	19.21	0
2	100354	19.31	0
2	100907	19.41	0
2	101460	19.51	0
2	102013	19.61	0
2	102566	19.71	0
2	103119	19.81	0
2	103672	19.91	0
2	104233	20.01	0
2	104786	20.11	0
2	105339	20.21	0
2	105892	20.31	0
2	106445	20.41	0
2	106998	20.51	0
2	107551	20.61	0
2	108104	20.71	0
2	108657	20.81	0
2	109210	20.91	0
2	109771	21.01	0
2	110324	21.11	0
2	110877	21.21	0
2	111430	21.31	0
2	111983	21.41	0
2	112536	21.51	0
2	113089	21.61	0
2	113642	21.71	0
2	114195	21.81	0
2	114748	21.91	0
2	115309	22.01	0
2	115862	22.11	0
2	116415	22.21	0
2	116968	22.31	0
2	117521	22.41	0
2	118074	22.51	0
2	118627	22.61	0
2	119180	22.71	0
2	119733	22.81	0
2	120286	22.91	0
2	120847	23.01	0
2	121400	23.11	0
2	121953	23.21	0
2	122506	23.31	0
2	123059	23.41	0
2	123612	23.51	0
2	124165	23.61	0
2	124718	23.71	0
2	125271	23.81	0
2	125824	23.91	0
2	126385	24.01	0
2	126938	24.11	0
2	127491	24.21	0
2	128044	24.31	0
2	128597	24.41	0
2	129150	24.51	0
2	129703	24.61	0
2	130256	24.71	0
2	130809	24.81	0
2	131362	24.91	0
2	131923	25.01	0
2	132476	25.11	0
2	133029	25.21	0
2	133582	25.31	0
2	134135	25.41	0
2	134688	25.51	0
2	135241	25.61	0
2	135794	25.71	0
2	136347	25.81	0
2	136900	25.91	0
2	137461	26.01	0
2	138014	26.11	0
2	138567	26.21	0
2	139120	26.31	0
2	139673	26.41	0
2	140226	26.51	0
2	140779	26.61	0
2	141332	26.71	0
2	141885	26.81	0
2	142438	26.91	0
2	142999	27.01	0
2	143552	27.11	0
2	144105	27.21	0
2	144658	27.31	0
2	145211	27.41	0
2	145764	27.51	0
2	146317	27.61	0
2	146870	27.71	0
2	147423	27.81	0
2	147976	27.91	0
2	148537	28.01	0
2	149090	28.11	0
2	149643	28.21	0
2	150196	28.31	0
2	150749	28.41	0
2	151302	28.51	0
2	151855	28.61	0
2	152408	28.71	0
2	152961	28.81	0
2	153514	28.91	0
2	154075	29.01	0
2	154628	29.11	0
2	155181	29.21	0
2	155734	29.31	0
2	156287	29.41	0
2	156840	29.51	0
2	157393	29.61	0
2	157946	29.71	0
2	158499	29.81	0
2	159052	29.91	0
2	159613	30.01	0
2	160166	30.11	0
2	160719	30.21	0
2	161272	30.31	0
2	161825	30.41	0
2	162378	30.51	0
2	162931	30.61	0
2	163484	30.71	0
2	164037	30.81	0
2	164590	30.91	0
2	165151	31.01	0
2	165704	31.11	0
2	166257	31.21	0
2	166810	31.31	0
2	167363	31.41	0
2	167916	31.51	0
2	168469	31.61	0
2	169022	31.71	0
2	169575	31.81	0
2	170128	31.91	0
2	170689	32.01	0
2	171242	32.11	0
2	171795	32.21	0
2	172348	32.31	0
2	172901	32.41	0
2	173454	32.51	0
2	174007	32.61	0
2	174560	32.71	0
2	175113	32.81	0
2	175666	32.91	0
2	176227	33.01	0
2	176780	33.11	0
2	177333	33.21	0
2	177886	33.31	0
2	178439	33.41	0
2	178992	33.51	0
2	179545	33.61	0
2	180098	33.71	0
2	180651	33.81	0
2	181204	33.91	0
2	181765	34.01	0
2	182318	34.11	0
2	182871	34.21	0
2	183424	34.31	0
2	183977	34.41	0
2	184530	34.51	0
2	185083	34.61	0
2	185636	34.71	0
2	186189	34.81	0
2	186742	34.91	0
2	187303	35.01	0
2	187856	35.11	0
2	188409	35.21	0
2	188962	35.31	0
2	189515	35.41	0
2	190068	35.51	0
2	190621	35.61	0
2	191174	35.71	0
2	191727	35.81	0
2	192280	35.91	0
2	192841	36.01	0
2	193394	36.11	0
2	193947	36.21	0
2	194500	36.31	0
2	195146	36.41	0
2	195698	36.51	0
2	196250	36.61	0
2	196802	36.71	0
2	197354	36.81	0
2	197906	36.91	0
2	198466	37.01	0
2	199018	37.11	0
2	199570	37.21	0
2	200122	37.31	0
2	200674	37.41	0
2	201226	37.51	0
2	201778	37.61	0
2	202330	37.71	0
2	202882	37.81	0
2	203434	37.91	0
2	203994	38.01	0
2	204546	38.11	0
2	205098	38.21	0
2	205650	38.31	0
2	206202	38.41	0
2	206754	38.51	0
2	207306	38.61	0
2	207858	38.71	0
2	208410	38.81	0
2	208962	38.91	0
2	209522	39.01	0
2	210074	39.11	0
2	210626	39.21	0
2	211178	39.31	0
2	211730	39.41	0
2	212282	39.51	0
2	212834	39.61	0
2	213386	39.71	0
2	213938	39.81	0
2	214490	39.91	0
2	215050	40.01	0
2	215602	40.11	0
2	216154	40.21	0
2	216706	40.31	0
2	217258	40.41	0
2	217810	40.51	0
2	218362	40.61	0
2	218914	40.71	0
2	219466	40.81	0
2	220018	40.91	0
2	220578	41.01	0
2	221130	41.11	0
2	221682	41.21	0
2	222234	41.31	0
2	222786	41.41	0
2	223431	41.51	0
2	223982	41.61	0
2	224533	41.71	0
2	225084	41.81	0
2	225635	41.91	0
2	226194	42.01	0
2	226745	42.11	0
2	227296	42.21	0
2	227847	42.31	0
2	228398	42.41	0
2	228949	42.51	0
2	229500	42.61	0
2	230051	42.71	0
2	230602	42.81	0
2	231153	42.91	0
2	231712	43.01	0
2	232263	43.11	0
2	232814	43.21	0
2	233365	43.31	0
2	233916	43.41	0
2	234467	43.51	0
2	235018	43.61	0
2	235569	43.71	0
2	236120	43.81	0
2	236671	43.91	0
2	237230	44.01	0
2	237781	44.11	0
2	238332	44.21	0
2	238883	44.31	0
2	239434	44.41	0
2	239985	44.51	0
2	240536	44.61	0
2	241087	44.71	0
2	241638	44.81	0
2	242189	44.91	0
2	242748	45.01	0
2	243299	45.11	0
2	243850	45.21	0
2	244401	45.31	0
2	244952	45.41	0
2	245503	45.51	0
2	246054	45.61	0
2	246605	45.71	0
2	247156	45.81	0
2	247707	45.91	0
2	248266	46.01	0
2	248817	46.11	0
2	249461	46.21	0
2	250011	46.31	0
2	250561	46.41	0
2	251111	46.51	0
2	251661	46.61	0
2	252211	46.71	0
2	252761	46.81	0
2	253311	46.91	0
2	253869	47.01	0
2	254419	47.11	0
2	254969	47.21	0
2	255519	47.31	0
2	256069	47.41	0
2	256619	47.51	0
2	257169	47.61	0
2	257719	47.71	0
2	258269	47.81	0
2	258819	47.91	0
2	259377	48.01	0
2	259927	48.11	0
2	260477	48.21	0
2	261027	48.31	0
2	261577	48.41	0
2	262127	48.51	0
2	262677	48.61	0
2	263227	48.71	0
2	263777	48.81	0
2	264327	48.91	0
2	264885	49.01	0
2	265435	49.11	0
2	265985	49.21	0
2	266535	49.31	0
2	267085	49.41	0
2	267635	49.51	0
2	268185	49.61	0
2	268735	49.71	0
2	269285	49.81	0
2	269835	49.91	0
2	270393	50.01	0
2	270943	50.11	0
2	271493	50.21	0
2	272043	50.31	0
2	272593	50.41	0
2	273143	50.51	0
2	273786	50.61	0
2	274335	50.71	0
2	274884	50.81	0
2	275433	50.91	0
2	275990	51.01	0
2	276539	51.11	0
2	277088	51.21	0
2	277637	51.31	0
2	278186	51.41	0
2	278735	51.51	0
2	279284	51.61	0
2	279833	51.71	0
2	280382	51.81	0
2	280931	51.91	0
2	281488	52.01	0
2	282037	52.11	0
2	282586	52.21	0
2	283135	52.31	0
2	283684	52.41	0
2	284233	52.51	0
2	284782	52.61	0
2	285331	52.71	0
2	285880	52.81	0
2	286429	52.91	0
2	286986	53.01	0
2	287535	53.11	0
2	288084	53.21	0
2	288633	53.31	0
2	289182	53.41	0
2	289731	53.51	0
2	290280	53.61	0
2	290829	53.71	0
2	291378	53.81	0
2	291927	53.91	0
2	292484	54.01	0
2	293033	54.11	0
2	293582	54.21	0
2	294131	54.31	0
2	294680	54.41	0
2	295229	54.51	0
2	295778	54.61	0
2	296327	54.71	0
2	296876	54.81	0
2	297518	54.91	0
2	298074	55.01	0
2	298622	55.11	0
2	299170	55.21	0
2	299718	55.31	0
2	300266	55.41	0
2	300814	55.51	0
2	301362	55.61	0
2	301910	55.71	0
2	302458	55.81	0
2	303006	55.91	0
2	303562	56.01	0
2	304110	56.11	0
2	304658	56.21	0
2	305206	56.31	0
2	305754	56.41	0
2	306302	56.51	0
2	306850	56.61	0
2	307398	56.71	0
2	307946	56.81	0
2	308494	56.91	0
2	309050	57.01	0
2	309598	57.11	0
2	310146	57.21	0
2	310694	57.31	0
2	311242	57.41	0
2	311790	57.51	0
2	312338	57.61	0
2	312886	57.71	0
2	313434	57.81	0
2	313982	57.91	0
2	314538	58.01	0
2	315086	58.11	0
2	315634	58.21	0
2	316182	58.31	0
2	316730	58.41	0
2	317278	58.51	0
2	317826	58.61	0
2	318374	58.71	0
2	318922	58.81	0
2	319470	58.91	0
2	320119	59.01	0
2	320666	59.11	0
2	321213	59.21	0
2	321760	59.31	0
2	322307	59.41	0
2	322854	59.51	0
2	323401	59.61	0
2	323948	59.71	0
2	324495	59.81	0
2	325042	59.91	0
2	325597	60.01	0
2	326144	60.11	0
2	326691	60.21	0
2	327238	60.31	0
2	327785	60.41	0
2	328332	60.51	0
2	328879	60.61	0
2	329426	60.71	0
2	329973	60.81	0
2	330520	60.91	0
2	331075	61.01	0
2	331622	61.11	0
2	332169	61.21	0
2	332716	61.31	0
2	333263	61.41	0
2	333810	61.51	0
2	334357	61.61	0
2	334904	61.71	0
2	335451	61.81	0
2	335998	61.91	0
2	336553	62.01	0
2	337100	62.11	0
2	337647	62.21	0
2	338194	62.31	0
2	338741	62.41	0
2	339288	62.51	0
2	339835	62.61	0
2	340382	62.71	0
2	340929	62.81	0
2	341476	62.91	0
2	342775	63.01	0
2	343321	63.11	0
2	343867	63.21	0
2	344413	63.31	0
2	344959	63.41	0
2	345505	63.51	0
2	346051	63.61	0
2	346597	63.71	0
2	347143	63.81	0
2	347689	63.91	0
2	348243	64.01	0
2	348789	64.11	0
2	349335	64.21	0
2	349881	64.31	0
2	350427	64.41	0
2	350973	64.51	0
2	351519	64.61	0
2	352065	64.71	0
2	352611	64.81	0
2	353157	64.91	0
2	353711	65.01	0
2	354257	65.11	0
2	354803	65.21	0
2	355349	65.31	0
2	355895	65.41	0
2	356441	65.51	0
2	356987	65.61	0
2	357533	65.71	0
2	358079	65.81	0
2	358625	65.91	0
2	359179	66.01	0
2	359725	66.11	0
2	360271	66.21	0
2	360817	66.31	0
2	361363	66.41	0
2	361909	66.51	0
2	362455	66.61	0
2	363001	66.71	0
2	363547	66.81	0
2	364093	66.91	0
2	364647	67.01	0
2	365193	67.11	0
2	365739	67.21	0
2	366285	67.31	0
2	366831	67.41	0
2	367377	67.51	0
2	367923	67.61	0
2	368469	67.71	0
2	369015	67.81	0
2	369561	67.91	0
2	370115	68.01	0
2	370661	68.11	0
2	371207	68.21	0
2	371753	68.31	0
2	372299	68.41	0
2	372845	68.51	0
2	373391	68.61	0
2	373937	68.71	0
2	374483	68.81	0
2	375029	68.91	0
2	375583	69.01	0
2	376129	69.11	0
2	376675	69.21	0
2	377221	69.31	0
2	377767	69.41	0
2	378313	69.51	0
2	378859	69.61	0
2	379405	69.71	0
2	379951	69.81	0
2	380497	69.91	0
2	381051	70.01	0
2	381597	70.11	0
2	382143	70.21	0
2	382689	70.31	0
2	383235	70.41	0
2	383781	70.51	0
2	384327	70.61	0
2	384873	70.71	0
2	385419	70.81	0
2	385965	70.91	0
2	386519	71.01	0
2	387065	71.11	0
2	387611	71.21	0
2	388157	71.31	0
2	388703	71.41	0
2	389249	71.51	0
2	389795	71.61	0
2	390341	71.71	0
2	390887	71.81	0
2	391433	71.91	0
2	391987	72.01	0
2	392533	72.11	0
2	393079	72.21	0
2	393625	72.31	0
2	394171	72.41	0
2	394717	72.51	0
2	395263	72.61	0
2	395809	72.71	0
2	396355	72.81	0
2	396901	72.91	0
2	397455	73.01	0
2	398001	73.11	0
2	398547	73.21	0
2	399093	73.31	0
2	399639	73.41	0
2	400185	73.51	0
2	400731	73.61	0
2	401277	73.71	0
2	401823	73.81	0
2	402369	73.91	0
2	402923	74.01	0
2	403469	74.11	0
2	404015	74.21	0
2	404561	74.31	0
2	405107	74.41	0
2	405653	74.51	0
2	406199	74.61	0
2	406745	74.71	0
2	407291	74.81	0
2	407837	74.91	0
2	408391	75.01	0
2	408937	75.11	0
2	409483	75.21	0
2	410029	75.31	0
2	410575	75.41	0
2	411121	75.51	0
2	411667	75.61	0
2	412213	75.71	0
2	412759	75.81	0
2	413305	75.91	0
2	413859	76.01	0
2	414405	76.11	0
2	414951	76.21	0
2	415497	76.31	0
2	416043	76.41	0
2	416589	76.51	0
2	417135	76.61	0
2	417681	76.71	0
2	418227	76.81	0
2	418773	76.91	0
2	419327	77.01	0
2	419873	77.11	0
2	420419	77.21	0
2	420965	77.31	0
2	421511	77.41	0
2	422057	77.51	0
2	422603	77.61	0
2	423149	77.71	0
2	423695	77.81	0
2	424241	77.91	0
2	424795	78.01	0
2	425341	78.11	0
2	425887	78.21	0
2	426433	78.31	0
2	426979	78.41	0
2	427525	78.51	0
2	428071	78.61	0
2	428617	78.71	0
2	429163	78.81	0
2	429709	78.91	0
2	430263	79.01	0
2	430809	79.11	0
2	431355	79.21	0
2	431901	79.31	0
2	432447	79.41	0
2	432993	79.51	0
2	433539	79.61	0
2	434085	79.71	0
2	434631	79.81	0
2	435177	79.91	0
2	435731	80.01	0
2	436277	80.11	0
2	436823	80.21	0
2	437369	80.31	0
2	437915	80.41	0
2	438461	80.51	0
2	439007	80.61	0
2	439553	80.71	0
2	440099	80.81	0
2	440645	80.91	0
2	441199	81.01	0
2	441745	81.11	0
2	442291	81.21	0
2	442837	81.31	0
2	443383	81.41	0
2	443929	81.51	0
2	444475	81.61	0
2	445021	81.71	0
2	445567	81.81	0
2	446113	81.91	0
2	446667	82.01	0
2	447213	82.11	0
2	447759	82.21	0
2	448305	82.31	0
2	448851	82.41	0
2	449397	82.51	0
2	449943	82.61	0
2	450489	82.71	0
2	451035	82.81	0
2	451581	82.91	0
2	452135	83.01	0
2	452681	83.11	0
2	453227	83.21	0
2	453773	83.31	0
2	454319	83.41	0
2	454865	83.51	0
2	455411	83.61	0
2	455957	83.71	0
2	456503	83.81	0
2	457049	83.91	0
2	457603	84.01	0
2	458149	84.11	0
2	458695	84.21	0
2	459241	84.31	0
2	459787	84.41	0
2	460333	84.51	0
2	460879	84.61	0
2	461425	84.71	0
2	461971	84.81	0
2	462517	84.91	0
2	463071	85.01	0
2	463617	85.11	0
2	464163	85.21	0
2	464709	85.31	0
2	465255	85.41	0
2	465801	85.51	0
2	466347	85.61	0
2	466893	85.71	0
2	467439	85.81	0
2	467985	85.91	0
2	468539	86.01	0
2	469085	86.11	0
2	469631	86.21	0
2	470177	86.31	0
2	470723	86.41	0
2	471269	86.51	0
2	471815	86.61	0
2	472361	86.71	0
2	472907	86.81	0
2	473453	86.91	0
2	474007	87.01	0
2	474553	87.11	0
2	475099	87.21	0
2	475645	87.31	0
2	476191	87.41	0
2	476737	87.51	0
2	477283	87.61	0
2	477829	87.71	0
2	478375	87.81	0
2	478921	87.91	0
2	479475	88.01	0
2	480021	88.11	0
2	480567	88.21	0
2	481113	88.31	0
2	481659	88.41	0
2	482205	88.51	0
2	482751	88.61	0
2	483297	88.71	0
2	483843	88.81	0
2	484389	88.91	0
2	484943	89.01	0
2	485489	89.11	0
2	486035	89.21	0
2	486581	89.31	0
2	487127	89.41	0
2	487673	89.51	0
2	488219	89.61	0
2	488765	89.71	0
2	489311	89.81	0
2	489857	89.91	0
2	490411	90.01	0
2	490957	90.11	0
2	491503	90.21	0
2	492049	90.31	0
2	492595	90.41	0
2	493141	90.51	0
2	493687	90.61	0
2	494233	90.71	0
2	494779	90.81	0
2	495325	90.91	0
2	495879	91.01	0
2	496425	91.11	0
2	496971	91.21	0
2	497517	91.31	0
2	498063	91.41	0
2	498609	91.51	0
2	499155	91.61	0
2	499701	91.71	0
2	500247	91.81	0
2	500793	91.91	0
2	501347	92.01	0
2	501893	92.11	0
2	502439	92.21	0
2	502985	92.31	0
2	503531	92.41	0
2	504077	92.51	0
2	504623	92.61	0
2	505169	92.71	0
2	505715	92.81	0
2	506261	92.91	0
2	506815	93.01	0
2	507361	93.11	0
2	507907	93.21	0
2	508453	93.31	0
2	508999	93.41	0
2	509545	93.51	0
2	510091	93.61	0
2	510637	93.71	0
2	511183	93.81	0
2	511729	93.91	0
2	512283	94.01	0
2	512829	94.11	0
2	513375	94.21	0
2	513921	94.31	0
2	514467	94.41	0
2	515013	94.51	0
2	515559	94.61	0
2	516105	94.71	0
2	516651	94.81	0
2	517197	94.91	0
2	517751	95.01	0
2	518297	95.11	0
2	518843	95.21	0
2	519389	95.31	0
2	519935	95.41	0
2	520481	95.51	0
2	521027	95.61	0
2	521573	95.71	0
2	522119	95.81	0
2	522665	95.91	0
2	523219	96.01	0
2	523765	96.11	0
2	524311	96.21	0
2	524857	96.31	0
2	525403	96.41	0
2	525949	96.51	0
2	526495	96.61	0
2	527041	96.71	0
2	527587	96.81	0
2	528133	96.91	0
2	528687	97.01	0
2	529233	97.11	0
2	529779	97.21	0
2	530325	97.31	0
2	530871	97.41	0
2	531417	97.51	0
2	531963	97.61	0
2	532509	97.71	0
2	533055	97.81	0
2	533601	97.91	0
2	534155	98.01	0
2	534701	98.11	0
2	535247	98.21	0
2	535793	98.31	0
2	536339	98.41	0
2	536885	98.51	0
2	537431	98.61	0
2	537977	98.71	0
2	538523	98.81	0
2	539069	98.91	0
2	539623	99.01	0
2	540169	99.11	0
2	540715	99.21	0
2	541261	99.31	0
2	541807	99.41	0
2	542353	99.51	0
2	542899	99.61	0
2	543445	99.71	0
2	543991	99.81	0
2	544537	99.91	0
3	113	1.11	-0.000716383
3	659	1.21	-0.00136341
3	1205	1.31	-0.00186974
3	1751	1.41	-0.00225157
3	2297	1.51	-0.00252443
3	2843	1.61	-0.00270298
3	3389	1.71	-0.00280098
3	3935	1.81	-0.00283113
3	4481	1.91	-0.00280509
3	5035	2.01	-0.00273342
3	5581	2.11	-0.00262559
3	6127	2.21	-0.00249005
3	6673	2.31	-0.00233419
3	7219	2.41	-0.00216447
3	7765	2.51	-0.00198642
3	8311	2.61	-0.00180472
3	8857	2.71	-0.0016233
3	9403	2.81	-0.00144536
3	9949	2.91	-0.00127346
3	10503	3.01	-0.0011096
3	11049	3.11	-0.000955278
3	11595	3.21	-0.000811546
3	12141	3.31	-0.00067908
3	12687	3.41	-0.000558232
3	13233	3.51	-0.000449082
3	13779	3.61	-0.000351487
3	14325	3.71	-0.00026512
3	14871	3.81	-0.000189514
3	15417	3.91	-0.000124092
3	15971	4.01	-6.81972e-05
3	16517	4.11	-2.11209e-05
3	17063	4.21	1.78769e-05
3	17609	4.31	4.9548e-05
3	18155	4.41	7.46407e-05
3	18701	4.51	9.38867e-05
3	19247	4.61	0.000107991
3	19793	4.71	0.000117625
3	20339	4.81	0.000123418
3	20885	4.91	0.000125957
3	21439	5.01	0.000125781
3	21985	5.11	0.00012338
3	22531	5.21	0.000119198
3	23077	5.31	0.000113629
3	23623	5.41	0.000107022
3	24169	5.51	9.96832e-05
3	24715	5.61	9.18747e-05
3	25261	5.71	8.38211e-05
3	25807	5.81	7.57109e-05
3	26353	5.91	6.76999e-05
3	26907	6.01	5.99137e-05
3	27453	6.11	5.24518e-05
3	27999	6.21	4.53896e-05
3	28545	6.31	3.87821e-05
3	29091	6.41	3.2666e-05
3	29637	6.51	2.70628e-05
3	30183	6.61	2.19809e-05
3	30729	6.71	1.74176e-05
3	31275	6.81	1.33618e-05
3	31821	6.91	9.79494e-06
3	32375	7.01	6.6932e-06
3	32921	7.11	4.02864e-06
3	33467	7.21	1.77051e-06
3	34013	7.31	-1.13691e-07
3	34559	7.41	-1.65736e-06
3	35105	7.51	-2.89397e-06
3	35651	7.61	-3.85652e-06
3	36197	7.71	-4.57698e-06
3	36743	7.81	-5.08591e-06
3	37289	7.91	-5.41219e-06
3	37843	8.01	-5.58279e-06
3	38389	8.11	-5.6226e-06
3	38935	8.21	-5.55442e-06
3	39481	8.31	-5.39886e-06
3	40027	8.41	-5.17441e-06
3	40573	8.51	-4.89748e-06
3	41119	8.61	-4.58246e-06
3	41665	8.71	-4.24184e-06
3	42211	8.81	-3.88634e-06
3	42757	8.91	-3.52499e-06
3	43311	9.01	-3.16534e-06
3	43857	9.11	-2.81353e-06
3	44403	9.21	-2.47446e-06
3	44949	9.31	-2.15192e-06
3	45495	9.41	-1.84873e-06
3	46041	9.51	-1.56685e-06
3	46587	9.61	-1.30751e-06
3	47133	9.71	-1.0713e-06
3	47679	9.81	-8.58321e-07
3	48225	9.91	-6.68206e-07
3	48853	10.01	-5.0026e-07
3	49406	10.11	-3.53514e-07
3	49959	10.21	-2.2679e-07
3	50512	10.31	-1.18765e-07
3	51065	10.41	-2.80163e-08
3	51618	10.51	4.6931e-08
3	52171	10.61	1.07573e-07
3	52724	10.71	1.55391e-07
3	53277	10.81	1.91831e-07
3	53830	10.91	2.18284e-07
3	54391	11.01	2.3607e-07
3	54944	11.11	2.46427e-07
3	55497	11.21	2.50502e-07
3	56050	11.31	2.49353e-07
3	56603	11.41	2.43938e-07
3	57156	11.51	2.3512e-07
3	57709	11.61	2.23669e-07
3	58262	11.71	2.10264e-07
3	58815	11.81	1.95496e-07
3	59368	11.91	1.79874e-07
3	59929	12.01	1.63833e-07
3	60482	12.11	1.47736e-07
3	61035	12.21	1.3188e-07
3	61588	12.31	1.16508e-07
3	62141	12.41	1.01807e-07
3	62694	12.51	8.79222e-08
3	63247	12.61	7.49541e-08
3	63800	12.71	6.29711e-08
3	64353	12.81	5.20114e-08
3	64906	12.91	4.20883e-08
3	65467	13.01	3.3193e-08
3	66020	13.11	2.53003e-08
3	66573	13.21	1.83718e-08
3	67126	13.31	1.23581e-08
3	67679	13.41	7.20348e-09
3	68232	13.51	2.84537e-09
3	68785	13.61	-7.80886e-10
3	69338	13.71	-3.74136e-09
3	69891	13.81	-6.10285e-09
3	70444	13.91	-7.93072e-09
3	71005	14.01	-9.28821e-09
3	71558	14.11	-1.0235e-08
3	72111	14.21	-1.08283e-08
3	72664	14.31	-1.11211e-08
3	73217	14.41	-1.11612e-08
3	73770	14.51	-1.09946e-08
3	74323	14.61	-1.06599e-08
3	74876	14.71	-1.01945e-08
3	75429	14.81	-9.62999e-09
3	75982	14.91	-8.99405e-09
3	76543	15.01	-8.31086e-09
3	77096	15.11	-7.60103e-09
3	77649	15.21	-6.88338e-09
3	78202	15.31	-6.17071e-09
3	78755	15.41	-5.47544e-09
3	79308	15.51	-4.80682e-09
3	79861	15.61	-4.17266e-09
3	80414	15.71	-3.57687e-09
3	80967	15.81	-3.02443e-09
3	81520	15.91	-2.51674e-09
3	82081	16.01	-2.05489e-09
3	82634	16.11	-1.63958e-09
3	83187	16.21	-1.26903e-09
3	83740	16.31	-9.42535e-10
3	84293	16.41	-6.57963e-10
3	84846	16.51	-4.1247e-10
3	85399	16.61	-2.04636e-10
3	85952	16.71	-2.91323e-11
3	86505	16.81	1.14753e-10
3	87058	16.91	2.30926e-10
3	87619	17.01	3.22231e-10
3	88172	17.11	3.91154e-10
3	88725	17.21	4.40892e-10
3	89278	17.31	4.73577e-10
3	89831	17.41	4.92051e-10
3	90384	17.51	4.98446e-10
3	90937	17.61	4.94893e-10
3	91490	17.71	4.82814e-10
3	92043	17.81	4.6434e-10
3	92596	17.91	4.40892e-10
3	93157	18.01	4.13536e-10
3	93710	18.11	3.83693e-10
3	94263	18.21	3.51719e-10
3	94816	18.31	3.19744e-10
3	95369	18.41	2.8777e-10
3	95922	18.51	2.55795e-10
3	96475	18.61	2.25953e-10
3	97028	18.71	1.97531e-10
3	97581	18.81	1.6982e-10
3	98134	18.91	1.44951e-10
3	98695	19.01	1.21503e-10
3	99248	19.11	1.00187e-10
3	99801	19.21	8.10019e-11
3	100354	19.31	6.32383e-11
3	100907	19.41	4.86722e-11
3	101460	19.51	3.44613e-11
3	102013	19.61	2.34479e-11
3	102566	19.71	1.27898e-11
3	103119	19.81	4.9738e-12
3	103672	19.91	-2.13163e-12
3	104233	20.01	-8.17124e-12
3	104786	20.11	-1.1724e-11
3	105339	20.21	-1.52767e-11
3	105892	20.31	-1.88294e-11
3	106445	20.41	-2.02505e-11
3	106998	20.51	-2.02505e-11
3	107551	20.61	-2.02505e-11
3	108104	20.71	-2.02505e-11
3	108657	20.81	-2.02505e-11
3	109210	20.91	-2.02505e-11
3	109771	21.01	-2.02505e-11
3	110324	21.11	-2.02505e-11
3	110877	21.21	-2.02505e-11
3	111430	21.31	-1.88294e-11
3	111983	21.41	-1.7053e-11
3	112536	21.51	-1.52767e-11
3	113089	21.61	-1.38556e-11
3	113642	21.71	-1.24345e-11
3	114195	21.81	-1.13687e-11
3	114748	21.91	-1.03029e-11
3	115309	22.01	-9.23706e-12
3	115862	22.11	-8.52651e-12
3	116415	22.21	-7.4607e-12
3	116968	22.31	-6.75016e-12
3	117521	22.41	-6.03961e-12
3	118074	22.51	-5.68434e-12
3	118627	22.61	-4.9738e-12
3	119180	22.71	-4.61853e-12
3	119733	22.81	-4.26326e-12
3	120286	22.91	-3.90799e-12
3	120847	23.01	-3.55271e-12
3	121400	23.11	-3.19744e-12
3	121953	23.21	-2.84217e-12
3	122506	23.31	-2.4869e-12
3	123059	23.41	-2.13163e-12
3	123612	23.51	-2.13163e-12
3	124165	23.61	-1.77636e-12
3	124718	23.71	-1.77636e-12
3	125271	23.81	-1.42109e-12
3	125824	23.91	-1.42109e-12
3	126385	24.01	-1.06581e-12
3	126938	24.11	-1.06581e-12
3	127491	24.21	-1.06581e-12
3	128044	24.31	-1.06581e-12
3	128597	24.41	-7.10543e-13
3	129150	24.51	-7.10543e-13
3	129703	24.61	-7.10543e-13
3	130256	24.71	-7.10543e-13
3	130809	24.81	-7.10543e-13
3	131362	24.91	-3.55271e-13
3	131923	25.01	-3.55271e-13
3	132476	25.11	-3.55271e-13
3	133029	25.21	-3.55271e-13
3	133582	25.31	-3.55271e-13
3	134135	25.41	-3.55271e-13
3	134688	25.51	-3.55271e-13
3	135241	25.61	-3.55271e-13
3	135794	25.71	-3.55271e-13
3	136347	25.81	-3.55271e-13
3	136900	25.91	0
3	137461	26.01	0
3	138014	26.11	0
3	138567	26.21	0
3	139120	26.31	0
3	139673	26.41	0
3	140226	26.51	0
3	140779	26.61	0
3	141332	26.71	0
3	141885	26.81	0
3	142438	26.91	0
3	142999	27.01	0
3	143552	27.11	0
3	144105	27.21	0
3	144658	27.31	0
3	145211	27.41	0
3	145764	27.51	0
3	146317	27.61	0
3	146870	27.71	0
3	147423	27.81	0
3	147976	27.91	0
3	148537	28.01	0
3	149090	28.11	0
3	149643	28.21	0
3	150196	28.31	0
3	150749	28.41	0
3	151302	28.51	0
3	151855	28.61	0
3	152408	28.71	0
3	152961	28.81	0
3	153514	28.91	0
3	154075	29.01	0
3	154628	29.11	0
3	155181	29.21	0
3	155734	29.31	0
3	156287	29.41	0
3	156840	29.51	0
3	157393	29.61	0
3	157946	29.71	0
3	158499	29.81	0
3	159052	29.91	0
3	159613	30.01	0
3	160166	30.11	0
3	160719	30.21	0
3	161272	30.31	0
3	161825	30.41	0
3	162378	30.51	0
3	162931	30.61	0
3	163484	30.71	0
3	164037	30.81	0
3	164590	30.91	0
3	165151	31.01	0
3	165704	31.11	0
3	166257	31.21	0
3	166810	31.31	0
3	167363	31.41	0
3	167916	31.51	0
3	168469	31.61	0
3	169022	31.71	0
3	169575	31.81	0
3	170128	31.91	0
3	170689	32.01	0
3	171242	32.11	0
3	171795	32.21	0
3	172348	32.31	0
3	172901	32.41	0
3	173454	32.51	0
3	174007	32.61	0
3	174560	32.71	0
3	175113	32.81	0
3	175666	32.91	0
3	176227	33.01	0
3	176780	33.11	0
3	177333	33.21	0
3	177886	33.31	0
3	178439	33.41	0
3	178992	33.51	0
3	179545	33.61	0
3	180098	33.71	0
3	180651	33.81	0
3	181204	33.91	0
3	181765	34.01	0
3	182318	34.11	0
3	182871	34.21	0
3	183424	34.31	0
3	183977	34.41	0
3	184530	34.51	0
3	185083	34.61	0
3	185636	34.71	0
3	186189	34.81	0
3	186742	34.91	0
3	187303	35.01	0
3	187856	35.11	0
3	188409	35.21	0
3	188962	35.31	0
3	189515	35.41	0
3	190068	35.51	0
3	190621	35.61	0
3	191174	35.71	0
3	191727	35.81	0
3	192280	35.91	0
3	192841	36.01	0
3	193394	36.11	0
3	193947	36.21	0
3	194500	36.31	0
3	195146	36.41	0
3	195698	36.51	0
3	196250	36.61	0
3	196802	36.71	0
3	197354	36.81	0
3	197906	36.91	0
3	198466	37.01	0
3	199018	37.11	0
3	199570	37.21	0
3	200122	37.31	0
3	200674	37.41	0
3	201226	37.51	0
3	201778	37.61	0
3	202330	37.71	0
3	202882	37.81	0
3	203434	37.91	0
3	203994	38.01	0
3	204546	38.11	0
3	205098	38.21	0
3	205650	38.31	0
3	206202	38.41	0
3	206754	38.51	0
3	207306	38.61	0
3	207858	38.71	0
3	208410	38.81	0
3	208962	38.91	0
3	209522	39.01	0
3	210074	39.11	0
3	210626	39.21	0
3	211178	39.31	0
3	211730	39.41	0
3	212282	39.51	0
3	212834	39.61	0
3	213386	39.71	0
3	213938	39.81	0
3	214490	39.91	0
3	215050	40.01	0
3	215602	40.11	0
3	216154	40.21	0
3	216706	40.31	0
3	217258	40.41	0
3	217810	40.51	0
3	218362	40.61	0
3	218914	40.71	0
3	219466	40.81	0
3	220018	40.91	0
3	220578	41.01	0
3	221130	41.11	0
3	221682	41.21	0
3	222234	41.31	0
3	222786	41.41	0
3	223431	41.51	0
3	223982	41.61	0
3	224533	41.71	0
3	225084	41.81	0
3	225635	41.91	0
3	226194	42.01	0
3	226745	42.11	0
3	227296	42.21	0
3	227847	42.31	0
3	228398	42.41	0
3	228949	42.51	0
3	229500	42.61	0
3	230051	42.71	0
3	230602	42.81	0
3	231153	42.91	0
3	231712	43.01	0
3	232263	43.11	0
3	232814	43.21	0
3	233365	43.31	0
3	233916	43.41	0
3	234467	43.51	0
3	235018	43.61	0
3	235569	43.71	0
3	236120	43.81	0
3	236671	43.91	0
3	237230	44.01	0
3	237781	44.11	0
3	238332	44.21	0
3	238883	44.31	0
3	239434	44.41	0
3	239985	44.51	0
3	240536	44.61	0
3	241087	44.71	0
3	241638	44.81	0
3	242189	44.91	0
3	242748	45.01	0
3	243299	45.11	0
3	243850	45.21	0
3	244401	45.31	0
3	244952	45.41	0
3	245503	45.51	0
3	246054	45.61	0
3	246605	45.71	0
3	247156	45.81	0
3	247707	45.91	0
3	248266	46.01	0
3	248817	46.11	0
3	249461	46.21	0
3	250011	46.31	0
3	250561	46.41	0
3	251111	46.51	0
3	251661	46.61	0
3	252211	46.71	0
3	252761	46.81	0
3	253311	46.91	0
3	253869	47.01	0
3	254419	47.11	0
3	254969	47.21	0
3	255519	47.31	0
3	256069	47.41	0
3	256619	47.51	0
3	257169	47.61	0
3	257719	47.71	0
3	258269	47.81	0
3	258819	47.91	0
3	259377	48.01	0
3	259927	48.11	0
3	260477	48.21	0
3	261027	48.31	0
3	261577	48.41	0
3	262127	48.51	0
3	262677	48.61	0
3	263227	48.71	0
3	263777	48.81	0
3	264327	48.91	0
3	264885	49.01	0
3	265435	49.11	0
3	265985	49.21	0
3	266535	49.31	0
3	267085	49.41	0
3	267635	49.51	0
3	268185	49.61	0
3	268735	49.71	0
3	269285	49.81	0
3	269835	49.91	0
3	270393	50.01	0
3	270943	50.11	0
3	271493	50.21	0
3	272043	50.31	0
3	272593	50.41	0
3	273143	50.51	0
3	273786	50.61	0
3	274335	50.71	0
3	274884	50.81	0
3	275433	50.91	0
3	275990	51.01	0
3	276539	51.11	0
3	277088	51.21	0
3	277637	51.31	0
3	278186	51.41	0
3	278735	51.51	0
3	279284	51.61	0
3	279833	51.71	0
3	280382	51.81	0
3	280931	51.91	0
3	281488	52.01	0
3	282037	52.11	0
3	282586	52.21	0
3	283135	52.31	0
3	283684	52.41	0
3	284233	52.51	0
3	284782	52.61	0
3	285331	52.71	0
3	285880	52.81	0
3	286429	52.91	0
3	286986	53.01	0
3	287535	53.11	0
3	288084	53.21	0
3	288633	53.31	0
3	289182	53.41	0
3	289731	53.51	0
3	290280	53.61	0
3	290829	53.71	0
3	291378	53.81	0
3	291927	53.91	0
3	292484	54.01	0
3	293033	54.11	0
3	293582	54.21	0
3	294131	54.31	0
3	294680	54.41	0
3	295229	54.51	0
3	295778	54.61	0
3	296327	54.71	0
3	296876	54.81	0
3	297518	54.91	0
3	298074	55.01	0
3	298622	55.11	0
3	299170	55.21	0
3	299718	55.31	0
3	300266	55.41	0
3	300814	55.51	0
3	301362	55.61	0
3	301910	55.71	0
3	302458	55.81	0
3	303006	55.91	0
3	303562	56.01	0
3	304110	56.11	0
3	304658	56.21	0
3	305206	56.31	0
3	305754	56.41	0
3	306302	56.51	0
3	306850	56.61	0
3	307398	56.71	0
3	307946	56.81	0
3	308494	56.91	0
3	309050	57.01	0
3	309598	57.11	0
3	310146	57.21	0
3	310694	57.31	0
3	311242	57.41	0
3	311790	57.51	0
3	312338	57.61	0
3	312886	57.71	0
3	313434	57.81	0
3	313982	57.91	0
3	314538	58.01	0
3	315086	58.11	0
3	315634	58.21	0
3	316182	58.31	0
3	316730	58.41	0
3	317278	58.51	0
3	317826	58.61	0
3	318374	58.71	0
3	318922	58.81	0
3	319470	58.91	0
3	320119	59.01	0
3	320666	59.11	0
3	321213	59.21	0
3	321760	59.31	0
3	322307	59.41	0
3	322854	59.51	0
3	323401	59.61	0
3	323948	59.71	0
3	324495	59.81	0
3	325042	59.91	0
3	325597	60.01	0
3	326144	60.11	0
3	326691	60.21	0
3	327238	60.31	0
3	327785	60.41	0
3	328332	60.51	0
3	328879	60.61	0
3	329426	60.71	0
3	329973	60.81	0
3	330520	60.91	0
3	331075	61.01	0
3	331622	61.11	0
3	332169	61.21	0
3	332716	61.31	0
3	333263	61.41	0
3	333810	61.51	0
3	334357	61.61	0
3	334904	61.71	0
3	335451	61.81	0
3	335998	61.91	0
3	336553	62.01	0
3	337100	62.11	0
3	337647	62.21	0
3	338194	62.31	0
3	338741	62.41	0
3	339288	62.51	0
3	339835	62.61	0
3	340382	62.71	0
3	340929	62.81	0
3	341476	62.91	0
3	342775	63.01	0
3	343321	63.11	0
3	343867	63.21	0
3	344413	63.31	0
3	344959	63.41	0
3	345505	63.51	0
3	346051	63.61	0
3	346597	63.71	0
3	347143	63.81	0
3	347689	63.91	0
3	348243	64.01	0
3	348789	64.11	0
3	349335	64.21	0
3	349881	64.31	0
3	350427	64.41	0
3	350973	64.51	0
3	351519	64.61	0
3	352065	64.71	0
3	352611	64.81	0
3	353157	64.91	0
3	353711	65.01	0
3	354257	65.11	0
3	354803	65.21	0
3	355349	65.31	0
3	355895	65.41	0
3	356441	65.51	0
3	356987	65.61	0
3	357533	65.71	0
3	358079	65.81	0
3	358625	65.91	0
3	359179	66.01	0
3	359725	66.11	0
3	360271	66.21	0
3	360817	66.31	0
3	361363	66.41	0
3	361909	66.51	0
3	362455	66.61	0
3	363001	66.71	0
3	363547	66.81	0
3	364093	66.91	0
3	364647	67.01	0
3	365193	67.11	0
3	365739	67.21	0
3	366285	67.31	0
3	366831	67.41	0
3	367377	67.51	0
3	367923	67.61	0
3	368469	67.71	0
3	369015	67.81	0
3	369561	67.91	0
3	370115	68.01	0
3	370661	68.11	0
3	371207	68.21	0
3	371753	68.31	0
3	372299	68.41	0
3	372845	68.51	0
3	373391	68.61	0
3	373937	68.71	0
3	374483	68.81	0
3	375029	68.91	0
3	375583	69.01	0
3	376129	69.11	0
3	376675	69.21	0
3	377221	69.31	0
3	377767	69.41	0
3	378313	69.51	0
3	378859	69.61	0
3	379405	69.71	0
3	379951	69.81	0
3	380497	69.91	0
3	381051	70.01	0
3	381597	70.11	0
3	382143	70.21	0
3	382689	70.31	0
3	383235	70.41	0
3	383781	70.51	0
3	384327	70.61	0
3	384873	70.71	0
3	385419	70.81	0
3	385965	70.91	0
3	386519	71.01	0
3	387065	71.11	0
3	387611	71.21	0
3	388157	71.31	0
3	388703	71.41	0
3	389249	71.51	0
3	389795	71.61	0
3	390341	71.71	0
3	390887	71.81	0
3	391433	71.91	0
3	391987	72.01	0
3	392533	72.11	0
3	393079	72.21	0
3	393625	72.31	0
3	394171	72.41	0
3	394717	72.51	0
3	395263	72.61	0
3	395809	72.71	0
3	396355	72.81	0
3	396901	72.91	0
3	397455	73.01	0
3	398001	73.11	0
3	398547	73.21	0
3	399093	73.31	0
3	399639	73.41	0
3	400185	73.51	0
3	400731	73.61	0
3	401277	73.71	0
3	401823	73.81	0
3	402369	73.91	0
3	402923	74.01	0
3	403469	74.11	0
3	404015	74.21	0
3	404561	74.31	0
3	405107	74.41	0
3	405653	74.51	0
3	406199	74.61	0
3	406745	74.71	0
3	407291	74.81	0
3	407837	74.91	0
3	408391	75.01	0
3	408937	75.11	0
3	409483	75.21	0
3	410029	75.31	0
3	410575	75.41	0
3	411121	75.51	0
3	411667	75.61	0
3	412213	75.71	0
3	412759	75.81	0
3	413305	75.91	0
3	413859	76.01	0
3	414405	76.11	0
3	414951	76.21	0
3	415497	76.31	0
3	416043	76.41	0
3	416589	76.51	0
3	417135	76.61	0
3	417681	76.71	0
3	418227	76.81	0
3	418773	76.91	0
3	419327	77.01	0
3	419873	77.11	0
3	420419	77.21	0
3	420965	77.31	0
3	421511	77.41	0
3	422057	77.51	0
3	422603	77.61	0
3	423149	77.71	0
3	423695	77.81	0
3	424241	77.91	0
3	424795	78.01	0
3	425341	78.11	0
3	425887	78.21	0
3	426433	78.31	0
3	426979	78.41	0
3	427525	78.51	0
3	428071	78.61	0
3	428617	78.71	0
3	429163	78.81	0
3	429709	78.91	0
3	430263	79.01	0
3	430809	79.11	0
3	431355	79.21	0
3	431901	79.31	0
3	432447	79.41	0
3	432993	79.51	0
3	433539	79.61	0
3	434085	79.71	0
3	434631	79.81	0
3	435177	79.91	0
3	435731	80.01	0
3	436277	80.11	0
3	436823	80.21	0
3	437369	80.31	0
3	437915	80.41	0
3	438461	80.51	0
3	439007	80.61	0
3	439553	80.71	0
3	440099	80.81	0
3	440645	80.91	0
3	441199	81.01	0
3	441745	81.11	0
3	442291	81.21	0
3	442837	81.31	0
3	443383	81.41	0
3	443929	81.51	0
3	444475	81.61	0
3	445021	81.71	0
3	445567	81.81	0
3	446113	81.91	0
3	446667	82.01	0
3	447213	82.11	0
3	447759	82.21	0
3	448305	82.31	0
3	448851	82.41	0
3	449397	82.51	0
[...]
104	408320	75	4
104	413788	76	4
104	419256	77	4
104	424724	78	4
104	430192	79	4
104	435660	80	4
104	441128	81	4
104	446596	82	4
104	452064	83	4
104	457532	84	4
104	463000	85	4
104	468468	86	4
104	473936	87	4
104	479404	88	4
104	484872	89	4
104	490340	90	4
104	495808	91	4
104	501276	92	4
104	506744	93	4
104	512212	94	4
104	517680	95	4
104	523148	96	4
104	528616	97	4
104	534084	98	4
104	539552	99	4
104	545020	100	4
105	4964	2	0.022161
105	10432	3	0.02497
105	15900	4	0.02497
105	21368	5	0.02497
105	26836	6	0.02497
105	32304	7	0.02497
105	37772	8	0.02497
105	43240	9	0.02497
105	48709	10	0.02497
105	54313	11	0.025018
105	59851	12	0.02497
105	65389	13	0.02497
105	70927	14	0.02497
105	76465	15	0.02497
105	82003	16	0.02497
105	87541	17	0.02497
105	93079	18	0.02497
105	98617	19	0.02497
105	104155	20	0.02497
105	109693	21	0.02497
105	115231	22	0.02497
105	120769	23	0.02497
105	126307	24	0.02497
105	131845	25	0.02497
105	137383	26	0.02497
105	142921	27	0.02497
105	148459	28	0.02497
105	153997	29	0.02497
105	159535	30	0.02497
105	165073	31	0.02497
105	170611	32	0.02497
105	176149	33	0.02497
105	181687	34	0.02497
105	187225	35	0.02497
105	192763	36	0.02497
105	198389	37	0.025082
105	203917	38	0.02497
105	209445	39	0.02497
105	214973	40	0.02497
105	220501	41	0.02497
105	226118	42	0.025082
105	231636	43	0.02497
105	237154	44	0.02497
105	242672	45	0.02497
105	248190	46	0.02497
105	253794	47	0.025082
105	259302	48	0.02497
105	264810	49	0.02497
105	270318	50	0.02497
105	275916	51	0.025115238868
105	281414	52	0.02497
105	286912	53	0.02497
105	292410	54	0.02497
105	298001	55	0.025082
105	303489	56	0.02497
105	308977	57	0.02497
105	314465	58	0.02497
105	319953	59	0.02497
105	325525	60	0.025082
105	331003	61	0.02497
105	336481	62	0.02497
105	341959	63	0.02497
105	348172	64	0.025898
105	353640	65	0.02497
105	359108	66	0.02497
105	364576	67	0.02497
105	370044	68	0.02497
105	375512	69	0.02497
105	380980	70	0.02497
105	386448	71	0.02497
105	391916	72	0.02497
105	397384	73	0.02497
105	402852	74	0.02497
105	408320	75	0.02497
105	413788	76	0.02497
105	419256	77	0.02497
105	424724	78	0.02497
105	430192	79	0.02497
105	435660	80	0.02497
105	441128	81	0.02497
105	446596	82	0.02497
105	452064	83	0.02497
105	457532	84	0.02497
105	463000	85	0.02497
105	468468	86	0.02497
105	473936	87	0.02497
105	479404	88	0.02497
105	484872	89	0.02497
105	490340	90	0.02497
105	495808	91	0.02497
105	501276	92	0.02497
105	506744	93	0.02497
105	512212	94	0.02497
105	517680	95	0.02497
105	523148	96	0.02497
105	528616	97	0.02497
105	534084	98	0.02497
105	539552	99	0.02497
105	545020	100	0.02497
106	4964	2	0
106	10432	3	0
106	15900	4	0
106	21368	5	0
106	26836	6	0
106	32304	7	0
106	37772	8	0
106	43240	9	0
106	48709	10	0
106	54313	11	0
106	59851	12	0
106	65389	13	0
106	70927	14	0
106	76465	15	0
106	82003	16	0
106	87541	17	0
106	93079	18	0
106	98617	19	0
106	104155	20	0
106	109693	21	0
106	115231	22	0
106	120769	23	0
106	126307	24	0
106	131845	25	0
106	137383	26	0
106	142921	27	0
106	148459	28	0
106	153997	29	0
106	159535	30	0
106	165073	31	0
106	170611	32	0
106	176149	33	0
106	181687	34	0
106	187225	35	0
106	192763	36	0
106	198389	37	0
106	203917	38	0
106	209445	39	0
106	214973	40	0
106	220501	41	0
106	226118	42	0
106	231636	43	0
106	237154	44	0
106	242672	45	0
106	248190	46	0
106	253794	47	0
106	259302	48	0
106	264810	49	0
106	270318	50	0
106	275916	51	0
106	281414	52	0
106	286912	53	0
106	292410	54	0
106	298001	55	0
106	303489	56	0
106	308977	57	0
106	314465	58	0
106	319953	59	0
106	325525	60	0
106	331003	61	0
106	336481	62	0
106	341959	63	0
106	348172	64	0
106	353640	65	0
106	359108	66	0
106	364576	67	0
106	370044	68	0
106	375512	69	0
106	380980	70	0
106	386448	71	0
106	391916	72	0
106	397384	73	0
106	402852	74	0
106	408320	75	0
106	413788	76	0
106	419256	77	0
106	424724	78	0
106	430192	79	0
106	435660	80	0
106	441128	81	0
106	446596	82	0
106	452064	83	0
106	457532	84	0
106	463000	85	0
106	468468	86	0
106	473936	87	0
106	479404	88	0
106	484872	89	0
106	490340	90	0
106	495808	91	0
106	501276	92	0
106	506744	93	0
106	512212	94	0
106	517680	95	0
106	523148	96	0
106	528616	97	0
106	534084	98	0
106	539552	99	0
106	545020	100	0
107	4965	2	5
107	10433	3	5
107	15901	4	5
107	21369	5	5
107	26837	6	5
107	32305	7	5
107	37773	8	5
107	43241	9	5
107	48710	10	5
107	54314	11	5
107	59852	12	5
107	65390	13	5
107	70928	14	5
107	76466	15	5
107	82004	16	5
107	87542	17	5
107	93080	18	5
107	98618	19	5
107	104156	20	5
107	109694	21	5
107	115232	22	5
107	120770	23	5
107	126308	24	5
107	131846	25	5
107	137384	26	5
107	142922	27	5
107	148460	28	5
107	153998	29	5
107	159536	30	5
107	165074	31	5
107	170612	32	5
107	176150	33	5
107	181688	34	5
107	187226	35	5
107	192764	36	5
107	198390	37	5
107	203918	38	5
107	209446	39	5
107	214974	40	5
107	220502	41	5
107	226119	42	5
107	231637	43	5
107	237155	44	5
107	242673	45	5
107	248191	46	5
107	253795	47	5
107	259303	48	5
107	264811	49	5
107	270319	50	5
107	275917	51	5
107	281415	52	5
107	286913	53	5
107	292411	54	5
107	298002	55	5
107	303490	56	5
107	308978	57	5
107	314466	58	5
107	319954	59	5
107	325526	60	5
107	331004	61	5
107	336482	62	5
107	341960	63	5
107	348173	64	5
107	353641	65	5
107	359109	66	5
107	364577	67	5
107	370045	68	5
107	375513	69	5
107	380981	70	5
107	386449	71	5
107	391917	72	5
107	397385	73	5
107	402853	74	5
107	408321	75	5
107	413789	76	5
107	419257	77	5
107	424725	78	5
107	430193	79	5
107	435661	80	5
107	441129	81	5
107	446597	82	5
107	452065	83	5
107	457533	84	5
107	463001	85	5
107	468469	86	5
107	473937	87	5
107	479405	88	5
107	484873	89	5
107	490341	90	5
107	495809	91	5
107	501277	92	5
107	506745	93	5
107	512213	94	5
107	517681	95	5
107	523149	96	5
107	528617	97	5
107	534085	98	5
107	539553	99	5
107	545021	100	5
108	4965	2	0.022161
108	10433	3	0.02497
108	15901	4	0.02497
108	21369	5	0.02497
108	26837	6	0.02497
108	32305	7	0.02497
108	37773	8	0.02497
108	43241	9	0.02497
108	48710	10	0.02497
108	54314	11	0.025018
108	59852	12	0.02497
108	65390	13	0.02497
108	70928	14	0.02497
108	76466	15	0.02497
108	82004	16	0.02497
108	87542	17	0.02497
108	93080	18	0.02497
108	98618	19	0.02497
108	104156	20	0.02497
108	109694	21	0.02497
108	115232	22	0.02497
108	120770	23	0.02497
108	126308	24	0.02497
108	131846	25	0.02497
108	137384	26	0.02497
108	142922	27	0.02497
108	148460	28	0.02497
108	153998	29	0.02497
108	159536	30	0.02497
108	165074	31	0.02497
108	170612	32	0.02497
108	176150	33	0.02497
108	181688	34	0.02497
108	187226	35	0.02497
108	192764	36	0.02497
108	198390	37	0.025082
108	203918	38	0.02497
108	209446	39	0.02497
108	214974	40	0.02497
108	220502	41	0.02497
108	226119	42	0.025082
108	231637	43	0.02497
108	237155	44	0.02497
108	242673	45	0.02497
108	248191	46	0.02497
108	253795	47	0.025082
108	259303	48	0.02497
108	264811	49	0.02497
108	270319	50	0.02497
108	275917	51	0.025082
108	281415	52	0.02497
108	286913	53	0.02497
108	292411	54	0.02497
108	298002	55	0.025115298802
108	303490	56	0.02497
108	308978	57	0.02497
108	314466	58	0.02497
108	319954	59	0.02497
108	325526	60	0.025082
108	331004	61	0.02497
108	336482	62	0.02497
108	341960	63	0.02497
108	348173	64	0.025898
108	353641	65	0.02497
108	359109	66	0.02497
108	364577	67	0.02497
108	370045	68	0.02497
108	375513	69	0.02497
108	380981	70	0.02497
108	386449	71	0.02497
108	391917	72	0.02497
108	397385	73	0.02497
108	402853	74	0.02497
108	408321	75	0.02497
108	413789	76	0.02497
108	419257	77	0.02497
108	424725	78	0.02497
108	430193	79	0.02497
108	435661	80	0.02497
108	441129	81	0.02497
108	446597	82	0.02497
108	452065	83	0.02497
108	457533	84	0.02497
108	463001	85	0.02497
108	468469	86	0.02497
108	473937	87	0.02497
108	479405	88	0.02497
108	484873	89	0.02497
108	490341	90	0.02497
108	495809	91	0.02497
108	501277	92	0.02497
108	506745	93	0.02497
108	512213	94	0.02497
108	517681	95	0.02497
108	523149	96	0.02497
108	528617	97	0.02497
108	534085	98	0.02497
108	539553	99	0.02497
108	545021	100	0.02497
109	4965	2	0
109	10433	3	0
109	15901	4	0
109	21369	5	0
109	26837	6	0
109	32305	7	0
109	37773	8	0
109	43241	9	0
109	48710	10	0
109	54314	11	0
109	59852	12	0
109	65390	13	0
109	70928	14	0
109	76466	15	0
109	82004	16	0
109	87542	17	0
109	93080	18	0
109	98618	19	0
109	104156	20	0
109	109694	21	0
109	115232	22	0
109	120770	23	0
109	126308	24	0
109	131846	25	0
109	137384	26	0
109	142922	27	0
109	148460	28	0
109	153998	29	0
109	159536	30	0
109	165074	31	0
109	170612	32	0
109	176150	33	0
109	181688	34	0
109	187226	35	0
109	192764	36	0
109	198390	37	0
109	203918	38	0
109	209446	39	0
109	214974	40	0
109	220502	41	0
109	226119	42	0
109	231637	43	0
109	237155	44	0
109	242673	45	0
109	248191	46	0
109	253795	47	0
109	259303	48	0
109	264811	49	0
109	270319	50	0
109	275917	51	0
109	281415	52	0
109	286913	53	0
109	292411	54	0
109	298002	55	0
109	303490	56	0
109	308978	57	0
109	314466	58	0
109	319954	59	0
109	325526	60	0
109	331004	61	0
109	336482	62	0
109	341960	63	0
109	348173	64	0
109	353641	65	0
109	359109	66	0
109	364577	67	0
109	370045	68	0
109	375513	69	0
109	380981	70	0
109	386449	71	0
109	391917	72	0
109	397385	73	0
109	402853	74	0
109	408321	75	0
109	413789	76	0
109	419257	77	0
109	424725	78	0
109	430193	79	0
109	435661	80	0
109	441129	81	0
109	446597	82	0
109	452065	83	0
109	457533	84	0
109	463001	85	0
109	468469	86	0
109	473937	87	0
109	479405	88	0
109	484873	89	0
109	490341	90	0
109	495809	91	0
109	501277	92	0
109	506745	93	0
109	512213	94	0
109	517681	95	0
109	523149	96	0
109	528617	97	0
109	534085	98	0
109	539553	99	0
109	545021	100	0
110	4966	2	6
110	10434	3	6
110	15902	4	6
110	21370	5	6
110	26838	6	6
110	32306	7	6
110	37774	8	6
110	43242	9	6
110	48711	10	6
110	54315	11	6
110	59853	12	6
110	65391	13	6
110	70929	14	6
110	76467	15	6
110	82005	16	6
110	87543	17	6
110	93081	18	6
110	98619	19	6
110	104157	20	6
110	109695	21	6
110	115233	22	6
110	120771	23	6
110	126309	24	6
110	131847	25	6
110	137385	26	6
110	142923	27	6
110	148461	28	6
110	153999	29	6
110	159537	30	6
110	165075	31	6
110	170613	32	6
110	176151	33	6
110	181689	34	6
110	187227	35	6
110	192765	36	6
110	198391	37	6
110	203919	38	6
110	209447	39	6
110	214975	40	6
110	220503	41	6
110	226120	42	6
110	231638	43	6
110	237156	44	6
110	242674	45	6
110	248192	46	6
110	253796	47	6
110	259304	48	6
110	264812	49	6
110	270320	50	6
110	275918	51	6
110	281416	52	6
110	286914	53	6
110	292412	54	6
110	298003	55	6
110	303491	56	6
110	308979	57	6
110	314467	58	6
110	319955	59	6
110	325527	60	6
110	331005	61	6
110	336483	62	6
110	341961	63	6
110	348174	64	6
110	353642	65	6
110	359110	66	6
110	364578	67	6
110	370046	68	6
110	375514	69	6
110	380982	70	6
110	386450	71	6
110	391918	72	6
110	397386	73	6
110	402854	74	6
110	408322	75	6
110	413790	76	6
110	419258	77	6
110	424726	78	6
110	430194	79	6
110	435662	80	6
110	441130	81	6
110	446598	82	6
110	452066	83	6
110	457534	84	6
110	463002	85	6
110	468470	86	6
110	473938	87	6
110	479406	88	6
110	484874	89	6
110	490342	90	6
110	495810	91	6
110	501278	92	6
110	506746	93	6
110	512214	94	6
110	517682	95	6
110	523150	96	6
110	528618	97	6
110	534086	98	6
110	539554	99	6
110	545022	100	6
111	4966	2	0.02216
111	10434	3	0.02497
111	15902	4	0.02497
111	21370	5	0.02497
111	26838	6	0.02497
111	32306	7	0.02497
111	37774	8	0.02497
111	43242	9	0.02497
111	48711	10	0.02497
111	54315	11	0.025018
111	59853	12	0.02497
111	65391	13	0.02497
111	70929	14	0.02497
111	76467	15	0.02497
111	82005	16	0.02497
111	87543	17	0.02497
111	93081	18	0.02497
111	98619	19	0.02497
111	104157	20	0.02497
111	109695	21	0.02497
111	115233	22	0.02497
111	120771	23	0.02497
111	126309	24	0.02497
111	131847	25	0.02497
111	137385	26	0.02497
111	142923	27	0.02497
111	148461	28	0.02497
111	153999	29	0.02497
111	159537	30	0.02497
111	165075	31	0.02497
111	170613	32	0.02497
111	176151	33	0.02497
111	181689	34	0.02497
111	187227	35	0.02497
111	192765	36	0.02497
111	198391	37	0.025082
111	203919	38	0.02497
111	209447	39	0.02497
111	214975	40	0.02497
111	220503	41	0.02497
111	226120	42	0.025082
111	231638	43	0.02497
111	237156	44	0.02497
111	242674	45	0.02497
111	248192	46	0.02497
111	253796	47	0.025082
111	259304	48	0.02497
111	264812	49	0.02497
111	270320	50	0.02497
111	275918	51	0.025082
111	281416	52	0.02497
111	286914	53	0.02497
111	292412	54	0.02497
111	298003	55	0.025082
111	303491	56	0.02497
111	308979	57	0.02497
111	314467	58	0.02497
111	319955	59	0.02497
111	325527	60	0.02511535874
111	331005	61	0.02497
111	336483	62	0.02497
111	341961	63	0.02497
111	348174	64	0.025898
111	353642	65	0.02497
111	359110	66	0.02497
111	364578	67	0.02497
111	370046	68	0.02497
111	375514	69	0.02497
111	380982	70	0.02497
111	386450	71	0.02497
111	391918	72	0.02497
111	397386	73	0.02497
111	402854	74	0.02497
111	408322	75	0.02497
111	413790	76	0.02497
111	419258	77	0.02497
111	424726	78	0.02497
111	430194	79	0.02497
111	435662	80	0.02497
111	441130	81	0.02497
111	446598	82	0.02497
111	452066	83	0.02497
111	457534	84	0.02497
111	463002	85	0.02497
111	468470	86	0.02497
111	473938	87	0.02497
111	479406	88	0.02497
111	484874	89	0.02497
111	490342	90	0.02497
111	495810	91	0.02497
111	501278	92	0.02497
111	506746	93	0.02497
111	512214	94	0.02497
111	517682	95	0.02497
111	523150	96	0.02497
111	528618	97	0.02497
111	534086	98	0.02497
111	539554	99	0.02497
111	545022	100	0.02497
112	4966	2	0
112	10434	3	0
112	15902	4	0
112	21370	5	0
112	26838	6	0
112	32306	7	0
112	37774	8	0
112	43242	9	0
112	48711	10	0
112	54315	11	0
112	59853	12	0
112	65391	13	0
112	70929	14	0
112	76467	15	0
112	82005	16	0
112	87543	17	0
112	93081	18	0
112	98619	19	0
112	104157	20	0
112	109695	21	0
112	115233	22	0
112	120771	23	0
112	126309	24	0
112	131847	25	0
112	137385	26	0
112	142923	27	0
112	148461	28	0
112	153999	29	0
112	159537	30	0
112	165075	31	0
112	170613	32	0
112	176151	33	0
112	181689	34	0
112	187227	35	0
112	192765	36	0
112	198391	37	0
112	203919	38	0
112	209447	39	0
112	214975	40	0
112	220503	41	0
112	226120	42	0
112	231638	43	0
112	237156	44	0
112	242674	45	0
112	248192	46	0
112	253796	47	0
112	259304	48	0
112	264812	49	0
112	270320	50	0
112	275918	51	0
112	281416	52	0
112	286914	53	0
112	292412	54	0
112	298003	55	0
112	303491	56	0
112	308979	57	0
112	314467	58	0
112	319955	59	0
112	325527	60	0
112	331005	61	0
112	336483	62	0
112	341961	63	0
112	348174	64	0
112	353642	65	0
112	359110	66	0
112	364578	67	0
112	370046	68	0
112	375514	69	0
112	380982	70	0
112	386450	71	0
112	391918	72	0
112	397386	73	0
112	402854	74	0
112	408322	75	0
112	413790	76	0
112	419258	77	0
112	424726	78	0
112	430194	79	0
112	435662	80	0
112	441130	81	0
112	446598	82	0
112	452066	83	0
112	457534	84	0
112	463002	85	0
112	468470	86	0
112	473938	87	0
112	479406	88	0
112	484874	89	0
112	490342	90	0
112	495810	91	0
112	501278	92	0
112	506746	93	0
112	512214	94	0
112	517682	95	0
112	523150	96	0
112	528618	97	0
112	534086	98	0
112	539554	99	0
112	545022	100	0
113	4967	2	7
113	10435	3	7
113	15903	4	7
113	21371	5	7
113	26839	6	7
113	32307	7	7
113	37775	8	7
113	43243	9	7
113	48712	10	7
113	54316	11	7
113	59854	12	7
113	65392	13	7
113	70930	14	7
113	76468	15	7
113	82006	16	7
113	87544	17	7
113	93082	18	7
113	98620	19	7
113	104158	20	7
113	109696	21	7
113	115234	22	7
113	120772	23	7
113	126310	24	7
113	131848	25	7
113	137386	26	7
113	142924	27	7
113	148462	28	7
113	154000	29	7
113	159538	30	7
113	165076	31	7
113	170614	32	7
113	176152	33	7
113	181690	34	7
113	187228	35	7
113	192766	36	7
113	198392	37	7
113	203920	38	7
113	209448	39	7
113	214976	40	7
113	220504	41	7
113	226121	42	7
113	231639	43	7
113	237157	44	7
113	242675	45	7
113	248193	46	7
113	253797	47	7
113	259305	48	7
113	264813	49	7
113	270321	50	7
113	275919	51	7
113	281417	52	7
113	286915	53	7
113	292413	54	7
113	298004	55	7
113	303492	56	7
113	308980	57	7
113	314468	58	7
113	319956	59	7
113	325528	60	7
113	331006	61	7
113	336484	62	7
113	341962	63	7
113	348175	64	7
113	353643	65	7
113	359111	66	7
113	364579	67	7
113	370047	68	7
113	375515	69	7
113	380983	70	7
113	386451	71	7
113	391919	72	7
113	397387	73	7
113	402855	74	7
113	408323	75	7
113	413791	76	7
113	419259	77	7
113	424727	78	7
113	430195	79	7
113	435663	80	7
113	441131	81	7
113	446599	82	7
113	452067	83	7
113	457535	84	7
113	463003	85	7
113	468471	86	7
113	473939	87	7
113	479407	88	7
113	484875	89	7
113	490343	90	7
113	495811	91	7
113	501279	92	7
113	506747	93	7
113	512215	94	7
113	517683	95	7
113	523151	96	7
113	528619	97	7
113	534087	98	7
113	539555	99	7
113	545023	100	7
114	4967	2	0.022161
114	10435	3	0.02497
114	15903	4	0.02497
114	21371	5	0.02497
114	26839	6	0.02497
114	32307	7	0.02497
114	37775	8	0.02497
114	43243	9	0.02497
114	48712	10	0.02497
114	54316	11	0.025018
114	59854	12	0.02497
114	65392	13	0.02497
114	70930	14	0.02497
114	76468	15	0.02497
114	82006	16	0.02497
114	87544	17	0.02497
114	93082	18	0.02497
114	98620	19	0.02497
114	104158	20	0.02497
114	109696	21	0.02497
114	115234	22	0.02497
114	120772	23	0.02497
114	126310	24	0.02497
114	131848	25	0.02497
114	137386	26	0.02497
114	142924	27	0.02497
114	148462	28	0.02497
114	154000	29	0.02497
114	159538	30	0.02497
114	165076	31	0.02497
114	170614	32	0.02497
114	176152	33	0.02497
114	181690	34	0.02497
114	187228	35	0.02497
114	192766	36	0.02497
114	198392	37	0.025082
114	203920	38	0.02497
114	209448	39	0.02497
114	214976	40	0.02497
114	220504	41	0.02497
114	226121	42	0.025082
114	231639	43	0.02497
114	237157	44	0.02497
114	242675	45	0.02497
114	248193	46	0.02497
114	253797	47	0.025082
114	259305	48	0.02497
114	264813	49	0.02497
114	270321	50	0.02497
114	275919	51	0.025082
114	281417	52	0.02497
114	286915	53	0.02497
114	292413	54	0.02497
114	298004	55	0.025082
114	303492	56	0.02497
114	308980	57	0.02497
114	314468	58	0.02497
114	319956	59	0.02497
114	325528	60	0.025082
114	331006	61	0.02497
114	336484	62	0.02497
114	341962	63	0.02497
114	348175	64	0.025931418692
114	353643	65	0.02497
114	359111	66	0.02497
114	364579	67	0.02497
114	370047	68	0.02497
114	375515	69	0.02497
114	380983	70	0.02497
114	386451	71	0.02497
114	391919	72	0.02497
114	397387	73	0.02497
114	402855	74	0.02497
114	408323	75	0.02497
114	413791	76	0.02497
114	419259	77	0.02497
114	424727	78	0.02497
114	430195	79	0.02497
114	435663	80	0.02497
114	441131	81	0.02497
114	446599	82	0.02497
114	452067	83	0.02497
114	457535	84	0.02497
114	463003	85	0.02497
114	468471	86	0.02497
114	473939	87	0.02497
114	479407	88	0.02497
114	484875	89	0.02497
114	490343	90	0.02497
114	495811	91	0.02497
114	501279	92	0.02497
114	506747	93	0.02497
114	512215	94	0.02497
114	517683	95	0.02497
114	523151	96	0.02497
114	528619	97	0.02497
114	534087	98	0.02497
114	539555	99	0.02497
114	545023	100	0.02497
115	4967	2	0
115	10435	3	0
115	15903	4	0
115	21371	5	0
115	26839	6	0
115	32307	7	0
115	37775	8	0
115	43243	9	0
115	48712	10	0
115	54316	11	0
115	59854	12	0
115	65392	13	0
115	70930	14	0
115	76468	15	0
115	82006	16	0
115	87544	17	0
115	93082	18	0
115	98620	19	0
115	104158	20	0
115	109696	21	0
115	115234	22	0
115	120772	23	0
115	126310	24	0
115	131848	25	0
115	137386	26	0
115	142924	27	0
115	148462	28	0
115	154000	29	0
115	159538	30	0
115	165076	31	0
115	170614	32	0
115	176152	33	0
115	181690	34	0
115	187228	35	0
115	192766	36	0
115	198392	37	0
115	203920	38	0
115	209448	39	0
115	214976	40	0
115	220504	41	0
115	226121	42	0
115	231639	43	0
115	237157	44	0
115	242675	45	0
115	248193	46	0
115	253797	47	0
115	259305	48	0
115	264813	49	0
115	270321	50	0
115	275919	51	0
115	281417	52	0
115	286915	53	0
115	292413	54	0
115	298004	55	0
115	303492	56	0
115	308980	57	0
115	314468	58	0
115	319956	59	0
115	325528	60	0
115	331006	61	0
115	336484	62	0
115	341962	63	0
115	348175	64	0
115	353643	65	0
115	359111	66	0
115	364579	67	0
115	370047	68	0
115	375515	69	0
115	380983	70	0
115	386451	71	0
115	391919	72	0
115	397387	73	0
115	402855	74	0
115	408323	75	0
115	413791	76	0
115	419259	77	0
115	424727	78	0
115	430195	79	0
115	435663	80	0
115	441131	81	0
115	446599	82	0
115	452067	83	0
115	457535	84	0
115	463003	85	0
115	468471	86	0
115	473939	87	0
115	479407	88	0
115	484875	89	0
115	490343	90	0
115	495811	91	0
115	501279	92	0
115	506747	93	0
115	512215	94	0
115	517683	95	0
115	523151	96	0
115	528619	97	0
115	534087	98	0
115	539555	99	0
115	545023	100	0

