file 2449485 1720582851                                         
version 3
run BreakRanksNoGui-28-20240710-05:40:41-232867
attr configname BreakRanksNoGui
attr datetime 20240710-05:40:41
attr datetimef 20240710-054041
attr experiment BreakRanksNoGui
attr inifile omnetpp.ini
attr iterationvars "$nCars=8, $platoonSize=8, $nLanes=1, $ploegH=0.5, $controller=1, $headway=0.1, $leaderHeadway=1.2, $leaderSpeed=110, $breakRanksSafetyDistance=5, $minSpeed=100, $maxSpeed=120, $beaconInterval=0.1, $priority=4, $packetSize=200, $sController=\"CACC\", $0=2, $1=0"
attr iterationvarsd nCars=8/platoonSize=8/nLanes=1/ploegH=0.5/controller=1/headway=0.1/leaderHeadway=1.2/leaderSpeed=110/breakRanksSafetyDistance=5/minSpeed=100/maxSpeed=120/beaconInterval=0.1/priority=4/packetSize=200/sController=CACC/2/0
attr iterationvarsf nCars=8,platoonSize=8,nLanes=1,ploegH=0.5,controller=1,headway=0.1,leaderHeadway=1.2,leaderSpeed=110,breakRanksSafetyDistance=5,minSpeed=100,maxSpeed=120,beaconInterval=0.1,priority=4,packetSize=200,sController=CACC,2,0-
attr measurement "$nCars=8, $platoonSize=8, $nLanes=1, $ploegH=0.5, $controller=1, $headway=0.1, $leaderHeadway=1.2, $leaderSpeed=110, $breakRanksSafetyDistance=5, $minSpeed=100, $maxSpeed=120, $beaconInterval=0.1, $priority=4, $packetSize=200, $sController=\"CACC\", $0=2, $1=0"
attr network Highway
attr processid 232867
attr repetition 8
attr replication #8
attr resultdir results
attr runnumber 28
attr seedset 8
itervar beaconInterval 0.1
itervar breakRanksSafetyDistance 5
itervar controller 1
itervar headway 0.1
itervar leaderHeadway 1.2
itervar leaderSpeed 110
itervar maxSpeed 120
itervar minSpeed 100
itervar nCars 8
itervar nLanes 1
itervar packetSize 200
itervar platoonSize 8
itervar ploegH 0.5
itervar priority 4
itervar sController "\"CACC\""
config image-path ../../../veins/images
config repeat 10
config extends BreakRanks
config *.manager.command "\"sumo\""
config *.manager.ignoreGuiCommands true
config output-vector-file results/BreakRanks_1_0.1_110_5/result_8.vec
config output-scalar-file results/BreakRanks_1_0.1_110_5/result_8.sca
config extends Platooning
config *.node[*].scenario_type "\"BreakRanksScenario\""
config *.manager.command "\"sumo-gui\""
config *.node[*].scenario_type "\"SimpleScenario\""
config cmdenv-express-mode true
config cmdenv-autoflush true
config cmdenv-status-frequency 15s
config num-rngs 6
config network Highway
config debug-on-errors true
config print-undisposed true
config *.playgroundSizeX 65000m
config *.playgroundSizeY 25000m
config *.playgroundSizeZ 50m
config sim-time-limit "100 s"
config *.annotations.draw false
config *.obstacles.debug false
config *.world.useTorus false
config *.world.use2D false
config *.manager.updateInterval 0.01s
config *.manager.host "\"localhost\""
config *.manager.moduleType "\"org.car2x.plexe.PlatoonCar\""
config *.manager.moduleName "\"node\""
config *.manager.moduleDisplayString "\"\""
config *.manager.autoShutdown true
config *.manager.margin 25
config *.connectionManager.sendDirect true
config *.connectionManager.maxInterfDist 2600m
config *.connectionManager.drawMaxIntfDist false
config *.**.nic.mac1609_4.useServiceChannel false
config *.**.nic.mac1609_4.txPower 100mW
config *.**.nic.mac1609_4.bitrate 6Mbps
config *.**.nic.mac1609_4.useAcks true
config *.**.nic.mac1609_4.ackErrorRate 0.0
config *.**.nic.mac1609_4.frameErrorRate 0.0
config *.**.nic.phy80211p.minPowerLevel -94dBm
config *.**.nic.phy80211p.maxTXPower 100mW
config *.**.nic.phy80211p.useNoiseFloor true
config *.**.nic.phy80211p.noiseFloor -95dBm
config *.**.nic.phy80211p.decider "xmldoc(\"config.xml\")"
config *.**.nic.phy80211p.analogueModels "xmldoc(\"config.xml\")"
config *.**.nic.phy80211p.usePropagationDelay true
config *.node[*].mobility.x 0
config *.node[*].mobility.y 0
config *.node[*].mobility.z 1.895
config seed-set 8
config **.seed 8
config *.node[*].prot.rng-0 2
config *.node[*].appl.rng-0 3
config *.node[*].scenario.rng-0 4
config **.traffic.rng-0 5
config *.manager.configFile "\"./sumocfg/freeway.sumo.cfg\""
config *.manager.launchConfig "xmldoc(\"./sumocfg/freeway.launchd.xml\")"
config **.numberOfCars 8
config **.numberOfCarsPerPlatoon 8
config **.numberOfLanes 1
config *.node[*].helper_type "\"PositionHelper\""
config *.node[*].scenario.caccC1 0.5
config *.node[*].scenario.caccXi 1
config *.node[*].scenario.caccOmegaN "0.2 Hz"
config *.node[*].scenario.caccSpacing "2 m"
config *.node[*].scenario.engineTau "0.5 s"
config *.node[*].scenario.ploegH 0.5s
config *.node[*].scenario.ploegKp 0.2
config *.node[*].scenario.ploegKd 0.7
config *.node[*].scenario.useRealisticEngine false
config *.node[*].scenario.useControllerAcceleration true
config *.node[*].scenario.nLanes 1
config **.numericController 1
config **.headway 0.1s
config *.node[*].scenario.accHeadway 0.1s
config *.node[*].scenario.leaderHeadway 1.2s
config *.node[*].scenario.leaderSpeed 110kmph
config *.node[*].appl_type "\"SimplePlatooningApp\""
config *.node[*].appl.*.scalar-recording true
config *.node[*].appl.*.vector-recording true
config *.node[0].appl.breakRanksSafetyDistance 5m
config *.node[*].appl.minSpeed 100kmph
config *.node[*].appl.maxSpeed 120kmph
config *.node[*].protocol_type "\"SimplePlatooningBeaconing\""
config *.node[*].prot.*.scalar-recording true
config *.node[*].prot.*.vector-recording true
config *.node[*].prot.beaconingInterval 0.1s
config *.node[*].prot.priority 4
config *.node[*].prot.packetSize 200
config **.traffic_type "\"PlatoonsTrafficManager\""
config **.traffic.platoonInsertTime "1 s"
config **.traffic.platoonInsertSpeed 110kmph
config **.traffic.nCars 8
config **.traffic.platoonSize 8
config **.traffic.nLanes 1
config **.traffic.platooningVType "\"vtypeauto\""
config **.traffic.controller "\"CACC\""
config **.traffic.platoonInsertDistance 2m
config **.traffic.platoonInsertHeadway 0s
config **.traffic.platoonLeaderHeadway 1.2s
config **.scalar-recording false
config **.vector-recording false

vector 0 Highway.node[0].appl distance ETV
vector 1 Highway.node[0].appl relativeSpeed ETV
vector 2 Highway.node[0].appl nodeId ETV
vector 3 Highway.node[0].appl acceleration ETV
vector 4 Highway.node[0].appl controllerAcceleration ETV
vector 5 Highway.node[0].appl speed ETV
vector 6 Highway.node[0].appl posx ETV
vector 7 Highway.node[0].appl posy ETV
vector 8 Highway.node[1].appl distance ETV
vector 9 Highway.node[1].appl relativeSpeed ETV
vector 10 Highway.node[1].appl nodeId ETV
vector 11 Highway.node[1].appl acceleration ETV
vector 12 Highway.node[1].appl controllerAcceleration ETV
vector 13 Highway.node[1].appl speed ETV
vector 14 Highway.node[1].appl posx ETV
vector 15 Highway.node[1].appl posy ETV
vector 16 Highway.node[2].appl distance ETV
vector 17 Highway.node[2].appl relativeSpeed ETV
vector 18 Highway.node[2].appl nodeId ETV
vector 19 Highway.node[2].appl acceleration ETV
vector 20 Highway.node[2].appl controllerAcceleration ETV
vector 21 Highway.node[2].appl speed ETV
vector 22 Highway.node[2].appl posx ETV
vector 23 Highway.node[2].appl posy ETV
vector 24 Highway.node[3].appl distance ETV
vector 25 Highway.node[3].appl relativeSpeed ETV
vector 26 Highway.node[3].appl nodeId ETV
vector 27 Highway.node[3].appl acceleration ETV
vector 28 Highway.node[3].appl controllerAcceleration ETV
vector 29 Highway.node[3].appl speed ETV
vector 30 Highway.node[3].appl posx ETV
vector 31 Highway.node[3].appl posy ETV
vector 32 Highway.node[4].appl distance ETV
vector 33 Highway.node[4].appl relativeSpeed ETV
vector 34 Highway.node[4].appl nodeId ETV
vector 35 Highway.node[4].appl acceleration ETV
vector 36 Highway.node[4].appl controllerAcceleration ETV
vector 37 Highway.node[4].appl speed ETV
vector 38 Highway.node[4].appl posx ETV
vector 39 Highway.node[4].appl posy ETV
vector 40 Highway.node[5].appl distance ETV
vector 41 Highway.node[5].appl relativeSpeed ETV
vector 42 Highway.node[5].appl nodeId ETV
vector 43 Highway.node[5].appl acceleration ETV
vector 44 Highway.node[5].appl controllerAcceleration ETV
vector 45 Highway.node[5].appl speed ETV
vector 46 Highway.node[5].appl posx ETV
vector 47 Highway.node[5].appl posy ETV
vector 48 Highway.node[6].appl distance ETV
vector 49 Highway.node[6].appl relativeSpeed ETV
vector 50 Highway.node[6].appl nodeId ETV
vector 51 Highway.node[6].appl acceleration ETV
vector 52 Highway.node[6].appl controllerAcceleration ETV
vector 53 Highway.node[6].appl speed ETV
vector 54 Highway.node[6].appl posx ETV
vector 55 Highway.node[6].appl posy ETV
vector 56 Highway.node[7].appl distance ETV
vector 57 Highway.node[7].appl relativeSpeed ETV
vector 58 Highway.node[7].appl nodeId ETV
vector 59 Highway.node[7].appl acceleration ETV
vector 60 Highway.node[7].appl controllerAcceleration ETV
vector 61 Highway.node[7].appl speed ETV
vector 62 Highway.node[7].appl posx ETV
vector 63 Highway.node[7].appl posy ETV
vector 64 Highway.node[4].prot frontDelay ETV
vector 65 Highway.node[4].prot frontDelayId ETV
vector 66 Highway.node[2].prot frontDelay ETV
vector 67 Highway.node[2].prot frontDelayId ETV
vector 68 Highway.node[3].prot frontDelay ETV
vector 69 Highway.node[3].prot frontDelayId ETV
vector 70 Highway.node[5].prot frontDelay ETV
vector 71 Highway.node[5].prot frontDelayId ETV
vector 72 Highway.node[7].prot frontDelay ETV
vector 73 Highway.node[7].prot frontDelayId ETV
vector 74 Highway.node[1].prot leaderDelay ETV
vector 75 Highway.node[1].prot leaderDelayId ETV
vector 76 Highway.node[1].prot frontDelay ETV
vector 77 Highway.node[1].prot frontDelayId ETV
vector 78 Highway.node[2].prot leaderDelay ETV
vector 79 Highway.node[2].prot leaderDelayId ETV
vector 80 Highway.node[3].prot leaderDelay ETV
vector 81 Highway.node[3].prot leaderDelayId ETV
vector 82 Highway.node[4].prot leaderDelay ETV
vector 83 Highway.node[4].prot leaderDelayId ETV
vector 84 Highway.node[5].prot leaderDelay ETV
vector 85 Highway.node[5].prot leaderDelayId ETV
vector 86 Highway.node[6].prot leaderDelay ETV
vector 87 Highway.node[6].prot leaderDelayId ETV
vector 88 Highway.node[7].prot leaderDelay ETV
vector 89 Highway.node[7].prot leaderDelayId ETV
vector 90 Highway.node[6].prot frontDelay ETV
vector 91 Highway.node[6].prot frontDelayId ETV
vector 92 Highway.node[0].prot nodeId ETV
vector 93 Highway.node[0].prot busyTime ETV
vector 94 Highway.node[0].prot collisions ETV
vector 95 Highway.node[1].prot nodeId ETV
vector 96 Highway.node[1].prot busyTime ETV
vector 97 Highway.node[1].prot collisions ETV
vector 98 Highway.node[2].prot nodeId ETV
vector 99 Highway.node[2].prot busyTime ETV
vector 100 Highway.node[2].prot collisions ETV
vector 101 Highway.node[3].prot nodeId ETV
vector 102 Highway.node[3].prot busyTime ETV
vector 103 Highway.node[3].prot collisions ETV
vector 104 Highway.node[4].prot nodeId ETV
vector 105 Highway.node[4].prot busyTime ETV
vector 106 Highway.node[4].prot collisions ETV
vector 107 Highway.node[5].prot nodeId ETV
vector 108 Highway.node[5].prot busyTime ETV
vector 109 Highway.node[5].prot collisions ETV
vector 110 Highway.node[6].prot nodeId ETV
vector 111 Highway.node[6].prot busyTime ETV
vector 112 Highway.node[6].prot collisions ETV
vector 113 Highway.node[7].prot nodeId ETV
vector 114 Highway.node[7].prot busyTime ETV
vector 115 Highway.node[7].prot collisions ETV
0	11185 17510 113 544537 1.11 99.91 989 -1 -1 -989 989
1	28695 16521 113 544537 1.11 99.91 989 0 0 0 0
2	45216 16521 113 544537 1.11 99.91 989 0 0 0 0
3	61737 19109 113 544537 1.11 99.91 989 -0.00283113 0.000125957 -0.043966303784312 9.6812896349407e-05
4	80846 26489 113 544537 1.11 99.91 989 -0.00437036 0.00019576 -0.042459310034081 0.00013890441444735
5	107335 22451 113 544537 1.11 99.91 989 30.5554 30.56 30219.5304 923377.16656332
6	129786 22349 113 544537 1.11 99.91 989 65.6804 3084.58 1557804.5716 3206389031.5438
7	152135 21466 113 544537 1.11 99.91 989 242.45 242.45 239783.05 58135400.472499
8	173601 20542 114 544538 1.11 99.91 989 -1 4.99843 2162.65973 11559.599756187
9	194143 21833 114 544538 1.11 99.91 989 -0.0004354 0.238904 29.98442766063 4.7408647081432
10	215976 17510 114 544538 1.11 99.91 989 1 1 989 989
11	233486 26930 114 544538 1.11 99.91 989 -0.0908388 0.286834 4.4228924898143 1.186433611357
12	260416 26900 114 544538 1.11 99.91 989 -0.119592 0.446214 4.5786545764957 1.7690618444889
13	287316 21947 114 544538 1.11 99.91 989 30.3167 31.0199 30349.003 931364.51227062
14	309263 22971 114 544538 1.11 99.91 989 59.6804 3091.5 1552332.2946 3194410352.465
15	332234 22455 114 544538 1.11 99.91 989 242.45 245.75 241000.75 58729881.6125
16	354689 23325 115 544539 1.11 99.91 989 1.99977 71.5345 18253.58814 790134.26126884
17	378014 24739 115 544539 1.11 99.91 989 -8.70308e-05 2.11349 606.13765095389 922.65458422944
18	402753 17510 115 544539 1.11 99.91 989 2 2 1978 3956
19	420263 26687 115 544539 1.11 99.91 989 -1.33594 0.233868 -15.557981126363 22.924400673088
20	446950 26698 115 544539 1.11 99.91 989 -2.03798 0.263789 -14.546572751573 32.168238000977
21	473648 22136 115 544539 1.11 99.91 989 28.4421 30.56 29583.4085 885438.64134731
22	495784 23355 115 544539 1.11 99.91 989 53.6804 3009.04 1530582.5222 3094746154.9226
23	519139 22455 115 544539 1.11 99.91 989 242.45 242.45 239783.05 58135400.472499
24	541594 23304 116 544540 1.11 99.91 989 1.99976 35.4267 12076.36368 293488.11071964
25	564898 25115 116 544540 1.11 99.91 989 -0.464789 2.75086 363.84263896779 508.75261455562
26	590013 17510 116 544540 1.11 99.91 989 3 3 2967 8901
27	607523 25759 116 544540 1.11 99.91 989 -2.15992 0.482581 -18.591096037781 89.88153918908
28	633282 25809 116 544540 1.11 99.91 989 -2.79843 0.520114 -17.80117779418 111.77525319427
29	659091 23349 116 544540 1.11 99.91 989 25.8498 30.56 29265.5676 867466.82055628
30	682440 23348 116 544540 1.11 99.91 989 47.6804 2971.27 1514393.1444 3026783791.1652
31	705788 22455 116 544540 1.11 99.91 989 242.45 245.75 239934.85 58209509.232499
32	728243 23242 117 544541 1.11 99.91 989 -1 73.4444 12122.50458 347394.40742676
33	751485 25002 117 544541 1.11 99.91 989 -1.00735 2.70695 285.14874613547 502.59784770817
34	776487 17510 117 544541 1.11 99.91 989 4 4 3956 15824
35	793997 25630 117 544541 1.11 99.91 989 -2.42602 0.886169 -6.2560227474799 163.04984836466
36	819627 25642 117 544541 1.11 99.91 989 -2.80223 1.42376 -4.231807401058 190.38711419422
37	845269 23347 117 544541 1.11 99.91 989 23.5301 30.56 28983.2661 852466.95399215
38	868616 23333 117 544541 1.11 99.91 989 41.6804 2936.98 1498723.4944 2961874757.8452
39	891949 22455 117 544541 1.11 99.91 989 242.45 252.35 240291.25 58385703.4925
40	914404 21407 118 544542 1.11 99.91 989 -1 4.96157 1866.09768 9278.4518240288
41	935811 22596 118 544542 1.11 99.91 989 -4.08834e-05 0.125816 29.618004130912 2.6003618224925
42	958407 17510 118 544542 1.11 99.91 989 5 5 4945 24725
43	975917 25958 118 544542 1.11 99.91 989 -0.994127 0.0442823 -15.5622918116 13.187730963849
44	1001875 26529 118 544542 1.11 99.91 989 -1.5 0.0687503 -14.741035556611 18.072571247857
45	1028404 22032 118 544542 1.11 99.91 989 28.9312 30.56 29510.8172 881009.34621752
46	1050436 23366 118 544542 1.11 99.91 989 35.6804 2983.78 1506849.7946 3018114015.6858
47	1073802 22455 118 544542 1.11 99.91 989 242.45 249.05 242218.45 59332399.572502
48	1096257 23295 119 544543 1.11 99.91 989 1.99892 76.8019 23716.27507 1309143.3172565
49	1119552 23536 119 544543 1.11 99.91 989 -0.00139455 1.04389 389.26902267693 359.7565676391
50	1143088 17510 119 544543 1.11 99.91 989 6 6 5934 35604
51	1160598 26627 119 544543 1.11 99.91 989 -0.351334 0.0397807 -5.551626703291 2.8674833811091
52	1187225 26571 119 544543 1.11 99.91 989 -0.526576 0.0398624 -4.7734410862295 3.3117299401028
53	1213796 21938 119 544543 1.11 99.91 989 29.7164 30.56 29840.4846 900427.47526512
54	1235734 23036 119 544543 1.11 99.91 989 29.6804 3010.7 1505356.4228 3026291482.9961
55	1258770 22455 119 544543 1.11 99.91 989 242.45 245.75 241000.75 58729881.6125
56	1281225 22999 120 544544 1.11 99.91 989 1.99876 115.619 23515.74257 1527816.1121699
57	1304224 23950 120 544544 1.11 99.91 989 -1.31094 4.72915 907.20918675912 2645.1775370653
58	1328174 17510 120 544544 1.11 99.91 989 7 7 6923 48461
59	1345684 26175 120 544544 1.11 99.91 989 -2.14955 1.39656 -35.534554498614 144.36217408707
60	1371859 26244 120 544544 1.11 99.91 989 -2.23502 1.5 -34.93126426563 180.23819057064
61	1398103 22268 120 544544 1.11 99.91 989 24.23 30.56 28686.2148 834831.9950631
62	1420371 23368 120 544544 1.11 99.91 989 23.6804 2889.42 1476629.7788 2892212805.1118
63	1443739 22455 120 544544 1.11 99.91 989 242.45 249.05 240773.05 58619807.4725
64	1466194 39996 768 544646 1.218681580402 99.918686372206 988 0.099987480317 0.100009012927 98.800005272137 9.8800010661495
65	1506190 27263 768 544646 1.218681580402 99.918686372206 988 4 4 3952 15808
66	1533453 40008 835 544719 1.22410962043 99.924101932288 988 0.099987480318 0.100009075225 98.799992792191 9.879998570199
67	1573461 27274 835 544719 1.22410962043 99.924101932288 988 2 2 1976 3952
68	1600735 40001 902 544786 1.233905640444 99.933898058303 988 0.099987480317 0.100008963547 98.799992898192 9.8799985910652
69	1640736 27272 902 544786 1.233905640444 99.933898058303 988 3 3 2964 8892
70	1668008 40004 968 544846 1.236616680472 99.93660933123 988 0.099987480317 0.10000896359 98.799993131091 9.8799986376426
71	1708012 27260 968 544846 1.236616680472 99.93660933123 988 5 5 4940 24700
72	1735272 40016 1036 544944 1.2505597205 99.950552826897 988 0.099987480318 0.100008986901 98.79999358673 9.8799987286818
73	1775288 27278 1036 544944 1.2505597205 99.950552826897 988 7 7 6916 48412
74	1802566 40006 1097 544975 1.260290840583 99.96028369413 988 0.099987480317 0.100008963718 98.79999333388 9.879998678203
75	1842572 27262 1097 544975 1.260290840583 99.96028369413 988 1 1 988 988
76	1869834 40006 1097 544975 1.260290840583 99.96028369413 988 0.099987480317 0.100008963718 98.79999333388 9.879998678203
77	1909840 27262 1097 544975 1.260290840583 99.96028369413 988 1 1 988 988
78	1937102 40007 1103 544987 1.260290860597 99.96028392069 988 0.099987480317 0.100008963727 98.799993540426 9.8799987195122
79	1977109 27272 1103 544987 1.260290860597 99.96028392069 988 2 2 1976 3952
80	2004381 40005 1109 544999 1.26029088061 99.960284046725 988 0.099987480317 0.10000896374 98.799993646447 9.8799987407164
81	2044386 27257 1109 544999 1.26029088061 99.960284046725 988 3 3 2964 8892
82	2071643 40011 1115 545005 1.260290900624 99.96028416201 988 0.099987480317 0.100008963759 98.799993741719 9.8799987597708
83	2111654 27268 1115 545005 1.260290900624 99.96028416201 988 4 4 3952 15808
84	2138922 39980 1121 544993 1.260290920638 99.960284005665 988 0.099987480317 0.100008963781 98.79999356536 9.879998724499
85	2178902 27268 1121 544993 1.260290920638 99.960284005665 988 5 5 4940 24700
86	2206170 40005 1127 544981 1.260290940652 99.96028391524 988 0.099987480317 0.100008963808 98.799993454921 9.8799987024112
87	2246175 27276 1127 544981 1.260290940652 99.96028391524 988 6 6 5928 35568
88	2273451 40014 1133 545011 1.260290960666 99.960284320031 988 0.099987480317 0.100008963837 98.799993839698 9.8799987793666
89	2313465 27276 1133 545011 1.260290960666 99.960284320031 988 7 7 6916 48412
90	2340741 40003 1170 545054 1.271698940652 99.971705096353 988 0.099987480317 0.100003680447 98.800006636034 9.8800013382725
91	2380744 27270 1170 545054 1.271698940652 99.971705096353 988 6 6 5928 35568
92	2408014 1459 5026 545082 2 100 99 0 0 0 0
93	2409473 2068 5026 545082 2 100 99 0.022473 0.026130677688 2.471606677688 0.061713157382434
94	2411541 1459 5026 545082 2 100 99 0 0 0 0
95	2413000 1459 5027 545083 2 100 99 1 1 99 99
96	2414459 2068 5027 545083 2 100 99 0.022473 0.025898 2.471214059378 0.06169302328456
97	2416527 1459 5027 545083 2 100 99 0 0 0 0
98	2417986 1459 5028 545084 2 100 99 2 2 198 396
99	2419445 2067 5028 545084 2 100 99 0.022473 0.025898 2.47121411912 0.061693026285412
100	2421512 1558 5028 545084 2 100 99 0 0 0 0
101	2423070 1558 5029 545085 2 100 99 3 3 297 891
102	2424628 2167 5029 545085 2 100 99 0.022473 0.025898 2.471214178974 0.061693029291896
103	2426795 1558 5029 545085 2 100 99 0 0 0 0
104	2428353 1558 5030 545086 2 100 99 4 4 396 1584
105	2429911 2167 5030 545086 2 100 99 0.022473 0.025898 2.471214238868 0.061693032300397
106	2432078 1558 5030 545086 2 100 99 0 0 0 0
107	2433636 1558 5031 545087 2 100 99 5 5 495 2475
108	2435194 2167 5031 545087 2 100 99 0.022473 0.025898 2.471214298802 0.061693035310914
109	2437361 1558 5031 545087 2 100 99 0 0 0 0
110	2438919 1558 5032 545088 2 100 99 6 6 594 3564
111	2440477 2166 5032 545088 2 100 99 0.022473 0.025898 2.47121435874 0.061693038321639
112	2442643 1558 5032 545088 2 100 99 0 0 0 0
113	2444201 1558 5033 545089 2 100 99 7 7 693 4851
114	2445759 2167 5033 545089 2 100 99 0.022473 0.025931418692 2.471214418692 0.06169309587238
115	2447926 1558 5033 545089 2 100 99 0 0 0 0

