file 2444534 1720582807                                         
version 3
run BreakRanksNoGui-24-20240710-05:39:57-232792
attr configname BreakRanksNoGui
attr datetime 20240710-05:39:57
attr datetimef 20240710-053957
attr experiment BreakRanksNoGui
attr inifile omnetpp.ini
attr iterationvars "$nCars=8, $platoonSize=8, $nLanes=1, $ploegH=0.5, $controller=1, $headway=0.1, $leaderHeadway=1.2, $leaderSpeed=110, $breakRanksSafetyDistance=5, $minSpeed=100, $maxSpeed=120, $beaconInterval=0.1, $priority=4, $packetSize=200, $sController=\"CACC\", $0=2, $1=0"
attr iterationvarsd nCars=8/platoonSize=8/nLanes=1/ploegH=0.5/controller=1/headway=0.1/leaderHeadway=1.2/leaderSpeed=110/breakRanksSafetyDistance=5/minSpeed=100/maxSpeed=120/beaconInterval=0.1/priority=4/packetSize=200/sController=CACC/2/0
attr iterationvarsf nCars=8,platoonSize=8,nLanes=1,ploegH=0.5,controller=1,headway=0.1,leaderHeadway=1.2,leaderSpeed=110,breakRanksSafetyDistance=5,minSpeed=100,maxSpeed=120,beaconInterval=0.1,priority=4,packetSize=200,sController=CACC,2,0-
attr measurement "$nCars=8, $platoonSize=8, $nLanes=1, $ploegH=0.5, $controller=1, $headway=0.1, $leaderHeadway=1.2, $leaderSpeed=110, $breakRanksSafetyDistance=5, $minSpeed=100, $maxSpeed=120, $beaconInterval=0.1, $priority=4, $packetSize=200, $sController=\"CACC\", $0=2, $1=0"
attr network Highway
attr processid 232792
attr repetition 4
attr replication #4
attr resultdir results
attr runnumber 24
attr seedset 4
itervar beaconInterval 0.1
itervar breakRanksSafetyDistance 5
itervar controller 1
itervar headway 0.1
itervar leaderHeadway 1.2
itervar leaderSpeed 110
itervar maxSpeed 120
itervar minSpeed 100
itervar nCars 8
itervar nLanes 1
itervar packetSize 200
itervar platoonSize 8
itervar ploegH 0.5
itervar priority 4
itervar sController "\"CACC\""
config image-path ../../../veins/images
config repeat 10
config extends BreakRanks
config *.manager.command "\"sumo\""
config *.manager.ignoreGuiCommands true
config output-vector-file results/BreakRanks_1_0.1_110_5/result_4.vec
config output-scalar-file results/BreakRanks_1_0.1_110_5/result_4.sca
config extends Platooning
config *.node[*].scenario_type "\"BreakRanksScenario\""
config *.manager.command "\"sumo-gui\""
config *.node[*].scenario_type "\"SimpleScenario\""
config cmdenv-express-mode true
config cmdenv-autoflush true
config cmdenv-status-frequency 15s
config num-rngs 6
config network Highway
config debug-on-errors true
config print-undisposed true
config *.playgroundSizeX 65000m
config *.playgroundSizeY 25000m
config *.playgroundSizeZ 50m
config sim-time-limit "100 s"
config *.annotations.draw false
config *.obstacles.debug false
config *.world.useTorus false
config *.world.use2D false
config *.manager.updateInterval 0.01s
config *.manager.host "\"localhost\""
config *.manager.moduleType "\"org.car2x.plexe.PlatoonCar\""
config *.manager.moduleName "\"node\""
config *.manager.moduleDisplayString "\"\""
config *.manager.autoShutdown true
config *.manager.margin 25
config *.connectionManager.sendDirect true
config *.connectionManager.maxInterfDist 2600m
config *.connectionManager.drawMaxIntfDist false
config *.**.nic.mac1609_4.useServiceChannel false
config *.**.nic.mac1609_4.txPower 100mW
config *.**.nic.mac1609_4.bitrate 6Mbps
config *.**.nic.mac1609_4.useAcks true
config *.**.nic.mac1609_4.ackErrorRate 0.0
config *.**.nic.mac1609_4.frameErrorRate 0.0
config *.**.nic.phy80211p.minPowerLevel -94dBm
config *.**.nic.phy80211p.maxTXPower 100mW
config *.**.nic.phy80211p.useNoiseFloor true
config *.**.nic.phy80211p.noiseFloor -95dBm
config *.**.nic.phy80211p.decider "xmldoc(\"config.xml\")"
config *.**.nic.phy80211p.analogueModels "xmldoc(\"config.xml\")"
config *.**.nic.phy80211p.usePropagationDelay true
config *.node[*].mobility.x 0
config *.node[*].mobility.y 0
config *.node[*].mobility.z 1.895
config seed-set 4
config **.seed 4
config *.node[*].prot.rng-0 2
config *.node[*].appl.rng-0 3
config *.node[*].scenario.rng-0 4
config **.traffic.rng-0 5
config *.manager.configFile "\"./sumocfg/freeway.sumo.cfg\""
config *.manager.launchConfig "xmldoc(\"./sumocfg/freeway.launchd.xml\")"
config **.numberOfCars 8
config **.numberOfCarsPerPlatoon 8
config **.numberOfLanes 1
config *.node[*].helper_type "\"PositionHelper\""
config *.node[*].scenario.caccC1 0.5
config *.node[*].scenario.caccXi 1
config *.node[*].scenario.caccOmegaN "0.2 Hz"
config *.node[*].scenario.caccSpacing "2 m"
config *.node[*].scenario.engineTau "0.5 s"
config *.node[*].scenario.ploegH 0.5s
config *.node[*].scenario.ploegKp 0.2
config *.node[*].scenario.ploegKd 0.7
config *.node[*].scenario.useRealisticEngine false
config *.node[*].scenario.useControllerAcceleration true
config *.node[*].scenario.nLanes 1
config **.numericController 1
config **.headway 0.1s
config *.node[*].scenario.accHeadway 0.1s
config *.node[*].scenario.leaderHeadway 1.2s
config *.node[*].scenario.leaderSpeed 110kmph
config *.node[*].appl_type "\"SimplePlatooningApp\""
config *.node[*].appl.*.scalar-recording true
config *.node[*].appl.*.vector-recording true
config *.node[0].appl.breakRanksSafetyDistance 5m
config *.node[*].appl.minSpeed 100kmph
config *.node[*].appl.maxSpeed 120kmph
config *.node[*].protocol_type "\"SimplePlatooningBeaconing\""
config *.node[*].prot.*.scalar-recording true
config *.node[*].prot.*.vector-recording true
config *.node[*].prot.beaconingInterval 0.1s
config *.node[*].prot.priority 4
config *.node[*].prot.packetSize 200
config **.traffic_type "\"PlatoonsTrafficManager\""
config **.traffic.platoonInsertTime "1 s"
config **.traffic.platoonInsertSpeed 110kmph
config **.traffic.nCars 8
config **.traffic.platoonSize 8
config **.traffic.nLanes 1
config **.traffic.platooningVType "\"vtypeauto\""
config **.traffic.controller "\"CACC\""
config **.traffic.platoonInsertDistance 2m
config **.traffic.platoonInsertHeadway 0s
config **.traffic.platoonLeaderHeadway 1.2s
config **.scalar-recording false
config **.vector-recording false

vector 0 Highway.node[0].appl distance ETV
vector 1 Highway.node[0].appl relativeSpeed ETV
vector 2 Highway.node[0].appl nodeId ETV
vector 3 Highway.node[0].appl acceleration ETV
vector 4 Highway.node[0].appl controllerAcceleration ETV
vector 5 Highway.node[0].appl speed ETV
vector 6 Highway.node[0].appl posx ETV
vector 7 Highway.node[0].appl posy ETV
vector 8 Highway.node[1].appl distance ETV
vector 9 Highway.node[1].appl relativeSpeed ETV
vector 10 Highway.node[1].appl nodeId ETV
vector 11 Highway.node[1].appl acceleration ETV
vector 12 Highway.node[1].appl controllerAcceleration ETV
vector 13 Highway.node[1].appl speed ETV
vector 14 Highway.node[1].appl posx ETV
vector 15 Highway.node[1].appl posy ETV
vector 16 Highway.node[2].appl distance ETV
vector 17 Highway.node[2].appl relativeSpeed ETV
vector 18 Highway.node[2].appl nodeId ETV
vector 19 Highway.node[2].appl acceleration ETV
vector 20 Highway.node[2].appl controllerAcceleration ETV
vector 21 Highway.node[2].appl speed ETV
vector 22 Highway.node[2].appl posx ETV
vector 23 Highway.node[2].appl posy ETV
vector 24 Highway.node[3].appl distance ETV
vector 25 Highway.node[3].appl relativeSpeed ETV
vector 26 Highway.node[3].appl nodeId ETV
vector 27 Highway.node[3].appl acceleration ETV
vector 28 Highway.node[3].appl controllerAcceleration ETV
vector 29 Highway.node[3].appl speed ETV
vector 30 Highway.node[3].appl posx ETV
vector 31 Highway.node[3].appl posy ETV
vector 32 Highway.node[4].appl distance ETV
vector 33 Highway.node[4].appl relativeSpeed ETV
vector 34 Highway.node[4].appl nodeId ETV
vector 35 Highway.node[4].appl acceleration ETV
vector 36 Highway.node[4].appl controllerAcceleration ETV
vector 37 Highway.node[4].appl speed ETV
vector 38 Highway.node[4].appl posx ETV
vector 39 Highway.node[4].appl posy ETV
vector 40 Highway.node[5].appl distance ETV
vector 41 Highway.node[5].appl relativeSpeed ETV
vector 42 Highway.node[5].appl nodeId ETV
vector 43 Highway.node[5].appl acceleration ETV
vector 44 Highway.node[5].appl controllerAcceleration ETV
vector 45 Highway.node[5].appl speed ETV
vector 46 Highway.node[5].appl posx ETV
vector 47 Highway.node[5].appl posy ETV
vector 48 Highway.node[6].appl distance ETV
vector 49 Highway.node[6].appl relativeSpeed ETV
vector 50 Highway.node[6].appl nodeId ETV
vector 51 Highway.node[6].appl acceleration ETV
vector 52 Highway.node[6].appl controllerAcceleration ETV
vector 53 Highway.node[6].appl speed ETV
vector 54 Highway.node[6].appl posx ETV
vector 55 Highway.node[6].appl posy ETV
vector 56 Highway.node[7].appl distance ETV
vector 57 Highway.node[7].appl relativeSpeed ETV
vector 58 Highway.node[7].appl nodeId ETV
vector 59 Highway.node[7].appl acceleration ETV
vector 60 Highway.node[7].appl controllerAcceleration ETV
vector 61 Highway.node[7].appl speed ETV
vector 62 Highway.node[7].appl posx ETV
vector 63 Highway.node[7].appl posy ETV
vector 64 Highway.node[4].prot frontDelay ETV
vector 65 Highway.node[4].prot frontDelayId ETV
vector 66 Highway.node[1].prot leaderDelay ETV
vector 67 Highway.node[1].prot leaderDelayId ETV
vector 68 Highway.node[1].prot frontDelay ETV
vector 69 Highway.node[1].prot frontDelayId ETV
vector 70 Highway.node[2].prot leaderDelay ETV
vector 71 Highway.node[2].prot leaderDelayId ETV
vector 72 Highway.node[3].prot leaderDelay ETV
vector 73 Highway.node[3].prot leaderDelayId ETV
vector 74 Highway.node[4].prot leaderDelay ETV
vector 75 Highway.node[4].prot leaderDelayId ETV
vector 76 Highway.node[5].prot leaderDelay ETV
vector 77 Highway.node[5].prot leaderDelayId ETV
vector 78 Highway.node[6].prot leaderDelay ETV
vector 79 Highway.node[6].prot leaderDelayId ETV
vector 80 Highway.node[7].prot leaderDelay ETV
vector 81 Highway.node[7].prot leaderDelayId ETV
vector 82 Highway.node[3].prot frontDelay ETV
vector 83 Highway.node[3].prot frontDelayId ETV
vector 84 Highway.node[6].prot frontDelay ETV
vector 85 Highway.node[6].prot frontDelayId ETV
vector 86 Highway.node[2].prot frontDelay ETV
vector 87 Highway.node[2].prot frontDelayId ETV
vector 88 Highway.node[5].prot frontDelay ETV
vector 89 Highway.node[5].prot frontDelayId ETV
vector 90 Highway.node[7].prot frontDelay ETV
vector 91 Highway.node[7].prot frontDelayId ETV
vector 92 Highway.node[0].prot nodeId ETV
vector 93 Highway.node[0].prot busyTime ETV
vector 94 Highway.node[0].prot collisions ETV
vector 95 Highway.node[1].prot nodeId ETV
vector 96 Highway.node[1].prot busyTime ETV
vector 97 Highway.node[1].prot collisions ETV
vector 98 Highway.node[2].prot nodeId ETV
vector 99 Highway.node[2].prot busyTime ETV
vector 100 Highway.node[2].prot collisions ETV
vector 101 Highway.node[3].prot nodeId ETV
vector 102 Highway.node[3].prot busyTime ETV
vector 103 Highway.node[3].prot collisions ETV
vector 104 Highway.node[4].prot nodeId ETV
vector 105 Highway.node[4].prot busyTime ETV
vector 106 Highway.node[4].prot collisions ETV
vector 107 Highway.node[5].prot nodeId ETV
vector 108 Highway.node[5].prot busyTime ETV
vector 109 Highway.node[5].prot collisions ETV
vector 110 Highway.node[6].prot nodeId ETV
vector 111 Highway.node[6].prot busyTime ETV
vector 112 Highway.node[6].prot collisions ETV
vector 113 Highway.node[7].prot nodeId ETV
vector 114 Highway.node[7].prot busyTime ETV
vector 115 Highway.node[7].prot collisions ETV
0	11185 17510 113 544538 1.11 99.91 989 -1 -1 -989 989
1	28695 16521 113 544538 1.11 99.91 989 0 0 0 0
2	45216 16521 113 544538 1.11 99.91 989 0 0 0 0
3	61737 19109 113 544538 1.11 99.91 989 -0.00283113 0.000125957 -0.043966303784312 9.6812896349407e-05
4	80846 26489 113 544538 1.11 99.91 989 -0.00437036 0.00019576 -0.042459310034081 0.00013890441444735
5	107335 22451 113 544538 1.11 99.91 989 30.5554 30.56 30219.5304 923377.16656332
6	129786 22360 113 544538 1.11 99.91 989 66.0304 3084.93 1558150.7216 3207479615.8964
7	152146 21466 113 544538 1.11 99.91 989 242.45 242.45 239783.05 58135400.472499
8	173612 20538 114 544539 1.11 99.91 989 -1 4.99843 2162.67211 11559.659632543
9	194150 21831 114 544539 1.11 99.91 989 -0.000377192 0.238899 29.98443231154 4.7406516896929
10	215981 17510 114 544539 1.11 99.91 989 1 1 989 989
11	233491 27024 114 544539 1.11 99.91 989 -0.35727 0.0193047 -5.5694483603842 1.7363927123116
12	260515 26947 114 544539 1.11 99.91 989 -0.547049 0.0248057 -5.0711896322239 2.2820626284432
13	287462 21948 114 544539 1.11 99.91 989 29.9752 30.56 29989.5547 909438.16997051
14	309410 23358 114 544539 1.11 99.91 989 60.0304 3055.96 1546219.9473 3160491821.8183
15	332768 22455 114 544539 1.11 99.91 989 242.45 245.75 241000.75 58729881.6125
16	355223 23335 115 544540 1.11 99.91 989 1.99964 44.647 14582.15356 434542.01114095
17	378558 25000 115 544540 1.11 99.91 989 -0.00012811 2.11349 336.76282772895 337.34265404011
18	403558 17510 115 544540 1.11 99.91 989 2 2 1978 3956
19	421068 26427 115 544540 1.11 99.91 989 -1.33594 0.233868 -5.5579404007861 24.051757762834
20	447495 26434 115 544540 1.11 99.91 989 -2.03798 0.263789 -4.5468347218331 33.247778685974
21	473929 22601 115 544540 1.11 99.91 989 28.4421 30.56 29852.783 901315.1276725
22	496530 23332 115 544540 1.11 99.91 989 54.0304 3036.28 1534600.9271 3116036083.8651
23	519862 22455 115 544540 1.11 99.91 989 242.45 242.45 239783.05 58135400.472499
24	542317 23343 116 544541 1.11 99.91 989 1.99962 75.9818 16986.83334 748889.36477457
25	565660 24109 116 544541 1.11 99.91 989 -9.98491e-05 2.75086 740.81832624729 1432.0736680913
26	589769 17510 116 544541 1.11 99.91 989 3 3 2967 8901
27	607279 26051 116 544541 1.11 99.91 989 -2.15992 0.485038 -25.552219864375 86.921823973434
28	633330 26469 116 544541 1.11 99.91 989 -2.79842 0.520123 -24.284685501144 106.91155527714
29	659799 22324 116 544541 1.11 99.91 989 25.8498 30.56 29111.9652 858707.49574202
30	682123 23096 116 544541 1.11 99.91 989 48.0304 2956.3 1513658.321 3021666040.8719
31	705219 22455 116 544541 1.11 99.91 989 242.45 242.45 239783.05 58135400.472499
32	727674 23254 117 544542 1.11 99.91 989 1.99994 49.1764 13074.0243 386156.01265994
33	750928 24050 117 544542 1.11 99.91 989 -4.12144e-05 2.70764 472.26370378114 649.76086446301
34	774978 17510 117 544542 1.11 99.91 989 4 4 3956 15824
35	792488 26307 117 544542 1.11 99.91 989 -2.42602 0.693192 -35.552279075189 152.7595083535
36	818795 26303 117 544542 1.11 99.91 989 -2.80223 0.728688 -34.283985910138 174.55691559049
37	845098 22462 117 544542 1.11 99.91 989 23.5301 30.56 28639.6995 833161.58214329
38	867560 23359 117 544542 1.11 99.91 989 42.0304 2903.12 1496627.5345 2949338612.4484
39	890919 22455 117 544542 1.11 99.91 989 242.45 242.45 239783.05 58135400.472499
40	913374 21516 118 544543 1.11 99.91 989 -1 4.96151 1865.34672 9273.8230131472
41	934890 22602 118 544543 1.11 99.91 989 -0.000279029 0.125986 29.617380004228 2.6056759070857
42	957492 17510 118 544543 1.11 99.91 989 5 5 4945 24725
43	975002 25345 118 544543 1.11 99.91 989 -0.192732 0.294897 4.4347721738426 2.2999839229414
44	1000347 26527 118 544543 1.11 99.91 989 -0.230701 0.45829 4.7765511516317 3.0824520670722
45	1026874 21920 118 544543 1.11 99.91 989 29.7902 31.0204 30229.4689 924133.08380443
46	1048794 22993 118 544543 1.11 99.91 989 36.0304 3055.9 1520111.2868 3087925038.0225
47	1071787 22455 118 544543 1.11 99.91 989 242.45 249.05 242218.45 59332399.572502
48	1094242 23312 119 544544 1.11 99.91 989 1.99969 76.7788 23708.12942 1308166.1344718
49	1117554 23513 119 544544 1.11 99.91 989 -0.000309229 1.04375 389.04014019165 359.51063957901
50	1141067 17510 119 544544 1.11 99.91 989 6 6 5934 35604
51	1158577 25955 119 544544 1.11 99.91 989 -0.98982 0.0441214 -15.555699885583 13.231104169254
52	1184532 26488 119 544544 1.11 99.91 989 -1.5 0.0685185 -14.628252243013 17.903469583247
53	1211020 22046 119 544544 1.11 99.91 989 28.9314 30.56 29481.2655 879229.13751077
54	1233066 23368 119 544544 1.11 99.91 989 30.0304 2975.18 1499253.7809 2993268914.7196
55	1256434 22455 119 544544 1.11 99.91 989 242.45 245.75 241000.75 58729881.6125
56	1278889 21721 120 544545 1.11 99.91 989 -1 35.2399 3053.90655 40131.446689344
57	1300610 22989 120 544545 1.11 99.91 989 -1.32879 6.99274 103.38631260361 742.86995310005
58	1323599 17510 120 544545 1.11 99.91 989 7 7 6923 48461
59	1341109 26116 120 544545 1.11 99.91 989 -2.17184 1.49997 24.475573987892 242.39123363636
60	1367225 25878 120 544545 1.11 99.91 989 -2.26022 1.5 25.909690766757 277.39141889733
61	1393103 22496 120 544545 1.11 99.91 989 24.0195 33.1039 30377.199 936132.52630294
62	1415599 23357 120 544545 1.11 99.91 989 24.0304 3058.57 1500822.6593 3021698563.0467
63	1438956 22455 120 544545 1.11 99.91 989 242.45 252.35 243017.05 59735235.1925
64	1461411 39997 771 544650 1.240521540375 99.94051929455 988 0.099987440288 0.100008986823 98.799998194481 9.8799996483486
65	1501408 27280 771 544650 1.240521540375 99.94051929455 988 4 4 3952 15808
66	1528688 39999 831 544716 1.241802600416 99.941800643771 988 0.099987440286 0.100009012924 98.79999848366 9.8799997066959
67	1568687 27259 831 544716 1.241802600416 99.941800643771 988 1 1 988 988
68	1595946 39999 831 544716 1.241802600416 99.941800643771 988 0.099987440286 0.100009012924 98.79999848366 9.8799997066959
69	1635945 27259 831 544716 1.241802600416 99.941800643771 988 1 1 988 988
70	1663204 39993 837 544728 1.24180262043 99.941800708782 988 0.099987440286 0.100009012925 98.799998528657 9.8799997156953
71	1703197 27265 837 544728 1.24180262043 99.941800708782 988 2 2 1976 3952
72	1730462 39980 843 544740 1.241802640443 99.941800975839 988 0.099987440286 0.100009012927 98.7999987757 9.8799997651039
73	1770442 27265 843 544740 1.241802640443 99.941800975839 988 3 3 2964 8892
74	1797707 40000 849 544746 1.241802660457 99.94180115335 988 0.099987440286 0.100009012929 98.799998933198 9.8799997966035
75	1837707 27258 849 544746 1.241802660457 99.94180115335 988 4 4 3952 15808
76	1864965 39989 855 544722 1.241802680471 99.941800645681 988 0.099987440286 0.100009012933 98.799998405515 9.8799996910669
77	1904954 27277 855 544722 1.241802680471 99.941800645681 988 5 5 4940 24700
78	1932231 40013 861 544734 1.241802700485 99.941800912895 988 0.099987440286 0.100009012939 98.799998652715 9.8799997405069
79	1972244 27279 861 544734 1.241802700485 99.941800912895 988 6 6 5928 35568
80	1999523 39995 867 544710 1.241802720499 99.941800640044 988 0.099987440286 0.100009012946 98.79999835985 9.8799996819339
81	2039518 27270 867 544710 1.241802720499 99.941800640044 988 7 7 6916 48412
82	2066788 39973 905 544808 1.262739640444 99.962737975973 988 0.099987440287 0.100009012927 98.799998775834 9.8799997647064
83	2106761 27271 905 544808 1.262739640444 99.962737975973 988 3 3 2964 8892
84	2134032 39997 971 544868 1.266698700486 99.966697047895 988 0.099987440288 0.100009015854 98.799998787714 9.8799997669936
85	2174029 27263 971 544868 1.266698700486 99.966697047895 988 6 6 5928 35568
86	2201292 39989 1039 544924 1.281915780541 99.981913855576 988 0.099987440287 0.100009012943 98.79999851534 9.8799997126005
87	2241281 27248 1039 544924 1.281915780541 99.981913855576 988 2 2 1976 3952
88	2268529 39998 1105 545002 1.287382840583 99.987381810897 988 0.099987440287 0.100009015862 98.799999410619 9.8799998916691
89	2308527 27275 1105 545002 1.287382840583 99.987381810897 988 5 5 4940 24700
90	2335802 39996 1171 545074 1.289456880611 99.98945582099 988 0.099987440287 0.10000901587 98.799999380684 9.8799998855884
91	2375798 27265 1171 545074 1.289456880611 99.98945582099 988 7 7 6916 48412
92	2403063 1459 5026 545083 2 100 99 0 0 0 0
93	2404522 2068 5026 545083 2 100 99 0.022473 0.026130677682 2.471606677682 0.06171315738212
94	2406590 1459 5026 545083 2 100 99 0 0 0 0
95	2408049 1459 5027 545084 2 100 99 1 1 99 99
96	2409508 2068 5027 545084 2 100 99 0.022473 0.025898 2.471214059378 0.06169302328456
97	2411576 1459 5027 545084 2 100 99 0 0 0 0
98	2413035 1459 5028 545085 2 100 99 2 2 198 396
99	2414494 2068 5028 545085 2 100 99 0.022473 0.025898 2.471214119118 0.061693026285311
100	2416562 1558 5028 545085 2 100 99 0 0 0 0
101	2418120 1558 5029 545086 2 100 99 3 3 297 891
102	2419678 2166 5029 545086 2 100 99 0.022473 0.025898 2.47121417897 0.061693029291695
103	2421844 1558 5029 545086 2 100 99 0 0 0 0
104	2423402 1558 5030 545087 2 100 99 4 4 396 1584
105	2424960 2167 5030 545087 2 100 99 0.022473 0.025898 2.471214238882 0.0616930323011
106	2427127 1558 5030 545087 2 100 99 0 0 0 0
107	2428685 1558 5031 545088 2 100 99 5 5 495 2475
108	2430243 2167 5031 545088 2 100 99 0.022473 0.025898 2.471214298798 0.061693035310713
109	2432410 1558 5031 545088 2 100 99 0 0 0 0
110	2433968 1558 5032 545089 2 100 99 6 6 594 3564
111	2435526 2167 5032 545089 2 100 99 0.022473 0.025898 2.471214358736 0.061693038321438
112	2437693 1558 5032 545089 2 100 99 0 0 0 0
113	2439251 1558 5033 545090 2 100 99 7 7 693 4851
114	2440809 2166 5033 545090 2 100 99 0.022473 0.02593141869 2.47121441869 0.061693095872276
115	2442975 1558 5033 545090 2 100 99 0 0 0 0

