file 5337037 1720627437                                         
version 3
run BreakRanksNoGui-66-20240710-18:03:29-278081
attr configname BreakRanksNoGui
attr datetime 20240710-18:03:29
attr datetimef 20240710-180329
attr experiment BreakRanksNoGui
attr inifile omnetpp.ini
attr iterationvars "$nCars=16, $platoonSize=16, $nLanes=1, $ploegH=0.5, $controller=1, $headway=0.1, $leaderHeadway=1.2, $leaderSpeed=110, $breakRanksSafetyDistance=3, $minSpeed=100, $maxSpeed=120, $beaconInterval=0.1, $priority=4, $packetSize=200, $sController=\"CACC\", $0=2, $1=0"
attr iterationvarsd nCars=16/platoonSize=16/nLanes=1/ploegH=0.5/controller=1/headway=0.1/leaderHeadway=1.2/leaderSpeed=110/breakRanksSafetyDistance=3/minSpeed=100/maxSpeed=120/beaconInterval=0.1/priority=4/packetSize=200/sController=CACC/2/0
attr iterationvarsf nCars=16,platoonSize=16,nLanes=1,ploegH=0.5,controller=1,headway=0.1,leaderHeadway=1.2,leaderSpeed=110,breakRanksSafetyDistance=3,minSpeed=100,maxSpeed=120,beaconInterval=0.1,priority=4,packetSize=200,sController=CACC,2,0-
attr measurement "$nCars=16, $platoonSize=16, $nLanes=1, $ploegH=0.5, $controller=1, $headway=0.1, $leaderHeadway=1.2, $leaderSpeed=110, $breakRanksSafetyDistance=3, $minSpeed=100, $maxSpeed=120, $beaconInterval=0.1, $priority=4, $packetSize=200, $sController=\"CACC\", $0=2, $1=0"
attr network Highway
attr processid 278081
attr repetition 6
attr replication #6
attr resultdir results
attr runnumber 66
attr seedset 6
itervar beaconInterval 0.1
itervar breakRanksSafetyDistance 3
itervar controller 1
itervar headway 0.1
itervar leaderHeadway 1.2
itervar leaderSpeed 110
itervar maxSpeed 120
itervar minSpeed 100
itervar nCars 16
itervar nLanes 1
itervar packetSize 200
itervar platoonSize 16
itervar ploegH 0.5
itervar priority 4
itervar sController "\"CACC\""
config image-path ../../../veins/images
config repeat 10
config extends BreakRanks
config *.manager.command "\"sumo\""
config *.manager.ignoreGuiCommands true
config output-vector-file "results/BreakRanks_1_0.1_110_3_16 /result_6.vec"
config output-scalar-file "results/BreakRanks_1_0.1_110_3_16 /result_6.sca"
config extends Platooning
config *.node[*].scenario_type "\"BreakRanksScenario\""
config *.manager.command "\"sumo-gui\""
config *.node[*].scenario_type "\"SimpleScenario\""
config cmdenv-express-mode true
config cmdenv-autoflush true
config cmdenv-status-frequency 15s
config num-rngs 6
config network Highway
config debug-on-errors true
config print-undisposed true
config *.playgroundSizeX 65000m
config *.playgroundSizeY 25000m
config *.playgroundSizeZ 50m
config sim-time-limit "100 s"
config *.annotations.draw false
config *.obstacles.debug false
config *.world.useTorus false
config *.world.use2D false
config *.manager.updateInterval 0.01s
config *.manager.host "\"localhost\""
config *.manager.moduleType "\"org.car2x.plexe.PlatoonCar\""
config *.manager.moduleName "\"node\""
config *.manager.moduleDisplayString "\"\""
config *.manager.autoShutdown true
config *.manager.margin 25
config *.connectionManager.sendDirect true
config *.connectionManager.maxInterfDist 2600m
config *.connectionManager.drawMaxIntfDist false
config *.**.nic.mac1609_4.useServiceChannel false
config *.**.nic.mac1609_4.txPower 100mW
config *.**.nic.mac1609_4.bitrate 6Mbps
config *.**.nic.mac1609_4.useAcks true
config *.**.nic.mac1609_4.ackErrorRate 0.0
config *.**.nic.mac1609_4.frameErrorRate 0.0
config *.**.nic.phy80211p.minPowerLevel -94dBm
config *.**.nic.phy80211p.maxTXPower 100mW
config *.**.nic.phy80211p.useNoiseFloor true
config *.**.nic.phy80211p.noiseFloor -95dBm
config *.**.nic.phy80211p.decider "xmldoc(\"config.xml\")"
config *.**.nic.phy80211p.analogueModels "xmldoc(\"config.xml\")"
config *.**.nic.phy80211p.usePropagationDelay true
config *.node[*].mobility.x 0
config *.node[*].mobility.y 0
config *.node[*].mobility.z 1.895
config seed-set 6
config **.seed 6
config *.node[*].prot.rng-0 2
config *.node[*].appl.rng-0 3
config *.node[*].scenario.rng-0 4
config **.traffic.rng-0 5
config *.manager.configFile "\"./sumocfg/freeway.sumo.cfg\""
config *.manager.launchConfig "xmldoc(\"./sumocfg/freeway.launchd.xml\")"
config **.numberOfCars 16
config **.numberOfCarsPerPlatoon 16
config **.numberOfLanes 1
config *.node[*].helper_type "\"PositionHelper\""
config *.node[*].scenario.caccC1 0.5
config *.node[*].scenario.caccXi 1
config *.node[*].scenario.caccOmegaN "0.2 Hz"
config *.node[*].scenario.caccSpacing "2 m"
config *.node[*].scenario.engineTau "0.5 s"
config *.node[*].scenario.ploegH 0.5s
config *.node[*].scenario.ploegKp 0.2
config *.node[*].scenario.ploegKd 0.7
config *.node[*].scenario.useRealisticEngine false
config *.node[*].scenario.useControllerAcceleration true
config *.node[*].scenario.nLanes 1
config **.numericController 1
config **.headway 0.1s
config *.node[*].scenario.accHeadway 0.1s
config *.node[*].scenario.leaderHeadway 1.2s
config *.node[*].scenario.leaderSpeed 110kmph
config *.node[*].appl_type "\"SimplePlatooningApp\""
config *.node[*].appl.*.scalar-recording true
config *.node[*].appl.*.vector-recording true
config *.node[0].appl.breakRanksSafetyDistance 3m
config *.node[*].appl.minSpeed 100kmph
config *.node[*].appl.maxSpeed 120kmph
config *.node[*].protocol_type "\"SimplePlatooningBeaconing\""
config *.node[*].prot.*.scalar-recording true
config *.node[*].prot.*.vector-recording true
config *.node[*].prot.beaconingInterval 0.1s
config *.node[*].prot.priority 4
config *.node[*].prot.packetSize 200
config **.traffic_type "\"PlatoonsTrafficManager\""
config **.traffic.platoonInsertTime "1 s"
config **.traffic.platoonInsertSpeed 110kmph
config **.traffic.nCars 16
config **.traffic.platoonSize 16
config **.traffic.nLanes 1
config **.traffic.platooningVType "\"vtypeauto\""
config **.traffic.controller "\"CACC\""
config **.traffic.platoonInsertDistance 2m
config **.traffic.platoonInsertHeadway 0s
config **.traffic.platoonLeaderHeadway 1.2s
config **.scalar-recording false
config **.vector-recording false

vector 0 Highway.node[0].appl distance ETV
vector 1 Highway.node[0].appl relativeSpeed ETV
vector 2 Highway.node[0].appl nodeId ETV
vector 3 Highway.node[0].appl acceleration ETV
vector 4 Highway.node[0].appl controllerAcceleration ETV
vector 5 Highway.node[0].appl speed ETV
vector 6 Highway.node[0].appl posx ETV
vector 7 Highway.node[0].appl posy ETV
vector 8 Highway.node[1].appl distance ETV
vector 9 Highway.node[1].appl relativeSpeed ETV
vector 10 Highway.node[1].appl nodeId ETV
vector 11 Highway.node[1].appl acceleration ETV
vector 12 Highway.node[1].appl controllerAcceleration ETV
vector 13 Highway.node[1].appl speed ETV
vector 14 Highway.node[1].appl posx ETV
vector 15 Highway.node[1].appl posy ETV
vector 16 Highway.node[2].appl distance ETV
vector 17 Highway.node[2].appl relativeSpeed ETV
vector 18 Highway.node[2].appl nodeId ETV
vector 19 Highway.node[2].appl acceleration ETV
vector 20 Highway.node[2].appl controllerAcceleration ETV
vector 21 Highway.node[2].appl speed ETV
vector 22 Highway.node[2].appl posx ETV
vector 23 Highway.node[2].appl posy ETV
vector 24 Highway.node[3].appl distance ETV
vector 25 Highway.node[3].appl relativeSpeed ETV
vector 26 Highway.node[3].appl nodeId ETV
vector 27 Highway.node[3].appl acceleration ETV
vector 28 Highway.node[3].appl controllerAcceleration ETV
vector 29 Highway.node[3].appl speed ETV
vector 30 Highway.node[3].appl posx ETV
vector 31 Highway.node[3].appl posy ETV
vector 32 Highway.node[4].appl distance ETV
vector 33 Highway.node[4].appl relativeSpeed ETV
vector 34 Highway.node[4].appl nodeId ETV
vector 35 Highway.node[4].appl acceleration ETV
vector 36 Highway.node[4].appl controllerAcceleration ETV
vector 37 Highway.node[4].appl speed ETV
vector 38 Highway.node[4].appl posx ETV
vector 39 Highway.node[4].appl posy ETV
vector 40 Highway.node[5].appl distance ETV
vector 41 Highway.node[5].appl relativeSpeed ETV
vector 42 Highway.node[5].appl nodeId ETV
vector 43 Highway.node[5].appl acceleration ETV
vector 44 Highway.node[5].appl controllerAcceleration ETV
vector 45 Highway.node[5].appl speed ETV
vector 46 Highway.node[5].appl posx ETV
vector 47 Highway.node[5].appl posy ETV
vector 48 Highway.node[6].appl distance ETV
vector 49 Highway.node[6].appl relativeSpeed ETV
vector 50 Highway.node[6].appl nodeId ETV
vector 51 Highway.node[6].appl acceleration ETV
vector 52 Highway.node[6].appl controllerAcceleration ETV
vector 53 Highway.node[6].appl speed ETV
vector 54 Highway.node[6].appl posx ETV
vector 55 Highway.node[6].appl posy ETV
vector 56 Highway.node[7].appl distance ETV
vector 57 Highway.node[7].appl relativeSpeed ETV
vector 58 Highway.node[7].appl nodeId ETV
vector 59 Highway.node[7].appl acceleration ETV
vector 60 Highway.node[7].appl controllerAcceleration ETV
vector 61 Highway.node[7].appl speed ETV
vector 62 Highway.node[7].appl posx ETV
vector 63 Highway.node[7].appl posy ETV
vector 64 Highway.node[8].appl distance ETV
vector 65 Highway.node[8].appl relativeSpeed ETV
vector 66 Highway.node[8].appl nodeId ETV
vector 67 Highway.node[8].appl acceleration ETV
vector 68 Highway.node[8].appl controllerAcceleration ETV
vector 69 Highway.node[8].appl speed ETV
vector 70 Highway.node[8].appl posx ETV
vector 71 Highway.node[8].appl posy ETV
vector 72 Highway.node[9].appl distance ETV
vector 73 Highway.node[9].appl relativeSpeed ETV
vector 74 Highway.node[9].appl nodeId ETV
vector 75 Highway.node[9].appl acceleration ETV
vector 76 Highway.node[9].appl controllerAcceleration ETV
vector 77 Highway.node[9].appl speed ETV
vector 78 Highway.node[9].appl posx ETV
vector 79 Highway.node[9].appl posy ETV
vector 80 Highway.node[10].appl distance ETV
vector 81 Highway.node[10].appl relativeSpeed ETV
vector 82 Highway.node[10].appl nodeId ETV
vector 83 Highway.node[10].appl acceleration ETV
vector 84 Highway.node[10].appl controllerAcceleration ETV
vector 85 Highway.node[10].appl speed ETV
vector 86 Highway.node[10].appl posx ETV
vector 87 Highway.node[10].appl posy ETV
vector 88 Highway.node[11].appl distance ETV
vector 89 Highway.node[11].appl relativeSpeed ETV
vector 90 Highway.node[11].appl nodeId ETV
vector 91 Highway.node[11].appl acceleration ETV
vector 92 Highway.node[11].appl controllerAcceleration ETV
vector 93 Highway.node[11].appl speed ETV
vector 94 Highway.node[11].appl posx ETV
vector 95 Highway.node[11].appl posy ETV
vector 96 Highway.node[12].appl distance ETV
vector 97 Highway.node[12].appl relativeSpeed ETV
vector 98 Highway.node[12].appl nodeId ETV
vector 99 Highway.node[12].appl acceleration ETV
vector 100 Highway.node[12].appl controllerAcceleration ETV
vector 101 Highway.node[12].appl speed ETV
vector 102 Highway.node[12].appl posx ETV
vector 103 Highway.node[12].appl posy ETV
vector 104 Highway.node[13].appl distance ETV
vector 105 Highway.node[13].appl relativeSpeed ETV
vector 106 Highway.node[13].appl nodeId ETV
vector 107 Highway.node[13].appl acceleration ETV
vector 108 Highway.node[13].appl controllerAcceleration ETV
vector 109 Highway.node[13].appl speed ETV
vector 110 Highway.node[13].appl posx ETV
vector 111 Highway.node[13].appl posy ETV
vector 112 Highway.node[14].appl distance ETV
vector 113 Highway.node[14].appl relativeSpeed ETV
vector 114 Highway.node[14].appl nodeId ETV
vector 115 Highway.node[14].appl acceleration ETV
vector 116 Highway.node[14].appl controllerAcceleration ETV
vector 117 Highway.node[14].appl speed ETV
vector 118 Highway.node[14].appl posx ETV
vector 119 Highway.node[14].appl posy ETV
vector 120 Highway.node[15].appl distance ETV
vector 121 Highway.node[15].appl relativeSpeed ETV
vector 122 Highway.node[15].appl nodeId ETV
vector 123 Highway.node[15].appl acceleration ETV
vector 124 Highway.node[15].appl controllerAcceleration ETV
vector 125 Highway.node[15].appl speed ETV
vector 126 Highway.node[15].appl posx ETV
vector 127 Highway.node[15].appl posy ETV
vector 128 Highway.node[2].prot frontDelay ETV
vector 129 Highway.node[2].prot frontDelayId ETV
vector 130 Highway.node[14].prot frontDelay ETV
vector 131 Highway.node[14].prot frontDelayId ETV
vector 132 Highway.node[13].prot frontDelay ETV
vector 133 Highway.node[13].prot frontDelayId ETV
vector 134 Highway.node[1].prot leaderDelay ETV
vector 135 Highway.node[1].prot leaderDelayId ETV
vector 136 Highway.node[1].prot frontDelay ETV
vector 137 Highway.node[1].prot frontDelayId ETV
vector 138 Highway.node[8].prot leaderDelay ETV
vector 139 Highway.node[8].prot leaderDelayId ETV
vector 140 Highway.node[9].prot leaderDelay ETV
vector 141 Highway.node[9].prot leaderDelayId ETV
vector 142 Highway.node[10].prot leaderDelay ETV
vector 143 Highway.node[10].prot leaderDelayId ETV
vector 144 Highway.node[11].prot leaderDelay ETV
vector 145 Highway.node[11].prot leaderDelayId ETV
vector 146 Highway.node[12].prot leaderDelay ETV
vector 147 Highway.node[12].prot leaderDelayId ETV
vector 148 Highway.node[13].prot leaderDelay ETV
vector 149 Highway.node[13].prot leaderDelayId ETV
vector 150 Highway.node[14].prot leaderDelay ETV
vector 151 Highway.node[14].prot leaderDelayId ETV
vector 152 Highway.node[15].prot leaderDelay ETV
vector 153 Highway.node[15].prot leaderDelayId ETV
vector 154 Highway.node[2].prot leaderDelay ETV
vector 155 Highway.node[2].prot leaderDelayId ETV
vector 156 Highway.node[3].prot leaderDelay ETV
vector 157 Highway.node[3].prot leaderDelayId ETV
vector 158 Highway.node[4].prot leaderDelay ETV
vector 159 Highway.node[4].prot leaderDelayId ETV
vector 160 Highway.node[5].prot leaderDelay ETV
vector 161 Highway.node[5].prot leaderDelayId ETV
vector 162 Highway.node[6].prot leaderDelay ETV
vector 163 Highway.node[6].prot leaderDelayId ETV
vector 164 Highway.node[7].prot leaderDelay ETV
vector 165 Highway.node[7].prot leaderDelayId ETV
vector 166 Highway.node[15].prot frontDelay ETV
vector 167 Highway.node[15].prot frontDelayId ETV
vector 168 Highway.node[12].prot frontDelay ETV
vector 169 Highway.node[12].prot frontDelayId ETV
vector 170 Highway.node[11].prot frontDelay ETV
vector 171 Highway.node[11].prot frontDelayId ETV
vector 172 Highway.node[9].prot frontDelay ETV
vector 173 Highway.node[9].prot frontDelayId ETV
vector 174 Highway.node[7].prot frontDelay ETV
vector 175 Highway.node[7].prot frontDelayId ETV
vector 176 Highway.node[3].prot frontDelay ETV
vector 177 Highway.node[3].prot frontDelayId ETV
vector 178 Highway.node[6].prot frontDelay ETV
vector 179 Highway.node[6].prot frontDelayId ETV
vector 180 Highway.node[8].prot frontDelay ETV
vector 181 Highway.node[8].prot frontDelayId ETV
vector 182 Highway.node[10].prot frontDelay ETV
vector 183 Highway.node[10].prot frontDelayId ETV
vector 184 Highway.node[4].prot frontDelay ETV
vector 185 Highway.node[4].prot frontDelayId ETV
vector 186 Highway.node[5].prot frontDelay ETV
vector 187 Highway.node[5].prot frontDelayId ETV
vector 188 Highway.node[0].prot nodeId ETV
vector 189 Highway.node[0].prot busyTime ETV
vector 190 Highway.node[0].prot collisions ETV
vector 191 Highway.node[1].prot nodeId ETV
vector 192 Highway.node[1].prot busyTime ETV
vector 193 Highway.node[1].prot collisions ETV
vector 194 Highway.node[2].prot nodeId ETV
vector 195 Highway.node[2].prot busyTime ETV
vector 196 Highway.node[2].prot collisions ETV
vector 197 Highway.node[3].prot nodeId ETV
vector 198 Highway.node[3].prot busyTime ETV
vector 199 Highway.node[3].prot collisions ETV
vector 200 Highway.node[4].prot nodeId ETV
vector 201 Highway.node[4].prot busyTime ETV
vector 202 Highway.node[4].prot collisions ETV
vector 203 Highway.node[5].prot nodeId ETV
vector 204 Highway.node[5].prot busyTime ETV
vector 205 Highway.node[5].prot collisions ETV
vector 206 Highway.node[6].prot nodeId ETV
vector 207 Highway.node[6].prot busyTime ETV
vector 208 Highway.node[6].prot collisions ETV
vector 209 Highway.node[7].prot nodeId ETV
vector 210 Highway.node[7].prot busyTime ETV
vector 211 Highway.node[7].prot collisions ETV
vector 212 Highway.node[8].prot nodeId ETV
vector 213 Highway.node[8].prot busyTime ETV
vector 214 Highway.node[8].prot collisions ETV
vector 215 Highway.node[9].prot nodeId ETV
vector 216 Highway.node[9].prot busyTime ETV
vector 217 Highway.node[9].prot collisions ETV
vector 218 Highway.node[10].prot nodeId ETV
vector 219 Highway.node[10].prot busyTime ETV
vector 220 Highway.node[10].prot collisions ETV
vector 221 Highway.node[11].prot nodeId ETV
vector 222 Highway.node[11].prot busyTime ETV
vector 223 Highway.node[11].prot collisions ETV
vector 224 Highway.node[12].prot nodeId ETV
vector 225 Highway.node[12].prot busyTime ETV
vector 226 Highway.node[12].prot collisions ETV
vector 227 Highway.node[13].prot nodeId ETV
vector 228 Highway.node[13].prot busyTime ETV
vector 229 Highway.node[13].prot collisions ETV
vector 230 Highway.node[14].prot nodeId ETV
vector 231 Highway.node[14].prot busyTime ETV
vector 232 Highway.node[14].prot collisions ETV
vector 233 Highway.node[15].prot nodeId ETV
vector 234 Highway.node[15].prot busyTime ETV
vector 235 Highway.node[15].prot collisions ETV
0	16893 18176 113 2094657 1.11 99.91 989 -1 -1 -989 989
1	35069 17187 113 2094657 1.11 99.91 989 0 0 0 0
2	52256 17187 113 2094657 1.11 99.91 989 0 0 0 0
3	69443 19775 113 2094657 1.11 99.91 989 -0.00283113 0.000125957 -0.043966303784312 9.6812896349407e-05
4	89218 27155 113 2094657 1.11 99.91 989 -0.00437036 0.00019576 -0.042459310034081 0.00013890441444735
5	116373 23117 113 2094657 1.11 99.91 989 30.5554 30.56 30219.5304 923377.16656332
6	139490 22938 113 2094657 1.11 99.91 989 101.77 3120.67 1593497.574 3320119513.5935
7	162428 22132 113 2094657 1.11 99.91 989 242.45 242.45 239783.05 58135400.472499
8	184560 21980 114 2094658 1.11 99.91 989 -1 2.99995 1929.47525 6220.6014173485
9	206540 24314 114 2094658 1.11 99.91 989 -0.000377192 0.0796544 9.99954943754 0.52703161357912
10	230854 18176 114 2094658 1.11 99.91 989 1 1 989 989
11	249030 27756 114 2094658 1.11 99.91 989 -0.357647 0.0159696 -5.5693079753705 1.5698900660014
12	276786 27760 114 2094658 1.11 99.91 989 -0.547011 0.0248244 -5.0904608231098 2.0781984015463
13	304546 23392 114 2094658 1.11 99.91 989 29.9752 30.56 30096.7558 915936.68898255
14	327938 23990 114 2094658 1.11 99.91 989 95.7704 3102.42 1585620.0118 3291372759.8111
15	351928 23121 114 2094658 1.11 99.91 989 242.45 245.75 240482.65 58476945.1925
16	375049 23866 115 2094659 1.11 99.91 989 0.104612 61.8804 8308.178072 327414.87946517
17	398915 26255 115 2094659 1.11 99.91 989 -0.0974786 10.732 712.27372595942 5580.4588404497
18	425170 19165 115 2094659 1.11 99.91 989 10 10 9890 98900
19	444335 26470 115 2094659 1.11 99.91 989 -2.56857 1.5 4.5156757583489 473.34857341634
20	470805 26232 115 2094659 1.11 99.91 989 -2.96915 1.5 4.8709643845042 507.28067750387
21	497037 23977 115 2094659 1.11 99.91 989 16.6151 31.1037 28807.7771 850292.29306291
22	521014 23975 115 2094659 1.11 99.91 989 41.7704 2919.47 1510303.6406 3010840084.9088
23	544989 23121 115 2094659 1.11 99.91 989 242.45 252.35 241073.35 58773601.3325
24	568110 23999 116 2094660 1.11 99.91 989 1.99796 67.7129 11790.18932 498265.29341977
25	592109 25790 116 2094660 1.11 99.91 989 -0.000968671 2.07387 392.34274818405 751.1817936295
26	617899 19165 116 2094660 1.11 99.91 989 11 11 10879 119669
27	637064 27149 116 2094660 1.11 99.91 989 -1.46191 0.0651934 -35.562003501067 42.133827457937
28	664213 27078 116 2094660 1.11 99.91 989 -1.5 0.101259 -34.754363578337 49.307551519178
29	691291 23550 116 2094660 1.11 99.91 989 26.8987 30.56 29412.3005 876502.51365917
30	714841 23998 116 2094660 1.11 99.91 989 35.7704 2974.12 1513953.4447 3046132491.9488
31	738839 23121 116 2094660 1.11 99.91 989 242.45 249.05 241182.25 58823107.272501
32	761960 23917 117 2094661 1.11 99.91 989 1.99985 42.7539 9004.04168 245872.00288434
33	785877 26416 117 2094661 1.11 99.91 989 -0.368812 0.616388 58.032792100472 21.393735130433
34	812293 19165 117 2094661 1.11 99.91 989 12 12 11868 142416
35	831458 26803 117 2094661 1.11 99.91 989 -0.838597 0.378647 -14.893602731266 15.006243271457
36	858261 26788 117 2094661 1.11 99.91 989 -0.908791 0.595168 -12.095869833882 18.219803326228
37	885049 23992 117 2094661 1.11 99.91 989 28.3607 30.56 29736.9465 894579.86995821
38	909041 23989 117 2094661 1.11 99.91 989 29.7704 3000.48 1510625.2737 3043315190.3034
39	933030 23121 117 2094661 1.11 99.91 989 242.45 249.05 240505.75 58488375.0725
40	956151 23999 118 2094662 1.11 99.91 989 1.99731 73.0545 7458.48445 177592.21831275
41	980150 26305 118 2094662 1.11 99.91 989 -1.01785 5.12289 218.54003511371 646.15848808935
42	1006455 19165 118 2094662 1.11 99.91 989 13 13 12857 167141
43	1025620 26704 118 2094662 1.11 99.91 989 -2.34814 1.47199 -15.449738217629 201.66775020267
44	1052324 26581 118 2094662 1.11 99.91 989 -2.41872 1.5 -8.567456812066 256.18081929608
45	1078905 23980 118 2094662 1.11 99.91 989 23.2436 30.56 29423.6474 877431.02967942
46	1102885 24001 118 2094662 1.11 99.91 989 23.7704 2963.16 1499881.8497 2999292651.9957
47	1126886 23121 118 2094662 1.11 99.91 989 242.45 245.75 240363.85 58418947.0325
48	1150007 23954 119 2094663 1.11 99.91 989 1.99822 33.9846 6540.33907 126110.94363861
49	1173961 26252 119 2094663 1.11 99.91 989 -0.00065215 5.82032 348.59256946847 851.89358294693
50	1200213 19165 119 2094663 1.11 99.91 989 14 14 13846 193844
51	1219378 26762 119 2094663 1.11 99.91 989 -2.28638 1.46633 4.463711332438 170.17142937978
52	1246140 26728 119 2094663 1.11 99.91 989 -2.96476 1.5 5.2594714447558 214.72895145569
53	1272868 23999 119 2094663 1.11 99.91 989 24.735 31.0077 29705.0191 893718.19238597
54	1296867 24000 119 2094663 1.11 99.91 989 17.7704 2985.19 1495234.8799 2989281236.3129
55	1320867 23121 119 2094663 1.11 99.91 989 242.45 252.35 241449.55 58958895.6725
56	1343988 23028 120 2094664 1.11 99.91 989 -1 26.1173 1838.21833 8917.3132265345
57	1367016 25114 120 2094664 1.11 99.91 989 -0.000203516 2.6257 23.426826605815 25.097636373455
58	1392130 19165 120 2094664 1.11 99.91 989 15 15 14835 222525
59	1411295 27104 120 2094664 1.11 99.91 989 -2.56621 1.49817 14.421197424789 169.74667046431
60	1438399 26967 120 2094664 1.11 99.91 989 -2.96863 1.5 17.676841877137 220.16904396684
61	1465366 23732 120 2094664 1.11 99.91 989 26.1725 32.1035 30145.3662 919655.87220124
62	1489098 24014 120 2094664 1.11 99.91 989 11.7704 3023.18 1494135.5741 2998892263.6556
63	1513112 23121 120 2094664 1.11 99.91 989 242.45 252.35 241687.15 59077396.6925
64	1536233 23981 121 2094665 1.11 99.91 989 1.99956 44.7611 8030.27287 192801.46620958
65	1560214 26457 121 2094665 1.11 99.91 989 -0.000184926 2.45573 358.38905659776 602.4197821593
66	1586671 18176 121 2094665 1.11 99.91 989 2 2 1978 3956
67	1604847 27499 121 2094665 1.11 99.91 989 -1.55285 0.271758 -15.555242655686 30.822167033559
68	1632346 27528 121 2094665 1.11 99.91 989 -2.36929 0.306522 -14.44767372858 43.249833801446
69	1659874 23637 121 2094665 1.11 99.91 989 28.0999 30.56 29851.1428 901468.42457017
70	1683511 23968 121 2094665 1.11 99.91 989 89.7704 3071.91 1576262.1346 3254211977.2937
71	1707479 23121 121 2094665 1.11 99.91 989 242.45 242.45 239783.05 58135400.472499
72	1730600 23981 122 2094666 1.11 99.91 989 1.99964 31.9536 6403.53845 112315.79006403
73	1754581 26529 122 2094666 1.11 99.91 989 -7.54294e-05 2.92955 299.7760147936 529.5058909685
74	1781110 18176 122 2094666 1.11 99.91 989 3 3 2967 8901
75	1799286 27042 122 2094666 1.11 99.91 989 -2.33574 0.537232 -20.343103756972 103.37818606686
76	1826328 27046 122 2094666 1.11 99.91 989 -2.96643 0.576744 -18.799199369218 126.23176137591
77	1853374 24011 122 2094666 1.11 99.91 989 25.3675 30.56 29551.367 884718.66165142
78	1877385 23993 122 2094666 1.11 99.91 989 83.7704 3035.95 1565902.2903 3211538890.0471
79	1901378 23121 122 2094666 1.11 99.91 989 242.45 242.45 239783.05 58135400.472499
80	1924499 23982 123 2094667 1.11 99.91 989 1.99973 31.3104 6041.09513 100285.32973067
81	1948481 26484 123 2094667 1.11 99.91 989 -6.08292e-05 2.88035 293.38000062306 516.96577645096
82	1974965 18176 123 2094667 1.11 99.91 989 4 4 3956 15824
83	1993141 26864 123 2094667 1.11 99.91 989 -2.58257 0.755561 -25.84966932344 178.01156164382
84	2020005 26883 123 2094667 1.11 99.91 989 -2.96968 0.794969 -24.21456466087 202.47557798802
85	2046888 23992 123 2094667 1.11 99.91 989 22.9305 30.56 29257.9852 869293.22085658
86	2070880 23988 123 2094667 1.11 99.91 989 77.7704 3000.64 1555905.1668 3171082149.8069
87	2094868 23121 123 2094667 1.11 99.91 989 242.45 242.45 239783.05 58135400.472499
88	2117989 23958 124 2094668 1.11 99.91 989 1.9998 30.5856 5687.44526 88791.151664029
89	2141947 26455 124 2094668 1.11 99.91 989 -3.49051e-05 2.836 286.15533094444 504.83588867531
90	2168402 18176 124 2094668 1.11 99.91 989 5 5 4945 24725
91	2186578 26832 124 2094668 1.11 99.91 989 -2.6371 0.937262 -31.80424563301 245.61276882174
92	2213410 26848 124 2094668 1.11 99.91 989 -2.96965 0.975791 -29.71186289573 269.97665924024
93	2240258 23990 124 2094668 1.11 99.91 989 20.7527 30.56 28971.8309 855118.06159041
94	2264248 23992 124 2094668 1.11 99.91 989 71.7704 2966.06 1546261.8089 3132769490.511
95	2288240 23121 124 2094668 1.11 99.91 989 242.45 242.45 239783.05 58135400.472499
96	2311361 22900 125 2094669 1.11 99.91 989 -1 2.99657 1804.73089 5568.5867687137
97	2334261 24991 125 2094669 1.11 99.91 989 -3.25908e-05 0.0382587 9.965956103957 0.26504420297956
98	2359252 18176 125 2094669 1.11 99.91 989 6 6 5934 35604
99	2377428 27380 125 2094669 1.11 99.91 989 -0.999607 0.0445271 -15.562118656364 12.228599267334
100	2404808 28383 125 2094669 1.11 99.91 989 -1.5 0.0691309 -14.764155169162 17.021006958789
101	2433191 24474 125 2094669 1.11 99.91 989 28.9308 30.56 29844.4262 900949.90872036
102	2457665 25002 125 2094669 1.11 99.91 989 65.7704 3047.24 1550281.0353 3171295261.6944
103	2482667 24110 125 2094669 1.11 99.91 989 242.45 249.05 241182.25 58823107.272501
104	2506777 24975 126 2094670 1.11 99.91 989 2 58.2047 12099.24595 494936.20803681
105	2531752 26798 126 2094670 1.11 99.91 989 -4.40233e-05 1.0445 212.61590209085 200.44103118964
106	2558550 19165 126 2094670 1.11 99.91 989 7 7 6923 48461
107	2577715 28299 126 2094670 1.11 99.91 989 -0.999831 0.0446071 -15.548912734217 12.259810819338
108	2606014 28325 126 2094670 1.11 99.91 989 -1.5 0.0692955 -14.494301167203 16.622335549839
109	2634339 24458 126 2094670 1.11 99.91 989 28.9307 30.56 29834.2053 900328.72706199
110	2658797 25013 126 2094670 1.11 99.91 989 59.7704 3040.21 1543691.4067 3150046556.7437
111	2683810 24110 126 2094670 1.11 99.91 989 242.45 245.75 240482.65 58476945.1925
112	2707920 24937 127 2094671 1.11 99.91 989 2 31.6961 6666.70467 117744.68460037
113	2732857 27255 127 2094671 1.11 99.91 989 -1.15451 2.10939 157.29957146516 282.31933463502
114	2760112 19165 127 2094671 1.11 99.91 989 8 8 7912 63296
115	2779277 27669 127 2094671 1.11 99.91 989 -2.42853 1.02744 -36.700628436775 260.7368397434
116	2806946 27674 127 2094671 1.11 99.91 989 -2.48588 1.06468 -34.42248420357 274.82884761211
117	2834620 24995 127 2094671 1.11 99.91 989 19.6064 30.56 28794.6244 846504.20994324
118	2859615 24989 127 2094671 1.11 99.91 989 53.7704 2930.36 1525414.1111 3063334560.4116
119	2884604 24110 127 2094671 1.11 99.91 989 242.45 242.45 239783.05 58135400.472499
120	2908714 24971 128 2094672 1.11 99.91 989 0.828539 53.0881 7142.012789 211244.09645786
121	2933685 27182 128 2094672 1.11 99.91 989 -3.53104e-05 9.24517 447.34980463117 2033.0690935583
122	2960867 19165 128 2094672 1.11 99.91 989 9 9 8901 80109
123	2980032 27728 128 2094672 1.11 99.91 989 -2.29128 1.49997 -35.55525098195 362.69087000054
124	3007760 27528 128 2094672 1.11 99.91 989 -2.96649 1.5 -34.37198303819 387.6853133505
125	3035288 24991 128 2094672 1.11 99.91 989 17.8695 30.56 28723.0204 844100.39818924
126	3060279 24944 128 2094672 1.11 99.91 989 47.7704 2917.19 1517446.0498 3034776569.6222
127	3085223 24110 128 2094672 1.11 99.91 989 242.45 249.05 240360.55 58418424.9725
128	3109333 41671 2281 2094719 1.224919661151 99.924916187449 988 0.099992641098 0.100008081816 98.800002167435 9.8800004740502
129	3151004 29917 2281 2094719 1.224919661151 99.924916187449 988 10 10 9880 98800
130	3180921 41672 2417 2094921 1.227201701179 99.927211941287 988 0.099992641099 0.100008090407 98.800002881245 9.8800006168404
131	3222593 28929 2417 2094921 1.227201701179 99.927211941287 988 8 8 7904 63232
132	3251522 41616 2548 2094980 1.231134721193 99.931131626315 988 0.099987783319 0.10000808214 98.800002546259 9.8800005499433
133	3293138 28901 2548 2094980 1.231134721193 99.931131626315 988 7 7 6916 48412
134	3322039 41667 2676 2095114 1.249406841276 99.949416908457 988 0.099987839537 0.100008090396 98.800002708318 9.8800005824989
135	3363706 28937 2676 2095114 1.249406841276 99.949416908457 988 1 1 988 988
136	3392643 41667 2676 2095114 1.249406841276 99.949416908457 988 0.099987839537 0.100008090396 98.800002708318 9.8800005824989
137	3434310 28937 2676 2095114 1.249406841276 99.949416908457 988 1 1 988 988
138	3463247 41629 2682 2095120 1.24940686129 99.949417009378 988 0.09998783954 0.100008090732 98.800002789225 9.8800005986803
139	3504876 28895 2682 2095120 1.24940686129 99.949417009378 988 2 2 1976 3952
140	3533771 41626 2688 2095138 1.249406881303 99.94941712937 988 0.099987839543 0.100008090892 98.800002889203 9.8800006186759
141	3575397 28902 2688 2095138 1.249406881303 99.94941712937 988 3 3 2964 8892
142	3604299 41628 2694 2095150 1.249406901317 99.949417247227 988 0.099987839549 0.100008091077 98.800002987047 9.8800006382447
143	3645927 28911 2694 2095150 1.249406901317 99.949417247227 988 4 4 3952 15808
144	3674838 41628 2700 2095174 1.249406921331 99.949417362672 988 0.099987839555 0.100008091277 98.800003082478 9.8800006573309
145	3716466 28915 2700 2095174 1.249406921331 99.949417362672 988 5 5 4940 24700
146	3745381 41656 2706 2095126 1.249406941345 99.94941709266 988 0.099987839564 0.10000809073 98.800002792452 9.8800005993257
147	3787037 28916 2706 2095126 1.249406941345 99.94941709266 988 6 6 5928 35568
148	3815953 41680 2712 2095132 1.249406961359 99.949417115322 988 0.099987839573 0.100008090731 98.8000027951 9.8800005998553
149	3857633 28932 2712 2095132 1.249406961359 99.949417115322 988 7 7 6916 48412
150	3886565 41659 2718 2095186 1.249406981373 99.949417481807 988 0.099987839582 0.100008091442 98.800003141571 9.8800006691495
151	3928224 28929 2718 2095186 1.249406981373 99.949417481807 988 8 8 7904 63232
152	3957153 41652 2724 2095198 1.249407001387 99.949417525798 988 0.099987839592 0.100008091399 98.800003165548 9.8800006739449
153	3998805 28927 2724 2095198 1.249407001387 99.949417525798 988 9 9 8892 80028
154	4027732 41668 2730 2095192 1.2494070214 99.949417518397 988 0.099987839603 0.100008090061 98.800003138134 9.8800006684621
155	4069400 29925 2730 2095192 1.2494070214 99.949417518397 988 10 10 9880 98800
156	4099325 41652 2736 2095168 1.249407041414 99.949417336314 988 0.099987839612 0.100008091398 98.800002936037 9.8800006280427
157	4140977 29921 2736 2095168 1.249407041414 99.949417336314 988 11 11 10868 119548
158	4170898 41656 2742 2095156 1.249407061428 99.949417248214 988 0.099987839621 0.100008090716 98.800002827923 9.8800006064199
159	4212554 29905 2742 2095156 1.249407061428 99.949417248214 988 12 12 11856 142272
160	4242459 41647 2748 2095180 1.249407081442 99.949417372241 988 0.099987839628 0.100008090749 98.800002931936 9.8800006272225
161	4284106 29903 2748 2095180 1.249407081442 99.949417372241 988 13 13 12844 166972
162	4314009 41658 2754 2095162 1.249407101456 99.949417299558 988 0.099987839636 0.100008090065 98.800002839239 9.8800006086831
163	4355667 29915 2754 2095162 1.249407101456 99.949417299558 988 14 14 13832 193648
164	4385582 41645 2760 2095144 1.24940712147 99.949417173189 988 0.099987839642 0.100008089733 98.800002692856 9.8800005794065
165	4427227 29906 2760 2095144 1.24940712147 99.949417173189 988 15 15 14820 222300
166	4457133 41659 2809 2095241 1.249791001387 99.949853527068 988 0.099901641137 0.100098174255 98.799964166818 9.8799945293575
167	4498792 28925 2809 2095241 1.249791001387 99.949853527068 988 9 9 8892 80028
168	4527717 41674 3071 2095569 1.263273341622 99.963271259988 988 0.0999879508 0.100008095206 98.800003559503 9.8800007525979
169	4569391 28923 3071 2095569 1.263273341622 99.963271259988 988 6 6 5928 35568
170	4598314 41637 3202 2095658 1.271314361636 99.971312218978 988 0.099992641099 0.100008095063 98.800003498479 9.8800007402673
171	4639951 28917 3202 2095658 1.271314361636 99.971312218978 988 5 5 4940 24700
172	4668868 41668 3332 2095782 1.274051401664 99.974049461466 988 0.099987922046 0.100008087839 98.800003700939 9.8800007811117
173	4710536 28931 3332 2095782 1.274051401664 99.974049461466 988 3 3 2964 8892
174	4739467 41658 3463 2095925 1.28089664183 99.980894759052 988 0.099988067111 0.100008681123 98.799990758359 9.8799981924346
175	4781125 29909 3463 2095925 1.28089664183 99.980894759052 988 15 15 14820 222300
176	4811034 41664 3588 2096050 1.296425721885 99.996437032745 988 0.099992641098 0.100008093207 98.800003951997 9.8800008309894
177	4852698 29914 3588 2096050 1.296425721885 99.996437032745 988 11 11 10868 119548
178	4882612 41613 3728 2094066 1.300072781927 99.900075980886 987 0.099987859518 0.100008681123 98.700008840096 9.8700018090081
179	4924225 29890 3728 2094066 1.300072781927 99.900075980886 987 14 14 13818 193452
180	4954115 41582 3855 2094187 1.300548022093 99.900486471074 986 0.09975887548 0.200019902034 98.699957090118 9.8899979844116
181	4995697 28861 3855 2094187 1.300548022093 99.900486471074 986 2 2 1972 3944
182	5024558 41634 3985 2094329 1.300984062121 99.900987708464 987 0.099590417063 0.100404047486 98.70000928748 9.8700029780007
183	5066192 28896 3985 2094329 1.300984062121 99.900987708464 987 4 4 3948 15792
184	5095088 41611 4115 2094459 1.301719222232 99.901722886032 987 0.099954420839 0.10005304749 98.699996304937 9.8699993065025
185	5136699 29874 4115 2094459 1.301719222232 99.901722886032 987 12 12 11844 142128
186	5166573 41607 4245 2094607 1.304794242246 99.904798011023 987 0.099420920575 0.100573550242 98.699996409914 9.8699999867669
187	5208180 29877 4245 2094607 1.304794242246 99.904798011023 987 13 13 12831 166803
188	5238057 1625 18455 2096151 2 100 99 0 0 0 0
189	5239682 2902 18455 2096151 2 100 99 0.04361548997 0.052265935154 4.941148165173 0.24666119257445
190	5242584 1625 18455 2096151 2 100 99 0 0 0 0
191	5244209 1625 18456 2096152 2 100 99 1 1 99 99
192	5245834 2896 18456 2096152 2 100 99 0.043614509983 0.051764292402 4.940229629813 0.24656728244219
193	5248730 1625 18456 2096152 2 100 99 0 0 0 0
194	5250355 1724 18457 2096153 2 100 99 10 10 990 9900
195	5252079 2894 18457 2096153 2 100 99 0.043615690108 0.051764573681 4.940231833014 0.24656748864227
196	5254973 1625 18457 2096153 2 100 99 0 0 0 0
197	5256598 1724 18458 2096154 2 100 99 11 11 1089 11979
198	5258322 2900 18458 2096154 2 100 99 0.043614710121 0.051764615187 4.940231035285 0.24656742152057
199	5261222 1625 18458 2096154 2 100 99 0 0 0 0
200	5262847 1724 18459 2096155 2 100 99 12 12 1188 14256
201	5264571 2896 18459 2096155 2 100 99 0.043614730135 0.051548243494 4.939750435036 0.24651869276866
202	5267467 1625 18459 2096155 2 100 99 0 0 0 0
203	5269092 1724 18460 2096156 2 100 99 13 13 1287 16731
204	5270816 2902 18460 2096156 2 100 99 0.043615750149 0.051548246017 4.939751606672 0.24651879693994
205	5273718 1625 18460 2096156 2 100 99 0 0 0 0
206	5275343 1724 18461 2096157 2 100 99 14 14 1386 19404
207	5277067 2894 18461 2096157 2 100 99 0.043615730135 0.051548245976 4.939751575985 0.24651879409925
208	5279961 1625 18461 2096157 2 100 99 0 0 0 0
209	5281586 1724 18462 2096158 2 100 99 15 15 1485 22275
210	5283310 2895 18462 2096158 2 100 99 0.043615710121 0.051771943963 4.939941497605 0.24653852547482
211	5286205 1625 18462 2096158 2 100 99 0 0 0 0
212	5287830 1625 18463 2096159 2 100 99 2 2 198 396
213	5289455 2896 18463 2096159 2 100 99 0.043615529997 0.051764245964 4.940230777936 0.24656738404278
214	5292351 1625 18463 2096159 2 100 99 0 0 0 0
215	5293976 1625 18464 2096160 2 100 99 3 3 297 891
216	5295601 2905 18464 2096160 2 100 99 0.043614550011 0.051764247156 4.940229992022 0.24656731795228
217	5298506 1625 18464 2096160 2 100 99 0 0 0 0
218	5300131 1625 18465 2096161 2 100 99 4 4 396 1584
219	5301756 2902 18465 2096161 2 100 99 0.043615570025 0.051764293849 4.940231249218 0.24656743079252
220	5304658 1625 18465 2096161 2 100 99 0 0 0 0
221	5306283 1625 18466 2096162 2 100 99 5 5 495 2475
222	5307908 2904 18466 2096162 2 100 99 0.043615590038 0.051764340535 4.94023249937 0.24656755584986
223	5310812 1625 18466 2096162 2 100 99 0 0 0 0
224	5312437 1625 18467 2096163 2 100 99 6 6 594 3564
225	5314062 2903 18467 2096163 2 100 99 0.043615610052 0.051764385699 4.940231326288 0.24656743833488
226	5316965 1625 18467 2096163 2 100 99 0 0 0 0
227	5318590 1625 18468 2096164 2 100 99 7 7 693 4851
228	5320215 2895 18468 2096164 2 100 99 0.043615630066 0.051764433414 4.94023144317 0.24656745078044
229	5323110 1625 18468 2096164 2 100 99 0 0 0 0
230	5324735 1625 18469 2096165 2 100 99 8 8 792 6336
231	5326360 2897 18469 2096165 2 100 99 0.04361565008 0.051764480496 4.940231682847 0.246567473794
232	5329257 1625 18469 2096165 2 100 99 0 0 0 0
233	5330882 1625 18470 2096166 2 100 99 9 9 891 8019
234	5332507 2904 18470 2096166 2 100 99 0.043615670094 0.051764527119 4.940231732711 0.24656747867372
235	5335411 1625 18470 2096166 2 100 99 0 0 0 0

