version 3
run BreakRanksNoGui-2007-20240710-16:44:16-266413
attr configname BreakRanksNoGui
attr datetime 20240710-16:44:16
attr datetimef 20240710-164416
attr experiment BreakRanksNoGui
attr inifile omnetpp.ini
attr iterationvars "$nCars=12, $platoonSize=12, $nLanes=1, $ploegH=0.5, $controller=1, $headway=0.1, $leaderHeadway=1.2, $leaderSpeed=110, $breakRanksSafetyDistance=2, $minSpeed=100, $maxSpeed=120, $beaconInterval=0.1, $priority=4, $packetSize=200, $sController=\"CACC\", $0=2, $1=0"
attr iterationvarsd nCars=12/platoonSize=12/nLanes=1/ploegH=0.5/controller=1/headway=0.1/leaderHeadway=1.2/leaderSpeed=110/breakRanksSafetyDistance=2/minSpeed=100/maxSpeed=120/beaconInterval=0.1/priority=4/packetSize=200/sController=CACC/2/0
attr iterationvarsf nCars=12,platoonSize=12,nLanes=1,ploegH=0.5,controller=1,headway=0.1,leaderHeadway=1.2,leaderSpeed=110,breakRanksSafetyDistance=2,minSpeed=100,maxSpeed=120,beaconInterval=0.1,priority=4,packetSize=200,sController=CACC,2,0-
attr measurement "$nCars=12, $platoonSize=12, $nLanes=1, $ploegH=0.5, $controller=1, $headway=0.1, $leaderHeadway=1.2, $leaderSpeed=110, $breakRanksSafetyDistance=2, $minSpeed=100, $maxSpeed=120, $beaconInterval=0.1, $priority=4, $packetSize=200, $sController=\"CACC\", $0=2, $1=0"
attr network Highway
attr processid 266413
attr repetition 7
attr replication #7
attr resultdir results
attr runnumber 2007
attr seedset 7
itervar beaconInterval 0.1
itervar breakRanksSafetyDistance 2
itervar controller 1
itervar headway 0.1
itervar leaderHeadway 1.2
itervar leaderSpeed 110
itervar maxSpeed 120
itervar minSpeed 100
itervar nCars 12
itervar nLanes 1
itervar packetSize 200
itervar platoonSize 12
itervar ploegH 0.5
itervar priority 4
itervar sController "\"CACC\""
config image-path ../../../veins/images
config repeat 10
config extends BreakRanks
config *.manager.command "\"sumo\""
config *.manager.ignoreGuiCommands true
config output-vector-file "results/BreakRanks_1_0.1_110_2_12 /result_7.vec"
config output-scalar-file "results/BreakRanks_1_0.1_110_2_12 /result_7.sca"
config extends Platooning
config *.node[*].scenario_type "\"BreakRanksScenario\""
config *.manager.command "\"sumo-gui\""
config *.node[*].scenario_type "\"SimpleScenario\""
config cmdenv-express-mode true
config cmdenv-autoflush true
config cmdenv-status-frequency 15s
config num-rngs 6
config network Highway
config debug-on-errors true
config print-undisposed true
config *.playgroundSizeX 65000m
config *.playgroundSizeY 25000m
config *.playgroundSizeZ 50m
config sim-time-limit "100 s"
config *.annotations.draw false
config *.obstacles.debug false
config *.world.useTorus false
config *.world.use2D false
config *.manager.updateInterval 0.01s
config *.manager.host "\"localhost\""
config *.manager.moduleType "\"org.car2x.plexe.PlatoonCar\""
config *.manager.moduleName "\"node\""
config *.manager.moduleDisplayString "\"\""
config *.manager.autoShutdown true
config *.manager.margin 25
config *.connectionManager.sendDirect true
config *.connectionManager.maxInterfDist 2600m
config *.connectionManager.drawMaxIntfDist false
config *.**.nic.mac1609_4.useServiceChannel false
config *.**.nic.mac1609_4.txPower 100mW
config *.**.nic.mac1609_4.bitrate 6Mbps
config *.**.nic.mac1609_4.useAcks true
config *.**.nic.mac1609_4.ackErrorRate 0.0
config *.**.nic.mac1609_4.frameErrorRate 0.0
config *.**.nic.phy80211p.minPowerLevel -94dBm
config *.**.nic.phy80211p.maxTXPower 100mW
config *.**.nic.phy80211p.useNoiseFloor true
config *.**.nic.phy80211p.noiseFloor -95dBm
config *.**.nic.phy80211p.decider "xmldoc(\"config.xml\")"
config *.**.nic.phy80211p.analogueModels "xmldoc(\"config.xml\")"
config *.**.nic.phy80211p.usePropagationDelay true
config *.node[*].mobility.x 0
config *.node[*].mobility.y 0
config *.node[*].mobility.z 1.895
config seed-set 7
config **.seed 7
config *.node[*].prot.rng-0 2
config *.node[*].appl.rng-0 3
config *.node[*].scenario.rng-0 4
config **.traffic.rng-0 5
config *.manager.configFile "\"./sumocfg/freeway.sumo.cfg\""
config *.manager.launchConfig "xmldoc(\"./sumocfg/freeway.launchd.xml\")"
config **.numberOfCars 12
config **.numberOfCarsPerPlatoon 12
config **.numberOfLanes 1
config *.node[*].helper_type "\"PositionHelper\""
config *.node[*].scenario.caccC1 0.5
config *.node[*].scenario.caccXi 1
config *.node[*].scenario.caccOmegaN "0.2 Hz"
config *.node[*].scenario.caccSpacing "2 m"
config *.node[*].scenario.engineTau "0.5 s"
config *.node[*].scenario.ploegH 0.5s
config *.node[*].scenario.ploegKp 0.2
config *.node[*].scenario.ploegKd 0.7
config *.node[*].scenario.useRealisticEngine false
config *.node[*].scenario.useControllerAcceleration true
config *.node[*].scenario.nLanes 1
config **.numericController 1
config **.headway 0.1s
config *.node[*].scenario.accHeadway 0.1s
config *.node[*].scenario.leaderHeadway 1.2s
config *.node[*].scenario.leaderSpeed 110kmph
config *.node[*].appl_type "\"SimplePlatooningApp\""
config *.node[*].appl.*.scalar-recording true
config *.node[*].appl.*.vector-recording true
config *.node[0].appl.breakRanksSafetyDistance 2m
config *.node[*].appl.minSpeed 100kmph
config *.node[*].appl.maxSpeed 120kmph
config *.node[*].protocol_type "\"SimplePlatooningBeaconing\""
config *.node[*].prot.*.scalar-recording true
config *.node[*].prot.*.vector-recording true
config *.node[*].prot.beaconingInterval 0.1s
config *.node[*].prot.priority 4
config *.node[*].prot.packetSize 200
config **.traffic_type "\"PlatoonsTrafficManager\""
config **.traffic.platoonInsertTime "1 s"
config **.traffic.platoonInsertSpeed 110kmph
config **.traffic.nCars 12
config **.traffic.platoonSize 12
config **.traffic.nLanes 1
config **.traffic.platooningVType "\"vtypeauto\""
config **.traffic.controller "\"CACC\""
config **.traffic.platoonInsertDistance 2m
config **.traffic.platoonInsertHeadway 0s
config **.traffic.platoonLeaderHeadway 1.2s
config **.scalar-recording false
config **.vector-recording false

vector 0 Highway.node[0].appl distance ETV
vector 1 Highway.node[0].appl relativeSpeed ETV
vector 2 Highway.node[0].appl nodeId ETV
vector 3 Highway.node[0].appl acceleration ETV
vector 4 Highway.node[0].appl controllerAcceleration ETV
vector 5 Highway.node[0].appl speed ETV
vector 6 Highway.node[0].appl posx ETV
vector 7 Highway.node[0].appl posy ETV
vector 8 Highway.node[1].appl distance ETV
vector 9 Highway.node[1].appl relativeSpeed ETV
vector 10 Highway.node[1].appl nodeId ETV
vector 11 Highway.node[1].appl acceleration ETV
vector 12 Highway.node[1].appl controllerAcceleration ETV
vector 13 Highway.node[1].appl speed ETV
vector 14 Highway.node[1].appl posx ETV
vector 15 Highway.node[1].appl posy ETV
vector 16 Highway.node[2].appl distance ETV
vector 17 Highway.node[2].appl relativeSpeed ETV
vector 18 Highway.node[2].appl nodeId ETV
vector 19 Highway.node[2].appl acceleration ETV
vector 20 Highway.node[2].appl controllerAcceleration ETV
vector 21 Highway.node[2].appl speed ETV
vector 22 Highway.node[2].appl posx ETV
vector 23 Highway.node[2].appl posy ETV
vector 24 Highway.node[3].appl distance ETV
vector 25 Highway.node[3].appl relativeSpeed ETV
vector 26 Highway.node[3].appl nodeId ETV
vector 27 Highway.node[3].appl acceleration ETV
vector 28 Highway.node[3].appl controllerAcceleration ETV
vector 29 Highway.node[3].appl speed ETV
vector 30 Highway.node[3].appl posx ETV
vector 31 Highway.node[3].appl posy ETV
vector 32 Highway.node[4].appl distance ETV
vector 33 Highway.node[4].appl relativeSpeed ETV
vector 34 Highway.node[4].appl nodeId ETV
vector 35 Highway.node[4].appl acceleration ETV
vector 36 Highway.node[4].appl controllerAcceleration ETV
vector 37 Highway.node[4].appl speed ETV
vector 38 Highway.node[4].appl posx ETV
vector 39 Highway.node[4].appl posy ETV
vector 40 Highway.node[5].appl distance ETV
vector 41 Highway.node[5].appl relativeSpeed ETV
vector 42 Highway.node[5].appl nodeId ETV
vector 43 Highway.node[5].appl acceleration ETV
vector 44 Highway.node[5].appl controllerAcceleration ETV
vector 45 Highway.node[5].appl speed ETV
vector 46 Highway.node[5].appl posx ETV
vector 47 Highway.node[5].appl posy ETV
vector 48 Highway.node[6].appl distance ETV
vector 49 Highway.node[6].appl relativeSpeed ETV
vector 50 Highway.node[6].appl nodeId ETV
vector 51 Highway.node[6].appl acceleration ETV
vector 52 Highway.node[6].appl controllerAcceleration ETV
vector 53 Highway.node[6].appl speed ETV
vector 54 Highway.node[6].appl posx ETV
vector 55 Highway.node[6].appl posy ETV
vector 56 Highway.node[7].appl distance ETV
vector 57 Highway.node[7].appl relativeSpeed ETV
vector 58 Highway.node[7].appl nodeId ETV
vector 59 Highway.node[7].appl acceleration ETV
vector 60 Highway.node[7].appl controllerAcceleration ETV
vector 61 Highway.node[7].appl speed ETV
vector 62 Highway.node[7].appl posx ETV
vector 63 Highway.node[7].appl posy ETV
vector 64 Highway.node[8].appl distance ETV
vector 65 Highway.node[8].appl relativeSpeed ETV
vector 66 Highway.node[8].appl nodeId ETV
vector 67 Highway.node[8].appl acceleration ETV
vector 68 Highway.node[8].appl controllerAcceleration ETV
vector 69 Highway.node[8].appl speed ETV
vector 70 Highway.node[8].appl posx ETV
vector 71 Highway.node[8].appl posy ETV
vector 72 Highway.node[9].appl distance ETV
vector 73 Highway.node[9].appl relativeSpeed ETV
vector 74 Highway.node[9].appl nodeId ETV
vector 75 Highway.node[9].appl acceleration ETV
vector 76 Highway.node[9].appl controllerAcceleration ETV
vector 77 Highway.node[9].appl speed ETV
vector 78 Highway.node[9].appl posx ETV
vector 79 Highway.node[9].appl posy ETV
vector 80 Highway.node[10].appl distance ETV
vector 81 Highway.node[10].appl relativeSpeed ETV
vector 82 Highway.node[10].appl nodeId ETV
vector 83 Highway.node[10].appl acceleration ETV
vector 84 Highway.node[10].appl controllerAcceleration ETV
vector 85 Highway.node[10].appl speed ETV
vector 86 Highway.node[10].appl posx ETV
vector 87 Highway.node[10].appl posy ETV
vector 88 Highway.node[11].appl distance ETV
vector 89 Highway.node[11].appl relativeSpeed ETV
vector 90 Highway.node[11].appl nodeId ETV
vector 91 Highway.node[11].appl acceleration ETV
vector 92 Highway.node[11].appl controllerAcceleration ETV
vector 93 Highway.node[11].appl speed ETV
vector 94 Highway.node[11].appl posx ETV
vector 95 Highway.node[11].appl posy ETV
vector 96 Highway.node[3].prot frontDelay ETV
vector 97 Highway.node[3].prot frontDelayId ETV
vector 98 Highway.node[8].prot frontDelay ETV
vector 99 Highway.node[8].prot frontDelayId ETV
vector 100 Highway.node[2].prot frontDelay ETV
vector 101 Highway.node[2].prot frontDelayId ETV
vector 102 Highway.node[10].prot frontDelay ETV
vector 103 Highway.node[10].prot frontDelayId ETV
vector 104 Highway.node[9].prot frontDelay ETV
vector 105 Highway.node[9].prot frontDelayId ETV
vector 106 Highway.node[7].prot frontDelay ETV
vector 107 Highway.node[7].prot frontDelayId ETV
vector 108 Highway.node[4].prot frontDelay ETV
vector 109 Highway.node[4].prot frontDelayId ETV
vector 110 Highway.node[11].prot frontDelay ETV
vector 111 Highway.node[11].prot frontDelayId ETV
vector 112 Highway.node[6].prot frontDelay ETV
vector 113 Highway.node[6].prot frontDelayId ETV
vector 114 Highway.node[5].prot frontDelay ETV
vector 115 Highway.node[5].prot frontDelayId ETV
vector 116 Highway.node[1].prot leaderDelay ETV
vector 117 Highway.node[1].prot leaderDelayId ETV
vector 118 Highway.node[1].prot frontDelay ETV
vector 119 Highway.node[1].prot frontDelayId ETV
vector 120 Highway.node[4].prot leaderDelay ETV
vector 121 Highway.node[4].prot leaderDelayId ETV
vector 122 Highway.node[5].prot leaderDelay ETV
vector 123 Highway.node[5].prot leaderDelayId ETV
vector 124 Highway.node[6].prot leaderDelay ETV
vector 125 Highway.node[6].prot leaderDelayId ETV
vector 126 Highway.node[7].prot leaderDelay ETV
vector 127 Highway.node[7].prot leaderDelayId ETV
vector 128 Highway.node[8].prot leaderDelay ETV
vector 129 Highway.node[8].prot leaderDelayId ETV
vector 130 Highway.node[9].prot leaderDelay ETV
vector 131 Highway.node[9].prot leaderDelayId ETV
vector 132 Highway.node[10].prot leaderDelay ETV
vector 133 Highway.node[10].prot leaderDelayId ETV
vector 134 Highway.node[11].prot leaderDelay ETV
vector 135 Highway.node[11].prot leaderDelayId ETV
vector 136 Highway.node[2].prot leaderDelay ETV
vector 137 Highway.node[2].prot leaderDelayId ETV
vector 138 Highway.node[3].prot leaderDelay ETV
vector 139 Highway.node[3].prot leaderDelayId ETV
vector 140 Highway.node[0].prot nodeId ETV
vector 141 Highway.node[0].prot busyTime ETV
vector 142 Highway.node[0].prot collisions ETV
vector 143 Highway.node[1].prot nodeId ETV
vector 144 Highway.node[1].prot busyTime ETV
vector 145 Highway.node[1].prot collisions ETV
vector 146 Highway.node[2].prot nodeId ETV
vector 147 Highway.node[2].prot busyTime ETV
vector 148 Highway.node[2].prot collisions ETV
vector 149 Highway.node[3].prot nodeId ETV
vector 150 Highway.node[3].prot busyTime ETV
vector 151 Highway.node[3].prot collisions ETV
vector 152 Highway.node[4].prot nodeId ETV
vector 153 Highway.node[4].prot busyTime ETV
vector 154 Highway.node[4].prot collisions ETV
vector 155 Highway.node[5].prot nodeId ETV
vector 156 Highway.node[5].prot busyTime ETV
vector 157 Highway.node[5].prot collisions ETV
vector 158 Highway.node[6].prot nodeId ETV
vector 159 Highway.node[6].prot busyTime ETV
vector 160 Highway.node[6].prot collisions ETV
vector 161 Highway.node[7].prot nodeId ETV
vector 162 Highway.node[7].prot busyTime ETV
vector 163 Highway.node[7].prot collisions ETV
vector 164 Highway.node[8].prot nodeId ETV
vector 165 Highway.node[8].prot busyTime ETV
vector 166 Highway.node[8].prot collisions ETV
vector 167 Highway.node[9].prot nodeId ETV
vector 168 Highway.node[9].prot busyTime ETV
vector 169 Highway.node[9].prot collisions ETV
vector 170 Highway.node[10].prot nodeId ETV
vector 171 Highway.node[10].prot busyTime ETV
vector 172 Highway.node[10].prot collisions ETV
vector 173 Highway.node[11].prot nodeId ETV
vector 174 Highway.node[11].prot busyTime ETV
vector 175 Highway.node[11].prot collisions ETV
0	113	1.11	-1
0	1311	1.21	-1
0	2509	1.31	-1
0	3707	1.41	-1
0	4905	1.51	-1
0	6103	1.61	-1
0	7301	1.71	-1
0	8499	1.81	-1
0	9697	1.91	-1
0	10907	2.01	-1
0	12105	2.11	-1
0	13303	2.21	-1
0	14501	2.31	-1
0	15699	2.41	-1
0	16897	2.51	-1
0	18095	2.61	-1
0	19293	2.71	-1
0	20491	2.81	-1
0	21689	2.91	-1
0	22899	3.01	-1
0	24097	3.11	-1
0	25295	3.21	-1
0	26493	3.31	-1
0	27691	3.41	-1
0	28889	3.51	-1
0	30087	3.61	-1
0	31285	3.71	-1
0	32483	3.81	-1
0	33681	3.91	-1
0	34891	4.01	-1
0	36089	4.11	-1
0	37287	4.21	-1
0	38485	4.31	-1
0	39683	4.41	-1
0	40881	4.51	-1
0	42079	4.61	-1
0	43277	4.71	-1
0	44475	4.81	-1
0	45673	4.91	-1
0	46883	5.01	-1
0	48081	5.11	-1
0	49279	5.21	-1
0	50477	5.31	-1
0	51675	5.41	-1
0	52873	5.51	-1
0	54071	5.61	-1
0	55269	5.71	-1
0	56467	5.81	-1
0	57665	5.91	-1
0	58875	6.01	-1
0	60073	6.11	-1
0	61271	6.21	-1
0	62469	6.31	-1
0	63667	6.41	-1
0	64865	6.51	-1
0	66063	6.61	-1
0	67261	6.71	-1
0	68459	6.81	-1
0	69657	6.91	-1
0	70867	7.01	-1
0	72065	7.11	-1
0	73263	7.21	-1
0	74461	7.31	-1
0	75659	7.41	-1
0	76857	7.51	-1
0	78055	7.61	-1
0	79253	7.71	-1
0	80451	7.81	-1
0	81649	7.91	-1
0	82859	8.01	-1
0	84057	8.11	-1
0	85255	8.21	-1
0	86453	8.31	-1
0	87651	8.41	-1
0	88849	8.51	-1
0	90047	8.61	-1
0	91245	8.71	-1
0	92443	8.81	-1
0	93641	8.91	-1
0	94851	9.01	-1
0	96049	9.11	-1
0	97247	9.21	-1
0	98445	9.31	-1
0	99643	9.41	-1
0	100841	9.51	-1
0	102039	9.61	-1
0	103237	9.71	-1
0	104435	9.81	-1
0	105633	9.91	-1
0	111383	10.01	-1
0	112581	10.11	-1
0	113779	10.21	-1
0	114977	10.31	-1
0	116175	10.41	-1
0	117373	10.51	-1
0	118571	10.61	-1
0	119769	10.71	-1
0	120967	10.81	-1
0	122165	10.91	-1
0	123375	11.01	-1
0	124573	11.11	-1
0	125771	11.21	-1
0	126969	11.31	-1
0	128167	11.41	-1
0	129365	11.51	-1
0	130563	11.61	-1
0	131761	11.71	-1
0	132959	11.81	-1
0	134157	11.91	-1
0	135367	12.01	-1
0	136565	12.11	-1
0	137763	12.21	-1
0	138961	12.31	-1
0	140159	12.41	-1
0	141357	12.51	-1
0	142555	12.61	-1
0	143753	12.71	-1
0	144951	12.81	-1
0	146149	12.91	-1
0	147359	13.01	-1
0	148557	13.11	-1
0	149755	13.21	-1
0	150953	13.31	-1
0	152151	13.41	-1
0	153349	13.51	-1
0	154547	13.61	-1
0	155745	13.71	-1
0	156943	13.81	-1
0	158141	13.91	-1
0	159351	14.01	-1
0	160549	14.11	-1
0	161747	14.21	-1
0	162945	14.31	-1
0	164143	14.41	-1
0	165341	14.51	-1
0	166539	14.61	-1
0	167737	14.71	-1
0	168935	14.81	-1
0	170133	14.91	-1
0	171343	15.01	-1
0	172541	15.11	-1
0	173739	15.21	-1
0	174937	15.31	-1
0	176135	15.41	-1
0	177333	15.51	-1
0	178531	15.61	-1
0	179729	15.71	-1
0	180927	15.81	-1
0	182125	15.91	-1
0	183335	16.01	-1
0	184533	16.11	-1
0	185731	16.21	-1
0	186929	16.31	-1
0	188127	16.41	-1
0	189325	16.51	-1
0	190523	16.61	-1
0	191721	16.71	-1
0	192919	16.81	-1
0	194117	16.91	-1
0	195327	17.01	-1
0	196525	17.11	-1
0	197723	17.21	-1
0	198921	17.31	-1
0	200119	17.41	-1
0	201317	17.51	-1
0	202515	17.61	-1
0	203713	17.71	-1
0	204911	17.81	-1
0	206109	17.91	-1
0	207319	18.01	-1
0	208517	18.11	-1
0	209715	18.21	-1
0	210913	18.31	-1
0	212111	18.41	-1
0	213309	18.51	-1
0	214507	18.61	-1
0	215705	18.71	-1
0	216903	18.81	-1
0	218101	18.91	-1
0	219311	19.01	-1
0	220509	19.11	-1
0	221707	19.21	-1
0	222905	19.31	-1
0	224103	19.41	-1
0	225301	19.51	-1
0	226499	19.61	-1
0	227697	19.71	-1
0	228895	19.81	-1
0	230093	19.91	-1
0	231303	20.01	-1
0	232501	20.11	-1
0	233699	20.21	-1
0	234897	20.31	-1
0	236095	20.41	-1
0	237293	20.51	-1
0	238491	20.61	-1
0	239689	20.71	-1
0	240887	20.81	-1
0	242085	20.91	-1
0	243295	21.01	-1
0	244493	21.11	-1
0	245691	21.21	-1
0	246889	21.31	-1
0	248087	21.41	-1
0	249285	21.51	-1
0	250483	21.61	-1
0	251681	21.71	-1
0	252879	21.81	-1
0	254077	21.91	-1
0	255287	22.01	-1
0	256485	22.11	-1
0	257683	22.21	-1
0	258881	22.31	-1
0	260079	22.41	-1
0	261277	22.51	-1
0	262475	22.61	-1
0	263673	22.71	-1
0	264871	22.81	-1
0	266069	22.91	-1
0	267279	23.01	-1
0	268477	23.11	-1
0	269675	23.21	-1
0	270873	23.31	-1
0	272071	23.41	-1
0	273269	23.51	-1
0	274467	23.61	-1
0	275665	23.71	-1
0	276863	23.81	-1
0	278061	23.91	-1
0	279271	24.01	-1
0	280469	24.11	-1
0	281667	24.21	-1
0	282865	24.31	-1
0	284063	24.41	-1
0	285261	24.51	-1
0	286459	24.61	-1
0	287657	24.71	-1
0	288855	24.81	-1
0	290053	24.91	-1
0	291263	25.01	-1
0	292461	25.11	-1
0	293659	25.21	-1
0	294857	25.31	-1
0	296055	25.41	-1
0	297253	25.51	-1
0	298451	25.61	-1
0	299649	25.71	-1
0	300847	25.81	-1
0	302045	25.91	-1
0	303255	26.01	-1
0	304453	26.11	-1
0	305651	26.21	-1
0	306849	26.31	-1
0	308047	26.41	-1
0	309245	26.51	-1
0	310443	26.61	-1
0	311641	26.71	-1
0	312839	26.81	-1
0	314037	26.91	-1
0	315247	27.01	-1
0	316445	27.11	-1
0	317643	27.21	-1
0	318841	27.31	-1
0	320039	27.41	-1
0	321237	27.51	-1
0	322435	27.61	-1
0	323633	27.71	-1
0	324831	27.81	-1
0	326029	27.91	-1
0	327239	28.01	-1
0	328437	28.11	-1
0	329635	28.21	-1
0	330833	28.31	-1
0	332031	28.41	-1
0	333229	28.51	-1
0	334427	28.61	-1
0	335625	28.71	-1
0	336823	28.81	-1
0	338021	28.91	-1
0	339231	29.01	-1
0	340429	29.11	-1
0	341627	29.21	-1
0	342825	29.31	-1
0	344023	29.41	-1
0	345221	29.51	-1
0	346419	29.61	-1
0	347617	29.71	-1
0	348815	29.81	-1
0	350013	29.91	-1
0	351223	30.01	-1
0	352421	30.11	-1
0	353619	30.21	-1
0	354817	30.31	-1
0	356015	30.41	-1
0	357213	30.51	-1
0	358411	30.61	-1
0	359609	30.71	-1
0	360807	30.81	-1
0	362005	30.91	-1
0	363215	31.01	-1
0	364413	31.11	-1
0	365611	31.21	-1
0	366809	31.31	-1
0	368007	31.41	-1
0	369205	31.51	-1
0	370403	31.61	-1
0	371601	31.71	-1
0	372799	31.81	-1
0	373997	31.91	-1
0	375207	32.01	-1
0	376405	32.11	-1
0	377603	32.21	-1
0	378801	32.31	-1
0	379999	32.41	-1
0	381197	32.51	-1
0	382395	32.61	-1
0	383593	32.71	-1
0	384791	32.81	-1
0	385989	32.91	-1
0	387199	33.01	-1
0	388397	33.11	-1
0	389595	33.21	-1
0	390793	33.31	-1
0	391991	33.41	-1
0	393189	33.51	-1
0	394387	33.61	-1
0	395585	33.71	-1
0	396783	33.81	-1
0	397981	33.91	-1
0	399191	34.01	-1
0	400389	34.11	-1
0	401587	34.21	-1
0	402785	34.31	-1
0	403983	34.41	-1
0	405181	34.51	-1
0	406379	34.61	-1
0	407577	34.71	-1
0	408775	34.81	-1
0	409973	34.91	-1
0	411183	35.01	-1
0	412381	35.11	-1
0	413579	35.21	-1
0	414777	35.31	-1
0	415975	35.41	-1
0	417173	35.51	-1
0	418371	35.61	-1
0	419569	35.71	-1
0	420767	35.81	-1
0	421965	35.91	-1
0	423175	36.01	-1
0	424373	36.11	-1
0	425571	36.21	-1
0	426769	36.31	-1
0	427967	36.41	-1
0	429165	36.51	-1
0	430363	36.61	-1
0	431561	36.71	-1
0	432759	36.81	-1
0	433957	36.91	-1
0	435167	37.01	-1
0	436365	37.11	-1
0	437563	37.21	-1
0	438761	37.31	-1
0	439959	37.41	-1
0	441157	37.51	-1
0	442355	37.61	-1
0	443553	37.71	-1
0	444751	37.81	-1
0	445949	37.91	-1
0	447159	38.01	-1
0	448357	38.11	-1
0	449555	38.21	-1
0	450753	38.31	-1
0	451951	38.41	-1
0	453149	38.51	-1
0	454347	38.61	-1
0	455545	38.71	-1
0	456743	38.81	-1
0	457941	38.91	-1
0	459151	39.01	-1
0	460349	39.11	-1
0	461547	39.21	-1
0	462745	39.31	-1
0	463943	39.41	-1
0	465141	39.51	-1
0	466339	39.61	-1
0	467537	39.71	-1
0	468735	39.81	-1
0	469933	39.91	-1
0	471143	40.01	-1
0	472341	40.11	-1
0	473539	40.21	-1
0	474737	40.31	-1
0	475935	40.41	-1
0	477133	40.51	-1
0	478331	40.61	-1
0	479529	40.71	-1
0	480727	40.81	-1
0	481925	40.91	-1
0	483135	41.01	-1
0	484333	41.11	-1
0	485531	41.21	-1
0	486729	41.31	-1
0	487927	41.41	-1
0	489125	41.51	-1
0	490323	41.61	-1
0	491521	41.71	-1
0	492719	41.81	-1
0	493917	41.91	-1
0	495127	42.01	-1
0	496325	42.11	-1
0	497523	42.21	-1
0	498721	42.31	-1
0	499919	42.41	-1
0	501117	42.51	-1
0	502315	42.61	-1
0	503513	42.71	-1
0	504711	42.81	-1
0	505909	42.91	-1
0	507119	43.01	-1
0	508317	43.11	-1
0	509515	43.21	-1
0	510713	43.31	-1
0	511911	43.41	-1
0	513109	43.51	-1
0	514307	43.61	-1
0	515505	43.71	-1
0	516703	43.81	-1
0	517901	43.91	-1
0	519111	44.01	-1
0	520309	44.11	-1
0	521507	44.21	-1
0	522705	44.31	-1
0	523903	44.41	-1
0	525101	44.51	-1
0	526299	44.61	-1
0	527497	44.71	-1
0	528695	44.81	-1
0	529893	44.91	-1
0	531103	45.01	-1
0	532301	45.11	-1
0	533499	45.21	-1
0	534697	45.31	-1
0	535895	45.41	-1
0	537093	45.51	-1
0	538291	45.61	-1
0	539489	45.71	-1
0	540687	45.81	-1
0	541885	45.91	-1
0	543095	46.01	-1
0	544293	46.11	-1
0	545491	46.21	-1
0	546689	46.31	-1
0	547887	46.41	-1
0	549085	46.51	-1
0	550283	46.61	-1
0	551481	46.71	-1
0	552679	46.81	-1
0	553877	46.91	-1
0	555087	47.01	-1
0	556285	47.11	-1
0	557483	47.21	-1
0	558681	47.31	-1
0	559879	47.41	-1
0	561077	47.51	-1
0	562275	47.61	-1
0	563473	47.71	-1
0	564671	47.81	-1
0	565869	47.91	-1
0	567079	48.01	-1
0	568277	48.11	-1
0	569475	48.21	-1
0	570673	48.31	-1
0	571871	48.41	-1
0	573069	48.51	-1
0	574267	48.61	-1
0	575465	48.71	-1
0	576663	48.81	-1
0	577861	48.91	-1
0	579071	49.01	-1
0	580269	49.11	-1
0	581467	49.21	-1
0	582665	49.31	-1
0	583863	49.41	-1
0	585061	49.51	-1
0	586259	49.61	-1
0	587457	49.71	-1
0	588655	49.81	-1
0	589853	49.91	-1
0	591063	50.01	-1
0	592261	50.11	-1
0	593459	50.21	-1
0	594657	50.31	-1
0	595855	50.41	-1
0	597053	50.51	-1
0	598251	50.61	-1
0	599449	50.71	-1
0	600647	50.81	-1
0	601845	50.91	-1
0	603055	51.01	-1
0	604253	51.11	-1
0	605451	51.21	-1
0	606649	51.31	-1
0	607847	51.41	-1
0	609045	51.51	-1
0	610243	51.61	-1
0	611441	51.71	-1
0	612639	51.81	-1
0	613837	51.91	-1
0	615047	52.01	-1
0	616245	52.11	-1
0	617443	52.21	-1
0	618641	52.31	-1
0	619839	52.41	-1
0	621037	52.51	-1
0	622235	52.61	-1
0	623433	52.71	-1
0	624631	52.81	-1
0	625829	52.91	-1
0	627039	53.01	-1
0	628237	53.11	-1
0	629435	53.21	-1
0	630633	53.31	-1
0	631831	53.41	-1
0	633029	53.51	-1
0	634227	53.61	-1
0	635425	53.71	-1
0	636623	53.81	-1
0	637821	53.91	-1
0	639031	54.01	-1
0	640229	54.11	-1
0	641427	54.21	-1
0	642625	54.31	-1
0	643823	54.41	-1
0	645021	54.51	-1
0	646219	54.61	-1
0	647417	54.71	-1
0	648615	54.81	-1
0	649813	54.91	-1
0	651023	55.01	-1
0	652221	55.11	-1
0	653419	55.21	-1
0	654617	55.31	-1
0	655815	55.41	-1
0	657013	55.51	-1
0	658211	55.61	-1
0	659409	55.71	-1
0	660607	55.81	-1
0	661805	55.91	-1
0	663015	56.01	-1
0	664213	56.11	-1
0	665411	56.21	-1
0	666609	56.31	-1
0	667807	56.41	-1
0	669005	56.51	-1
0	670203	56.61	-1
0	671401	56.71	-1
0	672599	56.81	-1
0	673797	56.91	-1
0	675007	57.01	-1
0	676205	57.11	-1
0	677403	57.21	-1
0	678601	57.31	-1
0	679799	57.41	-1
0	680997	57.51	-1
0	682195	57.61	-1
0	683393	57.71	-1
0	684591	57.81	-1
0	685789	57.91	-1
0	686999	58.01	-1
0	688197	58.11	-1
0	689395	58.21	-1
0	690593	58.31	-1
0	691791	58.41	-1
0	692989	58.51	-1
0	694187	58.61	-1
0	695385	58.71	-1
0	696583	58.81	-1
0	697781	58.91	-1
0	698991	59.01	-1
0	700189	59.11	-1
0	701387	59.21	-1
0	702585	59.31	-1
0	703783	59.41	-1
0	704981	59.51	-1
0	706179	59.61	-1
0	707377	59.71	-1
0	708575	59.81	-1
0	709773	59.91	-1
0	710983	60.01	-1
0	712181	60.11	-1
0	713379	60.21	-1
0	714577	60.31	-1
0	715775	60.41	-1
0	716973	60.51	-1
0	718171	60.61	25.5665
0	719369	60.71	25.7109
0	720567	60.81	25.8554
0	721765	60.91	25.9998
0	722975	61.01	26.1443
0	724173	61.11	26.2887
0	725371	61.21	26.4331
0	726569	61.31	26.5776
0	727767	61.41	26.722
0	728965	61.51	26.8665
0	730163	61.61	27.0109
0	731361	61.71	27.1553
0	732559	61.81	27.2998
0	733757	61.91	27.4442
0	734967	62.01	27.5887
0	736165	62.11	27.7331
0	737363	62.21	27.8775
0	738561	62.31	28.022
0	739759	62.41	28.1664
0	740957	62.51	28.3109
0	742155	62.61	28.4553
0	743353	62.71	28.5997
0	744551	62.81	28.7442
0	745749	62.91	28.8886
0	746959	63.01	29.0331
0	748157	63.11	29.1775
0	749355	63.21	29.3219
0	750553	63.31	29.4664
0	751751	63.41	29.6108
0	752949	63.51	29.7553
0	754147	63.61	29.8997
0	755345	63.71	30.0441
0	756543	63.81	30.1886
0	757741	63.91	30.333
0	758951	64.01	30.4775
0	760149	64.11	30.6219
0	761347	64.21	30.7663
0	762545	64.31	30.9108
0	763743	64.41	31.0552
0	764941	64.51	31.1997
0	766139	64.61	31.3441
0	767337	64.71	31.4885
0	768535	64.81	31.633
0	769733	64.91	31.7774
0	770943	65.01	31.9219
0	772141	65.11	32.0663
0	773339	65.21	32.2107
0	774537	65.31	32.3552
0	775735	65.41	32.4996
0	776933	65.51	32.6441
0	778131	65.61	32.7885
0	779329	65.71	32.9329
0	780527	65.81	33.0774
0	781725	65.91	33.2218
0	782935	66.01	33.3663
0	784133	66.11	33.5107
0	785331	66.21	33.6551
0	786529	66.31	33.7996
0	787727	66.41	33.944
0	788925	66.51	34.0885
0	790123	66.61	34.2329
0	791321	66.71	34.3773
0	792519	66.81	34.5218
0	793717	66.91	34.6662
0	794927	67.01	34.8107
0	796125	67.11	34.9551
0	797323	67.21	35.0995
0	798521	67.31	35.244
0	799719	67.41	35.3884
0	800917	67.51	35.5329
0	802115	67.61	35.6773
0	803313	67.71	35.8217
0	804511	67.81	35.9662
0	805709	67.91	36.1106
0	806919	68.01	36.2551
0	808117	68.11	36.3995
0	809315	68.21	36.5439
0	810513	68.31	36.6884
0	811711	68.41	36.8328
0	812909	68.51	36.9773
0	814107	68.61	37.1217
0	815305	68.71	37.2661
0	816503	68.81	37.4106
0	817701	68.91	37.555
0	818911	69.01	37.6995
0	820109	69.11	37.8439
0	821307	69.21	37.9883
0	822505	69.31	38.1328
0	823703	69.41	38.2772
0	824901	69.51	38.4217
0	826099	69.61	38.5661
0	827297	69.71	38.7105
0	828495	69.81	38.855
0	829693	69.91	38.9994
0	830903	70.01	39.1439
0	832101	70.11	39.2883
0	833299	70.21	39.4327
0	834497	70.31	39.5772
0	835695	70.41	39.7216
0	836893	70.51	39.8661
0	838091	70.61	40.0105
0	839289	70.71	40.1549
0	840487	70.81	40.2994
0	841685	70.91	40.4438
0	842895	71.01	40.5883
0	844093	71.11	40.7327
0	845291	71.21	40.8771
0	846489	71.31	41.0216
0	847687	71.41	41.166
0	848885	71.51	41.3105
0	850083	71.61	41.4549
0	851281	71.71	41.5993
0	852479	71.81	41.7438
0	853677	71.91	41.8882
0	854887	72.01	42.0327
0	856085	72.11	42.1771
0	857283	72.21	42.3215
0	858481	72.31	42.466
0	859679	72.41	42.6104
0	860877	72.51	42.7549
0	862075	72.61	42.8993
0	863273	72.71	43.0437
0	864471	72.81	43.1882
0	865669	72.91	43.3326
0	866879	73.01	43.4771
0	868077	73.11	43.6215
0	869275	73.21	43.7659
0	870473	73.31	43.9104
0	871671	73.41	44.0548
0	872869	73.51	44.1993
0	874067	73.61	44.3437
0	875265	73.71	44.4881
0	876463	73.81	44.6326
0	877661	73.91	44.777
0	878871	74.01	44.9215
0	880069	74.11	45.0659
0	881267	74.21	45.2103
0	882465	74.31	45.3548
0	883663	74.41	45.4992
0	884861	74.51	45.6437
0	886059	74.61	45.7881
0	887257	74.71	45.9325
0	888455	74.81	46.077
0	889653	74.91	46.2214
0	890863	75.01	46.3659
0	892061	75.11	46.5103
0	893259	75.21	46.6547
0	894457	75.31	46.7992
0	895655	75.41	46.9436
0	896853	75.51	47.0881
0	898051	75.61	47.2325
0	899249	75.71	47.3769
0	900447	75.81	47.5214
0	901645	75.91	47.6658
0	902855	76.01	47.8103
0	904053	76.11	47.9547
0	905251	76.21	48.0991
0	906449	76.31	48.2436
0	907647	76.41	48.388
0	908845	76.51	48.5325
0	910043	76.61	48.6769
0	911241	76.71	48.8213
0	912439	76.81	48.9658
0	913637	76.91	49.1102
0	914847	77.01	49.2547
0	916045	77.11	49.3991
0	917243	77.21	49.5435
0	918441	77.31	49.688
0	919639	77.41	49.8324
0	920837	77.51	49.9769
0	922035	77.61	50.1213
0	923233	77.71	50.2657
0	924431	77.81	50.4102
0	925629	77.91	50.5546
0	926839	78.01	50.6991
0	928037	78.11	50.8435
0	929235	78.21	50.9879
0	930433	78.31	51.1324
0	931631	78.41	51.2768
0	932829	78.51	51.4213
0	934027	78.61	51.5657
0	935225	78.71	51.7101
0	936423	78.81	51.8546
0	937621	78.91	51.999
0	938831	79.01	52.1435
0	940029	79.11	52.2879
0	941227	79.21	52.4323
0	942425	79.31	52.5768
0	943623	79.41	52.7212
0	944821	79.51	52.8657
0	946019	79.61	53.0101
0	947217	79.71	53.1545
0	948415	79.81	53.299
0	949613	79.91	53.4434
0	950823	80.01	53.5879
0	952021	80.11	53.7323
0	953219	80.21	53.8767
0	954417	80.31	54.0212
0	955615	80.41	54.1656
0	956813	80.51	54.3101
0	958011	80.61	54.4545
0	959209	80.71	54.5989
0	960407	80.81	54.7434
0	961605	80.91	54.8878
0	962815	81.01	55.0323
0	964013	81.11	55.1767
0	965211	81.21	55.3211
0	966409	81.31	55.4656
0	967607	81.41	55.61
0	968805	81.51	55.7545
0	970003	81.61	55.8989
0	971201	81.71	56.0433
0	972399	81.81	56.1878
0	973597	81.91	56.3322
0	974807	82.01	56.4767
0	976005	82.11	56.6211
0	977203	82.21	56.7655
0	978401	82.31	56.91
0	979599	82.41	57.0544
0	980797	82.51	57.1989
0	981995	82.61	57.3433
0	983193	82.71	57.4877
0	984391	82.81	57.6322
0	985589	82.91	57.7766
0	986799	83.01	57.9211
0	987997	83.11	58.0655
0	989195	83.21	58.2099
0	990393	83.31	58.3544
0	991591	83.41	58.4988
0	992789	83.51	58.6433
0	993987	83.61	58.7877
0	995185	83.71	58.9321
0	996383	83.81	59.0766
0	997581	83.91	59.221
0	998791	84.01	59.3655
0	999989	84.11	59.5099
0	1001187	84.21	59.6543
0	1002385	84.31	59.7988
0	1003583	84.41	59.9432
0	1004781	84.51	60.0877
0	1005979	84.61	60.2321
0	1007177	84.71	60.3765
0	1008375	84.81	60.521
0	1009573	84.91	60.6654
0	1010783	85.01	60.8099
0	1011981	85.11	60.9543
0	1013179	85.21	61.0987
0	1014377	85.31	61.2432
0	1015575	85.41	61.3876
0	1016773	85.51	61.5321
0	1017971	85.61	61.6765
0	1019169	85.71	61.8209
0	1020367	85.81	61.9654
0	1021565	85.91	62.1098
0	1022775	86.01	62.2543
0	1023973	86.11	62.3987
0	1025171	86.21	62.5431
0	1026369	86.31	62.6876
0	1027567	86.41	62.832
0	1028765	86.51	62.9765
0	1029963	86.61	63.1209
0	1031161	86.71	63.2653
0	1032359	86.81	63.4098
0	1033557	86.91	63.5542
0	1034767	87.01	63.6987
0	1035965	87.11	63.8431
0	1037163	87.21	63.9875
0	1038361	87.31	64.132
0	1039559	87.41	64.2764
0	1040757	87.51	64.4209
0	1041955	87.61	64.5653
0	1043153	87.71	64.7097
0	1044351	87.81	64.8542
0	1045549	87.91	64.9986
0	1046759	88.01	65.1431
0	1047957	88.11	65.2875
0	1049155	88.21	65.4319
0	1050353	88.31	65.5764
0	1051551	88.41	65.7208
0	1052749	88.51	65.8653
0	1053947	88.61	66.0097
0	1055145	88.71	66.1541
0	1056343	88.81	66.2986
0	1057541	88.91	66.443
0	1058751	89.01	66.5875
0	1059949	89.11	66.7319
0	1061147	89.21	66.8763
0	1062345	89.31	67.0208
0	1063543	89.41	67.1652
0	1064741	89.51	67.3097
0	1065939	89.61	67.4541
0	1067137	89.71	67.5985
0	1068335	89.81	67.743
0	1069533	89.91	67.8874
0	1070743	90.01	68.0319
0	1071941	90.11	68.1763
0	1073139	90.21	68.3207
0	1074337	90.31	68.4652
0	1075535	90.41	68.6096
0	1076733	90.51	68.7541
0	1077931	90.61	68.8985
0	1079129	90.71	69.0429
0	1080327	90.81	69.1874
0	1081525	90.91	69.3318
0	1082735	91.01	69.4763
0	1083933	91.11	69.6207
0	1085131	91.21	69.7651
0	1086329	91.31	69.9096
0	1087527	91.41	70.054
0	1088725	91.51	70.1985
0	1089923	91.61	70.3429
0	1091121	91.71	70.4873
0	1092319	91.81	70.6318
0	1093517	91.91	70.7762
0	1094727	92.01	70.9207
0	1095925	92.11	71.0651
0	1097123	92.21	71.2095
0	1098321	92.31	71.354
0	1099519	92.41	71.4984
0	1100717	92.51	71.6429
0	1101915	92.61	71.7873
0	1103113	92.71	71.9317
0	1104311	92.81	72.0762
0	1105509	92.91	72.2206
0	1106719	93.01	72.3651
0	1107917	93.11	72.5095
0	1109115	93.21	72.6539
0	1110313	93.31	72.7984
0	1111511	93.41	72.9428
0	1112709	93.51	73.0873
0	1113907	93.61	73.2317
0	1115105	93.71	73.3761
0	1116303	93.81	73.5206
0	1117501	93.91	73.665
0	1118711	94.01	73.8095
0	1119909	94.11	73.9539
0	1121107	94.21	74.0983
0	1122305	94.31	74.2428
0	1123503	94.41	74.3872
0	1124701	94.51	74.5317
0	1125899	94.61	74.6761
0	1127097	94.71	74.8205
0	1128295	94.81	74.965
0	1129493	94.91	75.1094
0	1130703	95.01	75.2539
0	1131901	95.11	75.3983
0	1133099	95.21	75.5427
0	1134297	95.31	75.6872
0	1135495	95.41	75.8316
0	1136693	95.51	75.9761
0	1137891	95.61	76.1205
0	1139089	95.71	76.2649
0	1140287	95.81	76.4094
0	1141485	95.91	76.5538
0	1142695	96.01	76.6983
0	1143893	96.11	76.8427
0	1145091	96.21	76.9871
0	1146289	96.31	77.1316
0	1147487	96.41	77.276
0	1148685	96.51	77.4205
0	1149883	96.61	77.5649
0	1151081	96.71	77.7093
0	1152279	96.81	77.8538
0	1153477	96.91	77.9982
0	1154687	97.01	78.1427
0	1155885	97.11	78.2871
0	1157083	97.21	78.4315
0	1158281	97.31	78.576
0	1159479	97.41	78.7204
0	1160677	97.51	78.8649
0	1161875	97.61	79.0093
0	1163073	97.71	79.1537
0	1164271	97.81	79.2982
0	1165469	97.91	79.4426
0	1166679	98.01	79.5871
0	1167877	98.11	79.7315
0	1169075	98.21	79.8759
0	1170273	98.31	80.0204
0	1171471	98.41	80.1648
0	1172669	98.51	80.3093
0	1173867	98.61	80.4537
0	1175065	98.71	80.5981
0	1176263	98.81	80.7426
0	1177461	98.91	80.887
0	1178671	99.01	81.0315
0	1179869	99.11	81.1759
0	1181067	99.21	81.3203
0	1182265	99.31	81.4648
0	1183463	99.41	81.6092
0	1184661	99.51	81.7537
0	1185859	99.61	81.8981
0	1187057	99.71	82.0425
0	1188255	99.81	82.187
0	1189453	99.91	82.3314
1	113	1.11	0
1	1311	1.21	0
1	2509	1.31	0
1	3707	1.41	0
1	4905	1.51	0
1	6103	1.61	0
1	7301	1.71	0
1	8499	1.81	0
1	9697	1.91	0
1	10907	2.01	0
1	12105	2.11	0
1	13303	2.21	0
1	14501	2.31	0
1	15699	2.41	0
1	16897	2.51	0
1	18095	2.61	0
1	19293	2.71	0
1	20491	2.81	0
1	21689	2.91	0
1	22899	3.01	0
1	24097	3.11	0
1	25295	3.21	0
1	26493	3.31	0
1	27691	3.41	0
1	28889	3.51	0
1	30087	3.61	0
1	31285	3.71	0
1	32483	3.81	0
1	33681	3.91	0
1	34891	4.01	0
1	36089	4.11	0
1	37287	4.21	0
1	38485	4.31	0
1	39683	4.41	0
1	40881	4.51	0
1	42079	4.61	0
1	43277	4.71	0
1	44475	4.81	0
1	45673	4.91	0
1	46883	5.01	0
1	48081	5.11	0
1	49279	5.21	0
1	50477	5.31	0
1	51675	5.41	0
1	52873	5.51	0
1	54071	5.61	0
1	55269	5.71	0
1	56467	5.81	0
1	57665	5.91	0
1	58875	6.01	0
1	60073	6.11	0
1	61271	6.21	0
1	62469	6.31	0
1	63667	6.41	0
1	64865	6.51	0
1	66063	6.61	0
1	67261	6.71	0
1	68459	6.81	0
1	69657	6.91	0
1	70867	7.01	0
1	72065	7.11	0
1	73263	7.21	0
1	74461	7.31	0
1	75659	7.41	0
1	76857	7.51	0
1	78055	7.61	0
1	79253	7.71	0
1	80451	7.81	0
1	81649	7.91	0
1	82859	8.01	0
1	84057	8.11	0
1	85255	8.21	0
1	86453	8.31	0
1	87651	8.41	0
1	88849	8.51	0
1	90047	8.61	0
1	91245	8.71	0
1	92443	8.81	0
1	93641	8.91	0
1	94851	9.01	0
1	96049	9.11	0
1	97247	9.21	0
1	98445	9.31	0
1	99643	9.41	0
1	100841	9.51	0
1	102039	9.61	0
1	103237	9.71	0
1	104435	9.81	0
1	105633	9.91	0
1	111383	10.01	0
1	112581	10.11	0
1	113779	10.21	0
1	114977	10.31	0
1	116175	10.41	0
1	117373	10.51	0
1	118571	10.61	0
1	119769	10.71	0
1	120967	10.81	0
1	122165	10.91	0
1	123375	11.01	0
1	124573	11.11	0
1	125771	11.21	0
1	126969	11.31	0
1	128167	11.41	0
1	129365	11.51	0
1	130563	11.61	0
1	131761	11.71	0
1	132959	11.81	0
1	134157	11.91	0
1	135367	12.01	0
1	136565	12.11	0
1	137763	12.21	0
1	138961	12.31	0
1	140159	12.41	0
1	141357	12.51	0
1	142555	12.61	0
1	143753	12.71	0
1	144951	12.81	0
1	146149	12.91	0
1	147359	13.01	0
1	148557	13.11	0
1	149755	13.21	0
1	150953	13.31	0
1	152151	13.41	0
1	153349	13.51	0
1	154547	13.61	0
1	155745	13.71	0
1	156943	13.81	0
1	158141	13.91	0
1	159351	14.01	0
1	160549	14.11	0
1	161747	14.21	0
1	162945	14.31	0
1	164143	14.41	0
1	165341	14.51	0
1	166539	14.61	0
1	167737	14.71	0
1	168935	14.81	0
1	170133	14.91	0
1	171343	15.01	0
1	172541	15.11	0
1	173739	15.21	0
1	174937	15.31	0
1	176135	15.41	0
1	177333	15.51	0
1	178531	15.61	0
1	179729	15.71	0
1	180927	15.81	0
1	182125	15.91	0
1	183335	16.01	0
1	184533	16.11	0
1	185731	16.21	0
1	186929	16.31	0
1	188127	16.41	0
1	189325	16.51	0
1	190523	16.61	0
1	191721	16.71	0
1	192919	16.81	0
1	194117	16.91	0
1	195327	17.01	0
1	196525	17.11	0
1	197723	17.21	0
1	198921	17.31	0
1	200119	17.41	0
1	201317	17.51	0
1	202515	17.61	0
1	203713	17.71	0
1	204911	17.81	0
1	206109	17.91	0
1	207319	18.01	0
1	208517	18.11	0
1	209715	18.21	0
1	210913	18.31	0
1	212111	18.41	0
1	213309	18.51	0
1	214507	18.61	0
1	215705	18.71	0
1	216903	18.81	0
1	218101	18.91	0
1	219311	19.01	0
1	220509	19.11	0
1	221707	19.21	0
1	222905	19.31	0
1	224103	19.41	0
1	225301	19.51	0
1	226499	19.61	0
1	227697	19.71	0
1	228895	19.81	0
1	230093	19.91	0
1	231303	20.01	0
1	232501	20.11	0
1	233699	20.21	0
1	234897	20.31	0
1	236095	20.41	0
1	237293	20.51	0
1	238491	20.61	0
1	239689	20.71	0
1	240887	20.81	0
1	242085	20.91	0
1	243295	21.01	0
1	244493	21.11	0
1	245691	21.21	0
1	246889	21.31	0
1	248087	21.41	0
1	249285	21.51	0
1	250483	21.61	0
1	251681	21.71	0
1	252879	21.81	0
1	254077	21.91	0
1	255287	22.01	0
1	256485	22.11	0
1	257683	22.21	0
1	258881	22.31	0
1	260079	22.41	0
1	261277	22.51	0
1	262475	22.61	0
1	263673	22.71	0
1	264871	22.81	0
1	266069	22.91	0
1	267279	23.01	0
1	268477	23.11	0
1	269675	23.21	0
1	270873	23.31	0
1	272071	23.41	0
1	273269	23.51	0
1	274467	23.61	0
1	275665	23.71	0
1	276863	23.81	0
1	278061	23.91	0
1	279271	24.01	0
1	280469	24.11	0
1	281667	24.21	0
1	282865	24.31	0
1	284063	24.41	0
1	285261	24.51	0
1	286459	24.61	0
1	287657	24.71	0
1	288855	24.81	0
1	290053	24.91	0
1	291263	25.01	0
1	292461	25.11	0
1	293659	25.21	0
1	294857	25.31	0
1	296055	25.41	0
1	297253	25.51	0
1	298451	25.61	0
1	299649	25.71	0
1	300847	25.81	0
1	302045	25.91	0
1	303255	26.01	0
1	304453	26.11	0
1	305651	26.21	0
1	306849	26.31	0
1	308047	26.41	0
1	309245	26.51	0
1	310443	26.61	0
1	311641	26.71	0
1	312839	26.81	0
1	314037	26.91	0
1	315247	27.01	0
1	316445	27.11	0
1	317643	27.21	0
1	318841	27.31	0
1	320039	27.41	0
1	321237	27.51	0
1	322435	27.61	0
1	323633	27.71	0
1	324831	27.81	0
1	326029	27.91	0
1	327239	28.01	0
1	328437	28.11	0
1	329635	28.21	0
1	330833	28.31	0
1	332031	28.41	0
1	333229	28.51	0
1	334427	28.61	0
1	335625	28.71	0
1	336823	28.81	0
1	338021	28.91	0
1	339231	29.01	0
1	340429	29.11	0
1	341627	29.21	0
1	342825	29.31	0
1	344023	29.41	0
1	345221	29.51	0
1	346419	29.61	0
1	347617	29.71	0
1	348815	29.81	0
1	350013	29.91	0
1	351223	30.01	0
1	352421	30.11	0
1	353619	30.21	0
1	354817	30.31	0
1	356015	30.41	0
1	357213	30.51	0
1	358411	30.61	0
1	359609	30.71	0
1	360807	30.81	0
1	362005	30.91	0
1	363215	31.01	0
1	364413	31.11	0
1	365611	31.21	0
1	366809	31.31	0
1	368007	31.41	0
1	369205	31.51	0
1	370403	31.61	0
1	371601	31.71	0
1	372799	31.81	0
1	373997	31.91	0
1	375207	32.01	0
1	376405	32.11	0
1	377603	32.21	0
1	378801	32.31	0
1	379999	32.41	0
1	381197	32.51	0
1	382395	32.61	0
1	383593	32.71	0
1	384791	32.81	0
1	385989	32.91	0
1	387199	33.01	0
1	388397	33.11	0
1	389595	33.21	0
1	390793	33.31	0
1	391991	33.41	0
1	393189	33.51	0
1	394387	33.61	0
1	395585	33.71	0
1	396783	33.81	0
1	397981	33.91	0
1	399191	34.01	0
1	400389	34.11	0
1	401587	34.21	0
1	402785	34.31	0
1	403983	34.41	0
1	405181	34.51	0
1	406379	34.61	0
1	407577	34.71	0
1	408775	34.81	0
1	409973	34.91	0
1	411183	35.01	0
1	412381	35.11	0
1	413579	35.21	0
1	414777	35.31	0
1	415975	35.41	0
1	417173	35.51	0
1	418371	35.61	0
1	419569	35.71	0
1	420767	35.81	0
1	421965	35.91	0
1	423175	36.01	0
1	424373	36.11	0
1	425571	36.21	0
1	426769	36.31	0
1	427967	36.41	0
1	429165	36.51	0
1	430363	36.61	0
1	431561	36.71	0
1	432759	36.81	0
1	433957	36.91	0
1	435167	37.01	0
1	436365	37.11	0
1	437563	37.21	0
1	438761	37.31	0
1	439959	37.41	0
1	441157	37.51	0
1	442355	37.61	0
1	443553	37.71	0
1	444751	37.81	0
1	445949	37.91	0
1	447159	38.01	0
1	448357	38.11	0
1	449555	38.21	0
1	450753	38.31	0
1	451951	38.41	0
1	453149	38.51	0
1	454347	38.61	0
1	455545	38.71	0
1	456743	38.81	0
1	457941	38.91	0
1	459151	39.01	0
1	460349	39.11	0
1	461547	39.21	0
1	462745	39.31	0
1	463943	39.41	0
1	465141	39.51	0
1	466339	39.61	0
1	467537	39.71	0
1	468735	39.81	0
1	469933	39.91	0
1	471143	40.01	0
1	472341	40.11	0
1	473539	40.21	0
1	474737	40.31	0
1	475935	40.41	0
1	477133	40.51	0
1	478331	40.61	0
1	479529	40.71	0
1	480727	40.81	0
1	481925	40.91	0
1	483135	41.01	0
1	484333	41.11	0
1	485531	41.21	0
1	486729	41.31	0
1	487927	41.41	0
1	489125	41.51	0
1	490323	41.61	0
1	491521	41.71	0
1	492719	41.81	0
1	493917	41.91	0
1	495127	42.01	0
1	496325	42.11	0
1	497523	42.21	0
1	498721	42.31	0
1	499919	42.41	0
1	501117	42.51	0
1	502315	42.61	0
1	503513	42.71	0
1	504711	42.81	0
1	505909	42.91	0
1	507119	43.01	0
1	508317	43.11	0
1	509515	43.21	0
1	510713	43.31	0
1	511911	43.41	0
1	513109	43.51	0
1	514307	43.61	0
1	515505	43.71	0
1	516703	43.81	0
1	517901	43.91	0
1	519111	44.01	0
1	520309	44.11	0
1	521507	44.21	0
1	522705	44.31	0
1	523903	44.41	0
1	525101	44.51	0
1	526299	44.61	0
1	527497	44.71	0
1	528695	44.81	0
1	529893	44.91	0
1	531103	45.01	0
1	532301	45.11	0
1	533499	45.21	0
1	534697	45.31	0
1	535895	45.41	0
1	537093	45.51	0
1	538291	45.61	0
1	539489	45.71	0
1	540687	45.81	0
1	541885	45.91	0
1	543095	46.01	0
1	544293	46.11	0
1	545491	46.21	0
1	546689	46.31	0
1	547887	46.41	0
1	549085	46.51	0
1	550283	46.61	0
1	551481	46.71	0
1	552679	46.81	0
1	553877	46.91	0
1	555087	47.01	0
1	556285	47.11	0
1	557483	47.21	0
1	558681	47.31	0
1	559879	47.41	0
1	561077	47.51	0
1	562275	47.61	0
1	563473	47.71	0
1	564671	47.81	0
1	565869	47.91	0
1	567079	48.01	0
1	568277	48.11	0
1	569475	48.21	0
1	570673	48.31	0
1	571871	48.41	0
1	573069	48.51	0
1	574267	48.61	0
1	575465	48.71	0
1	576663	48.81	0
1	577861	48.91	0
1	579071	49.01	0
1	580269	49.11	0
1	581467	49.21	0
1	582665	49.31	0
1	583863	49.41	0
1	585061	49.51	0
1	586259	49.61	0
1	587457	49.71	0
1	588655	49.81	0
1	589853	49.91	0
1	591063	50.01	0
1	592261	50.11	0
1	593459	50.21	0
1	594657	50.31	0
1	595855	50.41	0
1	597053	50.51	0
1	598251	50.61	0
1	599449	50.71	0
1	600647	50.81	0
1	601845	50.91	0
1	603055	51.01	0
1	604253	51.11	0
1	605451	51.21	0
1	606649	51.31	0
1	607847	51.41	0
1	609045	51.51	0
1	610243	51.61	0
1	611441	51.71	0
1	612639	51.81	0
1	613837	51.91	0
1	615047	52.01	0
1	616245	52.11	0
1	617443	52.21	0
1	618641	52.31	0
1	619839	52.41	0
1	621037	52.51	0
1	622235	52.61	0
1	623433	52.71	0
1	624631	52.81	0
1	625829	52.91	0
1	627039	53.01	0
1	628237	53.11	0
1	629435	53.21	0
1	630633	53.31	0
1	631831	53.41	0
1	633029	53.51	0
1	634227	53.61	0
1	635425	53.71	0
1	636623	53.81	0
1	637821	53.91	0
1	639031	54.01	0
1	640229	54.11	0
1	641427	54.21	0
1	642625	54.31	0
1	643823	54.41	0
1	645021	54.51	0
1	646219	54.61	0
1	647417	54.71	0
1	648615	54.81	0
1	649813	54.91	0
1	651023	55.01	0
1	652221	55.11	0
1	653419	55.21	0
1	654617	55.31	0
1	655815	55.41	0
1	657013	55.51	0
1	658211	55.61	0
1	659409	55.71	0
1	660607	55.81	0
1	661805	55.91	0
1	663015	56.01	0
1	664213	56.11	0
1	665411	56.21	0
1	666609	56.31	0
1	667807	56.41	0
1	669005	56.51	0
1	670203	56.61	0
1	671401	56.71	0
1	672599	56.81	0
1	673797	56.91	0
1	675007	57.01	0
1	676205	57.11	0
1	677403	57.21	0
1	678601	57.31	0
1	679799	57.41	0
1	680997	57.51	0
1	682195	57.61	0
1	683393	57.71	0
1	684591	57.81	0
1	685789	57.91	0
1	686999	58.01	0
1	688197	58.11	0
1	689395	58.21	0
1	690593	58.31	0
1	691791	58.41	0
1	692989	58.51	0
1	694187	58.61	0
1	695385	58.71	0
1	696583	58.81	0
1	697781	58.91	0
1	698991	59.01	0
1	700189	59.11	0
1	701387	59.21	0
1	702585	59.31	0
1	703783	59.41	0
1	704981	59.51	0
1	706179	59.61	0
1	707377	59.71	0
1	708575	59.81	0
1	709773	59.91	0
1	710983	60.01	0
1	712181	60.11	0
1	713379	60.21	0
1	714577	60.31	0
1	715775	60.41	0
1	716973	60.51	0
1	718171	60.61	1.4444
1	719369	60.71	1.4444
1	720567	60.81	1.4444
1	721765	60.91	1.4444
1	722975	61.01	1.4444
1	724173	61.11	1.4444
1	725371	61.21	1.4444
1	726569	61.31	1.4444
1	727767	61.41	1.4444
1	728965	61.51	1.4444
1	730163	61.61	1.4444
1	731361	61.71	1.4444
1	732559	61.81	1.4444
1	733757	61.91	1.4444
1	734967	62.01	1.4444
1	736165	62.11	1.4444
1	737363	62.21	1.4444
1	738561	62.31	1.4444
1	739759	62.41	1.4444
1	740957	62.51	1.4444
1	742155	62.61	1.4444
1	743353	62.71	1.4444
1	744551	62.81	1.4444
1	745749	62.91	1.4444
1	746959	63.01	1.4444
1	748157	63.11	1.4444
1	749355	63.21	1.4444
1	750553	63.31	1.4444
1	751751	63.41	1.4444
1	752949	63.51	1.4444
1	754147	63.61	1.4444
1	755345	63.71	1.4444
1	756543	63.81	1.4444
1	757741	63.91	1.4444
1	758951	64.01	1.4444
1	760149	64.11	1.4444
1	761347	64.21	1.4444
1	762545	64.31	1.4444
1	763743	64.41	1.4444
1	764941	64.51	1.4444
1	766139	64.61	1.4444
1	767337	64.71	1.4444
1	768535	64.81	1.4444
1	769733	64.91	1.4444
1	770943	65.01	1.4444
1	772141	65.11	1.4444
1	773339	65.21	1.4444
1	774537	65.31	1.4444
1	775735	65.41	1.4444
1	776933	65.51	1.4444
1	778131	65.61	1.4444
1	779329	65.71	1.4444
1	780527	65.81	1.4444
1	781725	65.91	1.4444
1	782935	66.01	1.4444
1	784133	66.11	1.4444
1	785331	66.21	1.4444
1	786529	66.31	1.4444
1	787727	66.41	1.4444
1	788925	66.51	1.4444
1	790123	66.61	1.4444
1	791321	66.71	1.4444
1	792519	66.81	1.4444
1	793717	66.91	1.4444
1	794927	67.01	1.4444
1	796125	67.11	1.4444
1	797323	67.21	1.4444
1	798521	67.31	1.4444
1	799719	67.41	1.4444
1	800917	67.51	1.4444
1	802115	67.61	1.4444
1	803313	67.71	1.4444
1	804511	67.81	1.4444
1	805709	67.91	1.4444
1	806919	68.01	1.4444
1	808117	68.11	1.4444
1	809315	68.21	1.4444
1	810513	68.31	1.4444
1	811711	68.41	1.4444
1	812909	68.51	1.4444
1	814107	68.61	1.4444
1	815305	68.71	1.4444
1	816503	68.81	1.4444
1	817701	68.91	1.4444
1	818911	69.01	1.4444
1	820109	69.11	1.4444
1	821307	69.21	1.4444
1	822505	69.31	1.4444
1	823703	69.41	1.4444
1	824901	69.51	1.4444
1	826099	69.61	1.4444
1	827297	69.71	1.4444
1	828495	69.81	1.4444
1	829693	69.91	1.4444
1	830903	70.01	1.4444
1	832101	70.11	1.4444
1	833299	70.21	1.4444
1	834497	70.31	1.4444
1	835695	70.41	1.4444
1	836893	70.51	1.4444
1	838091	70.61	1.4444
1	839289	70.71	1.4444
1	840487	70.81	1.4444
1	841685	70.91	1.4444
1	842895	71.01	1.4444
1	844093	71.11	1.4444
1	845291	71.21	1.4444
1	846489	71.31	1.4444
1	847687	71.41	1.4444
1	848885	71.51	1.4444
1	850083	71.61	1.4444
1	851281	71.71	1.4444
1	852479	71.81	1.4444
1	853677	71.91	1.4444
1	854887	72.01	1.4444
1	856085	72.11	1.4444
1	857283	72.21	1.4444
1	858481	72.31	1.4444
1	859679	72.41	1.4444
1	860877	72.51	1.4444
1	862075	72.61	1.4444
1	863273	72.71	1.4444
1	864471	72.81	1.4444
1	865669	72.91	1.4444
1	866879	73.01	1.4444
1	868077	73.11	1.4444
1	869275	73.21	1.4444
1	870473	73.31	1.4444
1	871671	73.41	1.4444
1	872869	73.51	1.4444
1	874067	73.61	1.4444
1	875265	73.71	1.4444
1	876463	73.81	1.4444
1	877661	73.91	1.4444
1	878871	74.01	1.4444
1	880069	74.11	1.4444
1	881267	74.21	1.4444
1	882465	74.31	1.4444
1	883663	74.41	1.4444
1	884861	74.51	1.4444
1	886059	74.61	1.4444
1	887257	74.71	1.4444
1	888455	74.81	1.4444
1	889653	74.91	1.4444
1	890863	75.01	1.4444
1	892061	75.11	1.4444
1	893259	75.21	1.4444
1	894457	75.31	1.4444
1	895655	75.41	1.4444
1	896853	75.51	1.4444
1	898051	75.61	1.4444
1	899249	75.71	1.4444
1	900447	75.81	1.4444
1	901645	75.91	1.4444
1	902855	76.01	1.4444
1	904053	76.11	1.4444
1	905251	76.21	1.4444
1	906449	76.31	1.4444
1	907647	76.41	1.4444
1	908845	76.51	1.4444
1	910043	76.61	1.4444
1	911241	76.71	1.4444
1	912439	76.81	1.4444
1	913637	76.91	1.4444
1	914847	77.01	1.4444
1	916045	77.11	1.4444
1	917243	77.21	1.4444
1	918441	77.31	1.4444
1	919639	77.41	1.4444
1	920837	77.51	1.4444
1	922035	77.61	1.4444
1	923233	77.71	1.4444
1	924431	77.81	1.4444
1	925629	77.91	1.4444
1	926839	78.01	1.4444
1	928037	78.11	1.4444
1	929235	78.21	1.4444
1	930433	78.31	1.4444
1	931631	78.41	1.4444
1	932829	78.51	1.4444
1	934027	78.61	1.4444
1	935225	78.71	1.4444
1	936423	78.81	1.4444
1	937621	78.91	1.4444
1	938831	79.01	1.4444
1	940029	79.11	1.4444
1	941227	79.21	1.4444
1	942425	79.31	1.4444
1	943623	79.41	1.4444
1	944821	79.51	1.4444
1	946019	79.61	1.4444
1	947217	79.71	1.4444
1	948415	79.81	1.4444
1	949613	79.91	1.4444
1	950823	80.01	1.4444
1	952021	80.11	1.4444
1	953219	80.21	1.4444
1	954417	80.31	1.4444
1	955615	80.41	1.4444
1	956813	80.51	1.4444
1	958011	80.61	1.4444
1	959209	80.71	1.4444
1	960407	80.81	1.4444
1	961605	80.91	1.4444
1	962815	81.01	1.4444
1	964013	81.11	1.4444
1	965211	81.21	1.4444
1	966409	81.31	1.4444
1	967607	81.41	1.4444
1	968805	81.51	1.4444
1	970003	81.61	1.4444
1	971201	81.71	1.4444
1	972399	81.81	1.4444
1	973597	81.91	1.4444
1	974807	82.01	1.4444
1	976005	82.11	1.4444
1	977203	82.21	1.4444
1	978401	82.31	1.4444
1	979599	82.41	1.4444
1	980797	82.51	1.4444
1	981995	82.61	1.4444
1	983193	82.71	1.4444
1	984391	82.81	1.4444
1	985589	82.91	1.4444
1	986799	83.01	1.4444
1	987997	83.11	1.4444
1	989195	83.21	1.4444
1	990393	83.31	1.4444
1	991591	83.41	1.4444
1	992789	83.51	1.4444
1	993987	83.61	1.4444
1	995185	83.71	1.4444
1	996383	83.81	1.4444
1	997581	83.91	1.4444
1	998791	84.01	1.4444
1	999989	84.11	1.4444
1	1001187	84.21	1.4444
1	1002385	84.31	1.4444
1	1003583	84.41	1.4444
1	1004781	84.51	1.4444
1	1005979	84.61	1.4444
1	1007177	84.71	1.4444
1	1008375	84.81	1.4444
1	1009573	84.91	1.4444
1	1010783	85.01	1.4444
1	1011981	85.11	1.4444
1	1013179	85.21	1.4444
1	1014377	85.31	1.4444
1	1015575	85.41	1.4444
1	1016773	85.51	1.4444
1	1017971	85.61	1.4444
1	1019169	85.71	1.4444
1	1020367	85.81	1.4444
1	1021565	85.91	1.4444
1	1022775	86.01	1.4444
1	1023973	86.11	1.4444
1	1025171	86.21	1.4444
1	1026369	86.31	1.4444
1	1027567	86.41	1.4444
1	1028765	86.51	1.4444
1	1029963	86.61	1.4444
1	1031161	86.71	1.4444
1	1032359	86.81	1.4444
1	1033557	86.91	1.4444
1	1034767	87.01	1.4444
1	1035965	87.11	1.4444
1	1037163	87.21	1.4444
1	1038361	87.31	1.4444
1	1039559	87.41	1.4444
1	1040757	87.51	1.4444
1	1041955	87.61	1.4444
1	1043153	87.71	1.4444
1	1044351	87.81	1.4444
1	1045549	87.91	1.4444
1	1046759	88.01	1.4444
1	1047957	88.11	1.4444
1	1049155	88.21	1.4444
1	1050353	88.31	1.4444
1	1051551	88.41	1.4444
1	1052749	88.51	1.4444
1	1053947	88.61	1.4444
1	1055145	88.71	1.4444
1	1056343	88.81	1.4444
1	1057541	88.91	1.4444
1	1058751	89.01	1.4444
1	1059949	89.11	1.4444
1	1061147	89.21	1.4444
1	1062345	89.31	1.4444
1	1063543	89.41	1.4444
1	1064741	89.51	1.4444
1	1065939	89.61	1.4444
1	1067137	89.71	1.4444
1	1068335	89.81	1.4444
1	1069533	89.91	1.4444
1	1070743	90.01	1.4444
1	1071941	90.11	1.4444
1	1073139	90.21	1.4444
1	1074337	90.31	1.4444
1	1075535	90.41	1.4444
1	1076733	90.51	1.4444
1	1077931	90.61	1.4444
1	1079129	90.71	1.4444
1	1080327	90.81	1.4444
1	1081525	90.91	1.4444
1	1082735	91.01	1.4444
1	1083933	91.11	1.4444
1	1085131	91.21	1.4444
1	1086329	91.31	1.4444
1	1087527	91.41	1.4444
1	1088725	91.51	1.4444
1	1089923	91.61	1.4444
1	1091121	91.71	1.4444
1	1092319	91.81	1.4444
1	1093517	91.91	1.4444
1	1094727	92.01	1.4444
1	1095925	92.11	1.4444
1	1097123	92.21	1.4444
1	1098321	92.31	1.4444
1	1099519	92.41	1.4444
1	1100717	92.51	1.4444
1	1101915	92.61	1.4444
1	1103113	92.71	1.4444
1	1104311	92.81	1.4444
1	1105509	92.91	1.4444
1	1106719	93.01	1.4444
1	1107917	93.11	1.4444
1	1109115	93.21	1.4444
1	1110313	93.31	1.4444
1	1111511	93.41	1.4444
1	1112709	93.51	1.4444
1	1113907	93.61	1.4444
1	1115105	93.71	1.4444
1	1116303	93.81	1.4444
1	1117501	93.91	1.4444
1	1118711	94.01	1.4444
1	1119909	94.11	1.4444
1	1121107	94.21	1.4444
1	1122305	94.31	1.4444
1	1123503	94.41	1.4444
1	1124701	94.51	1.4444
1	1125899	94.61	1.4444
1	1127097	94.71	1.4444
1	1128295	94.81	1.4444
1	1129493	94.91	1.4444
1	1130703	95.01	1.4444
1	1131901	95.11	1.4444
1	1133099	95.21	1.4444
1	1134297	95.31	1.4444
1	1135495	95.41	1.4444
1	1136693	95.51	1.4444
1	1137891	95.61	1.4444
1	1139089	95.71	1.4444
1	1140287	95.81	1.4444
1	1141485	95.91	1.4444
1	1142695	96.01	1.4444
1	1143893	96.11	1.4444
1	1145091	96.21	1.4444
1	1146289	96.31	1.4444
1	1147487	96.41	1.4444
1	1148685	96.51	1.4444
1	1149883	96.61	1.4444
1	1151081	96.71	1.4444
1	1152279	96.81	1.4444
1	1153477	96.91	1.4444
1	1154687	97.01	1.4444
1	1155885	97.11	1.4444
1	1157083	97.21	1.4444
1	1158281	97.31	1.4444
1	1159479	97.41	1.4444
1	1160677	97.51	1.4444
1	1161875	97.61	1.4444
1	1163073	97.71	1.4444
1	1164271	97.81	1.4444
1	1165469	97.91	1.4444
1	1166679	98.01	1.4444
1	1167877	98.11	1.4444
1	1169075	98.21	1.4444
1	1170273	98.31	1.4444
1	1171471	98.41	1.4444
1	1172669	98.51	1.4444
1	1173867	98.61	1.4444
1	1175065	98.71	1.4444
1	1176263	98.81	1.4444
1	1177461	98.91	1.4444
1	1178671	99.01	1.4444
1	1179869	99.11	1.4444
1	1181067	99.21	1.4444
1	1182265	99.31	1.4444
1	1183463	99.41	1.4444
1	1184661	99.51	1.4444
1	1185859	99.61	1.4444
1	1187057	99.71	1.4444
1	1188255	99.81	1.4444
1	1189453	99.91	1.4444
2	113	1.11	0
2	1311	1.21	0
2	2509	1.31	0
2	3707	1.41	0
2	4905	1.51	0
2	6103	1.61	0
2	7301	1.71	0
2	8499	1.81	0
2	9697	1.91	0
2	10907	2.01	0
2	12105	2.11	0
2	13303	2.21	0
2	14501	2.31	0
2	15699	2.41	0
2	16897	2.51	0
2	18095	2.61	0
2	19293	2.71	0
2	20491	2.81	0
2	21689	2.91	0
2	22899	3.01	0
2	24097	3.11	0
2	25295	3.21	0
2	26493	3.31	0
2	27691	3.41	0
2	28889	3.51	0
2	30087	3.61	0
2	31285	3.71	0
2	32483	3.81	0
2	33681	3.91	0
2	34891	4.01	0
2	36089	4.11	0
2	37287	4.21	0
2	38485	4.31	0
2	39683	4.41	0
2	40881	4.51	0
2	42079	4.61	0
2	43277	4.71	0
2	44475	4.81	0
2	45673	4.91	0
2	46883	5.01	0
2	48081	5.11	0
2	49279	5.21	0
2	50477	5.31	0
2	51675	5.41	0
2	52873	5.51	0
2	54071	5.61	0
2	55269	5.71	0
2	56467	5.81	0
2	57665	5.91	0
2	58875	6.01	0
2	60073	6.11	0
2	61271	6.21	0
2	62469	6.31	0
2	63667	6.41	0
2	64865	6.51	0
2	66063	6.61	0
2	67261	6.71	0
2	68459	6.81	0
2	69657	6.91	0
2	70867	7.01	0
2	72065	7.11	0
2	73263	7.21	0
2	74461	7.31	0
2	75659	7.41	0
2	76857	7.51	0
2	78055	7.61	0
2	79253	7.71	0
2	80451	7.81	0
2	81649	7.91	0
2	82859	8.01	0
2	84057	8.11	0
2	85255	8.21	0
2	86453	8.31	0
2	87651	8.41	0
2	88849	8.51	0
2	90047	8.61	0
2	91245	8.71	0
2	92443	8.81	0
2	93641	8.91	0
2	94851	9.01	0
2	96049	9.11	0
2	97247	9.21	0
2	98445	9.31	0
2	99643	9.41	0
2	100841	9.51	0
2	102039	9.61	0
2	103237	9.71	0
2	104435	9.81	0
2	105633	9.91	0
2	111383	10.01	0
2	112581	10.11	0
2	113779	10.21	0
2	114977	10.31	0
2	116175	10.41	0
2	117373	10.51	0
2	118571	10.61	0
2	119769	10.71	0
2	120967	10.81	0
2	122165	10.91	0
2	123375	11.01	0
2	124573	11.11	0
2	125771	11.21	0
2	126969	11.31	0
2	128167	11.41	0
2	129365	11.51	0
2	130563	11.61	0
2	131761	11.71	0
2	132959	11.81	0
2	134157	11.91	0
2	135367	12.01	0
2	136565	12.11	0
2	137763	12.21	0
2	138961	12.31	0
2	140159	12.41	0
2	141357	12.51	0
2	142555	12.61	0
2	143753	12.71	0
2	144951	12.81	0
2	146149	12.91	0
2	147359	13.01	0
2	148557	13.11	0
2	149755	13.21	0
2	150953	13.31	0
2	152151	13.41	0
2	153349	13.51	0
2	154547	13.61	0
2	155745	13.71	0
2	156943	13.81	0
2	158141	13.91	0
2	159351	14.01	0
2	160549	14.11	0
2	161747	14.21	0
2	162945	14.31	0
2	164143	14.41	0
2	165341	14.51	0
2	166539	14.61	0
2	167737	14.71	0
2	168935	14.81	0
2	170133	14.91	0
2	171343	15.01	0
2	172541	15.11	0
2	173739	15.21	0
2	174937	15.31	0
2	176135	15.41	0
2	177333	15.51	0
2	178531	15.61	0
2	179729	15.71	0
2	180927	15.81	0
2	182125	15.91	0
2	183335	16.01	0
2	184533	16.11	0
2	185731	16.21	0
2	186929	16.31	0
2	188127	16.41	0
2	189325	16.51	0
2	190523	16.61	0
2	191721	16.71	0
2	192919	16.81	0
2	194117	16.91	0
2	195327	17.01	0
2	196525	17.11	0
2	197723	17.21	0
2	198921	17.31	0
2	200119	17.41	0
2	201317	17.51	0
2	202515	17.61	0
2	203713	17.71	0
2	204911	17.81	0
2	206109	17.91	0
2	207319	18.01	0
2	208517	18.11	0
2	209715	18.21	0
2	210913	18.31	0
2	212111	18.41	0
2	213309	18.51	0
2	214507	18.61	0
2	215705	18.71	0
2	216903	18.81	0
2	218101	18.91	0
2	219311	19.01	0
2	220509	19.11	0
2	221707	19.21	0
2	222905	19.31	0
2	224103	19.41	0
2	225301	19.51	0
2	226499	19.61	0
2	227697	19.71	0
2	228895	19.81	0
2	230093	19.91	0
2	231303	20.01	0
2	232501	20.11	0
2	233699	20.21	0
2	234897	20.31	0
2	236095	20.41	0
2	237293	20.51	0
2	238491	20.61	0
2	239689	20.71	0
2	240887	20.81	0
2	242085	20.91	0
2	243295	21.01	0
2	244493	21.11	0
2	245691	21.21	0
2	246889	21.31	0
2	248087	21.41	0
2	249285	21.51	0
2	250483	21.61	0
2	251681	21.71	0
2	252879	21.81	0
2	254077	21.91	0
2	255287	22.01	0
2	256485	22.11	0
2	257683	22.21	0
2	258881	22.31	0
2	260079	22.41	0
2	261277	22.51	0
2	262475	22.61	0
2	263673	22.71	0
2	264871	22.81	0
2	266069	22.91	0
2	267279	23.01	0
2	268477	23.11	0
2	269675	23.21	0
2	270873	23.31	0
2	272071	23.41	0
2	273269	23.51	0
2	274467	23.61	0
2	275665	23.71	0
2	276863	23.81	0
2	278061	23.91	0
2	279271	24.01	0
2	280469	24.11	0
2	281667	24.21	0
2	282865	24.31	0
2	284063	24.41	0
2	285261	24.51	0
2	286459	24.61	0
2	287657	24.71	0
2	288855	24.81	0
2	290053	24.91	0
2	291263	25.01	0
2	292461	25.11	0
2	293659	25.21	0
2	294857	25.31	0
2	296055	25.41	0
2	297253	25.51	0
2	298451	25.61	0
2	299649	25.71	0
2	300847	25.81	0
2	302045	25.91	0
2	303255	26.01	0
2	304453	26.11	0
2	305651	26.21	0
2	306849	26.31	0
2	308047	26.41	0
2	309245	26.51	0
2	310443	26.61	0
2	311641	26.71	0
2	312839	26.81	0
2	314037	26.91	0
2	315247	27.01	0
2	316445	27.11	0
2	317643	27.21	0
2	318841	27.31	0
2	320039	27.41	0
2	321237	27.51	0
2	322435	27.61	0
2	323633	27.71	0
2	324831	27.81	0
2	326029	27.91	0
2	327239	28.01	0
2	328437	28.11	0
2	329635	28.21	0
2	330833	28.31	0
2	332031	28.41	0
2	333229	28.51	0
2	334427	28.61	0
2	335625	28.71	0
2	336823	28.81	0
2	338021	28.91	0
2	339231	29.01	0
2	340429	29.11	0
2	341627	29.21	0
2	342825	29.31	0
2	344023	29.41	0
2	345221	29.51	0
2	346419	29.61	0
2	347617	29.71	0
2	348815	29.81	0
2	350013	29.91	0
2	351223	30.01	0
2	352421	30.11	0
2	353619	30.21	0
2	354817	30.31	0
2	356015	30.41	0
2	357213	30.51	0
2	358411	30.61	0
2	359609	30.71	0
2	360807	30.81	0
2	362005	30.91	0
2	363215	31.01	0
2	364413	31.11	0
2	365611	31.21	0
2	366809	31.31	0
2	368007	31.41	0
2	369205	31.51	0
2	370403	31.61	0
2	371601	31.71	0
2	372799	31.81	0
2	373997	31.91	0
2	375207	32.01	0
2	376405	32.11	0
2	377603	32.21	0
2	378801	32.31	0
2	379999	32.41	0
2	381197	32.51	0
2	382395	32.61	0
2	383593	32.71	0
2	384791	32.81	0
2	385989	32.91	0
2	387199	33.01	0
2	388397	33.11	0
2	389595	33.21	0
2	390793	33.31	0
2	391991	33.41	0
2	393189	33.51	0
2	394387	33.61	0
2	395585	33.71	0
2	396783	33.81	0
2	397981	33.91	0
2	399191	34.01	0
2	400389	34.11	0
2	401587	34.21	0
2	402785	34.31	0
2	403983	34.41	0
2	405181	34.51	0
2	406379	34.61	0
2	407577	34.71	0
2	408775	34.81	0
2	409973	34.91	0
2	411183	35.01	0
2	412381	35.11	0
2	413579	35.21	0
2	414777	35.31	0
2	415975	35.41	0
2	417173	35.51	0
2	418371	35.61	0
2	419569	35.71	0
2	420767	35.81	0
2	421965	35.91	0
2	423175	36.01	0
2	424373	36.11	0
2	425571	36.21	0
2	426769	36.31	0
2	427967	36.41	0
2	429165	36.51	0
2	430363	36.61	0
2	431561	36.71	0
2	432759	36.81	0
2	433957	36.91	0
2	435167	37.01	0
2	436365	37.11	0
2	437563	37.21	0
2	438761	37.31	0
2	439959	37.41	0
2	441157	37.51	0
2	442355	37.61	0
2	443553	37.71	0
2	444751	37.81	0
2	445949	37.91	0
2	447159	38.01	0
2	448357	38.11	0
2	449555	38.21	0
2	450753	38.31	0
2	451951	38.41	0
2	453149	38.51	0
2	454347	38.61	0
2	455545	38.71	0
2	456743	38.81	0
2	457941	38.91	0
2	459151	39.01	0
2	460349	39.11	0
2	461547	39.21	0
2	462745	39.31	0
2	463943	39.41	0
2	465141	39.51	0
2	466339	39.61	0
2	467537	39.71	0
2	468735	39.81	0
2	469933	39.91	0
2	471143	40.01	0
2	472341	40.11	0
2	473539	40.21	0
2	474737	40.31	0
2	475935	40.41	0
2	477133	40.51	0
2	478331	40.61	0
2	479529	40.71	0
2	480727	40.81	0
2	481925	40.91	0
2	483135	41.01	0
2	484333	41.11	0
2	485531	41.21	0
2	486729	41.31	0
2	487927	41.41	0
2	489125	41.51	0
2	490323	41.61	0
2	491521	41.71	0
2	492719	41.81	0
2	493917	41.91	0
2	495127	42.01	0
2	496325	42.11	0
2	497523	42.21	0
2	498721	42.31	0
2	499919	42.41	0
2	501117	42.51	0
2	502315	42.61	0
2	503513	42.71	0
2	504711	42.81	0
2	505909	42.91	0
2	507119	43.01	0
2	508317	43.11	0
2	509515	43.21	0
2	510713	43.31	0
2	511911	43.41	0
2	513109	43.51	0
2	514307	43.61	0
2	515505	43.71	0
2	516703	43.81	0
2	517901	43.91	0
2	519111	44.01	0
2	520309	44.11	0
2	521507	44.21	0
2	522705	44.31	0
2	523903	44.41	0
2	525101	44.51	0
2	526299	44.61	0
2	527497	44.71	0
2	528695	44.81	0
2	529893	44.91	0
2	531103	45.01	0
2	532301	45.11	0
2	533499	45.21	0
2	534697	45.31	0
2	535895	45.41	0
2	537093	45.51	0
2	538291	45.61	0
2	539489	45.71	0
2	540687	45.81	0
2	541885	45.91	0
2	543095	46.01	0
2	544293	46.11	0
2	545491	46.21	0
2	546689	46.31	0
2	547887	46.41	0
2	549085	46.51	0
2	550283	46.61	0
2	551481	46.71	0
2	552679	46.81	0
2	553877	46.91	0
2	555087	47.01	0
2	556285	47.11	0
2	557483	47.21	0
2	558681	47.31	0
2	559879	47.41	0
2	561077	47.51	0
2	562275	47.61	0
2	563473	47.71	0
2	564671	47.81	0
2	565869	47.91	0
2	567079	48.01	0
2	568277	48.11	0
2	569475	48.21	0
2	570673	48.31	0
2	571871	48.41	0
2	573069	48.51	0
2	574267	48.61	0
2	575465	48.71	0
2	576663	48.81	0
2	577861	48.91	0
2	579071	49.01	0
2	580269	49.11	0
2	581467	49.21	0
2	582665	49.31	0
2	583863	49.41	0
2	585061	49.51	0
2	586259	49.61	0
2	587457	49.71	0
2	588655	49.81	0
2	589853	49.91	0
2	591063	50.01	0
2	592261	50.11	0
2	593459	50.21	0
2	594657	50.31	0
2	595855	50.41	0
2	597053	50.51	0
2	598251	50.61	0
2	599449	50.71	0
2	600647	50.81	0
2	601845	50.91	0
2	603055	51.01	0
2	604253	51.11	0
2	605451	51.21	0
2	606649	51.31	0
2	607847	51.41	0
2	609045	51.51	0
2	610243	51.61	0
2	611441	51.71	0
2	612639	51.81	0
2	613837	51.91	0
2	615047	52.01	0
2	616245	52.11	0
2	617443	52.21	0
2	618641	52.31	0
2	619839	52.41	0
2	621037	52.51	0
2	622235	52.61	0
2	623433	52.71	0
2	624631	52.81	0
2	625829	52.91	0
2	627039	53.01	0
2	628237	53.11	0
2	629435	53.21	0
2	630633	53.31	0
2	631831	53.41	0
2	633029	53.51	0
2	634227	53.61	0
2	635425	53.71	0
2	636623	53.81	0
2	637821	53.91	0
2	639031	54.01	0
2	640229	54.11	0
2	641427	54.21	0
2	642625	54.31	0
2	643823	54.41	0
2	645021	54.51	0
2	646219	54.61	0
2	647417	54.71	0
2	648615	54.81	0
2	649813	54.91	0
2	651023	55.01	0
2	652221	55.11	0
2	653419	55.21	0
2	654617	55.31	0
2	655815	55.41	0
2	657013	55.51	0
2	658211	55.61	0
2	659409	55.71	0
2	660607	55.81	0
2	661805	55.91	0
2	663015	56.01	0
2	664213	56.11	0
2	665411	56.21	0
2	666609	56.31	0
2	667807	56.41	0
2	669005	56.51	0
2	670203	56.61	0
2	671401	56.71	0
2	672599	56.81	0
2	673797	56.91	0
2	675007	57.01	0
2	676205	57.11	0
2	677403	57.21	0
2	678601	57.31	0
2	679799	57.41	0
2	680997	57.51	0
2	682195	57.61	0
2	683393	57.71	0
2	684591	57.81	0
2	685789	57.91	0
2	686999	58.01	0
2	688197	58.11	0
2	689395	58.21	0
2	690593	58.31	0
2	691791	58.41	0
2	692989	58.51	0
2	694187	58.61	0
2	695385	58.71	0
2	696583	58.81	0
2	697781	58.91	0
2	698991	59.01	0
2	700189	59.11	0
2	701387	59.21	0
2	702585	59.31	0
2	703783	59.41	0
2	704981	59.51	0
2	706179	59.61	0
2	707377	59.71	0
2	708575	59.81	0
2	709773	59.91	0
2	710983	60.01	0
2	712181	60.11	0
2	713379	60.21	0
2	714577	60.31	0
2	715775	60.41	0
2	716973	60.51	0
2	718171	60.61	0
2	719369	60.71	0
2	720567	60.81	0
2	721765	60.91	0
2	722975	61.01	0
2	724173	61.11	0
2	725371	61.21	0
2	726569	61.31	0
2	727767	61.41	0
2	728965	61.51	0
2	730163	61.61	0
2	731361	61.71	0
2	732559	61.81	0
2	733757	61.91	0
2	734967	62.01	0
2	736165	62.11	0
2	737363	62.21	0
2	738561	62.31	0
2	739759	62.41	0
2	740957	62.51	0
2	742155	62.61	0
2	743353	62.71	0
2	744551	62.81	0
2	745749	62.91	0
2	746959	63.01	0
2	748157	63.11	0
2	749355	63.21	0
2	750553	63.31	0
2	751751	63.41	0
2	752949	63.51	0
2	754147	63.61	0
2	755345	63.71	0
2	756543	63.81	0
2	757741	63.91	0
2	758951	64.01	0
2	760149	64.11	0
2	761347	64.21	0
2	762545	64.31	0
2	763743	64.41	0
2	764941	64.51	0
2	766139	64.61	0
2	767337	64.71	0
2	768535	64.81	0
2	769733	64.91	0
2	770943	65.01	0
2	772141	65.11	0
2	773339	65.21	0
2	774537	65.31	0
2	775735	65.41	0
2	776933	65.51	0
2	778131	65.61	0
2	779329	65.71	0
2	780527	65.81	0
2	781725	65.91	0
2	782935	66.01	0
2	784133	66.11	0
2	785331	66.21	0
2	786529	66.31	0
2	787727	66.41	0
2	788925	66.51	0
2	790123	66.61	0
2	791321	66.71	0
2	792519	66.81	0
2	793717	66.91	0
2	794927	67.01	0
2	796125	67.11	0
2	797323	67.21	0
2	798521	67.31	0
2	799719	67.41	0
2	800917	67.51	0
2	802115	67.61	0
2	803313	67.71	0
2	804511	67.81	0
2	805709	67.91	0
2	806919	68.01	0
2	808117	68.11	0
2	809315	68.21	0
2	810513	68.31	0
2	811711	68.41	0
2	812909	68.51	0
2	814107	68.61	0
2	815305	68.71	0
2	816503	68.81	0
2	817701	68.91	0
2	818911	69.01	0
2	820109	69.11	0
2	821307	69.21	0
2	822505	69.31	0
2	823703	69.41	0
2	824901	69.51	0
2	826099	69.61	0
2	827297	69.71	0
2	828495	69.81	0
2	829693	69.91	0
2	830903	70.01	0
2	832101	70.11	0
2	833299	70.21	0
2	834497	70.31	0
2	835695	70.41	0
2	836893	70.51	0
2	838091	70.61	0
2	839289	70.71	0
2	840487	70.81	0
2	841685	70.91	0
2	842895	71.01	0
2	844093	71.11	0
2	845291	71.21	0
2	846489	71.31	0
2	847687	71.41	0
2	848885	71.51	0
2	850083	71.61	0
2	851281	71.71	0
2	852479	71.81	0
2	853677	71.91	0
2	854887	72.01	0
2	856085	72.11	0
2	857283	72.21	0
2	858481	72.31	0
2	859679	72.41	0
2	860877	72.51	0
2	862075	72.61	0
2	863273	72.71	0
2	864471	72.81	0
2	865669	72.91	0
2	866879	73.01	0
2	868077	73.11	0
2	869275	73.21	0
2	870473	73.31	0
2	871671	73.41	0
2	872869	73.51	0
2	874067	73.61	0
2	875265	73.71	0
2	876463	73.81	0
2	877661	73.91	0
2	878871	74.01	0
2	880069	74.11	0
2	881267	74.21	0
2	882465	74.31	0
2	883663	74.41	0
2	884861	74.51	0
2	886059	74.61	0
2	887257	74.71	0
2	888455	74.81	0
2	889653	74.91	0
2	890863	75.01	0
2	892061	75.11	0
2	893259	75.21	0
2	894457	75.31	0
2	895655	75.41	0
2	896853	75.51	0
2	898051	75.61	0
2	899249	75.71	0
2	900447	75.81	0
2	901645	75.91	0
2	902855	76.01	0
2	904053	76.11	0
2	905251	76.21	0
2	906449	76.31	0
2	907647	76.41	0
2	908845	76.51	0
2	910043	76.61	0
2	911241	76.71	0
2	912439	76.81	0
2	913637	76.91	0
2	914847	77.01	0
2	916045	77.11	0
2	917243	77.21	0
2	918441	77.31	0
2	919639	77.41	0
2	920837	77.51	0
2	922035	77.61	0
2	923233	77.71	0
2	924431	77.81	0
2	925629	77.91	0
2	926839	78.01	0
2	928037	78.11	0
2	929235	78.21	0
2	930433	78.31	0
2	931631	78.41	0
2	932829	78.51	0
2	934027	78.61	0
2	935225	78.71	0
2	936423	78.81	0
2	937621	78.91	0
2	938831	79.01	0
2	940029	79.11	0
2	941227	79.21	0
2	942425	79.31	0
2	943623	79.41	0
2	944821	79.51	0
2	946019	79.61	0
2	947217	79.71	0
2	948415	79.81	0
2	949613	79.91	0
2	950823	80.01	0
2	952021	80.11	0
2	953219	80.21	0
2	954417	80.31	0
2	955615	80.41	0
2	956813	80.51	0
2	958011	80.61	0
2	959209	80.71	0
2	960407	80.81	0
2	961605	80.91	0
2	962815	81.01	0
2	964013	81.11	0
2	965211	81.21	0
2	966409	81.31	0
2	967607	81.41	0
2	968805	81.51	0
2	970003	81.61	0
2	971201	81.71	0
2	972399	81.81	0
2	973597	81.91	0
2	974807	82.01	0
2	976005	82.11	0
2	977203	82.21	0
2	978401	82.31	0
2	979599	82.41	0
2	980797	82.51	0
2	981995	82.61	0
2	983193	82.71	0
2	984391	82.81	0
2	985589	82.91	0
2	986799	83.01	0
2	987997	83.11	0
2	989195	83.21	0
2	990393	83.31	0
2	991591	83.41	0
2	992789	83.51	0
2	993987	83.61	0
2	995185	83.71	0
2	996383	83.81	0
2	997581	83.91	0
2	998791	84.01	0
2	999989	84.11	0
2	1001187	84.21	0
2	1002385	84.31	0
2	1003583	84.41	0
2	1004781	84.51	0
2	1005979	84.61	0
2	1007177	84.71	0
2	1008375	84.81	0
2	1009573	84.91	0
2	1010783	85.01	0
2	1011981	85.11	0
2	1013179	85.21	0
2	1014377	85.31	0
2	1015575	85.41	0
2	1016773	85.51	0
2	1017971	85.61	0
2	1019169	85.71	0
2	1020367	85.81	0
2	1021565	85.91	0
2	1022775	86.01	0
2	1023973	86.11	0
2	1025171	86.21	0
2	1026369	86.31	0
2	1027567	86.41	0
2	1028765	86.51	0
2	1029963	86.61	0
2	1031161	86.71	0
2	1032359	86.81	0
2	1033557	86.91	0
2	1034767	87.01	0
2	1035965	87.11	0
2	1037163	87.21	0
2	1038361	87.31	0
2	1039559	87.41	0
2	1040757	87.51	0
2	1041955	87.61	0
2	1043153	87.71	0
2	1044351	87.81	0
2	1045549	87.91	0
2	1046759	88.01	0
2	1047957	88.11	0
2	1049155	88.21	0
2	1050353	88.31	0
2	1051551	88.41	0
2	1052749	88.51	0
2	1053947	88.61	0
2	1055145	88.71	0
2	1056343	88.81	0
2	1057541	88.91	0
2	1058751	89.01	0
2	1059949	89.11	0
2	1061147	89.21	0
2	1062345	89.31	0
2	1063543	89.41	0
2	1064741	89.51	0
2	1065939	89.61	0
2	1067137	89.71	0
2	1068335	89.81	0
2	1069533	89.91	0
2	1070743	90.01	0
2	1071941	90.11	0
2	1073139	90.21	0
2	1074337	90.31	0
2	1075535	90.41	0
2	1076733	90.51	0
2	1077931	90.61	0
2	1079129	90.71	0
2	1080327	90.81	0
2	1081525	90.91	0
2	1082735	91.01	0
2	1083933	91.11	0
2	1085131	91.21	0
2	1086329	91.31	0
2	1087527	91.41	0
2	1088725	91.51	0
2	1089923	91.61	0
2	1091121	91.71	0
2	1092319	91.81	0
2	1093517	91.91	0
2	1094727	92.01	0
2	1095925	92.11	0
2	1097123	92.21	0
2	1098321	92.31	0
2	1099519	92.41	0
2	1100717	92.51	0
2	1101915	92.61	0
2	1103113	92.71	0
2	1104311	92.81	0
2	1105509	92.91	0
2	1106719	93.01	0
2	1107917	93.11	0
2	1109115	93.21	0
2	1110313	93.31	0
2	1111511	93.41	0
2	1112709	93.51	0
2	1113907	93.61	0
2	1115105	93.71	0
2	1116303	93.81	0
2	1117501	93.91	0
2	1118711	94.01	0
2	1119909	94.11	0
2	1121107	94.21	0
2	1122305	94.31	0
2	1123503	94.41	0
2	1124701	94.51	0
2	1125899	94.61	0
2	1127097	94.71	0
2	1128295	94.81	0
2	1129493	94.91	0
2	1130703	95.01	0
2	1131901	95.11	0
2	1133099	95.21	0
2	1134297	95.31	0
2	1135495	95.41	0
2	1136693	95.51	0
2	1137891	95.61	0
2	1139089	95.71	0
2	1140287	95.81	0
2	1141485	95.91	0
2	1142695	96.01	0
2	1143893	96.11	0
2	1145091	96.21	0
2	1146289	96.31	0
2	1147487	96.41	0
2	1148685	96.51	0
2	1149883	96.61	0
2	1151081	96.71	0
2	1152279	96.81	0
2	1153477	96.91	0
2	1154687	97.01	0
2	1155885	97.11	0
2	1157083	97.21	0
2	1158281	97.31	0
2	1159479	97.41	0
2	1160677	97.51	0
2	1161875	97.61	0
2	1163073	97.71	0
2	1164271	97.81	0
2	1165469	97.91	0
2	1166679	98.01	0
2	1167877	98.11	0
2	1169075	98.21	0
2	1170273	98.31	0
2	1171471	98.41	0
2	1172669	98.51	0
2	1173867	98.61	0
2	1175065	98.71	0
2	1176263	98.81	0
2	1177461	98.91	0
2	1178671	99.01	0
2	1179869	99.11	0
2	1181067	99.21	0
2	1182265	99.31	0
2	1183463	99.41	0
2	1184661	99.51	0
2	1185859	99.61	0
2	1187057	99.71	0
2	1188255	99.81	0
2	1189453	99.91	0
3	113	1.11	-0.000716383
3	1311	1.21	-0.00136341
3	2509	1.31	-0.00186974
3	3707	1.41	-0.00225157
3	4905	1.51	-0.00252443
3	6103	1.61	-0.00270298
3	7301	1.71	-0.00280098
3	8499	1.81	-0.00283113
3	9697	1.91	-0.00280509
3	10907	2.01	-0.00273342
3	12105	2.11	-0.00262559
3	13303	2.21	-0.00249005
3	14501	2.31	-0.00233419
3	15699	2.41	-0.00216447
3	16897	2.51	-0.00198642
3	18095	2.61	-0.00180472
3	19293	2.71	-0.0016233
3	20491	2.81	-0.00144536
3	21689	2.91	-0.00127346
3	22899	3.01	-0.0011096
3	24097	3.11	-0.000955278
3	25295	3.21	-0.000811546
3	26493	3.31	-0.00067908
3	27691	3.41	-0.000558232
3	28889	3.51	-0.000449082
3	30087	3.61	-0.000351487
3	31285	3.71	-0.00026512
3	32483	3.81	-0.000189514
3	33681	3.91	-0.000124092
3	34891	4.01	-6.81972e-05
3	36089	4.11	-2.11209e-05
3	37287	4.21	1.78769e-05
3	38485	4.31	4.9548e-05
3	39683	4.41	7.46407e-05
3	40881	4.51	9.38867e-05
3	42079	4.61	0.000107991
3	43277	4.71	0.000117625
3	44475	4.81	0.000123418
3	45673	4.91	0.000125957
3	46883	5.01	0.000125781
3	48081	5.11	0.00012338
3	49279	5.21	0.000119198
3	50477	5.31	0.000113629
3	51675	5.41	0.000107022
3	52873	5.51	9.96832e-05
3	54071	5.61	9.18747e-05
3	55269	5.71	8.38211e-05
3	56467	5.81	7.57109e-05
3	57665	5.91	6.76999e-05
3	58875	6.01	5.99137e-05
3	60073	6.11	5.24518e-05
3	61271	6.21	4.53896e-05
3	62469	6.31	3.87821e-05
3	63667	6.41	3.2666e-05
3	64865	6.51	2.70628e-05
3	66063	6.61	2.19809e-05
3	67261	6.71	1.74176e-05
3	68459	6.81	1.33618e-05
3	69657	6.91	9.79494e-06
3	70867	7.01	6.6932e-06
3	72065	7.11	4.02864e-06
3	73263	7.21	1.77051e-06
3	74461	7.31	-1.13691e-07
3	75659	7.41	-1.65736e-06
3	76857	7.51	-2.89397e-06
3	78055	7.61	-3.85652e-06
3	79253	7.71	-4.57698e-06
3	80451	7.81	-5.08591e-06
3	81649	7.91	-5.41219e-06
3	82859	8.01	-5.58279e-06
3	84057	8.11	-5.6226e-06
3	85255	8.21	-5.55442e-06
3	86453	8.31	-5.39886e-06
3	87651	8.41	-5.17441e-06
3	88849	8.51	-4.89748e-06
3	90047	8.61	-4.58246e-06
3	91245	8.71	-4.24184e-06
3	92443	8.81	-3.88634e-06
3	93641	8.91	-3.52499e-06
3	94851	9.01	-3.16534e-06
3	96049	9.11	-2.81353e-06
3	97247	9.21	-2.47446e-06
3	98445	9.31	-2.15192e-06
3	99643	9.41	-1.84873e-06
3	100841	9.51	-1.56685e-06
3	102039	9.61	-1.30751e-06
3	103237	9.71	-1.0713e-06
3	104435	9.81	-8.58321e-07
3	105633	9.91	-6.68206e-07
3	111383	10.01	-5.0026e-07
3	112581	10.11	-3.53514e-07
3	113779	10.21	-2.2679e-07
3	114977	10.31	-1.18765e-07
3	116175	10.41	-2.80163e-08
3	117373	10.51	4.6931e-08
3	118571	10.61	1.07573e-07
3	119769	10.71	1.55391e-07
3	120967	10.81	1.91831e-07
3	122165	10.91	2.18284e-07
3	123375	11.01	2.3607e-07
3	124573	11.11	2.46427e-07
3	125771	11.21	2.50502e-07
3	126969	11.31	2.49353e-07
3	128167	11.41	2.43938e-07
3	129365	11.51	2.3512e-07
3	130563	11.61	2.23669e-07
3	131761	11.71	2.10264e-07
3	132959	11.81	1.95496e-07
3	134157	11.91	1.79874e-07
3	135367	12.01	1.63833e-07
3	136565	12.11	1.47736e-07
3	137763	12.21	1.3188e-07
3	138961	12.31	1.16508e-07
3	140159	12.41	1.01807e-07
3	141357	12.51	8.79222e-08
3	142555	12.61	7.49541e-08
3	143753	12.71	6.29711e-08
3	144951	12.81	5.20114e-08
3	146149	12.91	4.20883e-08
3	147359	13.01	3.3193e-08
3	148557	13.11	2.53003e-08
3	149755	13.21	1.83718e-08
3	150953	13.31	1.23581e-08
3	152151	13.41	7.20348e-09
3	153349	13.51	2.84537e-09
3	154547	13.61	-7.80886e-10
3	155745	13.71	-3.74136e-09
3	156943	13.81	-6.10285e-09
3	158141	13.91	-7.93072e-09
3	159351	14.01	-9.28821e-09
3	160549	14.11	-1.0235e-08
3	161747	14.21	-1.08283e-08
3	162945	14.31	-1.11211e-08
3	164143	14.41	-1.11612e-08
3	165341	14.51	-1.09946e-08
3	166539	14.61	-1.06599e-08
3	167737	14.71	-1.01945e-08
3	168935	14.81	-9.62999e-09
3	170133	14.91	-8.99405e-09
3	171343	15.01	-8.31086e-09
3	172541	15.11	-7.60103e-09
3	173739	15.21	-6.88338e-09
3	174937	15.31	-6.17071e-09
3	176135	15.41	-5.47544e-09
3	177333	15.51	-4.80682e-09
3	178531	15.61	-4.17266e-09
3	179729	15.71	-3.57687e-09
3	180927	15.81	-3.02443e-09
3	182125	15.91	-2.51674e-09
3	183335	16.01	-2.05489e-09
3	184533	16.11	-1.63958e-09
3	185731	16.21	-1.26903e-09
3	186929	16.31	-9.42535e-10
3	188127	16.41	-6.57963e-10
3	189325	16.51	-4.1247e-10
3	190523	16.61	-2.04636e-10
3	191721	16.71	-2.91323e-11
3	192919	16.81	1.14753e-10
3	194117	16.91	2.30926e-10
3	195327	17.01	3.22231e-10
3	196525	17.11	3.91154e-10
3	197723	17.21	4.40892e-10
3	198921	17.31	4.73577e-10
3	200119	17.41	4.92051e-10
3	201317	17.51	4.98446e-10
3	202515	17.61	4.94893e-10
3	203713	17.71	4.82814e-10
3	204911	17.81	4.6434e-10
3	206109	17.91	4.40892e-10
3	207319	18.01	4.13536e-10
3	208517	18.11	3.83693e-10
3	209715	18.21	3.51719e-10
3	210913	18.31	3.19744e-10
3	212111	18.41	2.8777e-10
3	213309	18.51	2.55795e-10
3	214507	18.61	2.25953e-10
3	215705	18.71	1.97531e-10
3	216903	18.81	1.6982e-10
3	218101	18.91	1.44951e-10
3	219311	19.01	1.21503e-10
3	220509	19.11	1.00187e-10
3	221707	19.21	8.10019e-11
3	222905	19.31	6.32383e-11
3	224103	19.41	4.86722e-11
3	225301	19.51	3.44613e-11
3	226499	19.61	2.34479e-11
3	227697	19.71	1.27898e-11
3	228895	19.81	4.9738e-12
3	230093	19.91	-2.13163e-12
3	231303	20.01	-8.17124e-12
3	232501	20.11	-1.1724e-11
3	233699	20.21	-1.52767e-11
3	234897	20.31	-1.88294e-11
3	236095	20.41	-2.02505e-11
3	237293	20.51	-2.02505e-11
3	238491	20.61	-2.02505e-11
3	239689	20.71	-2.02505e-11
3	240887	20.81	-2.02505e-11
3	242085	20.91	-2.02505e-11
3	243295	21.01	-2.02505e-11
3	244493	21.11	-2.02505e-11
3	245691	21.21	-2.02505e-11
3	246889	21.31	-1.88294e-11
3	248087	21.41	-1.7053e-11
3	249285	21.51	-1.52767e-11
3	250483	21.61	-1.38556e-11
3	251681	21.71	-1.24345e-11
3	252879	21.81	-1.13687e-11
3	254077	21.91	-1.03029e-11
3	255287	22.01	-9.23706e-12
3	256485	22.11	-8.52651e-12
3	257683	22.21	-7.4607e-12
3	258881	22.31	-6.75016e-12
3	260079	22.41	-6.03961e-12
3	261277	22.51	-5.68434e-12
3	262475	22.61	-4.9738e-12
3	263673	22.71	-4.61853e-12
3	264871	22.81	-4.26326e-12
3	266069	22.91	-3.90799e-12
3	267279	23.01	-3.55271e-12
3	268477	23.11	-3.19744e-12
3	269675	23.21	-2.84217e-12
3	270873	23.31	-2.4869e-12
3	272071	23.41	-2.13163e-12
3	273269	23.51	-2.13163e-12
3	274467	23.61	-1.77636e-12
3	275665	23.71	-1.77636e-12
3	276863	23.81	-1.42109e-12
3	278061	23.91	-1.42109e-12
3	279271	24.01	-1.06581e-12
3	280469	24.11	-1.06581e-12
3	281667	24.21	-1.06581e-12
3	282865	24.31	-1.06581e-12
3	284063	24.41	-7.10543e-13
3	285261	24.51	-7.10543e-13
3	286459	24.61	-7.10543e-13
3	287657	24.71	-7.10543e-13
3	288855	24.81	-7.10543e-13
3	290053	24.91	-3.55271e-13
3	291263	25.01	-3.55271e-13
3	292461	25.11	-3.55271e-13
3	293659	25.21	-3.55271e-13
3	294857	25.31	-3.55271e-13
3	296055	25.41	-3.55271e-13
3	297253	25.51	-3.55271e-13
3	298451	25.61	-3.55271e-13
3	299649	25.71	-3.55271e-13
3	300847	25.81	-3.55271e-13
3	302045	25.91	0
3	303255	26.01	0
3	304453	26.11	0
3	305651	26.21	0
3	306849	26.31	0
3	308047	26.41	0
3	309245	26.51	0
3	310443	26.61	0
3	311641	26.71	0
3	312839	26.81	0
3	314037	26.91	0
3	315247	27.01	0
3	316445	27.11	0
3	317643	27.21	0
3	318841	27.31	0
3	320039	27.41	0
3	321237	27.51	0
3	322435	27.61	0
3	323633	27.71	0
3	324831	27.81	0
3	326029	27.91	0
3	327239	28.01	0
3	328437	28.11	0
3	329635	28.21	0
3	330833	28.31	0
3	332031	28.41	0
3	333229	28.51	0
3	334427	28.61	0
3	335625	28.71	0
3	336823	28.81	0
3	338021	28.91	0
3	339231	29.01	0
3	340429	29.11	0
3	341627	29.21	0
3	342825	29.31	0
3	344023	29.41	0
3	345221	29.51	0
3	346419	29.61	0
3	347617	29.71	0
3	348815	29.81	0
3	350013	29.91	0
3	351223	30.01	0
3	352421	30.11	0
3	353619	30.21	0
3	354817	30.31	0
3	356015	30.41	0
3	357213	30.51	0
3	358411	30.61	0
3	359609	30.71	0
3	360807	30.81	0
3	362005	30.91	0
3	363215	31.01	0
3	364413	31.11	0
3	365611	31.21	0
3	366809	31.31	0
3	368007	31.41	0
3	369205	31.51	0
3	370403	31.61	0
3	371601	31.71	0
3	372799	31.81	0
3	373997	31.91	0
3	375207	32.01	0
3	376405	32.11	0
3	377603	32.21	0
3	378801	32.31	0
3	379999	32.41	0
3	381197	32.51	0
3	382395	32.61	0
3	383593	32.71	0
3	384791	32.81	0
3	385989	32.91	0
3	387199	33.01	0
3	388397	33.11	0
3	389595	33.21	0
3	390793	33.31	0
3	391991	33.41	0
3	393189	33.51	0
3	394387	33.61	0
3	395585	33.71	0
3	396783	33.81	0
3	397981	33.91	0
3	399191	34.01	0
3	400389	34.11	0
3	401587	34.21	0
3	402785	34.31	0
3	403983	34.41	0
3	405181	34.51	0
3	406379	34.61	0
3	407577	34.71	0
3	408775	34.81	0
3	409973	34.91	0
3	411183	35.01	0
3	412381	35.11	0
3	413579	35.21	0
3	414777	35.31	0
3	415975	35.41	0
3	417173	35.51	0
3	418371	35.61	0
3	419569	35.71	0
3	420767	35.81	0
3	421965	35.91	0
3	423175	36.01	0
3	424373	36.11	0
3	425571	36.21	0
3	426769	36.31	0
3	427967	36.41	0
3	429165	36.51	0
3	430363	36.61	0
3	431561	36.71	0
3	432759	36.81	0
3	433957	36.91	0
3	435167	37.01	0
3	436365	37.11	0
3	437563	37.21	0
3	438761	37.31	0
3	439959	37.41	0
3	441157	37.51	0
3	442355	37.61	0
3	443553	37.71	0
3	444751	37.81	0
3	445949	37.91	0
3	447159	38.01	0
3	448357	38.11	0
3	449555	38.21	0
3	450753	38.31	0
3	451951	38.41	0
3	453149	38.51	0
3	454347	38.61	0
3	455545	38.71	0
3	456743	38.81	0
3	457941	38.91	0
3	459151	39.01	0
3	460349	39.11	0
3	461547	39.21	0
3	462745	39.31	0
3	463943	39.41	0
3	465141	39.51	0
3	466339	39.61	0
3	467537	39.71	0
3	468735	39.81	0
3	469933	39.91	0
3	471143	40.01	0
3	472341	40.11	0
3	473539	40.21	0
3	474737	40.31	0
3	475935	40.41	0
3	477133	40.51	0
3	478331	40.61	0
3	479529	40.71	0
3	480727	40.81	0
3	481925	40.91	0
3	483135	41.01	0
3	484333	41.11	0
3	485531	41.21	0
3	486729	41.31	0
3	487927	41.41	0
3	489125	41.51	0
3	490323	41.61	0
3	491521	41.71	0
3	492719	41.81	0
3	493917	41.91	0
3	495127	42.01	0
3	496325	42.11	0
3	497523	42.21	0
3	498721	42.31	0
3	499919	42.41	0
3	501117	42.51	0
3	502315	42.61	0
3	503513	42.71	0
3	504711	42.81	0
3	505909	42.91	0
3	507119	43.01	0
3	508317	43.11	0
3	509515	43.21	0
3	510713	43.31	0
3	511911	43.41	0
3	513109	43.51	0
3	514307	43.61	0
3	515505	43.71	0
3	516703	43.81	0
3	517901	43.91	0
3	519111	44.01	0
3	520309	44.11	0
3	521507	44.21	0
3	522705	44.31	0
3	523903	44.41	0
3	525101	44.51	0
3	526299	44.61	0
3	527497	44.71	0
3	528695	44.81	0
3	529893	44.91	0
3	531103	45.01	0
3	532301	45.11	0
3	533499	45.21	0
3	534697	45.31	0
3	535895	45.41	0
3	537093	45.51	0
3	538291	45.61	0
3	539489	45.71	0
3	540687	45.81	0
3	541885	45.91	0
3	543095	46.01	0
3	544293	46.11	0
3	545491	46.21	0
3	546689	46.31	0
3	547887	46.41	0
3	549085	46.51	0
3	550283	46.61	0
3	551481	46.71	0
3	552679	46.81	0
3	553877	46.91	0
3	555087	47.01	0
3	556285	47.11	0
3	557483	47.21	0
3	558681	47.31	0
3	559879	47.41	0
3	561077	47.51	0
3	562275	47.61	0
3	563473	47.71	0
3	564671	47.81	0
3	565869	47.91	0
3	567079	48.01	0
3	568277	48.11	0
3	569475	48.21	0
3	570673	48.31	0
3	571871	48.41	0
3	573069	48.51	0
3	574267	48.61	0
3	575465	48.71	0
3	576663	48.81	0
3	577861	48.91	0
3	579071	49.01	0
3	580269	49.11	0
3	581467	49.21	0
3	582665	49.31	0
3	583863	49.41	0
3	585061	49.51	0
3	586259	49.61	0
3	587457	49.71	0
[...]
164	1094722	92	6
164	1106714	93	6
164	1118706	94	6
164	1130698	95	6
164	1142690	96	6
164	1154682	97	6
164	1166674	98	6
164	1178666	99	6
164	1190658	100	6
165	10902	2	0.033705
165	22894	3	0.03745
165	34886	4	0.03745
165	46878	5	0.03745
165	58870	6	0.03745
165	70862	7	0.03745
165	82854	8	0.03745
165	94846	9	0.03745
165	106839	10	0.03745
165	123370	11	0.040591720479
165	135362	12	0.03745
165	147354	13	0.03745
165	159346	14	0.03745
165	171338	15	0.03745
165	183330	16	0.03745
165	195322	17	0.03745
165	207314	18	0.03745
165	219306	19	0.03745
165	231298	20	0.03745
165	243290	21	0.03745
165	255282	22	0.03745
165	267274	23	0.03745
165	279266	24	0.03745
165	291258	25	0.03745
165	303250	26	0.03745
165	315242	27	0.03745
165	327234	28	0.03745
165	339226	29	0.03745
165	351218	30	0.03745
165	363210	31	0.03745
165	375202	32	0.03745
165	387194	33	0.03745
165	399186	34	0.03745
165	411178	35	0.03745
165	423170	36	0.03745
165	435162	37	0.03745
165	447154	38	0.03745
165	459146	39	0.03745
165	471138	40	0.03745
165	483130	41	0.03745
165	495122	42	0.03745
165	507114	43	0.03745
165	519106	44	0.03745
165	531098	45	0.03745
165	543090	46	0.03745
165	555082	47	0.03745
165	567074	48	0.03745
165	579066	49	0.03745
165	591058	50	0.03745
165	603050	51	0.03745
165	615042	52	0.03745
165	627034	53	0.03745
165	639026	54	0.03745
165	651018	55	0.03745
165	663010	56	0.03745
165	675002	57	0.03745
165	686994	58	0.03745
165	698986	59	0.03745
165	710978	60	0.03745
165	722970	61	0.03745
165	734962	62	0.03745
165	746954	63	0.03745
165	758946	64	0.03745
165	770938	65	0.03745
165	782930	66	0.03745
165	794922	67	0.03745
165	806914	68	0.03745
165	818906	69	0.03745
165	830898	70	0.03745
165	842890	71	0.03745
165	854882	72	0.03745
165	866874	73	0.03745
165	878866	74	0.03745
165	890858	75	0.03745
165	902850	76	0.03745
165	914842	77	0.03745
165	926834	78	0.03745
165	938826	79	0.03745
165	950818	80	0.03745
165	962810	81	0.03745
165	974802	82	0.03745
165	986794	83	0.03745
165	998786	84	0.03745
165	1010778	85	0.03745
165	1022770	86	0.03745
165	1034762	87	0.03745
165	1046754	88	0.03745
165	1058746	89	0.03745
165	1070738	90	0.03745
165	1082730	91	0.03745
165	1094722	92	0.03745
165	1106714	93	0.03745
165	1118706	94	0.03745
165	1130698	95	0.03745
165	1142690	96	0.03745
165	1154682	97	0.03745
165	1166674	98	0.03745
165	1178666	99	0.03745
165	1190658	100	0.03745
166	10902	2	0
166	22894	3	0
166	34886	4	0
166	46878	5	0
166	58870	6	0
166	70862	7	0
166	82854	8	0
166	94846	9	0
166	106839	10	0
166	123370	11	0
166	135362	12	0
166	147354	13	0
166	159346	14	0
166	171338	15	0
166	183330	16	0
166	195322	17	0
166	207314	18	0
166	219306	19	0
166	231298	20	0
166	243290	21	0
166	255282	22	0
166	267274	23	0
166	279266	24	0
166	291258	25	0
166	303250	26	0
166	315242	27	0
166	327234	28	0
166	339226	29	0
166	351218	30	0
166	363210	31	0
166	375202	32	0
166	387194	33	0
166	399186	34	0
166	411178	35	0
166	423170	36	0
166	435162	37	0
166	447154	38	0
166	459146	39	0
166	471138	40	0
166	483130	41	0
166	495122	42	0
166	507114	43	0
166	519106	44	0
166	531098	45	0
166	543090	46	0
166	555082	47	0
166	567074	48	0
166	579066	49	0
166	591058	50	0
166	603050	51	0
166	615042	52	0
166	627034	53	0
166	639026	54	0
166	651018	55	0
166	663010	56	0
166	675002	57	0
166	686994	58	0
166	698986	59	0
166	710978	60	0
166	722970	61	0
166	734962	62	0
166	746954	63	0
166	758946	64	0
166	770938	65	0
166	782930	66	0
166	794922	67	0
166	806914	68	0
166	818906	69	0
166	830898	70	0
166	842890	71	0
166	854882	72	0
166	866874	73	0
166	878866	74	0
166	890858	75	0
166	902850	76	0
166	914842	77	0
166	926834	78	0
166	938826	79	0
166	950818	80	0
166	962810	81	0
166	974802	82	0
166	986794	83	0
166	998786	84	0
166	1010778	85	0
166	1022770	86	0
166	1034762	87	0
166	1046754	88	0
166	1058746	89	0
166	1070738	90	0
166	1082730	91	0
166	1094722	92	0
166	1106714	93	0
166	1118706	94	0
166	1130698	95	0
166	1142690	96	0
166	1154682	97	0
166	1166674	98	0
166	1178666	99	0
166	1190658	100	0
167	10903	2	7
167	22895	3	7
167	34887	4	7
167	46879	5	7
167	58871	6	7
167	70863	7	7
167	82855	8	7
167	94847	9	7
167	106840	10	7
167	123371	11	7
167	135363	12	7
167	147355	13	7
167	159347	14	7
167	171339	15	7
167	183331	16	7
167	195323	17	7
167	207315	18	7
167	219307	19	7
167	231299	20	7
167	243291	21	7
167	255283	22	7
167	267275	23	7
167	279267	24	7
167	291259	25	7
167	303251	26	7
167	315243	27	7
167	327235	28	7
167	339227	29	7
167	351219	30	7
167	363211	31	7
167	375203	32	7
167	387195	33	7
167	399187	34	7
167	411179	35	7
167	423171	36	7
167	435163	37	7
167	447155	38	7
167	459147	39	7
167	471139	40	7
167	483131	41	7
167	495123	42	7
167	507115	43	7
167	519107	44	7
167	531099	45	7
167	543091	46	7
167	555083	47	7
167	567075	48	7
167	579067	49	7
167	591059	50	7
167	603051	51	7
167	615043	52	7
167	627035	53	7
167	639027	54	7
167	651019	55	7
167	663011	56	7
167	675003	57	7
167	686995	58	7
167	698987	59	7
167	710979	60	7
167	722971	61	7
167	734963	62	7
167	746955	63	7
167	758947	64	7
167	770939	65	7
167	782931	66	7
167	794923	67	7
167	806915	68	7
167	818907	69	7
167	830899	70	7
167	842891	71	7
167	854883	72	7
167	866875	73	7
167	878867	74	7
167	890859	75	7
167	902851	76	7
167	914843	77	7
167	926835	78	7
167	938827	79	7
167	950819	80	7
167	962811	81	7
167	974803	82	7
167	986795	83	7
167	998787	84	7
167	1010779	85	7
167	1022771	86	7
167	1034763	87	7
167	1046755	88	7
167	1058747	89	7
167	1070739	90	7
167	1082731	91	7
167	1094723	92	7
167	1106715	93	7
167	1118707	94	7
167	1130699	95	7
167	1142691	96	7
167	1154683	97	7
167	1166675	98	7
167	1178667	99	7
167	1190659	100	7
168	10903	2	0.033705
168	22895	3	0.03745
168	34887	4	0.03745
168	46879	5	0.03745
168	58871	6	0.03745
168	70863	7	0.03745
168	82855	8	0.03745
168	94847	9	0.03745
168	106840	10	0.03745
168	123371	11	0.04066492061
168	135363	12	0.03745
168	147355	13	0.03745
168	159347	14	0.03745
168	171339	15	0.03745
168	183331	16	0.03745
168	195323	17	0.03745
168	207315	18	0.03745
168	219307	19	0.03745
168	231299	20	0.03745
168	243291	21	0.03745
168	255283	22	0.03745
168	267275	23	0.03745
168	279267	24	0.03745
168	291259	25	0.03745
168	303251	26	0.03745
168	315243	27	0.03745
168	327235	28	0.03745
168	339227	29	0.03745
168	351219	30	0.03745
168	363211	31	0.03745
168	375203	32	0.03745
168	387195	33	0.03745
168	399187	34	0.03745
168	411179	35	0.03745
168	423171	36	0.03745
168	435163	37	0.03745
168	447155	38	0.03745
168	459147	39	0.03745
168	471139	40	0.03745
168	483131	41	0.03745
168	495123	42	0.03745
168	507115	43	0.03745
168	519107	44	0.03745
168	531099	45	0.03745
168	543091	46	0.03745
168	555083	47	0.03745
168	567075	48	0.03745
168	579067	49	0.03745
168	591059	50	0.03745
168	603051	51	0.03745
168	615043	52	0.03745
168	627035	53	0.03745
168	639027	54	0.03745
168	651019	55	0.03745
168	663011	56	0.03745
168	675003	57	0.03745
168	686995	58	0.03745
168	698987	59	0.03745
168	710979	60	0.03745
168	722971	61	0.03745
168	734963	62	0.03745
168	746955	63	0.03745
168	758947	64	0.03745
168	770939	65	0.03745
168	782931	66	0.03745
168	794923	67	0.03745
168	806915	68	0.03745
168	818907	69	0.03745
168	830899	70	0.03745
168	842891	71	0.03745
168	854883	72	0.03745
168	866875	73	0.03745
168	878867	74	0.03745
168	890859	75	0.03745
168	902851	76	0.03745
168	914843	77	0.03745
168	926835	78	0.03745
168	938827	79	0.03745
168	950819	80	0.03745
168	962811	81	0.03745
168	974803	82	0.03745
168	986795	83	0.03745
168	998787	84	0.03745
168	1010779	85	0.03745
168	1022771	86	0.03745
168	1034763	87	0.03745
168	1046755	88	0.03745
168	1058747	89	0.03745
168	1070739	90	0.03745
168	1082731	91	0.03745
168	1094723	92	0.03745
168	1106715	93	0.03745
168	1118707	94	0.03745
168	1130699	95	0.03745
168	1142691	96	0.03745
168	1154683	97	0.03745
168	1166675	98	0.03745
168	1178667	99	0.03745
168	1190659	100	0.03745
169	10903	2	0
169	22895	3	0
169	34887	4	0
169	46879	5	0
169	58871	6	0
169	70863	7	0
169	82855	8	0
169	94847	9	0
169	106840	10	0
169	123371	11	0
169	135363	12	0
169	147355	13	0
169	159347	14	0
169	171339	15	0
169	183331	16	0
169	195323	17	0
169	207315	18	0
169	219307	19	0
169	231299	20	0
169	243291	21	0
169	255283	22	0
169	267275	23	0
169	279267	24	0
169	291259	25	0
169	303251	26	0
169	315243	27	0
169	327235	28	0
169	339227	29	0
169	351219	30	0
169	363211	31	0
169	375203	32	0
169	387195	33	0
169	399187	34	0
169	411179	35	0
169	423171	36	0
169	435163	37	0
169	447155	38	0
169	459147	39	0
169	471139	40	0
169	483131	41	0
169	495123	42	0
169	507115	43	0
169	519107	44	0
169	531099	45	0
169	543091	46	0
169	555083	47	0
169	567075	48	0
169	579067	49	0
169	591059	50	0
169	603051	51	0
169	615043	52	0
169	627035	53	0
169	639027	54	0
169	651019	55	0
169	663011	56	0
169	675003	57	0
169	686995	58	0
169	698987	59	0
169	710979	60	0
169	722971	61	0
169	734963	62	0
169	746955	63	0
169	758947	64	0
169	770939	65	0
169	782931	66	0
169	794923	67	0
169	806915	68	0
169	818907	69	0
169	830899	70	0
169	842891	71	0
169	854883	72	0
169	866875	73	0
169	878867	74	0
169	890859	75	0
169	902851	76	0
169	914843	77	0
169	926835	78	0
169	938827	79	0
169	950819	80	0
169	962811	81	0
169	974803	82	0
169	986795	83	0
169	998787	84	0
169	1010779	85	0
169	1022771	86	0
169	1034763	87	0
169	1046755	88	0
169	1058747	89	0
169	1070739	90	0
169	1082731	91	0
169	1094723	92	0
169	1106715	93	0
169	1118707	94	0
169	1130699	95	0
169	1142691	96	0
169	1154683	97	0
169	1166675	98	0
169	1178667	99	0
169	1190659	100	0
170	10904	2	8
170	22896	3	8
170	34888	4	8
170	46880	5	8
170	58872	6	8
170	70864	7	8
170	82856	8	8
170	94848	9	8
170	106841	10	8
170	123372	11	8
170	135364	12	8
170	147356	13	8
170	159348	14	8
170	171340	15	8
170	183332	16	8
170	195324	17	8
170	207316	18	8
170	219308	19	8
170	231300	20	8
170	243292	21	8
170	255284	22	8
170	267276	23	8
170	279268	24	8
170	291260	25	8
170	303252	26	8
170	315244	27	8
170	327236	28	8
170	339228	29	8
170	351220	30	8
170	363212	31	8
170	375204	32	8
170	387196	33	8
170	399188	34	8
170	411180	35	8
170	423172	36	8
170	435164	37	8
170	447156	38	8
170	459148	39	8
170	471140	40	8
170	483132	41	8
170	495124	42	8
170	507116	43	8
170	519108	44	8
170	531100	45	8
170	543092	46	8
170	555084	47	8
170	567076	48	8
170	579068	49	8
170	591060	50	8
170	603052	51	8
170	615044	52	8
170	627036	53	8
170	639028	54	8
170	651020	55	8
170	663012	56	8
170	675004	57	8
170	686996	58	8
170	698988	59	8
170	710980	60	8
170	722972	61	8
170	734964	62	8
170	746956	63	8
170	758948	64	8
170	770940	65	8
170	782932	66	8
170	794924	67	8
170	806916	68	8
170	818908	69	8
170	830900	70	8
170	842892	71	8
170	854884	72	8
170	866876	73	8
170	878868	74	8
170	890860	75	8
170	902852	76	8
170	914844	77	8
170	926836	78	8
170	938828	79	8
170	950820	80	8
170	962812	81	8
170	974804	82	8
170	986796	83	8
170	998788	84	8
170	1010780	85	8
170	1022772	86	8
170	1034764	87	8
170	1046756	88	8
170	1058748	89	8
170	1070740	90	8
170	1082732	91	8
170	1094724	92	8
170	1106716	93	8
170	1118708	94	8
170	1130700	95	8
170	1142692	96	8
170	1154684	97	8
170	1166676	98	8
170	1178668	99	8
170	1190660	100	8
171	10904	2	0.033705
171	22896	3	0.03745
171	34888	4	0.03745
171	46880	5	0.03745
171	58872	6	0.03745
171	70864	7	0.03745
171	82856	8	0.03745
171	94848	9	0.03745
171	106841	10	0.03745
171	123372	11	0.040458720479
171	135364	12	0.03745
171	147356	13	0.03745
171	159348	14	0.03745
171	171340	15	0.03745
171	183332	16	0.03745
171	195324	17	0.03745
171	207316	18	0.03745
171	219308	19	0.03745
171	231300	20	0.03745
171	243292	21	0.03745
171	255284	22	0.03745
171	267276	23	0.03745
171	279268	24	0.03745
171	291260	25	0.03745
171	303252	26	0.03745
171	315244	27	0.03745
171	327236	28	0.03745
171	339228	29	0.03745
171	351220	30	0.03745
171	363212	31	0.03745
171	375204	32	0.03745
171	387196	33	0.03745
171	399188	34	0.03745
171	411180	35	0.03745
171	423172	36	0.03745
171	435164	37	0.03745
171	447156	38	0.03745
171	459148	39	0.03745
171	471140	40	0.03745
171	483132	41	0.03745
171	495124	42	0.03745
171	507116	43	0.03745
171	519108	44	0.03745
171	531100	45	0.03745
171	543092	46	0.03745
171	555084	47	0.03745
171	567076	48	0.03745
171	579068	49	0.03745
171	591060	50	0.03745
171	603052	51	0.03745
171	615044	52	0.03745
171	627036	53	0.03745
171	639028	54	0.03745
171	651020	55	0.03745
171	663012	56	0.03745
171	675004	57	0.03745
171	686996	58	0.03745
171	698988	59	0.03745
171	710980	60	0.03745
171	722972	61	0.03745
171	734964	62	0.03745
171	746956	63	0.03745
171	758948	64	0.03745
171	770940	65	0.03745
171	782932	66	0.03745
171	794924	67	0.03745
171	806916	68	0.03745
171	818908	69	0.03745
171	830900	70	0.03745
171	842892	71	0.03745
171	854884	72	0.03745
171	866876	73	0.03745
171	878868	74	0.03745
171	890860	75	0.03745
171	902852	76	0.03745
171	914844	77	0.03745
171	926836	78	0.03745
171	938828	79	0.03745
171	950820	80	0.03745
171	962812	81	0.03745
171	974804	82	0.03745
171	986796	83	0.03745
171	998788	84	0.03745
171	1010780	85	0.03745
171	1022772	86	0.03745
171	1034764	87	0.03745
171	1046756	88	0.03745
171	1058748	89	0.03745
171	1070740	90	0.03745
171	1082732	91	0.03745
171	1094724	92	0.03745
171	1106716	93	0.03745
171	1118708	94	0.03745
171	1130700	95	0.03745
171	1142692	96	0.03745
171	1154684	97	0.03745
171	1166676	98	0.03745
171	1178668	99	0.03745
171	1190660	100	0.03745
172	10904	2	0
172	22896	3	0
172	34888	4	0
172	46880	5	0
172	58872	6	0
172	70864	7	0
172	82856	8	0
172	94848	9	0
172	106841	10	0
172	123372	11	0
172	135364	12	0
172	147356	13	0
172	159348	14	0
172	171340	15	0
172	183332	16	0
172	195324	17	0
172	207316	18	0
172	219308	19	0
172	231300	20	0
172	243292	21	0
172	255284	22	0
172	267276	23	0
172	279268	24	0
172	291260	25	0
172	303252	26	0
172	315244	27	0
172	327236	28	0
172	339228	29	0
172	351220	30	0
172	363212	31	0
172	375204	32	0
172	387196	33	0
172	399188	34	0
172	411180	35	0
172	423172	36	0
172	435164	37	0
172	447156	38	0
172	459148	39	0
172	471140	40	0
172	483132	41	0
172	495124	42	0
172	507116	43	0
172	519108	44	0
172	531100	45	0
172	543092	46	0
172	555084	47	0
172	567076	48	0
172	579068	49	0
172	591060	50	0
172	603052	51	0
172	615044	52	0
172	627036	53	0
172	639028	54	0
172	651020	55	0
172	663012	56	0
172	675004	57	0
172	686996	58	0
172	698988	59	0
172	710980	60	0
172	722972	61	0
172	734964	62	0
172	746956	63	0
172	758948	64	0
172	770940	65	0
172	782932	66	0
172	794924	67	0
172	806916	68	0
172	818908	69	0
172	830900	70	0
172	842892	71	0
172	854884	72	0
172	866876	73	0
172	878868	74	0
172	890860	75	0
172	902852	76	0
172	914844	77	0
172	926836	78	0
172	938828	79	0
172	950820	80	0
172	962812	81	0
172	974804	82	0
172	986796	83	0
172	998788	84	0
172	1010780	85	0
172	1022772	86	0
172	1034764	87	0
172	1046756	88	0
172	1058748	89	0
172	1070740	90	0
172	1082732	91	0
172	1094724	92	0
172	1106716	93	0
172	1118708	94	0
172	1130700	95	0
172	1142692	96	0
172	1154684	97	0
172	1166676	98	0
172	1178668	99	0
172	1190660	100	0
173	10905	2	9
173	22897	3	9
173	34889	4	9
173	46881	5	9
173	58873	6	9
173	70865	7	9
173	82857	8	9
173	94849	9	9
173	106842	10	9
173	123373	11	9
173	135365	12	9
173	147357	13	9
173	159349	14	9
173	171341	15	9
173	183333	16	9
173	195325	17	9
173	207317	18	9
173	219309	19	9
173	231301	20	9
173	243293	21	9
173	255285	22	9
173	267277	23	9
173	279269	24	9
173	291261	25	9
173	303253	26	9
173	315245	27	9
173	327237	28	9
173	339229	29	9
173	351221	30	9
173	363213	31	9
173	375205	32	9
173	387197	33	9
173	399189	34	9
173	411181	35	9
173	423173	36	9
173	435165	37	9
173	447157	38	9
173	459149	39	9
173	471141	40	9
173	483133	41	9
173	495125	42	9
173	507117	43	9
173	519109	44	9
173	531101	45	9
173	543093	46	9
173	555085	47	9
173	567077	48	9
173	579069	49	9
173	591061	50	9
173	603053	51	9
173	615045	52	9
173	627037	53	9
173	639029	54	9
173	651021	55	9
173	663013	56	9
173	675005	57	9
173	686997	58	9
173	698989	59	9
173	710981	60	9
173	722973	61	9
173	734965	62	9
173	746957	63	9
173	758949	64	9
173	770941	65	9
173	782933	66	9
173	794925	67	9
173	806917	68	9
173	818909	69	9
173	830901	70	9
173	842893	71	9
173	854885	72	9
173	866877	73	9
173	878869	74	9
173	890861	75	9
173	902853	76	9
173	914845	77	9
173	926837	78	9
173	938829	79	9
173	950821	80	9
173	962813	81	9
173	974805	82	9
173	986797	83	9
173	998789	84	9
173	1010781	85	9
173	1022773	86	9
173	1034765	87	9
173	1046757	88	9
173	1058749	89	9
173	1070741	90	9
173	1082733	91	9
173	1094725	92	9
173	1106717	93	9
173	1118709	94	9
173	1130701	95	9
173	1142693	96	9
173	1154685	97	9
173	1166677	98	9
173	1178669	99	9
173	1190661	100	9
174	10905	2	0.033705
174	22897	3	0.03745
174	34889	4	0.03745
174	46881	5	0.03745
174	58873	6	0.03745
174	70865	7	0.03745
174	82857	8	0.03745
174	94849	9	0.03745
174	106842	10	0.03745
174	123373	11	0.040617960639
174	135365	12	0.03745
174	147357	13	0.03745
174	159349	14	0.03745
174	171341	15	0.03745
174	183333	16	0.03745
174	195325	17	0.03745
174	207317	18	0.03745
174	219309	19	0.03745
174	231301	20	0.03745
174	243293	21	0.03745
174	255285	22	0.03745
174	267277	23	0.03745
174	279269	24	0.03745
174	291261	25	0.03745
174	303253	26	0.03745
174	315245	27	0.03745
174	327237	28	0.03745
174	339229	29	0.03745
174	351221	30	0.03745
174	363213	31	0.03745
174	375205	32	0.03745
174	387197	33	0.03745
174	399189	34	0.03745
174	411181	35	0.03745
174	423173	36	0.03745
174	435165	37	0.03745
174	447157	38	0.03745
174	459149	39	0.03745
174	471141	40	0.03745
174	483133	41	0.03745
174	495125	42	0.03745
174	507117	43	0.03745
174	519109	44	0.03745
174	531101	45	0.03745
174	543093	46	0.03745
174	555085	47	0.03745
174	567077	48	0.03745
174	579069	49	0.03745
174	591061	50	0.03745
174	603053	51	0.03745
174	615045	52	0.03745
174	627037	53	0.03745
174	639029	54	0.03745
174	651021	55	0.03745
174	663013	56	0.03745
174	675005	57	0.03745
174	686997	58	0.03745
174	698989	59	0.03745
174	710981	60	0.03745
174	722973	61	0.03745
174	734965	62	0.03745
174	746957	63	0.03745
174	758949	64	0.03745
174	770941	65	0.03745
174	782933	66	0.03745
174	794925	67	0.03745
174	806917	68	0.03745
174	818909	69	0.03745
174	830901	70	0.03745
174	842893	71	0.03745
174	854885	72	0.03745
174	866877	73	0.03745
174	878869	74	0.03745
174	890861	75	0.03745
174	902853	76	0.03745
174	914845	77	0.03745
174	926837	78	0.03745
174	938829	79	0.03745
174	950821	80	0.03745
174	962813	81	0.03745
174	974805	82	0.03745
174	986797	83	0.03745
174	998789	84	0.03745
174	1010781	85	0.03745
174	1022773	86	0.03745
174	1034765	87	0.03745
174	1046757	88	0.03745
174	1058749	89	0.03745
174	1070741	90	0.03745
174	1082733	91	0.03745
174	1094725	92	0.03745
174	1106717	93	0.03745
174	1118709	94	0.03745
174	1130701	95	0.03745
174	1142693	96	0.03745
174	1154685	97	0.03745
174	1166677	98	0.03745
174	1178669	99	0.03745
174	1190661	100	0.03745
175	10905	2	0
175	22897	3	0
175	34889	4	0
175	46881	5	0
175	58873	6	0
175	70865	7	0
175	82857	8	0
175	94849	9	0
175	106842	10	0
175	123373	11	0
175	135365	12	0
175	147357	13	0
175	159349	14	0
175	171341	15	0
175	183333	16	0
175	195325	17	0
175	207317	18	0
175	219309	19	0
175	231301	20	0
175	243293	21	0
175	255285	22	0
175	267277	23	0
175	279269	24	0
175	291261	25	0
175	303253	26	0
175	315245	27	0
175	327237	28	0
175	339229	29	0
175	351221	30	0
175	363213	31	0
175	375205	32	0
175	387197	33	0
175	399189	34	0
175	411181	35	0
175	423173	36	0
175	435165	37	0
175	447157	38	0
175	459149	39	0
175	471141	40	0
175	483133	41	0
175	495125	42	0
175	507117	43	0
175	519109	44	0
175	531101	45	0
175	543093	46	0
175	555085	47	0
175	567077	48	0
175	579069	49	0
175	591061	50	0
175	603053	51	0
175	615045	52	0
175	627037	53	0
175	639029	54	0
175	651021	55	0
175	663013	56	0
175	675005	57	0
175	686997	58	0
175	698989	59	0
175	710981	60	0
175	722973	61	0
175	734965	62	0
175	746957	63	0
175	758949	64	0
175	770941	65	0
175	782933	66	0
175	794925	67	0
175	806917	68	0
175	818909	69	0
175	830901	70	0
175	842893	71	0
175	854885	72	0
175	866877	73	0
175	878869	74	0
175	890861	75	0
175	902853	76	0
175	914845	77	0
175	926837	78	0
175	938829	79	0
175	950821	80	0
175	962813	81	0
175	974805	82	0
175	986797	83	0
175	998789	84	0
175	1010781	85	0
175	1022773	86	0
175	1034765	87	0
175	1046757	88	0
175	1058749	89	0
175	1070741	90	0
175	1082733	91	0
175	1094725	92	0
175	1106717	93	0
175	1118709	94	0
175	1130701	95	0
175	1142693	96	0
175	1154685	97	0
175	1166677	98	0
175	1178669	99	0
175	1190661	100	0

