version 3
run BreakRanksNoGui-286-20240711-15:11:26-294367
attr configname BreakRanksNoGui
attr datetime 20240711-15:11:26
attr datetimef 20240711-151126
attr experiment BreakRanksNoGui
attr inifile omnetpp.ini
attr iterationvars "$nCars=6, $platoonSize=4, $nLanes=1, $ploegH=0.5, $controller=1, $headway=0.1, $leaderHeadway=1.2, $leaderSpeed=130, $breakRanksSafetyDistance=15, $minSpeed=120, $maxSpeed=140, $beaconInterval=0.1, $priority=4, $packetSize=200, $sController=\"CACC\", $0=2, $1=0"
attr iterationvarsd nCars=6/platoonSize=4/nLanes=1/ploegH=0.5/controller=1/headway=0.1/leaderHeadway=1.2/leaderSpeed=130/breakRanksSafetyDistance=15/minSpeed=120/maxSpeed=140/beaconInterval=0.1/priority=4/packetSize=200/sController=CACC/2/0
attr iterationvarsf nCars=6,platoonSize=4,nLanes=1,ploegH=0.5,controller=1,headway=0.1,leaderHeadway=1.2,leaderSpeed=130,breakRanksSafetyDistance=15,minSpeed=120,maxSpeed=140,beaconInterval=0.1,priority=4,packetSize=200,sController=CACC,2,0-
attr measurement "$nCars=6, $platoonSize=4, $nLanes=1, $ploegH=0.5, $controller=1, $headway=0.1, $leaderHeadway=1.2, $leaderSpeed=130, $breakRanksSafetyDistance=15, $minSpeed=120, $maxSpeed=140, $beaconInterval=0.1, $priority=4, $packetSize=200, $sController=\"CACC\", $0=2, $1=0"
attr network Highway
attr processid 294367
attr repetition 6
attr replication #6
attr resultdir results
attr runnumber 286
attr seedset 6
itervar beaconInterval 0.1
itervar breakRanksSafetyDistance 15
itervar controller 1
itervar headway 0.1
itervar leaderHeadway 1.2
itervar leaderSpeed 130
itervar maxSpeed 140
itervar minSpeed 120
itervar nCars 6
itervar nLanes 1
itervar packetSize 200
itervar platoonSize 4
itervar ploegH 0.5
itervar priority 4
itervar sController "\"CACC\""
config image-path ../../../veins/images
config repeat 10
config extends BreakRanks
config *.manager.command "\"sumo\""
config *.manager.ignoreGuiCommands true
config output-vector-file "results/BreakRanks_1_0.1_130_15_4 /result_6.vec"
config output-scalar-file "results/BreakRanks_1_0.1_130_15_4 /result_6.sca"
config extends Platooning
config *.node[*].scenario_type "\"BreakRanksScenario\""
config *.manager.command "\"sumo-gui\""
config *.node[*].scenario_type "\"SimpleScenario\""
config cmdenv-express-mode true
config cmdenv-autoflush true
config cmdenv-status-frequency 15s
config num-rngs 6
config network Highway
config debug-on-errors true
config print-undisposed true
config *.playgroundSizeX 65000m
config *.playgroundSizeY 25000m
config *.playgroundSizeZ 50m
config sim-time-limit "100 s"
config *.annotations.draw false
config *.obstacles.debug false
config *.world.useTorus false
config *.world.use2D false
config *.manager.updateInterval 0.01s
config *.manager.host "\"localhost\""
config *.manager.moduleType "\"org.car2x.plexe.PlatoonCar\""
config *.manager.moduleName "\"node\""
config *.manager.moduleDisplayString "\"\""
config *.manager.autoShutdown true
config *.manager.margin 25
config *.connectionManager.sendDirect true
config *.connectionManager.maxInterfDist 2600m
config *.connectionManager.drawMaxIntfDist false
config *.**.nic.mac1609_4.useServiceChannel false
config *.**.nic.mac1609_4.txPower 100mW
config *.**.nic.mac1609_4.bitrate 6Mbps
config *.**.nic.mac1609_4.useAcks true
config *.**.nic.mac1609_4.ackErrorRate 0.0
config *.**.nic.mac1609_4.frameErrorRate 0.0
config *.**.nic.phy80211p.minPowerLevel -94dBm
config *.**.nic.phy80211p.maxTXPower 100mW
config *.**.nic.phy80211p.useNoiseFloor true
config *.**.nic.phy80211p.noiseFloor -95dBm
config *.**.nic.phy80211p.decider "xmldoc(\"config.xml\")"
config *.**.nic.phy80211p.analogueModels "xmldoc(\"config.xml\")"
config *.**.nic.phy80211p.usePropagationDelay true
config *.node[*].mobility.x 0
config *.node[*].mobility.y 0
config *.node[*].mobility.z 1.895
config seed-set 6
config **.seed 6
config *.node[*].prot.rng-0 2
config *.node[*].appl.rng-0 3
config *.node[*].scenario.rng-0 4
config **.traffic.rng-0 5
config *.manager.configFile "\"./sumocfg/freeway.sumo.cfg\""
config *.manager.launchConfig "xmldoc(\"./sumocfg/freeway.launchd.xml\")"
config **.numberOfCars 6
config **.numberOfCarsPerPlatoon 4
config **.numberOfLanes 1
config *.node[*].helper_type "\"PositionHelper\""
config *.node[*].scenario.caccC1 0.5
config *.node[*].scenario.caccXi 1
config *.node[*].scenario.caccOmegaN "0.2 Hz"
config *.node[*].scenario.caccSpacing "2 m"
config *.node[*].scenario.engineTau "0.5 s"
config *.node[*].scenario.ploegH 0.5s
config *.node[*].scenario.ploegKp 0.2
config *.node[*].scenario.ploegKd 0.7
config *.node[*].scenario.useRealisticEngine false
config *.node[*].scenario.useControllerAcceleration true
config *.node[*].scenario.nLanes 1
config **.numericController 1
config **.headway 0.1s
config *.node[*].scenario.accHeadway 0.1s
config *.node[*].scenario.leaderHeadway 1.2s
config *.node[*].scenario.leaderSpeed 130kmph
config *.node[*].appl_type "\"SimplePlatooningApp\""
config *.node[*].appl.*.scalar-recording true
config *.node[*].appl.*.vector-recording true
config *.node[0].appl.breakRanksSafetyDistance 15m
config *.node[*].appl.minSpeed 120kmph
config *.node[*].appl.maxSpeed 140kmph
config *.node[*].protocol_type "\"SimplePlatooningBeaconing\""
config *.node[*].prot.*.scalar-recording true
config *.node[*].prot.*.vector-recording true
config *.node[*].prot.beaconingInterval 0.1s
config *.node[*].prot.priority 4
config *.node[*].prot.packetSize 200
config **.traffic_type "\"PlatoonsTrafficManager\""
config **.traffic.platoonInsertTime "1 s"
config **.traffic.platoonInsertSpeed 130kmph
config **.traffic.nCars 6
config **.traffic.platoonSize 4
config **.traffic.nLanes 1
config **.traffic.platooningVType "\"vtypeauto\""
config **.traffic.controller "\"CACC\""
config **.traffic.platoonInsertDistance 2m
config **.traffic.platoonInsertHeadway 0s
config **.traffic.platoonLeaderHeadway 1.2s
config **.scalar-recording false
config **.vector-recording false

vector 0 Highway.node[0].appl distance ETV
vector 1 Highway.node[0].appl relativeSpeed ETV
vector 2 Highway.node[0].appl nodeId ETV
vector 3 Highway.node[0].appl acceleration ETV
vector 4 Highway.node[0].appl controllerAcceleration ETV
vector 5 Highway.node[0].appl speed ETV
vector 6 Highway.node[0].appl posx ETV
vector 7 Highway.node[0].appl posy ETV
vector 8 Highway.node[1].appl distance ETV
vector 9 Highway.node[1].appl relativeSpeed ETV
vector 10 Highway.node[1].appl nodeId ETV
vector 11 Highway.node[1].appl acceleration ETV
vector 12 Highway.node[1].appl controllerAcceleration ETV
vector 13 Highway.node[1].appl speed ETV
vector 14 Highway.node[1].appl posx ETV
vector 15 Highway.node[1].appl posy ETV
vector 16 Highway.node[2].appl distance ETV
vector 17 Highway.node[2].appl relativeSpeed ETV
vector 18 Highway.node[2].appl nodeId ETV
vector 19 Highway.node[2].appl acceleration ETV
vector 20 Highway.node[2].appl controllerAcceleration ETV
vector 21 Highway.node[2].appl speed ETV
vector 22 Highway.node[2].appl posx ETV
vector 23 Highway.node[2].appl posy ETV
vector 24 Highway.node[3].appl distance ETV
vector 25 Highway.node[3].appl relativeSpeed ETV
vector 26 Highway.node[3].appl nodeId ETV
vector 27 Highway.node[3].appl acceleration ETV
vector 28 Highway.node[3].appl controllerAcceleration ETV
vector 29 Highway.node[3].appl speed ETV
vector 30 Highway.node[3].appl posx ETV
vector 31 Highway.node[3].appl posy ETV
vector 32 Highway.node[4].appl distance ETV
vector 33 Highway.node[4].appl relativeSpeed ETV
vector 34 Highway.node[4].appl nodeId ETV
vector 35 Highway.node[4].appl acceleration ETV
vector 36 Highway.node[4].appl controllerAcceleration ETV
vector 37 Highway.node[4].appl speed ETV
vector 38 Highway.node[4].appl posx ETV
vector 39 Highway.node[4].appl posy ETV
vector 40 Highway.node[5].appl distance ETV
vector 41 Highway.node[5].appl relativeSpeed ETV
vector 42 Highway.node[5].appl nodeId ETV
vector 43 Highway.node[5].appl acceleration ETV
vector 44 Highway.node[5].appl controllerAcceleration ETV
vector 45 Highway.node[5].appl speed ETV
vector 46 Highway.node[5].appl posx ETV
vector 47 Highway.node[5].appl posy ETV
vector 48 Highway.node[1].prot leaderDelay ETV
vector 49 Highway.node[1].prot leaderDelayId ETV
vector 50 Highway.node[1].prot frontDelay ETV
vector 51 Highway.node[1].prot frontDelayId ETV
vector 52 Highway.node[2].prot leaderDelay ETV
vector 53 Highway.node[2].prot leaderDelayId ETV
vector 54 Highway.node[3].prot leaderDelay ETV
vector 55 Highway.node[3].prot leaderDelayId ETV
vector 56 Highway.node[3].prot frontDelay ETV
vector 57 Highway.node[3].prot frontDelayId ETV
vector 58 Highway.node[2].prot frontDelay ETV
vector 59 Highway.node[2].prot frontDelayId ETV
vector 60 Highway.node[5].prot leaderDelay ETV
vector 61 Highway.node[5].prot leaderDelayId ETV
vector 62 Highway.node[5].prot frontDelay ETV
vector 63 Highway.node[5].prot frontDelayId ETV
vector 64 Highway.node[0].prot nodeId ETV
vector 65 Highway.node[0].prot busyTime ETV
vector 66 Highway.node[0].prot collisions ETV
vector 67 Highway.node[1].prot nodeId ETV
vector 68 Highway.node[1].prot busyTime ETV
vector 69 Highway.node[1].prot collisions ETV
vector 70 Highway.node[2].prot nodeId ETV
vector 71 Highway.node[2].prot busyTime ETV
vector 72 Highway.node[2].prot collisions ETV
vector 73 Highway.node[3].prot nodeId ETV
vector 74 Highway.node[3].prot busyTime ETV
vector 75 Highway.node[3].prot collisions ETV
vector 76 Highway.node[4].prot nodeId ETV
vector 77 Highway.node[4].prot busyTime ETV
vector 78 Highway.node[4].prot collisions ETV
vector 79 Highway.node[5].prot nodeId ETV
vector 80 Highway.node[5].prot busyTime ETV
vector 81 Highway.node[5].prot collisions ETV
0	113	1.11	9323.17
0	301	1.21	9323.17
0	489	1.31	9323.17
0	677	1.41	9323.17
0	865	1.51	9323.17
0	1053	1.61	9323.17
0	1241	1.71	9323.17
0	1429	1.81	9323.17
0	1617	1.91	9323.17
0	1811	2.01	9323.17
0	1999	2.11	9323.17
0	2187	2.21	9323.17
0	2375	2.31	-1
0	2563	2.41	-1
0	2751	2.51	-1
0	2939	2.61	-1
0	3127	2.71	-1
0	3315	2.81	-1
0	3503	2.91	-1
0	3697	3.01	-1
0	3885	3.11	-1
0	4073	3.21	-1
0	4261	3.31	-1
0	4449	3.41	-1
0	4637	3.51	-1
0	4825	3.61	-1
0	5013	3.71	-1
0	5201	3.81	-1
0	5389	3.91	-1
0	5583	4.01	-1
0	5771	4.11	-1
0	5959	4.21	-1
0	6147	4.31	-1
0	6335	4.41	-1
0	6523	4.51	-1
0	6711	4.61	-1
0	6899	4.71	-1
0	7087	4.81	-1
0	7275	4.91	-1
0	7469	5.01	-1
0	7657	5.11	-1
0	7845	5.21	-1
0	8033	5.31	-1
0	8221	5.41	-1
0	8409	5.51	-1
0	8597	5.61	-1
0	8785	5.71	-1
0	8973	5.81	-1
0	9161	5.91	-1
0	9355	6.01	-1
0	9543	6.11	-1
0	9731	6.21	-1
0	9919	6.31	-1
0	10107	6.41	-1
0	10295	6.51	-1
0	10483	6.61	-1
0	10671	6.71	-1
0	10859	6.81	-1
0	11047	6.91	-1
0	11241	7.01	-1
0	11429	7.11	-1
0	11617	7.21	-1
0	11805	7.31	-1
0	11993	7.41	-1
0	12181	7.51	-1
0	12369	7.61	-1
0	12557	7.71	-1
0	12745	7.81	-1
0	12933	7.91	-1
0	13127	8.01	-1
0	13315	8.11	-1
0	13503	8.21	-1
0	13691	8.31	-1
0	13879	8.41	-1
0	14067	8.51	-1
0	14255	8.61	-1
0	14443	8.71	-1
0	14631	8.81	-1
0	14819	8.91	-1
0	15013	9.01	-1
0	15201	9.11	-1
0	15389	9.21	-1
0	15577	9.31	-1
0	15765	9.41	-1
0	15953	9.51	-1
0	16141	9.61	-1
0	16329	9.71	-1
0	16517	9.81	-1
0	16705	9.91	-1
0	16957	10.01	-1
0	17149	10.11	-1
0	17341	10.21	-1
0	17533	10.31	-1
0	17725	10.41	-1
0	17917	10.51	-1
0	18109	10.61	-1
0	18301	10.71	-1
0	18493	10.81	-1
0	18685	10.91	-1
0	18883	11.01	-1
0	19075	11.11	-1
0	19267	11.21	-1
0	19459	11.31	-1
0	19651	11.41	-1
0	19843	11.51	-1
0	20035	11.61	-1
0	20227	11.71	-1
0	20419	11.81	-1
0	20611	11.91	-1
0	20809	12.01	-1
0	21001	12.11	-1
0	21193	12.21	-1
0	21385	12.31	-1
0	21577	12.41	-1
0	21769	12.51	-1
0	21961	12.61	-1
0	22153	12.71	-1
0	22345	12.81	-1
0	22537	12.91	-1
0	22735	13.01	-1
0	22927	13.11	-1
0	23119	13.21	-1
0	23311	13.31	-1
0	23503	13.41	-1
0	23695	13.51	-1
0	23887	13.61	-1
0	24079	13.71	-1
0	24271	13.81	-1
0	24463	13.91	-1
0	24661	14.01	-1
0	24853	14.11	-1
0	25045	14.21	-1
0	25237	14.31	-1
0	25429	14.41	-1
0	25621	14.51	-1
0	25813	14.61	-1
0	26005	14.71	-1
0	26197	14.81	-1
0	26389	14.91	-1
0	26587	15.01	-1
0	26779	15.11	-1
0	26971	15.21	-1
0	27163	15.31	-1
0	27355	15.41	-1
0	27547	15.51	-1
0	27739	15.61	-1
0	27931	15.71	-1
0	28123	15.81	-1
0	28315	15.91	-1
0	28513	16.01	-1
0	28705	16.11	-1
0	28897	16.21	-1
0	29089	16.31	-1
0	29281	16.41	-1
0	29473	16.51	-1
0	29665	16.61	-1
0	29857	16.71	-1
0	30049	16.81	-1
0	30241	16.91	-1
0	30439	17.01	-1
0	30631	17.11	-1
0	30823	17.21	-1
0	31015	17.31	-1
0	31207	17.41	-1
0	31399	17.51	-1
0	31591	17.61	-1
0	31783	17.71	-1
0	31975	17.81	-1
0	32167	17.91	-1
0	32365	18.01	-1
0	32557	18.11	-1
0	32749	18.21	-1
0	32941	18.31	-1
0	33133	18.41	-1
0	33325	18.51	-1
0	33517	18.61	-1
0	33709	18.71	-1
0	33901	18.81	-1
0	34093	18.91	-1
0	34291	19.01	-1
0	34483	19.11	-1
0	34675	19.21	-1
0	34867	19.31	-1
0	35059	19.41	-1
0	35251	19.51	-1
0	35443	19.61	-1
0	35635	19.71	-1
0	35827	19.81	-1
0	36019	19.91	-1
0	36217	20.01	-1
0	36409	20.11	-1
0	36601	20.21	-1
0	36793	20.31	-1
0	36985	20.41	-1
0	37177	20.51	-1
0	37369	20.61	-1
0	37561	20.71	-1
0	37753	20.81	-1
0	37945	20.91	-1
0	38143	21.01	-1
0	38335	21.11	-1
0	38527	21.21	-1
0	38719	21.31	-1
0	38911	21.41	-1
0	39103	21.51	-1
0	39295	21.61	-1
0	39487	21.71	-1
0	39679	21.81	-1
0	39871	21.91	-1
0	40069	22.01	-1
0	40261	22.11	-1
0	40453	22.21	-1
0	40645	22.31	-1
0	40837	22.41	-1
0	41029	22.51	-1
0	41221	22.61	-1
0	41413	22.71	-1
0	41605	22.81	-1
0	41797	22.91	-1
0	41995	23.01	-1
0	42187	23.11	-1
0	42379	23.21	-1
0	42571	23.31	-1
0	42763	23.41	-1
0	42955	23.51	-1
0	43147	23.61	-1
0	43339	23.71	-1
0	43531	23.81	-1
0	43723	23.91	-1
0	43921	24.01	-1
0	44113	24.11	-1
0	44305	24.21	-1
0	44497	24.31	-1
0	44689	24.41	-1
0	44881	24.51	-1
0	45073	24.61	-1
0	45265	24.71	-1
0	45457	24.81	-1
0	45649	24.91	-1
0	45847	25.01	-1
0	46039	25.11	-1
0	46231	25.21	-1
0	46423	25.31	-1
0	46615	25.41	-1
0	46807	25.51	-1
0	46999	25.61	-1
0	47191	25.71	-1
0	47383	25.81	-1
0	47575	25.91	-1
0	47773	26.01	-1
0	47965	26.11	-1
0	48157	26.21	-1
0	48349	26.31	-1
0	48541	26.41	-1
0	48733	26.51	-1
0	48925	26.61	-1
0	49117	26.71	-1
0	49309	26.81	-1
0	49501	26.91	-1
0	49699	27.01	-1
0	49891	27.11	-1
0	50083	27.21	-1
0	50275	27.31	-1
0	50467	27.41	-1
0	50659	27.51	-1
0	50851	27.61	-1
0	51043	27.71	-1
0	51235	27.81	-1
0	51427	27.91	-1
0	51625	28.01	-1
0	51817	28.11	-1
0	52009	28.21	-1
0	52201	28.31	-1
0	52393	28.41	-1
0	52585	28.51	-1
0	52777	28.61	-1
0	52969	28.71	-1
0	53161	28.81	-1
0	53353	28.91	-1
0	53551	29.01	-1
0	53743	29.11	-1
0	53935	29.21	-1
0	54127	29.31	-1
0	54319	29.41	-1
0	54511	29.51	-1
0	54703	29.61	-1
0	54895	29.71	-1
0	55087	29.81	-1
0	55279	29.91	-1
0	55477	30.01	-1
0	55669	30.11	-1
0	55861	30.21	-1
0	56053	30.31	-1
0	56245	30.41	-1
0	56437	30.51	-1
0	56629	30.61	-1
0	56821	30.71	-1
0	57013	30.81	-1
0	57205	30.91	-1
0	57403	31.01	-1
0	57595	31.11	-1
0	57787	31.21	-1
0	57979	31.31	-1
0	58171	31.41	-1
0	58363	31.51	-1
0	58555	31.61	-1
0	58747	31.71	-1
0	58939	31.81	-1
0	59131	31.91	-1
0	59329	32.01	-1
0	59521	32.11	-1
0	59713	32.21	-1
0	59905	32.31	-1
0	60097	32.41	-1
0	60289	32.51	-1
0	60481	32.61	-1
0	60673	32.71	-1
0	60865	32.81	-1
0	61057	32.91	-1
0	61255	33.01	-1
0	61447	33.11	-1
0	61639	33.21	-1
0	61831	33.31	-1
0	62023	33.41	-1
0	62215	33.51	-1
0	62407	33.61	-1
0	62599	33.71	-1
0	62791	33.81	-1
0	62983	33.91	-1
0	63181	34.01	-1
0	63373	34.11	-1
0	63565	34.21	-1
0	63757	34.31	-1
0	63949	34.41	-1
0	64141	34.51	-1
0	64333	34.61	-1
0	64525	34.71	-1
0	64717	34.81	-1
0	64909	34.91	-1
0	65107	35.01	-1
0	65299	35.11	-1
0	65491	35.21	-1
0	65683	35.31	-1
0	65875	35.41	-1
0	66067	35.51	-1
0	66259	35.61	-1
0	66451	35.71	-1
0	66643	35.81	-1
0	66835	35.91	-1
0	67033	36.01	-1
0	67225	36.11	-1
0	67417	36.21	-1
0	67609	36.31	-1
0	67801	36.41	-1
0	67993	36.51	-1
0	68185	36.61	-1
0	68377	36.71	-1
0	68569	36.81	-1
0	68761	36.91	-1
0	68959	37.01	-1
0	69151	37.11	-1
0	69343	37.21	-1
0	69535	37.31	-1
0	69727	37.41	-1
0	69919	37.51	-1
0	70111	37.61	-1
0	70303	37.71	-1
0	70495	37.81	-1
0	70687	37.91	-1
0	70885	38.01	-1
0	71077	38.11	-1
0	71269	38.21	-1
0	71461	38.31	-1
0	71653	38.41	-1
0	71845	38.51	-1
0	72037	38.61	-1
0	72229	38.71	-1
0	72421	38.81	-1
0	72613	38.91	-1
0	72811	39.01	-1
0	73003	39.11	-1
0	73195	39.21	-1
0	73387	39.31	-1
0	73579	39.41	-1
0	73771	39.51	-1
0	73963	39.61	-1
0	74155	39.71	-1
0	74347	39.81	-1
0	74539	39.91	-1
0	74737	40.01	-1
0	74929	40.11	-1
0	75121	40.21	-1
0	75313	40.31	-1
0	75505	40.41	-1
0	75697	40.51	-1
0	75889	40.61	-1
0	76081	40.71	-1
0	76273	40.81	-1
0	76465	40.91	-1
0	76663	41.01	-1
0	76855	41.11	-1
0	77047	41.21	-1
0	77239	41.31	-1
0	77431	41.41	-1
0	77623	41.51	-1
0	77815	41.61	-1
0	78007	41.71	-1
0	78199	41.81	-1
0	78391	41.91	-1
0	78589	42.01	-1
0	78781	42.11	-1
0	78973	42.21	-1
0	79165	42.31	-1
0	79357	42.41	-1
0	79549	42.51	-1
0	79741	42.61	-1
0	79933	42.71	-1
0	80125	42.81	-1
0	80317	42.91	-1
0	80515	43.01	-1
0	80707	43.11	-1
0	80899	43.21	-1
0	81091	43.31	-1
0	81283	43.41	-1
0	81475	43.51	-1
0	81667	43.61	-1
0	81859	43.71	-1
0	82051	43.81	-1
0	82243	43.91	-1
0	82441	44.01	-1
0	82633	44.11	-1
0	82825	44.21	-1
0	83017	44.31	-1
0	83209	44.41	-1
0	83401	44.51	-1
0	83593	44.61	-1
0	83785	44.71	-1
0	83977	44.81	-1
0	84169	44.91	-1
0	84367	45.01	-1
0	84559	45.11	-1
0	84751	45.21	-1
0	84943	45.31	-1
0	85135	45.41	-1
0	85327	45.51	-1
0	85519	45.61	-1
0	85711	45.71	-1
0	86022	45.81	-1
0	86212	45.91	-1
0	86408	46.01	-1
0	86598	46.11	-1
0	86788	46.21	-1
0	86978	46.31	-1
0	87168	46.41	-1
0	87358	46.51	-1
0	87548	46.61	-1
0	87738	46.71	-1
0	87928	46.81	-1
0	88118	46.91	-1
0	88314	47.01	-1
0	88504	47.11	-1
0	88694	47.21	-1
0	88884	47.31	-1
0	89074	47.41	-1
0	89264	47.51	-1
0	89454	47.61	-1
0	89644	47.71	-1
0	89834	47.81	-1
0	90024	47.91	-1
0	90220	48.01	-1
0	90410	48.11	-1
0	90600	48.21	-1
0	90790	48.31	-1
0	90980	48.41	-1
0	91170	48.51	-1
0	91360	48.61	-1
0	91550	48.71	-1
0	91740	48.81	-1
0	91930	48.91	-1
0	92126	49.01	-1
0	92316	49.11	-1
0	92506	49.21	-1
0	92696	49.31	-1
0	92886	49.41	-1
0	93076	49.51	-1
0	93266	49.61	-1
0	93456	49.71	-1
0	93646	49.81	-1
0	93836	49.91	-1
0	94032	50.01	-1
0	94222	50.11	-1
0	94412	50.21	-1
0	94602	50.31	-1
0	94792	50.41	-1
0	94982	50.51	-1
0	95172	50.61	-1
0	95362	50.71	-1
0	95552	50.81	-1
0	95742	50.91	-1
0	95938	51.01	-1
0	96128	51.11	-1
0	96318	51.21	-1
0	96508	51.31	-1
0	96698	51.41	-1
0	96888	51.51	-1
0	97078	51.61	-1
0	97268	51.71	-1
0	97458	51.81	-1
0	97648	51.91	-1
0	97897	52.01	-1
0	98086	52.11	-1
0	98275	52.21	-1
0	98464	52.31	-1
0	98653	52.41	-1
0	98842	52.51	-1
0	99031	52.61	-1
0	99220	52.71	-1
0	99409	52.81	-1
0	99598	52.91	-1
0	99793	53.01	-1
0	99982	53.11	-1
0	100171	53.21	-1
0	100360	53.31	-1
0	100549	53.41	-1
0	100738	53.51	-1
0	100927	53.61	-1
0	101116	53.71	-1
0	101305	53.81	-1
0	101494	53.91	-1
0	101689	54.01	-1
0	101878	54.11	-1
0	102067	54.21	-1
0	102256	54.31	-1
0	102445	54.41	-1
0	102634	54.51	-1
0	102823	54.61	-1
0	103012	54.71	-1
0	103201	54.81	-1
0	103390	54.91	-1
0	103585	55.01	-1
0	103774	55.11	-1
0	103963	55.21	-1
0	104152	55.31	-1
0	104341	55.41	-1
0	104530	55.51	-1
0	104719	55.61	-1
0	104908	55.71	-1
0	105097	55.81	-1
0	105286	55.91	-1
0	105481	56.01	-1
0	105670	56.11	-1
0	105859	56.21	-1
0	106048	56.31	-1
0	106237	56.41	-1
0	106426	56.51	-1
0	106615	56.61	-1
0	106804	56.71	-1
0	106993	56.81	-1
0	107182	56.91	-1
0	107377	57.01	-1
0	107566	57.11	-1
0	107755	57.21	-1
0	107944	57.31	-1
0	108345	57.41	-1
0	108533	57.51	-1
0	108721	57.61	-1
0	108909	57.71	-1
0	109097	57.81	-1
0	109285	57.91	-1
0	109479	58.01	-1
0	109667	58.11	-1
0	109855	58.21	-1
0	110043	58.31	-1
0	110231	58.41	-1
0	110419	58.51	-1
0	110607	58.61	-1
0	110795	58.71	-1
0	110983	58.81	-1
0	111171	58.91	-1
0	111365	59.01	-1
0	111553	59.11	-1
0	111741	59.21	-1
0	111929	59.31	-1
0	112117	59.41	-1
0	112305	59.51	-1
0	112493	59.61	-1
0	112681	59.71	-1
0	112869	59.81	-1
0	113057	59.91	-1
0	113251	60.01	-1
0	113439	60.11	-1
0	113627	60.21	-1
0	113815	60.31	-1
0	114003	60.41	-1
0	114191	60.51	-1
0	114379	60.61	-1
0	114567	60.71	-1
0	114755	60.81	-1
0	114943	60.91	-1
0	115137	61.01	-1
0	115325	61.11	-1
0	115513	61.21	-1
0	115701	61.31	-1
0	115889	61.41	-1
0	116077	61.51	-1
0	116265	61.61	-1
0	116453	61.71	-1
0	116641	61.81	-1
0	116829	61.91	-1
0	117023	62.01	-1
0	117211	62.11	-1
0	117399	62.21	-1
0	117587	62.31	-1
0	117775	62.41	-1
0	117963	62.51	-1
0	118151	62.61	-1
0	118339	62.71	-1
0	118527	62.81	-1
0	118715	62.91	-1
0	118909	63.01	-1
0	119097	63.11	-1
0	119285	63.21	-1
0	119473	63.31	-1
0	119661	63.41	-1
0	119849	63.51	-1
0	120037	63.61	-1
0	120225	63.71	-1
0	120413	63.81	-1
0	120601	63.91	-1
0	120795	64.01	-1
0	120983	64.11	-1
0	121171	64.21	-1
0	121359	64.31	-1
0	121547	64.41	-1
0	121735	64.51	-1
0	121923	64.61	-1
0	122111	64.71	-1
0	122299	64.81	-1
0	122487	64.91	-1
0	122681	65.01	-1
0	122869	65.11	-1
0	123057	65.21	-1
0	123245	65.31	-1
0	123433	65.41	-1
0	123621	65.51	-1
0	123809	65.61	-1
0	123997	65.71	-1
0	124185	65.81	-1
0	124373	65.91	-1
0	124567	66.01	-1
0	124755	66.11	-1
0	124943	66.21	-1
0	125131	66.31	-1
0	125319	66.41	-1
0	125507	66.51	-1
0	125695	66.61	-1
0	125883	66.71	-1
0	126071	66.81	-1
0	126259	66.91	-1
0	126453	67.01	-1
0	126641	67.11	-1
0	126829	67.21	-1
0	127017	67.31	-1
0	127205	67.41	-1
0	127393	67.51	-1
0	127581	67.61	-1
0	127769	67.71	-1
0	127957	67.81	-1
0	128145	67.91	-1
0	128339	68.01	-1
0	128527	68.11	-1
0	128715	68.21	-1
0	128903	68.31	-1
0	129091	68.41	-1
0	129279	68.51	-1
0	129467	68.61	-1
0	129655	68.71	-1
0	129843	68.81	-1
0	130031	68.91	-1
0	130225	69.01	-1
0	130413	69.11	-1
0	130601	69.21	-1
0	130789	69.31	-1
0	130977	69.41	-1
0	131165	69.51	-1
0	131353	69.61	-1
0	131541	69.71	-1
0	131729	69.81	-1
0	131917	69.91	-1
0	132111	70.01	-1
0	132299	70.11	-1
0	132487	70.21	-1
0	132675	70.31	-1
0	132863	70.41	-1
0	133051	70.51	-1
0	133239	70.61	-1
0	133427	70.71	-1
0	133615	70.81	-1
0	133803	70.91	-1
0	133997	71.01	-1
0	134185	71.11	-1
0	134373	71.21	-1
0	134561	71.31	-1
0	134749	71.41	-1
0	134937	71.51	-1
0	135125	71.61	-1
0	135313	71.71	-1
0	135501	71.81	-1
0	135689	71.91	-1
0	135883	72.01	-1
0	136071	72.11	-1
0	136259	72.21	-1
0	136447	72.31	-1
0	136635	72.41	-1
0	136823	72.51	-1
0	137011	72.61	-1
0	137199	72.71	-1
0	137387	72.81	-1
0	137575	72.91	-1
0	137769	73.01	-1
0	137957	73.11	-1
0	138145	73.21	-1
0	138333	73.31	-1
0	138521	73.41	-1
0	138709	73.51	-1
0	138897	73.61	-1
0	139085	73.71	-1
0	139273	73.81	-1
0	139461	73.91	-1
0	139655	74.01	-1
0	139843	74.11	-1
0	140031	74.21	-1
0	140219	74.31	-1
0	140407	74.41	-1
0	140595	74.51	-1
0	140783	74.61	-1
0	140971	74.71	-1
0	141159	74.81	-1
0	141347	74.91	-1
0	141541	75.01	-1
0	141729	75.11	-1
0	141917	75.21	-1
0	142105	75.31	-1
0	142293	75.41	-1
0	142481	75.51	-1
0	142669	75.61	-1
0	142857	75.71	-1
0	143045	75.81	-1
0	143233	75.91	-1
0	143427	76.01	-1
0	143615	76.11	-1
0	143803	76.21	-1
0	143991	76.31	-1
0	144179	76.41	-1
0	144367	76.51	-1
0	144555	76.61	-1
0	144743	76.71	-1
0	144931	76.81	-1
0	145119	76.91	-1
0	145313	77.01	-1
0	145501	77.11	-1
0	145689	77.21	-1
0	145877	77.31	-1
0	146065	77.41	-1
0	146253	77.51	-1
0	146441	77.61	-1
0	146629	77.71	-1
0	146817	77.81	-1
0	147005	77.91	-1
0	147199	78.01	-1
0	147387	78.11	-1
0	147575	78.21	-1
0	147763	78.31	-1
0	147951	78.41	-1
0	148139	78.51	-1
0	148327	78.61	-1
0	148515	78.71	-1
0	148703	78.81	-1
0	148891	78.91	-1
0	149085	79.01	-1
0	149273	79.11	-1
0	149461	79.21	-1
0	149649	79.31	-1
0	149837	79.41	-1
0	150025	79.51	-1
0	150213	79.61	-1
0	150401	79.71	-1
0	150589	79.81	-1
0	150777	79.91	-1
0	150971	80.01	-1
0	151159	80.11	-1
0	151347	80.21	-1
0	151535	80.31	-1
0	151723	80.41	-1
0	151911	80.51	-1
0	152099	80.61	-1
0	152287	80.71	-1
0	152475	80.81	-1
0	152663	80.91	-1
0	152857	81.01	-1
0	153045	81.11	-1
0	153233	81.21	-1
0	153421	81.31	-1
0	153609	81.41	-1
0	153797	81.51	-1
0	153985	81.61	-1
0	154173	81.71	-1
0	154361	81.81	-1
0	154549	81.91	-1
0	154743	82.01	-1
0	154931	82.11	-1
0	155119	82.21	-1
0	155307	82.31	-1
0	155495	82.41	-1
0	155683	82.51	-1
0	155871	82.61	-1
0	156059	82.71	-1
0	156247	82.81	-1
0	156435	82.91	-1
0	156629	83.01	-1
0	156817	83.11	-1
0	157005	83.21	-1
0	157193	83.31	-1
0	157381	83.41	-1
0	157569	83.51	-1
0	157757	83.61	-1
0	157945	83.71	-1
0	158133	83.81	-1
0	158321	83.91	-1
0	158515	84.01	-1
0	158703	84.11	-1
0	158891	84.21	-1
0	159079	84.31	-1
0	159267	84.41	-1
0	159455	84.51	-1
0	159643	84.61	-1
0	159831	84.71	-1
0	160019	84.81	-1
0	160207	84.91	-1
0	160401	85.01	-1
0	160589	85.11	-1
0	160777	85.21	-1
0	160965	85.31	-1
0	161153	85.41	-1
0	161341	85.51	-1
0	161529	85.61	-1
0	161717	85.71	-1
0	161905	85.81	-1
0	162093	85.91	-1
0	162287	86.01	-1
0	162475	86.11	-1
0	162663	86.21	-1
0	162851	86.31	-1
0	163039	86.41	-1
0	163227	86.51	-1
0	163415	86.61	-1
0	163603	86.71	-1
0	163791	86.81	-1
0	163979	86.91	-1
0	164173	87.01	-1
0	164361	87.11	-1
0	164549	87.21	-1
0	164737	87.31	-1
0	164925	87.41	-1
0	165113	87.51	-1
0	165301	87.61	-1
0	165489	87.71	-1
0	165677	87.81	-1
0	165865	87.91	-1
0	166059	88.01	-1
0	166247	88.11	-1
0	166435	88.21	-1
0	166623	88.31	-1
0	166811	88.41	-1
0	166999	88.51	-1
0	167187	88.61	-1
0	167375	88.71	-1
0	167563	88.81	-1
0	167751	88.91	-1
0	167945	89.01	-1
0	168133	89.11	-1
0	168321	89.21	-1
0	168509	89.31	-1
0	168697	89.41	-1
0	168885	89.51	-1
0	169073	89.61	-1
0	169261	89.71	-1
0	169449	89.81	-1
0	169637	89.91	-1
0	169831	90.01	-1
0	170019	90.11	-1
0	170207	90.21	-1
0	170395	90.31	-1
0	170583	90.41	-1
0	170771	90.51	-1
0	170959	90.61	-1
0	171147	90.71	-1
0	171335	90.81	-1
0	171523	90.91	-1
0	171717	91.01	-1
0	171905	91.11	-1
0	172093	91.21	-1
0	172281	91.31	-1
0	172469	91.41	-1
0	172657	91.51	-1
0	172845	91.61	-1
0	173033	91.71	-1
0	173221	91.81	-1
0	173409	91.91	-1
0	173603	92.01	-1
0	173791	92.11	-1
0	173979	92.21	-1
0	174167	92.31	-1
0	174355	92.41	-1
0	174543	92.51	-1
0	174731	92.61	-1
0	174919	92.71	-1
0	175107	92.81	-1
0	175295	92.91	-1
0	175489	93.01	-1
0	175677	93.11	-1
0	175865	93.21	-1
0	176053	93.31	-1
0	176241	93.41	-1
0	176429	93.51	-1
0	176617	93.61	-1
0	176805	93.71	-1
0	176993	93.81	-1
0	177181	93.91	-1
0	177375	94.01	-1
0	177563	94.11	-1
0	177751	94.21	-1
0	177939	94.31	-1
0	178127	94.41	-1
0	178315	94.51	-1
0	178503	94.61	-1
0	178691	94.71	-1
0	178879	94.81	-1
0	179067	94.91	-1
0	179261	95.01	-1
0	179449	95.11	-1
0	179637	95.21	-1
0	179825	95.31	-1
0	180013	95.41	-1
0	180201	95.51	-1
0	180389	95.61	-1
0	180577	95.71	-1
0	180765	95.81	-1
0	180953	95.91	-1
0	181147	96.01	-1
0	181335	96.11	-1
0	181523	96.21	-1
0	181711	96.31	-1
0	181899	96.41	-1
0	182087	96.51	-1
0	182275	96.61	-1
0	182463	96.71	-1
0	182651	96.81	-1
0	182839	96.91	-1
0	183033	97.01	-1
0	183221	97.11	-1
0	183409	97.21	-1
0	183597	97.31	-1
0	183785	97.41	-1
0	183973	97.51	-1
0	184161	97.61	-1
0	184349	97.71	-1
0	184537	97.81	-1
0	184725	97.91	-1
0	184919	98.01	-1
0	185107	98.11	-1
0	185295	98.21	-1
0	185483	98.31	-1
0	185671	98.41	-1
0	185859	98.51	-1
0	186047	98.61	-1
0	186235	98.71	-1
0	186423	98.81	-1
0	186611	98.91	-1
0	186805	99.01	-1
0	186993	99.11	-1
0	187181	99.21	-1
0	187369	99.31	-1
0	187557	99.41	-1
0	187745	99.51	-1
0	187933	99.61	-1
0	188121	99.71	-1
0	188309	99.81	-1
0	188497	99.91	-1
1	113	1.11	-9.20219e-06
1	301	1.21	-3.63156e-05
1	489	1.31	-6.67292e-05
1	677	1.41	-9.07755e-05
1	865	1.51	-0.000109335
1	1053	1.61	-0.000123171
1	1241	1.71	-0.000132702
1	1429	1.81	-0.000138765
1	1617	1.91	-0.00014201
1	1811	2.01	-0.000142698
1	1999	2.11	-0.000141477
1	2187	2.21	-0.000138795
1	2375	2.31	0
1	2563	2.41	0
1	2751	2.51	0
1	2939	2.61	0
1	3127	2.71	0
1	3315	2.81	0
1	3503	2.91	0
1	3697	3.01	0
1	3885	3.11	0
1	4073	3.21	0
1	4261	3.31	0
1	4449	3.41	0
1	4637	3.51	0
1	4825	3.61	0
1	5013	3.71	0
1	5201	3.81	0
1	5389	3.91	0
1	5583	4.01	0
1	5771	4.11	0
1	5959	4.21	0
1	6147	4.31	0
1	6335	4.41	0
1	6523	4.51	0
1	6711	4.61	0
1	6899	4.71	0
1	7087	4.81	0
1	7275	4.91	0
1	7469	5.01	0
1	7657	5.11	0
1	7845	5.21	0
1	8033	5.31	0
1	8221	5.41	0
1	8409	5.51	0
1	8597	5.61	0
1	8785	5.71	0
1	8973	5.81	0
1	9161	5.91	0
1	9355	6.01	0
1	9543	6.11	0
1	9731	6.21	0
1	9919	6.31	0
1	10107	6.41	0
1	10295	6.51	0
1	10483	6.61	0
1	10671	6.71	0
1	10859	6.81	0
1	11047	6.91	0
1	11241	7.01	0
1	11429	7.11	0
1	11617	7.21	0
1	11805	7.31	0
1	11993	7.41	0
1	12181	7.51	0
1	12369	7.61	0
1	12557	7.71	0
1	12745	7.81	0
1	12933	7.91	0
1	13127	8.01	0
1	13315	8.11	0
1	13503	8.21	0
1	13691	8.31	0
1	13879	8.41	0
1	14067	8.51	0
1	14255	8.61	0
1	14443	8.71	0
1	14631	8.81	0
1	14819	8.91	0
1	15013	9.01	0
1	15201	9.11	0
1	15389	9.21	0
1	15577	9.31	0
1	15765	9.41	0
1	15953	9.51	0
1	16141	9.61	0
1	16329	9.71	0
1	16517	9.81	0
1	16705	9.91	0
1	16957	10.01	0
1	17149	10.11	0
1	17341	10.21	0
1	17533	10.31	0
1	17725	10.41	0
1	17917	10.51	0
1	18109	10.61	0
1	18301	10.71	0
1	18493	10.81	0
1	18685	10.91	0
1	18883	11.01	0
1	19075	11.11	0
1	19267	11.21	0
1	19459	11.31	0
1	19651	11.41	0
1	19843	11.51	0
1	20035	11.61	0
1	20227	11.71	0
1	20419	11.81	0
1	20611	11.91	0
1	20809	12.01	0
1	21001	12.11	0
1	21193	12.21	0
1	21385	12.31	0
1	21577	12.41	0
1	21769	12.51	0
1	21961	12.61	0
1	22153	12.71	0
1	22345	12.81	0
1	22537	12.91	0
1	22735	13.01	0
1	22927	13.11	0
1	23119	13.21	0
1	23311	13.31	0
1	23503	13.41	0
1	23695	13.51	0
1	23887	13.61	0
1	24079	13.71	0
1	24271	13.81	0
1	24463	13.91	0
1	24661	14.01	0
1	24853	14.11	0
1	25045	14.21	0
1	25237	14.31	0
1	25429	14.41	0
1	25621	14.51	0
1	25813	14.61	0
1	26005	14.71	0
1	26197	14.81	0
1	26389	14.91	0
1	26587	15.01	0
1	26779	15.11	0
1	26971	15.21	0
1	27163	15.31	0
1	27355	15.41	0
1	27547	15.51	0
1	27739	15.61	0
1	27931	15.71	0
1	28123	15.81	0
1	28315	15.91	0
1	28513	16.01	0
1	28705	16.11	0
1	28897	16.21	0
1	29089	16.31	0
1	29281	16.41	0
1	29473	16.51	0
1	29665	16.61	0
1	29857	16.71	0
1	30049	16.81	0
1	30241	16.91	0
1	30439	17.01	0
1	30631	17.11	0
1	30823	17.21	0
1	31015	17.31	0
1	31207	17.41	0
1	31399	17.51	0
1	31591	17.61	0
1	31783	17.71	0
1	31975	17.81	0
1	32167	17.91	0
1	32365	18.01	0
1	32557	18.11	0
1	32749	18.21	0
1	32941	18.31	0
1	33133	18.41	0
1	33325	18.51	0
1	33517	18.61	0
1	33709	18.71	0
1	33901	18.81	0
1	34093	18.91	0
1	34291	19.01	0
1	34483	19.11	0
1	34675	19.21	0
1	34867	19.31	0
1	35059	19.41	0
1	35251	19.51	0
1	35443	19.61	0
1	35635	19.71	0
1	35827	19.81	0
1	36019	19.91	0
1	36217	20.01	0
1	36409	20.11	0
1	36601	20.21	0
1	36793	20.31	0
1	36985	20.41	0
1	37177	20.51	0
1	37369	20.61	0
1	37561	20.71	0
1	37753	20.81	0
1	37945	20.91	0
1	38143	21.01	0
1	38335	21.11	0
1	38527	21.21	0
1	38719	21.31	0
1	38911	21.41	0
1	39103	21.51	0
1	39295	21.61	0
1	39487	21.71	0
1	39679	21.81	0
1	39871	21.91	0
1	40069	22.01	0
1	40261	22.11	0
1	40453	22.21	0
1	40645	22.31	0
1	40837	22.41	0
1	41029	22.51	0
1	41221	22.61	0
1	41413	22.71	0
1	41605	22.81	0
1	41797	22.91	0
1	41995	23.01	0
1	42187	23.11	0
1	42379	23.21	0
1	42571	23.31	0
1	42763	23.41	0
1	42955	23.51	0
1	43147	23.61	0
1	43339	23.71	0
1	43531	23.81	0
1	43723	23.91	0
1	43921	24.01	0
1	44113	24.11	0
1	44305	24.21	0
1	44497	24.31	0
1	44689	24.41	0
1	44881	24.51	0
1	45073	24.61	0
1	45265	24.71	0
1	45457	24.81	0
1	45649	24.91	0
1	45847	25.01	0
1	46039	25.11	0
1	46231	25.21	0
1	46423	25.31	0
1	46615	25.41	0
1	46807	25.51	0
1	46999	25.61	0
1	47191	25.71	0
1	47383	25.81	0
1	47575	25.91	0
1	47773	26.01	0
1	47965	26.11	0
1	48157	26.21	0
1	48349	26.31	0
1	48541	26.41	0
1	48733	26.51	0
1	48925	26.61	0
1	49117	26.71	0
1	49309	26.81	0
1	49501	26.91	0
1	49699	27.01	0
1	49891	27.11	0
1	50083	27.21	0
1	50275	27.31	0
1	50467	27.41	0
1	50659	27.51	0
1	50851	27.61	0
1	51043	27.71	0
1	51235	27.81	0
1	51427	27.91	0
1	51625	28.01	0
1	51817	28.11	0
1	52009	28.21	0
1	52201	28.31	0
1	52393	28.41	0
1	52585	28.51	0
1	52777	28.61	0
1	52969	28.71	0
1	53161	28.81	0
1	53353	28.91	0
1	53551	29.01	0
1	53743	29.11	0
1	53935	29.21	0
1	54127	29.31	0
1	54319	29.41	0
1	54511	29.51	0
1	54703	29.61	0
1	54895	29.71	0
1	55087	29.81	0
1	55279	29.91	0
1	55477	30.01	0
1	55669	30.11	0
1	55861	30.21	0
1	56053	30.31	0
1	56245	30.41	0
1	56437	30.51	0
1	56629	30.61	0
1	56821	30.71	0
1	57013	30.81	0
1	57205	30.91	0
1	57403	31.01	0
1	57595	31.11	0
1	57787	31.21	0
1	57979	31.31	0
1	58171	31.41	0
1	58363	31.51	0
1	58555	31.61	0
1	58747	31.71	0
1	58939	31.81	0
1	59131	31.91	0
1	59329	32.01	0
1	59521	32.11	0
1	59713	32.21	0
1	59905	32.31	0
1	60097	32.41	0
1	60289	32.51	0
1	60481	32.61	0
1	60673	32.71	0
1	60865	32.81	0
1	61057	32.91	0
1	61255	33.01	0
1	61447	33.11	0
1	61639	33.21	0
1	61831	33.31	0
1	62023	33.41	0
1	62215	33.51	0
1	62407	33.61	0
1	62599	33.71	0
1	62791	33.81	0
1	62983	33.91	0
1	63181	34.01	0
1	63373	34.11	0
1	63565	34.21	0
1	63757	34.31	0
1	63949	34.41	0
1	64141	34.51	0
1	64333	34.61	0
1	64525	34.71	0
1	64717	34.81	0
1	64909	34.91	0
1	65107	35.01	0
1	65299	35.11	0
1	65491	35.21	0
1	65683	35.31	0
1	65875	35.41	0
1	66067	35.51	0
1	66259	35.61	0
1	66451	35.71	0
1	66643	35.81	0
1	66835	35.91	0
1	67033	36.01	0
1	67225	36.11	0
1	67417	36.21	0
1	67609	36.31	0
1	67801	36.41	0
1	67993	36.51	0
1	68185	36.61	0
1	68377	36.71	0
1	68569	36.81	0
1	68761	36.91	0
1	68959	37.01	0
1	69151	37.11	0
1	69343	37.21	0
1	69535	37.31	0
1	69727	37.41	0
1	69919	37.51	0
1	70111	37.61	0
1	70303	37.71	0
1	70495	37.81	0
1	70687	37.91	0
1	70885	38.01	0
1	71077	38.11	0
1	71269	38.21	0
1	71461	38.31	0
1	71653	38.41	0
1	71845	38.51	0
1	72037	38.61	0
1	72229	38.71	0
1	72421	38.81	0
1	72613	38.91	0
1	72811	39.01	0
1	73003	39.11	0
1	73195	39.21	0
1	73387	39.31	0
1	73579	39.41	0
1	73771	39.51	0
1	73963	39.61	0
1	74155	39.71	0
1	74347	39.81	0
1	74539	39.91	0
1	74737	40.01	0
1	74929	40.11	0
1	75121	40.21	0
1	75313	40.31	0
1	75505	40.41	0
1	75697	40.51	0
1	75889	40.61	0
1	76081	40.71	0
1	76273	40.81	0
1	76465	40.91	0
1	76663	41.01	0
1	76855	41.11	0
1	77047	41.21	0
1	77239	41.31	0
1	77431	41.41	0
1	77623	41.51	0
1	77815	41.61	0
1	78007	41.71	0
1	78199	41.81	0
1	78391	41.91	0
1	78589	42.01	0
1	78781	42.11	0
1	78973	42.21	0
1	79165	42.31	0
1	79357	42.41	0
1	79549	42.51	0
1	79741	42.61	0
1	79933	42.71	0
1	80125	42.81	0
1	80317	42.91	0
1	80515	43.01	0
1	80707	43.11	0
1	80899	43.21	0
1	81091	43.31	0
1	81283	43.41	0
1	81475	43.51	0
1	81667	43.61	0
1	81859	43.71	0
1	82051	43.81	0
1	82243	43.91	0
1	82441	44.01	0
1	82633	44.11	0
1	82825	44.21	0
1	83017	44.31	0
1	83209	44.41	0
1	83401	44.51	0
1	83593	44.61	0
1	83785	44.71	0
1	83977	44.81	0
1	84169	44.91	0
1	84367	45.01	0
1	84559	45.11	0
1	84751	45.21	0
1	84943	45.31	0
1	85135	45.41	0
1	85327	45.51	0
1	85519	45.61	0
1	85711	45.71	0
1	86022	45.81	0
1	86212	45.91	0
1	86408	46.01	0
1	86598	46.11	0
1	86788	46.21	0
1	86978	46.31	0
1	87168	46.41	0
1	87358	46.51	0
1	87548	46.61	0
1	87738	46.71	0
1	87928	46.81	0
1	88118	46.91	0
1	88314	47.01	0
1	88504	47.11	0
1	88694	47.21	0
1	88884	47.31	0
1	89074	47.41	0
1	89264	47.51	0
1	89454	47.61	0
1	89644	47.71	0
1	89834	47.81	0
1	90024	47.91	0
1	90220	48.01	0
1	90410	48.11	0
1	90600	48.21	0
1	90790	48.31	0
1	90980	48.41	0
1	91170	48.51	0
1	91360	48.61	0
1	91550	48.71	0
1	91740	48.81	0
1	91930	48.91	0
1	92126	49.01	0
1	92316	49.11	0
1	92506	49.21	0
1	92696	49.31	0
1	92886	49.41	0
1	93076	49.51	0
1	93266	49.61	0
1	93456	49.71	0
1	93646	49.81	0
1	93836	49.91	0
1	94032	50.01	0
1	94222	50.11	0
1	94412	50.21	0
1	94602	50.31	0
1	94792	50.41	0
1	94982	50.51	0
1	95172	50.61	0
1	95362	50.71	0
1	95552	50.81	0
1	95742	50.91	0
1	95938	51.01	0
1	96128	51.11	0
1	96318	51.21	0
1	96508	51.31	0
1	96698	51.41	0
1	96888	51.51	0
1	97078	51.61	0
1	97268	51.71	0
1	97458	51.81	0
1	97648	51.91	0
1	97897	52.01	0
1	98086	52.11	0
1	98275	52.21	0
1	98464	52.31	0
1	98653	52.41	0
1	98842	52.51	0
1	99031	52.61	0
1	99220	52.71	0
1	99409	52.81	0
1	99598	52.91	0
1	99793	53.01	0
1	99982	53.11	0
1	100171	53.21	0
1	100360	53.31	0
1	100549	53.41	0
1	100738	53.51	0
1	100927	53.61	0
1	101116	53.71	0
1	101305	53.81	0
1	101494	53.91	0
1	101689	54.01	0
1	101878	54.11	0
1	102067	54.21	0
1	102256	54.31	0
1	102445	54.41	0
1	102634	54.51	0
1	102823	54.61	0
1	103012	54.71	0
1	103201	54.81	0
1	103390	54.91	0
1	103585	55.01	0
1	103774	55.11	0
1	103963	55.21	0
1	104152	55.31	0
1	104341	55.41	0
1	104530	55.51	0
1	104719	55.61	0
1	104908	55.71	0
1	105097	55.81	0
1	105286	55.91	0
1	105481	56.01	0
1	105670	56.11	0
1	105859	56.21	0
1	106048	56.31	0
1	106237	56.41	0
1	106426	56.51	0
1	106615	56.61	0
1	106804	56.71	0
1	106993	56.81	0
1	107182	56.91	0
1	107377	57.01	0
1	107566	57.11	0
1	107755	57.21	0
1	107944	57.31	0
1	108345	57.41	0
1	108533	57.51	0
1	108721	57.61	0
1	108909	57.71	0
1	109097	57.81	0
1	109285	57.91	0
1	109479	58.01	0
1	109667	58.11	0
1	109855	58.21	0
1	110043	58.31	0
1	110231	58.41	0
1	110419	58.51	0
1	110607	58.61	0
1	110795	58.71	0
1	110983	58.81	0
1	111171	58.91	0
1	111365	59.01	0
1	111553	59.11	0
1	111741	59.21	0
1	111929	59.31	0
1	112117	59.41	0
1	112305	59.51	0
1	112493	59.61	0
1	112681	59.71	0
1	112869	59.81	0
1	113057	59.91	0
1	113251	60.01	0
1	113439	60.11	0
1	113627	60.21	0
1	113815	60.31	0
1	114003	60.41	0
1	114191	60.51	0
1	114379	60.61	0
1	114567	60.71	0
1	114755	60.81	0
1	114943	60.91	0
1	115137	61.01	0
1	115325	61.11	0
1	115513	61.21	0
1	115701	61.31	0
1	115889	61.41	0
1	116077	61.51	0
1	116265	61.61	0
1	116453	61.71	0
1	116641	61.81	0
1	116829	61.91	0
1	117023	62.01	0
1	117211	62.11	0
1	117399	62.21	0
1	117587	62.31	0
1	117775	62.41	0
1	117963	62.51	0
1	118151	62.61	0
1	118339	62.71	0
1	118527	62.81	0
1	118715	62.91	0
1	118909	63.01	0
1	119097	63.11	0
1	119285	63.21	0
1	119473	63.31	0
1	119661	63.41	0
1	119849	63.51	0
1	120037	63.61	0
1	120225	63.71	0
1	120413	63.81	0
1	120601	63.91	0
1	120795	64.01	0
1	120983	64.11	0
1	121171	64.21	0
1	121359	64.31	0
1	121547	64.41	0
1	121735	64.51	0
1	121923	64.61	0
1	122111	64.71	0
1	122299	64.81	0
1	122487	64.91	0
1	122681	65.01	0
1	122869	65.11	0
1	123057	65.21	0
1	123245	65.31	0
1	123433	65.41	0
1	123621	65.51	0
1	123809	65.61	0
1	123997	65.71	0
1	124185	65.81	0
1	124373	65.91	0
1	124567	66.01	0
1	124755	66.11	0
1	124943	66.21	0
1	125131	66.31	0
1	125319	66.41	0
1	125507	66.51	0
1	125695	66.61	0
1	125883	66.71	0
1	126071	66.81	0
1	126259	66.91	0
1	126453	67.01	0
1	126641	67.11	0
1	126829	67.21	0
1	127017	67.31	0
1	127205	67.41	0
1	127393	67.51	0
1	127581	67.61	0
1	127769	67.71	0
1	127957	67.81	0
1	128145	67.91	0
1	128339	68.01	0
1	128527	68.11	0
1	128715	68.21	0
1	128903	68.31	0
1	129091	68.41	0
1	129279	68.51	0
1	129467	68.61	0
1	129655	68.71	0
1	129843	68.81	0
1	130031	68.91	0
1	130225	69.01	0
1	130413	69.11	0
1	130601	69.21	0
1	130789	69.31	0
1	130977	69.41	0
1	131165	69.51	0
1	131353	69.61	0
1	131541	69.71	0
1	131729	69.81	0
1	131917	69.91	0
1	132111	70.01	0
1	132299	70.11	0
1	132487	70.21	0
1	132675	70.31	0
1	132863	70.41	0
1	133051	70.51	0
1	133239	70.61	0
1	133427	70.71	0
1	133615	70.81	0
1	133803	70.91	0
1	133997	71.01	0
1	134185	71.11	0
1	134373	71.21	0
1	134561	71.31	0
1	134749	71.41	0
1	134937	71.51	0
1	135125	71.61	0
1	135313	71.71	0
1	135501	71.81	0
1	135689	71.91	0
1	135883	72.01	0
1	136071	72.11	0
1	136259	72.21	0
1	136447	72.31	0
1	136635	72.41	0
1	136823	72.51	0
1	137011	72.61	0
1	137199	72.71	0
1	137387	72.81	0
1	137575	72.91	0
1	137769	73.01	0
1	137957	73.11	0
1	138145	73.21	0
1	138333	73.31	0
1	138521	73.41	0
1	138709	73.51	0
1	138897	73.61	0
1	139085	73.71	0
1	139273	73.81	0
1	139461	73.91	0
1	139655	74.01	0
1	139843	74.11	0
1	140031	74.21	0
1	140219	74.31	0
1	140407	74.41	0
1	140595	74.51	0
1	140783	74.61	0
1	140971	74.71	0
1	141159	74.81	0
1	141347	74.91	0
1	141541	75.01	0
1	141729	75.11	0
1	141917	75.21	0
1	142105	75.31	0
1	142293	75.41	0
1	142481	75.51	0
1	142669	75.61	0
1	142857	75.71	0
1	143045	75.81	0
1	143233	75.91	0
1	143427	76.01	0
1	143615	76.11	0
1	143803	76.21	0
1	143991	76.31	0
1	144179	76.41	0
1	144367	76.51	0
1	144555	76.61	0
1	144743	76.71	0
1	144931	76.81	0
1	145119	76.91	0
1	145313	77.01	0
1	145501	77.11	0
1	145689	77.21	0
1	145877	77.31	0
1	146065	77.41	0
1	146253	77.51	0
1	146441	77.61	0
1	146629	77.71	0
1	146817	77.81	0
1	147005	77.91	0
1	147199	78.01	0
1	147387	78.11	0
1	147575	78.21	0
1	147763	78.31	0
1	147951	78.41	0
1	148139	78.51	0
1	148327	78.61	0
1	148515	78.71	0
1	148703	78.81	0
1	148891	78.91	0
1	149085	79.01	0
1	149273	79.11	0
1	149461	79.21	0
1	149649	79.31	0
1	149837	79.41	0
1	150025	79.51	0
1	150213	79.61	0
1	150401	79.71	0
1	150589	79.81	0
1	150777	79.91	0
1	150971	80.01	0
1	151159	80.11	0
1	151347	80.21	0
1	151535	80.31	0
1	151723	80.41	0
1	151911	80.51	0
1	152099	80.61	0
1	152287	80.71	0
1	152475	80.81	0
1	152663	80.91	0
1	152857	81.01	0
1	153045	81.11	0
1	153233	81.21	0
1	153421	81.31	0
1	153609	81.41	0
1	153797	81.51	0
1	153985	81.61	0
1	154173	81.71	0
1	154361	81.81	0
1	154549	81.91	0
1	154743	82.01	0
1	154931	82.11	0
1	155119	82.21	0
1	155307	82.31	0
1	155495	82.41	0
1	155683	82.51	0
1	155871	82.61	0
1	156059	82.71	0
1	156247	82.81	0
1	156435	82.91	0
1	156629	83.01	0
1	156817	83.11	0
1	157005	83.21	0
1	157193	83.31	0
1	157381	83.41	0
1	157569	83.51	0
1	157757	83.61	0
1	157945	83.71	0
1	158133	83.81	0
1	158321	83.91	0
1	158515	84.01	0
1	158703	84.11	0
1	158891	84.21	0
1	159079	84.31	0
1	159267	84.41	0
1	159455	84.51	0
1	159643	84.61	0
1	159831	84.71	0
1	160019	84.81	0
1	160207	84.91	0
1	160401	85.01	0
1	160589	85.11	0
1	160777	85.21	0
1	160965	85.31	0
1	161153	85.41	0
1	161341	85.51	0
1	161529	85.61	0
1	161717	85.71	0
1	161905	85.81	0
1	162093	85.91	0
1	162287	86.01	0
1	162475	86.11	0
1	162663	86.21	0
1	162851	86.31	0
1	163039	86.41	0
1	163227	86.51	0
1	163415	86.61	0
1	163603	86.71	0
1	163791	86.81	0
1	163979	86.91	0
1	164173	87.01	0
1	164361	87.11	0
1	164549	87.21	0
1	164737	87.31	0
1	164925	87.41	0
1	165113	87.51	0
1	165301	87.61	0
1	165489	87.71	0
1	165677	87.81	0
1	165865	87.91	0
1	166059	88.01	0
1	166247	88.11	0
1	166435	88.21	0
1	166623	88.31	0
1	166811	88.41	0
1	166999	88.51	0
1	167187	88.61	0
1	167375	88.71	0
1	167563	88.81	0
1	167751	88.91	0
1	167945	89.01	0
1	168133	89.11	0
1	168321	89.21	0
1	168509	89.31	0
1	168697	89.41	0
1	168885	89.51	0
1	169073	89.61	0
1	169261	89.71	0
1	169449	89.81	0
1	169637	89.91	0
1	169831	90.01	0
1	170019	90.11	0
1	170207	90.21	0
1	170395	90.31	0
1	170583	90.41	0
1	170771	90.51	0
1	170959	90.61	0
1	171147	90.71	0
1	171335	90.81	0
1	171523	90.91	0
1	171717	91.01	0
1	171905	91.11	0
1	172093	91.21	0
1	172281	91.31	0
1	172469	91.41	0
1	172657	91.51	0
1	172845	91.61	0
1	173033	91.71	0
1	173221	91.81	0
1	173409	91.91	0
1	173603	92.01	0
1	173791	92.11	0
1	173979	92.21	0
1	174167	92.31	0
1	174355	92.41	0
1	174543	92.51	0
1	174731	92.61	0
1	174919	92.71	0
1	175107	92.81	0
1	175295	92.91	0
1	175489	93.01	0
1	175677	93.11	0
1	175865	93.21	0
1	176053	93.31	0
1	176241	93.41	0
1	176429	93.51	0
1	176617	93.61	0
1	176805	93.71	0
1	176993	93.81	0
1	177181	93.91	0
1	177375	94.01	0
1	177563	94.11	0
1	177751	94.21	0
1	177939	94.31	0
1	178127	94.41	0
1	178315	94.51	0
1	178503	94.61	0
1	178691	94.71	0
1	178879	94.81	0
1	179067	94.91	0
1	179261	95.01	0
1	179449	95.11	0
1	179637	95.21	0
1	179825	95.31	0
1	180013	95.41	0
1	180201	95.51	0
1	180389	95.61	0
1	180577	95.71	0
1	180765	95.81	0
1	180953	95.91	0
1	181147	96.01	0
1	181335	96.11	0
1	181523	96.21	0
1	181711	96.31	0
1	181899	96.41	0
1	182087	96.51	0
1	182275	96.61	0
1	182463	96.71	0
1	182651	96.81	0
1	182839	96.91	0
1	183033	97.01	0
1	183221	97.11	0
1	183409	97.21	0
1	183597	97.31	0
1	183785	97.41	0
1	183973	97.51	0
1	184161	97.61	0
1	184349	97.71	0
1	184537	97.81	0
1	184725	97.91	0
1	184919	98.01	0
1	185107	98.11	0
1	185295	98.21	0
1	185483	98.31	0
1	185671	98.41	0
1	185859	98.51	0
1	186047	98.61	0
1	186235	98.71	0
1	186423	98.81	0
1	186611	98.91	0
1	186805	99.01	0
1	186993	99.11	0
1	187181	99.21	0
1	187369	99.31	0
1	187557	99.41	0
1	187745	99.51	0
1	187933	99.61	0
1	188121	99.71	0
1	188309	99.81	0
1	188497	99.91	0
2	113	1.11	0
2	301	1.21	0
2	489	1.31	0
2	677	1.41	0
2	865	1.51	0
2	1053	1.61	0
2	1241	1.71	0
2	1429	1.81	0
2	1617	1.91	0
2	1811	2.01	0
2	1999	2.11	0
2	2187	2.21	0
2	2375	2.31	0
2	2563	2.41	0
2	2751	2.51	0
2	2939	2.61	0
2	3127	2.71	0
2	3315	2.81	0
2	3503	2.91	0
2	3697	3.01	0
2	3885	3.11	0
2	4073	3.21	0
2	4261	3.31	0
2	4449	3.41	0
2	4637	3.51	0
2	4825	3.61	0
2	5013	3.71	0
2	5201	3.81	0
2	5389	3.91	0
2	5583	4.01	0
2	5771	4.11	0
2	5959	4.21	0
2	6147	4.31	0
2	6335	4.41	0
2	6523	4.51	0
2	6711	4.61	0
2	6899	4.71	0
2	7087	4.81	0
2	7275	4.91	0
2	7469	5.01	0
2	7657	5.11	0
2	7845	5.21	0
2	8033	5.31	0
2	8221	5.41	0
2	8409	5.51	0
2	8597	5.61	0
2	8785	5.71	0
2	8973	5.81	0
2	9161	5.91	0
2	9355	6.01	0
2	9543	6.11	0
2	9731	6.21	0
2	9919	6.31	0
2	10107	6.41	0
2	10295	6.51	0
2	10483	6.61	0
2	10671	6.71	0
2	10859	6.81	0
2	11047	6.91	0
2	11241	7.01	0
2	11429	7.11	0
2	11617	7.21	0
2	11805	7.31	0
2	11993	7.41	0
2	12181	7.51	0
2	12369	7.61	0
2	12557	7.71	0
2	12745	7.81	0
2	12933	7.91	0
2	13127	8.01	0
2	13315	8.11	0
2	13503	8.21	0
2	13691	8.31	0
2	13879	8.41	0
2	14067	8.51	0
2	14255	8.61	0
2	14443	8.71	0
2	14631	8.81	0
2	14819	8.91	0
2	15013	9.01	0
2	15201	9.11	0
2	15389	9.21	0
2	15577	9.31	0
2	15765	9.41	0
2	15953	9.51	0
2	16141	9.61	0
2	16329	9.71	0
2	16517	9.81	0
2	16705	9.91	0
2	16957	10.01	0
2	17149	10.11	0
2	17341	10.21	0
2	17533	10.31	0
2	17725	10.41	0
2	17917	10.51	0
2	18109	10.61	0
2	18301	10.71	0
2	18493	10.81	0
2	18685	10.91	0
2	18883	11.01	0
2	19075	11.11	0
2	19267	11.21	0
2	19459	11.31	0
2	19651	11.41	0
2	19843	11.51	0
2	20035	11.61	0
2	20227	11.71	0
2	20419	11.81	0
2	20611	11.91	0
2	20809	12.01	0
2	21001	12.11	0
2	21193	12.21	0
2	21385	12.31	0
2	21577	12.41	0
2	21769	12.51	0
2	21961	12.61	0
2	22153	12.71	0
2	22345	12.81	0
2	22537	12.91	0
2	22735	13.01	0
2	22927	13.11	0
2	23119	13.21	0
2	23311	13.31	0
2	23503	13.41	0
2	23695	13.51	0
2	23887	13.61	0
2	24079	13.71	0
2	24271	13.81	0
2	24463	13.91	0
2	24661	14.01	0
2	24853	14.11	0
2	25045	14.21	0
2	25237	14.31	0
2	25429	14.41	0
2	25621	14.51	0
2	25813	14.61	0
2	26005	14.71	0
2	26197	14.81	0
2	26389	14.91	0
2	26587	15.01	0
2	26779	15.11	0
2	26971	15.21	0
2	27163	15.31	0
2	27355	15.41	0
2	27547	15.51	0
2	27739	15.61	0
2	27931	15.71	0
2	28123	15.81	0
2	28315	15.91	0
2	28513	16.01	0
2	28705	16.11	0
2	28897	16.21	0
2	29089	16.31	0
2	29281	16.41	0
2	29473	16.51	0
2	29665	16.61	0
2	29857	16.71	0
2	30049	16.81	0
2	30241	16.91	0
2	30439	17.01	0
2	30631	17.11	0
2	30823	17.21	0
2	31015	17.31	0
2	31207	17.41	0
2	31399	17.51	0
2	31591	17.61	0
2	31783	17.71	0
2	31975	17.81	0
2	32167	17.91	0
2	32365	18.01	0
2	32557	18.11	0
2	32749	18.21	0
2	32941	18.31	0
2	33133	18.41	0
2	33325	18.51	0
2	33517	18.61	0
2	33709	18.71	0
2	33901	18.81	0
2	34093	18.91	0
2	34291	19.01	0
2	34483	19.11	0
2	34675	19.21	0
2	34867	19.31	0
2	35059	19.41	0
2	35251	19.51	0
2	35443	19.61	0
2	35635	19.71	0
2	35827	19.81	0
2	36019	19.91	0
2	36217	20.01	0
2	36409	20.11	0
2	36601	20.21	0
2	36793	20.31	0
2	36985	20.41	0
2	37177	20.51	0
2	37369	20.61	0
2	37561	20.71	0
2	37753	20.81	0
2	37945	20.91	0
2	38143	21.01	0
2	38335	21.11	0
2	38527	21.21	0
2	38719	21.31	0
2	38911	21.41	0
2	39103	21.51	0
2	39295	21.61	0
2	39487	21.71	0
2	39679	21.81	0
2	39871	21.91	0
2	40069	22.01	0
2	40261	22.11	0
2	40453	22.21	0
2	40645	22.31	0
2	40837	22.41	0
2	41029	22.51	0
2	41221	22.61	0
2	41413	22.71	0
2	41605	22.81	0
2	41797	22.91	0
2	41995	23.01	0
2	42187	23.11	0
2	42379	23.21	0
2	42571	23.31	0
2	42763	23.41	0
2	42955	23.51	0
2	43147	23.61	0
2	43339	23.71	0
2	43531	23.81	0
2	43723	23.91	0
2	43921	24.01	0
2	44113	24.11	0
2	44305	24.21	0
2	44497	24.31	0
2	44689	24.41	0
2	44881	24.51	0
2	45073	24.61	0
2	45265	24.71	0
2	45457	24.81	0
2	45649	24.91	0
2	45847	25.01	0
2	46039	25.11	0
2	46231	25.21	0
2	46423	25.31	0
2	46615	25.41	0
2	46807	25.51	0
2	46999	25.61	0
2	47191	25.71	0
2	47383	25.81	0
2	47575	25.91	0
2	47773	26.01	0
2	47965	26.11	0
2	48157	26.21	0
2	48349	26.31	0
2	48541	26.41	0
2	48733	26.51	0
2	48925	26.61	0
2	49117	26.71	0
2	49309	26.81	0
2	49501	26.91	0
2	49699	27.01	0
2	49891	27.11	0
2	50083	27.21	0
2	50275	27.31	0
2	50467	27.41	0
2	50659	27.51	0
2	50851	27.61	0
2	51043	27.71	0
2	51235	27.81	0
2	51427	27.91	0
2	51625	28.01	0
2	51817	28.11	0
2	52009	28.21	0
2	52201	28.31	0
2	52393	28.41	0
2	52585	28.51	0
2	52777	28.61	0
2	52969	28.71	0
2	53161	28.81	0
2	53353	28.91	0
2	53551	29.01	0
2	53743	29.11	0
2	53935	29.21	0
2	54127	29.31	0
2	54319	29.41	0
2	54511	29.51	0
2	54703	29.61	0
2	54895	29.71	0
2	55087	29.81	0
2	55279	29.91	0
2	55477	30.01	0
2	55669	30.11	0
2	55861	30.21	0
2	56053	30.31	0
2	56245	30.41	0
2	56437	30.51	0
2	56629	30.61	0
2	56821	30.71	0
2	57013	30.81	0
2	57205	30.91	0
2	57403	31.01	0
2	57595	31.11	0
2	57787	31.21	0
2	57979	31.31	0
2	58171	31.41	0
2	58363	31.51	0
2	58555	31.61	0
2	58747	31.71	0
2	58939	31.81	0
2	59131	31.91	0
2	59329	32.01	0
2	59521	32.11	0
2	59713	32.21	0
2	59905	32.31	0
2	60097	32.41	0
2	60289	32.51	0
2	60481	32.61	0
2	60673	32.71	0
2	60865	32.81	0
2	61057	32.91	0
2	61255	33.01	0
2	61447	33.11	0
2	61639	33.21	0
2	61831	33.31	0
2	62023	33.41	0
2	62215	33.51	0
2	62407	33.61	0
2	62599	33.71	0
2	62791	33.81	0
2	62983	33.91	0
2	63181	34.01	0
2	63373	34.11	0
2	63565	34.21	0
2	63757	34.31	0
2	63949	34.41	0
2	64141	34.51	0
2	64333	34.61	0
2	64525	34.71	0
2	64717	34.81	0
2	64909	34.91	0
2	65107	35.01	0
2	65299	35.11	0
2	65491	35.21	0
2	65683	35.31	0
2	65875	35.41	0
2	66067	35.51	0
2	66259	35.61	0
2	66451	35.71	0
2	66643	35.81	0
2	66835	35.91	0
2	67033	36.01	0
2	67225	36.11	0
2	67417	36.21	0
2	67609	36.31	0
2	67801	36.41	0
2	67993	36.51	0
2	68185	36.61	0
2	68377	36.71	0
2	68569	36.81	0
2	68761	36.91	0
2	68959	37.01	0
2	69151	37.11	0
2	69343	37.21	0
2	69535	37.31	0
2	69727	37.41	0
2	69919	37.51	0
2	70111	37.61	0
2	70303	37.71	0
2	70495	37.81	0
2	70687	37.91	0
2	70885	38.01	0
2	71077	38.11	0
2	71269	38.21	0
2	71461	38.31	0
2	71653	38.41	0
2	71845	38.51	0
2	72037	38.61	0
2	72229	38.71	0
2	72421	38.81	0
2	72613	38.91	0
2	72811	39.01	0
2	73003	39.11	0
2	73195	39.21	0
2	73387	39.31	0
2	73579	39.41	0
2	73771	39.51	0
2	73963	39.61	0
2	74155	39.71	0
2	74347	39.81	0
2	74539	39.91	0
2	74737	40.01	0
2	74929	40.11	0
2	75121	40.21	0
2	75313	40.31	0
2	75505	40.41	0
2	75697	40.51	0
2	75889	40.61	0
2	76081	40.71	0
2	76273	40.81	0
2	76465	40.91	0
2	76663	41.01	0
2	76855	41.11	0
2	77047	41.21	0
2	77239	41.31	0
2	77431	41.41	0
2	77623	41.51	0
2	77815	41.61	0
2	78007	41.71	0
2	78199	41.81	0
2	78391	41.91	0
2	78589	42.01	0
2	78781	42.11	0
2	78973	42.21	0
2	79165	42.31	0
2	79357	42.41	0
2	79549	42.51	0
2	79741	42.61	0
2	79933	42.71	0
2	80125	42.81	0
2	80317	42.91	0
2	80515	43.01	0
2	80707	43.11	0
2	80899	43.21	0
2	81091	43.31	0
2	81283	43.41	0
2	81475	43.51	0
2	81667	43.61	0
2	81859	43.71	0
2	82051	43.81	0
2	82243	43.91	0
2	82441	44.01	0
2	82633	44.11	0
2	82825	44.21	0
2	83017	44.31	0
2	83209	44.41	0
2	83401	44.51	0
2	83593	44.61	0
2	83785	44.71	0
2	83977	44.81	0
2	84169	44.91	0
2	84367	45.01	0
2	84559	45.11	0
2	84751	45.21	0
2	84943	45.31	0
2	85135	45.41	0
2	85327	45.51	0
2	85519	45.61	0
2	85711	45.71	0
2	86022	45.81	0
2	86212	45.91	0
2	86408	46.01	0
2	86598	46.11	0
2	86788	46.21	0
2	86978	46.31	0
2	87168	46.41	0
2	87358	46.51	0
2	87548	46.61	0
2	87738	46.71	0
2	87928	46.81	0
2	88118	46.91	0
2	88314	47.01	0
2	88504	47.11	0
2	88694	47.21	0
2	88884	47.31	0
2	89074	47.41	0
2	89264	47.51	0
2	89454	47.61	0
2	89644	47.71	0
2	89834	47.81	0
2	90024	47.91	0
2	90220	48.01	0
2	90410	48.11	0
2	90600	48.21	0
2	90790	48.31	0
2	90980	48.41	0
2	91170	48.51	0
2	91360	48.61	0
2	91550	48.71	0
2	91740	48.81	0
2	91930	48.91	0
2	92126	49.01	0
2	92316	49.11	0
2	92506	49.21	0
2	92696	49.31	0
2	92886	49.41	0
2	93076	49.51	0
2	93266	49.61	0
2	93456	49.71	0
2	93646	49.81	0
2	93836	49.91	0
2	94032	50.01	0
2	94222	50.11	0
2	94412	50.21	0
2	94602	50.31	0
2	94792	50.41	0
2	94982	50.51	0
2	95172	50.61	0
2	95362	50.71	0
2	95552	50.81	0
2	95742	50.91	0
2	95938	51.01	0
2	96128	51.11	0
2	96318	51.21	0
2	96508	51.31	0
2	96698	51.41	0
2	96888	51.51	0
2	97078	51.61	0
2	97268	51.71	0
2	97458	51.81	0
2	97648	51.91	0
2	97897	52.01	0
2	98086	52.11	0
2	98275	52.21	0
2	98464	52.31	0
2	98653	52.41	0
2	98842	52.51	0
2	99031	52.61	0
2	99220	52.71	0
2	99409	52.81	0
2	99598	52.91	0
2	99793	53.01	0
2	99982	53.11	0
2	100171	53.21	0
2	100360	53.31	0
2	100549	53.41	0
2	100738	53.51	0
2	100927	53.61	0
2	101116	53.71	0
2	101305	53.81	0
2	101494	53.91	0
2	101689	54.01	0
2	101878	54.11	0
2	102067	54.21	0
2	102256	54.31	0
2	102445	54.41	0
2	102634	54.51	0
2	102823	54.61	0
2	103012	54.71	0
2	103201	54.81	0
2	103390	54.91	0
2	103585	55.01	0
2	103774	55.11	0
2	103963	55.21	0
2	104152	55.31	0
2	104341	55.41	0
2	104530	55.51	0
2	104719	55.61	0
2	104908	55.71	0
2	105097	55.81	0
2	105286	55.91	0
2	105481	56.01	0
2	105670	56.11	0
2	105859	56.21	0
2	106048	56.31	0
2	106237	56.41	0
2	106426	56.51	0
2	106615	56.61	0
2	106804	56.71	0
2	106993	56.81	0
2	107182	56.91	0
2	107377	57.01	0
2	107566	57.11	0
2	107755	57.21	0
2	107944	57.31	0
2	108345	57.41	0
2	108533	57.51	0
2	108721	57.61	0
2	108909	57.71	0
2	109097	57.81	0
2	109285	57.91	0
2	109479	58.01	0
2	109667	58.11	0
2	109855	58.21	0
2	110043	58.31	0
2	110231	58.41	0
2	110419	58.51	0
2	110607	58.61	0
2	110795	58.71	0
2	110983	58.81	0
2	111171	58.91	0
2	111365	59.01	0
2	111553	59.11	0
2	111741	59.21	0
2	111929	59.31	0
2	112117	59.41	0
2	112305	59.51	0
2	112493	59.61	0
2	112681	59.71	0
2	112869	59.81	0
2	113057	59.91	0
2	113251	60.01	0
2	113439	60.11	0
2	113627	60.21	0
2	113815	60.31	0
2	114003	60.41	0
2	114191	60.51	0
2	114379	60.61	0
2	114567	60.71	0
2	114755	60.81	0
2	114943	60.91	0
2	115137	61.01	0
2	115325	61.11	0
2	115513	61.21	0
2	115701	61.31	0
2	115889	61.41	0
2	116077	61.51	0
2	116265	61.61	0
2	116453	61.71	0
2	116641	61.81	0
2	116829	61.91	0
2	117023	62.01	0
2	117211	62.11	0
2	117399	62.21	0
2	117587	62.31	0
2	117775	62.41	0
2	117963	62.51	0
2	118151	62.61	0
2	118339	62.71	0
2	118527	62.81	0
2	118715	62.91	0
2	118909	63.01	0
2	119097	63.11	0
2	119285	63.21	0
2	119473	63.31	0
2	119661	63.41	0
2	119849	63.51	0
2	120037	63.61	0
2	120225	63.71	0
2	120413	63.81	0
2	120601	63.91	0
2	120795	64.01	0
2	120983	64.11	0
2	121171	64.21	0
2	121359	64.31	0
2	121547	64.41	0
2	121735	64.51	0
2	121923	64.61	0
2	122111	64.71	0
2	122299	64.81	0
2	122487	64.91	0
2	122681	65.01	0
2	122869	65.11	0
2	123057	65.21	0
2	123245	65.31	0
2	123433	65.41	0
2	123621	65.51	0
2	123809	65.61	0
2	123997	65.71	0
2	124185	65.81	0
2	124373	65.91	0
2	124567	66.01	0
2	124755	66.11	0
2	124943	66.21	0
2	125131	66.31	0
2	125319	66.41	0
2	125507	66.51	0
2	125695	66.61	0
2	125883	66.71	0
2	126071	66.81	0
2	126259	66.91	0
2	126453	67.01	0
2	126641	67.11	0
2	126829	67.21	0
2	127017	67.31	0
2	127205	67.41	0
2	127393	67.51	0
2	127581	67.61	0
2	127769	67.71	0
2	127957	67.81	0
2	128145	67.91	0
2	128339	68.01	0
2	128527	68.11	0
2	128715	68.21	0
2	128903	68.31	0
2	129091	68.41	0
2	129279	68.51	0
2	129467	68.61	0
2	129655	68.71	0
2	129843	68.81	0
2	130031	68.91	0
2	130225	69.01	0
2	130413	69.11	0
2	130601	69.21	0
2	130789	69.31	0
2	130977	69.41	0
2	131165	69.51	0
2	131353	69.61	0
2	131541	69.71	0
2	131729	69.81	0
2	131917	69.91	0
2	132111	70.01	0
2	132299	70.11	0
2	132487	70.21	0
2	132675	70.31	0
2	132863	70.41	0
2	133051	70.51	0
2	133239	70.61	0
2	133427	70.71	0
2	133615	70.81	0
2	133803	70.91	0
2	133997	71.01	0
2	134185	71.11	0
2	134373	71.21	0
2	134561	71.31	0
2	134749	71.41	0
2	134937	71.51	0
2	135125	71.61	0
2	135313	71.71	0
2	135501	71.81	0
2	135689	71.91	0
2	135883	72.01	0
2	136071	72.11	0
2	136259	72.21	0
2	136447	72.31	0
2	136635	72.41	0
2	136823	72.51	0
2	137011	72.61	0
2	137199	72.71	0
2	137387	72.81	0
2	137575	72.91	0
2	137769	73.01	0
2	137957	73.11	0
2	138145	73.21	0
2	138333	73.31	0
2	138521	73.41	0
2	138709	73.51	0
2	138897	73.61	0
2	139085	73.71	0
2	139273	73.81	0
2	139461	73.91	0
2	139655	74.01	0
2	139843	74.11	0
2	140031	74.21	0
2	140219	74.31	0
2	140407	74.41	0
2	140595	74.51	0
2	140783	74.61	0
2	140971	74.71	0
2	141159	74.81	0
2	141347	74.91	0
2	141541	75.01	0
2	141729	75.11	0
2	141917	75.21	0
2	142105	75.31	0
2	142293	75.41	0
2	142481	75.51	0
2	142669	75.61	0
2	142857	75.71	0
2	143045	75.81	0
2	143233	75.91	0
2	143427	76.01	0
2	143615	76.11	0
2	143803	76.21	0
2	143991	76.31	0
2	144179	76.41	0
2	144367	76.51	0
2	144555	76.61	0
2	144743	76.71	0
2	144931	76.81	0
2	145119	76.91	0
2	145313	77.01	0
2	145501	77.11	0
2	145689	77.21	0
2	145877	77.31	0
2	146065	77.41	0
2	146253	77.51	0
2	146441	77.61	0
2	146629	77.71	0
2	146817	77.81	0
2	147005	77.91	0
2	147199	78.01	0
2	147387	78.11	0
2	147575	78.21	0
2	147763	78.31	0
2	147951	78.41	0
2	148139	78.51	0
2	148327	78.61	0
2	148515	78.71	0
2	148703	78.81	0
2	148891	78.91	0
2	149085	79.01	0
2	149273	79.11	0
2	149461	79.21	0
2	149649	79.31	0
2	149837	79.41	0
2	150025	79.51	0
2	150213	79.61	0
2	150401	79.71	0
2	150589	79.81	0
2	150777	79.91	0
2	150971	80.01	0
2	151159	80.11	0
2	151347	80.21	0
2	151535	80.31	0
2	151723	80.41	0
2	151911	80.51	0
2	152099	80.61	0
2	152287	80.71	0
2	152475	80.81	0
2	152663	80.91	0
2	152857	81.01	0
2	153045	81.11	0
2	153233	81.21	0
2	153421	81.31	0
2	153609	81.41	0
2	153797	81.51	0
2	153985	81.61	0
2	154173	81.71	0
2	154361	81.81	0
2	154549	81.91	0
2	154743	82.01	0
2	154931	82.11	0
2	155119	82.21	0
2	155307	82.31	0
2	155495	82.41	0
2	155683	82.51	0
2	155871	82.61	0
2	156059	82.71	0
2	156247	82.81	0
2	156435	82.91	0
2	156629	83.01	0
2	156817	83.11	0
2	157005	83.21	0
2	157193	83.31	0
2	157381	83.41	0
2	157569	83.51	0
2	157757	83.61	0
2	157945	83.71	0
2	158133	83.81	0
2	158321	83.91	0
2	158515	84.01	0
2	158703	84.11	0
2	158891	84.21	0
2	159079	84.31	0
2	159267	84.41	0
2	159455	84.51	0
2	159643	84.61	0
2	159831	84.71	0
2	160019	84.81	0
2	160207	84.91	0
2	160401	85.01	0
2	160589	85.11	0
2	160777	85.21	0
2	160965	85.31	0
2	161153	85.41	0
2	161341	85.51	0
2	161529	85.61	0
2	161717	85.71	0
2	161905	85.81	0
2	162093	85.91	0
2	162287	86.01	0
2	162475	86.11	0
2	162663	86.21	0
2	162851	86.31	0
2	163039	86.41	0
2	163227	86.51	0
2	163415	86.61	0
2	163603	86.71	0
2	163791	86.81	0
2	163979	86.91	0
2	164173	87.01	0
2	164361	87.11	0
2	164549	87.21	0
2	164737	87.31	0
2	164925	87.41	0
2	165113	87.51	0
2	165301	87.61	0
2	165489	87.71	0
2	165677	87.81	0
2	165865	87.91	0
2	166059	88.01	0
2	166247	88.11	0
2	166435	88.21	0
2	166623	88.31	0
2	166811	88.41	0
2	166999	88.51	0
2	167187	88.61	0
2	167375	88.71	0
2	167563	88.81	0
2	167751	88.91	0
2	167945	89.01	0
2	168133	89.11	0
2	168321	89.21	0
2	168509	89.31	0
2	168697	89.41	0
2	168885	89.51	0
2	169073	89.61	0
2	169261	89.71	0
2	169449	89.81	0
2	169637	89.91	0
2	169831	90.01	0
2	170019	90.11	0
2	170207	90.21	0
2	170395	90.31	0
2	170583	90.41	0
2	170771	90.51	0
2	170959	90.61	0
2	171147	90.71	0
2	171335	90.81	0
2	171523	90.91	0
2	171717	91.01	0
2	171905	91.11	0
2	172093	91.21	0
2	172281	91.31	0
2	172469	91.41	0
2	172657	91.51	0
2	172845	91.61	0
2	173033	91.71	0
2	173221	91.81	0
2	173409	91.91	0
2	173603	92.01	0
2	173791	92.11	0
2	173979	92.21	0
2	174167	92.31	0
2	174355	92.41	0
2	174543	92.51	0
2	174731	92.61	0
2	174919	92.71	0
2	175107	92.81	0
2	175295	92.91	0
2	175489	93.01	0
2	175677	93.11	0
2	175865	93.21	0
2	176053	93.31	0
2	176241	93.41	0
2	176429	93.51	0
2	176617	93.61	0
2	176805	93.71	0
2	176993	93.81	0
2	177181	93.91	0
2	177375	94.01	0
2	177563	94.11	0
2	177751	94.21	0
2	177939	94.31	0
2	178127	94.41	0
2	178315	94.51	0
2	178503	94.61	0
2	178691	94.71	0
2	178879	94.81	0
2	179067	94.91	0
2	179261	95.01	0
2	179449	95.11	0
2	179637	95.21	0
2	179825	95.31	0
2	180013	95.41	0
2	180201	95.51	0
2	180389	95.61	0
2	180577	95.71	0
2	180765	95.81	0
2	180953	95.91	0
2	181147	96.01	0
2	181335	96.11	0
2	181523	96.21	0
2	181711	96.31	0
2	181899	96.41	0
2	182087	96.51	0
2	182275	96.61	0
2	182463	96.71	0
2	182651	96.81	0
2	182839	96.91	0
2	183033	97.01	0
2	183221	97.11	0
2	183409	97.21	0
2	183597	97.31	0
2	183785	97.41	0
2	183973	97.51	0
2	184161	97.61	0
2	184349	97.71	0
2	184537	97.81	0
2	184725	97.91	0
2	184919	98.01	0
2	185107	98.11	0
2	185295	98.21	0
2	185483	98.31	0
2	185671	98.41	0
2	185859	98.51	0
2	186047	98.61	0
2	186235	98.71	0
2	186423	98.81	0
2	186611	98.91	0
2	186805	99.01	0
2	186993	99.11	0
2	187181	99.21	0
2	187369	99.31	0
2	187557	99.41	0
2	187745	99.51	0
2	187933	99.61	0
2	188121	99.71	0
2	188309	99.81	0
2	188497	99.91	0
3	113	1.11	0.000179096
3	301	1.21	0.000340852
3	489	1.31	0.000467435
3	677	1.41	0.000562893
3	865	1.51	0.000631106
3	1053	1.61	0.000675745
3	1241	1.71	0.000700245
3	1429	1.81	0.000707784
3	1617	1.91	0.000701273
3	1811	2.01	0.000683354
3	1999	2.11	0.000656398
3	2187	2.21	0.000622512
3	2375	2.31	0.000583548
3	2563	2.41	0.000541117
3	2751	2.51	0.000496604
3	2939	2.61	0.000451181
3	3127	2.71	0.000405825
3	3315	2.81	0.00036134
3	3503	2.91	0.000318365
3	3697	3.01	0.0002774
3	3885	3.11	0.00023882
3	4073	3.21	0.000202887
3	4261	3.31	0.00016977
3	4449	3.41	0.000139558
3	4637	3.51	0.000112271
3	4825	3.61	8.78717e-05
3	5013	3.71	6.628e-05
3	5201	3.81	4.73785e-05
3	5389	3.91	3.1023e-05
3	5583	4.01	1.70493e-05
3	5771	4.11	5.28023e-06
3	5959	4.21	-4.46922e-06
3	6147	4.31	-1.2387e-05
3	6335	4.41	-1.86602e-05
3	6523	4.51	-2.34717e-05
3	6711	4.61	-2.69978e-05
3	6899	4.71	-2.94062e-05
3	7087	4.81	-3.08545e-05
3	7275	4.91	-3.14892e-05
3	7469	5.01	-3.14451e-05
3	7657	5.11	-3.0845e-05
3	7845	5.21	-2.97994e-05
3	8033	5.31	-2.84072e-05
3	8221	5.41	-2.67556e-05
3	8409	5.51	-2.49208e-05
3	8597	5.61	-2.29687e-05
3	8785	5.71	-2.09553e-05
3	8973	5.81	-1.89277e-05
3	9161	5.91	-1.6925e-05
3	9355	6.01	-1.49784e-05
3	9543	6.11	-1.31129e-05
3	9731	6.21	-1.13474e-05
3	9919	6.31	-9.69553e-06
3	10107	6.41	-8.16651e-06
3	10295	6.51	-6.76571e-06
3	10483	6.61	-5.49522e-06
3	10671	6.71	-4.35441e-06
3	10859	6.81	-3.34045e-06
3	11047	6.91	-2.44874e-06
3	11241	7.01	-1.6733e-06
3	11429	7.11	-1.00716e-06
3	11617	7.21	-4.42628e-07
3	11805	7.31	2.84224e-08
3	11993	7.41	4.14339e-07
3	12181	7.51	7.23492e-07
3	12369	7.61	9.6413e-07
3	12557	7.71	1.14424e-06
3	12745	7.81	1.27148e-06
3	12933	7.91	1.35305e-06
3	13127	8.01	1.3957e-06
3	13315	8.11	1.40565e-06
3	13503	8.21	1.3886e-06
3	13691	8.31	1.34971e-06
3	13879	8.41	1.2936e-06
3	14067	8.51	1.22437e-06
3	14255	8.61	1.14561e-06
3	14443	8.71	1.06046e-06
3	14631	8.81	9.71582e-07
3	14819	8.91	8.81246e-07
3	15013	9.01	7.91334e-07
3	15201	9.11	7.03381e-07
3	15389	9.21	6.18613e-07
3	15577	9.31	5.37979e-07
3	15765	9.41	4.62183e-07
3	15953	9.51	3.91714e-07
3	16141	9.61	3.26878e-07
3	16329	9.71	2.67827e-07
3	16517	9.81	2.14581e-07
3	16705	9.91	1.67052e-07
3	16957	10.01	1.25066e-07
3	17149	10.11	8.83794e-08
3	17341	10.21	5.66978e-08
3	17533	10.31	2.96922e-08
3	17725	10.41	7.00453e-09
3	17917	10.51	-1.17325e-08
3	18109	10.61	-2.68933e-08
3	18301	10.71	-3.88482e-08
3	18493	10.81	-4.79581e-08
3	18685	10.91	-5.45704e-08
3	18883	11.01	-5.90177e-08
3	19075	11.11	-6.16069e-08
3	19267	11.21	-6.26265e-08
3	19459	11.31	-6.23395e-08
3	19651	11.41	-6.09859e-08
3	19843	11.51	-5.87811e-08
3	20035	11.61	-5.59183e-08
3	20227	11.71	-5.25674e-08
3	20419	11.81	-4.88761e-08
3	20611	11.91	-4.4971e-08
3	20809	12.01	-4.09599e-08
3	21001	12.11	-3.69354e-08
3	21193	12.21	-3.29713e-08
3	21385	12.31	-2.9128e-08
3	21577	12.41	-2.54531e-08
3	21769	12.51	-2.19821e-08
3	21961	12.61	-1.87399e-08
3	22153	12.71	-1.57428e-08
3	22345	12.81	-1.30029e-08
3	22537	12.91	-1.05217e-08
3	22735	13.01	-8.29772e-09
3	22927	13.11	-6.32454e-09
3	23119	13.21	-4.59224e-09
3	23311	13.31	-3.08802e-09
3	23503	13.41	-1.79838e-09
3	23695	13.51	-7.08411e-10
3	23887	13.61	1.98241e-10
3	24079	13.71	9.37916e-10
3	24271	13.81	1.52767e-09
3	24463	13.91	1.98384e-09
3	24661	14.01	2.32276e-09
3	24853	14.11	2.55937e-09
3	25045	14.21	2.70788e-09
3	25237	14.31	2.78249e-09
3	25429	14.41	2.79243e-09
3	25621	14.51	2.7498e-09
3	25813	14.61	2.66525e-09
3	26005	14.71	2.54872e-09
3	26197	14.81	2.40803e-09
3	26389	14.91	2.24887e-09
3	26587	15.01	2.07763e-09
3	26779	15.11	1.89999e-09
3	26971	15.21	1.72236e-09
3	27163	15.31	1.54472e-09
3	27355	15.41	1.37064e-09
3	27547	15.51	1.20295e-09
3	27739	15.61	1.04379e-09
3	27931	15.71	8.94573e-10
3	28123	15.81	7.56017e-10
3	28315	15.91	6.29541e-10
3	28513	16.01	5.13012e-10
3	28705	16.11	4.09273e-10
3	28897	16.21	3.16902e-10
3	29089	16.31	2.3519e-10
3	29281	16.41	1.63425e-10
3	29473	16.51	1.02318e-10
3	29665	16.61	4.9738e-11
3	29857	16.71	5.68434e-12
3	30049	16.81	-3.05533e-11
3	30241	16.91	-5.8975e-11
3	30439	17.01	-8.10019e-11
3	30631	17.11	-9.80549e-11
3	30823	17.21	-1.11555e-10
3	31015	17.31	-1.18661e-10
3	31207	17.41	-1.23634e-10
3	31399	17.51	-1.23634e-10
3	31591	17.61	-1.23634e-10
3	31783	17.71	-1.21503e-10
3	31975	17.81	-1.14397e-10
3	32167	17.91	-1.07292e-10
3	32365	18.01	-1.00187e-10
3	32557	18.11	-9.30811e-11
3	32749	18.21	-8.59757e-11
3	32941	18.31	-7.88702e-11
3	33133	18.41	-7.17648e-11
3	33325	18.51	-6.46594e-11
3	33517	18.61	-5.7554e-11
3	33709	18.71	-5.04485e-11
3	33901	18.81	-4.33431e-11
3	34093	18.91	-3.62377e-11
3	34291	19.01	-2.91323e-11
3	34483	19.11	-2.20268e-11
3	34675	19.21	-1.7053e-11
3	34867	19.31	-1.49214e-11
3	35059	19.41	-1.35003e-11
3	35251	19.51	-1.27898e-11
3	35443	19.61	-1.13687e-11
3	35635	19.71	-9.9476e-12
3	35827	19.81	-9.23706e-12
3	36019	19.91	-8.52651e-12
3	36217	20.01	-7.81597e-12
3	36409	20.11	-7.10543e-12
3	36601	20.21	-6.39488e-12
3	36793	20.31	-5.68434e-12
3	36985	20.41	-4.9738e-12
3	37177	20.51	-4.26326e-12
3	37369	20.61	-4.26326e-12
3	37561	20.71	-3.55271e-12
3	37753	20.81	-3.55271e-12
3	37945	20.91	-2.84217e-12
3	38143	21.01	-2.84217e-12
3	38335	21.11	-2.84217e-12
3	38527	21.21	-2.13163e-12
3	38719	21.31	-2.13163e-12
3	38911	21.41	-2.13163e-12
3	39103	21.51	-1.42109e-12
3	39295	21.61	-1.42109e-12
3	39487	21.71	-1.42109e-12
3	39679	21.81	-1.42109e-12
3	39871	21.91	-1.42109e-12
3	40069	22.01	-7.10543e-13
3	40261	22.11	-7.10543e-13
3	40453	22.21	-7.10543e-13
3	40645	22.31	-7.10543e-13
3	40837	22.41	-7.10543e-13
3	41029	22.51	-7.10543e-13
3	41221	22.61	-7.10543e-13
3	41413	22.71	-7.10543e-13
3	41605	22.81	-7.10543e-13
3	41797	22.91	-7.10543e-13
3	41995	23.01	0
3	42187	23.11	0
3	42379	23.21	0
3	42571	23.31	0
3	42763	23.41	0
3	42955	23.51	0
3	43147	23.61	0
3	43339	23.71	0
3	43531	23.81	0
3	43723	23.91	0
3	43921	24.01	0
3	44113	24.11	0
3	44305	24.21	0
3	44497	24.31	0
3	44689	24.41	0
3	44881	24.51	0
3	45073	24.61	0
3	45265	24.71	0
3	45457	24.81	0
3	45649	24.91	0
3	45847	25.01	0
3	46039	25.11	0
3	46231	25.21	0
3	46423	25.31	0
3	46615	25.41	0
3	46807	25.51	0
3	46999	25.61	0
3	47191	25.71	0
3	47383	25.81	0
3	47575	25.91	0
3	47773	26.01	0
3	47965	26.11	0
3	48157	26.21	0
3	48349	26.31	0
3	48541	26.41	0
3	48733	26.51	0
3	48925	26.61	0
3	49117	26.71	0
3	49309	26.81	0
3	49501	26.91	0
3	49699	27.01	0
3	49891	27.11	0
3	50083	27.21	0
3	50275	27.31	0
3	50467	27.41	0
3	50659	27.51	0
3	50851	27.61	0
3	51043	27.71	0
3	51235	27.81	0
3	51427	27.91	0
3	51625	28.01	0
3	51817	28.11	0
3	52009	28.21	0
3	52201	28.31	0
3	52393	28.41	0
3	52585	28.51	0
3	52777	28.61	0
3	52969	28.71	0
3	53161	28.81	0
3	53353	28.91	0
3	53551	29.01	0
3	53743	29.11	0
3	53935	29.21	0
3	54127	29.31	0
3	54319	29.41	0
3	54511	29.51	0
3	54703	29.61	0
3	54895	29.71	0
3	55087	29.81	0
3	55279	29.91	0
3	55477	30.01	0
3	55669	30.11	0
3	55861	30.21	0
3	56053	30.31	0
3	56245	30.41	0
3	56437	30.51	0
3	56629	30.61	0
3	56821	30.71	0
3	57013	30.81	0
3	57205	30.91	0
3	57403	31.01	0
3	57595	31.11	0
3	57787	31.21	0
3	57979	31.31	0
3	58171	31.41	0
3	58363	31.51	0
3	58555	31.61	0
3	58747	31.71	0
3	58939	31.81	0
3	59131	31.91	0
3	59329	32.01	0
3	59521	32.11	0
3	59713	32.21	0
3	59905	32.31	0
3	60097	32.41	0
3	60289	32.51	0
3	60481	32.61	0
3	60673	32.71	0
3	60865	32.81	0
3	61057	32.91	0
3	61255	33.01	0
3	61447	33.11	0
3	61639	33.21	0
3	61831	33.31	0
3	62023	33.41	0
3	62215	33.51	0
3	62407	33.61	0
3	62599	33.71	0
3	62791	33.81	0
3	62983	33.91	0
3	63181	34.01	0
3	63373	34.11	0
3	63565	34.21	0
3	63757	34.31	0
3	63949	34.41	0
3	64141	34.51	0
3	64333	34.61	0
3	64525	34.71	0
3	64717	34.81	0
3	64909	34.91	0
3	65107	35.01	0
3	65299	35.11	0
3	65491	35.21	0
3	65683	35.31	0
3	65875	35.41	0
3	66067	35.51	0
3	66259	35.61	0
3	66451	35.71	0
3	66643	35.81	0
3	66835	35.91	0
3	67033	36.01	0
3	67225	36.11	0
3	67417	36.21	0
3	67609	36.31	0
3	67801	36.41	0
3	67993	36.51	0
3	68185	36.61	0
3	68377	36.71	0
3	68569	36.81	0
3	68761	36.91	0
3	68959	37.01	0
3	69151	37.11	0
3	69343	37.21	0
3	69535	37.31	0
3	69727	37.41	0
3	69919	37.51	0
3	70111	37.61	0
3	70303	37.71	0
3	70495	37.81	0
3	70687	37.91	0
3	70885	38.01	0
3	71077	38.11	0
3	71269	38.21	0
3	71461	38.31	0
3	71653	38.41	0
3	71845	38.51	0
3	72037	38.61	0
3	72229	38.71	0
3	72421	38.81	0
3	72613	38.91	0
3	72811	39.01	0
3	73003	39.11	0
3	73195	39.21	0
3	73387	39.31	0
3	73579	39.41	0
3	73771	39.51	0
3	73963	39.61	0
3	74155	39.71	0
3	74347	39.81	0
3	74539	39.91	0
3	74737	40.01	0
3	74929	40.11	0
3	75121	40.21	0
3	75313	40.31	0
3	75505	40.41	0
3	75697	40.51	0
3	75889	40.61	0
3	76081	40.71	0
3	76273	40.81	0
3	76465	40.91	0
3	76663	41.01	0
3	76855	41.11	0
3	77047	41.21	0
3	77239	41.31	0
3	77431	41.41	0
3	77623	41.51	0
3	77815	41.61	0
3	78007	41.71	0
3	78199	41.81	0
3	78391	41.91	0
3	78589	42.01	0
3	78781	42.11	0
3	78973	42.21	0
3	79165	42.31	0
3	79357	42.41	0
3	79549	42.51	0
3	79741	42.61	0
3	79933	42.71	0
3	80125	42.81	0
3	80317	42.91	0
3	80515	43.01	0
3	80707	43.11	0
3	80899	43.21	0
3	81091	43.31	0
3	81283	43.41	0
3	81475	43.51	0
3	81667	43.61	0
3	81859	43.71	0
3	82051	43.81	0
3	82243	43.91	0
3	82441	44.01	0
3	82633	44.11	0
3	82825	44.21	0
3	83017	44.31	0
3	83209	44.41	0
3	83401	44.51	0
3	83593	44.61	0
3	83785	44.71	0
3	83977	44.81	0
3	84169	44.91	0
3	84367	45.01	0
3	84559	45.11	0
3	84751	45.21	0
3	84943	45.31	0
3	85135	45.41	0
3	85327	45.51	0
3	85519	45.61	0
3	85711	45.71	0
3	86022	45.81	0
3	86212	45.91	0
3	86408	46.01	0
3	86598	46.11	0
3	86788	46.21	0
3	86978	46.31	0
3	87168	46.41	0
3	87358	46.51	0
3	87548	46.61	0
3	87738	46.71	0
3	87928	46.81	0
3	88118	46.91	0
3	88314	47.01	0
3	88504	47.11	0
3	88694	47.21	0
3	88884	47.31	0
3	89074	47.41	0
3	89264	47.51	0
3	89454	47.61	0
3	89644	47.71	0
3	89834	47.81	0
3	90024	47.91	0
3	90220	48.01	0
3	90410	48.11	0
3	90600	48.21	0
3	90790	48.31	0
3	90980	48.41	0
3	91170	48.51	0
3	91360	48.61	0
3	91550	48.71	0
3	91740	48.81	0
3	91930	48.91	0
3	92126	49.01	0
3	92316	49.11	0
3	92506	49.21	0
3	92696	49.31	0
3	92886	49.41	0
3	93076	49.51	0
3	93266	49.61	0
3	93456	49.71	0
3	93646	49.81	0
3	93836	49.91	0
3	94032	50.01	0
3	94222	50.11	0
3	94412	50.21	0
3	94602	50.31	0
3	94792	50.41	0
3	94982	50.51	0
3	95172	50.61	0
3	95362	50.71	0
3	95552	50.81	0
3	95742	50.91	0
3	95938	51.01	0
3	96128	51.11	0
3	96318	51.21	0
3	96508	51.31	0
3	96698	51.41	0
3	96888	51.51	0
3	97078	51.61	0
3	97268	51.71	0
3	97458	51.81	0
3	97648	51.91	0
3	97897	52.01	0
3	98086	52.11	0
3	98275	52.21	0
3	98464	52.31	0
3	98653	52.41	0
3	98842	52.51	0
3	99031	52.61	0
3	99220	52.71	0
3	99409	52.81	0
3	99598	52.91	0
3	99793	53.01	0
3	99982	53.11	0
3	100171	53.21	0
3	100360	53.31	0
3	100549	53.41	0
3	100738	53.51	0
3	100927	53.61	0
3	101116	53.71	0
3	101305	53.81	0
3	101494	53.91	0
3	101689	54.01	0
3	101878	54.11	0
3	102067	54.21	0
3	102256	54.31	0
3	102445	54.41	0
3	102634	54.51	0
3	102823	54.61	0
3	103012	54.71	0
3	103201	54.81	0
3	103390	54.91	0
3	103585	55.01	0
3	103774	55.11	0
3	103963	55.21	0
3	104152	55.31	0
3	104341	55.41	0
3	104530	55.51	0
3	104719	55.61	0
3	104908	55.71	0
3	105097	55.81	0
3	105286	55.91	0
3	105481	56.01	0
3	105670	56.11	0
3	105859	56.21	0
3	106048	56.31	0
3	106237	56.41	0
3	106426	56.51	0
3	106615	56.61	0
3	106804	56.71	0
3	106993	56.81	0
3	107182	56.91	0
3	107377	57.01	0
3	107566	57.11	0
3	107755	57.21	0
3	107944	57.31	0
3	108345	57.41	0
3	108533	57.51	0
3	108721	57.61	0
3	108909	57.71	0
3	109097	57.81	0
3	109285	57.91	0
3	109479	58.01	0
3	109667	58.11	0
3	109855	58.21	0
3	110043	58.31	0
3	110231	58.41	0
3	110419	58.51	0
3	110607	58.61	0
3	110795	58.71	0
3	110983	58.81	0
3	111171	58.91	0
3	111365	59.01	0
3	111553	59.11	0
3	111741	59.21	0
3	111929	59.31	0
3	112117	59.41	0
3	112305	59.51	0
3	112493	59.61	0
3	112681	59.71	0
3	112869	59.81	0
3	113057	59.91	0
3	113251	60.01	0
3	113439	60.11	0
3	113627	60.21	0
3	113815	60.31	0
3	114003	60.41	0
3	114191	60.51	0
3	114379	60.61	0
3	114567	60.71	0
3	114755	60.81	0
3	114943	60.91	0
3	115137	61.01	0
3	115325	61.11	0
3	115513	61.21	0
3	115701	61.31	0
3	115889	61.41	0
3	116077	61.51	0
3	116265	61.61	0
3	116453	61.71	0
3	116641	61.81	0
3	116829	61.91	0
3	117023	62.01	0
3	117211	62.11	0
3	117399	62.21	0
3	117587	62.31	0
3	117775	62.41	0
3	117963	62.51	0
3	118151	62.61	0
3	118339	62.71	0
3	118527	62.81	0
3	118715	62.91	0
3	118909	63.01	0
3	119097	63.11	0
3	119285	63.21	0
3	119473	63.31	0
3	119661	63.41	0
3	119849	63.51	0
3	120037	63.61	0
3	120225	63.71	0
3	120413	63.81	0
3	120601	63.91	0
3	120795	64.01	0
3	120983	64.11	0
3	121171	64.21	0
3	121359	64.31	0
3	121547	64.41	0
3	121735	64.51	0
3	121923	64.61	0
3	122111	64.71	0
3	122299	64.81	0
3	122487	64.91	0
3	122681	65.01	0
3	122869	65.11	0
3	123057	65.21	0
3	123245	65.31	0
3	123433	65.41	0
3	123621	65.51	0
3	123809	65.61	0
3	123997	65.71	0
3	124185	65.81	0
3	124373	65.91	0
3	124567	66.01	0
3	124755	66.11	0
3	124943	66.21	0
3	125131	66.31	0
3	125319	66.41	0
3	125507	66.51	0
3	125695	66.61	0
3	125883	66.71	0
3	126071	66.81	0
3	126259	66.91	0
3	126453	67.01	0
3	126641	67.11	0
3	126829	67.21	0
3	127017	67.31	0
3	127205	67.41	0
3	127393	67.51	0
3	127581	67.61	0
3	127769	67.71	0
3	127957	67.81	0
3	128145	67.91	0
3	128339	68.01	0
3	128527	68.11	0
3	128715	68.21	0
3	128903	68.31	0
3	129091	68.41	0
3	129279	68.51	0
3	129467	68.61	0
3	129655	68.71	0
3	129843	68.81	0
3	130031	68.91	0
3	130225	69.01	0
3	130413	69.11	0
3	130601	69.21	0
3	130789	69.31	0
3	130977	69.41	0
3	131165	69.51	0
3	131353	69.61	0
3	131541	69.71	0
3	131729	69.81	0
3	131917	69.91	0
3	132111	70.01	0
3	132299	70.11	0
3	132487	70.21	0
3	132675	70.31	0
3	132863	70.41	0
3	133051	70.51	0
3	133239	70.61	0
3	133427	70.71	0
3	133615	70.81	0
3	133803	70.91	0
3	133997	71.01	0
3	134185	71.11	0
3	134373	71.21	0
3	134561	71.31	0
3	134749	71.41	0
3	134937	71.51	0
3	135125	71.61	0
3	135313	71.71	0
3	135501	71.81	0
3	135689	71.91	0
3	135883	72.01	0
3	136071	72.11	0
3	136259	72.21	0
3	136447	72.31	0
3	136635	72.41	0
3	136823	72.51	0
3	137011	72.61	0
3	137199	72.71	0
3	137387	72.81	0
3	137575	72.91	0
3	137769	73.01	0
3	137957	73.11	0
3	138145	73.21	0
3	138333	73.31	0
3	138521	73.41	0
3	138709	73.51	0
3	138897	73.61	0
3	139085	73.71	0
3	139273	73.81	0
3	139461	73.91	0
3	139655	74.01	0
3	139843	74.11	0
3	140031	74.21	0
3	140219	74.31	0
3	140407	74.41	0
3	140595	74.51	0
3	140783	74.61	0
3	140971	74.71	0
3	141159	74.81	0
3	141347	74.91	0
3	141541	75.01	0
3	141729	75.11	0
3	141917	75.21	0
3	142105	75.31	0
3	142293	75.41	0
3	142481	75.51	0
3	142669	75.61	0
3	142857	75.71	0
3	143045	75.81	0
3	143233	75.91	0
3	143427	76.01	0
3	143615	76.11	0
3	143803	76.21	0
3	143991	76.31	0
3	144179	76.41	0
3	144367	76.51	0
3	144555	76.61	0
3	144743	76.71	0
3	144931	76.81	0
3	145119	76.91	0
3	145313	77.01	0
3	145501	77.11	0
3	145689	77.21	0
3	145877	77.31	0
3	146065	77.41	0
3	146253	77.51	0
3	146441	77.61	0
3	146629	77.71	0
3	146817	77.81	0
3	147005	77.91	0
3	147199	78.01	0
3	147387	78.11	0
3	147575	78.21	0
3	147763	78.31	0
3	147951	78.41	0
3	148139	78.51	0
3	148327	78.61	0
3	148515	78.71	0
3	148703	78.81	0
3	148891	78.91	0
3	149085	79.01	0
3	149273	79.11	0
3	149461	79.21	0
3	149649	79.31	0
3	149837	79.41	0
3	150025	79.51	0
3	150213	79.61	0
3	150401	79.71	0
3	150589	79.81	0
3	150777	79.91	0
3	150971	80.01	0
3	151159	80.11	0
3	151347	80.21	0
3	151535	80.31	0
3	151723	80.41	0
3	151911	80.51	0
3	152099	80.61	0
3	152287	80.71	0
3	152475	80.81	0
3	152663	80.91	0
3	152857	81.01	0
3	153045	81.11	0
3	153233	81.21	0
3	153421	81.31	0
3	153609	81.41	0
3	153797	81.51	0
3	153985	81.61	0
3	154173	81.71	0
3	154361	81.81	0
3	154549	81.91	0
3	154743	82.01	0
3	154931	82.11	0
3	155119	82.21	0
3	155307	82.31	0
3	155495	82.41	0
3	155683	82.51	0
3	155871	82.61	0
3	156059	82.71	0
3	156247	82.81	0
3	156435	82.91	0
3	156629	83.01	0
3	156817	83.11	0
3	157005	83.21	0
3	157193	83.31	0
3	157381	83.41	0
3	157569	83.51	0
3	157757	83.61	0
3	157945	83.71	0
3	158133	83.81	0
3	158321	83.91	0
3	158515	84.01	0
3	158703	84.11	0
3	158891	84.21	0
3	159079	84.31	0
3	159267	84.41	0
3	159455	84.51	0
3	159643	84.61	0
3	159831	84.71	0
3	160019	84.81	0
3	160207	84.91	0
3	160401	85.01	0
3	160589	85.11	0
3	160777	85.21	0
3	160965	85.31	0
3	161153	85.41	0
3	161341	85.51	0
3	161529	85.61	0
3	161717	85.71	0
3	161905	85.81	0
3	162093	85.91	0
3	162287	86.01	0
3	162475	86.11	0
3	162663	86.21	0
3	162851	86.31	0
3	163039	86.41	0
3	163227	86.51	0
3	163415	86.61	0
3	163603	86.71	0
3	163791	86.81	0
3	163979	86.91	0
3	164173	87.01	0
3	164361	87.11	0
3	164549	87.21	0
3	164737	87.31	0
3	164925	87.41	0
3	165113	87.51	0
3	165301	87.61	0
3	165489	87.71	0
3	165677	87.81	0
3	165865	87.91	0
3	166059	88.01	0
3	166247	88.11	0
3	166435	88.21	0
3	166623	88.31	0
3	166811	88.41	0
3	166999	88.51	0
3	167187	88.61	0
3	167375	88.71	0
3	167563	88.81	0
3	167751	88.91	0
3	167945	89.01	0
3	168133	89.11	0
3	168321	89.21	0
3	168509	89.31	0
3	168697	89.41	0
3	168885	89.51	0
3	169073	89.61	0
3	169261	89.71	0
3	169449	89.81	0
3	169637	89.91	0
3	169831	90.01	0
3	170019	90.11	0
3	170207	90.21	0
3	170395	90.31	0
3	170583	90.41	0
3	170771	90.51	0
3	170959	90.61	0
3	171147	90.71	0
3	171335	90.81	0
3	171523	90.91	0
3	171717	91.01	0
3	171905	91.11	0
3	172093	91.21	0
3	172281	91.31	0
3	172469	91.41	0
3	172657	91.51	0
3	172845	91.61	0
3	173033	91.71	0
3	173221	91.81	0
3	173409	91.91	0
3	173603	92.01	0
3	173791	92.11	0
3	173979	92.21	0
3	174167	92.31	0
3	174355	92.41	0
3	174543	92.51	0
3	174731	92.61	0
3	174919	92.71	0
3	175107	92.81	0
3	175295	92.91	0
3	175489	93.01	0
3	175677	93.11	0
3	175865	93.21	0
3	176053	93.31	0
3	176241	93.41	0
3	176429	93.51	0
3	176617	93.61	0
3	176805	93.71	0
3	176993	93.81	0
3	177181	93.91	0
3	177375	94.01	0
3	177563	94.11	0
3	177751	94.21	0
3	177939	94.31	0
3	178127	94.41	0
3	178315	94.51	0
3	178503	94.61	0
3	178691	94.71	0
3	178879	94.81	0
3	179067	94.91	0
3	179261	95.01	0
3	179449	95.11	0
3	179637	95.21	0
3	179825	95.31	0
3	180013	95.41	0
3	180201	95.51	0
3	180389	95.61	0
3	180577	95.71	0
3	180765	95.81	0
3	180953	95.91	0
3	181147	96.01	0
3	181335	96.11	0
3	181523	96.21	0
3	181711	96.31	0
3	181899	96.41	0
3	182087	96.51	0
3	182275	96.61	0
3	182463	96.71	0
3	182651	96.81	0
3	182839	96.91	0
3	183033	97.01	0
3	183221	97.11	0
3	183409	97.21	0
3	183597	97.31	0
3	183785	97.41	0
3	183973	97.51	0
3	184161	97.61	0
3	184349	97.71	0
3	184537	97.81	0
3	184725	97.91	0
3	184919	98.01	0
3	185107	98.11	0
3	185295	98.21	0
3	185483	98.31	0
3	185671	98.41	0
3	185859	98.51	0
3	186047	98.61	0
3	186235	98.71	0
3	186423	98.81	0
3	186611	98.91	0
3	186805	99.01	0
3	186993	99.11	0
3	187181	99.21	0
3	187369	99.31	0
3	187557	99.41	0
3	187745	99.51	0
3	187933	99.61	0
3	188121	99.71	0
3	188309	99.81	0
3	188497	99.91	0
4	113	1.11	0.00109259
4	301	1.21	0.00106709
4	489	1.31	0.00102704
4	677	1.41	0.000975759
4	865	1.51	0.00091619
4	1053	1.61	0.000850891
4	1241	1.71	0.000782061
4	1429	1.81	0.00071157
4	1617	1.91	0.00064098
4	1811	2.01	0.000571575
4	1999	2.11	0.000504387
4	2187	2.21	0.000440223
4	2375	2.31	0.000379691
4	2563	2.41	0.000323223
4	2751	2.51	0.000271102
4	2939	2.61	0.000223482
4	3127	2.71	0.000180409
4	3315	2.81	0.000141839
4	3503	2.91	0.000107653
4	3697	3.01	7.76787e-05
4	3885	3.11	5.16957e-05
4	4073	3.21	2.94534e-05
4	4261	3.31	1.06787e-05
4	4449	3.41	-4.91459e-06
4	4637	3.51	-1.76184e-05
4	4825	3.61	-2.7724e-05
4	5013	3.71	-3.55168e-05
4	5201	3.81	-4.12726e-05
4	5389	3.91	-4.52541e-05
4	5583	4.01	-4.77086e-05
4	5771	4.11	-4.88665e-05
4	5959	4.21	-4.89399e-05
4	6147	4.31	-4.81224e-05
4	6335	4.41	-4.65886e-05
4	6523	4.51	-4.44947e-05
4	6711	4.61	-4.1979e-05
4	6899	4.71	-3.91623e-05
4	7087	4.81	-3.61492e-05
4	7275	4.91	-3.3029e-05
4	7469	5.01	-2.9877e-05
4	7657	5.11	-2.67554e-05
4	7845	5.21	-2.37147e-05
4	8033	5.31	-2.07949e-05
4	8221	5.41	-1.80267e-05
4	8409	5.51	-1.54325e-05
4	8597	5.61	-1.30275e-05
4	8785	5.71	-1.0821e-05
4	8973	5.81	-8.81673e-06
4	9161	5.91	-7.01443e-06
4	9355	6.01	-5.4101e-06
4	9543	6.11	-3.99696e-06
4	9731	6.21	-2.766e-06
4	9919	6.31	-1.70658e-06
4	10107	6.41	-8.06872e-07
4	10295	6.51	-5.43281e-08
4	10483	6.61	5.63994e-07
4	10671	6.71	1.06112e-06
4	10859	6.81	1.4499e-06
4	11047	6.91	1.74283e-06
4	11241	7.01	1.95188e-06
4	11429	7.11	2.08836e-06
4	11617	7.21	2.16287e-06
4	11805	7.31	2.1852e-06
4	11993	7.41	2.16432e-06
4	12181	7.51	2.10838e-06
4	12369	7.61	2.02467e-06
4	12557	7.71	1.91968e-06
4	12745	7.81	1.79913e-06
4	12933	7.91	1.66796e-06
4	13127	8.01	1.53044e-06
4	13315	8.11	1.39018e-06
4	13503	8.21	1.25018e-06
4	13691	8.31	1.11291e-06
4	13879	8.41	9.80339e-07
4	14067	8.51	8.54002e-07
4	14255	8.61	7.35044e-07
4	14443	8.71	6.24274e-07
4	14631	8.81	5.22206e-07
4	14819	8.91	4.2911e-07
4	15013	9.01	3.45041e-07
4	15201	9.11	2.69888e-07
4	15389	9.21	2.03394e-07
4	15577	9.31	1.45199e-07
4	15765	9.41	9.48539e-08
4	15953	9.51	5.18526e-08
4	16141	9.61	1.56462e-08
4	16329	9.71	-1.43366e-08
4	16517	9.81	-3.86756e-08
4	16705	9.91	-5.79483e-08
4	16957	10.01	-7.27191e-08
4	17149	10.11	-8.35328e-08
4	17341	10.21	-9.09047e-08
4	17533	10.31	-9.53222e-08
4	17725	10.41	-9.72364e-08
[...]
71	53458	29	0.012492611348
71	55384	30	0.012492530472
71	57310	31	0.012479458561
71	59236	32	0.012492394769
71	61162	33	0.012492338284
71	63088	34	0.012492288361
71	65014	35	0.012492244294
71	66940	36	0.012479205459
71	68866	37	0.012492171266
71	70792	38	0.012492141191
71	72718	39	0.012492114774
71	74644	40	0.012492091572
71	76570	41	0.012492071223
71	78496	42	0.01247905338
71	80422	43	0.012492037747
71	82348	44	0.01249202406
71	84274	45	0.012492012079
71	86317	46	0.012595875509
71	88223	47	0.012491992437
71	90129	48	0.012491984429
71	92035	49	0.012491977433
71	93941	50	0.012491971322
71	95847	51	0.012491965987
71	97753	52	0.012491961328
71	99703	53	0.012628957263
71	101599	54	0.012491953722
71	103495	55	0.01249195063
71	105391	56	0.012491947934
71	107287	57	0.012478945588
71	109390	58	0.01297817196
71	111276	59	0.012491855928
71	113162	60	0.012491764471
71	115048	61	0.012478722081
71	116934	62	0.012491723131
71	118820	63	0.012491739684
71	120706	64	0.012491760193
71	122592	65	0.012491783445
71	124478	66	0.012491810186
71	126364	67	0.012491840582
71	128250	68	0.012478874319
71	130136	69	0.012491910983
71	132022	70	0.012491950261
71	133908	71	0.012491991987
71	135794	72	0.012492035887
71	137680	73	0.012492081714
71	139566	74	0.012492129231
71	141452	75	0.012479179666
71	143338	76	0.012492239116
71	145224	77	0.012492313533
71	147110	78	0.012492396772
71	148996	79	0.012492484308
71	150882	80	0.01247957448
71	152768	81	0.012492666841
71	154654	82	0.012492761113
71	156540	83	0.012492856869
71	158426	84	0.012492953497
71	160312	85	0.012480050209
71	162198	86	0.012493145911
71	164084	87	0.012493239006
71	165970	88	0.012493327118
71	167856	89	0.012480406782
71	169742	90	0.012493473749
71	171628	91	0.012493524566
71	173514	92	0.012493558819
71	175400	93	0.012480579267
71	177286	94	0.012493589628
71	179172	95	0.01249359278
71	181058	96	0.012480590243
71	182944	97	0.012493582285
71	184830	98	0.012493567985
71	186716	99	0.012493545525
71	188602	100	0.012480513191
72	1722	2	0
72	3608	3	0
72	5494	4	0
72	7380	5	0
72	9266	6	0
72	11152	7	0
72	13038	8	0
72	14924	9	0
72	16812	10	0
72	18790	11	0
72	20716	12	0
72	22642	13	0
72	24568	14	0
72	26494	15	0
72	28420	16	0
72	30346	17	0
72	32272	18	0
72	34198	19	0
72	36124	20	0
72	38050	21	0
72	39976	22	0
72	41902	23	0
72	43828	24	0
72	45754	25	0
72	47680	26	0
72	49606	27	0
72	51532	28	0
72	53458	29	0
72	55384	30	0
72	57310	31	0
72	59236	32	0
72	61162	33	0
72	63088	34	0
72	65014	35	0
72	66940	36	0
72	68866	37	0
72	70792	38	0
72	72718	39	0
72	74644	40	0
72	76570	41	0
72	78496	42	0
72	80422	43	0
72	82348	44	0
72	84274	45	0
72	86317	46	0
72	88223	47	0
72	90129	48	0
72	92035	49	0
72	93941	50	0
72	95847	51	0
72	97753	52	0
72	99703	53	0
72	101599	54	0
72	103495	55	0
72	105391	56	0
72	107287	57	0
72	109390	58	0
72	111276	59	0
72	113162	60	0
72	115048	61	0
72	116934	62	0
72	118820	63	0
72	120706	64	0
72	122592	65	0
72	124478	66	0
72	126364	67	0
72	128250	68	0
72	130136	69	0
72	132022	70	0
72	133908	71	0
72	135794	72	0
72	137680	73	0
72	139566	74	0
72	141452	75	0
72	143338	76	0
72	145224	77	0
72	147110	78	0
72	148996	79	0
72	150882	80	0
72	152768	81	0
72	154654	82	0
72	156540	83	0
72	158426	84	0
72	160312	85	0
72	162198	86	0
72	164084	87	0
72	165970	88	0
72	167856	89	0
72	169742	90	0
72	171628	91	0
72	173514	92	0
72	175400	93	0
72	177286	94	0
72	179172	95	0
72	181058	96	0
72	182944	97	0
72	184830	98	0
72	186716	99	0
72	188602	100	0
73	1723	2	3
73	3609	3	3
73	5495	4	3
73	7381	5	3
73	9267	6	3
73	11153	7	3
73	13039	8	3
73	14925	9	3
73	16813	10	3
73	18791	11	3
73	20717	12	3
73	22643	13	3
73	24569	14	3
73	26495	15	3
73	28421	16	3
73	30347	17	3
73	32273	18	3
73	34199	19	3
73	36125	20	3
73	38051	21	3
73	39977	22	3
73	41903	23	3
73	43829	24	3
73	45755	25	3
73	47681	26	3
73	49607	27	3
73	51533	28	3
73	53459	29	3
73	55385	30	3
73	57311	31	3
73	59237	32	3
73	61163	33	3
73	63089	34	3
73	65015	35	3
73	66941	36	3
73	68867	37	3
73	70793	38	3
73	72719	39	3
73	74645	40	3
73	76571	41	3
73	78497	42	3
73	80423	43	3
73	82349	44	3
73	84275	45	3
73	86318	46	3
73	88224	47	3
73	90130	48	3
73	92036	49	3
73	93942	50	3
73	95848	51	3
73	97754	52	3
73	99704	53	3
73	101600	54	3
73	103496	55	3
73	105392	56	3
73	107288	57	3
73	109391	58	3
73	111277	59	3
73	113163	60	3
73	115049	61	3
73	116935	62	3
73	118821	63	3
73	120707	64	3
73	122593	65	3
73	124479	66	3
73	126365	67	3
73	128251	68	3
73	130137	69	3
73	132023	70	3
73	133909	71	3
73	135795	72	3
73	137681	73	3
73	139567	74	3
73	141453	75	3
73	143339	76	3
73	145225	77	3
73	147111	78	3
73	148997	79	3
73	150883	80	3
73	152769	81	3
73	154655	82	3
73	156541	83	3
73	158427	84	3
73	160313	85	3
73	162199	86	3
73	164085	87	3
73	165971	88	3
73	167857	89	3
73	169743	90	3
73	171629	91	3
73	173515	92	3
73	175401	93	3
73	177287	94	3
73	179173	95	3
73	181059	96	3
73	182945	97	3
73	184831	98	3
73	186717	99	3
73	188603	100	3
74	1723	2	0.010809619034
74	3609	3	0.01248239888
74	5495	4	0.012495398873
74	7381	5	0.01248239886
74	9267	6	0.01249539886
74	11153	7	0.01249539886
74	13039	8	0.01248239886
74	14925	9	0.01249539886
74	16813	10	0.01248239886
74	18791	11	0.012540355327
74	20717	12	0.012495355233
74	22643	13	0.012482255522
74	24569	14	0.012495105905
74	26495	15	0.01249492183
74	28421	16	0.012481716995
74	30347	17	0.01249450224
74	32273	18	0.012481285766
74	34199	19	0.012494073545
74	36125	20	0.012493869751
74	38051	21	0.012493677126
74	39977	22	0.012480497333
74	41903	23	0.012493331197
74	43829	24	0.012493178945
74	45755	25	0.012493040354
74	47681	26	0.012479914926
74	49607	27	0.012492801945
74	51533	28	0.012492700594
74	53459	29	0.012492609987
74	55385	30	0.012492529231
74	57311	31	0.012479457435
74	59237	32	0.01249239375
74	61163	33	0.012492337366
74	63089	34	0.012492287536
74	65015	35	0.012492243553
74	66941	36	0.012479204796
74	68867	37	0.012492170673
74	70793	38	0.012492140663
74	72719	39	0.012492114303
74	74645	40	0.012492091154
74	76571	41	0.01249207085
74	78497	42	0.012479053051
74	80423	43	0.012492037454
74	82349	44	0.012492023801
74	84275	45	0.01249201185
74	86318	46	0.012595875307
74	88224	47	0.012491992258
74	90130	48	0.012491984271
74	92036	49	0.012491977294
74	93942	50	0.0124919712
74	95848	51	0.012491965878
74	97754	52	0.012491961233
74	99704	53	0.012595704581
74	101600	54	0.012491953649
74	103496	55	0.012491950565
74	105392	56	0.012491947878
74	107288	57	0.012478945537
74	109391	58	0.013011551324
74	111277	59	0.01249185644
74	113163	60	0.012491769815
74	115049	61	0.012478730811
74	116935	62	0.012491732544
74	118821	63	0.01249174871
74	120707	64	0.012491768793
74	122593	65	0.012491791768
74	124479	66	0.012491818318
74	126365	67	0.012491848547
74	128251	68	0.012478882127
74	130137	69	0.012491918652
74	132023	70	0.012491957797
74	133909	71	0.012491999398
74	135795	72	0.012492043188
74	137681	73	0.012492088917
74	139567	74	0.012492136344
74	141453	75	0.012479186155
74	143339	76	0.012492245289
74	145225	77	0.012492319058
74	147111	78	0.012492401958
74	148997	79	0.012492489307
74	150883	80	0.012479579331
74	152769	81	0.012492671547
74	154655	82	0.012492765681
74	156541	83	0.012492861308
74	158427	84	0.012492957817
74	160313	85	0.012480054419
74	162199	86	0.012493150018
74	164085	87	0.012493243017
74	165971	88	0.012493331036
74	167857	89	0.012480410609
74	169743	90	0.012493477484
74	171629	91	0.012493528206
74	173515	92	0.012493562354
74	175401	93	0.01248058268
74	177287	94	0.012493592889
74	179173	95	0.012493595837
74	181059	96	0.012480593012
74	182945	97	0.012493584623
74	184831	98	0.01249356968
74	186717	99	0.012493546338
74	188603	100	0.012480512994
75	1723	2	0
75	3609	3	0
75	5495	4	0
75	7381	5	0
75	9267	6	0
75	11153	7	0
75	13039	8	0
75	14925	9	0
75	16813	10	0
75	18791	11	0
75	20717	12	0
75	22643	13	0
75	24569	14	0
75	26495	15	0
75	28421	16	0
75	30347	17	0
75	32273	18	0
75	34199	19	0
75	36125	20	0
75	38051	21	0
75	39977	22	0
75	41903	23	0
75	43829	24	0
75	45755	25	0
75	47681	26	0
75	49607	27	0
75	51533	28	0
75	53459	29	0
75	55385	30	0
75	57311	31	0
75	59237	32	0
75	61163	33	0
75	63089	34	0
75	65015	35	0
75	66941	36	0
75	68867	37	0
75	70793	38	0
75	72719	39	0
75	74645	40	0
75	76571	41	0
75	78497	42	0
75	80423	43	0
75	82349	44	0
75	84275	45	0
75	86318	46	0
75	88224	47	0
75	90130	48	0
75	92036	49	0
75	93942	50	0
75	95848	51	0
75	97754	52	0
75	99704	53	0
75	101600	54	0
75	103496	55	0
75	105392	56	0
75	107288	57	0
75	109391	58	0
75	111277	59	0
75	113163	60	0
75	115049	61	0
75	116935	62	0
75	118821	63	0
75	120707	64	0
75	122593	65	0
75	124479	66	0
75	126365	67	0
75	128251	68	0
75	130137	69	0
75	132023	70	0
75	133909	71	0
75	135795	72	0
75	137681	73	0
75	139567	74	0
75	141453	75	0
75	143339	76	0
75	145225	77	0
75	147111	78	0
75	148997	79	0
75	150883	80	0
75	152769	81	0
75	154655	82	0
75	156541	83	0
75	158427	84	0
75	160313	85	0
75	162199	86	0
75	164085	87	0
75	165971	88	0
75	167857	89	0
75	169743	90	0
75	171629	91	0
75	173515	92	0
75	175401	93	0
75	177287	94	0
75	179173	95	0
75	181059	96	0
75	182945	97	0
75	184831	98	0
75	186717	99	0
75	188603	100	0
76	1724	2	4
76	3610	3	4
76	5496	4	4
76	7382	5	4
76	9268	6	4
76	11154	7	4
76	13040	8	4
76	14926	9	4
76	16814	10	4
76	18792	11	4
76	20718	12	4
76	22644	13	4
76	24570	14	4
76	26496	15	4
76	28422	16	4
76	30348	17	4
76	32274	18	4
76	34200	19	4
76	36126	20	4
76	38052	21	4
76	39978	22	4
76	41904	23	4
76	43830	24	4
76	45756	25	4
76	47682	26	4
76	49608	27	4
76	51534	28	4
76	53460	29	4
76	55386	30	4
76	57312	31	4
76	59238	32	4
76	61164	33	4
76	63090	34	4
76	65016	35	4
76	66942	36	4
76	68868	37	4
76	70794	38	4
76	72720	39	4
76	74646	40	4
76	76572	41	4
76	78498	42	4
76	80424	43	4
76	82350	44	4
76	84276	45	4
76	86319	46	4
76	88225	47	4
76	90131	48	4
76	92037	49	4
76	93943	50	4
76	95849	51	4
76	97755	52	4
76	99705	53	4
76	101601	54	4
76	103497	55	4
76	105393	56	4
76	107289	57	4
76	109392	58	4
76	111278	59	4
76	113164	60	4
76	115050	61	4
76	116936	62	4
76	118822	63	4
76	120708	64	4
76	122594	65	4
76	124480	66	4
76	126366	67	4
76	128252	68	4
76	130138	69	4
76	132024	70	4
76	133910	71	4
76	135796	72	4
76	137682	73	4
76	139568	74	4
76	141454	75	4
76	143340	76	4
76	145226	77	4
76	147112	78	4
76	148998	79	4
76	150884	80	4
76	152770	81	4
76	154656	82	4
76	156542	83	4
76	158428	84	4
76	160314	85	4
76	162200	86	4
76	164086	87	4
76	165972	88	4
76	167858	89	4
76	169744	90	4
76	171630	91	4
76	173516	92	4
76	175402	93	4
76	177288	94	4
76	179174	95	4
76	181060	96	4
76	182946	97	4
76	184832	98	4
76	186718	99	4
76	188604	100	4
77	1724	2	0.005242659762
77	3610	3	0.006240599717
77	5496	4	0.0062535997
77	7382	5	0.0062535997
77	9268	6	0.0062535997
77	11154	7	0.0062405997
77	13040	8	0.0062535997
77	14926	9	0.0062535997
77	16814	10	0.0062535997
77	18792	11	0.006286597722
77	20718	12	0.006253578966
77	22644	13	0.006253536961
77	24570	14	0.006253478832
77	26496	15	0.006240412491
77	28422	16	0.006253343753
77	30348	17	0.00625327639
77	32274	18	0.006253212677
77	34200	19	0.006240153849
77	36126	20	0.006253100457
77	38052	21	0.006253052599
77	39978	22	0.006253010109
77	41904	23	0.006239972664
77	43830	24	0.00625293985
77	45756	25	0.006252911227
77	47682	26	0.006252886348
77	49608	27	0.006252864785
77	51534	28	0.00623984614
77	53460	29	0.006252830051
77	55386	30	0.006252816187
77	57312	31	0.006252804258
77	59238	32	0.006239794001
77	61164	33	0.006252785191
77	63090	34	0.006252777629
77	65016	35	0.006252771144
77	66942	36	0.006252765584
77	68868	37	0.006239760815
77	70794	38	0.006252756729
77	72720	39	0.006252753233
77	74646	40	0.006252750238
77	76572	41	0.006252747672
77	78498	42	0.006239745478
77	80424	43	0.006252743596
77	82350	44	0.006252741989
77	84276	45	0.006252740611
77	86319	46	0.00653873656
77	88225	47	0.006252711469
77	90131	48	0.0062396679
77	92037	49	0.006252598159
77	93943	50	0.006252522198
77	95849	51	0.006252447301
77	97755	52	0.006252373638
77	99705	53	0.006239300283
77	101601	54	0.006252226836
77	103497	55	0.006252153278
77	105393	56	0.006252079658
77	107289	57	0.006252006
77	109392	58	0.006251932313
77	111278	59	0.006238858595
77	113164	60	0.006251784851
77	115050	61	0.006251711604
77	116936	62	0.006251646721
77	118822	63	0.006251567683
77	120708	64	0.006251488129
77	122594	65	0.006251411864
77	124480	66	0.006251337614
77	126366	67	0.006251263734
77	128252	68	0.006238189727
77	130138	69	0.006251115616
77	132024	70	0.006251041478
77	133910	71	0.006250967349
77	135796	72	0.006250893223
77	137682	73	0.006250819099
77	139568	74	0.006250744975
77	141454	75	0.00625067085
77	143340	76	0.006250596725
77	145226	77	0.006250522601
77	147112	78	0.006250448476
77	148998	79	0.006250374352
77	150884	80	0.006250300227
77	152770	81	0.006250226103
77	154656	82	0.006250151977
77	156542	83	0.006250077854
77	158428	84	0.006250003728
77	160314	85	0.006249929604
77	162200	86	0.006249855479
77	164086	87	0.006249781355
77	165972	88	0.00624970723
77	167858	89	0.006249633105
77	169744	90	0.006249558981
77	171630	91	0.006249484856
77	173516	92	0.006249410732
77	175402	93	0.006249336607
77	177288	94	0.006249262483
77	179174	95	0.006249188357
77	181060	96	0.006249114234
77	182946	97	0.006249040108
77	184832	98	0.006248965984
77	186718	99	0.00624889186
77	188604	100	0.006248817735
78	1724	2	0
78	3610	3	0
78	5496	4	0
78	7382	5	0
78	9268	6	0
78	11154	7	0
78	13040	8	0
78	14926	9	0
78	16814	10	0
78	18792	11	0
78	20718	12	0
78	22644	13	0
78	24570	14	0
78	26496	15	0
78	28422	16	0
78	30348	17	0
78	32274	18	0
78	34200	19	0
78	36126	20	0
78	38052	21	0
78	39978	22	0
78	41904	23	0
78	43830	24	0
78	45756	25	0
78	47682	26	0
78	49608	27	0
78	51534	28	0
78	53460	29	0
78	55386	30	0
78	57312	31	0
78	59238	32	0
78	61164	33	0
78	63090	34	0
78	65016	35	0
78	66942	36	0
78	68868	37	0
78	70794	38	0
78	72720	39	0
78	74646	40	0
78	76572	41	0
78	78498	42	0
78	80424	43	0
78	82350	44	0
78	84276	45	0
78	86319	46	0
78	88225	47	0
78	90131	48	0
78	92037	49	0
78	93943	50	0
78	95849	51	0
78	97755	52	0
78	99705	53	0
78	101601	54	0
78	103497	55	0
78	105393	56	0
78	107289	57	0
78	109392	58	0
78	111278	59	0
78	113164	60	0
78	115050	61	0
78	116936	62	0
78	118822	63	0
78	120708	64	0
78	122594	65	0
78	124480	66	0
78	126366	67	0
78	128252	68	0
78	130138	69	0
78	132024	70	0
78	133910	71	0
78	135796	72	0
78	137682	73	0
78	139568	74	0
78	141454	75	0
78	143340	76	0
78	145226	77	0
78	147112	78	0
78	148998	79	0
78	150884	80	0
78	152770	81	0
78	154656	82	0
78	156542	83	0
78	158428	84	0
78	160314	85	0
78	162200	86	0
78	164086	87	0
78	165972	88	0
78	167858	89	0
78	169744	90	0
78	171630	91	0
78	173516	92	0
78	175402	93	0
78	177288	94	0
78	179174	95	0
78	181060	96	0
78	182946	97	0
78	184832	98	0
78	186718	99	0
78	188604	100	0
79	1725	2	5
79	3611	3	5
79	5497	4	5
79	7383	5	5
79	9269	6	5
79	11155	7	5
79	13041	8	5
79	14927	9	5
79	16815	10	5
79	18793	11	5
79	20719	12	5
79	22645	13	5
79	24571	14	5
79	26497	15	5
79	28423	16	5
79	30349	17	5
79	32275	18	5
79	34201	19	5
79	36127	20	5
79	38053	21	5
79	39979	22	5
79	41905	23	5
79	43831	24	5
79	45757	25	5
79	47683	26	5
79	49609	27	5
79	51535	28	5
79	53461	29	5
79	55387	30	5
79	57313	31	5
79	59239	32	5
79	61165	33	5
79	63091	34	5
79	65017	35	5
79	66943	36	5
79	68869	37	5
79	70795	38	5
79	72721	39	5
79	74647	40	5
79	76573	41	5
79	78499	42	5
79	80425	43	5
79	82351	44	5
79	84277	45	5
79	86320	46	5
79	88226	47	5
79	90132	48	5
79	92038	49	5
79	93944	50	5
79	95850	51	5
79	97756	52	5
79	99706	53	5
79	101602	54	5
79	103498	55	5
79	105394	56	5
79	107290	57	5
79	109393	58	5
79	111279	59	5
79	113165	60	5
79	115051	61	5
79	116937	62	5
79	118823	63	5
79	120709	64	5
79	122595	65	5
79	124481	66	5
79	126367	67	5
79	128253	68	5
79	130139	69	5
79	132025	70	5
79	133911	71	5
79	135797	72	5
79	137683	73	5
79	139569	74	5
79	141455	75	5
79	143341	76	5
79	145227	77	5
79	147113	78	5
79	148999	79	5
79	150885	80	5
79	152771	81	5
79	154657	82	5
79	156543	83	5
79	158429	84	5
79	160315	85	5
79	162201	86	5
79	164087	87	5
79	165973	88	5
79	167859	89	5
79	169745	90	5
79	171631	91	5
79	173517	92	5
79	175403	93	5
79	177289	94	5
79	179175	95	5
79	181061	96	5
79	182947	97	5
79	184833	98	5
79	186719	99	5
79	188605	100	5
80	1725	2	0.005243679776
80	3611	3	0.006240599718
80	5497	4	0.0062535997
80	7383	5	0.0062535997
80	9269	6	0.0062535997
80	11155	7	0.0062405997
80	13041	8	0.0062535997
80	14927	9	0.0062535997
80	16815	10	0.0062535997
80	18793	11	0.006285598077
80	20719	12	0.006253580516
80	22645	13	0.006253539533
80	24571	14	0.006253482
80	26497	15	0.006240415906
80	28423	16	0.006253347181
80	30349	17	0.006253279681
80	32275	18	0.006253215749
80	34201	19	0.006240156658
80	36127	20	0.00625310299
80	38053	21	0.006253054856
80	39979	22	0.006253012106
80	41905	23	0.006239974418
80	43831	24	0.006252941383
80	45757	25	0.006252912562
80	47683	26	0.006252887506
80	49609	27	0.006252865788
80	51535	28	0.006239847006
80	53461	29	0.006252830798
80	55387	30	0.00625281683
80	57313	31	0.006252804811
80	59239	32	0.006239794476
80	61165	33	0.006252785599
80	63091	34	0.006252777979
80	65017	35	0.006252771445
80	66943	36	0.006252765841
80	68869	37	0.006239761036
80	70795	38	0.006252756918
80	72721	39	0.006252753394
80	74647	40	0.006252750377
80	76573	41	0.006252747791
80	78499	42	0.006239745579
80	80425	43	0.006252743683
80	82351	44	0.006252742063
80	84277	45	0.006252740675
80	86320	46	0.006538737578
80	88226	47	0.006252712633
80	90132	48	0.006239670933
80	92038	49	0.006252601914
80	93944	50	0.006252525986
80	95850	51	0.006252451007
80	97756	52	0.006252377308
80	99706	53	0.006239303952
80	101602	54	0.006252230511
80	103498	55	0.006252156958
80	105394	56	0.00625208334
80	107290	57	0.006252009684
80	109393	58	0.006251935998
80	111279	59	0.006238862281
80	113165	60	0.006251788539
80	115051	61	0.006251714771
80	116937	62	0.006251650558
80	118823	63	0.006251571703
80	120709	64	0.00625149203
80	122595	65	0.006251415608
80	124481	66	0.006251341309
80	126367	67	0.006251267431
80	128253	68	0.00623819343
80	130139	69	0.006251119323
80	132025	70	0.006251045185
80	133911	71	0.006250971055
80	135797	72	0.006250896929
80	137683	73	0.006250822806
80	139569	74	0.006250748681
80	141455	75	0.006250674556
80	143341	76	0.006250600431
80	145227	77	0.006250526308
80	147113	78	0.006250452182
80	148999	79	0.006250378058
80	150885	80	0.006250303933
80	152771	81	0.006250229809
80	154657	82	0.006250155684
80	156543	83	0.00625008156
80	158429	84	0.006250007434
80	160315	85	0.00624993331
80	162201	86	0.006249859186
80	164087	87	0.006249785061
80	165973	88	0.006249710936
80	167859	89	0.006249636811
80	169745	90	0.006249562688
80	171631	91	0.006249488562
80	173517	92	0.006249414438
80	175403	93	0.006249340313
80	177289	94	0.006249266189
80	179175	95	0.006249192064
80	181061	96	0.00624911794
80	182947	97	0.006249043814
80	184833	98	0.00624896969
80	186719	99	0.006248895567
80	188605	100	0.006248821441
81	1725	2	0
81	3611	3	0
81	5497	4	0
81	7383	5	0
81	9269	6	0
81	11155	7	0
81	13041	8	0
81	14927	9	0
81	16815	10	0
81	18793	11	0
81	20719	12	0
81	22645	13	0
81	24571	14	0
81	26497	15	0
81	28423	16	0
81	30349	17	0
81	32275	18	0
81	34201	19	0
81	36127	20	0
81	38053	21	0
81	39979	22	0
81	41905	23	0
81	43831	24	0
81	45757	25	0
81	47683	26	0
81	49609	27	0
81	51535	28	0
81	53461	29	0
81	55387	30	0
81	57313	31	0
81	59239	32	0
81	61165	33	0
81	63091	34	0
81	65017	35	0
81	66943	36	0
81	68869	37	0
81	70795	38	0
81	72721	39	0
81	74647	40	0
81	76573	41	0
81	78499	42	0
81	80425	43	0
81	82351	44	0
81	84277	45	0
81	86320	46	0
81	88226	47	0
81	90132	48	0
81	92038	49	0
81	93944	50	0
81	95850	51	0
81	97756	52	0
81	99706	53	0
81	101602	54	0
81	103498	55	0
81	105394	56	0
81	107290	57	0
81	109393	58	0
81	111279	59	0
81	113165	60	0
81	115051	61	0
81	116937	62	0
81	118823	63	0
81	120709	64	0
81	122595	65	0
81	124481	66	0
81	126367	67	0
81	128253	68	0
81	130139	69	0
81	132025	70	0
81	133911	71	0
81	135797	72	0
81	137683	73	0
81	139569	74	0
81	141455	75	0
81	143341	76	0
81	145227	77	0
81	147113	78	0
81	148999	79	0
81	150885	80	0
81	152771	81	0
81	154657	82	0
81	156543	83	0
81	158429	84	0
81	160315	85	0
81	162201	86	0
81	164087	87	0
81	165973	88	0
81	167859	89	0
81	169745	90	0
81	171631	91	0
81	173517	92	0
81	175403	93	0
81	177289	94	0
81	179175	95	0
81	181061	96	0
81	182947	97	0
81	184833	98	0
81	186719	99	0
81	188605	100	0

