file 5315645 1720719922                                         
version 3
run BreakRanksNoGui-1851-20240711-19:44:53-306371
attr configname BreakRanksNoGui
attr datetime 20240711-19:44:53
attr datetimef 20240711-194453
attr experiment BreakRanksNoGui
attr inifile omnetpp.ini
attr iterationvars "$nCars=16, $platoonSize=16, $nLanes=1, $ploegH=0.5, $controller=1, $headway=0.1, $leaderHeadway=1.2, $leaderSpeed=110, $breakRanksSafetyDistance=20, $minSpeed=100, $maxSpeed=120, $beaconInterval=0.1, $priority=4, $packetSize=200, $sController=\"CACC\", $0=2, $1=0"
attr iterationvarsd nCars=16/platoonSize=16/nLanes=1/ploegH=0.5/controller=1/headway=0.1/leaderHeadway=1.2/leaderSpeed=110/breakRanksSafetyDistance=20/minSpeed=100/maxSpeed=120/beaconInterval=0.1/priority=4/packetSize=200/sController=CACC/2/0
attr iterationvarsf nCars=16,platoonSize=16,nLanes=1,ploegH=0.5,controller=1,headway=0.1,leaderHeadway=1.2,leaderSpeed=110,breakRanksSafetyDistance=20,minSpeed=100,maxSpeed=120,beaconInterval=0.1,priority=4,packetSize=200,sController=CACC,2,0-
attr measurement "$nCars=16, $platoonSize=16, $nLanes=1, $ploegH=0.5, $controller=1, $headway=0.1, $leaderHeadway=1.2, $leaderSpeed=110, $breakRanksSafetyDistance=20, $minSpeed=100, $maxSpeed=120, $beaconInterval=0.1, $priority=4, $packetSize=200, $sController=\"CACC\", $0=2, $1=0"
attr network Highway
attr processid 306371
attr repetition 1
attr replication #1
attr resultdir results
attr runnumber 1851
attr seedset 1
itervar beaconInterval 0.1
itervar breakRanksSafetyDistance 20
itervar controller 1
itervar headway 0.1
itervar leaderHeadway 1.2
itervar leaderSpeed 110
itervar maxSpeed 120
itervar minSpeed 100
itervar nCars 16
itervar nLanes 1
itervar packetSize 200
itervar platoonSize 16
itervar ploegH 0.5
itervar priority 4
itervar sController "\"CACC\""
config image-path ../../../veins/images
config repeat 10
config extends BreakRanks
config *.manager.command "\"sumo\""
config *.manager.ignoreGuiCommands true
config output-vector-file "results/BreakRanks_1_0.1_110_20_16 /result_1.vec"
config output-scalar-file "results/BreakRanks_1_0.1_110_20_16 /result_1.sca"
config extends Platooning
config *.node[*].scenario_type "\"BreakRanksScenario\""
config *.manager.command "\"sumo-gui\""
config *.node[*].scenario_type "\"SimpleScenario\""
config cmdenv-express-mode true
config cmdenv-autoflush true
config cmdenv-status-frequency 15s
config num-rngs 6
config network Highway
config debug-on-errors true
config print-undisposed true
config *.playgroundSizeX 65000m
config *.playgroundSizeY 25000m
config *.playgroundSizeZ 50m
config sim-time-limit "100 s"
config *.annotations.draw false
config *.obstacles.debug false
config *.world.useTorus false
config *.world.use2D false
config *.manager.updateInterval 0.01s
config *.manager.host "\"localhost\""
config *.manager.moduleType "\"org.car2x.plexe.PlatoonCar\""
config *.manager.moduleName "\"node\""
config *.manager.moduleDisplayString "\"\""
config *.manager.autoShutdown true
config *.manager.margin 25
config *.connectionManager.sendDirect true
config *.connectionManager.maxInterfDist 2600m
config *.connectionManager.drawMaxIntfDist false
config *.**.nic.mac1609_4.useServiceChannel false
config *.**.nic.mac1609_4.txPower 100mW
config *.**.nic.mac1609_4.bitrate 6Mbps
config *.**.nic.mac1609_4.useAcks true
config *.**.nic.mac1609_4.ackErrorRate 0.0
config *.**.nic.mac1609_4.frameErrorRate 0.0
config *.**.nic.phy80211p.minPowerLevel -94dBm
config *.**.nic.phy80211p.maxTXPower 100mW
config *.**.nic.phy80211p.useNoiseFloor true
config *.**.nic.phy80211p.noiseFloor -95dBm
config *.**.nic.phy80211p.decider "xmldoc(\"config.xml\")"
config *.**.nic.phy80211p.analogueModels "xmldoc(\"config.xml\")"
config *.**.nic.phy80211p.usePropagationDelay true
config *.node[*].mobility.x 0
config *.node[*].mobility.y 0
config *.node[*].mobility.z 1.895
config seed-set 1
config **.seed 1
config *.node[*].prot.rng-0 2
config *.node[*].appl.rng-0 3
config *.node[*].scenario.rng-0 4
config **.traffic.rng-0 5
config *.manager.configFile "\"./sumocfg/freeway.sumo.cfg\""
config *.manager.launchConfig "xmldoc(\"./sumocfg/freeway.launchd.xml\")"
config **.numberOfCars 16
config **.numberOfCarsPerPlatoon 16
config **.numberOfLanes 1
config *.node[*].helper_type "\"PositionHelper\""
config *.node[*].scenario.caccC1 0.5
config *.node[*].scenario.caccXi 1
config *.node[*].scenario.caccOmegaN "0.2 Hz"
config *.node[*].scenario.caccSpacing "2 m"
config *.node[*].scenario.engineTau "0.5 s"
config *.node[*].scenario.ploegH 0.5s
config *.node[*].scenario.ploegKp 0.2
config *.node[*].scenario.ploegKd 0.7
config *.node[*].scenario.useRealisticEngine false
config *.node[*].scenario.useControllerAcceleration true
config *.node[*].scenario.nLanes 1
config **.numericController 1
config **.headway 0.1s
config *.node[*].scenario.accHeadway 0.1s
config *.node[*].scenario.leaderHeadway 1.2s
config *.node[*].scenario.leaderSpeed 110kmph
config *.node[*].appl_type "\"SimplePlatooningApp\""
config *.node[*].appl.*.scalar-recording true
config *.node[*].appl.*.vector-recording true
config *.node[0].appl.breakRanksSafetyDistance 20m
config *.node[*].appl.minSpeed 100kmph
config *.node[*].appl.maxSpeed 120kmph
config *.node[*].protocol_type "\"SimplePlatooningBeaconing\""
config *.node[*].prot.*.scalar-recording true
config *.node[*].prot.*.vector-recording true
config *.node[*].prot.beaconingInterval 0.1s
config *.node[*].prot.priority 4
config *.node[*].prot.packetSize 200
config **.traffic_type "\"PlatoonsTrafficManager\""
config **.traffic.platoonInsertTime "1 s"
config **.traffic.platoonInsertSpeed 110kmph
config **.traffic.nCars 16
config **.traffic.platoonSize 16
config **.traffic.nLanes 1
config **.traffic.platooningVType "\"vtypeauto\""
config **.traffic.controller "\"CACC\""
config **.traffic.platoonInsertDistance 2m
config **.traffic.platoonInsertHeadway 0s
config **.traffic.platoonLeaderHeadway 1.2s
config **.scalar-recording false
config **.vector-recording false

vector 0 Highway.node[0].appl distance ETV
vector 1 Highway.node[0].appl relativeSpeed ETV
vector 2 Highway.node[0].appl nodeId ETV
vector 3 Highway.node[0].appl acceleration ETV
vector 4 Highway.node[0].appl controllerAcceleration ETV
vector 5 Highway.node[0].appl speed ETV
vector 6 Highway.node[0].appl posx ETV
vector 7 Highway.node[0].appl posy ETV
vector 8 Highway.node[1].appl distance ETV
vector 9 Highway.node[1].appl relativeSpeed ETV
vector 10 Highway.node[1].appl nodeId ETV
vector 11 Highway.node[1].appl acceleration ETV
vector 12 Highway.node[1].appl controllerAcceleration ETV
vector 13 Highway.node[1].appl speed ETV
vector 14 Highway.node[1].appl posx ETV
vector 15 Highway.node[1].appl posy ETV
vector 16 Highway.node[2].appl distance ETV
vector 17 Highway.node[2].appl relativeSpeed ETV
vector 18 Highway.node[2].appl nodeId ETV
vector 19 Highway.node[2].appl acceleration ETV
vector 20 Highway.node[2].appl controllerAcceleration ETV
vector 21 Highway.node[2].appl speed ETV
vector 22 Highway.node[2].appl posx ETV
vector 23 Highway.node[2].appl posy ETV
vector 24 Highway.node[3].appl distance ETV
vector 25 Highway.node[3].appl relativeSpeed ETV
vector 26 Highway.node[3].appl nodeId ETV
vector 27 Highway.node[3].appl acceleration ETV
vector 28 Highway.node[3].appl controllerAcceleration ETV
vector 29 Highway.node[3].appl speed ETV
vector 30 Highway.node[3].appl posx ETV
vector 31 Highway.node[3].appl posy ETV
vector 32 Highway.node[4].appl distance ETV
vector 33 Highway.node[4].appl relativeSpeed ETV
vector 34 Highway.node[4].appl nodeId ETV
vector 35 Highway.node[4].appl acceleration ETV
vector 36 Highway.node[4].appl controllerAcceleration ETV
vector 37 Highway.node[4].appl speed ETV
vector 38 Highway.node[4].appl posx ETV
vector 39 Highway.node[4].appl posy ETV
vector 40 Highway.node[5].appl distance ETV
vector 41 Highway.node[5].appl relativeSpeed ETV
vector 42 Highway.node[5].appl nodeId ETV
vector 43 Highway.node[5].appl acceleration ETV
vector 44 Highway.node[5].appl controllerAcceleration ETV
vector 45 Highway.node[5].appl speed ETV
vector 46 Highway.node[5].appl posx ETV
vector 47 Highway.node[5].appl posy ETV
vector 48 Highway.node[6].appl distance ETV
vector 49 Highway.node[6].appl relativeSpeed ETV
vector 50 Highway.node[6].appl nodeId ETV
vector 51 Highway.node[6].appl acceleration ETV
vector 52 Highway.node[6].appl controllerAcceleration ETV
vector 53 Highway.node[6].appl speed ETV
vector 54 Highway.node[6].appl posx ETV
vector 55 Highway.node[6].appl posy ETV
vector 56 Highway.node[7].appl distance ETV
vector 57 Highway.node[7].appl relativeSpeed ETV
vector 58 Highway.node[7].appl nodeId ETV
vector 59 Highway.node[7].appl acceleration ETV
vector 60 Highway.node[7].appl controllerAcceleration ETV
vector 61 Highway.node[7].appl speed ETV
vector 62 Highway.node[7].appl posx ETV
vector 63 Highway.node[7].appl posy ETV
vector 64 Highway.node[8].appl distance ETV
vector 65 Highway.node[8].appl relativeSpeed ETV
vector 66 Highway.node[8].appl nodeId ETV
vector 67 Highway.node[8].appl acceleration ETV
vector 68 Highway.node[8].appl controllerAcceleration ETV
vector 69 Highway.node[8].appl speed ETV
vector 70 Highway.node[8].appl posx ETV
vector 71 Highway.node[8].appl posy ETV
vector 72 Highway.node[9].appl distance ETV
vector 73 Highway.node[9].appl relativeSpeed ETV
vector 74 Highway.node[9].appl nodeId ETV
vector 75 Highway.node[9].appl acceleration ETV
vector 76 Highway.node[9].appl controllerAcceleration ETV
vector 77 Highway.node[9].appl speed ETV
vector 78 Highway.node[9].appl posx ETV
vector 79 Highway.node[9].appl posy ETV
vector 80 Highway.node[10].appl distance ETV
vector 81 Highway.node[10].appl relativeSpeed ETV
vector 82 Highway.node[10].appl nodeId ETV
vector 83 Highway.node[10].appl acceleration ETV
vector 84 Highway.node[10].appl controllerAcceleration ETV
vector 85 Highway.node[10].appl speed ETV
vector 86 Highway.node[10].appl posx ETV
vector 87 Highway.node[10].appl posy ETV
vector 88 Highway.node[11].appl distance ETV
vector 89 Highway.node[11].appl relativeSpeed ETV
vector 90 Highway.node[11].appl nodeId ETV
vector 91 Highway.node[11].appl acceleration ETV
vector 92 Highway.node[11].appl controllerAcceleration ETV
vector 93 Highway.node[11].appl speed ETV
vector 94 Highway.node[11].appl posx ETV
vector 95 Highway.node[11].appl posy ETV
vector 96 Highway.node[12].appl distance ETV
vector 97 Highway.node[12].appl relativeSpeed ETV
vector 98 Highway.node[12].appl nodeId ETV
vector 99 Highway.node[12].appl acceleration ETV
vector 100 Highway.node[12].appl controllerAcceleration ETV
vector 101 Highway.node[12].appl speed ETV
vector 102 Highway.node[12].appl posx ETV
vector 103 Highway.node[12].appl posy ETV
vector 104 Highway.node[13].appl distance ETV
vector 105 Highway.node[13].appl relativeSpeed ETV
vector 106 Highway.node[13].appl nodeId ETV
vector 107 Highway.node[13].appl acceleration ETV
vector 108 Highway.node[13].appl controllerAcceleration ETV
vector 109 Highway.node[13].appl speed ETV
vector 110 Highway.node[13].appl posx ETV
vector 111 Highway.node[13].appl posy ETV
vector 112 Highway.node[14].appl distance ETV
vector 113 Highway.node[14].appl relativeSpeed ETV
vector 114 Highway.node[14].appl nodeId ETV
vector 115 Highway.node[14].appl acceleration ETV
vector 116 Highway.node[14].appl controllerAcceleration ETV
vector 117 Highway.node[14].appl speed ETV
vector 118 Highway.node[14].appl posx ETV
vector 119 Highway.node[14].appl posy ETV
vector 120 Highway.node[15].appl distance ETV
vector 121 Highway.node[15].appl relativeSpeed ETV
vector 122 Highway.node[15].appl nodeId ETV
vector 123 Highway.node[15].appl acceleration ETV
vector 124 Highway.node[15].appl controllerAcceleration ETV
vector 125 Highway.node[15].appl speed ETV
vector 126 Highway.node[15].appl posx ETV
vector 127 Highway.node[15].appl posy ETV
vector 128 Highway.node[8].prot frontDelay ETV
vector 129 Highway.node[8].prot frontDelayId ETV
vector 130 Highway.node[11].prot frontDelay ETV
vector 131 Highway.node[11].prot frontDelayId ETV
vector 132 Highway.node[9].prot frontDelay ETV
vector 133 Highway.node[9].prot frontDelayId ETV
vector 134 Highway.node[4].prot frontDelay ETV
vector 135 Highway.node[4].prot frontDelayId ETV
vector 136 Highway.node[6].prot frontDelay ETV
vector 137 Highway.node[6].prot frontDelayId ETV
vector 138 Highway.node[2].prot frontDelay ETV
vector 139 Highway.node[2].prot frontDelayId ETV
vector 140 Highway.node[15].prot frontDelay ETV
vector 141 Highway.node[15].prot frontDelayId ETV
vector 142 Highway.node[10].prot frontDelay ETV
vector 143 Highway.node[10].prot frontDelayId ETV
vector 144 Highway.node[13].prot frontDelay ETV
vector 145 Highway.node[13].prot frontDelayId ETV
vector 146 Highway.node[7].prot frontDelay ETV
vector 147 Highway.node[7].prot frontDelayId ETV
vector 148 Highway.node[12].prot frontDelay ETV
vector 149 Highway.node[12].prot frontDelayId ETV
vector 150 Highway.node[14].prot frontDelay ETV
vector 151 Highway.node[14].prot frontDelayId ETV
vector 152 Highway.node[5].prot frontDelay ETV
vector 153 Highway.node[5].prot frontDelayId ETV
vector 154 Highway.node[1].prot leaderDelay ETV
vector 155 Highway.node[1].prot leaderDelayId ETV
vector 156 Highway.node[1].prot frontDelay ETV
vector 157 Highway.node[1].prot frontDelayId ETV
vector 158 Highway.node[8].prot leaderDelay ETV
vector 159 Highway.node[8].prot leaderDelayId ETV
vector 160 Highway.node[9].prot leaderDelay ETV
vector 161 Highway.node[9].prot leaderDelayId ETV
vector 162 Highway.node[10].prot leaderDelay ETV
vector 163 Highway.node[10].prot leaderDelayId ETV
vector 164 Highway.node[11].prot leaderDelay ETV
vector 165 Highway.node[11].prot leaderDelayId ETV
vector 166 Highway.node[12].prot leaderDelay ETV
vector 167 Highway.node[12].prot leaderDelayId ETV
vector 168 Highway.node[13].prot leaderDelay ETV
vector 169 Highway.node[13].prot leaderDelayId ETV
vector 170 Highway.node[14].prot leaderDelay ETV
vector 171 Highway.node[14].prot leaderDelayId ETV
vector 172 Highway.node[15].prot leaderDelay ETV
vector 173 Highway.node[15].prot leaderDelayId ETV
vector 174 Highway.node[2].prot leaderDelay ETV
vector 175 Highway.node[2].prot leaderDelayId ETV
vector 176 Highway.node[3].prot leaderDelay ETV
vector 177 Highway.node[3].prot leaderDelayId ETV
vector 178 Highway.node[4].prot leaderDelay ETV
vector 179 Highway.node[4].prot leaderDelayId ETV
vector 180 Highway.node[5].prot leaderDelay ETV
vector 181 Highway.node[5].prot leaderDelayId ETV
vector 182 Highway.node[6].prot leaderDelay ETV
vector 183 Highway.node[6].prot leaderDelayId ETV
vector 184 Highway.node[7].prot leaderDelay ETV
vector 185 Highway.node[7].prot leaderDelayId ETV
vector 186 Highway.node[3].prot frontDelay ETV
vector 187 Highway.node[3].prot frontDelayId ETV
vector 188 Highway.node[0].prot nodeId ETV
vector 189 Highway.node[0].prot busyTime ETV
vector 190 Highway.node[0].prot collisions ETV
vector 191 Highway.node[1].prot nodeId ETV
vector 192 Highway.node[1].prot busyTime ETV
vector 193 Highway.node[1].prot collisions ETV
vector 194 Highway.node[2].prot nodeId ETV
vector 195 Highway.node[2].prot busyTime ETV
vector 196 Highway.node[2].prot collisions ETV
vector 197 Highway.node[3].prot nodeId ETV
vector 198 Highway.node[3].prot busyTime ETV
vector 199 Highway.node[3].prot collisions ETV
vector 200 Highway.node[4].prot nodeId ETV
vector 201 Highway.node[4].prot busyTime ETV
vector 202 Highway.node[4].prot collisions ETV
vector 203 Highway.node[5].prot nodeId ETV
vector 204 Highway.node[5].prot busyTime ETV
vector 205 Highway.node[5].prot collisions ETV
vector 206 Highway.node[6].prot nodeId ETV
vector 207 Highway.node[6].prot busyTime ETV
vector 208 Highway.node[6].prot collisions ETV
vector 209 Highway.node[7].prot nodeId ETV
vector 210 Highway.node[7].prot busyTime ETV
vector 211 Highway.node[7].prot collisions ETV
vector 212 Highway.node[8].prot nodeId ETV
vector 213 Highway.node[8].prot busyTime ETV
vector 214 Highway.node[8].prot collisions ETV
vector 215 Highway.node[9].prot nodeId ETV
vector 216 Highway.node[9].prot busyTime ETV
vector 217 Highway.node[9].prot collisions ETV
vector 218 Highway.node[10].prot nodeId ETV
vector 219 Highway.node[10].prot busyTime ETV
vector 220 Highway.node[10].prot collisions ETV
vector 221 Highway.node[11].prot nodeId ETV
vector 222 Highway.node[11].prot busyTime ETV
vector 223 Highway.node[11].prot collisions ETV
vector 224 Highway.node[12].prot nodeId ETV
vector 225 Highway.node[12].prot busyTime ETV
vector 226 Highway.node[12].prot collisions ETV
vector 227 Highway.node[13].prot nodeId ETV
vector 228 Highway.node[13].prot busyTime ETV
vector 229 Highway.node[13].prot collisions ETV
vector 230 Highway.node[14].prot nodeId ETV
vector 231 Highway.node[14].prot busyTime ETV
vector 232 Highway.node[14].prot collisions ETV
vector 233 Highway.node[15].prot nodeId ETV
vector 234 Highway.node[15].prot busyTime ETV
vector 235 Highway.node[15].prot collisions ETV
0	16905 18176 113 2095063 1.11 99.91 989 -1 -1 -989 989
1	35081 17187 113 2095063 1.11 99.91 989 0 0 0 0
2	52268 17187 113 2095063 1.11 99.91 989 0 0 0 0
3	69455 19775 113 2095063 1.11 99.91 989 -0.00283113 0.000125957 -0.043966303784312 9.6812896349407e-05
4	89230 27155 113 2095063 1.11 99.91 989 -0.00437036 0.00019576 -0.042459310034081 0.00013890441444735
5	116385 23117 113 2095063 1.11 99.91 989 30.5554 30.56 30219.5304 923377.16656332
6	139502 23014 113 2095063 1.11 99.91 989 100.36 3119.26 1592103.083 3315627814.6683
7	162516 22132 113 2095063 1.11 99.91 989 242.45 242.45 239783.05 58135400.472499
8	184648 22864 114 2095064 1.11 99.91 989 1.99891 20 16369.77055 308642.09722986
9	207512 25740 114 2095064 1.11 99.91 989 -0.000537994 1.43325 179.99965591199 170.63017647223
10	233252 18176 114 2095064 1.11 99.91 989 1 1 989 989
11	251428 27225 114 2095064 1.11 99.91 989 -0.545058 0.115817 -0.032288750105002 6.8247458890851
12	278653 27240 114 2095064 1.11 99.91 989 -0.717576 0.116769 0.279963869836 7.969973757234
13	305893 24040 114 2095064 1.11 99.91 989 29.1223 30.56 30039.5307 912547.79915326
14	329933 23999 114 2095064 1.11 99.91 989 94.3604 3095.26 1571777.3518 3242585764.13
15	353932 23121 114 2095064 1.11 99.91 989 242.45 242.45 239783.05 58135400.472499
16	377053 23874 115 2095065 1.11 99.91 989 1.98739 19.9564 12324.18004 205220.72782871
17	400927 25819 115 2095065 1.11 99.91 989 -0.00851996 0.532424 179.56672646488 66.892565355711
18	426746 19165 115 2095065 1.11 99.91 989 10 10 9890 98900
19	445911 26121 115 2095065 1.11 99.91 989 -1.21512 0.213182 -0.14837253242999 59.107464001454
20	472032 26118 115 2095065 1.11 99.91 989 -1.41054 0.213392 0.1703644195 63.488678368334
21	498150 24006 115 2095065 1.11 99.91 989 24.3964 30.56 28420.5519 821248.90903715
22	522156 23965 115 2095065 1.11 99.91 989 40.3604 2879.36 1409077.4274 2660762213.2609
23	546121 23121 115 2095065 1.11 99.91 989 242.45 242.45 239783.05 58135400.472499
24	569242 23968 116 2095066 1.11 99.91 989 1.98684 19.9315 11872.10415 194236.22143152
25	593210 25822 116 2095066 1.11 99.91 989 -0.00510172 0.50826 179.31863709971 64.03433121831
26	619032 19165 116 2095066 1.11 99.91 989 11 11 10879 119669
27	638197 26070 116 2095066 1.11 99.91 989 -1.21538 0.205187 -0.21963922929 59.89686854239
28	664267 26065 116 2095066 1.11 99.91 989 -1.4065 0.205433 0.10448297272995 63.999260160179
29	690332 24002 116 2095066 1.11 99.91 989 24.2239 30.56 28241.234 811372.1890199
30	714334 24003 116 2095066 1.11 99.91 989 34.3604 2855.43 1393249.3466 2604860437.1406
31	738337 23121 116 2095066 1.11 99.91 989 242.45 242.45 239783.05 58135400.472499
32	761458 23923 117 2095067 1.11 99.91 989 1.99998 19.8957 11432.05433 183398.04805295
33	785381 25716 117 2095067 1.11 99.91 989 -2.40702e-05 0.486168 178.96202074489 61.155273389327
34	811097 19165 117 2095067 1.11 99.91 989 12 12 11868 142416
35	830262 26042 117 2095067 1.11 99.91 989 -1.20985 0.197392 -0.32406047802451 60.071402394608
36	856304 26041 117 2095067 1.11 99.91 989 -1.40581 0.197571 0.0030888406869855 64.441078649904
37	882345 23997 117 2095067 1.11 99.91 989 24.0843 30.56 28062.2723 801526.35020777
38	906342 23970 117 2095067 1.11 99.91 989 28.3604 2831.53 1377861.1822 2550757079.9428
39	930312 23121 117 2095067 1.11 99.91 989 242.45 242.45 239783.05 58135400.472499
40	953433 23947 118 2095068 1.11 99.91 989 1.97576 19.8458 10981.92878 172600.12360421
41	977380 25734 118 2095068 1.11 99.91 989 -0.0125687 0.466427 178.46563749158 58.79200438853
42	1003114 19165 118 2095068 1.11 99.91 989 13 13 12857 167141
43	1022279 25974 118 2095068 1.11 99.91 989 -1.21458 0.190044 -0.47251782954994 60.517158831979
44	1048253 25972 118 2095068 1.11 99.91 989 -1.41485 0.190117 -0.1378032888863 65.170430775573
45	1074225 24021 118 2095068 1.11 99.91 989 23.9654 30.56 27883.8079 791729.08890183
46	1098246 24007 118 2095068 1.11 99.91 989 22.3604 2807.69 1362923.3311 2498476967.5627
47	1122253 23121 118 2095068 1.11 99.91 989 242.45 242.45 239783.05 58135400.472499
48	1145374 23977 119 2095069 1.11 99.91 989 2 19.7784 10543.87093 161979.33564056
49	1169351 25655 119 2095069 1.11 99.91 989 -5.1406e-06 0.449062 177.79476603141 56.569011694087
50	1195006 19165 119 2095069 1.11 99.91 989 14 14 13846 193844
51	1214171 25956 119 2095069 1.11 99.91 989 -1.2123 0.183186 -0.67751499565401 60.518019822491
52	1240127 25941 119 2095069 1.11 99.91 989 -1.40812 0.183302 -0.334507609498 64.919021267442
53	1266068 24004 119 2095069 1.11 99.91 989 23.8679 30.56 27706.0121 781978.26518053
54	1290072 24006 119 2095069 1.11 99.91 989 16.3604 2783.91 1348423.2887 2448014538.2997
55	1314078 23121 119 2095069 1.11 99.91 989 242.45 242.45 239783.05 58135400.472499
56	1337199 23951 120 2095070 1.11 99.91 989 1.99999 19.6897 10102.29742 151477.49222014
57	1361150 25751 120 2095070 1.11 99.91 989 -0.000397659 0.433675 176.91045373755 54.678802047253
58	1386901 19165 120 2095070 1.11 99.91 989 15 15 14835 222525
59	1406066 25927 120 2095070 1.11 99.91 989 -1.21092 0.176879 -0.95329425091205 60.46867667479
60	1431993 25919 120 2095070 1.11 99.91 989 -1.41728 0.176964 -0.59825634170699 65.081925145507
61	1457912 23993 120 2095070 1.11 99.91 989 23.786 30.56 27529.102 772290.27283434
62	1481905 23991 120 2095070 1.11 99.91 989 10.3604 2760.22 1334365.0864 2399381813.9458
63	1505896 23121 120 2095070 1.11 99.91 989 242.45 242.45 239783.05 58135400.472499
64	1529017 23991 121 2095071 1.11 99.91 989 1.99968 19.9998 15923.89614 296548.22552282
65	1553008 26573 121 2095071 1.11 99.91 989 -6.49554e-05 1.13253 179.99783975743 137.82466858871
66	1579581 18176 121 2095071 1.11 99.91 989 2 2 1978 3956
67	1597757 27021 121 2095071 1.11 99.91 989 -0.846132 0.179034 -0.032509135330004 18.484330726794
68	1624778 27042 121 2095071 1.11 99.91 989 -1.07702 0.180199 0.27982081269201 21.261251968964
69	1651820 24030 121 2095071 1.11 99.91 989 28.0378 30.56 29859.5337 901982.75691868
70	1675850 24003 121 2095071 1.11 99.91 989 88.3604 3071.26 1551897.3776 3171164435.763
71	1699853 23121 121 2095071 1.11 99.91 989 242.45 242.45 239783.05 58135400.472499
72	1722974 23962 122 2095072 1.11 99.91 989 1.99965 19.9996 15472.1117 284624.94647522
73	1746936 26502 122 2095072 1.11 99.91 989 -0.000178054 0.956835 179.99577403906 117.6099213737
74	1773438 18176 122 2095072 1.11 99.91 989 3 3 2967 8901
75	1791614 26864 122 2095072 1.11 99.91 989 -1.01246 0.213664 -0.032790909452693 29.348485803828
76	1818478 26851 122 2095072 1.11 99.91 989 -1.25816 0.214674 0.27951052669001 33.200412031135
77	1845329 24016 122 2095072 1.11 99.91 989 27.1905 30.56 29679.5362 891600.79241334
78	1869345 23989 122 2095072 1.11 99.91 989 82.3604 3047.26 1532469.2453 3101392471.0491
79	1893334 23121 122 2095072 1.11 99.91 989 242.45 242.45 239783.05 58135400.472499
80	1916455 23976 123 2095073 1.11 99.91 989 1.9996 19.999 15020.36407 272905.54739822
81	1940431 26374 123 2095073 1.11 99.91 989 -0.00108184 0.839977 179.99051448967 103.8702086788
82	1966805 18176 123 2095073 1.11 99.91 989 4 4 3956 15824
83	1984981 26735 123 2095073 1.11 99.91 989 -1.10405 0.231278 -0.034331326555014 38.147633308805
84	2011716 26727 123 2095073 1.11 99.91 989 -1.34918 0.232078 0.27804865645999 42.586685464544
85	2038443 24006 123 2095073 1.11 99.91 989 26.5144 30.56 29499.5463 881350.24864709
86	2062449 24006 123 2095073 1.11 99.91 989 76.3604 3023.26 1513492.9018 3033289602.7059
87	2086455 23121 123 2095073 1.11 99.91 989 242.45 242.45 239783.05 58135400.472499
88	2109576 23969 124 2095074 1.11 99.91 989 1.99982 19.9978 14574.06327 261406.56780609
89	2133545 26211 124 2095074 1.11 99.91 989 -3.44258e-05 0.752485 179.97815515468 93.472510493716
90	2159756 18176 124 2095074 1.11 99.91 989 5 5 4945 24725
91	2177932 26609 124 2095074 1.11 99.91 989 -1.15615 0.238181 -0.03714972213997 44.910716619648
92	2204541 26622 124 2095074 1.11 99.91 989 -1.3887 0.238953 0.27551418428001 49.326838586062
93	2231163 23994 124 2095074 1.11 99.91 989 25.968 30.56 29319.5679 871195.58699063
94	2255157 23985 124 2095074 1.11 99.91 989 70.3604 2999.26 1494962.8408 2966869021.3649
95	2279142 23121 124 2095074 1.11 99.91 989 242.45 242.45 239783.05 58135400.472499
96	2302263 23971 125 2095075 1.11 99.91 989 1.99125 19.9954 14118.83861 249938.58166828
97	2326234 26124 125 2095075 1.11 99.91 989 -0.0108638 0.690263 179.95474831795 86.206133408297
98	2352358 18176 125 2095075 1.11 99.91 989 6 6 5934 35604
99	2370534 26502 125 2095075 1.11 99.91 989 -1.1864 0.238692 -0.042879122189969 50.020135390146
100	2397036 27482 125 2095075 1.11 99.91 989 -1.4148 0.239158 0.27011203932003 54.737613665915
101	2424518 24991 125 2095075 1.11 99.91 989 25.5191 30.56 29139.6149 861114.98228613
102	2449509 24976 125 2095075 1.11 99.91 989 64.3604 2975.27 1476888.0963 2902161565.5173
103	2474485 24110 125 2095075 1.11 99.91 989 242.45 242.45 239783.05 58135400.472499
104	2498595 24947 126 2095076 1.11 99.91 989 1.99597 19.9913 13670.996 238638.77728481
105	2523542 27022 126 2095076 1.11 99.91 989 -0.00517011 0.638214 179.91378756458 79.842650715169
106	2550564 19165 126 2095076 1.11 99.91 989 7 7 6923 48461
107	2569729 27381 126 2095076 1.11 99.91 989 -1.20224 0.234937 -0.053370928856072 53.657572270763
108	2597110 27387 126 2095076 1.11 99.91 989 -1.41989 0.23535 0.26022903946005 58.191303985925
109	2624497 24993 126 2095076 1.11 99.91 989 25.1519 30.56 28959.7008 851088.87892748
110	2649490 24971 126 2095076 1.11 99.91 989 58.3604 2951.27 1459260.8819 2839176529.5997
111	2674461 24110 126 2095076 1.11 99.91 989 242.45 242.45 239783.05 58135400.472499
112	2698571 24851 127 2095077 1.11 99.91 989 1.99975 19.9844 13218.89085 227398.62235144
113	2723422 26931 127 2095077 1.11 99.91 989 -0.000750255 0.598488 179.84532693559 74.973184917261
114	2750353 19165 127 2095077 1.11 99.91 989 8 8 7912 63296
115	2769518 27271 127 2095077 1.11 99.91 989 -1.20727 0.228814 -0.071503633440018 56.096493280274
116	2796789 27292 127 2095077 1.11 99.91 989 -1.4247 0.229062 0.24315429536998 60.813381050254
117	2824081 24981 127 2095077 1.11 99.91 989 24.8515 30.56 28779.8561 841105.61802375
118	2849062 24965 127 2095077 1.11 99.91 989 52.3604 2927.29 1442086.0525 2777939706.7889
119	2874027 24110 127 2095077 1.11 99.91 989 242.45 242.45 239783.05 58135400.472499
120	2898137 24919 128 2095078 1.11 99.91 989 1.99925 19.9734 12772.59068 216275.39683759
121	2923056 26899 128 2095078 1.11 99.91 989 -0.0012465 0.562371 179.73548145286 70.522542270618
122	2949955 19165 128 2095078 1.11 99.91 989 9 9 8901 80109
123	2969120 27173 128 2095078 1.11 99.91 989 -1.21135 0.221263 -0.10132031031998 57.835656856354
124	2996293 27175 128 2095078 1.11 99.91 989 -1.41825 0.221512 0.21492658850001 62.327707012656
125	3023468 24997 128 2095078 1.11 99.91 989 24.6033 30.56 28600.1191 831159.56831043
126	3048465 24964 128 2095078 1.11 99.91 989 46.3604 2903.32 1425357.6451 2718462236.1999
127	3073429 24110 128 2095078 1.11 99.91 989 242.45 242.45 239783.05 58135400.472499
128	3097539 41630 2289 2095133 1.212413821263 99.912423713507 988 0.099992801212 0.1000111905 98.800002693493 9.8800005690102
129	3139169 28899 2289 2095133 1.212413821263 99.912423713507 988 2 2 1976 3952
130	3168068 41665 2416 2095254 1.212849881305 99.912807953661 988 0.099902826565 0.100098869917 98.799911873605 9.8799841876383
131	3209733 28940 2416 2095254 1.212849881305 99.912807953661 988 5 5 4940 24700
132	3238673 41650 2548 2095386 1.234358921333 99.934356113773 988 0.099992136788 0.100011189916 98.799989993689 9.87999802938
133	3280323 28913 2548 2095386 1.234358921333 99.934356113773 988 3 3 2964 8892
134	3309236 41660 2678 2095516 1.235029101458 99.935026833357 988 0.099992801212 0.100011190367 98.800003533148 9.8800007370352
135	3350896 29904 2678 2095516 1.235029101458 99.935026833357 988 12 12 11856 142272
136	3380800 41675 2809 2095647 1.248699141486 99.948696992219 988 0.099992801212 0.100011190523 98.800003651982 9.8800007606977
137	3422475 29936 2809 2095647 1.248699141486 99.948696992219 988 14 14 13832 193648
138	3452411 41686 2937 2095781 1.251111221541 99.951109311801 988 0.099992801212 0.100011190093 98.800003891509 9.8800008085156
139	3494097 29923 2937 2095781 1.251111221541 99.951109311801 988 10 10 9880 98800
140	3524020 41694 3070 2095908 1.251560241555 99.951558391824 988 0.099902078629 0.100102190094 98.800068951518 9.8800155776384
141	3565714 28939 3070 2095908 1.251560241555 99.951558391824 988 9 9 8892 80028
142	3594653 41682 3200 2096038 1.253127341624 99.95313879208 988 0.099992138831 0.100011190673 98.800004251705 9.8800008812058
143	3636335 28923 3200 2096038 1.253127341624 99.95313879208 988 4 4 3952 15808
144	3665258 41671 3330 2096168 1.253940401666 99.953939032196 988 0.099992801212 0.100011190532 98.800004431779 9.8800009166507
145	3706929 28923 3330 2096168 1.253940401666 99.953939032196 988 7 7 6916 48412
146	3735852 41671 3461 2096299 1.263879561777 99.963878669504 988 0.099992734215 0.100011190564 98.800004908976 9.8800010123163
147	3777523 29910 3461 2096299 1.263879561777 99.963878669504 988 15 15 14820 222300
148	3807433 41644 3592 2096430 1.271907741902 99.971907388869 988 0.099992141088 0.100011189992 98.799992448216 9.8799985202729
149	3849077 28915 3592 2096430 1.271907741902 99.971907388869 988 6 6 5928 35568
150	3877992 41701 3723 2096561 1.28716378193 99.9871635489 988 0.099992801212 0.100011190576 98.800005568219 9.8800011439388
151	3919693 28941 3723 2096561 1.28716378193 99.9871635489 988 8 8 7904 63232
152	3948634 41655 3984 2096822 1.297370002083 99.997370423655 988 0.099992801212 0.100011190346 98.800006222821 9.8800012747781
153	3990289 29919 3984 2096822 1.297370002083 99.997370423655 988 13 13 12844 166972
154	4020208 41689 4108 2096952 1.297793242249 99.997794383918 988 0.099992736777 0.100011190778 98.800006942918 9.8800014190057
155	4061897 28951 4108 2096952 1.297793242249 99.997794383918 988 1 1 988 988
156	4090848 41689 4108 2096952 1.297793242249 99.997794383918 988 0.099992736777 0.100011190778 98.800006942918 9.8800014190057
157	4132537 28951 4108 2096952 1.297793242249 99.997794383918 988 1 1 988 988
158	4161488 41668 4114 2096958 1.297793262263 99.997794463973 988 0.099992736782 0.100011190778 98.800007002959 9.8800014310139
159	4203156 28944 4114 2096958 1.297793262263 99.997794463973 988 2 2 1976 3952
160	4232100 41658 4120 2096964 1.297793282276 99.997794544027 988 0.099992736791 0.100011190778 98.800007062999 9.8800014430219
161	4273758 28917 4120 2096964 1.297793282276 99.997794544027 988 3 3 2964 8892
162	4302675 41636 4126 2096970 1.29779330229 99.997794624079 988 0.099992736806 0.100011190778 98.800007123038 9.8800014550297
163	4344311 28902 4126 2096970 1.29779330229 99.997794624079 988 4 4 3952 15808
164	4373213 41692 4132 2096976 1.297793322304 99.997794704127 988 0.099992736831 0.100011190778 98.800007183072 9.8800014670365
165	4414905 28938 4132 2096976 1.297793322304 99.997794704127 988 5 5 4940 24700
166	4443843 41666 4138 2096982 1.297793342318 99.997794784168 988 0.099992736866 0.100011190779 98.800007243099 9.8800014790419
167	4485509 28919 4138 2096982 1.297793342318 99.997794784168 988 6 6 5928 35568
168	4514428 41677 4144 2096988 1.297793362332 99.997794864194 988 0.099992736915 0.100011190778 98.800007303111 9.8800014910443
169	4556105 28931 4144 2096988 1.297793362332 99.997794864194 988 7 7 6916 48412
170	4585036 41677 4150 2096994 1.297793382346 99.997794944198 988 0.099992736976 0.100011190779 98.800007363101 9.8800015030423
171	4626713 28929 4150 2096994 1.297793382346 99.997794944198 988 8 8 7904 63232
172	4655642 41643 4156 2097000 1.29779340236 99.997795024166 988 0.099992737053 0.10001119078 98.800007423055 9.880001515033
173	4697285 28916 4156 2097000 1.29779340236 99.997795024166 988 9 9 8892 80028
174	4726201 41663 4162 2097006 1.297793422373 99.997795104077 988 0.099992737143 0.100011190781 98.800007482953 9.8800015270127
175	4767864 29905 4162 2097006 1.297793422373 99.997795104077 988 10 10 9880 98800
176	4797769 41675 4168 2097012 1.297793442387 99.997795183907 988 0.099992737247 0.100011190785 98.800007542769 9.8800015389759
177	4839444 29915 4168 2097012 1.297793442387 99.997795183907 988 11 11 10868 119548
178	4869359 41699 4174 2097018 1.297793462401 99.997795263617 988 0.099992737362 0.100011190788 98.800007602465 9.8800015509151
179	4911058 29930 4174 2097018 1.297793462401 99.997795263617 988 12 12 11856 142272
180	4940988 41682 4180 2097024 1.297793482415 99.997795343163 988 0.099992737488 0.100011190793 98.800007661997 9.8800015628215
181	4982670 29923 4180 2097024 1.297793482415 99.997795343163 988 13 13 12844 166972
182	5012593 41673 4186 2097030 1.297793502429 99.997795422485 988 0.09999273762 0.100011190799 98.800007721305 9.8800015746831
183	5054266 29923 4186 2097030 1.297793502429 99.997795422485 988 14 14 13832 193648
184	5084189 41675 4192 2097036 1.297793522443 99.997795501514 988 0.099992737756 0.100011190809 98.80000778032 9.880001586486
185	5125864 29917 4192 2097036 1.297793522443 99.997795501514 988 15 15 14820 222300
186	5155781 41614 4239 2094977 1.307199442387 99.907202993123 987 0.099992801212 0.100011190061 98.699996351985 9.8699993007791
187	5197395 29878 4239 2094977 1.307199442387 99.907202993123 987 11 11 10857 119427
188	5227273 1625 18936 2097038 2 100 99 0 0 0 0
189	5228898 2232 18936 2097038 2 100 99 0.044625 0.050074 4.939398 0.246469172702
190	5231130 1625 18936 2097038 2 100 99 0 0 0 0
191	5232755 1625 18937 2097039 2 100 99 1 1 99 99
192	5234380 2238 18937 2097039 2 100 99 0.044625 0.050075159448 4.939078159448 0.24643715174274
193	5236618 1625 18937 2097039 2 100 99 0 0 0 0
194	5238243 1724 18938 2097040 2 100 99 10 10 990 9900
195	5239967 2238 18938 2097040 2 100 99 0.044624 0.050076599478 4.939078599478 0.24643720671528
196	5242205 1625 18938 2097040 2 100 99 0 0 0 0
197	5243830 1724 18939 2097041 2 100 99 11 11 1089 11979
198	5245554 2238 18939 2097041 2 100 99 0.044625 0.050076759524 4.939079759524 0.24643731199342
199	5247792 1625 18939 2097041 2 100 99 0 0 0 0
200	5249417 1724 18940 2097042 2 100 99 12 12 1188 14256
201	5251141 2232 18940 2097042 2 100 99 0.044625 0.050042 4.939045 0.246433831913
202	5253373 1625 18940 2097042 2 100 99 0 0 0 0
203	5254998 1724 18941 2097043 2 100 99 13 13 1287 16731
204	5256722 2232 18941 2097043 2 100 99 0.044625 0.050042 4.939045 0.246433831913
205	5258954 1625 18941 2097043 2 100 99 0 0 0 0
206	5260579 1724 18942 2097044 2 100 99 14 14 1386 19404
207	5262303 2232 18942 2097044 2 100 99 0.044625 0.050042 4.939045 0.246433831913
208	5264535 1625 18942 2097044 2 100 99 0 0 0 0
209	5266160 1724 18943 2097045 2 100 99 15 15 1485 22275
210	5267884 2232 18943 2097045 2 100 99 0.044625 0.050042 4.939045 0.246433831913
211	5270116 1625 18943 2097045 2 100 99 0 0 0 0
212	5271741 1625 18944 2097046 2 100 99 2 2 198 396
213	5273366 2237 18944 2097046 2 100 99 0.044625 0.05007531931 4.93907831931 0.246437167753
214	5275603 1625 18944 2097046 2 100 99 0 0 0 0
215	5277228 1625 18945 2097047 2 100 99 3 3 297 891
216	5278853 2238 18945 2097047 2 100 99 0.044625 0.050075479264 4.939078479264 0.24643718377252
217	5281091 1625 18945 2097047 2 100 99 0 0 0 0
218	5282716 1625 18946 2097048 2 100 99 4 4 396 1584
219	5284341 2238 18946 2097048 2 100 99 0.044625 0.050075639258 4.939078639258 0.2464371997961
220	5286579 1625 18946 2097048 2 100 99 0 0 0 0
221	5288204 1625 18947 2097049 2 100 99 5 5 495 2475
222	5289829 2238 18947 2097049 2 100 99 0.044625 0.050075799284 4.939078799284 0.24643721582293
223	5292067 1625 18947 2097049 2 100 99 0 0 0 0
224	5293692 1625 18948 2097050 2 100 99 6 6 594 3564
225	5295317 2238 18948 2097050 2 100 99 0.044625 0.050075959308 4.939078959308 0.24643723184962
226	5297555 1625 18948 2097050 2 100 99 0 0 0 0
227	5299180 1625 18949 2097051 2 100 99 7 7 693 4851
228	5300805 2238 18949 2097051 2 100 99 0.044625 0.050076119334 4.939079119334 0.24643724787655
229	5303043 1625 18949 2097051 2 100 99 0 0 0 0
230	5304668 1625 18950 2097052 2 100 99 8 8 792 6336
231	5306293 2238 18950 2097052 2 100 99 0.044625 0.050076279372 4.939079279372 0.24643726390474
232	5308531 1625 18950 2097052 2 100 99 0 0 0 0
233	5310156 1625 18951 2097053 2 100 99 9 9 891 8019
234	5311781 2238 18951 2097053 2 100 99 0.044625 0.050076439432 4.939079439432 0.24643727993519
235	5314019 1625 18951 2097053 2 100 99 0 0 0 0

