version 3
run BreakRanksNoGui-289-20240711-15:02:10-293122
attr configname BreakRanksNoGui
attr datetime 20240711-15:02:10
attr datetimef 20240711-150210
attr experiment BreakRanksNoGui
attr inifile omnetpp.ini
attr iterationvars "$nCars=3, $platoonSize=2, $nLanes=1, $ploegH=0.5, $controller=1, $headway=0.1, $leaderHeadway=1.2, $leaderSpeed=130, $breakRanksSafetyDistance=15, $minSpeed=120, $maxSpeed=140, $beaconInterval=0.1, $priority=4, $packetSize=200, $sController=\"CACC\", $0=2, $1=0"
attr iterationvarsd nCars=3/platoonSize=2/nLanes=1/ploegH=0.5/controller=1/headway=0.1/leaderHeadway=1.2/leaderSpeed=130/breakRanksSafetyDistance=15/minSpeed=120/maxSpeed=140/beaconInterval=0.1/priority=4/packetSize=200/sController=CACC/2/0
attr iterationvarsf nCars=3,platoonSize=2,nLanes=1,ploegH=0.5,controller=1,headway=0.1,leaderHeadway=1.2,leaderSpeed=130,breakRanksSafetyDistance=15,minSpeed=120,maxSpeed=140,beaconInterval=0.1,priority=4,packetSize=200,sController=CACC,2,0-
attr measurement "$nCars=3, $platoonSize=2, $nLanes=1, $ploegH=0.5, $controller=1, $headway=0.1, $leaderHeadway=1.2, $leaderSpeed=130, $breakRanksSafetyDistance=15, $minSpeed=120, $maxSpeed=140, $beaconInterval=0.1, $priority=4, $packetSize=200, $sController=\"CACC\", $0=2, $1=0"
attr network Highway
attr processid 293122
attr repetition 9
attr replication #9
attr resultdir results
attr runnumber 289
attr seedset 9
itervar beaconInterval 0.1
itervar breakRanksSafetyDistance 15
itervar controller 1
itervar headway 0.1
itervar leaderHeadway 1.2
itervar leaderSpeed 130
itervar maxSpeed 140
itervar minSpeed 120
itervar nCars 3
itervar nLanes 1
itervar packetSize 200
itervar platoonSize 2
itervar ploegH 0.5
itervar priority 4
itervar sController "\"CACC\""
config image-path ../../../veins/images
config repeat 10
config extends BreakRanks
config *.manager.command "\"sumo\""
config *.manager.ignoreGuiCommands true
config output-vector-file "results/BreakRanks_1_0.1_130_15_2 /result_9.vec"
config output-scalar-file "results/BreakRanks_1_0.1_130_15_2 /result_9.sca"
config extends Platooning
config *.node[*].scenario_type "\"BreakRanksScenario\""
config *.manager.command "\"sumo-gui\""
config *.node[*].scenario_type "\"SimpleScenario\""
config cmdenv-express-mode true
config cmdenv-autoflush true
config cmdenv-status-frequency 15s
config num-rngs 6
config network Highway
config debug-on-errors true
config print-undisposed true
config *.playgroundSizeX 65000m
config *.playgroundSizeY 25000m
config *.playgroundSizeZ 50m
config sim-time-limit "100 s"
config *.annotations.draw false
config *.obstacles.debug false
config *.world.useTorus false
config *.world.use2D false
config *.manager.updateInterval 0.01s
config *.manager.host "\"localhost\""
config *.manager.moduleType "\"org.car2x.plexe.PlatoonCar\""
config *.manager.moduleName "\"node\""
config *.manager.moduleDisplayString "\"\""
config *.manager.autoShutdown true
config *.manager.margin 25
config *.connectionManager.sendDirect true
config *.connectionManager.maxInterfDist 2600m
config *.connectionManager.drawMaxIntfDist false
config *.**.nic.mac1609_4.useServiceChannel false
config *.**.nic.mac1609_4.txPower 100mW
config *.**.nic.mac1609_4.bitrate 6Mbps
config *.**.nic.mac1609_4.useAcks true
config *.**.nic.mac1609_4.ackErrorRate 0.0
config *.**.nic.mac1609_4.frameErrorRate 0.0
config *.**.nic.phy80211p.minPowerLevel -94dBm
config *.**.nic.phy80211p.maxTXPower 100mW
config *.**.nic.phy80211p.useNoiseFloor true
config *.**.nic.phy80211p.noiseFloor -95dBm
config *.**.nic.phy80211p.decider "xmldoc(\"config.xml\")"
config *.**.nic.phy80211p.analogueModels "xmldoc(\"config.xml\")"
config *.**.nic.phy80211p.usePropagationDelay true
config *.node[*].mobility.x 0
config *.node[*].mobility.y 0
config *.node[*].mobility.z 1.895
config seed-set 9
config **.seed 9
config *.node[*].prot.rng-0 2
config *.node[*].appl.rng-0 3
config *.node[*].scenario.rng-0 4
config **.traffic.rng-0 5
config *.manager.configFile "\"./sumocfg/freeway.sumo.cfg\""
config *.manager.launchConfig "xmldoc(\"./sumocfg/freeway.launchd.xml\")"
config **.numberOfCars 3
config **.numberOfCarsPerPlatoon 2
config **.numberOfLanes 1
config *.node[*].helper_type "\"PositionHelper\""
config *.node[*].scenario.caccC1 0.5
config *.node[*].scenario.caccXi 1
config *.node[*].scenario.caccOmegaN "0.2 Hz"
config *.node[*].scenario.caccSpacing "2 m"
config *.node[*].scenario.engineTau "0.5 s"
config *.node[*].scenario.ploegH 0.5s
config *.node[*].scenario.ploegKp 0.2
config *.node[*].scenario.ploegKd 0.7
config *.node[*].scenario.useRealisticEngine false
config *.node[*].scenario.useControllerAcceleration true
config *.node[*].scenario.nLanes 1
config **.numericController 1
config **.headway 0.1s
config *.node[*].scenario.accHeadway 0.1s
config *.node[*].scenario.leaderHeadway 1.2s
config *.node[*].scenario.leaderSpeed 130kmph
config *.node[*].appl_type "\"SimplePlatooningApp\""
config *.node[*].appl.*.scalar-recording true
config *.node[*].appl.*.vector-recording true
config *.node[0].appl.breakRanksSafetyDistance 15m
config *.node[*].appl.minSpeed 120kmph
config *.node[*].appl.maxSpeed 140kmph
config *.node[*].protocol_type "\"SimplePlatooningBeaconing\""
config *.node[*].prot.*.scalar-recording true
config *.node[*].prot.*.vector-recording true
config *.node[*].prot.beaconingInterval 0.1s
config *.node[*].prot.priority 4
config *.node[*].prot.packetSize 200
config **.traffic_type "\"PlatoonsTrafficManager\""
config **.traffic.platoonInsertTime "1 s"
config **.traffic.platoonInsertSpeed 130kmph
config **.traffic.nCars 3
config **.traffic.platoonSize 2
config **.traffic.nLanes 1
config **.traffic.platooningVType "\"vtypeauto\""
config **.traffic.controller "\"CACC\""
config **.traffic.platoonInsertDistance 2m
config **.traffic.platoonInsertHeadway 0s
config **.traffic.platoonLeaderHeadway 1.2s
config **.scalar-recording false
config **.vector-recording false

vector 0 Highway.node[0].appl distance ETV
vector 1 Highway.node[0].appl relativeSpeed ETV
vector 2 Highway.node[0].appl nodeId ETV
vector 3 Highway.node[0].appl acceleration ETV
vector 4 Highway.node[0].appl controllerAcceleration ETV
vector 5 Highway.node[0].appl speed ETV
vector 6 Highway.node[0].appl posx ETV
vector 7 Highway.node[0].appl posy ETV
vector 8 Highway.node[1].appl distance ETV
vector 9 Highway.node[1].appl relativeSpeed ETV
vector 10 Highway.node[1].appl nodeId ETV
vector 11 Highway.node[1].appl acceleration ETV
vector 12 Highway.node[1].appl controllerAcceleration ETV
vector 13 Highway.node[1].appl speed ETV
vector 14 Highway.node[1].appl posx ETV
vector 15 Highway.node[1].appl posy ETV
vector 16 Highway.node[2].appl distance ETV
vector 17 Highway.node[2].appl relativeSpeed ETV
vector 18 Highway.node[2].appl nodeId ETV
vector 19 Highway.node[2].appl acceleration ETV
vector 20 Highway.node[2].appl controllerAcceleration ETV
vector 21 Highway.node[2].appl speed ETV
vector 22 Highway.node[2].appl posx ETV
vector 23 Highway.node[2].appl posy ETV
vector 24 Highway.node[1].prot leaderDelay ETV
vector 25 Highway.node[1].prot leaderDelayId ETV
vector 26 Highway.node[1].prot frontDelay ETV
vector 27 Highway.node[1].prot frontDelayId ETV
vector 28 Highway.node[0].prot nodeId ETV
vector 29 Highway.node[0].prot busyTime ETV
vector 30 Highway.node[0].prot collisions ETV
vector 31 Highway.node[1].prot nodeId ETV
vector 32 Highway.node[1].prot busyTime ETV
vector 33 Highway.node[1].prot collisions ETV
vector 34 Highway.node[2].prot nodeId ETV
vector 35 Highway.node[2].prot busyTime ETV
vector 36 Highway.node[2].prot collisions ETV
0	113	1.11	9341.17
0	172	1.21	9341.17
0	231	1.31	9341.17
0	290	1.41	9341.17
0	349	1.51	9341.17
0	408	1.61	9341.17
0	467	1.71	-1
0	526	1.81	-1
0	585	1.91	-1
0	647	2.01	-1
0	706	2.11	-1
0	765	2.21	-1
0	824	2.31	-1
0	883	2.41	-1
0	942	2.51	-1
0	1001	2.61	-1
0	1060	2.71	-1
0	1119	2.81	-1
0	1178	2.91	-1
0	1240	3.01	-1
0	1299	3.11	-1
0	1358	3.21	-1
0	1417	3.31	-1
0	1476	3.41	-1
0	1535	3.51	-1
0	1594	3.61	-1
0	1653	3.71	-1
0	1712	3.81	-1
0	1771	3.91	-1
0	1833	4.01	-1
0	1892	4.11	-1
0	1951	4.21	-1
0	2010	4.31	-1
0	2069	4.41	-1
0	2128	4.51	-1
0	2187	4.61	-1
0	2246	4.71	-1
0	2305	4.81	-1
0	2364	4.91	-1
0	2426	5.01	-1
0	2485	5.11	-1
0	2544	5.21	-1
0	2603	5.31	-1
0	2662	5.41	-1
0	2721	5.51	-1
0	2780	5.61	-1
0	2839	5.71	-1
0	2898	5.81	-1
0	2957	5.91	-1
0	3019	6.01	-1
0	3078	6.11	-1
0	3137	6.21	-1
0	3196	6.31	-1
0	3255	6.41	-1
0	3314	6.51	-1
0	3373	6.61	-1
0	3432	6.71	-1
0	3491	6.81	-1
0	3550	6.91	-1
0	3612	7.01	-1
0	3671	7.11	-1
0	3730	7.21	-1
0	3789	7.31	-1
0	3848	7.41	-1
0	3907	7.51	-1
0	3966	7.61	-1
0	4025	7.71	-1
0	4084	7.81	-1
0	4143	7.91	-1
0	4205	8.01	-1
0	4264	8.11	-1
0	4323	8.21	-1
0	4382	8.31	-1
0	4441	8.41	-1
0	4500	8.51	-1
0	4559	8.61	-1
0	4618	8.71	-1
0	4677	8.81	-1
0	4736	8.91	-1
0	4798	9.01	-1
0	4857	9.11	-1
0	4916	9.21	-1
0	4975	9.31	-1
0	5034	9.41	-1
0	5093	9.51	-1
0	5152	9.61	-1
0	5211	9.71	-1
0	5270	9.81	-1
0	5329	9.91	-1
0	5422	10.01	-1
0	5482	10.11	-1
0	5542	10.21	-1
0	5602	10.31	-1
0	5662	10.41	-1
0	5722	10.51	-1
0	5782	10.61	-1
0	5842	10.71	-1
0	5902	10.81	-1
0	5962	10.91	-1
0	6025	11.01	-1
0	6085	11.11	-1
0	6145	11.21	-1
0	6205	11.31	-1
0	6265	11.41	-1
0	6325	11.51	-1
0	6385	11.61	-1
0	6445	11.71	-1
0	6505	11.81	-1
0	6565	11.91	-1
0	6628	12.01	-1
0	6688	12.11	-1
0	6748	12.21	-1
0	6808	12.31	-1
0	6868	12.41	-1
0	6928	12.51	-1
0	6988	12.61	-1
0	7048	12.71	-1
0	7108	12.81	-1
0	7168	12.91	-1
0	7231	13.01	-1
0	7291	13.11	-1
0	7351	13.21	-1
0	7411	13.31	-1
0	7471	13.41	-1
0	7531	13.51	-1
0	7591	13.61	-1
0	7651	13.71	-1
0	7711	13.81	-1
0	7771	13.91	-1
0	7834	14.01	-1
0	7894	14.11	-1
0	7954	14.21	-1
0	8014	14.31	-1
0	8074	14.41	-1
0	8134	14.51	-1
0	8194	14.61	-1
0	8254	14.71	-1
0	8314	14.81	-1
0	8374	14.91	-1
0	8437	15.01	-1
0	8497	15.11	-1
0	8557	15.21	-1
0	8617	15.31	-1
0	8677	15.41	-1
0	8737	15.51	-1
0	8797	15.61	-1
0	8857	15.71	-1
0	8917	15.81	-1
0	8977	15.91	-1
0	9040	16.01	-1
0	9100	16.11	-1
0	9160	16.21	-1
0	9220	16.31	-1
0	9280	16.41	-1
0	9340	16.51	-1
0	9400	16.61	-1
0	9460	16.71	-1
0	9520	16.81	-1
0	9580	16.91	-1
0	9643	17.01	-1
0	9703	17.11	-1
0	9763	17.21	-1
0	9823	17.31	-1
0	9883	17.41	-1
0	9943	17.51	-1
0	10003	17.61	-1
0	10063	17.71	-1
0	10123	17.81	-1
0	10183	17.91	-1
0	10246	18.01	-1
0	10306	18.11	-1
0	10366	18.21	-1
0	10426	18.31	-1
0	10486	18.41	-1
0	10546	18.51	-1
0	10606	18.61	-1
0	10666	18.71	-1
0	10726	18.81	-1
0	10786	18.91	-1
0	10849	19.01	-1
0	10909	19.11	-1
0	10969	19.21	-1
0	11029	19.31	-1
0	11089	19.41	-1
0	11149	19.51	-1
0	11209	19.61	-1
0	11269	19.71	-1
0	11329	19.81	-1
0	11389	19.91	-1
0	11452	20.01	-1
0	11512	20.11	-1
0	11572	20.21	-1
0	11632	20.31	-1
0	11692	20.41	-1
0	11752	20.51	-1
0	11812	20.61	-1
0	11872	20.71	-1
0	11932	20.81	-1
0	11992	20.91	-1
0	12055	21.01	-1
0	12115	21.11	-1
0	12175	21.21	-1
0	12235	21.31	-1
0	12295	21.41	-1
0	12355	21.51	-1
0	12415	21.61	-1
0	12475	21.71	-1
0	12535	21.81	-1
0	12595	21.91	-1
0	12658	22.01	-1
0	12718	22.11	-1
0	12778	22.21	-1
0	12838	22.31	-1
0	12898	22.41	-1
0	12958	22.51	-1
0	13018	22.61	-1
0	13078	22.71	-1
0	13138	22.81	-1
0	13198	22.91	-1
0	13261	23.01	-1
0	13321	23.11	-1
0	13381	23.21	-1
0	13441	23.31	-1
0	13501	23.41	-1
0	13561	23.51	-1
0	13621	23.61	-1
0	13681	23.71	-1
0	13741	23.81	-1
0	13801	23.91	-1
0	13864	24.01	-1
0	13924	24.11	-1
0	13984	24.21	-1
0	14044	24.31	-1
0	14104	24.41	-1
0	14164	24.51	-1
0	14224	24.61	-1
0	14284	24.71	-1
0	14344	24.81	-1
0	14404	24.91	-1
0	14467	25.01	-1
0	14527	25.11	-1
0	14587	25.21	-1
0	14647	25.31	-1
0	14707	25.41	-1
0	14767	25.51	-1
0	14827	25.61	-1
0	14887	25.71	-1
0	14947	25.81	-1
0	15007	25.91	-1
0	15070	26.01	-1
0	15130	26.11	-1
0	15190	26.21	-1
0	15250	26.31	-1
0	15310	26.41	-1
0	15370	26.51	-1
0	15430	26.61	-1
0	15490	26.71	-1
0	15550	26.81	-1
0	15610	26.91	-1
0	15673	27.01	-1
0	15733	27.11	-1
0	15793	27.21	-1
0	15853	27.31	-1
0	15913	27.41	-1
0	15973	27.51	-1
0	16033	27.61	-1
0	16093	27.71	-1
0	16153	27.81	-1
0	16213	27.91	-1
0	16276	28.01	-1
0	16336	28.11	-1
0	16396	28.21	-1
0	16456	28.31	-1
0	16516	28.41	-1
0	16576	28.51	-1
0	16636	28.61	-1
0	16696	28.71	-1
0	16756	28.81	-1
0	16816	28.91	-1
0	16879	29.01	-1
0	16939	29.11	-1
0	16999	29.21	-1
0	17059	29.31	-1
0	17119	29.41	-1
0	17179	29.51	-1
0	17239	29.61	-1
0	17299	29.71	-1
0	17359	29.81	-1
0	17419	29.91	-1
0	17482	30.01	-1
0	17542	30.11	-1
0	17602	30.21	-1
0	17662	30.31	-1
0	17722	30.41	-1
0	17782	30.51	-1
0	17842	30.61	-1
0	17902	30.71	-1
0	17962	30.81	-1
0	18022	30.91	-1
0	18085	31.01	-1
0	18145	31.11	-1
0	18205	31.21	-1
0	18265	31.31	-1
0	18325	31.41	-1
0	18385	31.51	-1
0	18445	31.61	-1
0	18505	31.71	-1
0	18565	31.81	-1
0	18625	31.91	-1
0	18688	32.01	-1
0	18748	32.11	-1
0	18808	32.21	-1
0	18868	32.31	-1
0	18928	32.41	-1
0	18988	32.51	-1
0	19048	32.61	-1
0	19108	32.71	-1
0	19168	32.81	-1
0	19228	32.91	-1
0	19291	33.01	-1
0	19351	33.11	-1
0	19411	33.21	-1
0	19471	33.31	-1
0	19531	33.41	-1
0	19591	33.51	-1
0	19651	33.61	-1
0	19711	33.71	-1
0	19771	33.81	-1
0	19831	33.91	-1
0	19894	34.01	-1
0	19954	34.11	-1
0	20014	34.21	-1
0	20074	34.31	-1
0	20134	34.41	-1
0	20194	34.51	-1
0	20254	34.61	-1
0	20314	34.71	-1
0	20374	34.81	-1
0	20434	34.91	-1
0	20497	35.01	-1
0	20557	35.11	-1
0	20617	35.21	-1
0	20677	35.31	-1
0	20737	35.41	-1
0	20797	35.51	-1
0	20857	35.61	-1
0	20917	35.71	-1
0	20977	35.81	-1
0	21037	35.91	-1
0	21100	36.01	-1
0	21160	36.11	-1
0	21220	36.21	-1
0	21280	36.31	-1
0	21340	36.41	-1
0	21400	36.51	-1
0	21460	36.61	-1
0	21520	36.71	-1
0	21580	36.81	-1
0	21640	36.91	-1
0	21703	37.01	-1
0	21763	37.11	-1
0	21823	37.21	-1
0	21883	37.31	-1
0	21943	37.41	-1
0	22003	37.51	-1
0	22063	37.61	-1
0	22123	37.71	-1
0	22183	37.81	-1
0	22243	37.91	-1
0	22306	38.01	-1
0	22366	38.11	-1
0	22426	38.21	-1
0	22486	38.31	-1
0	22546	38.41	-1
0	22606	38.51	-1
0	22666	38.61	-1
0	22726	38.71	-1
0	22786	38.81	-1
0	22846	38.91	-1
0	22909	39.01	-1
0	22969	39.11	-1
0	23029	39.21	-1
0	23089	39.31	-1
0	23149	39.41	-1
0	23209	39.51	-1
0	23269	39.61	-1
0	23329	39.71	-1
0	23389	39.81	-1
0	23449	39.91	-1
0	23512	40.01	-1
0	23572	40.11	-1
0	23632	40.21	-1
0	23692	40.31	-1
0	23752	40.41	-1
0	23812	40.51	-1
0	23872	40.61	-1
0	23932	40.71	-1
0	23992	40.81	-1
0	24052	40.91	-1
0	24115	41.01	-1
0	24175	41.11	-1
0	24235	41.21	-1
0	24295	41.31	-1
0	24355	41.41	-1
0	24415	41.51	-1
0	24475	41.61	-1
0	24535	41.71	-1
0	24595	41.81	-1
0	24655	41.91	-1
0	24718	42.01	-1
0	24778	42.11	-1
0	24838	42.21	-1
0	24898	42.31	-1
0	24958	42.41	-1
0	25018	42.51	-1
0	25078	42.61	-1
0	25138	42.71	-1
0	25198	42.81	-1
0	25258	42.91	-1
0	25321	43.01	-1
0	25381	43.11	-1
0	25441	43.21	-1
0	25501	43.31	-1
0	25561	43.41	-1
0	25621	43.51	-1
0	25681	43.61	-1
0	25741	43.71	-1
0	25801	43.81	-1
0	25861	43.91	-1
0	25924	44.01	-1
0	25984	44.11	-1
0	26044	44.21	-1
0	26104	44.31	-1
0	26164	44.41	-1
0	26224	44.51	-1
0	26284	44.61	-1
0	26344	44.71	-1
0	26404	44.81	-1
0	26464	44.91	-1
0	26527	45.01	-1
0	26587	45.11	-1
0	26647	45.21	-1
0	26707	45.31	-1
0	26767	45.41	-1
0	26827	45.51	-1
0	26887	45.61	-1
0	26947	45.71	-1
0	27073	45.81	-1
0	27132	45.91	-1
0	27194	46.01	-1
0	27253	46.11	-1
0	27312	46.21	-1
0	27371	46.31	-1
0	27430	46.41	-1
0	27489	46.51	-1
0	27548	46.61	-1
0	27607	46.71	-1
0	27666	46.81	-1
0	27725	46.91	-1
0	27787	47.01	-1
0	27846	47.11	-1
0	27905	47.21	-1
0	27964	47.31	-1
0	28023	47.41	-1
0	28082	47.51	-1
0	28141	47.61	-1
0	28200	47.71	-1
0	28259	47.81	-1
0	28318	47.91	-1
0	28380	48.01	-1
0	28439	48.11	-1
0	28498	48.21	-1
0	28557	48.31	-1
0	28616	48.41	-1
0	28675	48.51	-1
0	28734	48.61	-1
0	28793	48.71	-1
0	28852	48.81	-1
0	28911	48.91	-1
0	28973	49.01	-1
0	29032	49.11	-1
0	29091	49.21	-1
0	29150	49.31	-1
0	29209	49.41	-1
0	29268	49.51	-1
0	29327	49.61	-1
0	29386	49.71	-1
0	29445	49.81	-1
0	29504	49.91	-1
0	29566	50.01	-1
0	29625	50.11	-1
0	29684	50.21	-1
0	29743	50.31	-1
0	29802	50.41	-1
0	29861	50.51	-1
0	29920	50.61	-1
0	29979	50.71	-1
0	30038	50.81	-1
0	30097	50.91	-1
0	30159	51.01	-1
0	30218	51.11	-1
0	30277	51.21	-1
0	30336	51.31	-1
0	30395	51.41	-1
0	30454	51.51	-1
0	30513	51.61	-1
0	30572	51.71	-1
0	30631	51.81	-1
0	30690	51.91	-1
0	30752	52.01	-1
0	30811	52.11	-1
0	30870	52.21	-1
0	30929	52.31	-1
0	30988	52.41	-1
0	31047	52.51	-1
0	31106	52.61	-1
0	31165	52.71	-1
0	31224	52.81	-1
0	31283	52.91	-1
0	31345	53.01	-1
0	31404	53.11	-1
0	31463	53.21	-1
0	31522	53.31	-1
0	31581	53.41	-1
0	31640	53.51	-1
0	31699	53.61	-1
0	31758	53.71	-1
0	31817	53.81	-1
0	31876	53.91	-1
0	31938	54.01	-1
0	31997	54.11	-1
0	32056	54.21	-1
0	32115	54.31	-1
0	32174	54.41	-1
0	32233	54.51	-1
0	32292	54.61	-1
0	32351	54.71	-1
0	32410	54.81	-1
0	32469	54.91	-1
0	32531	55.01	-1
0	32590	55.11	-1
0	32649	55.21	-1
0	32708	55.31	-1
0	32767	55.41	-1
0	32826	55.51	-1
0	32885	55.61	-1
0	32944	55.71	-1
0	33003	55.81	-1
0	33062	55.91	-1
0	33124	56.01	-1
0	33183	56.11	-1
0	33242	56.21	-1
0	33301	56.31	-1
0	33360	56.41	-1
0	33419	56.51	-1
0	33478	56.61	-1
0	33537	56.71	-1
0	33596	56.81	-1
0	33655	56.91	-1
0	33717	57.01	-1
0	33776	57.11	-1
0	33835	57.21	-1
0	33894	57.31	-1
0	33953	57.41	-1
0	34012	57.51	-1
0	34071	57.61	-1
0	34130	57.71	-1
0	34189	57.81	-1
0	34248	57.91	-1
0	34310	58.01	-1
0	34369	58.11	-1
0	34428	58.21	-1
0	34487	58.31	-1
0	34546	58.41	-1
0	34605	58.51	-1
0	34664	58.61	-1
0	34723	58.71	-1
0	34782	58.81	-1
0	34841	58.91	-1
0	34903	59.01	-1
0	34962	59.11	-1
0	35021	59.21	-1
0	35080	59.31	-1
0	35139	59.41	-1
0	35198	59.51	-1
0	35257	59.61	-1
0	35316	59.71	-1
0	35375	59.81	-1
0	35434	59.91	-1
0	35496	60.01	-1
0	35555	60.11	-1
0	35614	60.21	-1
0	35673	60.31	-1
0	35732	60.41	-1
0	35791	60.51	-1
0	35850	60.61	-1
0	35909	60.71	-1
0	35968	60.81	-1
0	36027	60.91	-1
0	36089	61.01	-1
0	36148	61.11	-1
0	36207	61.21	-1
0	36266	61.31	-1
0	36325	61.41	-1
0	36384	61.51	-1
0	36443	61.61	-1
0	36502	61.71	-1
0	36561	61.81	-1
0	36620	61.91	-1
0	36682	62.01	-1
0	36741	62.11	-1
0	36800	62.21	-1
0	36859	62.31	-1
0	36918	62.41	-1
0	36977	62.51	-1
0	37036	62.61	-1
0	37095	62.71	-1
0	37154	62.81	-1
0	37213	62.91	-1
0	37275	63.01	-1
0	37334	63.11	-1
0	37393	63.21	-1
0	37452	63.31	-1
0	37511	63.41	-1
0	37570	63.51	-1
0	37629	63.61	-1
0	37688	63.71	-1
0	37747	63.81	-1
0	37806	63.91	-1
0	37868	64.01	-1
0	37927	64.11	-1
0	37986	64.21	-1
0	38045	64.31	-1
0	38104	64.41	-1
0	38163	64.51	-1
0	38222	64.61	-1
0	38281	64.71	-1
0	38340	64.81	-1
0	38399	64.91	-1
0	38461	65.01	-1
0	38520	65.11	-1
0	38579	65.21	-1
0	38638	65.31	-1
0	38697	65.41	-1
0	38756	65.51	-1
0	38815	65.61	-1
0	38874	65.71	-1
0	38933	65.81	-1
0	38992	65.91	-1
0	39054	66.01	-1
0	39113	66.11	-1
0	39172	66.21	-1
0	39231	66.31	-1
0	39290	66.41	-1
0	39349	66.51	-1
0	39408	66.61	-1
0	39467	66.71	-1
0	39526	66.81	-1
0	39585	66.91	-1
0	39647	67.01	-1
0	39706	67.11	-1
0	39765	67.21	-1
0	39824	67.31	-1
0	39883	67.41	-1
0	39942	67.51	-1
0	40001	67.61	-1
0	40060	67.71	-1
0	40119	67.81	-1
0	40178	67.91	-1
0	40240	68.01	-1
0	40299	68.11	-1
0	40358	68.21	-1
0	40417	68.31	-1
0	40476	68.41	-1
0	40535	68.51	-1
0	40594	68.61	-1
0	40653	68.71	-1
0	40712	68.81	-1
0	40771	68.91	-1
0	40833	69.01	-1
0	40892	69.11	-1
0	40951	69.21	-1
0	41010	69.31	-1
0	41069	69.41	-1
0	41128	69.51	-1
0	41187	69.61	-1
0	41246	69.71	-1
0	41305	69.81	-1
0	41364	69.91	-1
0	41426	70.01	-1
0	41485	70.11	-1
0	41544	70.21	-1
0	41603	70.31	-1
0	41662	70.41	-1
0	41721	70.51	-1
0	41780	70.61	-1
0	41839	70.71	-1
0	41898	70.81	-1
0	41957	70.91	-1
0	42019	71.01	-1
0	42078	71.11	-1
0	42137	71.21	-1
0	42196	71.31	-1
0	42255	71.41	-1
0	42314	71.51	-1
0	42373	71.61	-1
0	42432	71.71	-1
0	42491	71.81	-1
0	42550	71.91	-1
0	42612	72.01	-1
0	42671	72.11	-1
0	42730	72.21	-1
0	42789	72.31	-1
0	42848	72.41	-1
0	42907	72.51	-1
0	42966	72.61	-1
0	43025	72.71	-1
0	43084	72.81	-1
0	43143	72.91	-1
0	43205	73.01	-1
0	43264	73.11	-1
0	43323	73.21	-1
0	43382	73.31	-1
0	43441	73.41	-1
0	43500	73.51	-1
0	43559	73.61	-1
0	43618	73.71	-1
0	43677	73.81	-1
0	43736	73.91	-1
0	43798	74.01	-1
0	43857	74.11	-1
0	43916	74.21	-1
0	43975	74.31	-1
0	44034	74.41	-1
0	44093	74.51	-1
0	44152	74.61	-1
0	44211	74.71	-1
0	44270	74.81	-1
0	44329	74.91	-1
0	44391	75.01	-1
0	44450	75.11	-1
0	44509	75.21	-1
0	44568	75.31	-1
0	44627	75.41	-1
0	44686	75.51	-1
0	44745	75.61	-1
0	44804	75.71	-1
0	44863	75.81	-1
0	44922	75.91	-1
0	44984	76.01	-1
0	45043	76.11	-1
0	45102	76.21	-1
0	45161	76.31	-1
0	45220	76.41	-1
0	45279	76.51	-1
0	45338	76.61	-1
0	45397	76.71	-1
0	45456	76.81	-1
0	45515	76.91	-1
0	45577	77.01	-1
0	45636	77.11	-1
0	45695	77.21	-1
0	45754	77.31	-1
0	45813	77.41	-1
0	45872	77.51	-1
0	45931	77.61	-1
0	45990	77.71	-1
0	46049	77.81	-1
0	46108	77.91	-1
0	46170	78.01	-1
0	46229	78.11	-1
0	46288	78.21	-1
0	46347	78.31	-1
0	46406	78.41	-1
0	46465	78.51	-1
0	46524	78.61	-1
0	46583	78.71	-1
0	46642	78.81	-1
0	46701	78.91	-1
0	46763	79.01	-1
0	46822	79.11	-1
0	46881	79.21	-1
0	46940	79.31	-1
0	46999	79.41	-1
0	47058	79.51	-1
0	47117	79.61	-1
0	47176	79.71	-1
0	47235	79.81	-1
0	47294	79.91	-1
0	47356	80.01	-1
0	47415	80.11	-1
0	47474	80.21	-1
0	47533	80.31	-1
0	47592	80.41	-1
0	47651	80.51	-1
0	47710	80.61	-1
0	47769	80.71	-1
0	47828	80.81	-1
0	47887	80.91	-1
0	47949	81.01	-1
0	48008	81.11	-1
0	48067	81.21	-1
0	48126	81.31	-1
0	48185	81.41	-1
0	48244	81.51	-1
0	48303	81.61	-1
0	48362	81.71	-1
0	48421	81.81	-1
0	48480	81.91	-1
0	48542	82.01	-1
0	48601	82.11	-1
0	48660	82.21	-1
0	48719	82.31	-1
0	48778	82.41	-1
0	48837	82.51	-1
0	48896	82.61	-1
0	48955	82.71	-1
0	49014	82.81	-1
0	49073	82.91	-1
0	49135	83.01	-1
0	49194	83.11	-1
0	49253	83.21	-1
0	49312	83.31	-1
0	49371	83.41	-1
0	49430	83.51	-1
0	49489	83.61	-1
0	49548	83.71	-1
0	49607	83.81	-1
0	49666	83.91	-1
0	49728	84.01	-1
0	49787	84.11	-1
0	49846	84.21	-1
0	49905	84.31	-1
0	49964	84.41	-1
0	50023	84.51	-1
0	50082	84.61	-1
0	50141	84.71	-1
0	50200	84.81	-1
0	50259	84.91	-1
0	50321	85.01	-1
0	50380	85.11	-1
0	50439	85.21	-1
0	50498	85.31	-1
0	50557	85.41	-1
0	50616	85.51	-1
0	50675	85.61	-1
0	50734	85.71	-1
0	50793	85.81	-1
0	50852	85.91	-1
0	50914	86.01	-1
0	50973	86.11	-1
0	51032	86.21	-1
0	51091	86.31	-1
0	51150	86.41	-1
0	51209	86.51	-1
0	51268	86.61	-1
0	51327	86.71	-1
0	51386	86.81	-1
0	51445	86.91	-1
0	51507	87.01	-1
0	51566	87.11	-1
0	51625	87.21	-1
0	51684	87.31	-1
0	51743	87.41	-1
0	51802	87.51	-1
0	51861	87.61	-1
0	51920	87.71	-1
0	51979	87.81	-1
0	52038	87.91	-1
0	52100	88.01	-1
0	52159	88.11	-1
0	52218	88.21	-1
0	52277	88.31	-1
0	52336	88.41	-1
0	52395	88.51	-1
0	52454	88.61	-1
0	52513	88.71	-1
0	52572	88.81	-1
0	52631	88.91	-1
0	52693	89.01	-1
0	52752	89.11	-1
0	52811	89.21	-1
0	52870	89.31	-1
0	52929	89.41	-1
0	52988	89.51	-1
0	53047	89.61	-1
0	53106	89.71	-1
0	53165	89.81	-1
0	53224	89.91	-1
0	53286	90.01	-1
0	53345	90.11	-1
0	53404	90.21	-1
0	53463	90.31	-1
0	53522	90.41	-1
0	53581	90.51	-1
0	53640	90.61	-1
0	53699	90.71	-1
0	53758	90.81	-1
0	53817	90.91	-1
0	53879	91.01	-1
0	53938	91.11	-1
0	53997	91.21	-1
0	54056	91.31	-1
0	54115	91.41	-1
0	54174	91.51	-1
0	54233	91.61	-1
0	54292	91.71	-1
0	54351	91.81	-1
0	54410	91.91	-1
0	54472	92.01	-1
0	54531	92.11	-1
0	54590	92.21	-1
0	54649	92.31	-1
0	54708	92.41	-1
0	54767	92.51	-1
0	54826	92.61	-1
0	54885	92.71	-1
0	54944	92.81	-1
0	55003	92.91	-1
0	55065	93.01	-1
0	55124	93.11	-1
0	55183	93.21	-1
0	55242	93.31	-1
0	55301	93.41	-1
0	55360	93.51	-1
0	55419	93.61	-1
0	55478	93.71	-1
0	55537	93.81	-1
0	55596	93.91	-1
0	55658	94.01	-1
0	55717	94.11	-1
0	55776	94.21	-1
0	55835	94.31	-1
0	55894	94.41	-1
0	55953	94.51	-1
0	56012	94.61	-1
0	56071	94.71	-1
0	56130	94.81	-1
0	56189	94.91	-1
0	56251	95.01	-1
0	56310	95.11	-1
0	56369	95.21	-1
0	56428	95.31	-1
0	56487	95.41	-1
0	56546	95.51	-1
0	56605	95.61	-1
0	56664	95.71	-1
0	56723	95.81	-1
0	56782	95.91	-1
0	56844	96.01	-1
0	56903	96.11	-1
0	56962	96.21	-1
0	57021	96.31	-1
0	57080	96.41	-1
0	57139	96.51	-1
0	57198	96.61	-1
0	57257	96.71	-1
0	57316	96.81	-1
0	57375	96.91	-1
0	57437	97.01	-1
0	57496	97.11	-1
0	57555	97.21	-1
0	57614	97.31	-1
0	57673	97.41	-1
0	57732	97.51	-1
0	57791	97.61	-1
0	57850	97.71	-1
0	57909	97.81	-1
0	57968	97.91	-1
0	58030	98.01	-1
0	58089	98.11	-1
0	58148	98.21	-1
0	58207	98.31	-1
0	58266	98.41	-1
0	58325	98.51	-1
0	58384	98.61	-1
0	58443	98.71	-1
0	58502	98.81	-1
0	58561	98.91	-1
0	58623	99.01	-1
0	58682	99.11	-1
0	58741	99.21	-1
0	58800	99.31	-1
0	58859	99.41	-1
0	58918	99.51	-1
0	58977	99.61	-1
0	59036	99.71	-1
0	59095	99.81	-1
0	59154	99.91	-1
1	113	1.11	0
1	172	1.21	0
1	231	1.31	0
1	290	1.41	0
1	349	1.51	0
1	408	1.61	0
1	467	1.71	0
1	526	1.81	0
1	585	1.91	0
1	647	2.01	0
1	706	2.11	0
1	765	2.21	0
1	824	2.31	0
1	883	2.41	0
1	942	2.51	0
1	1001	2.61	0
1	1060	2.71	0
1	1119	2.81	0
1	1178	2.91	0
1	1240	3.01	0
1	1299	3.11	0
1	1358	3.21	0
1	1417	3.31	0
1	1476	3.41	0
1	1535	3.51	0
1	1594	3.61	0
1	1653	3.71	0
1	1712	3.81	0
1	1771	3.91	0
1	1833	4.01	0
1	1892	4.11	0
1	1951	4.21	0
1	2010	4.31	0
1	2069	4.41	0
1	2128	4.51	0
1	2187	4.61	0
1	2246	4.71	0
1	2305	4.81	0
1	2364	4.91	0
1	2426	5.01	0
1	2485	5.11	0
1	2544	5.21	0
1	2603	5.31	0
1	2662	5.41	0
1	2721	5.51	0
1	2780	5.61	0
1	2839	5.71	0
1	2898	5.81	0
1	2957	5.91	0
1	3019	6.01	0
1	3078	6.11	0
1	3137	6.21	0
1	3196	6.31	0
1	3255	6.41	0
1	3314	6.51	0
1	3373	6.61	0
1	3432	6.71	0
1	3491	6.81	0
1	3550	6.91	0
1	3612	7.01	0
1	3671	7.11	0
1	3730	7.21	0
1	3789	7.31	0
1	3848	7.41	0
1	3907	7.51	0
1	3966	7.61	0
1	4025	7.71	0
1	4084	7.81	0
1	4143	7.91	0
1	4205	8.01	0
1	4264	8.11	0
1	4323	8.21	0
1	4382	8.31	0
1	4441	8.41	0
1	4500	8.51	0
1	4559	8.61	0
1	4618	8.71	0
1	4677	8.81	0
1	4736	8.91	0
1	4798	9.01	0
1	4857	9.11	0
1	4916	9.21	0
1	4975	9.31	0
1	5034	9.41	0
1	5093	9.51	0
1	5152	9.61	0
1	5211	9.71	0
1	5270	9.81	0
1	5329	9.91	0
1	5422	10.01	0
1	5482	10.11	0
1	5542	10.21	0
1	5602	10.31	0
1	5662	10.41	0
1	5722	10.51	0
1	5782	10.61	0
1	5842	10.71	0
1	5902	10.81	0
1	5962	10.91	0
1	6025	11.01	0
1	6085	11.11	0
1	6145	11.21	0
1	6205	11.31	0
1	6265	11.41	0
1	6325	11.51	0
1	6385	11.61	0
1	6445	11.71	0
1	6505	11.81	0
1	6565	11.91	0
1	6628	12.01	0
1	6688	12.11	0
1	6748	12.21	0
1	6808	12.31	0
1	6868	12.41	0
1	6928	12.51	0
1	6988	12.61	0
1	7048	12.71	0
1	7108	12.81	0
1	7168	12.91	0
1	7231	13.01	0
1	7291	13.11	0
1	7351	13.21	0
1	7411	13.31	0
1	7471	13.41	0
1	7531	13.51	0
1	7591	13.61	0
1	7651	13.71	0
1	7711	13.81	0
1	7771	13.91	0
1	7834	14.01	0
1	7894	14.11	0
1	7954	14.21	0
1	8014	14.31	0
1	8074	14.41	0
1	8134	14.51	0
1	8194	14.61	0
1	8254	14.71	0
1	8314	14.81	0
1	8374	14.91	0
1	8437	15.01	0
1	8497	15.11	0
1	8557	15.21	0
1	8617	15.31	0
1	8677	15.41	0
1	8737	15.51	0
1	8797	15.61	0
1	8857	15.71	0
1	8917	15.81	0
1	8977	15.91	0
1	9040	16.01	0
1	9100	16.11	0
1	9160	16.21	0
1	9220	16.31	0
1	9280	16.41	0
1	9340	16.51	0
1	9400	16.61	0
1	9460	16.71	0
1	9520	16.81	0
1	9580	16.91	0
1	9643	17.01	0
1	9703	17.11	0
1	9763	17.21	0
1	9823	17.31	0
1	9883	17.41	0
1	9943	17.51	0
1	10003	17.61	0
1	10063	17.71	0
1	10123	17.81	0
1	10183	17.91	0
1	10246	18.01	0
1	10306	18.11	0
1	10366	18.21	0
1	10426	18.31	0
1	10486	18.41	0
1	10546	18.51	0
1	10606	18.61	0
1	10666	18.71	0
1	10726	18.81	0
1	10786	18.91	0
1	10849	19.01	0
1	10909	19.11	0
1	10969	19.21	0
1	11029	19.31	0
1	11089	19.41	0
1	11149	19.51	0
1	11209	19.61	0
1	11269	19.71	0
1	11329	19.81	0
1	11389	19.91	0
1	11452	20.01	0
1	11512	20.11	0
1	11572	20.21	0
1	11632	20.31	0
1	11692	20.41	0
1	11752	20.51	0
1	11812	20.61	0
1	11872	20.71	0
1	11932	20.81	0
1	11992	20.91	0
1	12055	21.01	0
1	12115	21.11	0
1	12175	21.21	0
1	12235	21.31	0
1	12295	21.41	0
1	12355	21.51	0
1	12415	21.61	0
1	12475	21.71	0
1	12535	21.81	0
1	12595	21.91	0
1	12658	22.01	0
1	12718	22.11	0
1	12778	22.21	0
1	12838	22.31	0
1	12898	22.41	0
1	12958	22.51	0
1	13018	22.61	0
1	13078	22.71	0
1	13138	22.81	0
1	13198	22.91	0
1	13261	23.01	0
1	13321	23.11	0
1	13381	23.21	0
1	13441	23.31	0
1	13501	23.41	0
1	13561	23.51	0
1	13621	23.61	0
1	13681	23.71	0
1	13741	23.81	0
1	13801	23.91	0
1	13864	24.01	0
1	13924	24.11	0
1	13984	24.21	0
1	14044	24.31	0
1	14104	24.41	0
1	14164	24.51	0
1	14224	24.61	0
1	14284	24.71	0
1	14344	24.81	0
1	14404	24.91	0
1	14467	25.01	0
1	14527	25.11	0
1	14587	25.21	0
1	14647	25.31	0
1	14707	25.41	0
1	14767	25.51	0
1	14827	25.61	0
1	14887	25.71	0
1	14947	25.81	0
1	15007	25.91	0
1	15070	26.01	0
1	15130	26.11	0
1	15190	26.21	0
1	15250	26.31	0
1	15310	26.41	0
1	15370	26.51	0
1	15430	26.61	0
1	15490	26.71	0
1	15550	26.81	0
1	15610	26.91	0
1	15673	27.01	0
1	15733	27.11	0
1	15793	27.21	0
1	15853	27.31	0
1	15913	27.41	0
1	15973	27.51	0
1	16033	27.61	0
1	16093	27.71	0
1	16153	27.81	0
1	16213	27.91	0
1	16276	28.01	0
1	16336	28.11	0
1	16396	28.21	0
1	16456	28.31	0
1	16516	28.41	0
1	16576	28.51	0
1	16636	28.61	0
1	16696	28.71	0
1	16756	28.81	0
1	16816	28.91	0
1	16879	29.01	0
1	16939	29.11	0
1	16999	29.21	0
1	17059	29.31	0
1	17119	29.41	0
1	17179	29.51	0
1	17239	29.61	0
1	17299	29.71	0
1	17359	29.81	0
1	17419	29.91	0
1	17482	30.01	0
1	17542	30.11	0
1	17602	30.21	0
1	17662	30.31	0
1	17722	30.41	0
1	17782	30.51	0
1	17842	30.61	0
1	17902	30.71	0
1	17962	30.81	0
1	18022	30.91	0
1	18085	31.01	0
1	18145	31.11	0
1	18205	31.21	0
1	18265	31.31	0
1	18325	31.41	0
1	18385	31.51	0
1	18445	31.61	0
1	18505	31.71	0
1	18565	31.81	0
1	18625	31.91	0
1	18688	32.01	0
1	18748	32.11	0
1	18808	32.21	0
1	18868	32.31	0
1	18928	32.41	0
1	18988	32.51	0
1	19048	32.61	0
1	19108	32.71	0
1	19168	32.81	0
1	19228	32.91	0
1	19291	33.01	0
1	19351	33.11	0
1	19411	33.21	0
1	19471	33.31	0
1	19531	33.41	0
1	19591	33.51	0
1	19651	33.61	0
1	19711	33.71	0
1	19771	33.81	0
1	19831	33.91	0
1	19894	34.01	0
1	19954	34.11	0
1	20014	34.21	0
1	20074	34.31	0
1	20134	34.41	0
1	20194	34.51	0
1	20254	34.61	0
1	20314	34.71	0
1	20374	34.81	0
1	20434	34.91	0
1	20497	35.01	0
1	20557	35.11	0
1	20617	35.21	0
1	20677	35.31	0
1	20737	35.41	0
1	20797	35.51	0
1	20857	35.61	0
1	20917	35.71	0
1	20977	35.81	0
1	21037	35.91	0
1	21100	36.01	0
1	21160	36.11	0
1	21220	36.21	0
1	21280	36.31	0
1	21340	36.41	0
1	21400	36.51	0
1	21460	36.61	0
1	21520	36.71	0
1	21580	36.81	0
1	21640	36.91	0
1	21703	37.01	0
1	21763	37.11	0
1	21823	37.21	0
1	21883	37.31	0
1	21943	37.41	0
1	22003	37.51	0
1	22063	37.61	0
1	22123	37.71	0
1	22183	37.81	0
1	22243	37.91	0
1	22306	38.01	0
1	22366	38.11	0
1	22426	38.21	0
1	22486	38.31	0
1	22546	38.41	0
1	22606	38.51	0
1	22666	38.61	0
1	22726	38.71	0
1	22786	38.81	0
1	22846	38.91	0
1	22909	39.01	0
1	22969	39.11	0
1	23029	39.21	0
1	23089	39.31	0
1	23149	39.41	0
1	23209	39.51	0
1	23269	39.61	0
1	23329	39.71	0
1	23389	39.81	0
1	23449	39.91	0
1	23512	40.01	0
1	23572	40.11	0
1	23632	40.21	0
1	23692	40.31	0
1	23752	40.41	0
1	23812	40.51	0
1	23872	40.61	0
1	23932	40.71	0
1	23992	40.81	0
1	24052	40.91	0
1	24115	41.01	0
1	24175	41.11	0
1	24235	41.21	0
1	24295	41.31	0
1	24355	41.41	0
1	24415	41.51	0
1	24475	41.61	0
1	24535	41.71	0
1	24595	41.81	0
1	24655	41.91	0
1	24718	42.01	0
1	24778	42.11	0
1	24838	42.21	0
1	24898	42.31	0
1	24958	42.41	0
1	25018	42.51	0
1	25078	42.61	0
1	25138	42.71	0
1	25198	42.81	0
1	25258	42.91	0
1	25321	43.01	0
1	25381	43.11	0
1	25441	43.21	0
1	25501	43.31	0
1	25561	43.41	0
1	25621	43.51	0
1	25681	43.61	0
1	25741	43.71	0
1	25801	43.81	0
1	25861	43.91	0
1	25924	44.01	0
1	25984	44.11	0
1	26044	44.21	0
1	26104	44.31	0
1	26164	44.41	0
1	26224	44.51	0
1	26284	44.61	0
1	26344	44.71	0
1	26404	44.81	0
1	26464	44.91	0
1	26527	45.01	0
1	26587	45.11	0
1	26647	45.21	0
1	26707	45.31	0
1	26767	45.41	0
1	26827	45.51	0
1	26887	45.61	0
1	26947	45.71	0
1	27073	45.81	0
1	27132	45.91	0
1	27194	46.01	0
1	27253	46.11	0
1	27312	46.21	0
1	27371	46.31	0
1	27430	46.41	0
1	27489	46.51	0
1	27548	46.61	0
1	27607	46.71	0
1	27666	46.81	0
1	27725	46.91	0
1	27787	47.01	0
1	27846	47.11	0
1	27905	47.21	0
1	27964	47.31	0
1	28023	47.41	0
1	28082	47.51	0
1	28141	47.61	0
1	28200	47.71	0
1	28259	47.81	0
1	28318	47.91	0
1	28380	48.01	0
1	28439	48.11	0
1	28498	48.21	0
1	28557	48.31	0
1	28616	48.41	0
1	28675	48.51	0
1	28734	48.61	0
1	28793	48.71	0
1	28852	48.81	0
1	28911	48.91	0
1	28973	49.01	0
1	29032	49.11	0
1	29091	49.21	0
1	29150	49.31	0
1	29209	49.41	0
1	29268	49.51	0
1	29327	49.61	0
1	29386	49.71	0
1	29445	49.81	0
1	29504	49.91	0
1	29566	50.01	0
1	29625	50.11	0
1	29684	50.21	0
1	29743	50.31	0
1	29802	50.41	0
1	29861	50.51	0
1	29920	50.61	0
1	29979	50.71	0
1	30038	50.81	0
1	30097	50.91	0
1	30159	51.01	0
1	30218	51.11	0
1	30277	51.21	0
1	30336	51.31	0
1	30395	51.41	0
1	30454	51.51	0
1	30513	51.61	0
1	30572	51.71	0
1	30631	51.81	0
1	30690	51.91	0
1	30752	52.01	0
1	30811	52.11	0
1	30870	52.21	0
1	30929	52.31	0
1	30988	52.41	0
1	31047	52.51	0
1	31106	52.61	0
1	31165	52.71	0
1	31224	52.81	0
1	31283	52.91	0
1	31345	53.01	0
1	31404	53.11	0
1	31463	53.21	0
1	31522	53.31	0
1	31581	53.41	0
1	31640	53.51	0
1	31699	53.61	0
1	31758	53.71	0
1	31817	53.81	0
1	31876	53.91	0
1	31938	54.01	0
1	31997	54.11	0
1	32056	54.21	0
1	32115	54.31	0
1	32174	54.41	0
1	32233	54.51	0
1	32292	54.61	0
1	32351	54.71	0
1	32410	54.81	0
1	32469	54.91	0
1	32531	55.01	0
1	32590	55.11	0
1	32649	55.21	0
1	32708	55.31	0
1	32767	55.41	0
1	32826	55.51	0
1	32885	55.61	0
1	32944	55.71	0
1	33003	55.81	0
1	33062	55.91	0
1	33124	56.01	0
1	33183	56.11	0
1	33242	56.21	0
1	33301	56.31	0
1	33360	56.41	0
1	33419	56.51	0
1	33478	56.61	0
1	33537	56.71	0
1	33596	56.81	0
1	33655	56.91	0
1	33717	57.01	0
1	33776	57.11	0
1	33835	57.21	0
1	33894	57.31	0
1	33953	57.41	0
1	34012	57.51	0
1	34071	57.61	0
1	34130	57.71	0
1	34189	57.81	0
1	34248	57.91	0
1	34310	58.01	0
1	34369	58.11	0
1	34428	58.21	0
1	34487	58.31	0
1	34546	58.41	0
1	34605	58.51	0
1	34664	58.61	0
1	34723	58.71	0
1	34782	58.81	0
1	34841	58.91	0
1	34903	59.01	0
1	34962	59.11	0
1	35021	59.21	0
1	35080	59.31	0
1	35139	59.41	0
1	35198	59.51	0
1	35257	59.61	0
1	35316	59.71	0
1	35375	59.81	0
1	35434	59.91	0
1	35496	60.01	0
1	35555	60.11	0
1	35614	60.21	0
1	35673	60.31	0
1	35732	60.41	0
1	35791	60.51	0
1	35850	60.61	0
1	35909	60.71	0
1	35968	60.81	0
1	36027	60.91	0
1	36089	61.01	0
1	36148	61.11	0
1	36207	61.21	0
1	36266	61.31	0
1	36325	61.41	0
1	36384	61.51	0
1	36443	61.61	0
1	36502	61.71	0
1	36561	61.81	0
1	36620	61.91	0
1	36682	62.01	0
1	36741	62.11	0
1	36800	62.21	0
1	36859	62.31	0
1	36918	62.41	0
1	36977	62.51	0
1	37036	62.61	0
1	37095	62.71	0
1	37154	62.81	0
1	37213	62.91	0
1	37275	63.01	0
1	37334	63.11	0
1	37393	63.21	0
1	37452	63.31	0
1	37511	63.41	0
1	37570	63.51	0
1	37629	63.61	0
1	37688	63.71	0
1	37747	63.81	0
1	37806	63.91	0
1	37868	64.01	0
1	37927	64.11	0
1	37986	64.21	0
1	38045	64.31	0
1	38104	64.41	0
1	38163	64.51	0
1	38222	64.61	0
1	38281	64.71	0
1	38340	64.81	0
1	38399	64.91	0
1	38461	65.01	0
1	38520	65.11	0
1	38579	65.21	0
1	38638	65.31	0
1	38697	65.41	0
1	38756	65.51	0
1	38815	65.61	0
1	38874	65.71	0
1	38933	65.81	0
1	38992	65.91	0
1	39054	66.01	0
1	39113	66.11	0
1	39172	66.21	0
1	39231	66.31	0
1	39290	66.41	0
1	39349	66.51	0
1	39408	66.61	0
1	39467	66.71	0
1	39526	66.81	0
1	39585	66.91	0
1	39647	67.01	0
1	39706	67.11	0
1	39765	67.21	0
1	39824	67.31	0
1	39883	67.41	0
1	39942	67.51	0
1	40001	67.61	0
1	40060	67.71	0
1	40119	67.81	0
1	40178	67.91	0
1	40240	68.01	0
1	40299	68.11	0
1	40358	68.21	0
1	40417	68.31	0
1	40476	68.41	0
1	40535	68.51	0
1	40594	68.61	0
1	40653	68.71	0
1	40712	68.81	0
1	40771	68.91	0
1	40833	69.01	0
1	40892	69.11	0
1	40951	69.21	0
1	41010	69.31	0
1	41069	69.41	0
1	41128	69.51	0
1	41187	69.61	0
1	41246	69.71	0
1	41305	69.81	0
1	41364	69.91	0
1	41426	70.01	0
1	41485	70.11	0
1	41544	70.21	0
1	41603	70.31	0
1	41662	70.41	0
1	41721	70.51	0
1	41780	70.61	0
1	41839	70.71	0
1	41898	70.81	0
1	41957	70.91	0
1	42019	71.01	0
1	42078	71.11	0
1	42137	71.21	0
1	42196	71.31	0
1	42255	71.41	0
1	42314	71.51	0
1	42373	71.61	0
1	42432	71.71	0
1	42491	71.81	0
1	42550	71.91	0
1	42612	72.01	0
1	42671	72.11	0
1	42730	72.21	0
1	42789	72.31	0
1	42848	72.41	0
1	42907	72.51	0
1	42966	72.61	0
1	43025	72.71	0
1	43084	72.81	0
1	43143	72.91	0
1	43205	73.01	0
1	43264	73.11	0
1	43323	73.21	0
1	43382	73.31	0
1	43441	73.41	0
1	43500	73.51	0
1	43559	73.61	0
1	43618	73.71	0
1	43677	73.81	0
1	43736	73.91	0
1	43798	74.01	0
1	43857	74.11	0
1	43916	74.21	0
1	43975	74.31	0
1	44034	74.41	0
1	44093	74.51	0
1	44152	74.61	0
1	44211	74.71	0
1	44270	74.81	0
1	44329	74.91	0
1	44391	75.01	0
1	44450	75.11	0
1	44509	75.21	0
1	44568	75.31	0
1	44627	75.41	0
1	44686	75.51	0
1	44745	75.61	0
1	44804	75.71	0
1	44863	75.81	0
1	44922	75.91	0
1	44984	76.01	0
1	45043	76.11	0
1	45102	76.21	0
1	45161	76.31	0
1	45220	76.41	0
1	45279	76.51	0
1	45338	76.61	0
1	45397	76.71	0
1	45456	76.81	0
1	45515	76.91	0
1	45577	77.01	0
1	45636	77.11	0
1	45695	77.21	0
1	45754	77.31	0
1	45813	77.41	0
1	45872	77.51	0
1	45931	77.61	0
1	45990	77.71	0
1	46049	77.81	0
1	46108	77.91	0
1	46170	78.01	0
1	46229	78.11	0
1	46288	78.21	0
1	46347	78.31	0
1	46406	78.41	0
1	46465	78.51	0
1	46524	78.61	0
1	46583	78.71	0
1	46642	78.81	0
1	46701	78.91	0
1	46763	79.01	0
1	46822	79.11	0
1	46881	79.21	0
1	46940	79.31	0
1	46999	79.41	0
1	47058	79.51	0
1	47117	79.61	0
1	47176	79.71	0
1	47235	79.81	0
1	47294	79.91	0
1	47356	80.01	0
1	47415	80.11	0
1	47474	80.21	0
1	47533	80.31	0
1	47592	80.41	0
1	47651	80.51	0
1	47710	80.61	0
1	47769	80.71	0
1	47828	80.81	0
1	47887	80.91	0
1	47949	81.01	0
1	48008	81.11	0
1	48067	81.21	0
1	48126	81.31	0
1	48185	81.41	0
1	48244	81.51	0
1	48303	81.61	0
1	48362	81.71	0
1	48421	81.81	0
1	48480	81.91	0
1	48542	82.01	0
1	48601	82.11	0
1	48660	82.21	0
1	48719	82.31	0
1	48778	82.41	0
1	48837	82.51	0
1	48896	82.61	0
1	48955	82.71	0
1	49014	82.81	0
1	49073	82.91	0
1	49135	83.01	0
1	49194	83.11	0
1	49253	83.21	0
1	49312	83.31	0
1	49371	83.41	0
1	49430	83.51	0
1	49489	83.61	0
1	49548	83.71	0
1	49607	83.81	0
1	49666	83.91	0
1	49728	84.01	0
1	49787	84.11	0
1	49846	84.21	0
1	49905	84.31	0
1	49964	84.41	0
1	50023	84.51	0
1	50082	84.61	0
1	50141	84.71	0
1	50200	84.81	0
1	50259	84.91	0
1	50321	85.01	0
1	50380	85.11	0
1	50439	85.21	0
1	50498	85.31	0
1	50557	85.41	0
1	50616	85.51	0
1	50675	85.61	0
1	50734	85.71	0
1	50793	85.81	0
1	50852	85.91	0
1	50914	86.01	0
1	50973	86.11	0
1	51032	86.21	0
1	51091	86.31	0
1	51150	86.41	0
1	51209	86.51	0
1	51268	86.61	0
1	51327	86.71	0
1	51386	86.81	0
1	51445	86.91	0
1	51507	87.01	0
1	51566	87.11	0
1	51625	87.21	0
1	51684	87.31	0
1	51743	87.41	0
1	51802	87.51	0
1	51861	87.61	0
1	51920	87.71	0
1	51979	87.81	0
1	52038	87.91	0
1	52100	88.01	0
1	52159	88.11	0
1	52218	88.21	0
1	52277	88.31	0
1	52336	88.41	0
1	52395	88.51	0
1	52454	88.61	0
1	52513	88.71	0
1	52572	88.81	0
1	52631	88.91	0
1	52693	89.01	0
1	52752	89.11	0
1	52811	89.21	0
1	52870	89.31	0
1	52929	89.41	0
1	52988	89.51	0
1	53047	89.61	0
1	53106	89.71	0
1	53165	89.81	0
1	53224	89.91	0
1	53286	90.01	0
1	53345	90.11	0
1	53404	90.21	0
1	53463	90.31	0
1	53522	90.41	0
1	53581	90.51	0
1	53640	90.61	0
1	53699	90.71	0
1	53758	90.81	0
1	53817	90.91	0
1	53879	91.01	0
1	53938	91.11	0
1	53997	91.21	0
1	54056	91.31	0
1	54115	91.41	0
1	54174	91.51	0
1	54233	91.61	0
1	54292	91.71	0
1	54351	91.81	0
1	54410	91.91	0
1	54472	92.01	0
1	54531	92.11	0
1	54590	92.21	0
1	54649	92.31	0
1	54708	92.41	0
1	54767	92.51	0
1	54826	92.61	0
1	54885	92.71	0
1	54944	92.81	0
1	55003	92.91	0
1	55065	93.01	0
1	55124	93.11	0
1	55183	93.21	0
1	55242	93.31	0
1	55301	93.41	0
1	55360	93.51	0
1	55419	93.61	0
1	55478	93.71	0
1	55537	93.81	0
1	55596	93.91	0
1	55658	94.01	0
1	55717	94.11	0
1	55776	94.21	0
1	55835	94.31	0
1	55894	94.41	0
1	55953	94.51	0
1	56012	94.61	0
1	56071	94.71	0
1	56130	94.81	0
1	56189	94.91	0
1	56251	95.01	0
1	56310	95.11	0
1	56369	95.21	0
1	56428	95.31	0
1	56487	95.41	0
1	56546	95.51	0
1	56605	95.61	0
1	56664	95.71	0
1	56723	95.81	0
1	56782	95.91	0
1	56844	96.01	0
1	56903	96.11	0
1	56962	96.21	0
1	57021	96.31	0
1	57080	96.41	0
1	57139	96.51	0
1	57198	96.61	0
1	57257	96.71	0
1	57316	96.81	0
1	57375	96.91	0
1	57437	97.01	0
1	57496	97.11	0
1	57555	97.21	0
1	57614	97.31	0
1	57673	97.41	0
1	57732	97.51	0
1	57791	97.61	0
1	57850	97.71	0
1	57909	97.81	0
1	57968	97.91	0
1	58030	98.01	0
1	58089	98.11	0
1	58148	98.21	0
1	58207	98.31	0
1	58266	98.41	0
1	58325	98.51	0
1	58384	98.61	0
1	58443	98.71	0
1	58502	98.81	0
1	58561	98.91	0
1	58623	99.01	0
1	58682	99.11	0
1	58741	99.21	0
1	58800	99.31	0
1	58859	99.41	0
1	58918	99.51	0
1	58977	99.61	0
1	59036	99.71	0
1	59095	99.81	0
1	59154	99.91	0
2	113	1.11	0
2	172	1.21	0
2	231	1.31	0
2	290	1.41	0
2	349	1.51	0
2	408	1.61	0
2	467	1.71	0
2	526	1.81	0
2	585	1.91	0
2	647	2.01	0
2	706	2.11	0
2	765	2.21	0
2	824	2.31	0
2	883	2.41	0
2	942	2.51	0
2	1001	2.61	0
2	1060	2.71	0
2	1119	2.81	0
2	1178	2.91	0
2	1240	3.01	0
2	1299	3.11	0
2	1358	3.21	0
2	1417	3.31	0
2	1476	3.41	0
2	1535	3.51	0
2	1594	3.61	0
2	1653	3.71	0
2	1712	3.81	0
2	1771	3.91	0
2	1833	4.01	0
2	1892	4.11	0
2	1951	4.21	0
2	2010	4.31	0
2	2069	4.41	0
2	2128	4.51	0
2	2187	4.61	0
2	2246	4.71	0
2	2305	4.81	0
2	2364	4.91	0
2	2426	5.01	0
2	2485	5.11	0
2	2544	5.21	0
2	2603	5.31	0
2	2662	5.41	0
2	2721	5.51	0
2	2780	5.61	0
2	2839	5.71	0
2	2898	5.81	0
2	2957	5.91	0
2	3019	6.01	0
2	3078	6.11	0
2	3137	6.21	0
2	3196	6.31	0
2	3255	6.41	0
2	3314	6.51	0
2	3373	6.61	0
2	3432	6.71	0
2	3491	6.81	0
2	3550	6.91	0
2	3612	7.01	0
2	3671	7.11	0
2	3730	7.21	0
2	3789	7.31	0
2	3848	7.41	0
2	3907	7.51	0
2	3966	7.61	0
2	4025	7.71	0
2	4084	7.81	0
2	4143	7.91	0
2	4205	8.01	0
2	4264	8.11	0
2	4323	8.21	0
2	4382	8.31	0
2	4441	8.41	0
2	4500	8.51	0
2	4559	8.61	0
2	4618	8.71	0
2	4677	8.81	0
2	4736	8.91	0
2	4798	9.01	0
2	4857	9.11	0
2	4916	9.21	0
2	4975	9.31	0
2	5034	9.41	0
2	5093	9.51	0
2	5152	9.61	0
2	5211	9.71	0
2	5270	9.81	0
2	5329	9.91	0
2	5422	10.01	0
2	5482	10.11	0
2	5542	10.21	0
2	5602	10.31	0
2	5662	10.41	0
2	5722	10.51	0
2	5782	10.61	0
2	5842	10.71	0
2	5902	10.81	0
2	5962	10.91	0
2	6025	11.01	0
2	6085	11.11	0
2	6145	11.21	0
2	6205	11.31	0
2	6265	11.41	0
2	6325	11.51	0
2	6385	11.61	0
2	6445	11.71	0
2	6505	11.81	0
2	6565	11.91	0
2	6628	12.01	0
2	6688	12.11	0
2	6748	12.21	0
2	6808	12.31	0
2	6868	12.41	0
2	6928	12.51	0
2	6988	12.61	0
2	7048	12.71	0
2	7108	12.81	0
2	7168	12.91	0
2	7231	13.01	0
2	7291	13.11	0
2	7351	13.21	0
2	7411	13.31	0
2	7471	13.41	0
2	7531	13.51	0
2	7591	13.61	0
2	7651	13.71	0
2	7711	13.81	0
2	7771	13.91	0
2	7834	14.01	0
2	7894	14.11	0
2	7954	14.21	0
2	8014	14.31	0
2	8074	14.41	0
2	8134	14.51	0
2	8194	14.61	0
2	8254	14.71	0
2	8314	14.81	0
2	8374	14.91	0
2	8437	15.01	0
2	8497	15.11	0
2	8557	15.21	0
2	8617	15.31	0
2	8677	15.41	0
2	8737	15.51	0
2	8797	15.61	0
2	8857	15.71	0
2	8917	15.81	0
2	8977	15.91	0
2	9040	16.01	0
2	9100	16.11	0
2	9160	16.21	0
2	9220	16.31	0
2	9280	16.41	0
2	9340	16.51	0
2	9400	16.61	0
2	9460	16.71	0
2	9520	16.81	0
2	9580	16.91	0
2	9643	17.01	0
2	9703	17.11	0
2	9763	17.21	0
2	9823	17.31	0
2	9883	17.41	0
2	9943	17.51	0
2	10003	17.61	0
2	10063	17.71	0
2	10123	17.81	0
2	10183	17.91	0
2	10246	18.01	0
2	10306	18.11	0
2	10366	18.21	0
2	10426	18.31	0
2	10486	18.41	0
2	10546	18.51	0
2	10606	18.61	0
2	10666	18.71	0
2	10726	18.81	0
2	10786	18.91	0
2	10849	19.01	0
2	10909	19.11	0
2	10969	19.21	0
2	11029	19.31	0
2	11089	19.41	0
2	11149	19.51	0
2	11209	19.61	0
2	11269	19.71	0
2	11329	19.81	0
2	11389	19.91	0
2	11452	20.01	0
2	11512	20.11	0
2	11572	20.21	0
2	11632	20.31	0
2	11692	20.41	0
2	11752	20.51	0
2	11812	20.61	0
2	11872	20.71	0
2	11932	20.81	0
2	11992	20.91	0
2	12055	21.01	0
2	12115	21.11	0
2	12175	21.21	0
2	12235	21.31	0
2	12295	21.41	0
2	12355	21.51	0
2	12415	21.61	0
2	12475	21.71	0
2	12535	21.81	0
2	12595	21.91	0
2	12658	22.01	0
2	12718	22.11	0
2	12778	22.21	0
2	12838	22.31	0
2	12898	22.41	0
2	12958	22.51	0
2	13018	22.61	0
2	13078	22.71	0
2	13138	22.81	0
2	13198	22.91	0
2	13261	23.01	0
2	13321	23.11	0
2	13381	23.21	0
2	13441	23.31	0
2	13501	23.41	0
2	13561	23.51	0
2	13621	23.61	0
2	13681	23.71	0
2	13741	23.81	0
2	13801	23.91	0
2	13864	24.01	0
2	13924	24.11	0
2	13984	24.21	0
2	14044	24.31	0
2	14104	24.41	0
2	14164	24.51	0
2	14224	24.61	0
2	14284	24.71	0
2	14344	24.81	0
2	14404	24.91	0
2	14467	25.01	0
2	14527	25.11	0
2	14587	25.21	0
2	14647	25.31	0
2	14707	25.41	0
2	14767	25.51	0
2	14827	25.61	0
2	14887	25.71	0
2	14947	25.81	0
2	15007	25.91	0
2	15070	26.01	0
2	15130	26.11	0
2	15190	26.21	0
2	15250	26.31	0
2	15310	26.41	0
2	15370	26.51	0
2	15430	26.61	0
2	15490	26.71	0
2	15550	26.81	0
2	15610	26.91	0
2	15673	27.01	0
2	15733	27.11	0
2	15793	27.21	0
2	15853	27.31	0
2	15913	27.41	0
2	15973	27.51	0
2	16033	27.61	0
2	16093	27.71	0
2	16153	27.81	0
2	16213	27.91	0
2	16276	28.01	0
2	16336	28.11	0
2	16396	28.21	0
2	16456	28.31	0
2	16516	28.41	0
2	16576	28.51	0
2	16636	28.61	0
2	16696	28.71	0
2	16756	28.81	0
2	16816	28.91	0
2	16879	29.01	0
2	16939	29.11	0
2	16999	29.21	0
2	17059	29.31	0
2	17119	29.41	0
2	17179	29.51	0
2	17239	29.61	0
2	17299	29.71	0
2	17359	29.81	0
2	17419	29.91	0
2	17482	30.01	0
2	17542	30.11	0
2	17602	30.21	0
2	17662	30.31	0
2	17722	30.41	0
2	17782	30.51	0
2	17842	30.61	0
2	17902	30.71	0
2	17962	30.81	0
2	18022	30.91	0
2	18085	31.01	0
2	18145	31.11	0
2	18205	31.21	0
2	18265	31.31	0
2	18325	31.41	0
2	18385	31.51	0
2	18445	31.61	0
2	18505	31.71	0
2	18565	31.81	0
2	18625	31.91	0
2	18688	32.01	0
2	18748	32.11	0
2	18808	32.21	0
2	18868	32.31	0
2	18928	32.41	0
2	18988	32.51	0
2	19048	32.61	0
2	19108	32.71	0
2	19168	32.81	0
2	19228	32.91	0
2	19291	33.01	0
2	19351	33.11	0
2	19411	33.21	0
2	19471	33.31	0
2	19531	33.41	0
2	19591	33.51	0
2	19651	33.61	0
2	19711	33.71	0
2	19771	33.81	0
2	19831	33.91	0
2	19894	34.01	0
2	19954	34.11	0
2	20014	34.21	0
2	20074	34.31	0
2	20134	34.41	0
2	20194	34.51	0
2	20254	34.61	0
2	20314	34.71	0
2	20374	34.81	0
2	20434	34.91	0
2	20497	35.01	0
2	20557	35.11	0
2	20617	35.21	0
2	20677	35.31	0
2	20737	35.41	0
2	20797	35.51	0
2	20857	35.61	0
2	20917	35.71	0
2	20977	35.81	0
2	21037	35.91	0
2	21100	36.01	0
2	21160	36.11	0
2	21220	36.21	0
2	21280	36.31	0
2	21340	36.41	0
2	21400	36.51	0
2	21460	36.61	0
2	21520	36.71	0
2	21580	36.81	0
2	21640	36.91	0
2	21703	37.01	0
2	21763	37.11	0
2	21823	37.21	0
2	21883	37.31	0
2	21943	37.41	0
2	22003	37.51	0
2	22063	37.61	0
2	22123	37.71	0
2	22183	37.81	0
2	22243	37.91	0
2	22306	38.01	0
2	22366	38.11	0
2	22426	38.21	0
2	22486	38.31	0
2	22546	38.41	0
2	22606	38.51	0
2	22666	38.61	0
2	22726	38.71	0
2	22786	38.81	0
2	22846	38.91	0
2	22909	39.01	0
2	22969	39.11	0
2	23029	39.21	0
2	23089	39.31	0
2	23149	39.41	0
2	23209	39.51	0
2	23269	39.61	0
2	23329	39.71	0
2	23389	39.81	0
2	23449	39.91	0
2	23512	40.01	0
2	23572	40.11	0
2	23632	40.21	0
2	23692	40.31	0
2	23752	40.41	0
2	23812	40.51	0
2	23872	40.61	0
2	23932	40.71	0
2	23992	40.81	0
2	24052	40.91	0
2	24115	41.01	0
2	24175	41.11	0
2	24235	41.21	0
2	24295	41.31	0
2	24355	41.41	0
2	24415	41.51	0
2	24475	41.61	0
2	24535	41.71	0
2	24595	41.81	0
2	24655	41.91	0
2	24718	42.01	0
2	24778	42.11	0
2	24838	42.21	0
2	24898	42.31	0
2	24958	42.41	0
2	25018	42.51	0
2	25078	42.61	0
2	25138	42.71	0
2	25198	42.81	0
2	25258	42.91	0
2	25321	43.01	0
2	25381	43.11	0
2	25441	43.21	0
2	25501	43.31	0
2	25561	43.41	0
2	25621	43.51	0
2	25681	43.61	0
2	25741	43.71	0
2	25801	43.81	0
2	25861	43.91	0
2	25924	44.01	0
2	25984	44.11	0
2	26044	44.21	0
2	26104	44.31	0
2	26164	44.41	0
2	26224	44.51	0
2	26284	44.61	0
2	26344	44.71	0
2	26404	44.81	0
2	26464	44.91	0
2	26527	45.01	0
2	26587	45.11	0
2	26647	45.21	0
2	26707	45.31	0
2	26767	45.41	0
2	26827	45.51	0
2	26887	45.61	0
2	26947	45.71	0
2	27073	45.81	0
2	27132	45.91	0
2	27194	46.01	0
2	27253	46.11	0
2	27312	46.21	0
2	27371	46.31	0
2	27430	46.41	0
2	27489	46.51	0
2	27548	46.61	0
2	27607	46.71	0
2	27666	46.81	0
2	27725	46.91	0
2	27787	47.01	0
2	27846	47.11	0
2	27905	47.21	0
2	27964	47.31	0
2	28023	47.41	0
2	28082	47.51	0
2	28141	47.61	0
2	28200	47.71	0
2	28259	47.81	0
2	28318	47.91	0
2	28380	48.01	0
2	28439	48.11	0
2	28498	48.21	0
2	28557	48.31	0
2	28616	48.41	0
2	28675	48.51	0
2	28734	48.61	0
2	28793	48.71	0
2	28852	48.81	0
2	28911	48.91	0
2	28973	49.01	0
2	29032	49.11	0
2	29091	49.21	0
2	29150	49.31	0
2	29209	49.41	0
2	29268	49.51	0
2	29327	49.61	0
2	29386	49.71	0
2	29445	49.81	0
2	29504	49.91	0
2	29566	50.01	0
2	29625	50.11	0
2	29684	50.21	0
2	29743	50.31	0
2	29802	50.41	0
2	29861	50.51	0
2	29920	50.61	0
2	29979	50.71	0
2	30038	50.81	0
2	30097	50.91	0
2	30159	51.01	0
2	30218	51.11	0
2	30277	51.21	0
2	30336	51.31	0
2	30395	51.41	0
2	30454	51.51	0
2	30513	51.61	0
2	30572	51.71	0
2	30631	51.81	0
2	30690	51.91	0
2	30752	52.01	0
2	30811	52.11	0
2	30870	52.21	0
2	30929	52.31	0
2	30988	52.41	0
2	31047	52.51	0
2	31106	52.61	0
2	31165	52.71	0
2	31224	52.81	0
2	31283	52.91	0
2	31345	53.01	0
2	31404	53.11	0
2	31463	53.21	0
2	31522	53.31	0
2	31581	53.41	0
2	31640	53.51	0
2	31699	53.61	0
2	31758	53.71	0
2	31817	53.81	0
2	31876	53.91	0
2	31938	54.01	0
2	31997	54.11	0
2	32056	54.21	0
2	32115	54.31	0
2	32174	54.41	0
2	32233	54.51	0
2	32292	54.61	0
2	32351	54.71	0
2	32410	54.81	0
2	32469	54.91	0
2	32531	55.01	0
2	32590	55.11	0
2	32649	55.21	0
2	32708	55.31	0
2	32767	55.41	0
2	32826	55.51	0
2	32885	55.61	0
2	32944	55.71	0
2	33003	55.81	0
2	33062	55.91	0
2	33124	56.01	0
2	33183	56.11	0
2	33242	56.21	0
2	33301	56.31	0
2	33360	56.41	0
2	33419	56.51	0
2	33478	56.61	0
2	33537	56.71	0
2	33596	56.81	0
2	33655	56.91	0
2	33717	57.01	0
2	33776	57.11	0
2	33835	57.21	0
2	33894	57.31	0
2	33953	57.41	0
2	34012	57.51	0
2	34071	57.61	0
2	34130	57.71	0
2	34189	57.81	0
2	34248	57.91	0
2	34310	58.01	0
2	34369	58.11	0
2	34428	58.21	0
2	34487	58.31	0
2	34546	58.41	0
2	34605	58.51	0
2	34664	58.61	0
2	34723	58.71	0
2	34782	58.81	0
2	34841	58.91	0
2	34903	59.01	0
2	34962	59.11	0
2	35021	59.21	0
2	35080	59.31	0
2	35139	59.41	0
2	35198	59.51	0
2	35257	59.61	0
2	35316	59.71	0
2	35375	59.81	0
2	35434	59.91	0
2	35496	60.01	0
2	35555	60.11	0
2	35614	60.21	0
2	35673	60.31	0
2	35732	60.41	0
2	35791	60.51	0
2	35850	60.61	0
2	35909	60.71	0
2	35968	60.81	0
2	36027	60.91	0
2	36089	61.01	0
2	36148	61.11	0
2	36207	61.21	0
2	36266	61.31	0
2	36325	61.41	0
2	36384	61.51	0
2	36443	61.61	0
2	36502	61.71	0
2	36561	61.81	0
2	36620	61.91	0
2	36682	62.01	0
2	36741	62.11	0
2	36800	62.21	0
2	36859	62.31	0
2	36918	62.41	0
2	36977	62.51	0
2	37036	62.61	0
2	37095	62.71	0
2	37154	62.81	0
2	37213	62.91	0
2	37275	63.01	0
2	37334	63.11	0
2	37393	63.21	0
2	37452	63.31	0
2	37511	63.41	0
2	37570	63.51	0
2	37629	63.61	0
2	37688	63.71	0
2	37747	63.81	0
2	37806	63.91	0
2	37868	64.01	0
2	37927	64.11	0
2	37986	64.21	0
2	38045	64.31	0
2	38104	64.41	0
2	38163	64.51	0
2	38222	64.61	0
2	38281	64.71	0
2	38340	64.81	0
2	38399	64.91	0
2	38461	65.01	0
2	38520	65.11	0
2	38579	65.21	0
2	38638	65.31	0
2	38697	65.41	0
2	38756	65.51	0
2	38815	65.61	0
2	38874	65.71	0
2	38933	65.81	0
2	38992	65.91	0
2	39054	66.01	0
2	39113	66.11	0
2	39172	66.21	0
2	39231	66.31	0
2	39290	66.41	0
2	39349	66.51	0
2	39408	66.61	0
2	39467	66.71	0
2	39526	66.81	0
2	39585	66.91	0
2	39647	67.01	0
2	39706	67.11	0
2	39765	67.21	0
2	39824	67.31	0
2	39883	67.41	0
2	39942	67.51	0
2	40001	67.61	0
2	40060	67.71	0
2	40119	67.81	0
2	40178	67.91	0
2	40240	68.01	0
2	40299	68.11	0
2	40358	68.21	0
2	40417	68.31	0
2	40476	68.41	0
2	40535	68.51	0
2	40594	68.61	0
2	40653	68.71	0
2	40712	68.81	0
2	40771	68.91	0
2	40833	69.01	0
2	40892	69.11	0
2	40951	69.21	0
2	41010	69.31	0
2	41069	69.41	0
2	41128	69.51	0
2	41187	69.61	0
2	41246	69.71	0
2	41305	69.81	0
2	41364	69.91	0
2	41426	70.01	0
2	41485	70.11	0
2	41544	70.21	0
2	41603	70.31	0
2	41662	70.41	0
2	41721	70.51	0
2	41780	70.61	0
2	41839	70.71	0
2	41898	70.81	0
2	41957	70.91	0
2	42019	71.01	0
2	42078	71.11	0
2	42137	71.21	0
2	42196	71.31	0
2	42255	71.41	0
2	42314	71.51	0
2	42373	71.61	0
2	42432	71.71	0
2	42491	71.81	0
2	42550	71.91	0
2	42612	72.01	0
2	42671	72.11	0
2	42730	72.21	0
2	42789	72.31	0
2	42848	72.41	0
2	42907	72.51	0
2	42966	72.61	0
2	43025	72.71	0
2	43084	72.81	0
2	43143	72.91	0
2	43205	73.01	0
2	43264	73.11	0
2	43323	73.21	0
2	43382	73.31	0
2	43441	73.41	0
2	43500	73.51	0
2	43559	73.61	0
2	43618	73.71	0
2	43677	73.81	0
2	43736	73.91	0
2	43798	74.01	0
2	43857	74.11	0
2	43916	74.21	0
2	43975	74.31	0
2	44034	74.41	0
2	44093	74.51	0
2	44152	74.61	0
2	44211	74.71	0
2	44270	74.81	0
2	44329	74.91	0
2	44391	75.01	0
2	44450	75.11	0
2	44509	75.21	0
2	44568	75.31	0
2	44627	75.41	0
2	44686	75.51	0
2	44745	75.61	0
2	44804	75.71	0
2	44863	75.81	0
2	44922	75.91	0
2	44984	76.01	0
2	45043	76.11	0
2	45102	76.21	0
2	45161	76.31	0
2	45220	76.41	0
2	45279	76.51	0
2	45338	76.61	0
2	45397	76.71	0
2	45456	76.81	0
2	45515	76.91	0
2	45577	77.01	0
2	45636	77.11	0
2	45695	77.21	0
2	45754	77.31	0
2	45813	77.41	0
2	45872	77.51	0
2	45931	77.61	0
2	45990	77.71	0
2	46049	77.81	0
2	46108	77.91	0
2	46170	78.01	0
2	46229	78.11	0
2	46288	78.21	0
2	46347	78.31	0
2	46406	78.41	0
2	46465	78.51	0
2	46524	78.61	0
2	46583	78.71	0
2	46642	78.81	0
2	46701	78.91	0
2	46763	79.01	0
2	46822	79.11	0
2	46881	79.21	0
2	46940	79.31	0
2	46999	79.41	0
2	47058	79.51	0
2	47117	79.61	0
2	47176	79.71	0
2	47235	79.81	0
2	47294	79.91	0
2	47356	80.01	0
2	47415	80.11	0
2	47474	80.21	0
2	47533	80.31	0
2	47592	80.41	0
2	47651	80.51	0
2	47710	80.61	0
2	47769	80.71	0
2	47828	80.81	0
2	47887	80.91	0
2	47949	81.01	0
2	48008	81.11	0
2	48067	81.21	0
2	48126	81.31	0
2	48185	81.41	0
2	48244	81.51	0
2	48303	81.61	0
2	48362	81.71	0
2	48421	81.81	0
2	48480	81.91	0
2	48542	82.01	0
2	48601	82.11	0
2	48660	82.21	0
2	48719	82.31	0
2	48778	82.41	0
2	48837	82.51	0
2	48896	82.61	0
2	48955	82.71	0
2	49014	82.81	0
2	49073	82.91	0
2	49135	83.01	0
2	49194	83.11	0
2	49253	83.21	0
2	49312	83.31	0
2	49371	83.41	0
2	49430	83.51	0
2	49489	83.61	0
2	49548	83.71	0
2	49607	83.81	0
2	49666	83.91	0
2	49728	84.01	0
2	49787	84.11	0
2	49846	84.21	0
2	49905	84.31	0
2	49964	84.41	0
2	50023	84.51	0
2	50082	84.61	0
2	50141	84.71	0
2	50200	84.81	0
2	50259	84.91	0
2	50321	85.01	0
2	50380	85.11	0
2	50439	85.21	0
2	50498	85.31	0
2	50557	85.41	0
2	50616	85.51	0
2	50675	85.61	0
2	50734	85.71	0
2	50793	85.81	0
2	50852	85.91	0
2	50914	86.01	0
2	50973	86.11	0
2	51032	86.21	0
2	51091	86.31	0
2	51150	86.41	0
2	51209	86.51	0
2	51268	86.61	0
2	51327	86.71	0
2	51386	86.81	0
2	51445	86.91	0
2	51507	87.01	0
2	51566	87.11	0
2	51625	87.21	0
2	51684	87.31	0
2	51743	87.41	0
2	51802	87.51	0
2	51861	87.61	0
2	51920	87.71	0
2	51979	87.81	0
2	52038	87.91	0
2	52100	88.01	0
2	52159	88.11	0
2	52218	88.21	0
2	52277	88.31	0
2	52336	88.41	0
2	52395	88.51	0
2	52454	88.61	0
2	52513	88.71	0
2	52572	88.81	0
2	52631	88.91	0
2	52693	89.01	0
2	52752	89.11	0
2	52811	89.21	0
2	52870	89.31	0
2	52929	89.41	0
2	52988	89.51	0
2	53047	89.61	0
2	53106	89.71	0
2	53165	89.81	0
2	53224	89.91	0
2	53286	90.01	0
2	53345	90.11	0
2	53404	90.21	0
2	53463	90.31	0
2	53522	90.41	0
2	53581	90.51	0
2	53640	90.61	0
2	53699	90.71	0
2	53758	90.81	0
2	53817	90.91	0
2	53879	91.01	0
2	53938	91.11	0
2	53997	91.21	0
2	54056	91.31	0
2	54115	91.41	0
2	54174	91.51	0
2	54233	91.61	0
2	54292	91.71	0
2	54351	91.81	0
2	54410	91.91	0
2	54472	92.01	0
2	54531	92.11	0
2	54590	92.21	0
2	54649	92.31	0
2	54708	92.41	0
2	54767	92.51	0
2	54826	92.61	0
2	54885	92.71	0
2	54944	92.81	0
2	55003	92.91	0
2	55065	93.01	0
2	55124	93.11	0
2	55183	93.21	0
2	55242	93.31	0
2	55301	93.41	0
2	55360	93.51	0
2	55419	93.61	0
2	55478	93.71	0
2	55537	93.81	0
2	55596	93.91	0
2	55658	94.01	0
2	55717	94.11	0
2	55776	94.21	0
2	55835	94.31	0
2	55894	94.41	0
2	55953	94.51	0
2	56012	94.61	0
2	56071	94.71	0
2	56130	94.81	0
2	56189	94.91	0
2	56251	95.01	0
2	56310	95.11	0
2	56369	95.21	0
2	56428	95.31	0
2	56487	95.41	0
2	56546	95.51	0
2	56605	95.61	0
2	56664	95.71	0
2	56723	95.81	0
2	56782	95.91	0
2	56844	96.01	0
2	56903	96.11	0
2	56962	96.21	0
2	57021	96.31	0
2	57080	96.41	0
2	57139	96.51	0
2	57198	96.61	0
2	57257	96.71	0
2	57316	96.81	0
2	57375	96.91	0
2	57437	97.01	0
2	57496	97.11	0
2	57555	97.21	0
2	57614	97.31	0
2	57673	97.41	0
2	57732	97.51	0
2	57791	97.61	0
2	57850	97.71	0
2	57909	97.81	0
2	57968	97.91	0
2	58030	98.01	0
2	58089	98.11	0
2	58148	98.21	0
2	58207	98.31	0
2	58266	98.41	0
2	58325	98.51	0
2	58384	98.61	0
2	58443	98.71	0
2	58502	98.81	0
2	58561	98.91	0
2	58623	99.01	0
2	58682	99.11	0
2	58741	99.21	0
2	58800	99.31	0
2	58859	99.41	0
2	58918	99.51	0
2	58977	99.61	0
2	59036	99.71	0
2	59095	99.81	0
2	59154	99.91	0
3	113	1.11	0.000179096
3	172	1.21	0.000340852
3	231	1.31	0.000467435
3	290	1.41	0.000562893
3	349	1.51	0.000631106
3	408	1.61	0.000675745
3	467	1.71	0.000700245
3	526	1.81	0.000707784
3	585	1.91	0.000701273
3	647	2.01	0.000683354
3	706	2.11	0.000656398
3	765	2.21	0.000622512
3	824	2.31	0.000583548
3	883	2.41	0.000541117
3	942	2.51	0.000496604
3	1001	2.61	0.000451181
3	1060	2.71	0.000405825
3	1119	2.81	0.00036134
3	1178	2.91	0.000318365
3	1240	3.01	0.0002774
3	1299	3.11	0.00023882
3	1358	3.21	0.000202887
3	1417	3.31	0.00016977
3	1476	3.41	0.000139558
3	1535	3.51	0.000112271
3	1594	3.61	8.78717e-05
3	1653	3.71	6.628e-05
3	1712	3.81	4.73785e-05
3	1771	3.91	3.1023e-05
3	1833	4.01	1.70493e-05
3	1892	4.11	5.28023e-06
3	1951	4.21	-4.46922e-06
3	2010	4.31	-1.2387e-05
3	2069	4.41	-1.86602e-05
3	2128	4.51	-2.34717e-05
3	2187	4.61	-2.69978e-05
3	2246	4.71	-2.94062e-05
3	2305	4.81	-3.08545e-05
3	2364	4.91	-3.14892e-05
3	2426	5.01	-3.14451e-05
3	2485	5.11	-3.0845e-05
3	2544	5.21	-2.97994e-05
3	2603	5.31	-2.84072e-05
3	2662	5.41	-2.67556e-05
3	2721	5.51	-2.49208e-05
3	2780	5.61	-2.29687e-05
3	2839	5.71	-2.09553e-05
3	2898	5.81	-1.89277e-05
3	2957	5.91	-1.6925e-05
3	3019	6.01	-1.49784e-05
3	3078	6.11	-1.31129e-05
3	3137	6.21	-1.13474e-05
3	3196	6.31	-9.69553e-06
3	3255	6.41	-8.16651e-06
3	3314	6.51	-6.76571e-06
3	3373	6.61	-5.49522e-06
3	3432	6.71	-4.35441e-06
3	3491	6.81	-3.34045e-06
3	3550	6.91	-2.44874e-06
3	3612	7.01	-1.6733e-06
3	3671	7.11	-1.00716e-06
3	3730	7.21	-4.42628e-07
3	3789	7.31	2.84224e-08
3	3848	7.41	4.14339e-07
3	3907	7.51	7.23492e-07
3	3966	7.61	9.6413e-07
3	4025	7.71	1.14424e-06
3	4084	7.81	1.27148e-06
3	4143	7.91	1.35305e-06
3	4205	8.01	1.3957e-06
3	4264	8.11	1.40565e-06
3	4323	8.21	1.3886e-06
3	4382	8.31	1.34971e-06
3	4441	8.41	1.2936e-06
3	4500	8.51	1.22437e-06
3	4559	8.61	1.14561e-06
3	4618	8.71	1.06046e-06
3	4677	8.81	9.71582e-07
3	4736	8.91	8.81246e-07
3	4798	9.01	7.91334e-07
3	4857	9.11	7.03381e-07
3	4916	9.21	6.18613e-07
3	4975	9.31	5.37979e-07
3	5034	9.41	4.62183e-07
3	5093	9.51	3.91714e-07
3	5152	9.61	3.26878e-07
3	5211	9.71	2.67827e-07
3	5270	9.81	2.14581e-07
3	5329	9.91	1.67052e-07
3	5422	10.01	1.25066e-07
3	5482	10.11	8.83794e-08
3	5542	10.21	5.66978e-08
3	5602	10.31	2.96922e-08
3	5662	10.41	7.00453e-09
3	5722	10.51	-1.17325e-08
3	5782	10.61	-2.68933e-08
3	5842	10.71	-3.88482e-08
3	5902	10.81	-4.79581e-08
3	5962	10.91	-5.45704e-08
3	6025	11.01	-5.90177e-08
3	6085	11.11	-6.16069e-08
3	6145	11.21	-6.26265e-08
3	6205	11.31	-6.23395e-08
3	6265	11.41	-6.09859e-08
3	6325	11.51	-5.87811e-08
3	6385	11.61	-5.59183e-08
3	6445	11.71	-5.25674e-08
3	6505	11.81	-4.88761e-08
3	6565	11.91	-4.4971e-08
3	6628	12.01	-4.09599e-08
3	6688	12.11	-3.69354e-08
3	6748	12.21	-3.29713e-08
3	6808	12.31	-2.9128e-08
3	6868	12.41	-2.54531e-08
3	6928	12.51	-2.19821e-08
3	6988	12.61	-1.87399e-08
3	7048	12.71	-1.57428e-08
3	7108	12.81	-1.30029e-08
3	7168	12.91	-1.05217e-08
3	7231	13.01	-8.29772e-09
3	7291	13.11	-6.32454e-09
3	7351	13.21	-4.59224e-09
3	7411	13.31	-3.08802e-09
3	7471	13.41	-1.79838e-09
3	7531	13.51	-7.08411e-10
3	7591	13.61	1.98241e-10
3	7651	13.71	9.37916e-10
3	7711	13.81	1.52767e-09
3	7771	13.91	1.98384e-09
3	7834	14.01	2.32276e-09
3	7894	14.11	2.55937e-09
3	7954	14.21	2.70788e-09
3	8014	14.31	2.78249e-09
3	8074	14.41	2.79243e-09
3	8134	14.51	2.7498e-09
3	8194	14.61	2.66525e-09
3	8254	14.71	2.54872e-09
3	8314	14.81	2.40803e-09
3	8374	14.91	2.24887e-09
3	8437	15.01	2.07763e-09
3	8497	15.11	1.89999e-09
3	8557	15.21	1.72236e-09
3	8617	15.31	1.54472e-09
3	8677	15.41	1.37064e-09
3	8737	15.51	1.20295e-09
3	8797	15.61	1.04379e-09
3	8857	15.71	8.94573e-10
3	8917	15.81	7.56017e-10
3	8977	15.91	6.29541e-10
3	9040	16.01	5.13012e-10
3	9100	16.11	4.09273e-10
3	9160	16.21	3.16902e-10
3	9220	16.31	2.3519e-10
3	9280	16.41	1.63425e-10
3	9340	16.51	1.02318e-10
3	9400	16.61	4.9738e-11
3	9460	16.71	5.68434e-12
3	9520	16.81	-3.05533e-11
3	9580	16.91	-5.8975e-11
3	9643	17.01	-8.10019e-11
3	9703	17.11	-9.80549e-11
3	9763	17.21	-1.11555e-10
3	9823	17.31	-1.18661e-10
3	9883	17.41	-1.23634e-10
3	9943	17.51	-1.23634e-10
3	10003	17.61	-1.23634e-10
3	10063	17.71	-1.21503e-10
3	10123	17.81	-1.14397e-10
3	10183	17.91	-1.07292e-10
3	10246	18.01	-1.00187e-10
3	10306	18.11	-9.30811e-11
3	10366	18.21	-8.59757e-11
3	10426	18.31	-7.88702e-11
3	10486	18.41	-7.17648e-11
3	10546	18.51	-6.46594e-11
3	10606	18.61	-5.7554e-11
3	10666	18.71	-5.04485e-11
3	10726	18.81	-4.33431e-11
3	10786	18.91	-3.62377e-11
3	10849	19.01	-2.91323e-11
3	10909	19.11	-2.20268e-11
3	10969	19.21	-1.7053e-11
3	11029	19.31	-1.49214e-11
3	11089	19.41	-1.35003e-11
3	11149	19.51	-1.27898e-11
3	11209	19.61	-1.13687e-11
3	11269	19.71	-9.9476e-12
3	11329	19.81	-9.23706e-12
3	11389	19.91	-8.52651e-12
3	11452	20.01	-7.81597e-12
3	11512	20.11	-7.10543e-12
3	11572	20.21	-6.39488e-12
3	11632	20.31	-5.68434e-12
3	11692	20.41	-4.9738e-12
3	11752	20.51	-4.26326e-12
3	11812	20.61	-4.26326e-12
3	11872	20.71	-3.55271e-12
3	11932	20.81	-3.55271e-12
3	11992	20.91	-2.84217e-12
3	12055	21.01	-2.84217e-12
3	12115	21.11	-2.84217e-12
3	12175	21.21	-2.13163e-12
3	12235	21.31	-2.13163e-12
3	12295	21.41	-2.13163e-12
3	12355	21.51	-1.42109e-12
3	12415	21.61	-1.42109e-12
3	12475	21.71	-1.42109e-12
3	12535	21.81	-1.42109e-12
3	12595	21.91	-1.42109e-12
3	12658	22.01	-7.10543e-13
3	12718	22.11	-7.10543e-13
3	12778	22.21	-7.10543e-13
3	12838	22.31	-7.10543e-13
3	12898	22.41	-7.10543e-13
3	12958	22.51	-7.10543e-13
3	13018	22.61	-7.10543e-13
3	13078	22.71	-7.10543e-13
3	13138	22.81	-7.10543e-13
3	13198	22.91	-7.10543e-13
3	13261	23.01	0
3	13321	23.11	0
3	13381	23.21	0
3	13441	23.31	0
3	13501	23.41	0
3	13561	23.51	0
3	13621	23.61	0
3	13681	23.71	0
3	13741	23.81	0
3	13801	23.91	0
3	13864	24.01	0
3	13924	24.11	0
3	13984	24.21	0
3	14044	24.31	0
3	14104	24.41	0
3	14164	24.51	0
3	14224	24.61	0
3	14284	24.71	0
3	14344	24.81	0
3	14404	24.91	0
3	14467	25.01	0
3	14527	25.11	0
3	14587	25.21	0
3	14647	25.31	0
3	14707	25.41	0
3	14767	25.51	0
3	14827	25.61	0
3	14887	25.71	0
3	14947	25.81	0
3	15007	25.91	0
3	15070	26.01	0
3	15130	26.11	0
3	15190	26.21	0
3	15250	26.31	0
3	15310	26.41	0
3	15370	26.51	0
3	15430	26.61	0
3	15490	26.71	0
3	15550	26.81	0
3	15610	26.91	0
3	15673	27.01	0
3	15733	27.11	0
3	15793	27.21	0
3	15853	27.31	0
3	15913	27.41	0
3	15973	27.51	0
3	16033	27.61	0
3	16093	27.71	0
3	16153	27.81	0
3	16213	27.91	0
3	16276	28.01	0
3	16336	28.11	0
3	16396	28.21	0
3	16456	28.31	0
3	16516	28.41	0
3	16576	28.51	0
3	16636	28.61	0
3	16696	28.71	0
3	16756	28.81	0
3	16816	28.91	0
3	16879	29.01	0
3	16939	29.11	0
3	16999	29.21	0
3	17059	29.31	0
3	17119	29.41	0
3	17179	29.51	0
3	17239	29.61	0
3	17299	29.71	0
3	17359	29.81	0
3	17419	29.91	0
3	17482	30.01	0
3	17542	30.11	0
3	17602	30.21	0
3	17662	30.31	0
3	17722	30.41	0
3	17782	30.51	0
3	17842	30.61	0
3	17902	30.71	0
3	17962	30.81	0
3	18022	30.91	0
3	18085	31.01	0
3	18145	31.11	0
3	18205	31.21	0
3	18265	31.31	0
3	18325	31.41	0
3	18385	31.51	0
3	18445	31.61	0
3	18505	31.71	0
3	18565	31.81	0
3	18625	31.91	0
3	18688	32.01	0
3	18748	32.11	0
3	18808	32.21	0
3	18868	32.31	0
3	18928	32.41	0
3	18988	32.51	0
3	19048	32.61	0
3	19108	32.71	0
3	19168	32.81	0
3	19228	32.91	0
3	19291	33.01	0
3	19351	33.11	0
3	19411	33.21	0
3	19471	33.31	0
3	19531	33.41	0
3	19591	33.51	0
3	19651	33.61	0
3	19711	33.71	0
3	19771	33.81	0
3	19831	33.91	0
3	19894	34.01	0
3	19954	34.11	0
3	20014	34.21	0
3	20074	34.31	0
3	20134	34.41	0
3	20194	34.51	0
3	20254	34.61	0
3	20314	34.71	0
3	20374	34.81	0
3	20434	34.91	0
3	20497	35.01	0
3	20557	35.11	0
3	20617	35.21	0
3	20677	35.31	0
3	20737	35.41	0
3	20797	35.51	0
3	20857	35.61	0
3	20917	35.71	0
3	20977	35.81	0
3	21037	35.91	0
3	21100	36.01	0
3	21160	36.11	0
3	21220	36.21	0
3	21280	36.31	0
3	21340	36.41	0
3	21400	36.51	0
3	21460	36.61	0
3	21520	36.71	0
3	21580	36.81	0
3	21640	36.91	0
3	21703	37.01	0
3	21763	37.11	0
3	21823	37.21	0
3	21883	37.31	0
3	21943	37.41	0
3	22003	37.51	0
3	22063	37.61	0
3	22123	37.71	0
3	22183	37.81	0
3	22243	37.91	0
3	22306	38.01	0
3	22366	38.11	0
3	22426	38.21	0
3	22486	38.31	0
3	22546	38.41	0
3	22606	38.51	0
3	22666	38.61	0
3	22726	38.71	0
3	22786	38.81	0
3	22846	38.91	0
3	22909	39.01	0
3	22969	39.11	0
3	23029	39.21	0
3	23089	39.31	0
3	23149	39.41	0
3	23209	39.51	0
3	23269	39.61	0
3	23329	39.71	0
3	23389	39.81	0
3	23449	39.91	0
3	23512	40.01	0
3	23572	40.11	0
3	23632	40.21	0
3	23692	40.31	0
3	23752	40.41	0
3	23812	40.51	0
3	23872	40.61	0
3	23932	40.71	0
3	23992	40.81	0
3	24052	40.91	0
3	24115	41.01	0
3	24175	41.11	0
3	24235	41.21	0
3	24295	41.31	0
3	24355	41.41	0
3	24415	41.51	0
3	24475	41.61	0
3	24535	41.71	0
3	24595	41.81	0
3	24655	41.91	0
3	24718	42.01	0
3	24778	42.11	0
3	24838	42.21	0
3	24898	42.31	0
3	24958	42.41	0
3	25018	42.51	0
3	25078	42.61	0
3	25138	42.71	0
3	25198	42.81	0
3	25258	42.91	0
3	25321	43.01	0
3	25381	43.11	0
3	25441	43.21	0
3	25501	43.31	0
3	25561	43.41	0
3	25621	43.51	0
3	25681	43.61	0
3	25741	43.71	0
3	25801	43.81	0
3	25861	43.91	0
3	25924	44.01	0
3	25984	44.11	0
3	26044	44.21	0
3	26104	44.31	0
3	26164	44.41	0
3	26224	44.51	0
3	26284	44.61	0
3	26344	44.71	0
3	26404	44.81	0
3	26464	44.91	0
3	26527	45.01	0
3	26587	45.11	0
3	26647	45.21	0
3	26707	45.31	0
3	26767	45.41	0
3	26827	45.51	0
3	26887	45.61	0
3	26947	45.71	0
3	27073	45.81	0
3	27132	45.91	0
3	27194	46.01	0
3	27253	46.11	0
3	27312	46.21	0
3	27371	46.31	0
3	27430	46.41	0
3	27489	46.51	0
3	27548	46.61	0
3	27607	46.71	0
3	27666	46.81	0
3	27725	46.91	0
3	27787	47.01	0
3	27846	47.11	0
3	27905	47.21	0
3	27964	47.31	0
3	28023	47.41	0
3	28082	47.51	0
3	28141	47.61	0
3	28200	47.71	0
3	28259	47.81	0
3	28318	47.91	0
3	28380	48.01	0
3	28439	48.11	0
3	28498	48.21	0
3	28557	48.31	0
3	28616	48.41	0
3	28675	48.51	0
3	28734	48.61	0
3	28793	48.71	0
3	28852	48.81	0
3	28911	48.91	0
3	28973	49.01	0
3	29032	49.11	0
3	29091	49.21	0
3	29150	49.31	0
3	29209	49.41	0
3	29268	49.51	0
3	29327	49.61	0
3	29386	49.71	0
3	29445	49.81	0
3	29504	49.91	0
3	29566	50.01	0
3	29625	50.11	0
3	29684	50.21	0
3	29743	50.31	0
3	29802	50.41	0
3	29861	50.51	0
3	29920	50.61	0
3	29979	50.71	0
3	30038	50.81	0
3	30097	50.91	0
3	30159	51.01	0
3	30218	51.11	0
3	30277	51.21	0
3	30336	51.31	0
3	30395	51.41	0
3	30454	51.51	0
3	30513	51.61	0
3	30572	51.71	0
3	30631	51.81	0
3	30690	51.91	0
3	30752	52.01	0
3	30811	52.11	0
3	30870	52.21	0
3	30929	52.31	0
3	30988	52.41	0
3	31047	52.51	0
3	31106	52.61	0
3	31165	52.71	0
3	31224	52.81	0
3	31283	52.91	0
3	31345	53.01	0
3	31404	53.11	0
3	31463	53.21	0
3	31522	53.31	0
3	31581	53.41	0
3	31640	53.51	0
3	31699	53.61	0
3	31758	53.71	0
3	31817	53.81	0
3	31876	53.91	0
3	31938	54.01	0
3	31997	54.11	0
3	32056	54.21	0
3	32115	54.31	0
3	32174	54.41	0
3	32233	54.51	0
3	32292	54.61	0
3	32351	54.71	0
3	32410	54.81	0
3	32469	54.91	0
3	32531	55.01	0
3	32590	55.11	0
3	32649	55.21	0
3	32708	55.31	0
3	32767	55.41	0
3	32826	55.51	0
3	32885	55.61	0
3	32944	55.71	0
3	33003	55.81	0
3	33062	55.91	0
3	33124	56.01	0
3	33183	56.11	0
3	33242	56.21	0
3	33301	56.31	0
3	33360	56.41	0
3	33419	56.51	0
3	33478	56.61	0
3	33537	56.71	0
3	33596	56.81	0
3	33655	56.91	0
3	33717	57.01	0
3	33776	57.11	0
3	33835	57.21	0
3	33894	57.31	0
3	33953	57.41	0
3	34012	57.51	0
3	34071	57.61	0
3	34130	57.71	0
3	34189	57.81	0
3	34248	57.91	0
3	34310	58.01	0
3	34369	58.11	0
3	34428	58.21	0
3	34487	58.31	0
3	34546	58.41	0
3	34605	58.51	0
3	34664	58.61	0
3	34723	58.71	0
3	34782	58.81	0
3	34841	58.91	0
3	34903	59.01	0
3	34962	59.11	0
3	35021	59.21	0
3	35080	59.31	0
3	35139	59.41	0
3	35198	59.51	0
3	35257	59.61	0
3	35316	59.71	0
3	35375	59.81	0
3	35434	59.91	0
3	35496	60.01	0
3	35555	60.11	0
3	35614	60.21	0
3	35673	60.31	0
3	35732	60.41	0
3	35791	60.51	0
3	35850	60.61	0
3	35909	60.71	0
3	35968	60.81	0
3	36027	60.91	0
3	36089	61.01	0
3	36148	61.11	0
3	36207	61.21	0
3	36266	61.31	0
3	36325	61.41	0
3	36384	61.51	0
3	36443	61.61	0
3	36502	61.71	0
3	36561	61.81	0
3	36620	61.91	0
3	36682	62.01	0
3	36741	62.11	0
3	36800	62.21	0
3	36859	62.31	0
3	36918	62.41	0
3	36977	62.51	0
3	37036	62.61	0
3	37095	62.71	0
3	37154	62.81	0
3	37213	62.91	0
3	37275	63.01	0
3	37334	63.11	0
3	37393	63.21	0
3	37452	63.31	0
3	37511	63.41	0
3	37570	63.51	0
3	37629	63.61	0
3	37688	63.71	0
3	37747	63.81	0
3	37806	63.91	0
3	37868	64.01	0
3	37927	64.11	0
3	37986	64.21	0
3	38045	64.31	0
3	38104	64.41	0
3	38163	64.51	0
3	38222	64.61	0
3	38281	64.71	0
3	38340	64.81	0
3	38399	64.91	0
3	38461	65.01	0
3	38520	65.11	0
3	38579	65.21	0
3	38638	65.31	0
3	38697	65.41	0
3	38756	65.51	0
3	38815	65.61	0
3	38874	65.71	0
3	38933	65.81	0
3	38992	65.91	0
3	39054	66.01	0
3	39113	66.11	0
3	39172	66.21	0
3	39231	66.31	0
3	39290	66.41	0
3	39349	66.51	0
3	39408	66.61	0
3	39467	66.71	0
3	39526	66.81	0
3	39585	66.91	0
3	39647	67.01	0
3	39706	67.11	0
3	39765	67.21	0
3	39824	67.31	0
3	39883	67.41	0
3	39942	67.51	0
3	40001	67.61	0
3	40060	67.71	0
3	40119	67.81	0
3	40178	67.91	0
3	40240	68.01	0
3	40299	68.11	0
3	40358	68.21	0
3	40417	68.31	0
3	40476	68.41	0
3	40535	68.51	0
3	40594	68.61	0
3	40653	68.71	0
3	40712	68.81	0
3	40771	68.91	0
3	40833	69.01	0
3	40892	69.11	0
3	40951	69.21	0
3	41010	69.31	0
3	41069	69.41	0
3	41128	69.51	0
3	41187	69.61	0
3	41246	69.71	0
3	41305	69.81	0
3	41364	69.91	0
3	41426	70.01	0
3	41485	70.11	0
3	41544	70.21	0
3	41603	70.31	0
3	41662	70.41	0
3	41721	70.51	0
3	41780	70.61	0
3	41839	70.71	0
3	41898	70.81	0
3	41957	70.91	0
3	42019	71.01	0
3	42078	71.11	0
3	42137	71.21	0
3	42196	71.31	0
3	42255	71.41	0
3	42314	71.51	0
3	42373	71.61	0
3	42432	71.71	0
3	42491	71.81	0
3	42550	71.91	0
3	42612	72.01	0
3	42671	72.11	0
3	42730	72.21	0
3	42789	72.31	0
3	42848	72.41	0
3	42907	72.51	0
3	42966	72.61	0
3	43025	72.71	0
3	43084	72.81	0
3	43143	72.91	0
3	43205	73.01	0
3	43264	73.11	0
3	43323	73.21	0
3	43382	73.31	0
3	43441	73.41	0
3	43500	73.51	0
3	43559	73.61	0
3	43618	73.71	0
3	43677	73.81	0
3	43736	73.91	0
3	43798	74.01	0
3	43857	74.11	0
3	43916	74.21	0
3	43975	74.31	0
3	44034	74.41	0
3	44093	74.51	0
3	44152	74.61	0
3	44211	74.71	0
3	44270	74.81	0
3	44329	74.91	0
3	44391	75.01	0
3	44450	75.11	0
3	44509	75.21	0
3	44568	75.31	0
3	44627	75.41	0
3	44686	75.51	0
3	44745	75.61	0
3	44804	75.71	0
3	44863	75.81	0
3	44922	75.91	0
3	44984	76.01	0
3	45043	76.11	0
3	45102	76.21	0
3	45161	76.31	0
3	45220	76.41	0
3	45279	76.51	0
3	45338	76.61	0
3	45397	76.71	0
3	45456	76.81	0
3	45515	76.91	0
3	45577	77.01	0
3	45636	77.11	0
3	45695	77.21	0
3	45754	77.31	0
3	45813	77.41	0
3	45872	77.51	0
3	45931	77.61	0
3	45990	77.71	0
3	46049	77.81	0
3	46108	77.91	0
3	46170	78.01	0
3	46229	78.11	0
3	46288	78.21	0
3	46347	78.31	0
3	46406	78.41	0
3	46465	78.51	0
3	46524	78.61	0
3	46583	78.71	0
3	46642	78.81	0
3	46701	78.91	0
3	46763	79.01	0
3	46822	79.11	0
3	46881	79.21	0
3	46940	79.31	0
3	46999	79.41	0
3	47058	79.51	0
3	47117	79.61	0
3	47176	79.71	0
3	47235	79.81	0
3	47294	79.91	0
3	47356	80.01	0
3	47415	80.11	0
3	47474	80.21	0
3	47533	80.31	0
3	47592	80.41	0
3	47651	80.51	0
3	47710	80.61	0
3	47769	80.71	0
3	47828	80.81	0
3	47887	80.91	0
3	47949	81.01	0
3	48008	81.11	0
3	48067	81.21	0
3	48126	81.31	0
3	48185	81.41	0
3	48244	81.51	0
3	48303	81.61	0
3	48362	81.71	0
3	48421	81.81	0
3	48480	81.91	0
3	48542	82.01	0
3	48601	82.11	0
3	48660	82.21	0
3	48719	82.31	0
3	48778	82.41	0
3	48837	82.51	0
3	48896	82.61	0
3	48955	82.71	0
3	49014	82.81	0
3	49073	82.91	0
3	49135	83.01	0
3	49194	83.11	0
3	49253	83.21	0
3	49312	83.31	0
3	49371	83.41	0
3	49430	83.51	0
3	49489	83.61	0
3	49548	83.71	0
3	49607	83.81	0
3	49666	83.91	0
3	49728	84.01	0
3	49787	84.11	0
3	49846	84.21	0
3	49905	84.31	0
3	49964	84.41	0
3	50023	84.51	0
3	50082	84.61	0
3	50141	84.71	0
3	50200	84.81	0
3	50259	84.91	0
3	50321	85.01	0
3	50380	85.11	0
3	50439	85.21	0
3	50498	85.31	0
3	50557	85.41	0
3	50616	85.51	0
3	50675	85.61	0
3	50734	85.71	0
3	50793	85.81	0
3	50852	85.91	0
3	50914	86.01	0
3	50973	86.11	0
3	51032	86.21	0
3	51091	86.31	0
3	51150	86.41	0
3	51209	86.51	0
3	51268	86.61	0
3	51327	86.71	0
3	51386	86.81	0
3	51445	86.91	0
3	51507	87.01	0
3	51566	87.11	0
3	51625	87.21	0
3	51684	87.31	0
3	51743	87.41	0
3	51802	87.51	0
3	51861	87.61	0
3	51920	87.71	0
3	51979	87.81	0
3	52038	87.91	0
3	52100	88.01	0
3	52159	88.11	0
3	52218	88.21	0
3	52277	88.31	0
3	52336	88.41	0
3	52395	88.51	0
3	52454	88.61	0
3	52513	88.71	0
3	52572	88.81	0
3	52631	88.91	0
3	52693	89.01	0
3	52752	89.11	0
3	52811	89.21	0
3	52870	89.31	0
3	52929	89.41	0
3	52988	89.51	0
3	53047	89.61	0
3	53106	89.71	0
3	53165	89.81	0
3	53224	89.91	0
3	53286	90.01	0
3	53345	90.11	0
3	53404	90.21	0
3	53463	90.31	0
3	53522	90.41	0
3	53581	90.51	0
3	53640	90.61	0
3	53699	90.71	0
3	53758	90.81	0
3	53817	90.91	0
3	53879	91.01	0
3	53938	91.11	0
3	53997	91.21	0
3	54056	91.31	0
3	54115	91.41	0
3	54174	91.51	0
3	54233	91.61	0
3	54292	91.71	0
3	54351	91.81	0
3	54410	91.91	0
3	54472	92.01	0
3	54531	92.11	0
3	54590	92.21	0
3	54649	92.31	0
3	54708	92.41	0
3	54767	92.51	0
3	54826	92.61	0
3	54885	92.71	0
3	54944	92.81	0
3	55003	92.91	0
3	55065	93.01	0
3	55124	93.11	0
3	55183	93.21	0
3	55242	93.31	0
3	55301	93.41	0
3	55360	93.51	0
3	55419	93.61	0
3	55478	93.71	0
3	55537	93.81	0
3	55596	93.91	0
3	55658	94.01	0
3	55717	94.11	0
3	55776	94.21	0
3	55835	94.31	0
3	55894	94.41	0
3	55953	94.51	0
3	56012	94.61	0
3	56071	94.71	0
3	56130	94.81	0
3	56189	94.91	0
3	56251	95.01	0
3	56310	95.11	0
3	56369	95.21	0
3	56428	95.31	0
3	56487	95.41	0
3	56546	95.51	0
3	56605	95.61	0
3	56664	95.71	0
3	56723	95.81	0
3	56782	95.91	0
3	56844	96.01	0
3	56903	96.11	0
3	56962	96.21	0
3	57021	96.31	0
3	57080	96.41	0
3	57139	96.51	0
3	57198	96.61	0
3	57257	96.71	0
3	57316	96.81	0
3	57375	96.91	0
3	57437	97.01	0
3	57496	97.11	0
3	57555	97.21	0
3	57614	97.31	0
3	57673	97.41	0
3	57732	97.51	0
3	57791	97.61	0
3	57850	97.71	0
3	57909	97.81	0
3	57968	97.91	0
3	58030	98.01	0
3	58089	98.11	0
3	58148	98.21	0
3	58207	98.31	0
3	58266	98.41	0
3	58325	98.51	0
3	58384	98.61	0
3	58443	98.71	0
3	58502	98.81	0
3	58561	98.91	0
3	58623	99.01	0
3	58682	99.11	0
3	58741	99.21	0
3	58800	99.31	0
3	58859	99.41	0
3	58918	99.51	0
3	58977	99.61	0
3	59036	99.71	0
3	59095	99.81	0
3	59154	99.91	0
4	113	1.11	0.00109259
4	172	1.21	0.00106709
4	231	1.31	0.00102704
4	290	1.41	0.000975759
4	349	1.51	0.00091619
4	408	1.61	0.000850891
4	467	1.71	0.000782061
4	526	1.81	0.00071157
4	585	1.91	0.00064098
4	647	2.01	0.000571575
4	706	2.11	0.000504387
4	765	2.21	0.000440223
4	824	2.31	0.000379691
4	883	2.41	0.000323223
4	942	2.51	0.000271102
4	1001	2.61	0.000223482
4	1060	2.71	0.000180409
4	1119	2.81	0.000141839
4	1178	2.91	0.000107653
4	1240	3.01	7.76787e-05
4	1299	3.11	5.16957e-05
4	1358	3.21	2.94534e-05
4	1417	3.31	1.06787e-05
4	1476	3.41	-4.91459e-06
4	1535	3.51	-1.76184e-05
4	1594	3.61	-2.7724e-05
4	1653	3.71	-3.55168e-05
4	1712	3.81	-4.12726e-05
4	1771	3.91	-4.52541e-05
4	1833	4.01	-4.77086e-05
4	1892	4.11	-4.88665e-05
4	1951	4.21	-4.89399e-05
4	2010	4.31	-4.81224e-05
4	2069	4.41	-4.65886e-05
4	2128	4.51	-4.44947e-05
4	2187	4.61	-4.1979e-05
4	2246	4.71	-3.91623e-05
4	2305	4.81	-3.61492e-05
4	2364	4.91	-3.3029e-05
4	2426	5.01	-2.9877e-05
4	2485	5.11	-2.67554e-05
4	2544	5.21	-2.37147e-05
4	2603	5.31	-2.07949e-05
4	2662	5.41	-1.80267e-05
4	2721	5.51	-1.54325e-05
4	2780	5.61	-1.30275e-05
4	2839	5.71	-1.0821e-05
4	2898	5.81	-8.81673e-06
4	2957	5.91	-7.01443e-06
4	3019	6.01	-5.4101e-06
4	3078	6.11	-3.99696e-06
4	3137	6.21	-2.766e-06
4	3196	6.31	-1.70658e-06
4	3255	6.41	-8.06872e-07
4	3314	6.51	-5.43281e-08
4	3373	6.61	5.63994e-07
4	3432	6.71	1.06112e-06
4	3491	6.81	1.4499e-06
4	3550	6.91	1.74283e-06
4	3612	7.01	1.95188e-06
4	3671	7.11	2.08836e-06
4	3730	7.21	2.16287e-06
4	3789	7.31	2.1852e-06
4	3848	7.41	2.16432e-06
4	3907	7.51	2.10838e-06
4	3966	7.61	2.02467e-06
4	4025	7.71	1.91968e-06
4	4084	7.81	1.79913e-06
4	4143	7.91	1.66796e-06
4	4205	8.01	1.53044e-06
4	4264	8.11	1.39018e-06
4	4323	8.21	1.25018e-06
4	4382	8.31	1.11291e-06
4	4441	8.41	9.80339e-07
4	4500	8.51	8.54002e-07
4	4559	8.61	7.35044e-07
4	4618	8.71	6.24274e-07
4	4677	8.81	5.22206e-07
4	4736	8.91	4.2911e-07
4	4798	9.01	3.45041e-07
4	4857	9.11	2.69888e-07
4	4916	9.21	2.03394e-07
4	4975	9.31	1.45199e-07
4	5034	9.41	9.48539e-08
4	5093	9.51	5.18526e-08
4	5152	9.61	1.56462e-08
4	5211	9.71	-1.43366e-08
4	5270	9.81	-3.86756e-08
4	5329	9.91	-5.79483e-08
4	5422	10.01	-7.27191e-08
4	5482	10.11	-8.35328e-08
4	5542	10.21	-9.09047e-08
4	5602	10.31	-9.53222e-08
4	5662	10.41	-9.72364e-08
4	5722	10.51	-9.7063e-08
4	5782	10.61	-9.51793e-08
4	5842	10.71	-9.19272e-08
4	5902	10.81	-8.76099e-08
4	5962	10.91	-8.24976e-08
4	6025	11.01	-7.68239e-08
4	6085	11.11	-7.07914e-08
4	6145	11.21	-6.45734e-08
4	6205	11.31	-5.83135e-08
4	6265	11.41	-5.21325e-08
4	6325	11.51	-4.6127e-08
4	6385	11.61	-4.0373e-08
4	6445	11.71	-3.49289e-08
4	6505	11.81	-2.98357e-08
4	6565	11.91	-2.51227e-08
4	6628	12.01	-2.08054e-08
4	6688	12.11	-1.6891e-08
4	6748	12.21	-1.33767e-08
4	6808	12.31	-1.02538e-08
4	6868	12.41	-7.50759e-09
4	6928	12.51	-5.12017e-09
4	6988	12.61	-3.07026e-09
4	7048	12.71	-1.33298e-09
4	7108	12.81	1.15818e-10
4	7168	12.91	1.30242e-09
4	7231	13.01	2.25242e-09
4	7291	13.11	2.99138e-09
4	7351	13.21	3.54419e-09
4	7411	13.31	3.93356e-09
4	7471	13.41	4.18297e-09
4	7531	13.51	4.31157e-09
4	7591	13.61	4.34071e-09
4	7651	13.71	4.28599e-09
4	7711	13.81	4.16449e-09
4	7771	13.91	3.99041e-09
4	7834	14.01	3.77582e-09
4	7894	14.11	3.53211e-09
4	7954	14.21	3.2685e-09
4	8014	14.31	2.99423e-09
4	8074	14.41	2.71498e-09
4	8134	14.51	2.43716e-09
4	8194	14.61	2.16573e-09
4	8254	14.71	1.90425e-09
4	8314	14.81	1.65556e-09
4	8374	14.91	1.4218e-09
4	8437	15.01	1.20437e-09
4	8497	15.11	1.00471e-09
4	8557	15.21	8.22808e-10
4	8617	15.31	6.57963e-10
4	8677	15.41	5.11591e-10
4	8737	15.51	3.82272e-10
4	8797	15.61	2.69296e-10
4	8857	15.71	1.71951e-10
4	8917	15.81	8.88178e-11
4	8977	15.91	1.84741e-11
4	9040	16.01	-3.90799e-11
4	9100	16.11	-8.52651e-11
4	9160	16.21	-1.22213e-10
4	9220	16.31	-1.49925e-10
4	9280	16.41	-1.7053e-10
4	9340	16.51	-1.84031e-10
4	9400	16.61	-1.91847e-10
4	9460	16.71	-1.94689e-10
4	9520	16.81	-1.93268e-10
4	9580	16.91	-1.89004e-10
4	9643	17.01	-1.81899e-10
4	9703	17.11	-1.73372e-10
4	9763	17.21	-1.62714e-10
4	9823	17.31	-1.51346e-10
4	9883	17.41	-1.39266e-10
4	9943	17.51	-1.26477e-10
4	10003	17.61	-1.14397e-10
4	10063	17.71	-1.02318e-10
4	10123	17.81	-9.02389e-11
4	10183	17.91	-7.88702e-11
4	10246	18.01	-6.89226e-11
4	10306	18.11	-5.8975e-11
4	10366	18.21	-4.9738e-11
4	10426	18.31	-4.1922e-11
4	10486	18.41	-3.41061e-11
4	10546	18.51	-2.70006e-11
4	10606	18.61	-2.13163e-11
4	10666	18.71	-1.56319e-11
4	10726	18.81	-1.06581e-11
4	10786	18.91	-7.10543e-12
4	10849	19.01	-3.55271e-12
4	10909	19.11	-7.10543e-13
4	10969	19.21	7.10543e-13
4	11029	19.31	2.84217e-12
4	11089	19.41	4.26326e-12
4	11149	19.51	4.9738e-12
4	11209	19.61	6.39488e-12
4	11269	19.71	7.81597e-12
4	11329	19.81	8.52651e-12
4	11389	19.91	9.23706e-12
4	11452	20.01	9.9476e-12
4	11512	20.11	1.06581e-11
4	11572	20.21	1.13687e-11
4	11632	20.31	1.20792e-11
4	11692	20.41	1.27898e-11
4	11752	20.51	1.35003e-11
4	11812	20.61	1.35003e-11
4	11872	20.71	1.42109e-11
4	11932	20.81	1.42109e-11
4	11992	20.91	1.49214e-11
4	12055	21.01	1.49214e-11
4	12115	21.11	1.49214e-11
4	12175	21.21	1.56319e-11
4	12235	21.31	1.56319e-11
4	12295	21.41	1.56319e-11
4	12355	21.51	1.63425e-11
4	12415	21.61	1.63425e-11
4	12475	21.71	1.63425e-11
4	12535	21.81	1.63425e-11
4	12595	21.91	1.63425e-11
4	12658	22.01	1.7053e-11
4	12718	22.11	1.7053e-11
4	12778	22.21	1.7053e-11
4	12838	22.31	1.7053e-11
4	12898	22.41	1.7053e-11
4	12958	22.51	1.7053e-11
4	13018	22.61	1.7053e-11
4	13078	22.71	1.7053e-11
4	13138	22.81	1.7053e-11
4	13198	22.91	1.7053e-11
4	13261	23.01	1.77636e-11
4	13321	23.11	1.77636e-11
4	13381	23.21	1.77636e-11
4	13441	23.31	1.77636e-11
4	13501	23.41	1.77636e-11
4	13561	23.51	1.77636e-11
4	13621	23.61	1.77636e-11
4	13681	23.71	1.77636e-11
4	13741	23.81	1.77636e-11
4	13801	23.91	1.77636e-11
4	13864	24.01	1.77636e-11
4	13924	24.11	1.77636e-11
4	13984	24.21	1.77636e-11
4	14044	24.31	1.77636e-11
4	14104	24.41	1.77636e-11
4	14164	24.51	1.77636e-11
4	14224	24.61	1.77636e-11
4	14284	24.71	1.77636e-11
4	14344	24.81	1.77636e-11
4	14404	24.91	1.77636e-11
4	14467	25.01	1.77636e-11
4	14527	25.11	1.77636e-11
4	14587	25.21	1.77636e-11
4	14647	25.31	1.77636e-11
4	14707	25.41	1.77636e-11
4	14767	25.51	1.77636e-11
4	14827	25.61	1.77636e-11
4	14887	25.71	1.77636e-11
4	14947	25.81	1.77636e-11
4	15007	25.91	1.77636e-11
4	15070	26.01	1.77636e-11
4	15130	26.11	1.77636e-11
4	15190	26.21	1.77636e-11
4	15250	26.31	1.77636e-11
4	15310	26.41	1.77636e-11
4	15370	26.51	1.77636e-11
4	15430	26.61	1.77636e-11
4	15490	26.71	1.77636e-11
4	15550	26.81	1.77636e-11
4	15610	26.91	1.77636e-11
4	15673	27.01	1.77636e-11
4	15733	27.11	1.77636e-11
4	15793	27.21	1.77636e-11
4	15853	27.31	1.77636e-11
4	15913	27.41	1.77636e-11
4	15973	27.51	1.77636e-11
4	16033	27.61	1.77636e-11
4	16093	27.71	1.77636e-11
4	16153	27.81	1.77636e-11
4	16213	27.91	1.77636e-11
4	16276	28.01	1.77636e-11
4	16336	28.11	1.77636e-11
4	16396	28.21	1.77636e-11
4	16456	28.31	1.77636e-11
[...]
27	46106	77.908760524299	1
27	46168	78.008758287568	1
27	46227	78.108756052912	1
27	46286	78.208753820332	1
27	46345	78.308751589828	1
27	46404	78.408749361399	1
27	46463	78.508760135045	1
27	46522	78.608757910767	1
27	46581	78.708755688565	1
27	46640	78.808753468438	1
27	46699	78.908751250386	1
27	46761	79.00874903441	1
27	46820	79.10875982051	1
27	46879	79.208757608685	1
27	46938	79.308755398935	1
27	46997	79.408753191261	1
27	47056	79.508750985663	1
27	47115	79.60874878214	1
27	47174	79.708759580692	1
27	47233	79.80875738132	1
27	47292	79.908755184024	1
27	47354	80.008752988803	1
27	47413	80.108750795657	1
27	47472	80.208748604587	1
27	47531	80.308759415593	1
27	47590	80.408757228674	1
27	47649	80.50875504383	1
27	47708	80.608752861062	1
27	47767	80.70875068037	1
27	47826	80.808748501753	1
27	47885	80.908759325211	1
27	47947	81.008757150745	1
27	48006	81.108754978355	1
27	48065	81.20875280804	1
27	48124	81.3087506398	1
27	48183	81.408748473636	1
27	48242	81.508759309548	1
27	48301	81.608757147535	1
27	48360	81.708754987597	1
27	48419	81.808752829735	1
27	48478	81.908750673949	1
27	48540	82.008748520238	1
27	48599	82.108759368602	1
27	48658	82.208757219042	1
27	48717	82.308755071558	1
27	48776	82.408752926149	1
27	48835	82.508750782815	1
27	48894	82.608748641557	1
27	48953	82.708759502375	1
27	49012	82.808757365268	1
27	49071	82.908755230236	1
27	49133	83.00875309728	1
27	49192	83.1087509664	1
27	49251	83.208748837595	1
27	49310	83.308759710865	1
27	49369	83.408757586211	1
27	49428	83.508755463633	1
27	49487	83.60875334313	1
27	49546	83.708751224702	1
27	49605	83.80874910835	1
27	49664	83.908759994074	1
27	49726	84.008757881873	1
27	49785	84.108755771747	1
27	49844	84.208753663697	1
27	49903	84.308751557723	1
27	49962	84.408749453824	1
27	50021	84.508760352	1
27	50080	84.608758252252	1
27	50139	84.70875615458	1
27	50198	84.808754058983	1
27	50257	84.908751965461	1
27	50319	85.008749874015	1
27	50378	85.108760784645	1
27	50437	85.20875869735	1
27	50496	85.30875661213	1
27	50555	85.408754528986	1
27	50614	85.508752447918	1
27	50673	85.608750368925	1
27	50732	85.708761292007	1
27	50791	85.808759217165	1
27	50850	85.908757144399	1
27	50912	86.008755073708	1
27	50971	86.108753005092	1
27	51030	86.208750938552	1
27	51089	86.308748874088	1
27	51148	86.408759811699	1
27	51207	86.508757751385	1
27	51266	86.608755693147	1
27	51325	86.708753636985	1
27	51384	86.808751582898	1
27	51443	86.908749530886	1
27	51505	87.00876048095	1
27	51564	87.10875843309	1
27	51623	87.208756387305	1
27	51682	87.308754343595	1
27	51741	87.408752301961	1
27	51800	87.508750262403	1
27	51859	87.60876122492	1
27	51918	87.708759189512	1
27	51977	87.80875715618	1
27	52036	87.908755124924	1
27	52098	88.008753095744	1
27	52157	88.108751068638	1
27	52216	88.208749043608	1
27	52275	88.308760020654	1
27	52334	88.408757999776	1
27	52393	88.508755980972	1
27	52452	88.608753964244	1
27	52511	88.708751949592	1
27	52570	88.808749937016	1
27	52629	88.908760926514	1
27	52691	89.008758918088	1
27	52750	89.108756911738	1
27	52809	89.208754907464	1
27	52868	89.308752905264	1
27	52927	89.40875090514	1
27	52986	89.508748907092	1
27	53045	89.60875991112	1
27	53104	89.708757917222	1
27	53163	89.8087559254	1
27	53222	89.908753935654	1
27	53284	90.008751947984	1
27	53343	90.108749962388	1
27	53402	90.208760978868	1
27	53461	90.308758997424	1
27	53520	90.408757018056	1
27	53579	90.508755040762	1
27	53638	90.608753065544	1
27	53697	90.708751092402	1
27	53756	90.808749121336	1
27	53815	90.908760152344	1
27	53877	91.008758185428	1
27	53936	91.108756220588	1
27	53995	91.208754257824	1
27	54054	91.308752297134	1
27	54113	91.40875033852	1
27	54172	91.508761381982	1
27	54231	91.60875942752	1
27	54290	91.708757475132	1
27	54349	91.80875552482	1
27	54408	91.908753576584	1
27	54470	92.008751630424	1
27	54529	92.108749686339	1
27	54588	92.208760744329	1
27	54647	92.308758804395	1
27	54706	92.408756866537	1
27	54765	92.508754930754	1
27	54824	92.608752997046	1
27	54883	92.708751065414	1
27	54942	92.808749135858	1
27	55001	92.908760208377	1
27	55063	93.008758282971	1
27	55122	93.108756359641	1
27	55181	93.208754438387	1
27	55240	93.308752519208	1
27	55299	93.408750602104	1
27	55358	93.508748687076	1
27	55417	93.608759774124	1
27	55476	93.708757863247	1
27	55535	93.808755954445	1
27	55594	93.908754047719	1
27	55656	94.008752143069	1
27	55715	94.108750240494	1
27	55774	94.208761339994	1
27	55833	94.30875944157	1
27	55892	94.408757545222	1
27	55951	94.508755650949	1
27	56010	94.608753758751	1
27	56069	94.708751868629	1
27	56128	94.808749980583	1
27	56187	94.908761094612	1
27	56249	95.008759210716	1
27	56308	95.108757328896	1
27	56367	95.208755449152	1
27	56426	95.308753571483	1
27	56485	95.408751695889	1
27	56544	95.508749822371	1
27	56603	95.608760950929	1
27	56662	95.708759081562	1
27	56721	95.80875721427	1
27	56780	95.908755349054	1
27	56842	96.008753485914	1
27	56901	96.108751624849	1
27	56960	96.208749765859	1
27	57019	96.308760908945	1
27	57078	96.408759054107	1
27	57137	96.508757201344	1
27	57196	96.608755350656	1
27	57255	96.708753502044	1
27	57314	96.808751655508	1
27	57373	96.908749811047	1
27	57435	97.008760968661	1
27	57494	97.108759128351	1
27	57553	97.208757290117	1
27	57612	97.308755453958	1
27	57671	97.408753619874	1
27	57730	97.508751787866	1
27	57789	97.608749957934	1
27	57848	97.708761130077	1
27	57907	97.808759304295	1
27	57966	97.908757480589	1
27	58028	98.008755658959	1
27	58087	98.108753839404	1
27	58146	98.208752021924	1
27	58205	98.30875020652	1
27	58264	98.408761393192	1
27	58323	98.508759581939	1
27	58382	98.608757772761	1
27	58441	98.708755965659	1
27	58500	98.808754160633	1
27	58559	98.908752357682	1
27	58621	99.008750556806	1
27	58680	99.108748758006	1
27	58739	99.208759961282	1
27	58798	99.308758166633	1
27	58857	99.408756374059	1
27	58916	99.508754583561	1
27	58975	99.608752795139	1
27	59034	99.708751008792	1
27	59093	99.80874922452	1
27	59152	99.908760442324	1
28	625	2	0
28	1218	3	0
28	1811	4	0
28	2404	5	0
28	2997	6	0
28	3590	7	0
28	4183	8	0
28	4776	9	0
28	5371	10	0
28	6002	11	0
28	6605	12	0
28	7208	13	0
28	7811	14	0
28	8414	15	0
28	9017	16	0
28	9620	17	0
28	10223	18	0
28	10826	19	0
28	11429	20	0
28	12032	21	0
28	12635	22	0
28	13238	23	0
28	13841	24	0
28	14444	25	0
28	15047	26	0
28	15650	27	0
28	16253	28	0
28	16856	29	0
28	17459	30	0
28	18062	31	0
28	18665	32	0
28	19268	33	0
28	19871	34	0
28	20474	35	0
28	21077	36	0
28	21680	37	0
28	22283	38	0
28	22886	39	0
28	23489	40	0
28	24092	41	0
28	24695	42	0
28	25298	43	0
28	25901	44	0
28	26504	45	0
28	27172	46	0
28	27765	47	0
28	28358	48	0
28	28951	49	0
28	29544	50	0
28	30137	51	0
28	30730	52	0
28	31323	53	0
28	31916	54	0
28	32509	55	0
28	33102	56	0
28	33695	57	0
28	34288	58	0
28	34881	59	0
28	35474	60	0
28	36067	61	0
28	36660	62	0
28	37253	63	0
28	37846	64	0
28	38439	65	0
28	39032	66	0
28	39625	67	0
28	40218	68	0
28	40811	69	0
28	41404	70	0
28	41997	71	0
28	42590	72	0
28	43183	73	0
28	43776	74	0
28	44369	75	0
28	44962	76	0
28	45555	77	0
28	46148	78	0
28	46741	79	0
28	47334	80	0
28	47927	81	0
28	48520	82	0
28	49113	83	0
28	49706	84	0
28	50299	85	0
28	50892	86	0
28	51485	87	0
28	52078	88	0
28	52671	89	0
28	53264	90	0
28	53857	91	0
28	54450	92	0
28	55043	93	0
28	55636	94	0
28	56229	95	0
28	56822	96	0
28	57415	97	0
28	58008	98	0
28	58601	99	0
28	59194	100	0
29	625	2	0.005312
29	1218	3	0.00625
29	1811	4	0.00625
29	2404	5	0.00625
29	2997	6	0.00625
29	3590	7	0.00625
29	4183	8	0.00625
29	4776	9	0.00625
29	5371	10	0.00625
29	6002	11	0.006299
29	6605	12	0.00625
29	7208	13	0.00625
29	7811	14	0.00625
29	8414	15	0.00625
29	9017	16	0.00625
29	9620	17	0.00625
29	10223	18	0.00625
29	10826	19	0.00625
29	11429	20	0.00625
29	12032	21	0.00625
29	12635	22	0.00625
29	13238	23	0.00625
29	13841	24	0.00625
29	14444	25	0.00625
29	15047	26	0.00625
29	15650	27	0.00625
29	16253	28	0.00625
29	16856	29	0.00625
29	17459	30	0.00625
29	18062	31	0.00625
29	18665	32	0.00625
29	19268	33	0.00625
29	19871	34	0.00625
29	20474	35	0.00625
29	21077	36	0.00625
29	21680	37	0.00625
29	22283	38	0.00625
29	22886	39	0.00625
29	23489	40	0.00625
29	24092	41	0.00625
29	24695	42	0.00625
29	25298	43	0.00625
29	25901	44	0.00625
29	26504	45	0.00625
29	27172	46	0.00653912609
29	27765	47	0.00625
29	28358	48	0.00625
29	28951	49	0.00625
29	29544	50	0.00625
29	30137	51	0.00625
29	30730	52	0.00625
29	31323	53	0.00625
29	31916	54	0.00625
29	32509	55	0.00625
29	33102	56	0.00625
29	33695	57	0.00625
29	34288	58	0.00625
29	34881	59	0.00625
29	35474	60	0.00625
29	36067	61	0.00625
29	36660	62	0.00625
29	37253	63	0.00625
29	37846	64	0.00625
29	38439	65	0.00625
29	39032	66	0.00625
29	39625	67	0.00625
29	40218	68	0.00625
29	40811	69	0.00625
29	41404	70	0.00625
29	41997	71	0.00625
29	42590	72	0.00625
29	43183	73	0.00625
29	43776	74	0.00625
29	44369	75	0.00625
29	44962	76	0.00625
29	45555	77	0.00625
29	46148	78	0.00625
29	46741	79	0.00625
29	47334	80	0.00625
29	47927	81	0.00625
29	48520	82	0.00625
29	49113	83	0.00625
29	49706	84	0.00625
29	50299	85	0.00625
29	50892	86	0.00625
29	51485	87	0.00625
29	52078	88	0.00625
29	52671	89	0.00625
29	53264	90	0.00625
29	53857	91	0.00625
29	54450	92	0.00625
29	55043	93	0.00625
29	55636	94	0.00625
29	56229	95	0.00625
29	56822	96	0.00625
29	57415	97	0.00625
29	58008	98	0.00625
29	58601	99	0.00625
29	59194	100	0.00625
30	625	2	0
30	1218	3	0
30	1811	4	0
30	2404	5	0
30	2997	6	0
30	3590	7	0
30	4183	8	0
30	4776	9	0
30	5371	10	0
30	6002	11	0
30	6605	12	0
30	7208	13	0
30	7811	14	0
30	8414	15	0
30	9017	16	0
30	9620	17	0
30	10223	18	0
30	10826	19	0
30	11429	20	0
30	12032	21	0
30	12635	22	0
30	13238	23	0
30	13841	24	0
30	14444	25	0
30	15047	26	0
30	15650	27	0
30	16253	28	0
30	16856	29	0
30	17459	30	0
30	18062	31	0
30	18665	32	0
30	19268	33	0
30	19871	34	0
30	20474	35	0
30	21077	36	0
30	21680	37	0
30	22283	38	0
30	22886	39	0
30	23489	40	0
30	24092	41	0
30	24695	42	0
30	25298	43	0
30	25901	44	0
30	26504	45	0
30	27172	46	0
30	27765	47	0
30	28358	48	0
30	28951	49	0
30	29544	50	0
30	30137	51	0
30	30730	52	0
30	31323	53	0
30	31916	54	0
30	32509	55	0
30	33102	56	0
30	33695	57	0
30	34288	58	0
30	34881	59	0
30	35474	60	0
30	36067	61	0
30	36660	62	0
30	37253	63	0
30	37846	64	0
30	38439	65	0
30	39032	66	0
30	39625	67	0
30	40218	68	0
30	40811	69	0
30	41404	70	0
30	41997	71	0
30	42590	72	0
30	43183	73	0
30	43776	74	0
30	44369	75	0
30	44962	76	0
30	45555	77	0
30	46148	78	0
30	46741	79	0
30	47334	80	0
30	47927	81	0
30	48520	82	0
30	49113	83	0
30	49706	84	0
30	50299	85	0
30	50892	86	0
30	51485	87	0
30	52078	88	0
30	52671	89	0
30	53264	90	0
30	53857	91	0
30	54450	92	0
30	55043	93	0
30	55636	94	0
30	56229	95	0
30	56822	96	0
30	57415	97	0
30	58008	98	0
30	58601	99	0
30	59194	100	0
31	626	2	1
31	1219	3	1
31	1812	4	1
31	2405	5	1
31	2998	6	1
31	3591	7	1
31	4184	8	1
31	4777	9	1
31	5372	10	1
31	6003	11	1
31	6606	12	1
31	7209	13	1
31	7812	14	1
31	8415	15	1
31	9018	16	1
31	9621	17	1
31	10224	18	1
31	10827	19	1
31	11430	20	1
31	12033	21	1
31	12636	22	1
31	13239	23	1
31	13842	24	1
31	14445	25	1
31	15048	26	1
31	15651	27	1
31	16254	28	1
31	16857	29	1
31	17460	30	1
31	18063	31	1
31	18666	32	1
31	19269	33	1
31	19872	34	1
31	20475	35	1
31	21078	36	1
31	21681	37	1
31	22284	38	1
31	22887	39	1
31	23490	40	1
31	24093	41	1
31	24696	42	1
31	25299	43	1
31	25902	44	1
31	26505	45	1
31	27173	46	1
31	27766	47	1
31	28359	48	1
31	28952	49	1
31	29545	50	1
31	30138	51	1
31	30731	52	1
31	31324	53	1
31	31917	54	1
31	32510	55	1
31	33103	56	1
31	33696	57	1
31	34289	58	1
31	34882	59	1
31	35475	60	1
31	36068	61	1
31	36661	62	1
31	37254	63	1
31	37847	64	1
31	38440	65	1
31	39033	66	1
31	39626	67	1
31	40219	68	1
31	40812	69	1
31	41405	70	1
31	41998	71	1
31	42591	72	1
31	43184	73	1
31	43777	74	1
31	44370	75	1
31	44963	76	1
31	45556	77	1
31	46149	78	1
31	46742	79	1
31	47335	80	1
31	47928	81	1
31	48521	82	1
31	49114	83	1
31	49707	84	1
31	50300	85	1
31	50893	86	1
31	51486	87	1
31	52079	88	1
31	52672	89	1
31	53265	90	1
31	53858	91	1
31	54451	92	1
31	55044	93	1
31	55637	94	1
31	56230	95	1
31	56823	96	1
31	57416	97	1
31	58009	98	1
31	58602	99	1
31	59195	100	1
32	626	2	0.005313
32	1219	3	0.00625
32	1812	4	0.00625
32	2405	5	0.00625
32	2998	6	0.00625
32	3591	7	0.00625
32	4184	8	0.00625
32	4777	9	0.00625
32	5372	10	0.00625
32	6003	11	0.006298
32	6606	12	0.00625
32	7209	13	0.00625
32	7812	14	0.00625
32	8415	15	0.00625
32	9018	16	0.00625
32	9621	17	0.00625
32	10224	18	0.00625
32	10827	19	0.00625
32	11430	20	0.00625
32	12033	21	0.00625
32	12636	22	0.00625
32	13239	23	0.00625
32	13842	24	0.00625
32	14445	25	0.00625
32	15048	26	0.00625
32	15651	27	0.00625
32	16254	28	0.00625
32	16857	29	0.00625
32	17460	30	0.00625
32	18063	31	0.00625
32	18666	32	0.00625
32	19269	33	0.00625
32	19872	34	0.00625
32	20475	35	0.00625
32	21078	36	0.00625
32	21681	37	0.00625
32	22284	38	0.00625
32	22887	39	0.00625
32	23490	40	0.00625
32	24093	41	0.00625
32	24696	42	0.00625
32	25299	43	0.00625
32	25902	44	0.00625
32	26505	45	0.00625
32	27173	46	0.00653912609
32	27766	47	0.00625
32	28359	48	0.00625
32	28952	49	0.00625
32	29545	50	0.00625
32	30138	51	0.00625
32	30731	52	0.00625
32	31324	53	0.00625
32	31917	54	0.00625
32	32510	55	0.00625
32	33103	56	0.00625
32	33696	57	0.00625
32	34289	58	0.00625
32	34882	59	0.00625
32	35475	60	0.00625
32	36068	61	0.00625
32	36661	62	0.00625
32	37254	63	0.00625
32	37847	64	0.00625
32	38440	65	0.00625
32	39033	66	0.00625
32	39626	67	0.00625
32	40219	68	0.00625
32	40812	69	0.00625
32	41405	70	0.00625
32	41998	71	0.00625
32	42591	72	0.00625
32	43184	73	0.00625
32	43777	74	0.00625
32	44370	75	0.00625
32	44963	76	0.00625
32	45556	77	0.00625
32	46149	78	0.00625
32	46742	79	0.00625
32	47335	80	0.00625
32	47928	81	0.00625
32	48521	82	0.00625
32	49114	83	0.00625
32	49707	84	0.00625
32	50300	85	0.00625
32	50893	86	0.00625
32	51486	87	0.00625
32	52079	88	0.00625
32	52672	89	0.00625
32	53265	90	0.00625
32	53858	91	0.00625
32	54451	92	0.00625
32	55044	93	0.00625
32	55637	94	0.00625
32	56230	95	0.00625
32	56823	96	0.00625
32	57416	97	0.00625
32	58009	98	0.00625
32	58602	99	0.00625
32	59195	100	0.00625
33	626	2	0
33	1219	3	0
33	1812	4	0
33	2405	5	0
33	2998	6	0
33	3591	7	0
33	4184	8	0
33	4777	9	0
33	5372	10	0
33	6003	11	0
33	6606	12	0
33	7209	13	0
33	7812	14	0
33	8415	15	0
33	9018	16	0
33	9621	17	0
33	10224	18	0
33	10827	19	0
33	11430	20	0
33	12033	21	0
33	12636	22	0
33	13239	23	0
33	13842	24	0
33	14445	25	0
33	15048	26	0
33	15651	27	0
33	16254	28	0
33	16857	29	0
33	17460	30	0
33	18063	31	0
33	18666	32	0
33	19269	33	0
33	19872	34	0
33	20475	35	0
33	21078	36	0
33	21681	37	0
33	22284	38	0
33	22887	39	0
33	23490	40	0
33	24093	41	0
33	24696	42	0
33	25299	43	0
33	25902	44	0
33	26505	45	0
33	27173	46	0
33	27766	47	0
33	28359	48	0
33	28952	49	0
33	29545	50	0
33	30138	51	0
33	30731	52	0
33	31324	53	0
33	31917	54	0
33	32510	55	0
33	33103	56	0
33	33696	57	0
33	34289	58	0
33	34882	59	0
33	35475	60	0
33	36068	61	0
33	36661	62	0
33	37254	63	0
33	37847	64	0
33	38440	65	0
33	39033	66	0
33	39626	67	0
33	40219	68	0
33	40812	69	0
33	41405	70	0
33	41998	71	0
33	42591	72	0
33	43184	73	0
33	43777	74	0
33	44370	75	0
33	44963	76	0
33	45556	77	0
33	46149	78	0
33	46742	79	0
33	47335	80	0
33	47928	81	0
33	48521	82	0
33	49114	83	0
33	49707	84	0
33	50300	85	0
33	50893	86	0
33	51486	87	0
33	52079	88	0
33	52672	89	0
33	53265	90	0
33	53858	91	0
33	54451	92	0
33	55044	93	0
33	55637	94	0
33	56230	95	0
33	56823	96	0
33	57416	97	0
33	58009	98	0
33	58602	99	0
33	59195	100	0
34	627	2	2
34	1220	3	2
34	1813	4	2
34	2406	5	2
34	2999	6	2
34	3592	7	2
34	4185	8	2
34	4778	9	2
34	5373	10	2
34	6004	11	2
34	6607	12	2
34	7210	13	2
34	7813	14	2
34	8416	15	2
34	9019	16	2
34	9622	17	2
34	10225	18	2
34	10828	19	2
34	11431	20	2
34	12034	21	2
34	12637	22	2
34	13240	23	2
34	13843	24	2
34	14446	25	2
34	15049	26	2
34	15652	27	2
34	16255	28	2
34	16858	29	2
34	17461	30	2
34	18064	31	2
34	18667	32	2
34	19270	33	2
34	19873	34	2
34	20476	35	2
34	21079	36	2
34	21682	37	2
34	22285	38	2
34	22888	39	2
34	23491	40	2
34	24094	41	2
34	24697	42	2
34	25300	43	2
34	25903	44	2
34	26506	45	2
34	27174	46	2
34	27767	47	2
34	28360	48	2
34	28953	49	2
34	29546	50	2
34	30139	51	2
34	30732	52	2
34	31325	53	2
34	31918	54	2
34	32511	55	2
34	33104	56	2
34	33697	57	2
34	34290	58	2
34	34883	59	2
34	35476	60	2
34	36069	61	2
34	36662	62	2
34	37255	63	2
34	37848	64	2
34	38441	65	2
34	39034	66	2
34	39627	67	2
34	40220	68	2
34	40813	69	2
34	41406	70	2
34	41999	71	2
34	42592	72	2
34	43185	73	2
34	43778	74	2
34	44371	75	2
34	44964	76	2
34	45557	77	2
34	46150	78	2
34	46743	79	2
34	47336	80	2
34	47929	81	2
34	48522	82	2
34	49115	83	2
34	49708	84	2
34	50301	85	2
34	50894	86	2
34	51487	87	2
34	52080	88	2
34	52673	89	2
34	53266	90	2
34	53859	91	2
34	54452	92	2
34	55045	93	2
34	55638	94	2
34	56231	95	2
34	56824	96	2
34	57417	97	2
34	58010	98	2
34	58603	99	2
34	59196	100	2
35	627	2	0.002817
35	1220	3	0.00313
35	1813	4	0.00313
35	2406	5	0.00313
35	2999	6	0.00313
35	3592	7	0.00313
35	4185	8	0.00313
35	4778	9	0.00313
35	5373	10	0.00313
35	6004	11	0.003179
35	6607	12	0.00313
35	7210	13	0.00313
35	7813	14	0.00313
35	8416	15	0.00313
35	9019	16	0.00313
35	9622	17	0.00313
35	10225	18	0.00313
35	10828	19	0.00313
35	11431	20	0.00313
35	12034	21	0.00313
35	12637	22	0.00313
35	13240	23	0.00313
35	13843	24	0.00313
35	14446	25	0.00313
35	15049	26	0.00313
35	15652	27	0.00313
35	16255	28	0.00313
35	16858	29	0.00313
35	17461	30	0.00313
35	18064	31	0.00313
35	18667	32	0.00313
35	19270	33	0.00313
35	19873	34	0.00313
35	20476	35	0.00313
35	21079	36	0.00313
35	21682	37	0.00313
35	22285	38	0.00313
35	22888	39	0.00313
35	23491	40	0.00313
35	24094	41	0.00313
35	24697	42	0.00313
35	25300	43	0.00313
35	25903	44	0.00313
35	26506	45	0.00313
35	27174	46	0.00313
35	27767	47	0.00313
35	28360	48	0.00313
35	28953	49	0.00313
35	29546	50	0.00313
35	30139	51	0.00313
35	30732	52	0.00313
35	31325	53	0.00313
35	31918	54	0.00313
35	32511	55	0.00313
35	33104	56	0.00313
35	33697	57	0.00313
35	34290	58	0.00313
35	34883	59	0.00313
35	35476	60	0.00313
35	36069	61	0.00313
35	36662	62	0.00313
35	37255	63	0.00313
35	37848	64	0.00313
35	38441	65	0.00313
35	39034	66	0.00313
35	39627	67	0.00313
35	40220	68	0.00313
35	40813	69	0.00313
35	41406	70	0.00313
35	41999	71	0.00313
35	42592	72	0.00313
35	43185	73	0.00313
35	43778	74	0.00313
35	44371	75	0.00313
35	44964	76	0.00313
35	45557	77	0.00313
35	46150	78	0.00313
35	46743	79	0.00313
35	47336	80	0.00313
35	47929	81	0.00313
35	48522	82	0.00313
35	49115	83	0.00313
35	49708	84	0.00313
35	50301	85	0.00313
35	50894	86	0.00313
35	51487	87	0.00313
35	52080	88	0.00313
35	52673	89	0.00313
35	53266	90	0.00313
35	53859	91	0.00313
35	54452	92	0.00313
35	55045	93	0.00313
35	55638	94	0.00313
35	56231	95	0.00313
35	56824	96	0.00313
35	57417	97	0.00313
35	58010	98	0.00313
35	58603	99	0.00313
35	59196	100	0.00313
36	627	2	0
36	1220	3	0
36	1813	4	0
36	2406	5	0
36	2999	6	0
36	3592	7	0
36	4185	8	0
36	4778	9	0
36	5373	10	0
36	6004	11	0
36	6607	12	0
36	7210	13	0
36	7813	14	0
36	8416	15	0
36	9019	16	0
36	9622	17	0
36	10225	18	0
36	10828	19	0
36	11431	20	0
36	12034	21	0
36	12637	22	0
36	13240	23	0
36	13843	24	0
36	14446	25	0
36	15049	26	0
36	15652	27	0
36	16255	28	0
36	16858	29	0
36	17461	30	0
36	18064	31	0
36	18667	32	0
36	19270	33	0
36	19873	34	0
36	20476	35	0
36	21079	36	0
36	21682	37	0
36	22285	38	0
36	22888	39	0
36	23491	40	0
36	24094	41	0
36	24697	42	0
36	25300	43	0
36	25903	44	0
36	26506	45	0
36	27174	46	0
36	27767	47	0
36	28360	48	0
36	28953	49	0
36	29546	50	0
36	30139	51	0
36	30732	52	0
36	31325	53	0
36	31918	54	0
36	32511	55	0
36	33104	56	0
36	33697	57	0
36	34290	58	0
36	34883	59	0
36	35476	60	0
36	36069	61	0
36	36662	62	0
36	37255	63	0
36	37848	64	0
36	38441	65	0
36	39034	66	0
36	39627	67	0
36	40220	68	0
36	40813	69	0
36	41406	70	0
36	41999	71	0
36	42592	72	0
36	43185	73	0
36	43778	74	0
36	44371	75	0
36	44964	76	0
36	45557	77	0
36	46150	78	0
36	46743	79	0
36	47336	80	0
36	47929	81	0
36	48522	82	0
36	49115	83	0
36	49708	84	0
36	50301	85	0
36	50894	86	0
36	51487	87	0
36	52080	88	0
36	52673	89	0
36	53266	90	0
36	53859	91	0
36	54452	92	0
36	55045	93	0
36	55638	94	0
36	56231	95	0
36	56824	96	0
36	57417	97	0
36	58010	98	0
36	58603	99	0
36	59196	100	0

