version 3
run BreakRanksNoGui-800-20240710-17:13:00-270279
attr configname BreakRanksNoGui
attr datetime 20240710-17:13:00
attr datetimef 20240710-171300
attr experiment BreakRanksNoGui
attr inifile omnetpp.ini
attr iterationvars "$nCars=3, $platoonSize=3, $nLanes=1, $ploegH=0.5, $controller=1, $headway=0.1, $leaderHeadway=1.2, $leaderSpeed=130, $breakRanksSafetyDistance=2, $minSpeed=120, $maxSpeed=140, $beaconInterval=0.1, $priority=4, $packetSize=200, $sController=\"CACC\", $0=2, $1=0"
attr iterationvarsd nCars=3/platoonSize=3/nLanes=1/ploegH=0.5/controller=1/headway=0.1/leaderHeadway=1.2/leaderSpeed=130/breakRanksSafetyDistance=2/minSpeed=120/maxSpeed=140/beaconInterval=0.1/priority=4/packetSize=200/sController=CACC/2/0
attr iterationvarsf nCars=3,platoonSize=3,nLanes=1,ploegH=0.5,controller=1,headway=0.1,leaderHeadway=1.2,leaderSpeed=130,breakRanksSafetyDistance=2,minSpeed=120,maxSpeed=140,beaconInterval=0.1,priority=4,packetSize=200,sController=CACC,2,0-
attr measurement "$nCars=3, $platoonSize=3, $nLanes=1, $ploegH=0.5, $controller=1, $headway=0.1, $leaderHeadway=1.2, $leaderSpeed=130, $breakRanksSafetyDistance=2, $minSpeed=120, $maxSpeed=140, $beaconInterval=0.1, $priority=4, $packetSize=200, $sController=\"CACC\", $0=2, $1=0"
attr network Highway
attr processid 270279
attr repetition 0
attr replication #0
attr resultdir results
attr runnumber 800
attr seedset 0
itervar beaconInterval 0.1
itervar breakRanksSafetyDistance 2
itervar controller 1
itervar headway 0.1
itervar leaderHeadway 1.2
itervar leaderSpeed 130
itervar maxSpeed 140
itervar minSpeed 120
itervar nCars 3
itervar nLanes 1
itervar packetSize 200
itervar platoonSize 3
itervar ploegH 0.5
itervar priority 4
itervar sController "\"CACC\""
config image-path ../../../veins/images
config repeat 10
config extends BreakRanks
config *.manager.command "\"sumo\""
config *.manager.ignoreGuiCommands true
config output-vector-file "results/BreakRanks_1_0.1_130_2_3 /result_0.vec"
config output-scalar-file "results/BreakRanks_1_0.1_130_2_3 /result_0.sca"
config extends Platooning
config *.node[*].scenario_type "\"BreakRanksScenario\""
config *.manager.command "\"sumo-gui\""
config *.node[*].scenario_type "\"SimpleScenario\""
config cmdenv-express-mode true
config cmdenv-autoflush true
config cmdenv-status-frequency 15s
config num-rngs 6
config network Highway
config debug-on-errors true
config print-undisposed true
config *.playgroundSizeX 65000m
config *.playgroundSizeY 25000m
config *.playgroundSizeZ 50m
config sim-time-limit "100 s"
config *.annotations.draw false
config *.obstacles.debug false
config *.world.useTorus false
config *.world.use2D false
config *.manager.updateInterval 0.01s
config *.manager.host "\"localhost\""
config *.manager.moduleType "\"org.car2x.plexe.PlatoonCar\""
config *.manager.moduleName "\"node\""
config *.manager.moduleDisplayString "\"\""
config *.manager.autoShutdown true
config *.manager.margin 25
config *.connectionManager.sendDirect true
config *.connectionManager.maxInterfDist 2600m
config *.connectionManager.drawMaxIntfDist false
config *.**.nic.mac1609_4.useServiceChannel false
config *.**.nic.mac1609_4.txPower 100mW
config *.**.nic.mac1609_4.bitrate 6Mbps
config *.**.nic.mac1609_4.useAcks true
config *.**.nic.mac1609_4.ackErrorRate 0.0
config *.**.nic.mac1609_4.frameErrorRate 0.0
config *.**.nic.phy80211p.minPowerLevel -94dBm
config *.**.nic.phy80211p.maxTXPower 100mW
config *.**.nic.phy80211p.useNoiseFloor true
config *.**.nic.phy80211p.noiseFloor -95dBm
config *.**.nic.phy80211p.decider "xmldoc(\"config.xml\")"
config *.**.nic.phy80211p.analogueModels "xmldoc(\"config.xml\")"
config *.**.nic.phy80211p.usePropagationDelay true
config *.node[*].mobility.x 0
config *.node[*].mobility.y 0
config *.node[*].mobility.z 1.895
config seed-set 0
config **.seed 0
config *.node[*].prot.rng-0 2
config *.node[*].appl.rng-0 3
config *.node[*].scenario.rng-0 4
config **.traffic.rng-0 5
config *.manager.configFile "\"./sumocfg/freeway.sumo.cfg\""
config *.manager.launchConfig "xmldoc(\"./sumocfg/freeway.launchd.xml\")"
config **.numberOfCars 3
config **.numberOfCarsPerPlatoon 3
config **.numberOfLanes 1
config *.node[*].helper_type "\"PositionHelper\""
config *.node[*].scenario.caccC1 0.5
config *.node[*].scenario.caccXi 1
config *.node[*].scenario.caccOmegaN "0.2 Hz"
config *.node[*].scenario.caccSpacing "2 m"
config *.node[*].scenario.engineTau "0.5 s"
config *.node[*].scenario.ploegH 0.5s
config *.node[*].scenario.ploegKp 0.2
config *.node[*].scenario.ploegKd 0.7
config *.node[*].scenario.useRealisticEngine false
config *.node[*].scenario.useControllerAcceleration true
config *.node[*].scenario.nLanes 1
config **.numericController 1
config **.headway 0.1s
config *.node[*].scenario.accHeadway 0.1s
config *.node[*].scenario.leaderHeadway 1.2s
config *.node[*].scenario.leaderSpeed 130kmph
config *.node[*].appl_type "\"SimplePlatooningApp\""
config *.node[*].appl.*.scalar-recording true
config *.node[*].appl.*.vector-recording true
config *.node[0].appl.breakRanksSafetyDistance 2m
config *.node[*].appl.minSpeed 120kmph
config *.node[*].appl.maxSpeed 140kmph
config *.node[*].protocol_type "\"SimplePlatooningBeaconing\""
config *.node[*].prot.*.scalar-recording true
config *.node[*].prot.*.vector-recording true
config *.node[*].prot.beaconingInterval 0.1s
config *.node[*].prot.priority 4
config *.node[*].prot.packetSize 200
config **.traffic_type "\"PlatoonsTrafficManager\""
config **.traffic.platoonInsertTime "1 s"
config **.traffic.platoonInsertSpeed 130kmph
config **.traffic.nCars 3
config **.traffic.platoonSize 3
config **.traffic.nLanes 1
config **.traffic.platooningVType "\"vtypeauto\""
config **.traffic.controller "\"CACC\""
config **.traffic.platoonInsertDistance 2m
config **.traffic.platoonInsertHeadway 0s
config **.traffic.platoonLeaderHeadway 1.2s
config **.scalar-recording false
config **.vector-recording false

vector 0 Highway.node[0].appl distance ETV
vector 1 Highway.node[0].appl relativeSpeed ETV
vector 2 Highway.node[0].appl nodeId ETV
vector 3 Highway.node[0].appl acceleration ETV
vector 4 Highway.node[0].appl controllerAcceleration ETV
vector 5 Highway.node[0].appl speed ETV
vector 6 Highway.node[0].appl posx ETV
vector 7 Highway.node[0].appl posy ETV
vector 8 Highway.node[1].appl distance ETV
vector 9 Highway.node[1].appl relativeSpeed ETV
vector 10 Highway.node[1].appl nodeId ETV
vector 11 Highway.node[1].appl acceleration ETV
vector 12 Highway.node[1].appl controllerAcceleration ETV
vector 13 Highway.node[1].appl speed ETV
vector 14 Highway.node[1].appl posx ETV
vector 15 Highway.node[1].appl posy ETV
vector 16 Highway.node[2].appl distance ETV
vector 17 Highway.node[2].appl relativeSpeed ETV
vector 18 Highway.node[2].appl nodeId ETV
vector 19 Highway.node[2].appl acceleration ETV
vector 20 Highway.node[2].appl controllerAcceleration ETV
vector 21 Highway.node[2].appl speed ETV
vector 22 Highway.node[2].appl posx ETV
vector 23 Highway.node[2].appl posy ETV
vector 24 Highway.node[2].prot frontDelay ETV
vector 25 Highway.node[2].prot frontDelayId ETV
vector 26 Highway.node[1].prot leaderDelay ETV
vector 27 Highway.node[1].prot leaderDelayId ETV
vector 28 Highway.node[1].prot frontDelay ETV
vector 29 Highway.node[1].prot frontDelayId ETV
vector 30 Highway.node[2].prot leaderDelay ETV
vector 31 Highway.node[2].prot leaderDelayId ETV
vector 32 Highway.node[0].prot nodeId ETV
vector 33 Highway.node[0].prot busyTime ETV
vector 34 Highway.node[0].prot collisions ETV
vector 35 Highway.node[1].prot nodeId ETV
vector 36 Highway.node[1].prot busyTime ETV
vector 37 Highway.node[1].prot collisions ETV
vector 38 Highway.node[2].prot nodeId ETV
vector 39 Highway.node[2].prot busyTime ETV
vector 40 Highway.node[2].prot collisions ETV
0	113	1.11	-1
0	204	1.21	-1
0	295	1.31	-1
0	386	1.41	-1
0	477	1.51	-1
0	568	1.61	-1
0	659	1.71	-1
0	750	1.81	-1
0	841	1.91	-1
0	935	2.01	-1
0	1026	2.11	-1
0	1117	2.21	-1
0	1208	2.31	-1
0	1299	2.41	-1
0	1390	2.51	-1
0	1481	2.61	-1
0	1572	2.71	-1
0	1663	2.81	-1
0	1754	2.91	-1
0	1848	3.01	-1
0	1939	3.11	-1
0	2030	3.21	-1
0	2121	3.31	-1
0	2212	3.41	-1
0	2303	3.51	-1
0	2394	3.61	-1
0	2485	3.71	-1
0	2576	3.81	-1
0	2667	3.91	-1
0	2761	4.01	-1
0	2852	4.11	-1
0	2943	4.21	-1
0	3034	4.31	-1
0	3125	4.41	-1
0	3216	4.51	-1
0	3307	4.61	-1
0	3398	4.71	-1
0	3489	4.81	-1
0	3580	4.91	-1
0	3674	5.01	-1
0	3765	5.11	-1
0	3856	5.21	-1
0	3947	5.31	-1
0	4038	5.41	-1
0	4129	5.51	-1
0	4220	5.61	-1
0	4311	5.71	-1
0	4402	5.81	-1
0	4493	5.91	-1
0	4587	6.01	-1
0	4678	6.11	-1
0	4769	6.21	-1
0	4860	6.31	-1
0	4951	6.41	-1
0	5042	6.51	-1
0	5133	6.61	-1
0	5224	6.71	-1
0	5315	6.81	-1
0	5406	6.91	-1
0	5500	7.01	-1
0	5591	7.11	-1
0	5682	7.21	-1
0	5773	7.31	-1
0	5864	7.41	-1
0	5955	7.51	-1
0	6046	7.61	-1
0	6137	7.71	-1
0	6228	7.81	-1
0	6319	7.91	-1
0	6413	8.01	-1
0	6504	8.11	-1
0	6595	8.21	-1
0	6686	8.31	-1
0	6777	8.41	-1
0	6868	8.51	-1
0	6959	8.61	-1
0	7050	8.71	-1
0	7141	8.81	-1
0	7232	8.91	-1
0	7326	9.01	-1
0	7417	9.11	-1
0	7508	9.21	-1
0	7599	9.31	-1
0	7690	9.41	-1
0	7781	9.51	-1
0	7872	9.61	-1
0	7963	9.71	-1
0	8054	9.81	-1
0	8145	9.91	-1
0	8456	10.01	-1
0	8547	10.11	-1
0	8638	10.21	-1
0	8729	10.31	-1
0	8820	10.41	-1
0	8911	10.51	-1
0	9002	10.61	-1
0	9093	10.71	-1
0	9184	10.81	-1
0	9275	10.91	-1
0	9369	11.01	-1
0	9460	11.11	-1
0	9551	11.21	-1
0	9642	11.31	-1
0	9733	11.41	-1
0	9824	11.51	-1
0	9915	11.61	-1
0	10006	11.71	-1
0	10097	11.81	-1
0	10188	11.91	-1
0	10282	12.01	-1
0	10373	12.11	-1
0	10464	12.21	-1
0	10555	12.31	-1
0	10646	12.41	-1
0	10737	12.51	-1
0	10828	12.61	-1
0	10919	12.71	-1
0	11010	12.81	-1
0	11101	12.91	-1
0	11195	13.01	-1
0	11286	13.11	-1
0	11377	13.21	-1
0	11468	13.31	-1
0	11559	13.41	-1
0	11650	13.51	-1
0	11741	13.61	-1
0	11832	13.71	-1
0	11923	13.81	-1
0	12014	13.91	-1
0	12108	14.01	-1
0	12199	14.11	-1
0	12290	14.21	-1
0	12381	14.31	-1
0	12472	14.41	-1
0	12563	14.51	-1
0	12654	14.61	-1
0	12745	14.71	-1
0	12836	14.81	-1
0	12927	14.91	-1
0	13021	15.01	-1
0	13112	15.11	-1
0	13203	15.21	-1
0	13294	15.31	-1
0	13385	15.41	-1
0	13476	15.51	-1
0	13567	15.61	-1
0	13658	15.71	-1
0	13749	15.81	-1
0	13840	15.91	-1
0	13934	16.01	-1
0	14025	16.11	-1
0	14116	16.21	-1
0	14207	16.31	-1
0	14298	16.41	-1
0	14389	16.51	-1
0	14480	16.61	-1
0	14571	16.71	-1
0	14662	16.81	-1
0	14753	16.91	-1
0	14847	17.01	-1
0	14938	17.11	-1
0	15029	17.21	-1
0	15120	17.31	-1
0	15211	17.41	-1
0	15302	17.51	-1
0	15393	17.61	-1
0	15484	17.71	-1
0	15575	17.81	-1
0	15666	17.91	-1
0	15760	18.01	-1
0	15851	18.11	-1
0	15942	18.21	-1
0	16033	18.31	-1
0	16124	18.41	-1
0	16215	18.51	-1
0	16306	18.61	-1
0	16397	18.71	-1
0	16488	18.81	-1
0	16579	18.91	-1
0	16673	19.01	-1
0	16764	19.11	-1
0	16855	19.21	-1
0	16946	19.31	-1
0	17037	19.41	-1
0	17128	19.51	-1
0	17219	19.61	-1
0	17310	19.71	-1
0	17401	19.81	-1
0	17492	19.91	-1
0	17586	20.01	-1
0	17677	20.11	-1
0	17768	20.21	-1
0	17859	20.31	-1
0	17950	20.41	-1
0	18041	20.51	-1
0	18132	20.61	-1
0	18223	20.71	-1
0	18314	20.81	-1
0	18405	20.91	-1
0	18499	21.01	-1
0	18590	21.11	-1
0	18681	21.21	-1
0	18772	21.31	-1
0	18863	21.41	-1
0	18954	21.51	-1
0	19045	21.61	-1
0	19136	21.71	-1
0	19227	21.81	-1
0	19318	21.91	-1
0	19412	22.01	-1
0	19503	22.11	-1
0	19594	22.21	-1
0	19685	22.31	-1
0	19776	22.41	-1
0	19867	22.51	-1
0	19958	22.61	-1
0	20049	22.71	-1
0	20140	22.81	-1
0	20231	22.91	-1
0	20325	23.01	-1
0	20416	23.11	-1
0	20507	23.21	-1
0	20598	23.31	-1
0	20689	23.41	-1
0	20780	23.51	-1
0	20871	23.61	-1
0	20962	23.71	-1
0	21053	23.81	-1
0	21144	23.91	-1
0	21238	24.01	-1
0	21329	24.11	-1
0	21420	24.21	-1
0	21511	24.31	-1
0	21602	24.41	-1
0	21693	24.51	-1
0	21784	24.61	-1
0	21875	24.71	-1
0	21966	24.81	-1
0	22057	24.91	-1
0	22151	25.01	-1
0	22242	25.11	-1
0	22333	25.21	-1
0	22424	25.31	-1
0	22515	25.41	-1
0	22606	25.51	-1
0	22697	25.61	-1
0	22788	25.71	-1
0	22879	25.81	-1
0	22970	25.91	-1
0	23064	26.01	-1
0	23155	26.11	-1
0	23246	26.21	-1
0	23337	26.31	-1
0	23428	26.41	-1
0	23519	26.51	-1
0	23610	26.61	-1
0	23701	26.71	-1
0	23792	26.81	-1
0	23883	26.91	-1
0	23977	27.01	-1
0	24068	27.11	-1
0	24159	27.21	-1
0	24250	27.31	-1
0	24341	27.41	-1
0	24432	27.51	-1
0	24523	27.61	-1
0	24614	27.71	-1
0	24705	27.81	-1
0	24796	27.91	-1
0	24890	28.01	-1
0	24981	28.11	-1
0	25072	28.21	-1
0	25163	28.31	-1
0	25254	28.41	-1
0	25345	28.51	-1
0	25436	28.61	-1
0	25527	28.71	-1
0	25618	28.81	-1
0	25709	28.91	-1
0	25803	29.01	-1
0	25894	29.11	-1
0	25985	29.21	-1
0	26076	29.31	-1
0	26167	29.41	-1
0	26258	29.51	-1
0	26349	29.61	-1
0	26440	29.71	-1
0	26531	29.81	-1
0	26622	29.91	-1
0	26716	30.01	-1
0	26807	30.11	-1
0	26898	30.21	-1
0	26989	30.31	-1
0	27080	30.41	-1
0	27171	30.51	-1
0	27262	30.61	-1
0	27353	30.71	-1
0	27444	30.81	-1
0	27535	30.91	-1
0	27629	31.01	-1
0	27720	31.11	-1
0	27811	31.21	-1
0	27902	31.31	-1
0	27993	31.41	-1
0	28084	31.51	-1
0	28175	31.61	-1
0	28266	31.71	-1
0	28357	31.81	-1
0	28448	31.91	-1
0	28542	32.01	-1
0	28633	32.11	-1
0	28724	32.21	-1
0	28815	32.31	-1
0	28906	32.41	-1
0	28997	32.51	-1
0	29088	32.61	-1
0	29179	32.71	-1
0	29270	32.81	-1
0	29361	32.91	-1
0	29455	33.01	-1
0	29546	33.11	-1
0	29637	33.21	-1
0	29728	33.31	-1
0	29819	33.41	-1
0	29910	33.51	-1
0	30001	33.61	-1
0	30092	33.71	-1
0	30183	33.81	-1
0	30274	33.91	-1
0	30368	34.01	-1
0	30459	34.11	-1
0	30550	34.21	-1
0	30641	34.31	-1
0	30732	34.41	-1
0	30823	34.51	-1
0	30914	34.61	-1
0	31005	34.71	-1
0	31096	34.81	-1
0	31187	34.91	-1
0	31281	35.01	-1
0	31372	35.11	-1
0	31463	35.21	-1
0	31554	35.31	-1
0	31645	35.41	-1
0	31736	35.51	-1
0	31827	35.61	-1
0	31918	35.71	-1
0	32009	35.81	-1
0	32100	35.91	-1
0	32194	36.01	-1
0	32285	36.11	-1
0	32376	36.21	-1
0	32467	36.31	-1
0	32558	36.41	-1
0	32649	36.51	-1
0	32740	36.61	-1
0	32831	36.71	-1
0	32922	36.81	-1
0	33013	36.91	-1
0	33107	37.01	-1
0	33198	37.11	-1
0	33289	37.21	-1
0	33380	37.31	-1
0	33471	37.41	-1
0	33562	37.51	-1
0	33653	37.61	-1
0	33744	37.71	-1
0	33835	37.81	-1
0	33926	37.91	-1
0	34020	38.01	-1
0	34111	38.11	-1
0	34202	38.21	-1
0	34293	38.31	-1
0	34384	38.41	-1
0	34475	38.51	-1
0	34566	38.61	-1
0	34657	38.71	-1
0	34748	38.81	-1
0	34839	38.91	-1
0	34933	39.01	-1
0	35024	39.11	-1
0	35115	39.21	-1
0	35206	39.31	-1
0	35297	39.41	-1
0	35388	39.51	-1
0	35479	39.61	-1
0	35570	39.71	-1
0	35661	39.81	-1
0	35752	39.91	-1
0	35846	40.01	-1
0	35937	40.11	-1
0	36028	40.21	-1
0	36119	40.31	-1
0	36210	40.41	-1
0	36301	40.51	-1
0	36392	40.61	-1
0	36483	40.71	-1
0	36574	40.81	-1
0	36665	40.91	-1
0	36759	41.01	-1
0	36850	41.11	-1
0	36941	41.21	-1
0	37032	41.31	-1
0	37123	41.41	-1
0	37214	41.51	-1
0	37305	41.61	-1
0	37396	41.71	-1
0	37487	41.81	-1
0	37578	41.91	-1
0	37672	42.01	-1
0	37763	42.11	-1
0	37854	42.21	-1
0	37945	42.31	-1
0	38036	42.41	-1
0	38127	42.51	-1
0	38218	42.61	-1
0	38309	42.71	-1
0	38400	42.81	-1
0	38491	42.91	-1
0	38585	43.01	-1
0	38676	43.11	-1
0	38767	43.21	-1
0	38858	43.31	-1
0	38949	43.41	-1
0	39040	43.51	-1
0	39131	43.61	-1
0	39222	43.71	-1
0	39313	43.81	-1
0	39404	43.91	-1
0	39498	44.01	-1
0	39589	44.11	-1
0	39680	44.21	-1
0	39771	44.31	-1
0	39862	44.41	-1
0	39953	44.51	-1
0	40044	44.61	-1
0	40135	44.71	-1
0	40226	44.81	-1
0	40317	44.91	-1
0	40411	45.01	-1
0	40502	45.11	-1
0	40593	45.21	-1
0	40684	45.31	-1
0	40775	45.41	-1
0	40866	45.51	-1
0	40957	45.61	-1
0	41048	45.71	-1
0	41139	45.81	-1
0	41230	45.91	-1
0	41324	46.01	-1
0	41415	46.11	-1
0	41506	46.21	-1
0	41597	46.31	-1
0	41688	46.41	-1
0	41779	46.51	-1
0	41870	46.61	-1
0	41961	46.71	-1
0	42052	46.81	-1
0	42143	46.91	-1
0	42237	47.01	-1
0	42328	47.11	-1
0	42419	47.21	-1
0	42510	47.31	-1
0	42601	47.41	-1
0	42692	47.51	-1
0	42783	47.61	-1
0	42874	47.71	-1
0	42965	47.81	-1
0	43056	47.91	-1
0	43150	48.01	-1
0	43241	48.11	-1
0	43332	48.21	-1
0	43423	48.31	-1
0	43514	48.41	-1
0	43605	48.51	-1
0	43696	48.61	-1
0	43787	48.71	-1
0	43878	48.81	-1
0	43969	48.91	-1
0	44063	49.01	-1
0	44154	49.11	-1
0	44245	49.21	-1
0	44336	49.31	-1
0	44427	49.41	-1
0	44518	49.51	-1
0	44609	49.61	-1
0	44700	49.71	-1
0	44791	49.81	-1
0	44882	49.91	-1
0	44976	50.01	-1
0	45067	50.11	-1
0	45158	50.21	-1
0	45249	50.31	-1
0	45340	50.41	-1
0	45431	50.51	-1
0	45522	50.61	-1
0	45613	50.71	-1
0	45704	50.81	-1
0	45795	50.91	-1
0	45889	51.01	-1
0	45980	51.11	-1
0	46071	51.21	-1
0	46162	51.31	-1
0	46253	51.41	-1
0	46344	51.51	-1
0	46435	51.61	-1
0	46526	51.71	-1
0	46617	51.81	-1
0	46708	51.91	-1
0	46802	52.01	-1
0	46893	52.11	-1
0	46984	52.21	-1
0	47075	52.31	-1
0	47166	52.41	-1
0	47257	52.51	-1
0	47348	52.61	-1
0	47439	52.71	-1
0	47530	52.81	-1
0	47621	52.91	-1
0	47715	53.01	-1
0	47806	53.11	-1
0	47897	53.21	-1
0	47988	53.31	-1
0	48079	53.41	-1
0	48170	53.51	-1
0	48261	53.61	-1
0	48352	53.71	-1
0	48443	53.81	-1
0	48534	53.91	-1
0	48628	54.01	-1
0	48719	54.11	-1
0	48810	54.21	-1
0	48901	54.31	-1
0	48992	54.41	-1
0	49083	54.51	-1
0	49174	54.61	-1
0	49265	54.71	-1
0	49356	54.81	-1
0	49447	54.91	-1
0	49541	55.01	-1
0	49632	55.11	-1
0	49723	55.21	-1
0	49814	55.31	-1
0	49905	55.41	-1
0	49996	55.51	-1
0	50087	55.61	-1
0	50178	55.71	-1
0	50269	55.81	-1
0	50360	55.91	-1
0	50454	56.01	-1
0	50545	56.11	-1
0	50636	56.21	-1
0	50727	56.31	-1
0	50818	56.41	-1
0	50909	56.51	-1
0	51000	56.61	-1
0	51091	56.71	-1
0	51182	56.81	-1
0	51273	56.91	-1
0	51367	57.01	-1
0	51458	57.11	-1
0	51549	57.21	-1
0	51640	57.31	-1
0	51731	57.41	-1
0	51822	57.51	-1
0	51913	57.61	-1
0	52004	57.71	-1
0	52095	57.81	-1
0	52186	57.91	-1
0	52280	58.01	-1
0	52371	58.11	-1
0	52462	58.21	-1
0	52553	58.31	-1
0	52644	58.41	-1
0	52735	58.51	-1
0	52826	58.61	-1
0	52917	58.71	-1
0	53008	58.81	-1
0	53099	58.91	-1
0	53193	59.01	-1
0	53284	59.11	-1
0	53375	59.21	-1
0	53466	59.31	-1
0	53557	59.41	-1
0	53648	59.51	-1
0	53739	59.61	-1
0	53830	59.71	-1
0	53921	59.81	-1
0	54012	59.91	-1
0	54106	60.01	-1
0	54197	60.11	-1
0	54288	60.21	-1
0	54379	60.31	-1
0	54470	60.41	-1
0	54561	60.51	-1
0	54652	60.61	-1
0	54743	60.71	-1
0	54834	60.81	-1
0	54925	60.91	-1
0	55019	61.01	-1
0	55110	61.11	-1
0	55201	61.21	-1
0	55292	61.31	-1
0	55383	61.41	-1
0	55474	61.51	-1
0	55565	61.61	-1
0	55656	61.71	-1
0	55747	61.81	-1
0	55838	61.91	-1
0	55932	62.01	-1
0	56023	62.11	-1
0	56114	62.21	-1
0	56205	62.31	-1
0	56296	62.41	-1
0	56387	62.51	-1
0	56478	62.61	-1
0	56569	62.71	-1
0	56660	62.81	-1
0	56751	62.91	-1
0	56845	63.01	-1
0	56936	63.11	-1
0	57027	63.21	-1
0	57118	63.31	-1
0	57209	63.41	-1
0	57300	63.51	-1
0	57391	63.61	-1
0	57482	63.71	-1
0	57573	63.81	-1
0	57664	63.91	-1
0	57758	64.01	-1
0	57849	64.11	-1
0	57940	64.21	-1
0	58031	64.31	-1
0	58122	64.41	-1
0	58213	64.51	-1
0	58304	64.61	-1
0	58395	64.71	-1
0	58486	64.81	-1
0	58577	64.91	-1
0	58671	65.01	-1
0	58762	65.11	-1
0	58853	65.21	-1
0	58944	65.31	-1
0	59035	65.41	-1
0	59126	65.51	-1
0	59217	65.61	-1
0	59308	65.71	-1
0	59399	65.81	-1
0	59490	65.91	-1
0	59584	66.01	-1
0	59675	66.11	-1
0	59766	66.21	-1
0	59857	66.31	-1
0	59948	66.41	-1
0	60039	66.51	-1
0	60130	66.61	-1
0	60221	66.71	-1
0	60312	66.81	-1
0	60403	66.91	-1
0	60497	67.01	-1
0	60588	67.11	-1
0	60679	67.21	-1
0	60770	67.31	-1
0	60861	67.41	-1
0	60952	67.51	-1
0	61043	67.61	-1
0	61134	67.71	-1
0	61225	67.81	-1
0	61316	67.91	-1
0	61410	68.01	-1
0	61501	68.11	-1
0	61592	68.21	-1
0	61683	68.31	-1
0	61774	68.41	-1
0	61865	68.51	-1
0	61956	68.61	-1
0	62047	68.71	-1
0	62138	68.81	-1
0	62229	68.91	-1
0	62323	69.01	-1
0	62414	69.11	-1
0	62505	69.21	-1
0	62596	69.31	-1
0	62687	69.41	-1
0	62778	69.51	-1
0	62869	69.61	-1
0	62960	69.71	-1
0	63051	69.81	-1
0	63142	69.91	-1
0	63236	70.01	-1
0	63327	70.11	-1
0	63418	70.21	-1
0	63509	70.31	-1
0	63600	70.41	-1
0	63691	70.51	-1
0	63782	70.61	-1
0	63873	70.71	-1
0	63964	70.81	-1
0	64055	70.91	-1
0	64149	71.01	-1
0	64240	71.11	-1
0	64331	71.21	-1
0	64422	71.31	-1
0	64513	71.41	-1
0	64604	71.51	-1
0	64695	71.61	-1
0	64786	71.71	-1
0	64877	71.81	-1
0	64968	71.91	-1
0	65062	72.01	-1
0	65153	72.11	-1
0	65244	72.21	-1
0	65335	72.31	-1
0	65426	72.41	-1
0	65517	72.51	-1
0	65608	72.61	-1
0	65699	72.71	-1
0	65790	72.81	-1
0	65881	72.91	-1
0	65975	73.01	-1
0	66066	73.11	-1
0	66157	73.21	-1
0	66248	73.31	-1
0	66339	73.41	-1
0	66430	73.51	-1
0	66521	73.61	-1
0	66612	73.71	-1
0	66703	73.81	-1
0	66794	73.91	-1
0	66888	74.01	-1
0	66979	74.11	-1
0	67070	74.21	-1
0	67161	74.31	-1
0	67252	74.41	-1
0	67343	74.51	-1
0	67434	74.61	-1
0	67525	74.71	-1
0	67616	74.81	-1
0	67707	74.91	-1
0	67801	75.01	-1
0	67892	75.11	-1
0	67983	75.21	-1
0	68074	75.31	-1
0	68165	75.41	-1
0	68256	75.51	-1
0	68347	75.61	-1
0	68438	75.71	-1
0	68529	75.81	-1
0	68620	75.91	-1
0	68714	76.01	-1
0	68805	76.11	-1
0	68896	76.21	-1
0	68987	76.31	-1
0	69078	76.41	-1
0	69169	76.51	-1
0	69260	76.61	-1
0	69351	76.71	-1
0	69442	76.81	-1
0	69533	76.91	-1
0	69627	77.01	-1
0	69718	77.11	-1
0	69809	77.21	-1
0	69900	77.31	-1
0	69991	77.41	-1
0	70082	77.51	-1
0	70173	77.61	-1
0	70264	77.71	-1
0	70355	77.81	-1
0	70446	77.91	-1
0	70540	78.01	-1
0	70631	78.11	-1
0	70722	78.21	-1
0	70813	78.31	-1
0	70904	78.41	-1
0	70995	78.51	-1
0	71086	78.61	-1
0	71177	78.71	-1
0	71268	78.81	-1
0	71359	78.91	-1
0	71453	79.01	-1
0	71544	79.11	-1
0	71635	79.21	-1
0	71726	79.31	-1
0	71817	79.41	-1
0	71908	79.51	-1
0	71999	79.61	-1
0	72090	79.71	-1
0	72181	79.81	-1
0	72272	79.91	-1
0	72366	80.01	-1
0	72457	80.11	-1
0	72548	80.21	-1
0	72639	80.31	-1
0	72730	80.41	-1
0	72821	80.51	-1
0	72912	80.61	-1
0	73003	80.71	-1
0	73094	80.81	-1
0	73185	80.91	-1
0	73279	81.01	-1
0	73370	81.11	-1
0	73461	81.21	-1
0	73552	81.31	-1
0	73643	81.41	-1
0	73734	81.51	-1
0	73825	81.61	-1
0	73916	81.71	-1
0	74007	81.81	-1
0	74098	81.91	-1
0	74192	82.01	-1
0	74283	82.11	-1
0	74374	82.21	-1
0	74465	82.31	-1
0	74556	82.41	-1
0	74647	82.51	-1
0	74738	82.61	-1
0	74829	82.71	-1
0	74920	82.81	-1
0	75011	82.91	-1
0	75105	83.01	-1
0	75196	83.11	-1
0	75287	83.21	-1
0	75378	83.31	-1
0	75469	83.41	-1
0	75560	83.51	-1
0	75651	83.61	-1
0	75742	83.71	-1
0	75833	83.81	-1
0	75924	83.91	-1
0	76018	84.01	-1
0	76109	84.11	-1
0	76200	84.21	-1
0	76291	84.31	-1
0	76382	84.41	-1
0	76473	84.51	-1
0	76564	84.61	-1
0	76655	84.71	-1
0	76746	84.81	-1
0	76837	84.91	-1
0	76931	85.01	-1
0	77022	85.11	-1
0	77113	85.21	-1
0	77204	85.31	-1
0	77295	85.41	-1
0	77386	85.51	-1
0	77477	85.61	-1
0	77568	85.71	-1
0	77659	85.81	-1
0	77750	85.91	-1
0	77844	86.01	-1
0	77935	86.11	-1
0	78026	86.21	-1
0	78117	86.31	-1
0	78208	86.41	-1
0	78299	86.51	-1
0	78390	86.61	-1
0	78481	86.71	-1
0	78572	86.81	-1
0	78663	86.91	-1
0	78757	87.01	-1
0	78848	87.11	-1
0	78939	87.21	-1
0	79030	87.31	-1
0	79121	87.41	-1
0	79212	87.51	-1
0	79303	87.61	-1
0	79394	87.71	-1
0	79485	87.81	-1
0	79576	87.91	-1
0	79670	88.01	-1
0	79761	88.11	-1
0	79852	88.21	-1
0	79943	88.31	-1
0	80034	88.41	-1
0	80125	88.51	-1
0	80216	88.61	-1
0	80307	88.71	-1
0	80398	88.81	-1
0	80489	88.91	-1
0	80583	89.01	-1
0	80674	89.11	-1
0	80765	89.21	-1
0	80856	89.31	-1
0	80947	89.41	-1
0	81038	89.51	-1
0	81129	89.61	-1
0	81220	89.71	-1
0	81311	89.81	-1
0	81402	89.91	-1
0	81496	90.01	-1
0	81587	90.11	-1
0	81678	90.21	-1
0	81769	90.31	-1
0	81860	90.41	-1
0	81951	90.51	-1
0	82042	90.61	-1
0	82133	90.71	-1
0	82224	90.81	-1
0	82315	90.91	-1
0	82409	91.01	-1
0	82500	91.11	-1
0	82591	91.21	-1
0	82682	91.31	-1
0	82773	91.41	-1
0	82864	91.51	-1
0	82955	91.61	-1
0	83046	91.71	-1
0	83137	91.81	-1
0	83228	91.91	-1
0	83322	92.01	-1
0	83413	92.11	-1
0	83504	92.21	-1
0	83595	92.31	-1
0	83686	92.41	-1
0	83777	92.51	-1
0	83868	92.61	-1
0	83959	92.71	-1
0	84050	92.81	-1
0	84141	92.91	-1
0	84235	93.01	-1
0	84326	93.11	-1
0	84417	93.21	-1
0	84508	93.31	-1
0	84599	93.41	-1
0	84690	93.51	-1
0	84781	93.61	-1
0	84872	93.71	-1
0	84963	93.81	-1
0	85054	93.91	-1
0	85148	94.01	-1
0	85239	94.11	-1
0	85330	94.21	-1
0	85421	94.31	-1
0	85512	94.41	-1
0	85603	94.51	-1
0	85694	94.61	-1
0	85785	94.71	-1
0	85876	94.81	-1
0	85967	94.91	-1
0	86061	95.01	-1
0	86152	95.11	-1
0	86243	95.21	-1
0	86334	95.31	-1
0	86425	95.41	-1
0	86516	95.51	-1
0	86607	95.61	-1
0	86698	95.71	-1
0	86789	95.81	-1
0	86880	95.91	-1
0	86974	96.01	-1
0	87065	96.11	-1
0	87156	96.21	-1
0	87247	96.31	-1
0	87338	96.41	-1
0	87429	96.51	-1
0	87520	96.61	-1
0	87611	96.71	-1
0	87702	96.81	-1
0	87793	96.91	-1
0	87887	97.01	-1
0	87978	97.11	-1
0	88069	97.21	-1
0	88160	97.31	-1
0	88251	97.41	-1
0	88342	97.51	-1
0	88433	97.61	-1
0	88524	97.71	-1
0	88615	97.81	-1
0	88706	97.91	-1
0	88800	98.01	-1
0	88891	98.11	-1
0	88982	98.21	-1
0	89073	98.31	-1
0	89164	98.41	-1
0	89255	98.51	-1
0	89346	98.61	-1
0	89437	98.71	-1
0	89528	98.81	-1
0	89619	98.91	-1
0	89713	99.01	-1
0	89804	99.11	-1
0	89895	99.21	-1
0	89986	99.31	-1
0	90077	99.41	-1
0	90168	99.51	-1
0	90259	99.61	-1
0	90350	99.71	-1
0	90441	99.81	-1
0	90532	99.91	-1
1	113	1.11	0
1	204	1.21	0
1	295	1.31	0
1	386	1.41	0
1	477	1.51	0
1	568	1.61	0
1	659	1.71	0
1	750	1.81	0
1	841	1.91	0
1	935	2.01	0
1	1026	2.11	0
1	1117	2.21	0
1	1208	2.31	0
1	1299	2.41	0
1	1390	2.51	0
1	1481	2.61	0
1	1572	2.71	0
1	1663	2.81	0
1	1754	2.91	0
1	1848	3.01	0
1	1939	3.11	0
1	2030	3.21	0
1	2121	3.31	0
1	2212	3.41	0
1	2303	3.51	0
1	2394	3.61	0
1	2485	3.71	0
1	2576	3.81	0
1	2667	3.91	0
1	2761	4.01	0
1	2852	4.11	0
1	2943	4.21	0
1	3034	4.31	0
1	3125	4.41	0
1	3216	4.51	0
1	3307	4.61	0
1	3398	4.71	0
1	3489	4.81	0
1	3580	4.91	0
1	3674	5.01	0
1	3765	5.11	0
1	3856	5.21	0
1	3947	5.31	0
1	4038	5.41	0
1	4129	5.51	0
1	4220	5.61	0
1	4311	5.71	0
1	4402	5.81	0
1	4493	5.91	0
1	4587	6.01	0
1	4678	6.11	0
1	4769	6.21	0
1	4860	6.31	0
1	4951	6.41	0
1	5042	6.51	0
1	5133	6.61	0
1	5224	6.71	0
1	5315	6.81	0
1	5406	6.91	0
1	5500	7.01	0
1	5591	7.11	0
1	5682	7.21	0
1	5773	7.31	0
1	5864	7.41	0
1	5955	7.51	0
1	6046	7.61	0
1	6137	7.71	0
1	6228	7.81	0
1	6319	7.91	0
1	6413	8.01	0
1	6504	8.11	0
1	6595	8.21	0
1	6686	8.31	0
1	6777	8.41	0
1	6868	8.51	0
1	6959	8.61	0
1	7050	8.71	0
1	7141	8.81	0
1	7232	8.91	0
1	7326	9.01	0
1	7417	9.11	0
1	7508	9.21	0
1	7599	9.31	0
1	7690	9.41	0
1	7781	9.51	0
1	7872	9.61	0
1	7963	9.71	0
1	8054	9.81	0
1	8145	9.91	0
1	8456	10.01	0
1	8547	10.11	0
1	8638	10.21	0
1	8729	10.31	0
1	8820	10.41	0
1	8911	10.51	0
1	9002	10.61	0
1	9093	10.71	0
1	9184	10.81	0
1	9275	10.91	0
1	9369	11.01	0
1	9460	11.11	0
1	9551	11.21	0
1	9642	11.31	0
1	9733	11.41	0
1	9824	11.51	0
1	9915	11.61	0
1	10006	11.71	0
1	10097	11.81	0
1	10188	11.91	0
1	10282	12.01	0
1	10373	12.11	0
1	10464	12.21	0
1	10555	12.31	0
1	10646	12.41	0
1	10737	12.51	0
1	10828	12.61	0
1	10919	12.71	0
1	11010	12.81	0
1	11101	12.91	0
1	11195	13.01	0
1	11286	13.11	0
1	11377	13.21	0
1	11468	13.31	0
1	11559	13.41	0
1	11650	13.51	0
1	11741	13.61	0
1	11832	13.71	0
1	11923	13.81	0
1	12014	13.91	0
1	12108	14.01	0
1	12199	14.11	0
1	12290	14.21	0
1	12381	14.31	0
1	12472	14.41	0
1	12563	14.51	0
1	12654	14.61	0
1	12745	14.71	0
1	12836	14.81	0
1	12927	14.91	0
1	13021	15.01	0
1	13112	15.11	0
1	13203	15.21	0
1	13294	15.31	0
1	13385	15.41	0
1	13476	15.51	0
1	13567	15.61	0
1	13658	15.71	0
1	13749	15.81	0
1	13840	15.91	0
1	13934	16.01	0
1	14025	16.11	0
1	14116	16.21	0
1	14207	16.31	0
1	14298	16.41	0
1	14389	16.51	0
1	14480	16.61	0
1	14571	16.71	0
1	14662	16.81	0
1	14753	16.91	0
1	14847	17.01	0
1	14938	17.11	0
1	15029	17.21	0
1	15120	17.31	0
1	15211	17.41	0
1	15302	17.51	0
1	15393	17.61	0
1	15484	17.71	0
1	15575	17.81	0
1	15666	17.91	0
1	15760	18.01	0
1	15851	18.11	0
1	15942	18.21	0
1	16033	18.31	0
1	16124	18.41	0
1	16215	18.51	0
1	16306	18.61	0
1	16397	18.71	0
1	16488	18.81	0
1	16579	18.91	0
1	16673	19.01	0
1	16764	19.11	0
1	16855	19.21	0
1	16946	19.31	0
1	17037	19.41	0
1	17128	19.51	0
1	17219	19.61	0
1	17310	19.71	0
1	17401	19.81	0
1	17492	19.91	0
1	17586	20.01	0
1	17677	20.11	0
1	17768	20.21	0
1	17859	20.31	0
1	17950	20.41	0
1	18041	20.51	0
1	18132	20.61	0
1	18223	20.71	0
1	18314	20.81	0
1	18405	20.91	0
1	18499	21.01	0
1	18590	21.11	0
1	18681	21.21	0
1	18772	21.31	0
1	18863	21.41	0
1	18954	21.51	0
1	19045	21.61	0
1	19136	21.71	0
1	19227	21.81	0
1	19318	21.91	0
1	19412	22.01	0
1	19503	22.11	0
1	19594	22.21	0
1	19685	22.31	0
1	19776	22.41	0
1	19867	22.51	0
1	19958	22.61	0
1	20049	22.71	0
1	20140	22.81	0
1	20231	22.91	0
1	20325	23.01	0
1	20416	23.11	0
1	20507	23.21	0
1	20598	23.31	0
1	20689	23.41	0
1	20780	23.51	0
1	20871	23.61	0
1	20962	23.71	0
1	21053	23.81	0
1	21144	23.91	0
1	21238	24.01	0
1	21329	24.11	0
1	21420	24.21	0
1	21511	24.31	0
1	21602	24.41	0
1	21693	24.51	0
1	21784	24.61	0
1	21875	24.71	0
1	21966	24.81	0
1	22057	24.91	0
1	22151	25.01	0
1	22242	25.11	0
1	22333	25.21	0
1	22424	25.31	0
1	22515	25.41	0
1	22606	25.51	0
1	22697	25.61	0
1	22788	25.71	0
1	22879	25.81	0
1	22970	25.91	0
1	23064	26.01	0
1	23155	26.11	0
1	23246	26.21	0
1	23337	26.31	0
1	23428	26.41	0
1	23519	26.51	0
1	23610	26.61	0
1	23701	26.71	0
1	23792	26.81	0
1	23883	26.91	0
1	23977	27.01	0
1	24068	27.11	0
1	24159	27.21	0
1	24250	27.31	0
1	24341	27.41	0
1	24432	27.51	0
1	24523	27.61	0
1	24614	27.71	0
1	24705	27.81	0
1	24796	27.91	0
1	24890	28.01	0
1	24981	28.11	0
1	25072	28.21	0
1	25163	28.31	0
1	25254	28.41	0
1	25345	28.51	0
1	25436	28.61	0
1	25527	28.71	0
1	25618	28.81	0
1	25709	28.91	0
1	25803	29.01	0
1	25894	29.11	0
1	25985	29.21	0
1	26076	29.31	0
1	26167	29.41	0
1	26258	29.51	0
1	26349	29.61	0
1	26440	29.71	0
1	26531	29.81	0
1	26622	29.91	0
1	26716	30.01	0
1	26807	30.11	0
1	26898	30.21	0
1	26989	30.31	0
1	27080	30.41	0
1	27171	30.51	0
1	27262	30.61	0
1	27353	30.71	0
1	27444	30.81	0
1	27535	30.91	0
1	27629	31.01	0
1	27720	31.11	0
1	27811	31.21	0
1	27902	31.31	0
1	27993	31.41	0
1	28084	31.51	0
1	28175	31.61	0
1	28266	31.71	0
1	28357	31.81	0
1	28448	31.91	0
1	28542	32.01	0
1	28633	32.11	0
1	28724	32.21	0
1	28815	32.31	0
1	28906	32.41	0
1	28997	32.51	0
1	29088	32.61	0
1	29179	32.71	0
1	29270	32.81	0
1	29361	32.91	0
1	29455	33.01	0
1	29546	33.11	0
1	29637	33.21	0
1	29728	33.31	0
1	29819	33.41	0
1	29910	33.51	0
1	30001	33.61	0
1	30092	33.71	0
1	30183	33.81	0
1	30274	33.91	0
1	30368	34.01	0
1	30459	34.11	0
1	30550	34.21	0
1	30641	34.31	0
1	30732	34.41	0
1	30823	34.51	0
1	30914	34.61	0
1	31005	34.71	0
1	31096	34.81	0
1	31187	34.91	0
1	31281	35.01	0
1	31372	35.11	0
1	31463	35.21	0
1	31554	35.31	0
1	31645	35.41	0
1	31736	35.51	0
1	31827	35.61	0
1	31918	35.71	0
1	32009	35.81	0
1	32100	35.91	0
1	32194	36.01	0
1	32285	36.11	0
1	32376	36.21	0
1	32467	36.31	0
1	32558	36.41	0
1	32649	36.51	0
1	32740	36.61	0
1	32831	36.71	0
1	32922	36.81	0
1	33013	36.91	0
1	33107	37.01	0
1	33198	37.11	0
1	33289	37.21	0
1	33380	37.31	0
1	33471	37.41	0
1	33562	37.51	0
1	33653	37.61	0
1	33744	37.71	0
1	33835	37.81	0
1	33926	37.91	0
1	34020	38.01	0
1	34111	38.11	0
1	34202	38.21	0
1	34293	38.31	0
1	34384	38.41	0
1	34475	38.51	0
1	34566	38.61	0
1	34657	38.71	0
1	34748	38.81	0
1	34839	38.91	0
1	34933	39.01	0
1	35024	39.11	0
1	35115	39.21	0
1	35206	39.31	0
1	35297	39.41	0
1	35388	39.51	0
1	35479	39.61	0
1	35570	39.71	0
1	35661	39.81	0
1	35752	39.91	0
1	35846	40.01	0
1	35937	40.11	0
1	36028	40.21	0
1	36119	40.31	0
1	36210	40.41	0
1	36301	40.51	0
1	36392	40.61	0
1	36483	40.71	0
1	36574	40.81	0
1	36665	40.91	0
1	36759	41.01	0
1	36850	41.11	0
1	36941	41.21	0
1	37032	41.31	0
1	37123	41.41	0
1	37214	41.51	0
1	37305	41.61	0
1	37396	41.71	0
1	37487	41.81	0
1	37578	41.91	0
1	37672	42.01	0
1	37763	42.11	0
1	37854	42.21	0
1	37945	42.31	0
1	38036	42.41	0
1	38127	42.51	0
1	38218	42.61	0
1	38309	42.71	0
1	38400	42.81	0
1	38491	42.91	0
1	38585	43.01	0
1	38676	43.11	0
1	38767	43.21	0
1	38858	43.31	0
1	38949	43.41	0
1	39040	43.51	0
1	39131	43.61	0
1	39222	43.71	0
1	39313	43.81	0
1	39404	43.91	0
1	39498	44.01	0
1	39589	44.11	0
1	39680	44.21	0
1	39771	44.31	0
1	39862	44.41	0
1	39953	44.51	0
1	40044	44.61	0
1	40135	44.71	0
1	40226	44.81	0
1	40317	44.91	0
1	40411	45.01	0
1	40502	45.11	0
1	40593	45.21	0
1	40684	45.31	0
1	40775	45.41	0
1	40866	45.51	0
1	40957	45.61	0
1	41048	45.71	0
1	41139	45.81	0
1	41230	45.91	0
1	41324	46.01	0
1	41415	46.11	0
1	41506	46.21	0
1	41597	46.31	0
1	41688	46.41	0
1	41779	46.51	0
1	41870	46.61	0
1	41961	46.71	0
1	42052	46.81	0
1	42143	46.91	0
1	42237	47.01	0
1	42328	47.11	0
1	42419	47.21	0
1	42510	47.31	0
1	42601	47.41	0
1	42692	47.51	0
1	42783	47.61	0
1	42874	47.71	0
1	42965	47.81	0
1	43056	47.91	0
1	43150	48.01	0
1	43241	48.11	0
1	43332	48.21	0
1	43423	48.31	0
1	43514	48.41	0
1	43605	48.51	0
1	43696	48.61	0
1	43787	48.71	0
1	43878	48.81	0
1	43969	48.91	0
1	44063	49.01	0
1	44154	49.11	0
1	44245	49.21	0
1	44336	49.31	0
1	44427	49.41	0
1	44518	49.51	0
1	44609	49.61	0
1	44700	49.71	0
1	44791	49.81	0
1	44882	49.91	0
1	44976	50.01	0
1	45067	50.11	0
1	45158	50.21	0
1	45249	50.31	0
1	45340	50.41	0
1	45431	50.51	0
1	45522	50.61	0
1	45613	50.71	0
1	45704	50.81	0
1	45795	50.91	0
1	45889	51.01	0
1	45980	51.11	0
1	46071	51.21	0
1	46162	51.31	0
1	46253	51.41	0
1	46344	51.51	0
1	46435	51.61	0
1	46526	51.71	0
1	46617	51.81	0
1	46708	51.91	0
1	46802	52.01	0
1	46893	52.11	0
1	46984	52.21	0
1	47075	52.31	0
1	47166	52.41	0
1	47257	52.51	0
1	47348	52.61	0
1	47439	52.71	0
1	47530	52.81	0
1	47621	52.91	0
1	47715	53.01	0
1	47806	53.11	0
1	47897	53.21	0
1	47988	53.31	0
1	48079	53.41	0
1	48170	53.51	0
1	48261	53.61	0
1	48352	53.71	0
1	48443	53.81	0
1	48534	53.91	0
1	48628	54.01	0
1	48719	54.11	0
1	48810	54.21	0
1	48901	54.31	0
1	48992	54.41	0
1	49083	54.51	0
1	49174	54.61	0
1	49265	54.71	0
1	49356	54.81	0
1	49447	54.91	0
1	49541	55.01	0
1	49632	55.11	0
1	49723	55.21	0
1	49814	55.31	0
1	49905	55.41	0
1	49996	55.51	0
1	50087	55.61	0
1	50178	55.71	0
1	50269	55.81	0
1	50360	55.91	0
1	50454	56.01	0
1	50545	56.11	0
1	50636	56.21	0
1	50727	56.31	0
1	50818	56.41	0
1	50909	56.51	0
1	51000	56.61	0
1	51091	56.71	0
1	51182	56.81	0
1	51273	56.91	0
1	51367	57.01	0
1	51458	57.11	0
1	51549	57.21	0
1	51640	57.31	0
1	51731	57.41	0
1	51822	57.51	0
1	51913	57.61	0
1	52004	57.71	0
1	52095	57.81	0
1	52186	57.91	0
1	52280	58.01	0
1	52371	58.11	0
1	52462	58.21	0
1	52553	58.31	0
1	52644	58.41	0
1	52735	58.51	0
1	52826	58.61	0
1	52917	58.71	0
1	53008	58.81	0
1	53099	58.91	0
1	53193	59.01	0
1	53284	59.11	0
1	53375	59.21	0
1	53466	59.31	0
1	53557	59.41	0
1	53648	59.51	0
1	53739	59.61	0
1	53830	59.71	0
1	53921	59.81	0
1	54012	59.91	0
1	54106	60.01	0
1	54197	60.11	0
1	54288	60.21	0
1	54379	60.31	0
1	54470	60.41	0
1	54561	60.51	0
1	54652	60.61	0
1	54743	60.71	0
1	54834	60.81	0
1	54925	60.91	0
1	55019	61.01	0
1	55110	61.11	0
1	55201	61.21	0
1	55292	61.31	0
1	55383	61.41	0
1	55474	61.51	0
1	55565	61.61	0
1	55656	61.71	0
1	55747	61.81	0
1	55838	61.91	0
1	55932	62.01	0
1	56023	62.11	0
1	56114	62.21	0
1	56205	62.31	0
1	56296	62.41	0
1	56387	62.51	0
1	56478	62.61	0
1	56569	62.71	0
1	56660	62.81	0
1	56751	62.91	0
1	56845	63.01	0
1	56936	63.11	0
1	57027	63.21	0
1	57118	63.31	0
1	57209	63.41	0
1	57300	63.51	0
1	57391	63.61	0
1	57482	63.71	0
1	57573	63.81	0
1	57664	63.91	0
1	57758	64.01	0
1	57849	64.11	0
1	57940	64.21	0
1	58031	64.31	0
1	58122	64.41	0
1	58213	64.51	0
1	58304	64.61	0
1	58395	64.71	0
1	58486	64.81	0
1	58577	64.91	0
1	58671	65.01	0
1	58762	65.11	0
1	58853	65.21	0
1	58944	65.31	0
1	59035	65.41	0
1	59126	65.51	0
1	59217	65.61	0
1	59308	65.71	0
1	59399	65.81	0
1	59490	65.91	0
1	59584	66.01	0
1	59675	66.11	0
1	59766	66.21	0
1	59857	66.31	0
1	59948	66.41	0
1	60039	66.51	0
1	60130	66.61	0
1	60221	66.71	0
1	60312	66.81	0
1	60403	66.91	0
1	60497	67.01	0
1	60588	67.11	0
1	60679	67.21	0
1	60770	67.31	0
1	60861	67.41	0
1	60952	67.51	0
1	61043	67.61	0
1	61134	67.71	0
1	61225	67.81	0
1	61316	67.91	0
1	61410	68.01	0
1	61501	68.11	0
1	61592	68.21	0
1	61683	68.31	0
1	61774	68.41	0
1	61865	68.51	0
1	61956	68.61	0
1	62047	68.71	0
1	62138	68.81	0
1	62229	68.91	0
1	62323	69.01	0
1	62414	69.11	0
1	62505	69.21	0
1	62596	69.31	0
1	62687	69.41	0
1	62778	69.51	0
1	62869	69.61	0
1	62960	69.71	0
1	63051	69.81	0
1	63142	69.91	0
1	63236	70.01	0
1	63327	70.11	0
1	63418	70.21	0
1	63509	70.31	0
1	63600	70.41	0
1	63691	70.51	0
1	63782	70.61	0
1	63873	70.71	0
1	63964	70.81	0
1	64055	70.91	0
1	64149	71.01	0
1	64240	71.11	0
1	64331	71.21	0
1	64422	71.31	0
1	64513	71.41	0
1	64604	71.51	0
1	64695	71.61	0
1	64786	71.71	0
1	64877	71.81	0
1	64968	71.91	0
1	65062	72.01	0
1	65153	72.11	0
1	65244	72.21	0
1	65335	72.31	0
1	65426	72.41	0
1	65517	72.51	0
1	65608	72.61	0
1	65699	72.71	0
1	65790	72.81	0
1	65881	72.91	0
1	65975	73.01	0
1	66066	73.11	0
1	66157	73.21	0
1	66248	73.31	0
1	66339	73.41	0
1	66430	73.51	0
1	66521	73.61	0
1	66612	73.71	0
1	66703	73.81	0
1	66794	73.91	0
1	66888	74.01	0
1	66979	74.11	0
1	67070	74.21	0
1	67161	74.31	0
1	67252	74.41	0
1	67343	74.51	0
1	67434	74.61	0
1	67525	74.71	0
1	67616	74.81	0
1	67707	74.91	0
1	67801	75.01	0
1	67892	75.11	0
1	67983	75.21	0
1	68074	75.31	0
1	68165	75.41	0
1	68256	75.51	0
1	68347	75.61	0
1	68438	75.71	0
1	68529	75.81	0
1	68620	75.91	0
1	68714	76.01	0
1	68805	76.11	0
1	68896	76.21	0
1	68987	76.31	0
1	69078	76.41	0
1	69169	76.51	0
1	69260	76.61	0
1	69351	76.71	0
1	69442	76.81	0
1	69533	76.91	0
1	69627	77.01	0
1	69718	77.11	0
1	69809	77.21	0
1	69900	77.31	0
1	69991	77.41	0
1	70082	77.51	0
1	70173	77.61	0
1	70264	77.71	0
1	70355	77.81	0
1	70446	77.91	0
1	70540	78.01	0
1	70631	78.11	0
1	70722	78.21	0
1	70813	78.31	0
1	70904	78.41	0
1	70995	78.51	0
1	71086	78.61	0
1	71177	78.71	0
1	71268	78.81	0
1	71359	78.91	0
1	71453	79.01	0
1	71544	79.11	0
1	71635	79.21	0
1	71726	79.31	0
1	71817	79.41	0
1	71908	79.51	0
1	71999	79.61	0
1	72090	79.71	0
1	72181	79.81	0
1	72272	79.91	0
1	72366	80.01	0
1	72457	80.11	0
1	72548	80.21	0
1	72639	80.31	0
1	72730	80.41	0
1	72821	80.51	0
1	72912	80.61	0
1	73003	80.71	0
1	73094	80.81	0
1	73185	80.91	0
1	73279	81.01	0
1	73370	81.11	0
1	73461	81.21	0
1	73552	81.31	0
1	73643	81.41	0
1	73734	81.51	0
1	73825	81.61	0
1	73916	81.71	0
1	74007	81.81	0
1	74098	81.91	0
1	74192	82.01	0
1	74283	82.11	0
1	74374	82.21	0
1	74465	82.31	0
1	74556	82.41	0
1	74647	82.51	0
1	74738	82.61	0
1	74829	82.71	0
1	74920	82.81	0
1	75011	82.91	0
1	75105	83.01	0
1	75196	83.11	0
1	75287	83.21	0
1	75378	83.31	0
1	75469	83.41	0
1	75560	83.51	0
1	75651	83.61	0
1	75742	83.71	0
1	75833	83.81	0
1	75924	83.91	0
1	76018	84.01	0
1	76109	84.11	0
1	76200	84.21	0
1	76291	84.31	0
1	76382	84.41	0
1	76473	84.51	0
1	76564	84.61	0
1	76655	84.71	0
1	76746	84.81	0
1	76837	84.91	0
1	76931	85.01	0
1	77022	85.11	0
1	77113	85.21	0
1	77204	85.31	0
1	77295	85.41	0
1	77386	85.51	0
1	77477	85.61	0
1	77568	85.71	0
1	77659	85.81	0
1	77750	85.91	0
1	77844	86.01	0
1	77935	86.11	0
1	78026	86.21	0
1	78117	86.31	0
1	78208	86.41	0
1	78299	86.51	0
1	78390	86.61	0
1	78481	86.71	0
1	78572	86.81	0
1	78663	86.91	0
1	78757	87.01	0
1	78848	87.11	0
1	78939	87.21	0
1	79030	87.31	0
1	79121	87.41	0
1	79212	87.51	0
1	79303	87.61	0
1	79394	87.71	0
1	79485	87.81	0
1	79576	87.91	0
1	79670	88.01	0
1	79761	88.11	0
1	79852	88.21	0
1	79943	88.31	0
1	80034	88.41	0
1	80125	88.51	0
1	80216	88.61	0
1	80307	88.71	0
1	80398	88.81	0
1	80489	88.91	0
1	80583	89.01	0
1	80674	89.11	0
1	80765	89.21	0
1	80856	89.31	0
1	80947	89.41	0
1	81038	89.51	0
1	81129	89.61	0
1	81220	89.71	0
1	81311	89.81	0
1	81402	89.91	0
1	81496	90.01	0
1	81587	90.11	0
1	81678	90.21	0
1	81769	90.31	0
1	81860	90.41	0
1	81951	90.51	0
1	82042	90.61	0
1	82133	90.71	0
1	82224	90.81	0
1	82315	90.91	0
1	82409	91.01	0
1	82500	91.11	0
1	82591	91.21	0
1	82682	91.31	0
1	82773	91.41	0
1	82864	91.51	0
1	82955	91.61	0
1	83046	91.71	0
1	83137	91.81	0
1	83228	91.91	0
1	83322	92.01	0
1	83413	92.11	0
1	83504	92.21	0
1	83595	92.31	0
1	83686	92.41	0
1	83777	92.51	0
1	83868	92.61	0
1	83959	92.71	0
1	84050	92.81	0
1	84141	92.91	0
1	84235	93.01	0
1	84326	93.11	0
1	84417	93.21	0
1	84508	93.31	0
1	84599	93.41	0
1	84690	93.51	0
1	84781	93.61	0
1	84872	93.71	0
1	84963	93.81	0
1	85054	93.91	0
1	85148	94.01	0
1	85239	94.11	0
1	85330	94.21	0
1	85421	94.31	0
1	85512	94.41	0
1	85603	94.51	0
1	85694	94.61	0
1	85785	94.71	0
1	85876	94.81	0
1	85967	94.91	0
1	86061	95.01	0
1	86152	95.11	0
1	86243	95.21	0
1	86334	95.31	0
1	86425	95.41	0
1	86516	95.51	0
1	86607	95.61	0
1	86698	95.71	0
1	86789	95.81	0
1	86880	95.91	0
1	86974	96.01	0
1	87065	96.11	0
1	87156	96.21	0
1	87247	96.31	0
1	87338	96.41	0
1	87429	96.51	0
1	87520	96.61	0
1	87611	96.71	0
1	87702	96.81	0
1	87793	96.91	0
1	87887	97.01	0
1	87978	97.11	0
1	88069	97.21	0
1	88160	97.31	0
1	88251	97.41	0
1	88342	97.51	0
1	88433	97.61	0
1	88524	97.71	0
1	88615	97.81	0
1	88706	97.91	0
1	88800	98.01	0
1	88891	98.11	0
1	88982	98.21	0
1	89073	98.31	0
1	89164	98.41	0
1	89255	98.51	0
1	89346	98.61	0
1	89437	98.71	0
1	89528	98.81	0
1	89619	98.91	0
1	89713	99.01	0
1	89804	99.11	0
1	89895	99.21	0
1	89986	99.31	0
1	90077	99.41	0
1	90168	99.51	0
1	90259	99.61	0
1	90350	99.71	0
1	90441	99.81	0
1	90532	99.91	0
2	113	1.11	0
2	204	1.21	0
2	295	1.31	0
2	386	1.41	0
2	477	1.51	0
2	568	1.61	0
2	659	1.71	0
2	750	1.81	0
2	841	1.91	0
2	935	2.01	0
2	1026	2.11	0
2	1117	2.21	0
2	1208	2.31	0
2	1299	2.41	0
2	1390	2.51	0
2	1481	2.61	0
2	1572	2.71	0
2	1663	2.81	0
2	1754	2.91	0
2	1848	3.01	0
2	1939	3.11	0
2	2030	3.21	0
2	2121	3.31	0
2	2212	3.41	0
2	2303	3.51	0
2	2394	3.61	0
2	2485	3.71	0
2	2576	3.81	0
2	2667	3.91	0
2	2761	4.01	0
2	2852	4.11	0
2	2943	4.21	0
2	3034	4.31	0
2	3125	4.41	0
2	3216	4.51	0
2	3307	4.61	0
2	3398	4.71	0
2	3489	4.81	0
2	3580	4.91	0
2	3674	5.01	0
2	3765	5.11	0
2	3856	5.21	0
2	3947	5.31	0
2	4038	5.41	0
2	4129	5.51	0
2	4220	5.61	0
2	4311	5.71	0
2	4402	5.81	0
2	4493	5.91	0
2	4587	6.01	0
2	4678	6.11	0
2	4769	6.21	0
2	4860	6.31	0
2	4951	6.41	0
2	5042	6.51	0
2	5133	6.61	0
2	5224	6.71	0
2	5315	6.81	0
2	5406	6.91	0
2	5500	7.01	0
2	5591	7.11	0
2	5682	7.21	0
2	5773	7.31	0
2	5864	7.41	0
2	5955	7.51	0
2	6046	7.61	0
2	6137	7.71	0
2	6228	7.81	0
2	6319	7.91	0
2	6413	8.01	0
2	6504	8.11	0
2	6595	8.21	0
2	6686	8.31	0
2	6777	8.41	0
2	6868	8.51	0
2	6959	8.61	0
2	7050	8.71	0
2	7141	8.81	0
2	7232	8.91	0
2	7326	9.01	0
2	7417	9.11	0
2	7508	9.21	0
2	7599	9.31	0
2	7690	9.41	0
2	7781	9.51	0
2	7872	9.61	0
2	7963	9.71	0
2	8054	9.81	0
2	8145	9.91	0
2	8456	10.01	0
2	8547	10.11	0
2	8638	10.21	0
2	8729	10.31	0
2	8820	10.41	0
2	8911	10.51	0
2	9002	10.61	0
2	9093	10.71	0
2	9184	10.81	0
2	9275	10.91	0
2	9369	11.01	0
2	9460	11.11	0
2	9551	11.21	0
2	9642	11.31	0
2	9733	11.41	0
2	9824	11.51	0
2	9915	11.61	0
2	10006	11.71	0
2	10097	11.81	0
2	10188	11.91	0
2	10282	12.01	0
2	10373	12.11	0
2	10464	12.21	0
2	10555	12.31	0
2	10646	12.41	0
2	10737	12.51	0
2	10828	12.61	0
2	10919	12.71	0
2	11010	12.81	0
2	11101	12.91	0
2	11195	13.01	0
2	11286	13.11	0
2	11377	13.21	0
2	11468	13.31	0
2	11559	13.41	0
2	11650	13.51	0
2	11741	13.61	0
2	11832	13.71	0
2	11923	13.81	0
2	12014	13.91	0
2	12108	14.01	0
2	12199	14.11	0
2	12290	14.21	0
2	12381	14.31	0
2	12472	14.41	0
2	12563	14.51	0
2	12654	14.61	0
2	12745	14.71	0
2	12836	14.81	0
2	12927	14.91	0
2	13021	15.01	0
2	13112	15.11	0
2	13203	15.21	0
2	13294	15.31	0
2	13385	15.41	0
2	13476	15.51	0
2	13567	15.61	0
2	13658	15.71	0
2	13749	15.81	0
2	13840	15.91	0
2	13934	16.01	0
2	14025	16.11	0
2	14116	16.21	0
2	14207	16.31	0
2	14298	16.41	0
2	14389	16.51	0
2	14480	16.61	0
2	14571	16.71	0
2	14662	16.81	0
2	14753	16.91	0
2	14847	17.01	0
2	14938	17.11	0
2	15029	17.21	0
2	15120	17.31	0
2	15211	17.41	0
2	15302	17.51	0
2	15393	17.61	0
2	15484	17.71	0
2	15575	17.81	0
2	15666	17.91	0
2	15760	18.01	0
2	15851	18.11	0
2	15942	18.21	0
2	16033	18.31	0
2	16124	18.41	0
2	16215	18.51	0
2	16306	18.61	0
2	16397	18.71	0
2	16488	18.81	0
2	16579	18.91	0
2	16673	19.01	0
2	16764	19.11	0
2	16855	19.21	0
2	16946	19.31	0
2	17037	19.41	0
2	17128	19.51	0
2	17219	19.61	0
2	17310	19.71	0
2	17401	19.81	0
2	17492	19.91	0
2	17586	20.01	0
2	17677	20.11	0
2	17768	20.21	0
2	17859	20.31	0
2	17950	20.41	0
2	18041	20.51	0
2	18132	20.61	0
2	18223	20.71	0
2	18314	20.81	0
2	18405	20.91	0
2	18499	21.01	0
2	18590	21.11	0
2	18681	21.21	0
2	18772	21.31	0
2	18863	21.41	0
2	18954	21.51	0
2	19045	21.61	0
2	19136	21.71	0
2	19227	21.81	0
2	19318	21.91	0
2	19412	22.01	0
2	19503	22.11	0
2	19594	22.21	0
2	19685	22.31	0
2	19776	22.41	0
2	19867	22.51	0
2	19958	22.61	0
2	20049	22.71	0
2	20140	22.81	0
2	20231	22.91	0
2	20325	23.01	0
2	20416	23.11	0
2	20507	23.21	0
2	20598	23.31	0
2	20689	23.41	0
2	20780	23.51	0
2	20871	23.61	0
2	20962	23.71	0
2	21053	23.81	0
2	21144	23.91	0
2	21238	24.01	0
2	21329	24.11	0
2	21420	24.21	0
2	21511	24.31	0
2	21602	24.41	0
2	21693	24.51	0
2	21784	24.61	0
2	21875	24.71	0
2	21966	24.81	0
2	22057	24.91	0
2	22151	25.01	0
2	22242	25.11	0
2	22333	25.21	0
2	22424	25.31	0
2	22515	25.41	0
2	22606	25.51	0
2	22697	25.61	0
2	22788	25.71	0
2	22879	25.81	0
2	22970	25.91	0
2	23064	26.01	0
2	23155	26.11	0
2	23246	26.21	0
2	23337	26.31	0
2	23428	26.41	0
2	23519	26.51	0
2	23610	26.61	0
2	23701	26.71	0
2	23792	26.81	0
2	23883	26.91	0
2	23977	27.01	0
2	24068	27.11	0
2	24159	27.21	0
2	24250	27.31	0
2	24341	27.41	0
2	24432	27.51	0
2	24523	27.61	0
2	24614	27.71	0
2	24705	27.81	0
2	24796	27.91	0
2	24890	28.01	0
2	24981	28.11	0
2	25072	28.21	0
2	25163	28.31	0
2	25254	28.41	0
2	25345	28.51	0
2	25436	28.61	0
2	25527	28.71	0
2	25618	28.81	0
2	25709	28.91	0
2	25803	29.01	0
2	25894	29.11	0
2	25985	29.21	0
2	26076	29.31	0
2	26167	29.41	0
2	26258	29.51	0
2	26349	29.61	0
2	26440	29.71	0
2	26531	29.81	0
2	26622	29.91	0
2	26716	30.01	0
2	26807	30.11	0
2	26898	30.21	0
2	26989	30.31	0
2	27080	30.41	0
2	27171	30.51	0
2	27262	30.61	0
2	27353	30.71	0
2	27444	30.81	0
2	27535	30.91	0
2	27629	31.01	0
2	27720	31.11	0
2	27811	31.21	0
2	27902	31.31	0
2	27993	31.41	0
2	28084	31.51	0
2	28175	31.61	0
2	28266	31.71	0
2	28357	31.81	0
2	28448	31.91	0
2	28542	32.01	0
2	28633	32.11	0
2	28724	32.21	0
2	28815	32.31	0
2	28906	32.41	0
2	28997	32.51	0
2	29088	32.61	0
2	29179	32.71	0
2	29270	32.81	0
2	29361	32.91	0
2	29455	33.01	0
2	29546	33.11	0
2	29637	33.21	0
2	29728	33.31	0
2	29819	33.41	0
2	29910	33.51	0
2	30001	33.61	0
2	30092	33.71	0
2	30183	33.81	0
2	30274	33.91	0
2	30368	34.01	0
2	30459	34.11	0
2	30550	34.21	0
2	30641	34.31	0
2	30732	34.41	0
2	30823	34.51	0
2	30914	34.61	0
2	31005	34.71	0
2	31096	34.81	0
2	31187	34.91	0
2	31281	35.01	0
2	31372	35.11	0
2	31463	35.21	0
2	31554	35.31	0
2	31645	35.41	0
2	31736	35.51	0
2	31827	35.61	0
2	31918	35.71	0
2	32009	35.81	0
2	32100	35.91	0
2	32194	36.01	0
2	32285	36.11	0
2	32376	36.21	0
2	32467	36.31	0
2	32558	36.41	0
2	32649	36.51	0
2	32740	36.61	0
2	32831	36.71	0
2	32922	36.81	0
2	33013	36.91	0
2	33107	37.01	0
2	33198	37.11	0
2	33289	37.21	0
2	33380	37.31	0
2	33471	37.41	0
2	33562	37.51	0
2	33653	37.61	0
2	33744	37.71	0
2	33835	37.81	0
2	33926	37.91	0
2	34020	38.01	0
2	34111	38.11	0
2	34202	38.21	0
2	34293	38.31	0
2	34384	38.41	0
2	34475	38.51	0
2	34566	38.61	0
2	34657	38.71	0
2	34748	38.81	0
2	34839	38.91	0
2	34933	39.01	0
2	35024	39.11	0
2	35115	39.21	0
2	35206	39.31	0
2	35297	39.41	0
2	35388	39.51	0
2	35479	39.61	0
2	35570	39.71	0
2	35661	39.81	0
2	35752	39.91	0
2	35846	40.01	0
2	35937	40.11	0
2	36028	40.21	0
2	36119	40.31	0
2	36210	40.41	0
2	36301	40.51	0
2	36392	40.61	0
2	36483	40.71	0
2	36574	40.81	0
2	36665	40.91	0
2	36759	41.01	0
2	36850	41.11	0
2	36941	41.21	0
2	37032	41.31	0
2	37123	41.41	0
2	37214	41.51	0
2	37305	41.61	0
2	37396	41.71	0
2	37487	41.81	0
2	37578	41.91	0
2	37672	42.01	0
2	37763	42.11	0
2	37854	42.21	0
2	37945	42.31	0
2	38036	42.41	0
2	38127	42.51	0
2	38218	42.61	0
2	38309	42.71	0
2	38400	42.81	0
2	38491	42.91	0
2	38585	43.01	0
2	38676	43.11	0
2	38767	43.21	0
2	38858	43.31	0
2	38949	43.41	0
2	39040	43.51	0
2	39131	43.61	0
2	39222	43.71	0
2	39313	43.81	0
2	39404	43.91	0
2	39498	44.01	0
2	39589	44.11	0
2	39680	44.21	0
2	39771	44.31	0
2	39862	44.41	0
2	39953	44.51	0
2	40044	44.61	0
2	40135	44.71	0
2	40226	44.81	0
2	40317	44.91	0
2	40411	45.01	0
2	40502	45.11	0
2	40593	45.21	0
2	40684	45.31	0
2	40775	45.41	0
2	40866	45.51	0
2	40957	45.61	0
2	41048	45.71	0
2	41139	45.81	0
2	41230	45.91	0
2	41324	46.01	0
2	41415	46.11	0
2	41506	46.21	0
2	41597	46.31	0
2	41688	46.41	0
2	41779	46.51	0
2	41870	46.61	0
2	41961	46.71	0
2	42052	46.81	0
2	42143	46.91	0
2	42237	47.01	0
2	42328	47.11	0
2	42419	47.21	0
2	42510	47.31	0
2	42601	47.41	0
2	42692	47.51	0
2	42783	47.61	0
2	42874	47.71	0
2	42965	47.81	0
2	43056	47.91	0
2	43150	48.01	0
2	43241	48.11	0
2	43332	48.21	0
2	43423	48.31	0
2	43514	48.41	0
2	43605	48.51	0
2	43696	48.61	0
2	43787	48.71	0
2	43878	48.81	0
2	43969	48.91	0
2	44063	49.01	0
2	44154	49.11	0
2	44245	49.21	0
2	44336	49.31	0
2	44427	49.41	0
2	44518	49.51	0
2	44609	49.61	0
2	44700	49.71	0
2	44791	49.81	0
2	44882	49.91	0
2	44976	50.01	0
2	45067	50.11	0
2	45158	50.21	0
2	45249	50.31	0
2	45340	50.41	0
2	45431	50.51	0
2	45522	50.61	0
2	45613	50.71	0
2	45704	50.81	0
2	45795	50.91	0
2	45889	51.01	0
2	45980	51.11	0
2	46071	51.21	0
2	46162	51.31	0
2	46253	51.41	0
2	46344	51.51	0
2	46435	51.61	0
2	46526	51.71	0
2	46617	51.81	0
2	46708	51.91	0
2	46802	52.01	0
2	46893	52.11	0
2	46984	52.21	0
2	47075	52.31	0
2	47166	52.41	0
2	47257	52.51	0
2	47348	52.61	0
2	47439	52.71	0
2	47530	52.81	0
2	47621	52.91	0
2	47715	53.01	0
2	47806	53.11	0
2	47897	53.21	0
2	47988	53.31	0
2	48079	53.41	0
2	48170	53.51	0
2	48261	53.61	0
2	48352	53.71	0
2	48443	53.81	0
2	48534	53.91	0
2	48628	54.01	0
2	48719	54.11	0
2	48810	54.21	0
2	48901	54.31	0
2	48992	54.41	0
2	49083	54.51	0
2	49174	54.61	0
2	49265	54.71	0
2	49356	54.81	0
2	49447	54.91	0
2	49541	55.01	0
2	49632	55.11	0
2	49723	55.21	0
2	49814	55.31	0
2	49905	55.41	0
2	49996	55.51	0
2	50087	55.61	0
2	50178	55.71	0
2	50269	55.81	0
2	50360	55.91	0
2	50454	56.01	0
2	50545	56.11	0
2	50636	56.21	0
2	50727	56.31	0
2	50818	56.41	0
2	50909	56.51	0
2	51000	56.61	0
2	51091	56.71	0
2	51182	56.81	0
2	51273	56.91	0
2	51367	57.01	0
2	51458	57.11	0
2	51549	57.21	0
2	51640	57.31	0
2	51731	57.41	0
2	51822	57.51	0
2	51913	57.61	0
2	52004	57.71	0
2	52095	57.81	0
2	52186	57.91	0
2	52280	58.01	0
2	52371	58.11	0
2	52462	58.21	0
2	52553	58.31	0
2	52644	58.41	0
2	52735	58.51	0
2	52826	58.61	0
2	52917	58.71	0
2	53008	58.81	0
2	53099	58.91	0
2	53193	59.01	0
2	53284	59.11	0
2	53375	59.21	0
2	53466	59.31	0
2	53557	59.41	0
2	53648	59.51	0
2	53739	59.61	0
2	53830	59.71	0
2	53921	59.81	0
2	54012	59.91	0
2	54106	60.01	0
2	54197	60.11	0
2	54288	60.21	0
2	54379	60.31	0
2	54470	60.41	0
2	54561	60.51	0
2	54652	60.61	0
2	54743	60.71	0
2	54834	60.81	0
2	54925	60.91	0
2	55019	61.01	0
2	55110	61.11	0
2	55201	61.21	0
2	55292	61.31	0
2	55383	61.41	0
2	55474	61.51	0
2	55565	61.61	0
2	55656	61.71	0
2	55747	61.81	0
2	55838	61.91	0
2	55932	62.01	0
2	56023	62.11	0
2	56114	62.21	0
2	56205	62.31	0
2	56296	62.41	0
2	56387	62.51	0
2	56478	62.61	0
2	56569	62.71	0
2	56660	62.81	0
2	56751	62.91	0
2	56845	63.01	0
2	56936	63.11	0
2	57027	63.21	0
2	57118	63.31	0
2	57209	63.41	0
2	57300	63.51	0
2	57391	63.61	0
2	57482	63.71	0
2	57573	63.81	0
2	57664	63.91	0
2	57758	64.01	0
2	57849	64.11	0
2	57940	64.21	0
2	58031	64.31	0
2	58122	64.41	0
2	58213	64.51	0
2	58304	64.61	0
2	58395	64.71	0
2	58486	64.81	0
2	58577	64.91	0
2	58671	65.01	0
2	58762	65.11	0
2	58853	65.21	0
2	58944	65.31	0
2	59035	65.41	0
2	59126	65.51	0
2	59217	65.61	0
2	59308	65.71	0
2	59399	65.81	0
2	59490	65.91	0
2	59584	66.01	0
2	59675	66.11	0
2	59766	66.21	0
2	59857	66.31	0
2	59948	66.41	0
2	60039	66.51	0
2	60130	66.61	0
2	60221	66.71	0
2	60312	66.81	0
2	60403	66.91	0
2	60497	67.01	0
2	60588	67.11	0
2	60679	67.21	0
2	60770	67.31	0
2	60861	67.41	0
2	60952	67.51	0
2	61043	67.61	0
2	61134	67.71	0
2	61225	67.81	0
2	61316	67.91	0
2	61410	68.01	0
2	61501	68.11	0
2	61592	68.21	0
2	61683	68.31	0
2	61774	68.41	0
2	61865	68.51	0
2	61956	68.61	0
2	62047	68.71	0
2	62138	68.81	0
2	62229	68.91	0
2	62323	69.01	0
2	62414	69.11	0
2	62505	69.21	0
2	62596	69.31	0
2	62687	69.41	0
2	62778	69.51	0
2	62869	69.61	0
2	62960	69.71	0
2	63051	69.81	0
2	63142	69.91	0
2	63236	70.01	0
2	63327	70.11	0
2	63418	70.21	0
2	63509	70.31	0
2	63600	70.41	0
2	63691	70.51	0
2	63782	70.61	0
2	63873	70.71	0
2	63964	70.81	0
2	64055	70.91	0
2	64149	71.01	0
2	64240	71.11	0
2	64331	71.21	0
2	64422	71.31	0
2	64513	71.41	0
2	64604	71.51	0
2	64695	71.61	0
2	64786	71.71	0
2	64877	71.81	0
2	64968	71.91	0
2	65062	72.01	0
2	65153	72.11	0
2	65244	72.21	0
2	65335	72.31	0
2	65426	72.41	0
2	65517	72.51	0
2	65608	72.61	0
2	65699	72.71	0
2	65790	72.81	0
2	65881	72.91	0
2	65975	73.01	0
2	66066	73.11	0
2	66157	73.21	0
2	66248	73.31	0
2	66339	73.41	0
2	66430	73.51	0
2	66521	73.61	0
2	66612	73.71	0
2	66703	73.81	0
2	66794	73.91	0
2	66888	74.01	0
2	66979	74.11	0
2	67070	74.21	0
2	67161	74.31	0
2	67252	74.41	0
2	67343	74.51	0
2	67434	74.61	0
2	67525	74.71	0
2	67616	74.81	0
2	67707	74.91	0
2	67801	75.01	0
2	67892	75.11	0
2	67983	75.21	0
2	68074	75.31	0
2	68165	75.41	0
2	68256	75.51	0
2	68347	75.61	0
2	68438	75.71	0
2	68529	75.81	0
2	68620	75.91	0
2	68714	76.01	0
2	68805	76.11	0
2	68896	76.21	0
2	68987	76.31	0
2	69078	76.41	0
2	69169	76.51	0
2	69260	76.61	0
2	69351	76.71	0
2	69442	76.81	0
2	69533	76.91	0
2	69627	77.01	0
2	69718	77.11	0
2	69809	77.21	0
2	69900	77.31	0
2	69991	77.41	0
2	70082	77.51	0
2	70173	77.61	0
2	70264	77.71	0
2	70355	77.81	0
2	70446	77.91	0
2	70540	78.01	0
2	70631	78.11	0
2	70722	78.21	0
2	70813	78.31	0
2	70904	78.41	0
2	70995	78.51	0
2	71086	78.61	0
2	71177	78.71	0
2	71268	78.81	0
2	71359	78.91	0
2	71453	79.01	0
2	71544	79.11	0
2	71635	79.21	0
2	71726	79.31	0
2	71817	79.41	0
2	71908	79.51	0
2	71999	79.61	0
2	72090	79.71	0
2	72181	79.81	0
2	72272	79.91	0
2	72366	80.01	0
2	72457	80.11	0
2	72548	80.21	0
2	72639	80.31	0
2	72730	80.41	0
2	72821	80.51	0
2	72912	80.61	0
2	73003	80.71	0
2	73094	80.81	0
2	73185	80.91	0
2	73279	81.01	0
2	73370	81.11	0
2	73461	81.21	0
2	73552	81.31	0
2	73643	81.41	0
2	73734	81.51	0
2	73825	81.61	0
2	73916	81.71	0
2	74007	81.81	0
2	74098	81.91	0
2	74192	82.01	0
2	74283	82.11	0
2	74374	82.21	0
2	74465	82.31	0
2	74556	82.41	0
2	74647	82.51	0
2	74738	82.61	0
2	74829	82.71	0
2	74920	82.81	0
2	75011	82.91	0
2	75105	83.01	0
2	75196	83.11	0
2	75287	83.21	0
2	75378	83.31	0
2	75469	83.41	0
2	75560	83.51	0
2	75651	83.61	0
2	75742	83.71	0
2	75833	83.81	0
2	75924	83.91	0
2	76018	84.01	0
2	76109	84.11	0
2	76200	84.21	0
2	76291	84.31	0
2	76382	84.41	0
2	76473	84.51	0
2	76564	84.61	0
2	76655	84.71	0
2	76746	84.81	0
2	76837	84.91	0
2	76931	85.01	0
2	77022	85.11	0
2	77113	85.21	0
2	77204	85.31	0
2	77295	85.41	0
2	77386	85.51	0
2	77477	85.61	0
2	77568	85.71	0
2	77659	85.81	0
2	77750	85.91	0
2	77844	86.01	0
2	77935	86.11	0
2	78026	86.21	0
2	78117	86.31	0
2	78208	86.41	0
2	78299	86.51	0
2	78390	86.61	0
2	78481	86.71	0
2	78572	86.81	0
2	78663	86.91	0
2	78757	87.01	0
2	78848	87.11	0
2	78939	87.21	0
2	79030	87.31	0
2	79121	87.41	0
2	79212	87.51	0
2	79303	87.61	0
2	79394	87.71	0
2	79485	87.81	0
2	79576	87.91	0
2	79670	88.01	0
2	79761	88.11	0
2	79852	88.21	0
2	79943	88.31	0
2	80034	88.41	0
2	80125	88.51	0
2	80216	88.61	0
2	80307	88.71	0
2	80398	88.81	0
2	80489	88.91	0
2	80583	89.01	0
2	80674	89.11	0
2	80765	89.21	0
2	80856	89.31	0
2	80947	89.41	0
2	81038	89.51	0
2	81129	89.61	0
2	81220	89.71	0
2	81311	89.81	0
2	81402	89.91	0
2	81496	90.01	0
2	81587	90.11	0
2	81678	90.21	0
2	81769	90.31	0
2	81860	90.41	0
2	81951	90.51	0
2	82042	90.61	0
2	82133	90.71	0
2	82224	90.81	0
2	82315	90.91	0
2	82409	91.01	0
2	82500	91.11	0
2	82591	91.21	0
2	82682	91.31	0
2	82773	91.41	0
2	82864	91.51	0
2	82955	91.61	0
2	83046	91.71	0
2	83137	91.81	0
2	83228	91.91	0
2	83322	92.01	0
2	83413	92.11	0
2	83504	92.21	0
2	83595	92.31	0
2	83686	92.41	0
2	83777	92.51	0
2	83868	92.61	0
2	83959	92.71	0
2	84050	92.81	0
2	84141	92.91	0
2	84235	93.01	0
2	84326	93.11	0
2	84417	93.21	0
2	84508	93.31	0
2	84599	93.41	0
2	84690	93.51	0
2	84781	93.61	0
2	84872	93.71	0
2	84963	93.81	0
2	85054	93.91	0
2	85148	94.01	0
2	85239	94.11	0
2	85330	94.21	0
2	85421	94.31	0
2	85512	94.41	0
2	85603	94.51	0
2	85694	94.61	0
2	85785	94.71	0
2	85876	94.81	0
2	85967	94.91	0
2	86061	95.01	0
2	86152	95.11	0
2	86243	95.21	0
2	86334	95.31	0
2	86425	95.41	0
2	86516	95.51	0
2	86607	95.61	0
2	86698	95.71	0
2	86789	95.81	0
2	86880	95.91	0
2	86974	96.01	0
2	87065	96.11	0
2	87156	96.21	0
2	87247	96.31	0
2	87338	96.41	0
2	87429	96.51	0
2	87520	96.61	0
2	87611	96.71	0
2	87702	96.81	0
2	87793	96.91	0
2	87887	97.01	0
2	87978	97.11	0
2	88069	97.21	0
2	88160	97.31	0
2	88251	97.41	0
2	88342	97.51	0
2	88433	97.61	0
2	88524	97.71	0
2	88615	97.81	0
2	88706	97.91	0
2	88800	98.01	0
2	88891	98.11	0
2	88982	98.21	0
2	89073	98.31	0
2	89164	98.41	0
2	89255	98.51	0
2	89346	98.61	0
2	89437	98.71	0
2	89528	98.81	0
2	89619	98.91	0
2	89713	99.01	0
2	89804	99.11	0
2	89895	99.21	0
2	89986	99.31	0
2	90077	99.41	0
2	90168	99.51	0
2	90259	99.61	0
2	90350	99.71	0
2	90441	99.81	0
2	90532	99.91	0
3	113	1.11	0.000179096
3	204	1.21	0.000340852
3	295	1.31	0.000467435
3	386	1.41	0.000562893
3	477	1.51	0.000631106
3	568	1.61	0.000675745
3	659	1.71	0.000700245
3	750	1.81	0.000707784
3	841	1.91	0.000701273
3	935	2.01	0.000683354
3	1026	2.11	0.000656398
3	1117	2.21	0.000622512
3	1208	2.31	0.000583548
3	1299	2.41	0.000541117
3	1390	2.51	0.000496604
3	1481	2.61	0.000451181
3	1572	2.71	0.000405825
3	1663	2.81	0.00036134
3	1754	2.91	0.000318365
3	1848	3.01	0.0002774
3	1939	3.11	0.00023882
3	2030	3.21	0.000202887
3	2121	3.31	0.00016977
3	2212	3.41	0.000139558
3	2303	3.51	0.000112271
3	2394	3.61	8.78717e-05
3	2485	3.71	6.628e-05
3	2576	3.81	4.73785e-05
3	2667	3.91	3.1023e-05
3	2761	4.01	1.70493e-05
3	2852	4.11	5.28023e-06
3	2943	4.21	-4.46922e-06
3	3034	4.31	-1.2387e-05
3	3125	4.41	-1.86602e-05
3	3216	4.51	-2.34717e-05
3	3307	4.61	-2.69978e-05
3	3398	4.71	-2.94062e-05
3	3489	4.81	-3.08545e-05
3	3580	4.91	-3.14892e-05
3	3674	5.01	-3.14451e-05
3	3765	5.11	-3.0845e-05
3	3856	5.21	-2.97994e-05
3	3947	5.31	-2.84072e-05
3	4038	5.41	-2.67556e-05
3	4129	5.51	-2.49208e-05
3	4220	5.61	-2.29687e-05
3	4311	5.71	-2.09553e-05
3	4402	5.81	-1.89277e-05
3	4493	5.91	-1.6925e-05
3	4587	6.01	-1.49784e-05
3	4678	6.11	-1.31129e-05
3	4769	6.21	-1.13474e-05
3	4860	6.31	-9.69553e-06
3	4951	6.41	-8.16651e-06
3	5042	6.51	-6.76571e-06
3	5133	6.61	-5.49522e-06
3	5224	6.71	-4.35441e-06
3	5315	6.81	-3.34045e-06
3	5406	6.91	-2.44874e-06
3	5500	7.01	-1.6733e-06
3	5591	7.11	-1.00716e-06
3	5682	7.21	-4.42628e-07
3	5773	7.31	2.84224e-08
3	5864	7.41	4.14339e-07
3	5955	7.51	7.23492e-07
3	6046	7.61	9.6413e-07
3	6137	7.71	1.14424e-06
3	6228	7.81	1.27148e-06
3	6319	7.91	1.35305e-06
3	6413	8.01	1.3957e-06
3	6504	8.11	1.40565e-06
3	6595	8.21	1.3886e-06
3	6686	8.31	1.34971e-06
3	6777	8.41	1.2936e-06
3	6868	8.51	1.22437e-06
3	6959	8.61	1.14561e-06
3	7050	8.71	1.06046e-06
3	7141	8.81	9.71582e-07
3	7232	8.91	8.81246e-07
3	7326	9.01	7.91334e-07
3	7417	9.11	7.03381e-07
3	7508	9.21	6.18613e-07
3	7599	9.31	5.37979e-07
3	7690	9.41	4.62183e-07
3	7781	9.51	3.91714e-07
3	7872	9.61	3.26878e-07
3	7963	9.71	2.67827e-07
3	8054	9.81	2.14581e-07
3	8145	9.91	1.67052e-07
3	8456	10.01	1.25066e-07
3	8547	10.11	8.83794e-08
3	8638	10.21	5.66978e-08
3	8729	10.31	2.96922e-08
3	8820	10.41	7.00453e-09
3	8911	10.51	-1.17325e-08
3	9002	10.61	-2.68933e-08
3	9093	10.71	-3.88482e-08
3	9184	10.81	-4.79581e-08
3	9275	10.91	-5.45704e-08
3	9369	11.01	-5.90177e-08
3	9460	11.11	-6.16069e-08
3	9551	11.21	-6.26265e-08
3	9642	11.31	-6.23395e-08
3	9733	11.41	-6.09859e-08
3	9824	11.51	-5.87811e-08
3	9915	11.61	-5.59183e-08
3	10006	11.71	-5.25674e-08
3	10097	11.81	-4.88761e-08
3	10188	11.91	-4.4971e-08
3	10282	12.01	-4.09599e-08
3	10373	12.11	-3.69354e-08
3	10464	12.21	-3.29713e-08
3	10555	12.31	-2.9128e-08
3	10646	12.41	-2.54531e-08
3	10737	12.51	-2.19821e-08
3	10828	12.61	-1.87399e-08
3	10919	12.71	-1.57428e-08
3	11010	12.81	-1.30029e-08
3	11101	12.91	-1.05217e-08
3	11195	13.01	-8.29772e-09
3	11286	13.11	-6.32454e-09
3	11377	13.21	-4.59224e-09
3	11468	13.31	-3.08802e-09
3	11559	13.41	-1.79838e-09
3	11650	13.51	-7.08411e-10
3	11741	13.61	1.98241e-10
3	11832	13.71	9.37916e-10
3	11923	13.81	1.52767e-09
3	12014	13.91	1.98384e-09
3	12108	14.01	2.32276e-09
3	12199	14.11	2.55937e-09
3	12290	14.21	2.70788e-09
3	12381	14.31	2.78249e-09
3	12472	14.41	2.79243e-09
3	12563	14.51	2.7498e-09
3	12654	14.61	2.66525e-09
3	12745	14.71	2.54872e-09
3	12836	14.81	2.40803e-09
3	12927	14.91	2.24887e-09
3	13021	15.01	2.07763e-09
3	13112	15.11	1.89999e-09
3	13203	15.21	1.72236e-09
3	13294	15.31	1.54472e-09
3	13385	15.41	1.37064e-09
3	13476	15.51	1.20295e-09
3	13567	15.61	1.04379e-09
3	13658	15.71	8.94573e-10
3	13749	15.81	7.56017e-10
3	13840	15.91	6.29541e-10
3	13934	16.01	5.13012e-10
3	14025	16.11	4.09273e-10
3	14116	16.21	3.16902e-10
3	14207	16.31	2.3519e-10
3	14298	16.41	1.63425e-10
3	14389	16.51	1.02318e-10
3	14480	16.61	4.9738e-11
3	14571	16.71	5.68434e-12
3	14662	16.81	-3.05533e-11
3	14753	16.91	-5.8975e-11
3	14847	17.01	-8.10019e-11
3	14938	17.11	-9.80549e-11
3	15029	17.21	-1.11555e-10
3	15120	17.31	-1.18661e-10
3	15211	17.41	-1.23634e-10
3	15302	17.51	-1.23634e-10
3	15393	17.61	-1.23634e-10
3	15484	17.71	-1.21503e-10
3	15575	17.81	-1.14397e-10
3	15666	17.91	-1.07292e-10
3	15760	18.01	-1.00187e-10
3	15851	18.11	-9.30811e-11
3	15942	18.21	-8.59757e-11
3	16033	18.31	-7.88702e-11
3	16124	18.41	-7.17648e-11
3	16215	18.51	-6.46594e-11
3	16306	18.61	-5.7554e-11
3	16397	18.71	-5.04485e-11
3	16488	18.81	-4.33431e-11
3	16579	18.91	-3.62377e-11
3	16673	19.01	-2.91323e-11
3	16764	19.11	-2.20268e-11
3	16855	19.21	-1.7053e-11
3	16946	19.31	-1.49214e-11
3	17037	19.41	-1.35003e-11
3	17128	19.51	-1.27898e-11
3	17219	19.61	-1.13687e-11
3	17310	19.71	-9.9476e-12
3	17401	19.81	-9.23706e-12
3	17492	19.91	-8.52651e-12
3	17586	20.01	-7.81597e-12
3	17677	20.11	-7.10543e-12
3	17768	20.21	-6.39488e-12
3	17859	20.31	-5.68434e-12
3	17950	20.41	-4.9738e-12
3	18041	20.51	-4.26326e-12
3	18132	20.61	-4.26326e-12
3	18223	20.71	-3.55271e-12
3	18314	20.81	-3.55271e-12
3	18405	20.91	-2.84217e-12
3	18499	21.01	-2.84217e-12
3	18590	21.11	-2.84217e-12
3	18681	21.21	-2.13163e-12
3	18772	21.31	-2.13163e-12
3	18863	21.41	-2.13163e-12
3	18954	21.51	-1.42109e-12
3	19045	21.61	-1.42109e-12
3	19136	21.71	-1.42109e-12
3	19227	21.81	-1.42109e-12
3	19318	21.91	-1.42109e-12
3	19412	22.01	-7.10543e-13
3	19503	22.11	-7.10543e-13
3	19594	22.21	-7.10543e-13
3	19685	22.31	-7.10543e-13
3	19776	22.41	-7.10543e-13
3	19867	22.51	-7.10543e-13
3	19958	22.61	-7.10543e-13
3	20049	22.71	-7.10543e-13
3	20140	22.81	-7.10543e-13
3	20231	22.91	-7.10543e-13
3	20325	23.01	0
3	20416	23.11	0
3	20507	23.21	0
3	20598	23.31	0
3	20689	23.41	0
3	20780	23.51	0
3	20871	23.61	0
3	20962	23.71	0
3	21053	23.81	0
3	21144	23.91	0
3	21238	24.01	0
3	21329	24.11	0
3	21420	24.21	0
3	21511	24.31	0
3	21602	24.41	0
3	21693	24.51	0
3	21784	24.61	0
3	21875	24.71	0
3	21966	24.81	0
3	22057	24.91	0
3	22151	25.01	0
3	22242	25.11	0
3	22333	25.21	0
3	22424	25.31	0
3	22515	25.41	0
3	22606	25.51	0
3	22697	25.61	0
3	22788	25.71	0
3	22879	25.81	0
3	22970	25.91	0
3	23064	26.01	0
3	23155	26.11	0
3	23246	26.21	0
3	23337	26.31	0
3	23428	26.41	0
3	23519	26.51	0
3	23610	26.61	0
3	23701	26.71	0
3	23792	26.81	0
3	23883	26.91	0
3	23977	27.01	0
3	24068	27.11	0
3	24159	27.21	0
3	24250	27.31	0
3	24341	27.41	0
3	24432	27.51	0
3	24523	27.61	0
3	24614	27.71	0
3	24705	27.81	0
3	24796	27.91	0
3	24890	28.01	0
3	24981	28.11	0
3	25072	28.21	0
3	25163	28.31	0
3	25254	28.41	0
3	25345	28.51	0
3	25436	28.61	0
3	25527	28.71	0
3	25618	28.81	0
3	25709	28.91	0
3	25803	29.01	0
3	25894	29.11	0
3	25985	29.21	0
3	26076	29.31	0
3	26167	29.41	0
3	26258	29.51	0
3	26349	29.61	0
3	26440	29.71	0
3	26531	29.81	0
3	26622	29.91	0
3	26716	30.01	0
3	26807	30.11	0
3	26898	30.21	0
3	26989	30.31	0
3	27080	30.41	0
3	27171	30.51	0
3	27262	30.61	0
3	27353	30.71	0
3	27444	30.81	0
3	27535	30.91	0
3	27629	31.01	0
3	27720	31.11	0
3	27811	31.21	0
3	27902	31.31	0
3	27993	31.41	0
3	28084	31.51	0
3	28175	31.61	0
3	28266	31.71	0
3	28357	31.81	0
3	28448	31.91	0
3	28542	32.01	0
3	28633	32.11	0
3	28724	32.21	0
3	28815	32.31	0
3	28906	32.41	0
3	28997	32.51	0
3	29088	32.61	0
3	29179	32.71	0
3	29270	32.81	0
3	29361	32.91	0
3	29455	33.01	0
3	29546	33.11	0
3	29637	33.21	0
3	29728	33.31	0
3	29819	33.41	0
3	29910	33.51	0
3	30001	33.61	0
3	30092	33.71	0
3	30183	33.81	0
3	30274	33.91	0
3	30368	34.01	0
3	30459	34.11	0
3	30550	34.21	0
3	30641	34.31	0
3	30732	34.41	0
3	30823	34.51	0
3	30914	34.61	0
3	31005	34.71	0
3	31096	34.81	0
3	31187	34.91	0
3	31281	35.01	0
3	31372	35.11	0
3	31463	35.21	0
3	31554	35.31	0
3	31645	35.41	0
3	31736	35.51	0
3	31827	35.61	0
3	31918	35.71	0
3	32009	35.81	0
3	32100	35.91	0
3	32194	36.01	0
3	32285	36.11	0
3	32376	36.21	0
3	32467	36.31	0
3	32558	36.41	0
3	32649	36.51	0
3	32740	36.61	0
3	32831	36.71	0
3	32922	36.81	0
3	33013	36.91	0
3	33107	37.01	0
3	33198	37.11	0
3	33289	37.21	0
3	33380	37.31	0
3	33471	37.41	0
3	33562	37.51	0
3	33653	37.61	0
3	33744	37.71	0
3	33835	37.81	0
3	33926	37.91	0
3	34020	38.01	0
3	34111	38.11	0
3	34202	38.21	0
3	34293	38.31	0
3	34384	38.41	0
3	34475	38.51	0
3	34566	38.61	0
3	34657	38.71	0
3	34748	38.81	0
3	34839	38.91	0
3	34933	39.01	0
3	35024	39.11	0
3	35115	39.21	0
3	35206	39.31	0
3	35297	39.41	0
3	35388	39.51	0
3	35479	39.61	0
3	35570	39.71	0
3	35661	39.81	0
3	35752	39.91	0
3	35846	40.01	0
3	35937	40.11	0
3	36028	40.21	0
3	36119	40.31	0
3	36210	40.41	0
3	36301	40.51	0
3	36392	40.61	0
3	36483	40.71	0
3	36574	40.81	0
3	36665	40.91	0
3	36759	41.01	0
3	36850	41.11	0
3	36941	41.21	0
3	37032	41.31	0
3	37123	41.41	0
3	37214	41.51	0
3	37305	41.61	0
3	37396	41.71	0
3	37487	41.81	0
3	37578	41.91	0
3	37672	42.01	0
3	37763	42.11	0
3	37854	42.21	0
3	37945	42.31	0
3	38036	42.41	0
3	38127	42.51	0
3	38218	42.61	0
3	38309	42.71	0
3	38400	42.81	0
3	38491	42.91	0
3	38585	43.01	0
3	38676	43.11	0
3	38767	43.21	0
3	38858	43.31	0
3	38949	43.41	0
3	39040	43.51	0
3	39131	43.61	0
3	39222	43.71	0
3	39313	43.81	0
3	39404	43.91	0
3	39498	44.01	0
3	39589	44.11	0
3	39680	44.21	0
3	39771	44.31	0
3	39862	44.41	0
3	39953	44.51	0
3	40044	44.61	0
3	40135	44.71	0
3	40226	44.81	0
3	40317	44.91	0
3	40411	45.01	0
3	40502	45.11	0
3	40593	45.21	0
3	40684	45.31	0
3	40775	45.41	0
3	40866	45.51	0
3	40957	45.61	0
3	41048	45.71	0
3	41139	45.81	0
3	41230	45.91	0
3	41324	46.01	0
3	41415	46.11	0
3	41506	46.21	0
3	41597	46.31	0
3	41688	46.41	0
3	41779	46.51	0
3	41870	46.61	0
3	41961	46.71	0
3	42052	46.81	0
3	42143	46.91	0
3	42237	47.01	0
3	42328	47.11	0
3	42419	47.21	0
3	42510	47.31	0
3	42601	47.41	0
3	42692	47.51	0
3	42783	47.61	0
3	42874	47.71	0
3	42965	47.81	0
3	43056	47.91	0
3	43150	48.01	0
3	43241	48.11	0
3	43332	48.21	0
3	43423	48.31	0
3	43514	48.41	0
3	43605	48.51	0
3	43696	48.61	0
3	43787	48.71	0
3	43878	48.81	0
3	43969	48.91	0
3	44063	49.01	0
3	44154	49.11	0
3	44245	49.21	0
3	44336	49.31	0
3	44427	49.41	0
3	44518	49.51	0
3	44609	49.61	0
3	44700	49.71	0
3	44791	49.81	0
3	44882	49.91	0
3	44976	50.01	0
3	45067	50.11	0
3	45158	50.21	0
3	45249	50.31	0
3	45340	50.41	0
3	45431	50.51	0
3	45522	50.61	0
3	45613	50.71	0
3	45704	50.81	0
3	45795	50.91	0
3	45889	51.01	0
3	45980	51.11	0
3	46071	51.21	0
3	46162	51.31	0
3	46253	51.41	0
3	46344	51.51	0
3	46435	51.61	0
3	46526	51.71	0
3	46617	51.81	0
3	46708	51.91	0
3	46802	52.01	0
3	46893	52.11	0
3	46984	52.21	0
3	47075	52.31	0
3	47166	52.41	0
3	47257	52.51	0
3	47348	52.61	0
3	47439	52.71	0
3	47530	52.81	0
3	47621	52.91	0
3	47715	53.01	0
3	47806	53.11	0
3	47897	53.21	0
3	47988	53.31	0
3	48079	53.41	0
3	48170	53.51	0
3	48261	53.61	0
3	48352	53.71	0
3	48443	53.81	0
3	48534	53.91	0
3	48628	54.01	0
3	48719	54.11	0
3	48810	54.21	0
3	48901	54.31	0
3	48992	54.41	0
3	49083	54.51	0
3	49174	54.61	0
3	49265	54.71	0
3	49356	54.81	0
3	49447	54.91	0
3	49541	55.01	0
3	49632	55.11	0
3	49723	55.21	0
3	49814	55.31	0
3	49905	55.41	0
3	49996	55.51	0
3	50087	55.61	0
3	50178	55.71	0
3	50269	55.81	0
3	50360	55.91	0
3	50454	56.01	0
3	50545	56.11	0
3	50636	56.21	0
3	50727	56.31	0
3	50818	56.41	0
3	50909	56.51	0
3	51000	56.61	0
3	51091	56.71	0
3	51182	56.81	0
3	51273	56.91	0
3	51367	57.01	0
3	51458	57.11	0
3	51549	57.21	0
3	51640	57.31	0
3	51731	57.41	0
3	51822	57.51	0
3	51913	57.61	0
3	52004	57.71	0
3	52095	57.81	0
3	52186	57.91	0
3	52280	58.01	0
3	52371	58.11	0
3	52462	58.21	0
3	52553	58.31	0
3	52644	58.41	0
3	52735	58.51	0
3	52826	58.61	0
3	52917	58.71	0
3	53008	58.81	0
3	53099	58.91	0
3	53193	59.01	0
3	53284	59.11	0
3	53375	59.21	0
3	53466	59.31	0
3	53557	59.41	0
3	53648	59.51	0
3	53739	59.61	0
3	53830	59.71	0
3	53921	59.81	0
3	54012	59.91	0
3	54106	60.01	0
3	54197	60.11	0
3	54288	60.21	0
3	54379	60.31	0
3	54470	60.41	0
3	54561	60.51	0
3	54652	60.61	0
3	54743	60.71	0
3	54834	60.81	0
3	54925	60.91	0
3	55019	61.01	0
3	55110	61.11	0
3	55201	61.21	0
3	55292	61.31	0
3	55383	61.41	0
3	55474	61.51	0
3	55565	61.61	0
3	55656	61.71	0
3	55747	61.81	0
3	55838	61.91	0
3	55932	62.01	0
3	56023	62.11	0
3	56114	62.21	0
3	56205	62.31	0
3	56296	62.41	0
3	56387	62.51	0
3	56478	62.61	0
3	56569	62.71	0
3	56660	62.81	0
3	56751	62.91	0
3	56845	63.01	0
3	56936	63.11	0
3	57027	63.21	0
3	57118	63.31	0
3	57209	63.41	0
3	57300	63.51	0
3	57391	63.61	0
3	57482	63.71	0
3	57573	63.81	0
3	57664	63.91	0
3	57758	64.01	0
3	57849	64.11	0
3	57940	64.21	0
3	58031	64.31	0
3	58122	64.41	0
3	58213	64.51	0
3	58304	64.61	0
3	58395	64.71	0
3	58486	64.81	0
3	58577	64.91	0
3	58671	65.01	0
3	58762	65.11	0
3	58853	65.21	0
3	58944	65.31	0
3	59035	65.41	0
3	59126	65.51	0
3	59217	65.61	0
3	59308	65.71	0
3	59399	65.81	0
3	59490	65.91	0
3	59584	66.01	0
3	59675	66.11	0
3	59766	66.21	0
3	59857	66.31	0
3	59948	66.41	0
3	60039	66.51	0
3	60130	66.61	0
3	60221	66.71	0
3	60312	66.81	0
3	60403	66.91	0
3	60497	67.01	0
3	60588	67.11	0
3	60679	67.21	0
3	60770	67.31	0
3	60861	67.41	0
3	60952	67.51	0
3	61043	67.61	0
3	61134	67.71	0
3	61225	67.81	0
3	61316	67.91	0
3	61410	68.01	0
3	61501	68.11	0
3	61592	68.21	0
3	61683	68.31	0
3	61774	68.41	0
3	61865	68.51	0
3	61956	68.61	0
3	62047	68.71	0
3	62138	68.81	0
3	62229	68.91	0
3	62323	69.01	0
3	62414	69.11	0
3	62505	69.21	0
3	62596	69.31	0
3	62687	69.41	0
3	62778	69.51	0
3	62869	69.61	0
3	62960	69.71	0
3	63051	69.81	0
3	63142	69.91	0
3	63236	70.01	0
3	63327	70.11	0
3	63418	70.21	0
3	63509	70.31	0
3	63600	70.41	0
3	63691	70.51	0
3	63782	70.61	0
3	63873	70.71	0
3	63964	70.81	0
3	64055	70.91	0
3	64149	71.01	0
3	64240	71.11	0
3	64331	71.21	0
3	64422	71.31	0
3	64513	71.41	0
3	64604	71.51	0
3	64695	71.61	0
3	64786	71.71	0
3	64877	71.81	0
3	64968	71.91	0
3	65062	72.01	0
3	65153	72.11	0
3	65244	72.21	0
3	65335	72.31	0
3	65426	72.41	0
3	65517	72.51	0
3	65608	72.61	0
3	65699	72.71	0
3	65790	72.81	0
3	65881	72.91	0
3	65975	73.01	0
3	66066	73.11	0
3	66157	73.21	0
3	66248	73.31	0
3	66339	73.41	0
3	66430	73.51	0
3	66521	73.61	0
3	66612	73.71	0
3	66703	73.81	0
3	66794	73.91	0
3	66888	74.01	0
3	66979	74.11	0
3	67070	74.21	0
3	67161	74.31	0
3	67252	74.41	0
3	67343	74.51	0
3	67434	74.61	0
3	67525	74.71	0
3	67616	74.81	0
3	67707	74.91	0
3	67801	75.01	0
3	67892	75.11	0
3	67983	75.21	0
3	68074	75.31	0
3	68165	75.41	0
3	68256	75.51	0
3	68347	75.61	0
3	68438	75.71	0
3	68529	75.81	0
3	68620	75.91	0
3	68714	76.01	0
3	68805	76.11	0
3	68896	76.21	0
3	68987	76.31	0
3	69078	76.41	0
3	69169	76.51	0
3	69260	76.61	0
3	69351	76.71	0
3	69442	76.81	0
3	69533	76.91	0
3	69627	77.01	0
3	69718	77.11	0
3	69809	77.21	0
3	69900	77.31	0
3	69991	77.41	0
3	70082	77.51	0
3	70173	77.61	0
3	70264	77.71	0
3	70355	77.81	0
3	70446	77.91	0
3	70540	78.01	0
3	70631	78.11	0
3	70722	78.21	0
3	70813	78.31	0
3	70904	78.41	0
3	70995	78.51	0
3	71086	78.61	0
3	71177	78.71	0
3	71268	78.81	0
3	71359	78.91	0
3	71453	79.01	0
3	71544	79.11	0
3	71635	79.21	0
3	71726	79.31	0
3	71817	79.41	0
3	71908	79.51	0
3	71999	79.61	0
3	72090	79.71	0
3	72181	79.81	0
3	72272	79.91	0
3	72366	80.01	0
3	72457	80.11	0
3	72548	80.21	0
3	72639	80.31	0
3	72730	80.41	0
3	72821	80.51	0
3	72912	80.61	0
3	73003	80.71	0
3	73094	80.81	0
3	73185	80.91	0
3	73279	81.01	0
3	73370	81.11	0
3	73461	81.21	0
3	73552	81.31	0
3	73643	81.41	0
3	73734	81.51	0
3	73825	81.61	0
3	73916	81.71	0
3	74007	81.81	0
3	74098	81.91	0
3	74192	82.01	0
3	74283	82.11	0
3	74374	82.21	0
3	74465	82.31	0
3	74556	82.41	0
3	74647	82.51	0
3	74738	82.61	0
3	74829	82.71	0
3	74920	82.81	0
3	75011	82.91	0
3	75105	83.01	0
3	75196	83.11	0
3	75287	83.21	0
3	75378	83.31	0
3	75469	83.41	0
3	75560	83.51	0
3	75651	83.61	0
3	75742	83.71	0
3	75833	83.81	0
3	75924	83.91	0
3	76018	84.01	0
3	76109	84.11	0
3	76200	84.21	0
3	76291	84.31	0
3	76382	84.41	0
3	76473	84.51	0
3	76564	84.61	0
3	76655	84.71	0
3	76746	84.81	0
3	76837	84.91	0
3	76931	85.01	0
3	77022	85.11	0
3	77113	85.21	0
3	77204	85.31	0
3	77295	85.41	0
3	77386	85.51	0
3	77477	85.61	0
3	77568	85.71	0
3	77659	85.81	0
3	77750	85.91	0
3	77844	86.01	0
3	77935	86.11	0
3	78026	86.21	0
3	78117	86.31	0
3	78208	86.41	0
3	78299	86.51	0
3	78390	86.61	0
3	78481	86.71	0
3	78572	86.81	0
3	78663	86.91	0
3	78757	87.01	0
3	78848	87.11	0
3	78939	87.21	0
3	79030	87.31	0
3	79121	87.41	0
3	79212	87.51	0
3	79303	87.61	0
3	79394	87.71	0
3	79485	87.81	0
3	79576	87.91	0
3	79670	88.01	0
3	79761	88.11	0
3	79852	88.21	0
3	79943	88.31	0
3	80034	88.41	0
3	80125	88.51	0
3	80216	88.61	0
3	80307	88.71	0
3	80398	88.81	0
3	80489	88.91	0
3	80583	89.01	0
3	80674	89.11	0
3	80765	89.21	0
3	80856	89.31	0
3	80947	89.41	0
3	81038	89.51	0
3	81129	89.61	0
3	81220	89.71	0
3	81311	89.81	0
3	81402	89.91	0
3	81496	90.01	0
3	81587	90.11	0
3	81678	90.21	0
3	81769	90.31	0
3	81860	90.41	0
3	81951	90.51	0
3	82042	90.61	0
3	82133	90.71	0
3	82224	90.81	0
3	82315	90.91	0
3	82409	91.01	0
3	82500	91.11	0
3	82591	91.21	0
3	82682	91.31	0
3	82773	91.41	0
3	82864	91.51	0
3	82955	91.61	0
3	83046	91.71	0
3	83137	91.81	0
3	83228	91.91	0
3	83322	92.01	0
3	83413	92.11	0
3	83504	92.21	0
3	83595	92.31	0
3	83686	92.41	0
3	83777	92.51	0
3	83868	92.61	0
3	83959	92.71	0
3	84050	92.81	0
3	84141	92.91	0
3	84235	93.01	0
3	84326	93.11	0
3	84417	93.21	0
3	84508	93.31	0
3	84599	93.41	0
3	84690	93.51	0
3	84781	93.61	0
3	84872	93.71	0
3	84963	93.81	0
3	85054	93.91	0
3	85148	94.01	0
3	85239	94.11	0
3	85330	94.21	0
3	85421	94.31	0
3	85512	94.41	0
3	85603	94.51	0
3	85694	94.61	0
3	85785	94.71	0
3	85876	94.81	0
3	85967	94.91	0
3	86061	95.01	0
3	86152	95.11	0
3	86243	95.21	0
3	86334	95.31	0
3	86425	95.41	0
3	86516	95.51	0
3	86607	95.61	0
3	86698	95.71	0
3	86789	95.81	0
3	86880	95.91	0
3	86974	96.01	0
3	87065	96.11	0
3	87156	96.21	0
3	87247	96.31	0
3	87338	96.41	0
3	87429	96.51	0
3	87520	96.61	0
3	87611	96.71	0
3	87702	96.81	0
3	87793	96.91	0
3	87887	97.01	0
3	87978	97.11	0
3	88069	97.21	0
3	88160	97.31	0
3	88251	97.41	0
3	88342	97.51	0
3	88433	97.61	0
3	88524	97.71	0
3	88615	97.81	0
3	88706	97.91	0
3	88800	98.01	0
3	88891	98.11	0
3	88982	98.21	0
3	89073	98.31	0
3	89164	98.41	0
3	89255	98.51	0
3	89346	98.61	0
3	89437	98.71	0
3	89528	98.81	0
3	89619	98.91	0
3	89713	99.01	0
3	89804	99.11	0
3	89895	99.21	0
3	89986	99.31	0
3	90077	99.41	0
3	90168	99.51	0
3	90259	99.61	0
3	90350	99.71	0
3	90441	99.81	0
3	90532	99.91	0
4	113	1.11	0.00109259
4	204	1.21	0.00106709
4	295	1.31	0.00102704
4	386	1.41	0.000975759
4	477	1.51	0.00091619
4	568	1.61	0.000850891
4	659	1.71	0.000782061
4	750	1.81	0.00071157
4	841	1.91	0.00064098
4	935	2.01	0.000571575
4	1026	2.11	0.000504387
4	1117	2.21	0.000440223
4	1208	2.31	0.000379691
4	1299	2.41	0.000323223
4	1390	2.51	0.000271102
4	1481	2.61	0.000223482
4	1572	2.71	0.000180409
4	1663	2.81	0.000141839
4	1754	2.91	0.000107653
4	1848	3.01	7.76787e-05
4	1939	3.11	5.16957e-05
4	2030	3.21	2.94534e-05
4	2121	3.31	1.06787e-05
4	2212	3.41	-4.91459e-06
4	2303	3.51	-1.76184e-05
4	2394	3.61	-2.7724e-05
4	2485	3.71	-3.55168e-05
4	2576	3.81	-4.12726e-05
4	2667	3.91	-4.52541e-05
4	2761	4.01	-4.77086e-05
4	2852	4.11	-4.88665e-05
4	2943	4.21	-4.89399e-05
4	3034	4.31	-4.81224e-05
4	3125	4.41	-4.65886e-05
4	3216	4.51	-4.44947e-05
4	3307	4.61	-4.1979e-05
4	3398	4.71	-3.91623e-05
4	3489	4.81	-3.61492e-05
4	3580	4.91	-3.3029e-05
4	3674	5.01	-2.9877e-05
4	3765	5.11	-2.67554e-05
4	3856	5.21	-2.37147e-05
4	3947	5.31	-2.07949e-05
4	4038	5.41	-1.80267e-05
4	4129	5.51	-1.54325e-05
4	4220	5.61	-1.30275e-05
4	4311	5.71	-1.0821e-05
4	4402	5.81	-8.81673e-06
4	4493	5.91	-7.01443e-06
4	4587	6.01	-5.4101e-06
4	4678	6.11	-3.99696e-06
4	4769	6.21	-2.766e-06
4	4860	6.31	-1.70658e-06
4	4951	6.41	-8.06872e-07
4	5042	6.51	-5.43281e-08
4	5133	6.61	5.63994e-07
4	5224	6.71	1.06112e-06
4	5315	6.81	1.4499e-06
4	5406	6.91	1.74283e-06
4	5500	7.01	1.95188e-06
4	5591	7.11	2.08836e-06
4	5682	7.21	2.16287e-06
4	5773	7.31	2.1852e-06
4	5864	7.41	2.16432e-06
4	5955	7.51	2.10838e-06
4	6046	7.61	2.02467e-06
4	6137	7.71	1.91968e-06
4	6228	7.81	1.79913e-06
4	6319	7.91	1.66796e-06
4	6413	8.01	1.53044e-06
4	6504	8.11	1.39018e-06
4	6595	8.21	1.25018e-06
4	6686	8.31	1.11291e-06
4	6777	8.41	9.80339e-07
4	6868	8.51	8.54002e-07
4	6959	8.61	7.35044e-07
4	7050	8.71	6.24274e-07
4	7141	8.81	5.22206e-07
4	7232	8.91	4.2911e-07
4	7326	9.01	3.45041e-07
4	7417	9.11	2.69888e-07
4	7508	9.21	2.03394e-07
4	7599	9.31	1.45199e-07
4	7690	9.41	9.48539e-08
4	7781	9.51	5.18526e-08
4	7872	9.61	1.56462e-08
4	7963	9.71	-1.43366e-08
4	8054	9.81	-3.86756e-08
4	8145	9.91	-5.79483e-08
4	8456	10.01	-7.27191e-08
4	8547	10.11	-8.35328e-08
4	8638	10.21	-9.09047e-08
4	8729	10.31	-9.53222e-08
4	8820	10.41	-9.72364e-08
4	8911	10.51	-9.7063e-08
4	9002	10.61	-9.51793e-08
4	9093	10.71	-9.19272e-08
4	9184	10.81	-8.76099e-08
4	9275	10.91	-8.24976e-08
4	9369	11.01	-7.68239e-08
4	9460	11.11	-7.07914e-08
4	9551	11.21	-6.45734e-08
4	9642	11.31	-5.83135e-08
4	9733	11.41	-5.21325e-08
4	9824	11.51	-4.6127e-08
4	9915	11.61	-4.0373e-08
4	10006	11.71	-3.49289e-08
4	10097	11.81	-2.98357e-08
4	10188	11.91	-2.51227e-08
4	10282	12.01	-2.08054e-08
4	10373	12.11	-1.6891e-08
4	10464	12.21	-1.33767e-08
4	10555	12.31	-1.02538e-08
4	10646	12.41	-7.50759e-09
4	10737	12.51	-5.12017e-09
4	10828	12.61	-3.07026e-09
4	10919	12.71	-1.33298e-09
4	11010	12.81	1.15818e-10
4	11101	12.91	1.30242e-09
4	11195	13.01	2.25242e-09
4	11286	13.11	2.99138e-09
4	11377	13.21	3.54419e-09
4	11468	13.31	3.93356e-09
4	11559	13.41	4.18297e-09
4	11650	13.51	4.31157e-09
4	11741	13.61	4.34071e-09
4	11832	13.71	4.28599e-09
4	11923	13.81	4.16449e-09
4	12014	13.91	3.99041e-09
4	12108	14.01	3.77582e-09
4	12199	14.11	3.53211e-09
4	12290	14.21	3.2685e-09
4	12381	14.31	2.99423e-09
4	12472	14.41	2.71498e-09
4	12563	14.51	2.43716e-09
4	12654	14.61	2.16573e-09
4	12745	14.71	1.90425e-09
4	12836	14.81	1.65556e-09
4	12927	14.91	1.4218e-09
4	13021	15.01	1.20437e-09
4	13112	15.11	1.00471e-09
4	13203	15.21	8.22808e-10
4	13294	15.31	6.57963e-10
4	13385	15.41	5.11591e-10
4	13476	15.51	3.82272e-10
4	13567	15.61	2.69296e-10
4	13658	15.71	1.71951e-10
4	13749	15.81	8.88178e-11
4	13840	15.91	1.84741e-11
4	13934	16.01	-3.90799e-11
4	14025	16.11	-8.52651e-11
4	14116	16.21	-1.22213e-10
4	14207	16.31	-1.49925e-10
4	14298	16.41	-1.7053e-10
4	14389	16.51	-1.84031e-10
4	14480	16.61	-1.91847e-10
4	14571	16.71	-1.94689e-10
4	14662	16.81	-1.93268e-10
4	14753	16.91	-1.89004e-10
4	14847	17.01	-1.81899e-10
4	14938	17.11	-1.73372e-10
4	15029	17.21	-1.62714e-10
4	15120	17.31	-1.51346e-10
4	15211	17.41	-1.39266e-10
4	15302	17.51	-1.26477e-10
4	15393	17.61	-1.14397e-10
4	15484	17.71	-1.02318e-10
4	15575	17.81	-9.02389e-11
4	15666	17.91	-7.88702e-11
4	15760	18.01	-6.89226e-11
4	15851	18.11	-5.8975e-11
4	15942	18.21	-4.9738e-11
4	16033	18.31	-4.1922e-11
4	16124	18.41	-3.41061e-11
4	16215	18.51	-2.70006e-11
4	16306	18.61	-2.13163e-11
4	16397	18.71	-1.56319e-11
4	16488	18.81	-1.06581e-11
4	16579	18.91	-7.10543e-12
4	16673	19.01	-3.55271e-12
4	16764	19.11	-7.10543e-13
4	16855	19.21	7.10543e-13
4	16946	19.31	2.84217e-12
4	17037	19.41	4.26326e-12
4	17128	19.51	4.9738e-12
4	17219	19.61	6.39488e-12
4	17310	19.71	7.81597e-12
4	17401	19.81	8.52651e-12
4	17492	19.91	9.23706e-12
4	17586	20.01	9.9476e-12
4	17677	20.11	1.06581e-11
4	17768	20.21	1.13687e-11
4	17859	20.31	1.20792e-11
4	17950	20.41	1.27898e-11
4	18041	20.51	1.35003e-11
4	18132	20.61	1.35003e-11
4	18223	20.71	1.42109e-11
4	18314	20.81	1.42109e-11
4	18405	20.91	1.49214e-11
4	18499	21.01	1.49214e-11
4	18590	21.11	1.49214e-11
4	18681	21.21	1.56319e-11
4	18772	21.31	1.56319e-11
4	18863	21.41	1.56319e-11
4	18954	21.51	1.63425e-11
4	19045	21.61	1.63425e-11
4	19136	21.71	1.63425e-11
4	19227	21.81	1.63425e-11
4	19318	21.91	1.63425e-11
4	19412	22.01	1.7053e-11
4	19503	22.11	1.7053e-11
4	19594	22.21	1.7053e-11
4	19685	22.31	1.7053e-11
4	19776	22.41	1.7053e-11
4	19867	22.51	1.7053e-11
4	19958	22.61	1.7053e-11
4	20049	22.71	1.7053e-11
4	20140	22.81	1.7053e-11
4	20231	22.91	1.7053e-11
4	20325	23.01	1.77636e-11
4	20416	23.11	1.77636e-11
4	20507	23.21	1.77636e-11
4	20598	23.31	1.77636e-11
4	20689	23.41	1.77636e-11
4	20780	23.51	1.77636e-11
4	20871	23.61	1.77636e-11
4	20962	23.71	1.77636e-11
4	21053	23.81	1.77636e-11
4	21144	23.91	1.77636e-11
4	21238	24.01	1.77636e-11
4	21329	24.11	1.77636e-11
4	21420	24.21	1.77636e-11
4	21511	24.31	1.77636e-11
4	21602	24.41	1.77636e-11
4	21693	24.51	1.77636e-11
4	21784	24.61	1.77636e-11
4	21875	24.71	1.77636e-11
4	21966	24.81	1.77636e-11
4	22057	24.91	1.77636e-11
4	22151	25.01	1.77636e-11
4	22242	25.11	1.77636e-11
4	22333	25.21	1.77636e-11
4	22424	25.31	1.77636e-11
4	22515	25.41	1.77636e-11
4	22606	25.51	1.77636e-11
4	22697	25.61	1.77636e-11
4	22788	25.71	1.77636e-11
4	22879	25.81	1.77636e-11
4	22970	25.91	1.77636e-11
4	23064	26.01	1.77636e-11
4	23155	26.11	1.77636e-11
4	23246	26.21	1.77636e-11
4	23337	26.31	1.77636e-11
4	23428	26.41	1.77636e-11
4	23519	26.51	1.77636e-11
[...]
31	70709	78.154482989179	2
31	70800	78.2544879761	2
31	70891	78.35447996443	2
31	70982	78.454484954168	2
31	71073	78.554476945314	2
31	71164	78.654481937868	2
31	71255	78.754486931831	2
31	71346	78.854478927203	2
31	71437	78.954483923983	2
31	71531	79.054488922171	2
31	71622	79.154480921767	2
31	71713	79.254485922773	2
31	71804	79.354477925186	2
31	71895	79.454482929008	2
31	71986	79.554487934238	2
31	72077	79.654479940876	2
31	72168	79.754484948924	2
31	72259	79.854476958379	2
31	72350	79.954481969243	2
31	72444	80.054486981514	2
31	72535	80.154478995194	2
31	72626	80.254484010283	2
31	72717	80.35448902678	2
31	72808	80.454481044686	2
31	72899	80.554486064	2
31	72990	80.654478084722	2
31	73081	80.754483106852	2
31	73172	80.854488130391	2
31	73263	80.954480155338	2
31	73357	81.054485181694	2
31	73448	81.154477209458	2
31	73539	81.25448223863	2
31	73630	81.354487269211	2
31	73721	81.4544793012	2
31	73812	81.554484334598	2
31	73903	81.654489369403	2
31	73994	81.754481405617	2
31	74085	81.85448644324	2
31	74176	81.954478482271	2
31	74270	82.054483522711	2
31	74361	82.154488564559	2
31	74452	82.254480607815	2
31	74543	82.354485652479	2
31	74634	82.454477698552	2
31	74725	82.554482746033	2
31	74816	82.654487794923	2
31	74907	82.754479845221	2
31	74998	82.854484896927	2
31	75089	82.954476950042	2
31	75183	83.054482004565	2
31	75274	83.154487060497	2
31	75365	83.254479117836	2
31	75456	83.354484176584	2
31	75547	83.454489236741	2
31	75638	83.554481298306	2
31	75729	83.65448636128	2
31	75820	83.754478425662	2
31	75911	83.854483491452	2
31	76002	83.95448855865	2
31	76096	84.054480627257	2
31	76187	84.154485697273	2
31	76278	84.254477768697	2
31	76369	84.354482841529	2
31	76460	84.454487915769	2
31	76551	84.554479991418	2
31	76642	84.654485068475	2
31	76733	84.754477146941	2
31	76824	84.854482226814	2
31	76915	84.954487308096	2
31	77009	85.054479390787	2
31	77100	85.154484474886	2
31	77191	85.254489560394	2
31	77282	85.35448164731	2
31	77373	85.454486735634	2
31	77464	85.554478825366	2
31	77555	85.654483916507	2
31	77646	85.754489009057	2
31	77737	85.854481103015	2
31	77828	85.954486198381	2
31	77922	86.054478295155	2
31	78013	86.154483393338	2
31	78104	86.254488492929	2
31	78195	86.354480593929	2
31	78286	86.454485696336	2
31	78377	86.554477800152	2
31	78468	86.654482905377	2
31	78559	86.75448801201	2
31	78650	86.854480120052	2
31	78741	86.954485229501	2
31	78835	87.054477340359	2
31	78926	87.154482452625	2
31	79017	87.2544875663	2
31	79108	87.354479681384	2
31	79199	87.454484797876	2
31	79290	87.554476915776	2
31	79381	87.654482035084	2
31	79472	87.7544871558	2
31	79563	87.854479277925	2
31	79654	87.954484401459	2
31	79748	88.054489526401	2
31	79839	88.154481652751	2
31	79930	88.25448678051	2
31	80021	88.354478909677	2
31	80112	88.454484040253	2
31	80203	88.554489172236	2
31	80294	88.654481305628	2
31	80385	88.754486440428	2
31	80476	88.854478576637	2
31	80567	88.954483714255	2
31	80661	89.054488853281	2
31	80752	89.154480993715	2
31	80843	89.254486135557	2
31	80934	89.354478278807	2
31	81025	89.454483423466	2
31	81116	89.554488569534	2
31	81207	89.65448071701	2
31	81298	89.754485865894	2
31	81389	89.854478016187	2
31	81480	89.954483167888	2
31	81574	90.054488320998	2
31	81665	90.154480475515	2
31	81756	90.254485631441	2
31	81847	90.354477788775	2
31	81938	90.454482947518	2
31	82029	90.55448810767	2
31	82120	90.65448026923	2
31	82211	90.754485432198	2
31	82302	90.854477596574	2
31	82393	90.954482762358	2
31	82487	91.054487929551	2
31	82578	91.154480098153	2
31	82669	91.254485268163	2
31	82760	91.354477439581	2
31	82851	91.454482612408	2
31	82942	91.554487786643	2
31	83033	91.654479962287	2
31	83124	91.754485139338	2
31	83215	91.854477317798	2
31	83306	91.954482497667	2
31	83400	92.054487678944	2
31	83491	92.15447986163	2
31	83582	92.254485045724	2
31	83673	92.354477231226	2
31	83764	92.454482418136	2
31	83855	92.554487606454	2
31	83946	92.654479796181	2
31	84037	92.754484987317	2
31	84128	92.854477179861	2
31	84219	92.954482373813	2
31	84313	93.054487569173	2
31	84404	93.154479765942	2
31	84495	93.25448496412	2
31	84586	93.354477163705	2
31	84677	93.454482364699	2
31	84768	93.554487567102	2
31	84859	93.654479770913	2
31	84950	93.754484976133	2
31	85041	93.85447718276	2
31	85132	93.954482390796	2
31	85226	94.05448760024	2
31	85317	94.154479811092	2
31	85408	94.254485023353	2
31	85499	94.354477237023	2
31	85590	94.454482452101	2
31	85681	94.554487668587	2
31	85772	94.654479886481	2
31	85863	94.754485105784	2
31	85954	94.854477326496	2
31	86045	94.954482548615	2
31	86139	95.054487772143	2
31	86230	95.15447999708	2
31	86321	95.254485223425	2
31	86412	95.354477451179	2
31	86503	95.45448268034	2
31	86594	95.55448791091	2
31	86685	95.654480142888	2
31	86776	95.754485376274	2
31	86867	95.85447761107	2
31	86958	95.954482847274	2
31	87052	96.054488084886	2
31	87143	96.154480323906	2
31	87234	96.254485564334	2
31	87325	96.354477806171	2
31	87416	96.454483049417	2
31	87507	96.55448829407	2
31	87598	96.654480540132	2
31	87689	96.754485787603	2
31	87780	96.854478036482	2
31	87871	96.95448328677	2
31	87965	97.054488538465	2
31	88056	97.154480791569	2
31	88147	97.254486046081	2
31	88238	97.354478302001	2
31	88329	97.454483559331	2
31	88420	97.554488818069	2
31	88511	97.654481078215	2
31	88602	97.754486339769	2
31	88693	97.854478602731	2
31	88784	97.954483867102	2
31	88878	98.054489132882	2
31	88969	98.154481400069	2
31	89060	98.254486668665	2
31	89151	98.35447893867	2
31	89242	98.454484210083	2
31	89333	98.554489482905	2
31	89424	98.654481757134	2
31	89515	98.754487032772	2
31	89606	98.854479309818	2
31	89697	98.954484588272	2
31	89791	99.054489868136	2
31	89882	99.154482149408	2
31	89973	99.254487432088	2
31	90064	99.354479716176	2
31	90155	99.454485001672	2
31	90246	99.554477288577	2
31	90337	99.654482576891	2
31	90428	99.754487866613	2
31	90519	99.854480157743	2
31	90610	99.954485450281	2
32	931	2	0
32	1844	3	0
32	2757	4	0
32	3670	5	0
32	4583	6	0
32	5496	7	0
32	6409	8	0
32	7322	9	0
32	8236	10	0
32	9365	11	0
32	10278	12	0
32	11191	13	0
32	12104	14	0
32	13017	15	0
32	13930	16	0
32	14843	17	0
32	15756	18	0
32	16669	19	0
32	17582	20	0
32	18495	21	0
32	19408	22	0
32	20321	23	0
32	21234	24	0
32	22147	25	0
32	23060	26	0
32	23973	27	0
32	24886	28	0
32	25799	29	0
32	26712	30	0
32	27625	31	0
32	28538	32	0
32	29451	33	0
32	30364	34	0
32	31277	35	0
32	32190	36	0
32	33103	37	0
32	34016	38	0
32	34929	39	0
32	35842	40	0
32	36755	41	0
32	37668	42	0
32	38581	43	0
32	39494	44	0
32	40407	45	0
32	41320	46	0
32	42233	47	0
32	43146	48	0
32	44059	49	0
32	44972	50	0
32	45885	51	0
32	46798	52	0
32	47711	53	0
32	48624	54	0
32	49537	55	0
32	50450	56	0
32	51363	57	0
32	52276	58	0
32	53189	59	0
32	54102	60	0
32	55015	61	0
32	55928	62	0
32	56841	63	0
32	57754	64	0
32	58667	65	0
32	59580	66	0
32	60493	67	0
32	61406	68	0
32	62319	69	0
32	63232	70	0
32	64145	71	0
32	65058	72	0
32	65971	73	0
32	66884	74	0
32	67797	75	0
32	68710	76	0
32	69623	77	0
32	70536	78	0
32	71449	79	0
32	72362	80	0
32	73275	81	0
32	74188	82	0
32	75101	83	0
32	76014	84	0
32	76927	85	0
32	77840	86	0
32	78753	87	0
32	79666	88	0
32	80579	89	0
32	81492	90	0
32	82405	91	0
32	83318	92	0
32	84231	93	0
32	85144	94	0
32	86057	95	0
32	86970	96	0
32	87883	97	0
32	88796	98	0
32	89709	99	0
32	90622	100	0
33	931	2	0.008433
33	1844	3	0.00937
33	2757	4	0.00937
33	3670	5	0.00937
33	4583	6	0.00937
33	5496	7	0.00937
33	6409	8	0.00937
33	7322	9	0.00937
33	8236	10	0.00937
33	9365	11	0.009997120086
33	10278	12	0.00937
33	11191	13	0.00937
33	12104	14	0.00937
33	13017	15	0.00937
33	13930	16	0.00937
33	14843	17	0.00937
33	15756	18	0.00937
33	16669	19	0.00937
33	17582	20	0.00937
33	18495	21	0.00937
33	19408	22	0.00937
33	20321	23	0.00937
33	21234	24	0.00937
33	22147	25	0.00937
33	23060	26	0.00937
33	23973	27	0.00937
33	24886	28	0.00937
33	25799	29	0.00937
33	26712	30	0.00937
33	27625	31	0.00937
33	28538	32	0.00937
33	29451	33	0.00937
33	30364	34	0.00937
33	31277	35	0.00937
33	32190	36	0.00937
33	33103	37	0.00937
33	34016	38	0.00937
33	34929	39	0.00937
33	35842	40	0.00937
33	36755	41	0.00937
33	37668	42	0.00937
33	38581	43	0.00937
33	39494	44	0.00937
33	40407	45	0.00937
33	41320	46	0.00937
33	42233	47	0.00937
33	43146	48	0.00937
33	44059	49	0.00937
33	44972	50	0.00937
33	45885	51	0.00937
33	46798	52	0.00937
33	47711	53	0.00937
33	48624	54	0.00937
33	49537	55	0.00937
33	50450	56	0.00937
33	51363	57	0.00937
33	52276	58	0.00937
33	53189	59	0.00937
33	54102	60	0.00937
33	55015	61	0.00937
33	55928	62	0.00937
33	56841	63	0.00937
33	57754	64	0.00937
33	58667	65	0.00937
33	59580	66	0.00937
33	60493	67	0.00937
33	61406	68	0.00937
33	62319	69	0.00937
33	63232	70	0.00937
33	64145	71	0.00937
33	65058	72	0.00937
33	65971	73	0.00937
33	66884	74	0.00937
33	67797	75	0.00937
33	68710	76	0.00937
33	69623	77	0.00937
33	70536	78	0.00937
33	71449	79	0.00937
33	72362	80	0.00937
33	73275	81	0.00937
33	74188	82	0.00937
33	75101	83	0.00937
33	76014	84	0.00937
33	76927	85	0.00937
33	77840	86	0.00937
33	78753	87	0.00937
33	79666	88	0.00937
33	80579	89	0.00937
33	81492	90	0.00937
33	82405	91	0.00937
33	83318	92	0.00937
33	84231	93	0.00937
33	85144	94	0.00937
33	86057	95	0.00937
33	86970	96	0.00937
33	87883	97	0.00937
33	88796	98	0.00937
33	89709	99	0.00937
33	90622	100	0.00937
34	931	2	0
34	1844	3	0
34	2757	4	0
34	3670	5	0
34	4583	6	0
34	5496	7	0
34	6409	8	0
34	7322	9	0
34	8236	10	0
34	9365	11	0
34	10278	12	0
34	11191	13	0
34	12104	14	0
34	13017	15	0
34	13930	16	0
34	14843	17	0
34	15756	18	0
34	16669	19	0
34	17582	20	0
34	18495	21	0
34	19408	22	0
34	20321	23	0
34	21234	24	0
34	22147	25	0
34	23060	26	0
34	23973	27	0
34	24886	28	0
34	25799	29	0
34	26712	30	0
34	27625	31	0
34	28538	32	0
34	29451	33	0
34	30364	34	0
34	31277	35	0
34	32190	36	0
34	33103	37	0
34	34016	38	0
34	34929	39	0
34	35842	40	0
34	36755	41	0
34	37668	42	0
34	38581	43	0
34	39494	44	0
34	40407	45	0
34	41320	46	0
34	42233	47	0
34	43146	48	0
34	44059	49	0
34	44972	50	0
34	45885	51	0
34	46798	52	0
34	47711	53	0
34	48624	54	0
34	49537	55	0
34	50450	56	0
34	51363	57	0
34	52276	58	0
34	53189	59	0
34	54102	60	0
34	55015	61	0
34	55928	62	0
34	56841	63	0
34	57754	64	0
34	58667	65	0
34	59580	66	0
34	60493	67	0
34	61406	68	0
34	62319	69	0
34	63232	70	0
34	64145	71	0
34	65058	72	0
34	65971	73	0
34	66884	74	0
34	67797	75	0
34	68710	76	0
34	69623	77	0
34	70536	78	0
34	71449	79	0
34	72362	80	0
34	73275	81	0
34	74188	82	0
34	75101	83	0
34	76014	84	0
34	76927	85	0
34	77840	86	0
34	78753	87	0
34	79666	88	0
34	80579	89	0
34	81492	90	0
34	82405	91	0
34	83318	92	0
34	84231	93	0
34	85144	94	0
34	86057	95	0
34	86970	96	0
34	87883	97	0
34	88796	98	0
34	89709	99	0
34	90622	100	0
35	932	2	1
35	1845	3	1
35	2758	4	1
35	3671	5	1
35	4584	6	1
35	5497	7	1
35	6410	8	1
35	7323	9	1
35	8237	10	1
35	9366	11	1
35	10279	12	1
35	11192	13	1
35	12105	14	1
35	13018	15	1
35	13931	16	1
35	14844	17	1
35	15757	18	1
35	16670	19	1
35	17583	20	1
35	18496	21	1
35	19409	22	1
35	20322	23	1
35	21235	24	1
35	22148	25	1
35	23061	26	1
35	23974	27	1
35	24887	28	1
35	25800	29	1
35	26713	30	1
35	27626	31	1
35	28539	32	1
35	29452	33	1
35	30365	34	1
35	31278	35	1
35	32191	36	1
35	33104	37	1
35	34017	38	1
35	34930	39	1
35	35843	40	1
35	36756	41	1
35	37669	42	1
35	38582	43	1
35	39495	44	1
35	40408	45	1
35	41321	46	1
35	42234	47	1
35	43147	48	1
35	44060	49	1
35	44973	50	1
35	45886	51	1
35	46799	52	1
35	47712	53	1
35	48625	54	1
35	49538	55	1
35	50451	56	1
35	51364	57	1
35	52277	58	1
35	53190	59	1
35	54103	60	1
35	55016	61	1
35	55929	62	1
35	56842	63	1
35	57755	64	1
35	58668	65	1
35	59581	66	1
35	60494	67	1
35	61407	68	1
35	62320	69	1
35	63233	70	1
35	64146	71	1
35	65059	72	1
35	65972	73	1
35	66885	74	1
35	67798	75	1
35	68711	76	1
35	69624	77	1
35	70537	78	1
35	71450	79	1
35	72363	80	1
35	73276	81	1
35	74189	82	1
35	75102	83	1
35	76015	84	1
35	76928	85	1
35	77841	86	1
35	78754	87	1
35	79667	88	1
35	80580	89	1
35	81493	90	1
35	82406	91	1
35	83319	92	1
35	84232	93	1
35	85145	94	1
35	86058	95	1
35	86971	96	1
35	87884	97	1
35	88797	98	1
35	89710	99	1
35	90623	100	1
36	932	2	0.008433
36	1845	3	0.00937
36	2758	4	0.00937
36	3671	5	0.00937
36	4584	6	0.00937
36	5497	7	0.00937
36	6410	8	0.00937
36	7323	9	0.00937
36	8237	10	0.00937
36	9366	11	0.009931040028
36	10279	12	0.00937
36	11192	13	0.00937
36	12105	14	0.00937
36	13018	15	0.00937
36	13931	16	0.00937
36	14844	17	0.00937
36	15757	18	0.00937
36	16670	19	0.00937
36	17583	20	0.00937
36	18496	21	0.00937
36	19409	22	0.00937
36	20322	23	0.00937
36	21235	24	0.00937
36	22148	25	0.00937
36	23061	26	0.00937
36	23974	27	0.00937
36	24887	28	0.00937
36	25800	29	0.00937
36	26713	30	0.00937
36	27626	31	0.00937
36	28539	32	0.00937
36	29452	33	0.00937
36	30365	34	0.00937
36	31278	35	0.00937
36	32191	36	0.00937
36	33104	37	0.00937
36	34017	38	0.00937
36	34930	39	0.00937
36	35843	40	0.00937
36	36756	41	0.00937
36	37669	42	0.00937
36	38582	43	0.00937
36	39495	44	0.00937
36	40408	45	0.00937
36	41321	46	0.00937
36	42234	47	0.00937
36	43147	48	0.00937
36	44060	49	0.00937
36	44973	50	0.00937
36	45886	51	0.00937
36	46799	52	0.00937
36	47712	53	0.00937
36	48625	54	0.00937
36	49538	55	0.00937
36	50451	56	0.00937
36	51364	57	0.00937
36	52277	58	0.00937
36	53190	59	0.00937
36	54103	60	0.00937
36	55016	61	0.00937
36	55929	62	0.00937
36	56842	63	0.00937
36	57755	64	0.00937
36	58668	65	0.00937
36	59581	66	0.00937
36	60494	67	0.00937
36	61407	68	0.00937
36	62320	69	0.00937
36	63233	70	0.00937
36	64146	71	0.00937
36	65059	72	0.00937
36	65972	73	0.00937
36	66885	74	0.00937
36	67798	75	0.00937
36	68711	76	0.00937
36	69624	77	0.00937
36	70537	78	0.00937
36	71450	79	0.00937
36	72363	80	0.00937
36	73276	81	0.00937
36	74189	82	0.00937
36	75102	83	0.00937
36	76015	84	0.00937
36	76928	85	0.00937
36	77841	86	0.00937
36	78754	87	0.00937
36	79667	88	0.00937
36	80580	89	0.00937
36	81493	90	0.00937
36	82406	91	0.00937
36	83319	92	0.00937
36	84232	93	0.00937
36	85145	94	0.00937
36	86058	95	0.00937
36	86971	96	0.00937
36	87884	97	0.00937
36	88797	98	0.00937
36	89710	99	0.00937
36	90623	100	0.00937
37	932	2	0
37	1845	3	0
37	2758	4	0
37	3671	5	0
37	4584	6	0
37	5497	7	0
37	6410	8	0
37	7323	9	0
37	8237	10	0
37	9366	11	0
37	10279	12	0
37	11192	13	0
37	12105	14	0
37	13018	15	0
37	13931	16	0
37	14844	17	0
37	15757	18	0
37	16670	19	0
37	17583	20	0
37	18496	21	0
37	19409	22	0
37	20322	23	0
37	21235	24	0
37	22148	25	0
37	23061	26	0
37	23974	27	0
37	24887	28	0
37	25800	29	0
37	26713	30	0
37	27626	31	0
37	28539	32	0
37	29452	33	0
37	30365	34	0
37	31278	35	0
37	32191	36	0
37	33104	37	0
37	34017	38	0
37	34930	39	0
37	35843	40	0
37	36756	41	0
37	37669	42	0
37	38582	43	0
37	39495	44	0
37	40408	45	0
37	41321	46	0
37	42234	47	0
37	43147	48	0
37	44060	49	0
37	44973	50	0
37	45886	51	0
37	46799	52	0
37	47712	53	0
37	48625	54	0
37	49538	55	0
37	50451	56	0
37	51364	57	0
37	52277	58	0
37	53190	59	0
37	54103	60	0
37	55016	61	0
37	55929	62	0
37	56842	63	0
37	57755	64	0
37	58668	65	0
37	59581	66	0
37	60494	67	0
37	61407	68	0
37	62320	69	0
37	63233	70	0
37	64146	71	0
37	65059	72	0
37	65972	73	0
37	66885	74	0
37	67798	75	0
37	68711	76	0
37	69624	77	0
37	70537	78	0
37	71450	79	0
37	72363	80	0
37	73276	81	0
37	74189	82	0
37	75102	83	0
37	76015	84	0
37	76928	85	0
37	77841	86	0
37	78754	87	0
37	79667	88	0
37	80580	89	0
37	81493	90	0
37	82406	91	0
37	83319	92	0
37	84232	93	0
37	85145	94	0
37	86058	95	0
37	86971	96	0
37	87884	97	0
37	88797	98	0
37	89710	99	0
37	90623	100	0
38	933	2	2
38	1846	3	2
38	2759	4	2
38	3672	5	2
38	4585	6	2
38	5498	7	2
38	6411	8	2
38	7324	9	2
38	8238	10	2
38	9367	11	2
38	10280	12	2
38	11193	13	2
38	12106	14	2
38	13019	15	2
38	13932	16	2
38	14845	17	2
38	15758	18	2
38	16671	19	2
38	17584	20	2
38	18497	21	2
38	19410	22	2
38	20323	23	2
38	21236	24	2
38	22149	25	2
38	23062	26	2
38	23975	27	2
38	24888	28	2
38	25801	29	2
38	26714	30	2
38	27627	31	2
38	28540	32	2
38	29453	33	2
38	30366	34	2
38	31279	35	2
38	32192	36	2
38	33105	37	2
38	34018	38	2
38	34931	39	2
38	35844	40	2
38	36757	41	2
38	37670	42	2
38	38583	43	2
38	39496	44	2
38	40409	45	2
38	41322	46	2
38	42235	47	2
38	43148	48	2
38	44061	49	2
38	44974	50	2
38	45887	51	2
38	46800	52	2
38	47713	53	2
38	48626	54	2
38	49539	55	2
38	50452	56	2
38	51365	57	2
38	52278	58	2
38	53191	59	2
38	54104	60	2
38	55017	61	2
38	55930	62	2
38	56843	63	2
38	57756	64	2
38	58669	65	2
38	59582	66	2
38	60495	67	2
38	61408	68	2
38	62321	69	2
38	63234	70	2
38	64147	71	2
38	65060	72	2
38	65973	73	2
38	66886	74	2
38	67799	75	2
38	68712	76	2
38	69625	77	2
38	70538	78	2
38	71451	79	2
38	72364	80	2
38	73277	81	2
38	74190	82	2
38	75103	83	2
38	76016	84	2
38	76929	85	2
38	77842	86	2
38	78755	87	2
38	79668	88	2
38	80581	89	2
38	81494	90	2
38	82407	91	2
38	83320	92	2
38	84233	93	2
38	85146	94	2
38	86059	95	2
38	86972	96	2
38	87885	97	2
38	88798	98	2
38	89711	99	2
38	90624	100	2
39	933	2	0.008433
39	1846	3	0.00937
39	2759	4	0.00937
39	3672	5	0.00937
39	4585	6	0.00937
39	5498	7	0.00937
39	6411	8	0.00937
39	7324	9	0.00937
39	8238	10	0.00937
39	9367	11	0.009964120086
39	10280	12	0.00937
39	11193	13	0.00937
39	12106	14	0.00937
39	13019	15	0.00937
39	13932	16	0.00937
39	14845	17	0.00937
39	15758	18	0.00937
39	16671	19	0.00937
39	17584	20	0.00937
39	18497	21	0.00937
39	19410	22	0.00937
39	20323	23	0.00937
39	21236	24	0.00937
39	22149	25	0.00937
39	23062	26	0.00937
39	23975	27	0.00937
39	24888	28	0.00937
39	25801	29	0.00937
39	26714	30	0.00937
39	27627	31	0.00937
39	28540	32	0.00937
39	29453	33	0.00937
39	30366	34	0.00937
39	31279	35	0.00937
39	32192	36	0.00937
39	33105	37	0.00937
39	34018	38	0.00937
39	34931	39	0.00937
39	35844	40	0.00937
39	36757	41	0.00937
39	37670	42	0.00937
39	38583	43	0.00937
39	39496	44	0.00937
39	40409	45	0.00937
39	41322	46	0.00937
39	42235	47	0.00937
39	43148	48	0.00937
39	44061	49	0.00937
39	44974	50	0.00937
39	45887	51	0.00937
39	46800	52	0.00937
39	47713	53	0.00937
39	48626	54	0.00937
39	49539	55	0.00937
39	50452	56	0.00937
39	51365	57	0.00937
39	52278	58	0.00937
39	53191	59	0.00937
39	54104	60	0.00937
39	55017	61	0.00937
39	55930	62	0.00937
39	56843	63	0.00937
39	57756	64	0.00937
39	58669	65	0.00937
39	59582	66	0.00937
39	60495	67	0.00937
39	61408	68	0.00937
39	62321	69	0.00937
39	63234	70	0.00937
39	64147	71	0.00937
39	65060	72	0.00937
39	65973	73	0.00937
39	66886	74	0.00937
39	67799	75	0.00937
39	68712	76	0.00937
39	69625	77	0.00937
39	70538	78	0.00937
39	71451	79	0.00937
39	72364	80	0.00937
39	73277	81	0.00937
39	74190	82	0.00937
39	75103	83	0.00937
39	76016	84	0.00937
39	76929	85	0.00937
39	77842	86	0.00937
39	78755	87	0.00937
39	79668	88	0.00937
39	80581	89	0.00937
39	81494	90	0.00937
39	82407	91	0.00937
39	83320	92	0.00937
39	84233	93	0.00937
39	85146	94	0.00937
39	86059	95	0.00937
39	86972	96	0.00937
39	87885	97	0.00937
39	88798	98	0.00937
39	89711	99	0.00937
39	90624	100	0.00937
40	933	2	0
40	1846	3	0
40	2759	4	0
40	3672	5	0
40	4585	6	0
40	5498	7	0
40	6411	8	0
40	7324	9	0
40	8238	10	0
40	9367	11	0
40	10280	12	0
40	11193	13	0
40	12106	14	0
40	13019	15	0
40	13932	16	0
40	14845	17	0
40	15758	18	0
40	16671	19	0
40	17584	20	0
40	18497	21	0
40	19410	22	0
40	20323	23	0
40	21236	24	0
40	22149	25	0
40	23062	26	0
40	23975	27	0
40	24888	28	0
40	25801	29	0
40	26714	30	0
40	27627	31	0
40	28540	32	0
40	29453	33	0
40	30366	34	0
40	31279	35	0
40	32192	36	0
40	33105	37	0
40	34018	38	0
40	34931	39	0
40	35844	40	0
40	36757	41	0
40	37670	42	0
40	38583	43	0
40	39496	44	0
40	40409	45	0
40	41322	46	0
40	42235	47	0
40	43148	48	0
40	44061	49	0
40	44974	50	0
40	45887	51	0
40	46800	52	0
40	47713	53	0
40	48626	54	0
40	49539	55	0
40	50452	56	0
40	51365	57	0
40	52278	58	0
40	53191	59	0
40	54104	60	0
40	55017	61	0
40	55930	62	0
40	56843	63	0
40	57756	64	0
40	58669	65	0
40	59582	66	0
40	60495	67	0
40	61408	68	0
40	62321	69	0
40	63234	70	0
40	64147	71	0
40	65060	72	0
40	65973	73	0
40	66886	74	0
40	67799	75	0
40	68712	76	0
40	69625	77	0
40	70538	78	0
40	71451	79	0
40	72364	80	0
40	73277	81	0
40	74190	82	0
40	75103	83	0
40	76016	84	0
40	76929	85	0
40	77842	86	0
40	78755	87	0
40	79668	88	0
40	80581	89	0
40	81494	90	0
40	82407	91	0
40	83320	92	0
40	84233	93	0
40	85146	94	0
40	86059	95	0
40	86972	96	0
40	87885	97	0
40	88798	98	0
40	89711	99	0
40	90624	100	0

