file 781199 1720624398                                          
version 3
run BreakRanksNoGui-803-20240710-17:13:14-270344
attr configname BreakRanksNoGui
attr datetime 20240710-17:13:14
attr datetimef 20240710-171314
attr experiment BreakRanksNoGui
attr inifile omnetpp.ini
attr iterationvars "$nCars=3, $platoonSize=3, $nLanes=1, $ploegH=0.5, $controller=1, $headway=0.1, $leaderHeadway=1.2, $leaderSpeed=130, $breakRanksSafetyDistance=2, $minSpeed=120, $maxSpeed=140, $beaconInterval=0.1, $priority=4, $packetSize=200, $sController=\"CACC\", $0=2, $1=0"
attr iterationvarsd nCars=3/platoonSize=3/nLanes=1/ploegH=0.5/controller=1/headway=0.1/leaderHeadway=1.2/leaderSpeed=130/breakRanksSafetyDistance=2/minSpeed=120/maxSpeed=140/beaconInterval=0.1/priority=4/packetSize=200/sController=CACC/2/0
attr iterationvarsf nCars=3,platoonSize=3,nLanes=1,ploegH=0.5,controller=1,headway=0.1,leaderHeadway=1.2,leaderSpeed=130,breakRanksSafetyDistance=2,minSpeed=120,maxSpeed=140,beaconInterval=0.1,priority=4,packetSize=200,sController=CACC,2,0-
attr measurement "$nCars=3, $platoonSize=3, $nLanes=1, $ploegH=0.5, $controller=1, $headway=0.1, $leaderHeadway=1.2, $leaderSpeed=130, $breakRanksSafetyDistance=2, $minSpeed=120, $maxSpeed=140, $beaconInterval=0.1, $priority=4, $packetSize=200, $sController=\"CACC\", $0=2, $1=0"
attr network Highway
attr processid 270344
attr repetition 3
attr replication #3
attr resultdir results
attr runnumber 803
attr seedset 3
itervar beaconInterval 0.1
itervar breakRanksSafetyDistance 2
itervar controller 1
itervar headway 0.1
itervar leaderHeadway 1.2
itervar leaderSpeed 130
itervar maxSpeed 140
itervar minSpeed 120
itervar nCars 3
itervar nLanes 1
itervar packetSize 200
itervar platoonSize 3
itervar ploegH 0.5
itervar priority 4
itervar sController "\"CACC\""
config image-path ../../../veins/images
config repeat 10
config extends BreakRanks
config *.manager.command "\"sumo\""
config *.manager.ignoreGuiCommands true
config output-vector-file "results/BreakRanks_1_0.1_130_2_3 /result_3.vec"
config output-scalar-file "results/BreakRanks_1_0.1_130_2_3 /result_3.sca"
config extends Platooning
config *.node[*].scenario_type "\"BreakRanksScenario\""
config *.manager.command "\"sumo-gui\""
config *.node[*].scenario_type "\"SimpleScenario\""
config cmdenv-express-mode true
config cmdenv-autoflush true
config cmdenv-status-frequency 15s
config num-rngs 6
config network Highway
config debug-on-errors true
config print-undisposed true
config *.playgroundSizeX 65000m
config *.playgroundSizeY 25000m
config *.playgroundSizeZ 50m
config sim-time-limit "100 s"
config *.annotations.draw false
config *.obstacles.debug false
config *.world.useTorus false
config *.world.use2D false
config *.manager.updateInterval 0.01s
config *.manager.host "\"localhost\""
config *.manager.moduleType "\"org.car2x.plexe.PlatoonCar\""
config *.manager.moduleName "\"node\""
config *.manager.moduleDisplayString "\"\""
config *.manager.autoShutdown true
config *.manager.margin 25
config *.connectionManager.sendDirect true
config *.connectionManager.maxInterfDist 2600m
config *.connectionManager.drawMaxIntfDist false
config *.**.nic.mac1609_4.useServiceChannel false
config *.**.nic.mac1609_4.txPower 100mW
config *.**.nic.mac1609_4.bitrate 6Mbps
config *.**.nic.mac1609_4.useAcks true
config *.**.nic.mac1609_4.ackErrorRate 0.0
config *.**.nic.mac1609_4.frameErrorRate 0.0
config *.**.nic.phy80211p.minPowerLevel -94dBm
config *.**.nic.phy80211p.maxTXPower 100mW
config *.**.nic.phy80211p.useNoiseFloor true
config *.**.nic.phy80211p.noiseFloor -95dBm
config *.**.nic.phy80211p.decider "xmldoc(\"config.xml\")"
config *.**.nic.phy80211p.analogueModels "xmldoc(\"config.xml\")"
config *.**.nic.phy80211p.usePropagationDelay true
config *.node[*].mobility.x 0
config *.node[*].mobility.y 0
config *.node[*].mobility.z 1.895
config seed-set 3
config **.seed 3
config *.node[*].prot.rng-0 2
config *.node[*].appl.rng-0 3
config *.node[*].scenario.rng-0 4
config **.traffic.rng-0 5
config *.manager.configFile "\"./sumocfg/freeway.sumo.cfg\""
config *.manager.launchConfig "xmldoc(\"./sumocfg/freeway.launchd.xml\")"
config **.numberOfCars 3
config **.numberOfCarsPerPlatoon 3
config **.numberOfLanes 1
config *.node[*].helper_type "\"PositionHelper\""
config *.node[*].scenario.caccC1 0.5
config *.node[*].scenario.caccXi 1
config *.node[*].scenario.caccOmegaN "0.2 Hz"
config *.node[*].scenario.caccSpacing "2 m"
config *.node[*].scenario.engineTau "0.5 s"
config *.node[*].scenario.ploegH 0.5s
config *.node[*].scenario.ploegKp 0.2
config *.node[*].scenario.ploegKd 0.7
config *.node[*].scenario.useRealisticEngine false
config *.node[*].scenario.useControllerAcceleration true
config *.node[*].scenario.nLanes 1
config **.numericController 1
config **.headway 0.1s
config *.node[*].scenario.accHeadway 0.1s
config *.node[*].scenario.leaderHeadway 1.2s
config *.node[*].scenario.leaderSpeed 130kmph
config *.node[*].appl_type "\"SimplePlatooningApp\""
config *.node[*].appl.*.scalar-recording true
config *.node[*].appl.*.vector-recording true
config *.node[0].appl.breakRanksSafetyDistance 2m
config *.node[*].appl.minSpeed 120kmph
config *.node[*].appl.maxSpeed 140kmph
config *.node[*].protocol_type "\"SimplePlatooningBeaconing\""
config *.node[*].prot.*.scalar-recording true
config *.node[*].prot.*.vector-recording true
config *.node[*].prot.beaconingInterval 0.1s
config *.node[*].prot.priority 4
config *.node[*].prot.packetSize 200
config **.traffic_type "\"PlatoonsTrafficManager\""
config **.traffic.platoonInsertTime "1 s"
config **.traffic.platoonInsertSpeed 130kmph
config **.traffic.nCars 3
config **.traffic.platoonSize 3
config **.traffic.nLanes 1
config **.traffic.platooningVType "\"vtypeauto\""
config **.traffic.controller "\"CACC\""
config **.traffic.platoonInsertDistance 2m
config **.traffic.platoonInsertHeadway 0s
config **.traffic.platoonLeaderHeadway 1.2s
config **.scalar-recording false
config **.vector-recording false

vector 0 Highway.node[0].appl distance ETV
vector 1 Highway.node[0].appl relativeSpeed ETV
vector 2 Highway.node[0].appl nodeId ETV
vector 3 Highway.node[0].appl acceleration ETV
vector 4 Highway.node[0].appl controllerAcceleration ETV
vector 5 Highway.node[0].appl speed ETV
vector 6 Highway.node[0].appl posx ETV
vector 7 Highway.node[0].appl posy ETV
vector 8 Highway.node[1].appl distance ETV
vector 9 Highway.node[1].appl relativeSpeed ETV
vector 10 Highway.node[1].appl nodeId ETV
vector 11 Highway.node[1].appl acceleration ETV
vector 12 Highway.node[1].appl controllerAcceleration ETV
vector 13 Highway.node[1].appl speed ETV
vector 14 Highway.node[1].appl posx ETV
vector 15 Highway.node[1].appl posy ETV
vector 16 Highway.node[2].appl distance ETV
vector 17 Highway.node[2].appl relativeSpeed ETV
vector 18 Highway.node[2].appl nodeId ETV
vector 19 Highway.node[2].appl acceleration ETV
vector 20 Highway.node[2].appl controllerAcceleration ETV
vector 21 Highway.node[2].appl speed ETV
vector 22 Highway.node[2].appl posx ETV
vector 23 Highway.node[2].appl posy ETV
vector 24 Highway.node[1].prot leaderDelay ETV
vector 25 Highway.node[1].prot leaderDelayId ETV
vector 26 Highway.node[1].prot frontDelay ETV
vector 27 Highway.node[1].prot frontDelayId ETV
vector 28 Highway.node[2].prot leaderDelay ETV
vector 29 Highway.node[2].prot leaderDelayId ETV
vector 30 Highway.node[2].prot frontDelay ETV
vector 31 Highway.node[2].prot frontDelayId ETV
vector 32 Highway.node[0].prot nodeId ETV
vector 33 Highway.node[0].prot busyTime ETV
vector 34 Highway.node[0].prot collisions ETV
vector 35 Highway.node[1].prot nodeId ETV
vector 36 Highway.node[1].prot busyTime ETV
vector 37 Highway.node[1].prot collisions ETV
vector 38 Highway.node[2].prot nodeId ETV
vector 39 Highway.node[2].prot busyTime ETV
vector 40 Highway.node[2].prot collisions ETV
0	7761 16608 113 90532 1.11 99.91 989 -1 -1 -989 989
1	24369 15619 113 90532 1.11 99.91 989 0 0 0 0
2	39988 15619 113 90532 1.11 99.91 989 0 0 0 0
3	55607 17907 113 90532 1.11 99.91 989 -3.14892e-05 0.000707784 0.010991577126781 6.0508064149601e-06
4	73514 25565 113 90532 1.11 99.91 989 -4.89399e-05 0.00109259 0.010614843047836 8.6815283230331e-06
5	99079 21546 113 90532 1.11 99.91 989 36.11 36.1111 35713.866699999 1289666.6073546
6	120625 21443 113 90532 1.11 99.91 989 29.5999 3597.38 1793538.8508 4303767400.1787
7	142068 20564 113 90532 1.11 99.91 989 242.45 242.45 239783.05 58135400.472499
8	162632 17041 114 90533 1.11 99.91 989 -1 2.00024 -718.98307 1259.0677235773
9	179673 16538 114 90533 1.11 99.91 989 -1.82116e-05 0.000109634 0.002044556527 1.7580380901654e-07
10	196211 16608 114 90533 1.11 99.91 989 1 1 989 989
11	212819 20275 114 90533 1.11 99.91 989 -0.0830743 0.00370912 -1.0678233514768 0.071959033832104
12	233094 27177 114 90533 1.11 99.91 989 -0.10449 0.00576358 -0.70025583520317 0.05485482809546
13	260271 18393 114 90533 1.11 99.91 989 35.9942 36.1111 35614.6865 1282514.5896801
14	278664 22528 114 90533 1.11 99.91 989 23.5999 3581.46 1783175.7172 4260000293.0154
15	301192 21553 114 90533 1.11 99.91 989 242.45 245.75 242749.75 59583743.4125
16	322745 22405 115 90534 1.11 99.91 989 2 45.3278 36775.0517 1555846.404959
17	345150 24432 115 90534 1.11 99.91 989 0 3.19811 373.27584720847 651.59378183617
18	369582 16608 115 90534 1.11 99.91 989 2 2 1978 3956
19	386190 25289 115 90534 1.11 99.91 989 -2.02229 0.353913 0.060678568131003 54.302375475316
20	411479 25305 115 90534 1.11 99.91 989 -3.08597 0.399175 1.4561338089729 75.38286653416
21	436784 22420 115 90534 1.11 99.91 989 32.913 36.1111 35340.5897 1263359.3147029
22	459204 22430 115 90534 1.11 99.91 989 17.5999 3548.05 1752267.7406 4135932070.9002
23	481634 21553 115 90534 1.11 99.91 989 242.45 242.45 239783.05 58135400.472499
24	503187 39103 231 90559 1.26954710007 99.969543612245 988 0.099991080056 0.100004330785 98.800000592231 9.8800001552783
25	542290 26364 231 90559 1.26954710007 99.969543612245 988 1 1 988 988
26	568654 39103 231 90559 1.26954710007 99.969543612245 988 0.099991080056 0.100004330785 98.800000592231 9.8800001552783
27	607757 26364 231 90559 1.26954710007 99.969543612245 988 1 1 988 988
28	634121 39097 237 90565 1.269547120084 99.969543722555 988 0.099991080056 0.100004330749 98.800000682527 9.8800001733375
29	673218 26362 237 90565 1.269547120084 99.969543722555 988 2 2 1976 3952
30	699580 39125 266 90594 1.299168120084 99.999177724215 988 0.099991080056 0.100004330748 98.800000684187 9.880000173672
31	738705 26377 266 90594 1.299168120084 99.999177724215 988 2 2 1976 3952
32	765082 1368 915 90606 2 100 99 0 0 0 0
33	766450 2638 915 90606 2 100 99 0.008241279496 0.009999010178 0.927121231333 0.0086840317361847
34	769088 1368 915 90606 2 100 99 0 0 0 0
35	770456 1368 916 90607 2 100 99 1 1 99 99
36	771824 2636 916 90607 2 100 99 0.00824129951 0.00993292764 0.927055203845 0.0086827155695943
37	774460 1368 916 90607 2 100 99 0 0 0 0
38	775828 1368 917 90608 2 100 99 2 2 198 396
39	777196 2634 917 90608 2 100 99 0.008241319524 0.00996601222 0.927088395873 0.008683375886036
40	779830 1368 917 90608 2 100 99 0 0 0 0

