file 5320008 1720719832                                         
version 3
run BreakRanksNoGui-1848-20240711-19:43:24-306355
attr configname BreakRanksNoGui
attr datetime 20240711-19:43:24
attr datetimef 20240711-194324
attr experiment BreakRanksNoGui
attr inifile omnetpp.ini
attr iterationvars "$nCars=16, $platoonSize=16, $nLanes=1, $ploegH=0.5, $controller=1, $headway=0.1, $leaderHeadway=1.2, $leaderSpeed=110, $breakRanksSafetyDistance=15, $minSpeed=100, $maxSpeed=120, $beaconInterval=0.1, $priority=4, $packetSize=200, $sController=\"CACC\", $0=2, $1=0"
attr iterationvarsd nCars=16/platoonSize=16/nLanes=1/ploegH=0.5/controller=1/headway=0.1/leaderHeadway=1.2/leaderSpeed=110/breakRanksSafetyDistance=15/minSpeed=100/maxSpeed=120/beaconInterval=0.1/priority=4/packetSize=200/sController=CACC/2/0
attr iterationvarsf nCars=16,platoonSize=16,nLanes=1,ploegH=0.5,controller=1,headway=0.1,leaderHeadway=1.2,leaderSpeed=110,breakRanksSafetyDistance=15,minSpeed=100,maxSpeed=120,beaconInterval=0.1,priority=4,packetSize=200,sController=CACC,2,0-
attr measurement "$nCars=16, $platoonSize=16, $nLanes=1, $ploegH=0.5, $controller=1, $headway=0.1, $leaderHeadway=1.2, $leaderSpeed=110, $breakRanksSafetyDistance=15, $minSpeed=100, $maxSpeed=120, $beaconInterval=0.1, $priority=4, $packetSize=200, $sController=\"CACC\", $0=2, $1=0"
attr network Highway
attr processid 306355
attr repetition 8
attr replication #8
attr resultdir results
attr runnumber 1848
attr seedset 8
itervar beaconInterval 0.1
itervar breakRanksSafetyDistance 15
itervar controller 1
itervar headway 0.1
itervar leaderHeadway 1.2
itervar leaderSpeed 110
itervar maxSpeed 120
itervar minSpeed 100
itervar nCars 16
itervar nLanes 1
itervar packetSize 200
itervar platoonSize 16
itervar ploegH 0.5
itervar priority 4
itervar sController "\"CACC\""
config image-path ../../../veins/images
config repeat 10
config extends BreakRanks
config *.manager.command "\"sumo\""
config *.manager.ignoreGuiCommands true
config output-vector-file "results/BreakRanks_1_0.1_110_15_16 /result_8.vec"
config output-scalar-file "results/BreakRanks_1_0.1_110_15_16 /result_8.sca"
config extends Platooning
config *.node[*].scenario_type "\"BreakRanksScenario\""
config *.manager.command "\"sumo-gui\""
config *.node[*].scenario_type "\"SimpleScenario\""
config cmdenv-express-mode true
config cmdenv-autoflush true
config cmdenv-status-frequency 15s
config num-rngs 6
config network Highway
config debug-on-errors true
config print-undisposed true
config *.playgroundSizeX 65000m
config *.playgroundSizeY 25000m
config *.playgroundSizeZ 50m
config sim-time-limit "100 s"
config *.annotations.draw false
config *.obstacles.debug false
config *.world.useTorus false
config *.world.use2D false
config *.manager.updateInterval 0.01s
config *.manager.host "\"localhost\""
config *.manager.moduleType "\"org.car2x.plexe.PlatoonCar\""
config *.manager.moduleName "\"node\""
config *.manager.moduleDisplayString "\"\""
config *.manager.autoShutdown true
config *.manager.margin 25
config *.connectionManager.sendDirect true
config *.connectionManager.maxInterfDist 2600m
config *.connectionManager.drawMaxIntfDist false
config *.**.nic.mac1609_4.useServiceChannel false
config *.**.nic.mac1609_4.txPower 100mW
config *.**.nic.mac1609_4.bitrate 6Mbps
config *.**.nic.mac1609_4.useAcks true
config *.**.nic.mac1609_4.ackErrorRate 0.0
config *.**.nic.mac1609_4.frameErrorRate 0.0
config *.**.nic.phy80211p.minPowerLevel -94dBm
config *.**.nic.phy80211p.maxTXPower 100mW
config *.**.nic.phy80211p.useNoiseFloor true
config *.**.nic.phy80211p.noiseFloor -95dBm
config *.**.nic.phy80211p.decider "xmldoc(\"config.xml\")"
config *.**.nic.phy80211p.analogueModels "xmldoc(\"config.xml\")"
config *.**.nic.phy80211p.usePropagationDelay true
config *.node[*].mobility.x 0
config *.node[*].mobility.y 0
config *.node[*].mobility.z 1.895
config seed-set 8
config **.seed 8
config *.node[*].prot.rng-0 2
config *.node[*].appl.rng-0 3
config *.node[*].scenario.rng-0 4
config **.traffic.rng-0 5
config *.manager.configFile "\"./sumocfg/freeway.sumo.cfg\""
config *.manager.launchConfig "xmldoc(\"./sumocfg/freeway.launchd.xml\")"
config **.numberOfCars 16
config **.numberOfCarsPerPlatoon 16
config **.numberOfLanes 1
config *.node[*].helper_type "\"PositionHelper\""
config *.node[*].scenario.caccC1 0.5
config *.node[*].scenario.caccXi 1
config *.node[*].scenario.caccOmegaN "0.2 Hz"
config *.node[*].scenario.caccSpacing "2 m"
config *.node[*].scenario.engineTau "0.5 s"
config *.node[*].scenario.ploegH 0.5s
config *.node[*].scenario.ploegKp 0.2
config *.node[*].scenario.ploegKd 0.7
config *.node[*].scenario.useRealisticEngine false
config *.node[*].scenario.useControllerAcceleration true
config *.node[*].scenario.nLanes 1
config **.numericController 1
config **.headway 0.1s
config *.node[*].scenario.accHeadway 0.1s
config *.node[*].scenario.leaderHeadway 1.2s
config *.node[*].scenario.leaderSpeed 110kmph
config *.node[*].appl_type "\"SimplePlatooningApp\""
config *.node[*].appl.*.scalar-recording true
config *.node[*].appl.*.vector-recording true
config *.node[0].appl.breakRanksSafetyDistance 15m
config *.node[*].appl.minSpeed 100kmph
config *.node[*].appl.maxSpeed 120kmph
config *.node[*].protocol_type "\"SimplePlatooningBeaconing\""
config *.node[*].prot.*.scalar-recording true
config *.node[*].prot.*.vector-recording true
config *.node[*].prot.beaconingInterval 0.1s
config *.node[*].prot.priority 4
config *.node[*].prot.packetSize 200
config **.traffic_type "\"PlatoonsTrafficManager\""
config **.traffic.platoonInsertTime "1 s"
config **.traffic.platoonInsertSpeed 110kmph
config **.traffic.nCars 16
config **.traffic.platoonSize 16
config **.traffic.nLanes 1
config **.traffic.platooningVType "\"vtypeauto\""
config **.traffic.controller "\"CACC\""
config **.traffic.platoonInsertDistance 2m
config **.traffic.platoonInsertHeadway 0s
config **.traffic.platoonLeaderHeadway 1.2s
config **.scalar-recording false
config **.vector-recording false

vector 0 Highway.node[0].appl distance ETV
vector 1 Highway.node[0].appl relativeSpeed ETV
vector 2 Highway.node[0].appl nodeId ETV
vector 3 Highway.node[0].appl acceleration ETV
vector 4 Highway.node[0].appl controllerAcceleration ETV
vector 5 Highway.node[0].appl speed ETV
vector 6 Highway.node[0].appl posx ETV
vector 7 Highway.node[0].appl posy ETV
vector 8 Highway.node[1].appl distance ETV
vector 9 Highway.node[1].appl relativeSpeed ETV
vector 10 Highway.node[1].appl nodeId ETV
vector 11 Highway.node[1].appl acceleration ETV
vector 12 Highway.node[1].appl controllerAcceleration ETV
vector 13 Highway.node[1].appl speed ETV
vector 14 Highway.node[1].appl posx ETV
vector 15 Highway.node[1].appl posy ETV
vector 16 Highway.node[2].appl distance ETV
vector 17 Highway.node[2].appl relativeSpeed ETV
vector 18 Highway.node[2].appl nodeId ETV
vector 19 Highway.node[2].appl acceleration ETV
vector 20 Highway.node[2].appl controllerAcceleration ETV
vector 21 Highway.node[2].appl speed ETV
vector 22 Highway.node[2].appl posx ETV
vector 23 Highway.node[2].appl posy ETV
vector 24 Highway.node[3].appl distance ETV
vector 25 Highway.node[3].appl relativeSpeed ETV
vector 26 Highway.node[3].appl nodeId ETV
vector 27 Highway.node[3].appl acceleration ETV
vector 28 Highway.node[3].appl controllerAcceleration ETV
vector 29 Highway.node[3].appl speed ETV
vector 30 Highway.node[3].appl posx ETV
vector 31 Highway.node[3].appl posy ETV
vector 32 Highway.node[4].appl distance ETV
vector 33 Highway.node[4].appl relativeSpeed ETV
vector 34 Highway.node[4].appl nodeId ETV
vector 35 Highway.node[4].appl acceleration ETV
vector 36 Highway.node[4].appl controllerAcceleration ETV
vector 37 Highway.node[4].appl speed ETV
vector 38 Highway.node[4].appl posx ETV
vector 39 Highway.node[4].appl posy ETV
vector 40 Highway.node[5].appl distance ETV
vector 41 Highway.node[5].appl relativeSpeed ETV
vector 42 Highway.node[5].appl nodeId ETV
vector 43 Highway.node[5].appl acceleration ETV
vector 44 Highway.node[5].appl controllerAcceleration ETV
vector 45 Highway.node[5].appl speed ETV
vector 46 Highway.node[5].appl posx ETV
vector 47 Highway.node[5].appl posy ETV
vector 48 Highway.node[6].appl distance ETV
vector 49 Highway.node[6].appl relativeSpeed ETV
vector 50 Highway.node[6].appl nodeId ETV
vector 51 Highway.node[6].appl acceleration ETV
vector 52 Highway.node[6].appl controllerAcceleration ETV
vector 53 Highway.node[6].appl speed ETV
vector 54 Highway.node[6].appl posx ETV
vector 55 Highway.node[6].appl posy ETV
vector 56 Highway.node[7].appl distance ETV
vector 57 Highway.node[7].appl relativeSpeed ETV
vector 58 Highway.node[7].appl nodeId ETV
vector 59 Highway.node[7].appl acceleration ETV
vector 60 Highway.node[7].appl controllerAcceleration ETV
vector 61 Highway.node[7].appl speed ETV
vector 62 Highway.node[7].appl posx ETV
vector 63 Highway.node[7].appl posy ETV
vector 64 Highway.node[8].appl distance ETV
vector 65 Highway.node[8].appl relativeSpeed ETV
vector 66 Highway.node[8].appl nodeId ETV
vector 67 Highway.node[8].appl acceleration ETV
vector 68 Highway.node[8].appl controllerAcceleration ETV
vector 69 Highway.node[8].appl speed ETV
vector 70 Highway.node[8].appl posx ETV
vector 71 Highway.node[8].appl posy ETV
vector 72 Highway.node[9].appl distance ETV
vector 73 Highway.node[9].appl relativeSpeed ETV
vector 74 Highway.node[9].appl nodeId ETV
vector 75 Highway.node[9].appl acceleration ETV
vector 76 Highway.node[9].appl controllerAcceleration ETV
vector 77 Highway.node[9].appl speed ETV
vector 78 Highway.node[9].appl posx ETV
vector 79 Highway.node[9].appl posy ETV
vector 80 Highway.node[10].appl distance ETV
vector 81 Highway.node[10].appl relativeSpeed ETV
vector 82 Highway.node[10].appl nodeId ETV
vector 83 Highway.node[10].appl acceleration ETV
vector 84 Highway.node[10].appl controllerAcceleration ETV
vector 85 Highway.node[10].appl speed ETV
vector 86 Highway.node[10].appl posx ETV
vector 87 Highway.node[10].appl posy ETV
vector 88 Highway.node[11].appl distance ETV
vector 89 Highway.node[11].appl relativeSpeed ETV
vector 90 Highway.node[11].appl nodeId ETV
vector 91 Highway.node[11].appl acceleration ETV
vector 92 Highway.node[11].appl controllerAcceleration ETV
vector 93 Highway.node[11].appl speed ETV
vector 94 Highway.node[11].appl posx ETV
vector 95 Highway.node[11].appl posy ETV
vector 96 Highway.node[12].appl distance ETV
vector 97 Highway.node[12].appl relativeSpeed ETV
vector 98 Highway.node[12].appl nodeId ETV
vector 99 Highway.node[12].appl acceleration ETV
vector 100 Highway.node[12].appl controllerAcceleration ETV
vector 101 Highway.node[12].appl speed ETV
vector 102 Highway.node[12].appl posx ETV
vector 103 Highway.node[12].appl posy ETV
vector 104 Highway.node[13].appl distance ETV
vector 105 Highway.node[13].appl relativeSpeed ETV
vector 106 Highway.node[13].appl nodeId ETV
vector 107 Highway.node[13].appl acceleration ETV
vector 108 Highway.node[13].appl controllerAcceleration ETV
vector 109 Highway.node[13].appl speed ETV
vector 110 Highway.node[13].appl posx ETV
vector 111 Highway.node[13].appl posy ETV
vector 112 Highway.node[14].appl distance ETV
vector 113 Highway.node[14].appl relativeSpeed ETV
vector 114 Highway.node[14].appl nodeId ETV
vector 115 Highway.node[14].appl acceleration ETV
vector 116 Highway.node[14].appl controllerAcceleration ETV
vector 117 Highway.node[14].appl speed ETV
vector 118 Highway.node[14].appl posx ETV
vector 119 Highway.node[14].appl posy ETV
vector 120 Highway.node[15].appl distance ETV
vector 121 Highway.node[15].appl relativeSpeed ETV
vector 122 Highway.node[15].appl nodeId ETV
vector 123 Highway.node[15].appl acceleration ETV
vector 124 Highway.node[15].appl controllerAcceleration ETV
vector 125 Highway.node[15].appl speed ETV
vector 126 Highway.node[15].appl posx ETV
vector 127 Highway.node[15].appl posy ETV
vector 128 Highway.node[4].prot frontDelay ETV
vector 129 Highway.node[4].prot frontDelayId ETV
vector 130 Highway.node[8].prot frontDelay ETV
vector 131 Highway.node[8].prot frontDelayId ETV
vector 132 Highway.node[10].prot frontDelay ETV
vector 133 Highway.node[10].prot frontDelayId ETV
vector 134 Highway.node[3].prot frontDelay ETV
vector 135 Highway.node[3].prot frontDelayId ETV
vector 136 Highway.node[2].prot frontDelay ETV
vector 137 Highway.node[2].prot frontDelayId ETV
vector 138 Highway.node[5].prot frontDelay ETV
vector 139 Highway.node[5].prot frontDelayId ETV
vector 140 Highway.node[9].prot frontDelay ETV
vector 141 Highway.node[9].prot frontDelayId ETV
vector 142 Highway.node[7].prot frontDelay ETV
vector 143 Highway.node[7].prot frontDelayId ETV
vector 144 Highway.node[13].prot frontDelay ETV
vector 145 Highway.node[13].prot frontDelayId ETV
vector 146 Highway.node[1].prot leaderDelay ETV
vector 147 Highway.node[1].prot leaderDelayId ETV
vector 148 Highway.node[1].prot frontDelay ETV
vector 149 Highway.node[1].prot frontDelayId ETV
vector 150 Highway.node[8].prot leaderDelay ETV
vector 151 Highway.node[8].prot leaderDelayId ETV
vector 152 Highway.node[9].prot leaderDelay ETV
vector 153 Highway.node[9].prot leaderDelayId ETV
vector 154 Highway.node[10].prot leaderDelay ETV
vector 155 Highway.node[10].prot leaderDelayId ETV
vector 156 Highway.node[11].prot leaderDelay ETV
vector 157 Highway.node[11].prot leaderDelayId ETV
vector 158 Highway.node[12].prot leaderDelay ETV
vector 159 Highway.node[12].prot leaderDelayId ETV
vector 160 Highway.node[13].prot leaderDelay ETV
vector 161 Highway.node[13].prot leaderDelayId ETV
vector 162 Highway.node[14].prot leaderDelay ETV
vector 163 Highway.node[14].prot leaderDelayId ETV
vector 164 Highway.node[15].prot leaderDelay ETV
vector 165 Highway.node[15].prot leaderDelayId ETV
vector 166 Highway.node[2].prot leaderDelay ETV
vector 167 Highway.node[2].prot leaderDelayId ETV
vector 168 Highway.node[3].prot leaderDelay ETV
vector 169 Highway.node[3].prot leaderDelayId ETV
vector 170 Highway.node[4].prot leaderDelay ETV
vector 171 Highway.node[4].prot leaderDelayId ETV
vector 172 Highway.node[5].prot leaderDelay ETV
vector 173 Highway.node[5].prot leaderDelayId ETV
vector 174 Highway.node[6].prot leaderDelay ETV
vector 175 Highway.node[6].prot leaderDelayId ETV
vector 176 Highway.node[7].prot leaderDelay ETV
vector 177 Highway.node[7].prot leaderDelayId ETV
vector 178 Highway.node[6].prot frontDelay ETV
vector 179 Highway.node[6].prot frontDelayId ETV
vector 180 Highway.node[15].prot frontDelay ETV
vector 181 Highway.node[15].prot frontDelayId ETV
vector 182 Highway.node[14].prot frontDelay ETV
vector 183 Highway.node[14].prot frontDelayId ETV
vector 184 Highway.node[12].prot frontDelay ETV
vector 185 Highway.node[12].prot frontDelayId ETV
vector 186 Highway.node[11].prot frontDelay ETV
vector 187 Highway.node[11].prot frontDelayId ETV
vector 188 Highway.node[0].prot nodeId ETV
vector 189 Highway.node[0].prot busyTime ETV
vector 190 Highway.node[0].prot collisions ETV
vector 191 Highway.node[1].prot nodeId ETV
vector 192 Highway.node[1].prot busyTime ETV
vector 193 Highway.node[1].prot collisions ETV
vector 194 Highway.node[2].prot nodeId ETV
vector 195 Highway.node[2].prot busyTime ETV
vector 196 Highway.node[2].prot collisions ETV
vector 197 Highway.node[3].prot nodeId ETV
vector 198 Highway.node[3].prot busyTime ETV
vector 199 Highway.node[3].prot collisions ETV
vector 200 Highway.node[4].prot nodeId ETV
vector 201 Highway.node[4].prot busyTime ETV
vector 202 Highway.node[4].prot collisions ETV
vector 203 Highway.node[5].prot nodeId ETV
vector 204 Highway.node[5].prot busyTime ETV
vector 205 Highway.node[5].prot collisions ETV
vector 206 Highway.node[6].prot nodeId ETV
vector 207 Highway.node[6].prot busyTime ETV
vector 208 Highway.node[6].prot collisions ETV
vector 209 Highway.node[7].prot nodeId ETV
vector 210 Highway.node[7].prot busyTime ETV
vector 211 Highway.node[7].prot collisions ETV
vector 212 Highway.node[8].prot nodeId ETV
vector 213 Highway.node[8].prot busyTime ETV
vector 214 Highway.node[8].prot collisions ETV
vector 215 Highway.node[9].prot nodeId ETV
vector 216 Highway.node[9].prot busyTime ETV
vector 217 Highway.node[9].prot collisions ETV
vector 218 Highway.node[10].prot nodeId ETV
vector 219 Highway.node[10].prot busyTime ETV
vector 220 Highway.node[10].prot collisions ETV
vector 221 Highway.node[11].prot nodeId ETV
vector 222 Highway.node[11].prot busyTime ETV
vector 223 Highway.node[11].prot collisions ETV
vector 224 Highway.node[12].prot nodeId ETV
vector 225 Highway.node[12].prot busyTime ETV
vector 226 Highway.node[12].prot collisions ETV
vector 227 Highway.node[13].prot nodeId ETV
vector 228 Highway.node[13].prot busyTime ETV
vector 229 Highway.node[13].prot collisions ETV
vector 230 Highway.node[14].prot nodeId ETV
vector 231 Highway.node[14].prot busyTime ETV
vector 232 Highway.node[14].prot collisions ETV
vector 233 Highway.node[15].prot nodeId ETV
vector 234 Highway.node[15].prot busyTime ETV
vector 235 Highway.node[15].prot collisions ETV
0	16905 18176 113 2094909 1.11 99.91 989 -1 -1 -989 989
1	35081 17187 113 2094909 1.11 99.91 989 0 0 0 0
2	52268 17187 113 2094909 1.11 99.91 989 0 0 0 0
3	69455 19775 113 2094909 1.11 99.91 989 -0.00283113 0.000125957 -0.043966303784312 9.6812896349407e-05
4	89230 27155 113 2094909 1.11 99.91 989 -0.00437036 0.00019576 -0.042459310034081 0.00013890441444735
5	116385 23117 113 2094909 1.11 99.91 989 30.5554 30.56 30219.5304 923377.16656332
6	139502 23014 113 2094909 1.11 99.91 989 113.68 3132.58 1605276.561 3358216907.5355
7	162516 22132 113 2094909 1.11 99.91 989 242.45 242.45 239783.05 58135400.472499
8	184648 22762 114 2094910 1.11 99.91 989 1.99922 15 12372.063 174430.82692744
9	207410 25832 114 2094910 1.11 99.91 989 -0.0004354 1.03512 129.99973836325 89.000891502119
10	233242 18176 114 2094910 1.11 99.91 989 1 1 989 989
11	251418 27318 114 2094910 1.11 99.91 989 -0.393652 0.0836455 -0.035545271932999 3.5598541612003
12	278736 27316 114 2094910 1.11 99.91 989 -0.518248 0.0843328 0.1899819714106 4.1572350828178
13	306052 24036 114 2094910 1.11 99.91 989 29.5205 30.56 30089.5329 915521.86363988
14	330088 23998 114 2094910 1.11 99.91 989 107.68 3113.58 1588948.516 3299682604.9594
15	354086 23121 114 2094910 1.11 99.91 989 242.45 242.45 239783.05 58135400.472499
16	377207 23982 115 2094911 1.11 99.91 989 2 14.9686 9451.55368 117238.16466877
17	401189 25881 115 2094911 1.11 99.91 989 -3.58455e-05 0.385332 129.68730315203 34.875475730965
18	427070 19165 115 2094911 1.11 99.91 989 10 10 9890 98900
19	446235 26266 115 2094911 1.11 99.91 989 -0.873274 0.154086 -0.11940628218001 30.690266078045
20	472501 26234 115 2094911 1.11 99.91 989 -1.01111 0.154265 0.11072366295999 32.939136927548
21	498735 23993 115 2094911 1.11 99.91 989 26.1083 30.56 28920.2699 848050.03155337
22	522728 23998 115 2094911 1.11 99.91 989 53.6804 2942.65 1456616.5072 2825246127.7279
23	546726 23121 115 2094911 1.11 99.91 989 242.45 242.45 239783.05 58135400.472499
24	569847 23928 116 2094912 1.11 99.91 989 1.99792 14.9504 9128.32325 111157.01785749
25	593775 25849 116 2094912 1.11 99.91 989 -0.00211229 0.366343 129.50639066221 33.211593718559
26	619624 19165 116 2094912 1.11 99.91 989 11 11 10879 119669
27	638789 26213 116 2094912 1.11 99.91 989 -0.875916 0.148182 -0.17101676930007 31.137120180758
28	665002 26194 116 2094912 1.11 99.91 989 -1.00882 0.148339 0.061677531096051 33.363406471486
29	691196 24008 116 2094912 1.11 99.91 989 25.9858 30.56 28790.765 840699.04972372
30	715204 23989 116 2094912 1.11 99.91 989 47.6804 2923.7 1443532.2005 2778714373.8982
31	739193 23121 116 2094912 1.11 99.91 989 242.45 242.45 239783.05 58135400.472499
32	762314 23972 117 2094913 1.11 99.91 989 2 14.9245 8807.23782 105137.41124709
33	786286 25784 117 2094913 1.11 99.91 989 -1.34759e-05 0.350509 129.24861195649 31.798616252148
34	812070 19165 117 2094913 1.11 99.91 989 12 12 11868 142416
35	831235 26169 117 2094913 1.11 99.91 989 -0.875354 0.142491 -0.24656504287994 31.352888355063
36	857404 26149 117 2094913 1.11 99.91 989 -1.00723 0.14262 -0.010366577199991 33.540151704981
37	883553 24007 117 2094913 1.11 99.91 989 25.8844 30.56 28661.5155 833370.34450549
38	907560 23983 117 2094913 1.11 99.91 989 41.6804 2904.78 1430768.8162 2733482316.8662
39	931543 23121 117 2094913 1.11 99.91 989 242.45 242.45 239783.05 58135400.472499
40	954664 23973 118 2094914 1.11 99.91 989 2 14.8886 8484.73483 99165.022187537
41	978637 25813 118 2094914 1.11 99.91 989 -0.000123554 0.336886 128.89179857532 30.620889683577
42	1004450 19165 118 2094914 1.11 99.91 989 13 13 12857 167141
43	1023615 26141 118 2094914 1.11 99.91 989 -0.873376 0.137173 -0.35383767629003 31.419390979761
44	1049756 26127 118 2094914 1.11 99.91 989 -1.00877 0.137288 -0.1126748684918 33.763216159181
45	1075883 24013 118 2094914 1.11 99.91 989 25.7999 30.56 28532.6246 826069.37938866
46	1099896 24012 118 2094914 1.11 99.91 989 35.6804 2885.89 1418328.2909 2689569212.0825
47	1123908 23121 118 2094914 1.11 99.91 989 242.45 242.45 239783.05 58135400.472499
48	1147029 23931 119 2094915 1.11 99.91 989 1.98893 14.8399 8162.51683 93245.163686416
49	1170960 25804 119 2094915 1.11 99.91 989 -0.00602034 0.324235 128.40626430468 29.507412599031
50	1196764 19165 119 2094915 1.11 99.91 989 14 14 13846 193844
51	1215929 26132 119 2094915 1.11 99.91 989 -0.876091 0.132241 -0.50199071104308 31.559802541057
52	1242061 26131 119 2094915 1.11 99.91 989 -1.01685 0.132314 -0.254020157889 34.019216991235
53	1268192 24006 119 2094915 1.11 99.91 989 25.7282 30.56 28404.2164 818805.2932387
54	1292198 23993 119 2094915 1.11 99.91 989 29.6804 2867.05 1406209.6883 2646985185.0322
55	1316191 23121 119 2094915 1.11 99.91 989 242.45 242.45 239783.05 58135400.472499
56	1339312 23943 120 2094916 1.11 99.91 989 1.98708 14.7754 7846.25284 87418.951648099
57	1363255 25786 120 2094916 1.11 99.91 989 -0.00691397 0.312765 127.76411529563 28.450763347051
58	1389041 19165 120 2094916 1.11 99.91 989 15 15 14835 222525
59	1408206 26072 120 2094916 1.11 99.91 989 -0.87828 0.127669 -0.70148474223797 31.642944014323
60	1434278 26103 120 2094916 1.11 99.91 989 -1.01913 0.127743 -0.44523709626786 33.9763122773
61	1460381 24013 120 2094916 1.11 99.91 989 25.6686 30.56 28276.4523 811584.88043671
62	1484394 24001 120 2094916 1.11 99.91 989 23.6804 2848.27 1394407.486 2605736381.0886
63	1508395 23121 120 2094916 1.11 99.91 989 242.45 242.45 239783.05 58135400.472499
64	1531516 23999 121 2094917 1.11 99.91 989 1.99977 14.9998 12049.38819 167755.31807368
65	1555515 26690 121 2094917 1.11 99.91 989 -8.70308e-05 0.818267 129.99829349688 71.915014543201
66	1582205 18176 121 2094917 1.11 99.91 989 2 2 1978 3956
67	1600381 27092 121 2094917 1.11 99.91 989 -0.611071 0.129324 -0.035726165680996 9.6423532280843
68	1627473 27099 121 2094917 1.11 99.91 989 -0.778268 0.130135 0.18980610003002 11.091769840007
69	1654572 24025 121 2094917 1.11 99.91 989 28.737 30.56 29959.5327 907804.20912384
70	1678597 23994 121 2094917 1.11 99.91 989 101.68 3094.58 1572943.091 3242253307.2606
71	1702591 23121 121 2094917 1.11 99.91 989 242.45 242.45 239783.05 58135400.472499
72	1725712 23981 122 2094918 1.11 99.91 989 1.99974 14.9996 11723.10352 161173.43809943
73	1749693 26571 122 2094918 1.11 99.91 989 -0.000212692 0.69124 129.99636126234 61.361872911122
74	1776264 18176 122 2094918 1.11 99.91 989 3 3 2967 8901
75	1794440 26952 122 2094918 1.11 99.91 989 -0.731249 0.154342 -0.035931497940006 15.310058007503
76	1821392 26971 122 2094918 1.11 99.91 989 -0.909019 0.15505 0.189606913433 17.319248103039
77	1848363 24023 122 2094918 1.11 99.91 989 28.125 30.56 29829.5365 900182.30993476
78	1872386 23987 122 2094918 1.11 99.91 989 95.6804 3075.58 1557264.0658 3185955512.7379
79	1896373 23121 122 2094918 1.11 99.91 989 242.45 242.45 239783.05 58135400.472499
80	1919494 23977 123 2094919 1.11 99.91 989 1.99981 14.9994 11399.4319 154727.88505273
81	1943471 26450 123 2094919 1.11 99.91 989 -0.000339853 0.605307 129.9935725879 54.114825614585
82	1969921 18176 123 2094919 1.11 99.91 989 4 4 3956 15824
83	1988097 26817 123 2094919 1.11 99.91 989 -0.799674 0.167112 -0.036903024847983 19.963566394364
84	2014914 26860 123 2094919 1.11 99.91 989 -0.970986 0.16777 0.18879710429 22.149788601419
85	2041774 23999 123 2094919 1.11 99.91 989 27.6349 30.56 29699.5429 892629.19876937
86	2065773 24001 123 2094919 1.11 99.91 989 89.6804 3056.58 1541908.6436 3130806306.4444
87	2089774 23121 123 2094919 1.11 99.91 989 242.45 242.45 239783.05 58135400.472499
88	2112895 23981 124 2094920 1.11 99.91 989 1.99258 14.9984 11069.27616 148299.32124702
89	2136876 26317 124 2094920 1.11 99.91 989 -0.0104809 0.546677 129.98410716161 49.17884151549
90	2163193 18176 124 2094920 1.11 99.91 989 5 5 4945 24725
91	2181369 26717 124 2094920 1.11 99.91 989 -0.839083 0.172445 -0.039025831782947 23.592347982254
92	2208086 26712 124 2094920 1.11 99.91 989 -1.00188 0.173042 0.18813468080999 25.769871344902
93	2234798 23999 124 2094920 1.11 99.91 989 27.2359 30.56 29569.5575 885127.47196365
94	2258797 23994 124 2094920 1.11 99.91 989 83.6804 3037.58 1526883.2253 3076834225.0596
95	2282791 23121 124 2094920 1.11 99.91 989 242.45 242.45 239783.05 58135400.472499
96	2305912 23985 125 2094921 1.11 99.91 989 1.9929 14.9967 10744.40347 141980.79247872
97	2329897 26188 125 2094921 1.11 99.91 989 -0.0083339 0.499246 129.96733962908 45.055971747587
98	2356085 18176 125 2094921 1.11 99.91 989 6 6 5934 35604
99	2374261 26608 125 2094921 1.11 99.91 989 -0.860435 0.172825 -0.043162798574975 26.244883500721
100	2400869 27610 125 2094921 1.11 99.91 989 -1.01344 0.173317 0.184199696642 28.365841766099
101	2428479 24998 125 2094921 1.11 99.91 989 26.9109 30.56 29439.5898 877663.62890592
102	2453477 24998 125 2094921 1.11 99.91 989 77.6804 3018.58 1512182.8968 3024055479.6317
103	2478475 24110 125 2094921 1.11 99.91 989 242.45 242.45 239783.05 58135400.472499
104	2502585 24975 126 2094922 1.11 99.91 989 2 14.9937 10422.96341 135741.35153504
105	2527560 27054 126 2094922 1.11 99.91 989 -3.79252e-05 0.462255 129.93752941147 41.609878003204
106	2554614 19165 126 2094922 1.11 99.91 989 7 7 6923 48461
107	2573779 27507 126 2094922 1.11 99.91 989 -0.865624 0.169976 -0.050810395816996 27.947529587104
108	2601286 27498 126 2094922 1.11 99.91 989 -1.01724 0.170269 0.17567574154997 30.244397252819
109	2628784 24988 126 2094922 1.11 99.91 989 26.6503 30.56 29309.6531 870226.58044391
110	2653772 24994 126 2094922 1.11 99.91 989 71.6804 2999.59 1497803.8629 2972484455.1137
111	2678766 24110 126 2094922 1.11 99.91 989 242.45 242.45 239783.05 58135400.472499
112	2702876 24918 127 2094923 1.11 99.91 989 1.99949 14.9887 10095.7566 129510.63763023
113	2727794 27008 127 2094923 1.11 99.91 989 -0.00121114 0.43248 129.88801367119 39.091207977042
114	2754802 19165 127 2094923 1.11 99.91 989 8 8 7912 63296
115	2773967 27408 127 2094923 1.11 99.91 989 -0.870751 0.165461 -0.06387662970004 29.241801198416
116	2801375 27420 127 2094923 1.11 99.91 989 -1.0211 0.165634 0.16264269542001 31.669319715581
117	2828795 24993 127 2094923 1.11 99.91 989 26.4342 30.56 29179.7661 862814.30558937
118	2853788 24987 127 2094923 1.11 99.91 989 65.6804 2980.6 1483752.1592 2922149187.0325
119	2878775 24110 127 2094923 1.11 99.91 989 242.45 242.45 239783.05 58135400.472499
120	2902885 24974 128 2094924 1.11 99.91 989 1.99112 14.9808 9772.10835 123342.46804518
121	2927859 26993 128 2094924 1.11 99.91 989 -0.00662126 0.406306 129.80859226584 36.81782443095
122	2954852 19165 128 2094924 1.11 99.91 989 9 9 8901 80109
123	2974017 27314 128 2094924 1.11 99.91 989 -0.875415 0.159967 -0.085425038660006 30.204873407103
124	3001331 27343 128 2094924 1.11 99.91 989 -1.01891 0.160111 0.14254485255999 32.550818154787
125	3028674 25008 128 2094924 1.11 99.91 989 26.2543 30.56 29049.956 855423.54888586
126	3053682 24984 128 2094924 1.11 99.91 989 59.6804 2961.62 1470024.0709 2873064978.4735
127	3078666 24110 128 2094924 1.11 99.91 989 242.45 242.45 239783.05 58135400.472499
128	3102776 41661 2416 2095100 1.218687021398 99.918685037161 988 0.099991568792 0.100010072672 98.800003937092 9.8800008225781
129	3144437 29917 2416 2095100 1.218687021398 99.918685037161 988 12 12 11856 142272
130	3174354 41656 2547 2095237 1.224102221536 99.924113670771 988 0.09999237599 0.100010072788 98.800004370564 9.8800009091869
131	3216010 28924 2547 2095237 1.224102221536 99.924113670771 988 2 2 1976 3952
132	3244934 41635 2677 2095361 1.226384261564 99.926382797522 988 0.099991957903 0.100010072441 98.799991457287 9.8799983267896
133	3286569 28905 2677 2095361 1.226384261564 99.926382797522 988 4 4 3952 15808
134	3315474 41633 2802 2095492 1.233905401661 99.933904240754 988 0.099991569915 0.100010072793 98.800004760422 9.8800009873624
135	3357107 29905 2802 2095492 1.233905401661 99.933904240754 988 11 11 10868 119548
136	3387012 41661 2932 2095622 1.235498421675 99.935497304088 988 0.099992210085 0.100010072564 98.800004803742 9.8800009961728
137	3428673 29914 2932 2095622 1.235498421675 99.935497304088 988 10 10 9880 98800
138	3458587 41637 3068 2095752 1.236610481717 99.936609493433 988 0.0999922103 0.100010072573 98.799991933045 9.8799984220536
139	3500224 29914 3068 2095752 1.236610481717 99.936609493433 988 13 13 12844 166972
140	3530138 41675 3199 2095883 1.248668681855 99.948668126911 988 0.099991959025 0.10001007234 98.799992366385 9.8799985084853
141	3571813 28931 3199 2095883 1.248668681855 99.948668126911 988 3 3 2964 8892
142	3600744 41646 3330 2096014 1.250560922021 99.950560885128 988 0.099991571984 0.100010072827 98.800005884436 9.8800012120587
143	3642390 29909 3330 2096014 1.250560922021 99.950560885128 988 15 15 14820 222300
144	3672299 41658 3460 2096144 1.251725082132 99.951725391328 988 0.099991960362 0.100010072373 98.799993230525 9.879998681423
145	3713957 28921 3460 2096144 1.251725082132 99.951725391328 988 7 7 6916 48412
146	3742878 41675 3585 2096275 1.260286202215 99.960286771592 988 0.099991572836 0.100010072721 98.800006490706 9.8800013333696
147	3784553 28931 3585 2096275 1.260286202215 99.960286771592 988 1 1 988 988
148	3813484 41675 3585 2096275 1.260286202215 99.960286771592 988 0.099991572836 0.100010072721 98.800006490706 9.8800013333696
149	3855159 28931 3585 2096275 1.260286202215 99.960286771592 988 1 1 988 988
150	3884090 41664 3591 2096281 1.260286222229 99.960286834969 988 0.099991572847 0.100010072721 98.800006534069 9.8800013420422
151	3925754 28933 3591 2096281 1.260286222229 99.960286834969 988 2 2 1976 3952
152	3954687 41641 3597 2096287 1.260286242242 99.960286898345 988 0.099991572866 0.100010072721 98.800006577431 9.8800013507146
153	3996328 28925 3597 2096287 1.260286242242 99.960286898345 988 3 3 2964 8892
154	4025253 41650 3603 2096293 1.260286262256 99.96028696172 988 0.099991572896 0.100010072721 98.800006620793 9.880001359387
155	4066903 28919 3603 2096293 1.260286262256 99.96028696172 988 4 4 3952 15808
156	4095822 41626 3609 2096299 1.26028628227 99.960287025092 988 0.099991572939 0.100010072721 98.800006664151 9.8800013680586
157	4137448 28907 3609 2096299 1.26028628227 99.960287025092 988 5 5 4940 24700
158	4166355 41654 3615 2096305 1.260286302284 99.960287088458 988 0.099991572995 0.100010072722 98.800006707503 9.880001376729
159	4208009 28923 3615 2096305 1.260286302284 99.960287088458 988 6 6 5928 35568
160	4236932 41652 3621 2096311 1.260286322298 99.960287151814 988 0.099991573065 0.100010072722 98.800006750845 9.8800013853974
161	4278584 28926 3621 2096311 1.260286322298 99.960287151814 988 7 7 6916 48412
162	4307510 41651 3627 2096317 1.260286342312 99.960287215154 988 0.099991573147 0.100010072722 98.800006794171 9.8800013940626
163	4349161 28917 3627 2096317 1.260286342312 99.960287215154 988 8 8 7904 63232
164	4378078 41662 3633 2096323 1.260286362326 99.960287278467 988 0.099991573241 0.100010072723 98.80000683747 9.8800014027224
165	4419740 28932 3633 2096323 1.260286362326 99.960287278467 988 9 9 8892 80028
166	4448672 41672 3639 2096329 1.260286382339 99.96028734174 988 0.099991573343 0.100010072723 98.80000688073 9.8800014113744
167	4490344 29926 3639 2096329 1.260286382339 99.96028734174 988 10 10 9880 98800
168	4520270 41657 3645 2096335 1.260286402353 99.960287404953 988 0.099991573452 0.100010072725 98.800006923929 9.8800014200142
169	4561927 29917 3645 2096335 1.260286402353 99.960287404953 988 11 11 10868 119548
170	4591844 41641 3651 2096341 1.260286422367 99.960287468079 988 0.099991573562 0.100010072728 98.800006967041 9.8800014286366
171	4633485 29908 3651 2096341 1.260286422367 99.960287468079 988 12 12 11856 142272
172	4663393 41620 3657 2096347 1.260286442381 99.960287531087 988 0.099991573673 0.100010072732 98.800007010035 9.8800014372354
173	4705013 29901 3657 2096347 1.260286442381 99.960287531087 988 13 13 12844 166972
174	4734914 41640 3663 2096353 1.260286462395 99.960287593932 988 0.099991573782 0.100010072737 98.800007052866 9.8800014458016
175	4776554 29913 3663 2096353 1.260286462395 99.960287593932 988 14 14 13832 193648
176	4806467 41639 3669 2096359 1.260286482409 99.960287656564 988 0.099991573884 0.100010072743 98.800007095484 9.8800014543252
177	4848106 29905 3669 2096359 1.260286482409 99.960287656564 988 15 15 14820 222300
178	4878011 41642 3722 2096406 1.271707462395 99.971708593934 988 0.099991573781 0.100010072853 98.800007052868 9.8800014457445
179	4919653 29901 3722 2096406 1.271707462395 99.971708593934 988 14 14 13832 193648
180	4949554 41651 3853 2096537 1.287730562464 99.987731910336 988 0.099991961481 0.100010072511 98.799994269201 9.8799988890457
181	4991205 28923 3853 2096537 1.287730562464 99.987731910336 988 9 9 8892 80028
182	5020128 41640 3984 2096668 1.290987582478 99.990988973702 988 0.099991574363 0.100010072858 98.800007312553 9.8800014976865
183	5061768 28928 3984 2096668 1.290987582478 99.990988973702 988 8 8 7904 63232
184	5090696 41585 4115 2094693 1.305840622506 99.905832027592 987 0.099991956315 0.100010072395 98.699997326415 9.8699995006755
185	5132281 28879 4115 2094693 1.305840622506 99.905832027592 987 6 6 5922 35532
186	5161160 41581 4245 2094823 1.30998164252 99.90998609097 987 0.099991956329 0.100010072743 98.700010369779 9.8700021090969
187	5202741 28876 4245 2094823 1.30998164252 99.90998609097 987 5 5 4935 24675
188	5231617 1625 18806 2096754 2 100 99 0 0 0 0
189	5233242 2233 18806 2096754 2 100 99 0.044313 0.050074 4.93923 0.246455824622
190	5235475 1625 18806 2096754 2 100 99 0 0 0 0
191	5237100 1625 18807 2096755 2 100 99 1 1 99 99
192	5238725 2238 18807 2096755 2 100 99 0.044313 0.05007512609 4.93887812609 0.24642059660993
193	5240963 1625 18807 2096755 2 100 99 0 0 0 0
194	5242588 1724 18808 2096756 2 100 99 10 10 990 9900
195	5244312 2239 18808 2096756 2 100 99 0.044313 0.050076265884 4.938879265884 0.24642071076189
196	5246551 1625 18808 2096756 2 100 99 0 0 0 0
197	5248176 1724 18809 2096757 2 100 99 11 11 1089 11979
198	5249900 2239 18809 2096757 2 100 99 0.044313 0.050076392566 4.938879392566 0.24642072344942
199	5252139 1625 18809 2096757 2 100 99 0 0 0 0
200	5253764 1724 18810 2096758 2 100 99 12 12 1188 14256
201	5255488 2239 18810 2096758 2 100 99 0.044313 0.050076519262 4.938879519262 0.2464207361384
202	5257727 1625 18810 2096758 2 100 99 0 0 0 0
203	5259352 1724 18811 2096759 2 100 99 13 13 1287 16731
204	5261076 2233 18811 2096759 2 100 99 0.044313 0.050042 4.938845 0.246417280121
205	5263309 1625 18811 2096759 2 100 99 0 0 0 0
206	5264934 1724 18812 2096760 2 100 99 14 14 1386 19404
207	5266658 2233 18812 2096760 2 100 99 0.044313 0.050042 4.938845 0.246417280121
208	5268891 1625 18812 2096760 2 100 99 0 0 0 0
209	5270516 1724 18813 2096761 2 100 99 15 15 1485 22275
210	5272240 2233 18813 2096761 2 100 99 0.044313 0.050042 4.938845 0.246417280121
211	5274473 1625 18813 2096761 2 100 99 0 0 0 0
212	5276098 1625 18814 2096762 2 100 99 2 2 198 396
213	5277723 2239 18814 2096762 2 100 99 0.044313 0.050075252586 4.938878252586 0.24642060927855
214	5279962 1625 18814 2096762 2 100 99 0 0 0 0
215	5281587 1625 18815 2096763 2 100 99 3 3 297 891
216	5283212 2239 18815 2096763 2 100 99 0.044313 0.050075379188 4.938878379188 0.24642062195782
217	5285451 1625 18815 2096763 2 100 99 0 0 0 0
218	5287076 1625 18816 2096764 2 100 99 4 4 396 1584
219	5288701 2239 18816 2096764 2 100 99 0.044312 0.050075505824 4.938877505824 0.24642054601553
220	5290940 1625 18816 2096764 2 100 99 0 0 0 0
221	5292565 1625 18817 2096765 2 100 99 5 5 495 2475
222	5294190 2239 18817 2096765 2 100 99 0.044312 0.050075632476 4.938877632476 0.24642055869987
223	5296429 1625 18817 2096765 2 100 99 0 0 0 0
224	5298054 1625 18818 2096766 2 100 99 6 6 594 3564
225	5299679 2238 18818 2096766 2 100 99 0.044313 0.05007575914 4.93887875914 0.24642066001045
226	5301917 1625 18818 2096766 2 100 99 0 0 0 0
227	5303542 1625 18819 2096767 2 100 99 7 7 693 4851
228	5305167 2239 18819 2096767 2 100 99 0.044313 0.050075885824 4.938878885824 0.24642067269806
229	5307406 1625 18819 2096767 2 100 99 0 0 0 0
230	5309031 1625 18820 2096768 2 100 99 8 8 792 6336
231	5310656 2237 18820 2096768 2 100 99 0.044313 0.0500760125 4.9388790125 0.2464206853849
232	5312893 1625 18820 2096768 2 100 99 0 0 0 0
233	5314518 1625 18821 2096769 2 100 99 9 9 891 8019
234	5316143 2239 18821 2096769 2 100 99 0.044313 0.050076139182 4.938879139182 0.24642069807238
235	5318382 1625 18821 2096769 2 100 99 0 0 0 0

