file 5328760 1720698550                                         
version 3
run BreakRanksNoGui-825-20240711-13:48:42-289090
attr configname BreakRanksNoGui
attr datetime 20240711-13:48:42
attr datetimef 20240711-134842
attr experiment BreakRanksNoGui
attr inifile omnetpp.ini
attr iterationvars "$nCars=16, $platoonSize=16, $nLanes=1, $ploegH=0.5, $controller=1, $headway=0.1, $leaderHeadway=1.2, $leaderSpeed=130, $breakRanksSafetyDistance=5, $minSpeed=120, $maxSpeed=140, $beaconInterval=0.1, $priority=4, $packetSize=200, $sController=\"CACC\", $0=2, $1=0"
attr iterationvarsd nCars=16/platoonSize=16/nLanes=1/ploegH=0.5/controller=1/headway=0.1/leaderHeadway=1.2/leaderSpeed=130/breakRanksSafetyDistance=5/minSpeed=120/maxSpeed=140/beaconInterval=0.1/priority=4/packetSize=200/sController=CACC/2/0
attr iterationvarsf nCars=16,platoonSize=16,nLanes=1,ploegH=0.5,controller=1,headway=0.1,leaderHeadway=1.2,leaderSpeed=130,breakRanksSafetyDistance=5,minSpeed=120,maxSpeed=140,beaconInterval=0.1,priority=4,packetSize=200,sController=CACC,2,0-
attr measurement "$nCars=16, $platoonSize=16, $nLanes=1, $ploegH=0.5, $controller=1, $headway=0.1, $leaderHeadway=1.2, $leaderSpeed=130, $breakRanksSafetyDistance=5, $minSpeed=120, $maxSpeed=140, $beaconInterval=0.1, $priority=4, $packetSize=200, $sController=\"CACC\", $0=2, $1=0"
attr network Highway
attr processid 289090
attr repetition 5
attr replication #5
attr resultdir results
attr runnumber 825
attr seedset 5
itervar beaconInterval 0.1
itervar breakRanksSafetyDistance 5
itervar controller 1
itervar headway 0.1
itervar leaderHeadway 1.2
itervar leaderSpeed 130
itervar maxSpeed 140
itervar minSpeed 120
itervar nCars 16
itervar nLanes 1
itervar packetSize 200
itervar platoonSize 16
itervar ploegH 0.5
itervar priority 4
itervar sController "\"CACC\""
config image-path ../../../veins/images
config repeat 10
config extends BreakRanks
config *.manager.command "\"sumo\""
config *.manager.ignoreGuiCommands true
config output-vector-file "results/BreakRanks_1_0.1_130_5_16 /result_5.vec"
config output-scalar-file "results/BreakRanks_1_0.1_130_5_16 /result_5.sca"
config extends Platooning
config *.node[*].scenario_type "\"BreakRanksScenario\""
config *.manager.command "\"sumo-gui\""
config *.node[*].scenario_type "\"SimpleScenario\""
config cmdenv-express-mode true
config cmdenv-autoflush true
config cmdenv-status-frequency 15s
config num-rngs 6
config network Highway
config debug-on-errors true
config print-undisposed true
config *.playgroundSizeX 65000m
config *.playgroundSizeY 25000m
config *.playgroundSizeZ 50m
config sim-time-limit "100 s"
config *.annotations.draw false
config *.obstacles.debug false
config *.world.useTorus false
config *.world.use2D false
config *.manager.updateInterval 0.01s
config *.manager.host "\"localhost\""
config *.manager.moduleType "\"org.car2x.plexe.PlatoonCar\""
config *.manager.moduleName "\"node\""
config *.manager.moduleDisplayString "\"\""
config *.manager.autoShutdown true
config *.manager.margin 25
config *.connectionManager.sendDirect true
config *.connectionManager.maxInterfDist 2600m
config *.connectionManager.drawMaxIntfDist false
config *.**.nic.mac1609_4.useServiceChannel false
config *.**.nic.mac1609_4.txPower 100mW
config *.**.nic.mac1609_4.bitrate 6Mbps
config *.**.nic.mac1609_4.useAcks true
config *.**.nic.mac1609_4.ackErrorRate 0.0
config *.**.nic.mac1609_4.frameErrorRate 0.0
config *.**.nic.phy80211p.minPowerLevel -94dBm
config *.**.nic.phy80211p.maxTXPower 100mW
config *.**.nic.phy80211p.useNoiseFloor true
config *.**.nic.phy80211p.noiseFloor -95dBm
config *.**.nic.phy80211p.decider "xmldoc(\"config.xml\")"
config *.**.nic.phy80211p.analogueModels "xmldoc(\"config.xml\")"
config *.**.nic.phy80211p.usePropagationDelay true
config *.node[*].mobility.x 0
config *.node[*].mobility.y 0
config *.node[*].mobility.z 1.895
config seed-set 5
config **.seed 5
config *.node[*].prot.rng-0 2
config *.node[*].appl.rng-0 3
config *.node[*].scenario.rng-0 4
config **.traffic.rng-0 5
config *.manager.configFile "\"./sumocfg/freeway.sumo.cfg\""
config *.manager.launchConfig "xmldoc(\"./sumocfg/freeway.launchd.xml\")"
config **.numberOfCars 16
config **.numberOfCarsPerPlatoon 16
config **.numberOfLanes 1
config *.node[*].helper_type "\"PositionHelper\""
config *.node[*].scenario.caccC1 0.5
config *.node[*].scenario.caccXi 1
config *.node[*].scenario.caccOmegaN "0.2 Hz"
config *.node[*].scenario.caccSpacing "2 m"
config *.node[*].scenario.engineTau "0.5 s"
config *.node[*].scenario.ploegH 0.5s
config *.node[*].scenario.ploegKp 0.2
config *.node[*].scenario.ploegKd 0.7
config *.node[*].scenario.useRealisticEngine false
config *.node[*].scenario.useControllerAcceleration true
config *.node[*].scenario.nLanes 1
config **.numericController 1
config **.headway 0.1s
config *.node[*].scenario.accHeadway 0.1s
config *.node[*].scenario.leaderHeadway 1.2s
config *.node[*].scenario.leaderSpeed 130kmph
config *.node[*].appl_type "\"SimplePlatooningApp\""
config *.node[*].appl.*.scalar-recording true
config *.node[*].appl.*.vector-recording true
config *.node[0].appl.breakRanksSafetyDistance 5m
config *.node[*].appl.minSpeed 120kmph
config *.node[*].appl.maxSpeed 140kmph
config *.node[*].protocol_type "\"SimplePlatooningBeaconing\""
config *.node[*].prot.*.scalar-recording true
config *.node[*].prot.*.vector-recording true
config *.node[*].prot.beaconingInterval 0.1s
config *.node[*].prot.priority 4
config *.node[*].prot.packetSize 200
config **.traffic_type "\"PlatoonsTrafficManager\""
config **.traffic.platoonInsertTime "1 s"
config **.traffic.platoonInsertSpeed 130kmph
config **.traffic.nCars 16
config **.traffic.platoonSize 16
config **.traffic.nLanes 1
config **.traffic.platooningVType "\"vtypeauto\""
config **.traffic.controller "\"CACC\""
config **.traffic.platoonInsertDistance 2m
config **.traffic.platoonInsertHeadway 0s
config **.traffic.platoonLeaderHeadway 1.2s
config **.scalar-recording false
config **.vector-recording false

vector 0 Highway.node[0].appl distance ETV
vector 1 Highway.node[0].appl relativeSpeed ETV
vector 2 Highway.node[0].appl nodeId ETV
vector 3 Highway.node[0].appl acceleration ETV
vector 4 Highway.node[0].appl controllerAcceleration ETV
vector 5 Highway.node[0].appl speed ETV
vector 6 Highway.node[0].appl posx ETV
vector 7 Highway.node[0].appl posy ETV
vector 8 Highway.node[1].appl distance ETV
vector 9 Highway.node[1].appl relativeSpeed ETV
vector 10 Highway.node[1].appl nodeId ETV
vector 11 Highway.node[1].appl acceleration ETV
vector 12 Highway.node[1].appl controllerAcceleration ETV
vector 13 Highway.node[1].appl speed ETV
vector 14 Highway.node[1].appl posx ETV
vector 15 Highway.node[1].appl posy ETV
vector 16 Highway.node[2].appl distance ETV
vector 17 Highway.node[2].appl relativeSpeed ETV
vector 18 Highway.node[2].appl nodeId ETV
vector 19 Highway.node[2].appl acceleration ETV
vector 20 Highway.node[2].appl controllerAcceleration ETV
vector 21 Highway.node[2].appl speed ETV
vector 22 Highway.node[2].appl posx ETV
vector 23 Highway.node[2].appl posy ETV
vector 24 Highway.node[3].appl distance ETV
vector 25 Highway.node[3].appl relativeSpeed ETV
vector 26 Highway.node[3].appl nodeId ETV
vector 27 Highway.node[3].appl acceleration ETV
vector 28 Highway.node[3].appl controllerAcceleration ETV
vector 29 Highway.node[3].appl speed ETV
vector 30 Highway.node[3].appl posx ETV
vector 31 Highway.node[3].appl posy ETV
vector 32 Highway.node[4].appl distance ETV
vector 33 Highway.node[4].appl relativeSpeed ETV
vector 34 Highway.node[4].appl nodeId ETV
vector 35 Highway.node[4].appl acceleration ETV
vector 36 Highway.node[4].appl controllerAcceleration ETV
vector 37 Highway.node[4].appl speed ETV
vector 38 Highway.node[4].appl posx ETV
vector 39 Highway.node[4].appl posy ETV
vector 40 Highway.node[5].appl distance ETV
vector 41 Highway.node[5].appl relativeSpeed ETV
vector 42 Highway.node[5].appl nodeId ETV
vector 43 Highway.node[5].appl acceleration ETV
vector 44 Highway.node[5].appl controllerAcceleration ETV
vector 45 Highway.node[5].appl speed ETV
vector 46 Highway.node[5].appl posx ETV
vector 47 Highway.node[5].appl posy ETV
vector 48 Highway.node[6].appl distance ETV
vector 49 Highway.node[6].appl relativeSpeed ETV
vector 50 Highway.node[6].appl nodeId ETV
vector 51 Highway.node[6].appl acceleration ETV
vector 52 Highway.node[6].appl controllerAcceleration ETV
vector 53 Highway.node[6].appl speed ETV
vector 54 Highway.node[6].appl posx ETV
vector 55 Highway.node[6].appl posy ETV
vector 56 Highway.node[7].appl distance ETV
vector 57 Highway.node[7].appl relativeSpeed ETV
vector 58 Highway.node[7].appl nodeId ETV
vector 59 Highway.node[7].appl acceleration ETV
vector 60 Highway.node[7].appl controllerAcceleration ETV
vector 61 Highway.node[7].appl speed ETV
vector 62 Highway.node[7].appl posx ETV
vector 63 Highway.node[7].appl posy ETV
vector 64 Highway.node[8].appl distance ETV
vector 65 Highway.node[8].appl relativeSpeed ETV
vector 66 Highway.node[8].appl nodeId ETV
vector 67 Highway.node[8].appl acceleration ETV
vector 68 Highway.node[8].appl controllerAcceleration ETV
vector 69 Highway.node[8].appl speed ETV
vector 70 Highway.node[8].appl posx ETV
vector 71 Highway.node[8].appl posy ETV
vector 72 Highway.node[9].appl distance ETV
vector 73 Highway.node[9].appl relativeSpeed ETV
vector 74 Highway.node[9].appl nodeId ETV
vector 75 Highway.node[9].appl acceleration ETV
vector 76 Highway.node[9].appl controllerAcceleration ETV
vector 77 Highway.node[9].appl speed ETV
vector 78 Highway.node[9].appl posx ETV
vector 79 Highway.node[9].appl posy ETV
vector 80 Highway.node[10].appl distance ETV
vector 81 Highway.node[10].appl relativeSpeed ETV
vector 82 Highway.node[10].appl nodeId ETV
vector 83 Highway.node[10].appl acceleration ETV
vector 84 Highway.node[10].appl controllerAcceleration ETV
vector 85 Highway.node[10].appl speed ETV
vector 86 Highway.node[10].appl posx ETV
vector 87 Highway.node[10].appl posy ETV
vector 88 Highway.node[11].appl distance ETV
vector 89 Highway.node[11].appl relativeSpeed ETV
vector 90 Highway.node[11].appl nodeId ETV
vector 91 Highway.node[11].appl acceleration ETV
vector 92 Highway.node[11].appl controllerAcceleration ETV
vector 93 Highway.node[11].appl speed ETV
vector 94 Highway.node[11].appl posx ETV
vector 95 Highway.node[11].appl posy ETV
vector 96 Highway.node[12].appl distance ETV
vector 97 Highway.node[12].appl relativeSpeed ETV
vector 98 Highway.node[12].appl nodeId ETV
vector 99 Highway.node[12].appl acceleration ETV
vector 100 Highway.node[12].appl controllerAcceleration ETV
vector 101 Highway.node[12].appl speed ETV
vector 102 Highway.node[12].appl posx ETV
vector 103 Highway.node[12].appl posy ETV
vector 104 Highway.node[13].appl distance ETV
vector 105 Highway.node[13].appl relativeSpeed ETV
vector 106 Highway.node[13].appl nodeId ETV
vector 107 Highway.node[13].appl acceleration ETV
vector 108 Highway.node[13].appl controllerAcceleration ETV
vector 109 Highway.node[13].appl speed ETV
vector 110 Highway.node[13].appl posx ETV
vector 111 Highway.node[13].appl posy ETV
vector 112 Highway.node[14].appl distance ETV
vector 113 Highway.node[14].appl relativeSpeed ETV
vector 114 Highway.node[14].appl nodeId ETV
vector 115 Highway.node[14].appl acceleration ETV
vector 116 Highway.node[14].appl controllerAcceleration ETV
vector 117 Highway.node[14].appl speed ETV
vector 118 Highway.node[14].appl posx ETV
vector 119 Highway.node[14].appl posy ETV
vector 120 Highway.node[15].appl distance ETV
vector 121 Highway.node[15].appl relativeSpeed ETV
vector 122 Highway.node[15].appl nodeId ETV
vector 123 Highway.node[15].appl acceleration ETV
vector 124 Highway.node[15].appl controllerAcceleration ETV
vector 125 Highway.node[15].appl speed ETV
vector 126 Highway.node[15].appl posx ETV
vector 127 Highway.node[15].appl posy ETV
vector 128 Highway.node[8].prot frontDelay ETV
vector 129 Highway.node[8].prot frontDelayId ETV
vector 130 Highway.node[13].prot frontDelay ETV
vector 131 Highway.node[13].prot frontDelayId ETV
vector 132 Highway.node[2].prot frontDelay ETV
vector 133 Highway.node[2].prot frontDelayId ETV
vector 134 Highway.node[6].prot frontDelay ETV
vector 135 Highway.node[6].prot frontDelayId ETV
vector 136 Highway.node[12].prot frontDelay ETV
vector 137 Highway.node[12].prot frontDelayId ETV
vector 138 Highway.node[3].prot frontDelay ETV
vector 139 Highway.node[3].prot frontDelayId ETV
vector 140 Highway.node[4].prot frontDelay ETV
vector 141 Highway.node[4].prot frontDelayId ETV
vector 142 Highway.node[14].prot frontDelay ETV
vector 143 Highway.node[14].prot frontDelayId ETV
vector 144 Highway.node[5].prot frontDelay ETV
vector 145 Highway.node[5].prot frontDelayId ETV
vector 146 Highway.node[10].prot frontDelay ETV
vector 147 Highway.node[10].prot frontDelayId ETV
vector 148 Highway.node[9].prot frontDelay ETV
vector 149 Highway.node[9].prot frontDelayId ETV
vector 150 Highway.node[11].prot frontDelay ETV
vector 151 Highway.node[11].prot frontDelayId ETV
vector 152 Highway.node[1].prot leaderDelay ETV
vector 153 Highway.node[1].prot leaderDelayId ETV
vector 154 Highway.node[1].prot frontDelay ETV
vector 155 Highway.node[1].prot frontDelayId ETV
vector 156 Highway.node[8].prot leaderDelay ETV
vector 157 Highway.node[8].prot leaderDelayId ETV
vector 158 Highway.node[9].prot leaderDelay ETV
vector 159 Highway.node[9].prot leaderDelayId ETV
vector 160 Highway.node[10].prot leaderDelay ETV
vector 161 Highway.node[10].prot leaderDelayId ETV
vector 162 Highway.node[11].prot leaderDelay ETV
vector 163 Highway.node[11].prot leaderDelayId ETV
vector 164 Highway.node[12].prot leaderDelay ETV
vector 165 Highway.node[12].prot leaderDelayId ETV
vector 166 Highway.node[13].prot leaderDelay ETV
vector 167 Highway.node[13].prot leaderDelayId ETV
vector 168 Highway.node[14].prot leaderDelay ETV
vector 169 Highway.node[14].prot leaderDelayId ETV
vector 170 Highway.node[15].prot leaderDelay ETV
vector 171 Highway.node[15].prot leaderDelayId ETV
vector 172 Highway.node[2].prot leaderDelay ETV
vector 173 Highway.node[2].prot leaderDelayId ETV
vector 174 Highway.node[3].prot leaderDelay ETV
vector 175 Highway.node[3].prot leaderDelayId ETV
vector 176 Highway.node[4].prot leaderDelay ETV
vector 177 Highway.node[4].prot leaderDelayId ETV
vector 178 Highway.node[5].prot leaderDelay ETV
vector 179 Highway.node[5].prot leaderDelayId ETV
vector 180 Highway.node[6].prot leaderDelay ETV
vector 181 Highway.node[6].prot leaderDelayId ETV
vector 182 Highway.node[7].prot leaderDelay ETV
vector 183 Highway.node[7].prot leaderDelayId ETV
vector 184 Highway.node[15].prot frontDelay ETV
vector 185 Highway.node[15].prot frontDelayId ETV
vector 186 Highway.node[7].prot frontDelay ETV
vector 187 Highway.node[7].prot frontDelayId ETV
vector 188 Highway.node[0].prot nodeId ETV
vector 189 Highway.node[0].prot busyTime ETV
vector 190 Highway.node[0].prot collisions ETV
vector 191 Highway.node[1].prot nodeId ETV
vector 192 Highway.node[1].prot busyTime ETV
vector 193 Highway.node[1].prot collisions ETV
vector 194 Highway.node[2].prot nodeId ETV
vector 195 Highway.node[2].prot busyTime ETV
vector 196 Highway.node[2].prot collisions ETV
vector 197 Highway.node[3].prot nodeId ETV
vector 198 Highway.node[3].prot busyTime ETV
vector 199 Highway.node[3].prot collisions ETV
vector 200 Highway.node[4].prot nodeId ETV
vector 201 Highway.node[4].prot busyTime ETV
vector 202 Highway.node[4].prot collisions ETV
vector 203 Highway.node[5].prot nodeId ETV
vector 204 Highway.node[5].prot busyTime ETV
vector 205 Highway.node[5].prot collisions ETV
vector 206 Highway.node[6].prot nodeId ETV
vector 207 Highway.node[6].prot busyTime ETV
vector 208 Highway.node[6].prot collisions ETV
vector 209 Highway.node[7].prot nodeId ETV
vector 210 Highway.node[7].prot busyTime ETV
vector 211 Highway.node[7].prot collisions ETV
vector 212 Highway.node[8].prot nodeId ETV
vector 213 Highway.node[8].prot busyTime ETV
vector 214 Highway.node[8].prot collisions ETV
vector 215 Highway.node[9].prot nodeId ETV
vector 216 Highway.node[9].prot busyTime ETV
vector 217 Highway.node[9].prot collisions ETV
vector 218 Highway.node[10].prot nodeId ETV
vector 219 Highway.node[10].prot busyTime ETV
vector 220 Highway.node[10].prot collisions ETV
vector 221 Highway.node[11].prot nodeId ETV
vector 222 Highway.node[11].prot busyTime ETV
vector 223 Highway.node[11].prot collisions ETV
vector 224 Highway.node[12].prot nodeId ETV
vector 225 Highway.node[12].prot busyTime ETV
vector 226 Highway.node[12].prot collisions ETV
vector 227 Highway.node[13].prot nodeId ETV
vector 228 Highway.node[13].prot busyTime ETV
vector 229 Highway.node[13].prot collisions ETV
vector 230 Highway.node[14].prot nodeId ETV
vector 231 Highway.node[14].prot busyTime ETV
vector 232 Highway.node[14].prot collisions ETV
vector 233 Highway.node[15].prot nodeId ETV
vector 234 Highway.node[15].prot busyTime ETV
vector 235 Highway.node[15].prot collisions ETV
0	16895 18176 113 2096194 1.11 99.91 989 -1 -1 -989 989
1	35071 17187 113 2096194 1.11 99.91 989 0 0 0 0
2	52258 17187 113 2096194 1.11 99.91 989 0 0 0 0
3	69445 19475 113 2096194 1.11 99.91 989 -3.14892e-05 0.000707784 0.010991577126781 6.0508064149601e-06
4	88920 27133 113 2096194 1.11 99.91 989 -4.89399e-05 0.00109259 0.010614843047836 8.6815283230331e-06
5	116053 23114 113 2096194 1.11 99.91 989 36.11 36.1111 35713.866699999 1289666.6073546
6	139167 23011 113 2096194 1.11 99.91 989 106.41 3674.19 1869503.95 4585125735.6776
7	162178 22132 113 2096194 1.11 99.91 989 242.45 242.45 239783.05 58135400.472499
8	184310 22632 114 2096195 1.11 99.91 989 -1 4.99998 3926.69201 18615.247299322
9	206942 25411 114 2096195 1.11 99.91 989 -2.36679e-05 0.238847 29.999826653329 4.7385607084005
10	232353 18176 114 2096195 1.11 99.91 989 1 1 989 989
11	250529 27422 114 2096195 1.11 99.91 989 -1.25476 0.0558402 -21.039106043302 20.610319835835
12	277951 27395 114 2096195 1.11 99.91 989 -1.5 0.0867367 -20.186153838568 26.884740009504
13	305346 23965 114 2096195 1.11 99.91 989 33.9132 36.1111 35548.329 1277989.6079009
14	329311 23995 114 2096195 1.11 99.91 989 100.41 3651.74 1860735.682 4548984820.6057
15	353306 23121 114 2096195 1.11 99.91 989 242.45 245.75 240030.55 58256229.9725
16	376427 23506 115 2096196 1.11 99.91 989 1.99999 7.92584 3793.68171 16373.520348726
17	399933 26385 115 2096196 1.11 99.91 989 -4.92179e-06 1.17649 59.853562923649 19.606209491252
18	426318 19165 115 2096196 1.11 99.91 989 10 10 9890 98900
19	445483 26588 115 2096196 1.11 99.91 989 -2.8956 0.035515 -153.58198256721 335.47290906254
20	472071 26612 115 2096196 1.11 99.91 989 -3.35778 0.0355644 -156.92310550988 364.75095859962
21	498683 23991 115 2096196 1.11 99.91 989 20.7907 36.1111 34785.3618 1229721.9903835
22	522674 23999 115 2096196 1.11 99.91 989 46.4099 3522.1 1787945.8272 4257750548.0423
23	546673 23121 115 2096196 1.11 99.91 989 242.45 242.45 239783.05 58135400.472499
24	569794 23473 116 2096197 1.11 99.91 989 2 41.7392 6324.22819 138557.17108932
25	593267 26370 116 2096197 1.11 99.91 989 -0.333905 0.355836 37.862811014907 6.9787108028872
26	619637 19165 116 2096197 1.11 99.91 989 11 11 10879 119669
27	638802 26620 116 2096197 1.11 99.91 989 -0.567517 0.0654678 -13.2870009641 8.0654596991684
28	665422 26646 116 2096197 1.11 99.91 989 -0.618225 0.0783679 -12.664194854938 8.9410387539374
29	692068 23985 116 2096197 1.11 99.91 989 34.6298 36.1111 35303.3393 1260369.3067603
30	716053 24006 116 2096197 1.11 99.91 989 40.4099 3567.2 1781728.8689 4237592802.9123
31	740059 23121 116 2096197 1.11 99.91 989 242.45 249.05 240278.05 58378692.9725
32	763180 23834 117 2096198 1.11 99.91 989 1.99999 41.6559 6266.07416 139298.93592094
33	787014 26448 117 2096198 1.11 99.91 989 -0.00132709 0.217049 37.185111824523 2.9828596807129
34	813462 19165 117 2096198 1.11 99.91 989 12 12 11868 142416
35	832627 26570 117 2096198 1.11 99.91 989 -1.25135 0.0625425 -22.151922342158 22.375308454893
36	859197 26523 117 2096198 1.11 99.91 989 -1.5 0.0729955 -20.970431508507 28.120349722221
37	885720 23987 117 2096198 1.11 99.91 989 33.7503 36.1111 35211.3142 1253956.3697773
38	909707 24011 117 2096198 1.11 99.91 989 34.4099 3552.04 1774003.292 4206751657.7099
39	933718 23121 117 2096198 1.11 99.91 989 242.45 245.75 240030.55 58256229.9725
40	956839 23852 118 2096199 1.11 99.91 989 1.99973 26.4397 4671.93283 45388.903128117
41	980691 26370 118 2096199 1.11 99.91 989 -1.31335 5.53841 153.63723801785 710.40624066844
42	1007061 19165 118 2096199 1.11 99.91 989 13 13 12857 167141
43	1026226 26470 118 2096199 1.11 99.91 989 -2.62858 1.46958 -39.750632260997 225.25469706046
44	1052696 26351 118 2096199 1.11 99.91 989 -2.71585 1.5 -34.953406676928 275.42139299203
45	1079047 23982 118 2096199 1.11 99.91 989 28.2175 36.1111 34966.027 1238109.3773302
46	1103029 24006 118 2096199 1.11 99.91 989 28.4099 3521.6 1765908.9347 4173226667.5762
47	1127035 23121 118 2096199 1.11 99.91 989 242.45 245.75 239915.05 58199842.872499
48	1150156 23945 119 2096200 1.11 99.91 989 1.99607 40.7511 4988.61523 79572.115241436
49	1174101 26346 119 2096200 1.11 99.91 989 -0.00225342 4.82935 166.42989810528 441.18925583865
50	1200447 19165 119 2096200 1.11 99.91 989 14 14 13846 193844
51	1219612 26450 119 2096200 1.11 99.91 989 -2.54636 1.48191 -16.199942105975 190.05998217671
52	1246062 26351 119 2096200 1.11 99.91 989 -3.35181 1.5 -13.829223307891 247.42153494764
53	1272413 23998 119 2096200 1.11 99.91 989 29.9943 36.1111 35035.6769 1242159.2639469
54	1296411 23989 119 2096200 1.11 99.91 989 22.4099 3522.45 1758687.7361 4145673888.0743
55	1320400 23121 119 2096200 1.11 99.91 989 242.45 249.05 240106.45 58294351.5725
56	1343521 23407 120 2096201 1.11 99.91 989 -1 37.211 3348.63611 23916.589466134
57	1366928 25982 120 2096201 1.11 99.91 989 -0.00307791 3.57927 64.805940538754 119.4026120391
58	1392910 19165 120 2096201 1.11 99.91 989 15 15 14835 222525
59	1412075 26452 120 2096201 1.11 99.91 989 -2.89218 1.45041 -10.659964233199 147.96445249481
60	1438527 26392 120 2096201 1.11 99.91 989 -3.35652 1.5 -8.1857032366093 219.09455728826
61	1464919 23983 120 2096201 1.11 99.91 989 31.6505 36.1111 35105.5349 1246579.4006892
62	1488902 24013 120 2096201 1.11 99.91 989 16.4099 3523.41 1751689.621 4119539473.0195
63	1512915 23121 120 2096201 1.11 99.91 989 242.45 252.35 240334.15 58407866.9525
64	1536036 23933 121 2096202 1.11 99.91 989 2 28.7001 5502.73133 52783.88662691
65	1559969 26699 121 2096202 1.11 99.91 989 0 2.68415 177.82420146519 326.82522741534
66	1586668 18176 121 2096202 1.11 99.91 989 2 2 1978 3956
67	1604844 27199 121 2096202 1.11 99.91 989 -1.6973 0.297036 -16.35149643773 37.431990537757
68	1632043 27206 121 2096202 1.11 99.91 989 -2.58951 0.335038 -14.291718415298 52.399214099409
69	1659249 23956 121 2096202 1.11 99.91 989 33.4269 36.1111 35506.0452 1274997.0940935
70	1683205 24011 121 2096202 1.11 99.91 989 94.4099 3641.49 1852387.5108 4515622675.1381
71	1707216 23121 121 2096202 1.11 99.91 989 242.45 242.45 239783.05 58135400.472499
72	1730337 23993 122 2096203 1.11 99.91 989 1.99992 21.8795 4743.69801 30392.97120985
73	1754330 26592 122 2096203 1.11 99.91 989 -0.000699415 3.30579 199.95524117887 469.64265265421
74	1780922 18176 122 2096203 1.11 99.91 989 3 3 2967 8901
75	1799098 27088 122 2096203 1.11 99.91 989 -2.62124 0.597344 -39.473076978493 126.93930071899
76	1826186 27111 122 2096203 1.11 99.91 989 -3.35406 0.641166 -35.865699072659 156.75830470967
77	1853297 23956 122 2096203 1.11 99.91 989 30.3314 36.1111 35306.0896 1261787.2120087
78	1877253 24007 122 2096203 1.11 99.91 989 88.4099 3615.61 1843687.7716 4479511392.6792
79	1901260 23121 122 2096203 1.11 99.91 989 242.45 242.45 239783.05 58135400.472499
80	1924381 23963 123 2096204 1.11 99.91 989 1.99984 18.9454 4490.20629 25177.022735306
81	1948344 26586 123 2096204 1.11 99.91 989 -0.000658122 3.25162 170.80675756916 386.34072119969
82	1974930 18176 123 2096204 1.11 99.91 989 4 4 3956 15824
83	1993106 27007 123 2096204 1.11 99.91 989 -2.91554 0.845285 -66.417615113286 211.46563799936
84	2020113 27023 123 2096204 1.11 99.91 989 -3.35829 0.889072 -60.985159535042 245.63644185108
85	2047136 23975 123 2096204 1.11 99.91 989 27.5682 36.1111 35135.281 1251259.1078314
86	2071111 24002 123 2096204 1.11 99.91 989 82.4099 3592.66 1835241.6975 4444992373.0227
87	2095113 23121 123 2096204 1.11 99.91 989 242.45 242.45 239783.05 58135400.472499
88	2118234 23824 124 2096205 1.11 99.91 989 2 15.4771 4274.03176 21385.911154169
89	2142058 26518 124 2096205 1.11 99.91 989 -1.58825e-05 3.20178 136.32873636817 276.00590874066
90	2168576 18176 124 2096205 1.11 99.91 989 5 5 4945 24725
91	2186752 26931 124 2096205 1.11 99.91 989 -2.98138 1.01981 -97.512964514794 274.71078316701
92	2213683 26939 124 2096205 1.11 99.91 989 -3.35824 1.0947 -90.872921139711 310.77757858009
93	2240622 23996 124 2096205 1.11 99.91 989 25.0972 36.1111 34998.9531 1243359.4829832
94	2264618 24010 124 2096205 1.11 99.91 989 76.4099 3573.18 1827011.5173 4411799668.8623
95	2288628 23121 124 2096205 1.11 99.91 989 242.45 242.45 239783.05 58135400.472499
96	2311749 23481 125 2096206 1.11 99.91 989 -1 4.99809 3552.04724 15736.129681652
97	2335230 25955 125 2096206 1.11 99.91 989 -3.22625e-06 0.114871 29.981011314412 2.3809628936156
98	2361185 18176 125 2096206 1.11 99.91 989 6 6 5934 35604
99	2379361 26964 125 2096206 1.11 99.91 989 -0.714441 0.0398025 -11.052793186248 7.5569131871159
100	2406325 27975 125 2096206 1.11 99.91 989 -1.0977 0.0495009 -10.319528674762 9.9899339711114
101	2434300 24998 125 2096206 1.11 99.91 989 34.9505 36.1111 35460.8437 1271574.5150125
102	2459298 24989 125 2096206 1.11 99.91 989 70.4099 3612.94 1820393.3012 4389803121.0274
103	2484287 24110 125 2096206 1.11 99.91 989 242.45 249.05 240278.05 58378692.9725
104	2508397 24454 126 2096207 1.11 99.91 989 2 50.0418 7304.95223 202846.90590237
105	2532851 27619 126 2096207 1.11 99.91 989 -0.00125724 0.106152 30.435055728458 2.2181415680958
106	2560470 19165 126 2096207 1.11 99.91 989 7 7 6923 48461
107	2579635 27884 126 2096207 1.11 99.91 989 -1.25477 0.0559491 -21.023219417776 21.934518682982
108	2607519 27875 126 2096207 1.11 99.91 989 -1.5 0.0868963 -19.846357292001 27.739297626569
109	2635394 24983 126 2096207 1.11 99.91 989 33.9131 36.1111 35367.9304 1265087.6081755
110	2660377 24977 126 2096207 1.11 99.91 989 64.4099 3597.7 1812311.3302 4357248833.6847
111	2685354 24110 126 2096207 1.11 99.91 989 242.45 245.75 240030.55 58256229.9725
112	2709464 24698 127 2096208 1.11 99.91 989 1.99999 22.9884 5003.21939 45769.892926332
113	2734162 27442 127 2096208 1.11 99.91 989 -1.48773 2.11369 14.748569851906 103.57474415341
114	2761604 19165 127 2096208 1.11 99.91 989 8 8 7912 63296
115	2780769 27734 127 2096208 1.11 99.91 989 -2.74221 0.63113 -118.80982143173 269.17883497742
116	2808503 27737 127 2096208 1.11 99.91 989 -2.81248 0.951331 -114.08811762772 287.33771083387
117	2836240 24981 127 2096208 1.11 99.91 989 23.9215 36.1111 34924.2601 1238204.0259601
118	2861221 24987 127 2096208 1.11 99.91 989 58.4099 3547.82 1803560.7643 4319805919.1156
119	2886208 24110 127 2096208 1.11 99.91 989 242.45 242.45 239783.05 58135400.472499
120	2910318 24464 128 2096209 1.11 99.91 989 1.99615 9.79245 3909.2909 17508.530245766
121	2934782 27425 128 2096209 1.11 99.91 989 -0.00246028 2.2261 79.044231702636 58.838242418019
122	2962207 19165 128 2096209 1.11 99.91 989 9 9 8901 80109
123	2981372 27654 128 2096209 1.11 99.91 989 -2.55295 0.0368581 -141.43699466517 299.33639100952
124	3009026 27648 128 2096209 1.11 99.91 989 -3.35435 0.299099 -140.53732791166 324.1652593773
125	3036674 24978 128 2096209 1.11 99.91 989 21.9672 36.1111 34845.215 1233436.923234
126	3061652 25000 128 2096209 1.11 99.91 989 52.4099 3534.03 1795695.4677 4288449739.6335
127	3086652 24110 128 2096209 1.11 99.91 989 242.45 242.45 239783.05 58135400.472499
128	3110762 41658 2286 2096255 1.217224021398 99.91722049783 988 0.099989422115 0.100012256214 98.799989477816 9.8799979368926
129	3152420 28926 2286 2096255 1.217224021398 99.91722049783 988 2 2 1976 3952
130	3181346 41656 2417 2096392 1.221326121467 99.921322643856 988 0.099989152088 0.100007316511 98.799989523773 9.8799979460715
131	3223002 28926 2417 2096392 1.221326121467 99.921322643856 988 7 7 6916 48412
132	3251928 41668 2542 2096517 1.239559181509 99.939555896676 988 0.099989152125 0.100007320866 98.799989716551 9.8799979846278
133	3293596 29917 2542 2096517 1.239559181509 99.939555896676 988 10 10 9880 98800
134	3323513 41683 2679 2096654 1.244025261564 99.944021910129 988 0.099988910239 0.100007311679 98.799989649949 9.879997971424
135	3365196 29920 2679 2096654 1.244025261564 99.944021910129 988 14 14 13832 193648
136	3395116 41674 2809 2096814 1.246320421675 99.946330205887 988 0.099988759945 0.100009001389 98.800002785596 9.8800005982966
137	3436790 28926 2809 2096814 1.246320421675 99.946330205887 988 6 6 5928 35568
138	3465716 41661 2933 2096944 1.248212521744 99.948222395335 988 0.099988760072 0.100009001389 98.800002874975 9.8800006162935
139	3507377 29894 2933 2096944 1.248212521744 99.948222395335 988 11 11 10868 119548
140	3537271 41643 3070 2097045 1.253003541758 99.953000447226 988 0.099993001384 0.100007321944 98.800002906852 9.8800006223268
141	3578914 29888 3070 2097045 1.253003541758 99.953000447226 988 12 12 11856 142272
142	3608802 41674 3200 2097211 1.256455621813 99.956465665896 988 0.099988910602 0.100007330563 98.800003045467 9.8800006505593
143	3650476 28929 3200 2097211 1.256455621813 99.956465665896 988 8 8 7904 63232
144	3679405 41688 3331 2097336 1.266277721882 99.966274751732 988 0.099988583516 0.100007322054 98.800003031234 9.8800006474516
145	3721093 29914 3331 2097336 1.266277721882 99.966274751732 988 13 13 12844 166972
146	3751007 41671 3463 2097444 1.283756902007 99.983766939065 988 0.099989040894 0.100009001389 98.800003038442 9.8800006489854
147	3792678 28937 3463 2097444 1.283756902007 99.983766939065 988 4 4 3952 15808
148	3821615 41666 3593 2097568 1.284244922021 99.984255035692 988 0.099989040894 0.100009001389 98.800003115055 9.880000664308
149	3863281 28929 3593 2097568 1.284244922021 99.984255035692 988 3 3 2964 8892
150	3892210 41675 3854 2097829 1.292124402353 99.992121641637 988 0.099993001384 0.100007320599 98.800003240668 9.8800006890889
151	3933885 28928 3854 2097829 1.292124402353 99.992121641637 988 5 5 4940 24700
152	3962813 41681 3978 2097953 1.296343482408 99.996353925981 988 0.099988761082 0.100009001389 98.800003444957 9.8800007301678
153	4004494 28918 3978 2097953 1.296343482408 99.996353925981 988 1 1 988 988
154	4033412 41681 3978 2097953 1.296343482408 99.996353925981 988 0.099988761082 0.100009001389 98.800003444957 9.8800007301678
155	4075093 28918 3978 2097953 1.296343482408 99.996353925981 988 1 1 988 988
156	4104011 41689 3984 2097959 1.296343502422 99.996353959238 988 0.099988761087 0.100009001389 98.8000034582 9.8800007328164
157	4145700 28926 3984 2097959 1.296343502422 99.996353959238 988 2 2 1976 3952
158	4174626 41665 3990 2097965 1.296343522436 99.996354046257 988 0.099988761094 0.100009001389 98.800003525205 9.8800007462174
159	4216291 28922 3990 2097965 1.296343522436 99.996354046257 988 3 3 2964 8892
160	4245213 41688 3996 2097983 1.296343542449 99.996354123603 988 0.099988761106 0.100009001389 98.800003582538 9.880000757684
161	4286901 28931 3996 2097983 1.296343542449 99.996354123603 988 4 4 3952 15808
162	4315832 41668 4002 2097989 1.296343562463 99.996354189505 988 0.09998876112 0.100009001389 98.800003628426 9.8800007668616
163	4357500 28920 4002 2097989 1.296343562463 99.996354189505 988 5 5 4940 24700
164	4386420 41658 4008 2097971 1.296343582477 99.996354055481 988 0.099988761138 0.100009001389 98.800003474388 9.880000736054
165	4428078 28936 4008 2097971 1.296343582477 99.996354055481 988 6 6 5928 35568
166	4457014 41673 4014 2097977 1.296343602491 99.996354105677 988 0.099988761161 0.100009001389 98.80000350457 9.8800007420904
167	4498687 28930 4014 2097977 1.296343602491 99.996354105677 988 7 7 6916 48412
168	4527617 41677 4020 2098007 1.296343622505 99.996354274748 988 0.099988761185 0.10000900139 98.800003653627 9.8800007719018
169	4569294 28919 4020 2098007 1.296343622505 99.996354274748 988 8 8 7904 63232
170	4598213 41675 4026 2098013 1.296343642519 99.996354321434 988 0.099988761211 0.100009001389 98.800003680299 9.8800007772363
171	4639888 28923 4026 2098013 1.296343642519 99.996354321434 988 9 9 8892 80028
172	4668811 41688 4032 2098037 1.296343662532 99.996354361579 988 0.099988761239 0.100009001389 98.800003700431 9.8800007812627
173	4710499 29925 4032 2098037 1.296343662532 99.996354361579 988 10 10 9880 98800
174	4740424 41657 4038 2097995 1.296343682546 99.996354207615 988 0.099988761265 0.100009001389 98.800003526453 9.880000746467
175	4782081 29906 4038 2097995 1.296343682546 99.996354207615 988 11 11 10868 119548
176	4811987 41656 4044 2098001 1.29634370256 99.996354257914 988 0.099988761293 0.100009001389 98.800003556738 9.880000752524
177	4853643 29904 4044 2098001 1.29634370256 99.996354257914 988 12 12 11856 142272
178	4883547 41675 4050 2098031 1.296343722574 99.99635435995 988 0.099988761319 0.100009001389 98.80000363876 9.8800007689284
179	4925222 29929 4050 2098031 1.296343722574 99.99635435995 988 13 13 12844 166972
180	4955151 41678 4056 2098025 1.296343742588 99.996354356778 988 0.099988761342 0.10000900139 98.800003615574 9.8800007642912
181	4996829 29924 4056 2098025 1.296343742588 99.996354356778 988 14 14 13832 193648
182	5026753 41674 4062 2098019 1.296343762602 99.996354354021 988 0.099988761365 0.100009001389 98.800003592803 9.880000759737
183	5068427 29913 4062 2098019 1.296343762602 99.996354354021 988 15 15 14820 222300
184	5098340 41614 4115 2095984 1.303240642519 99.903243989079 987 0.099777383677 0.100215875553 98.700009347944 9.8700020068413
185	5139954 28876 4115 2095984 1.303240642519 99.903243989079 987 9 9 8883 79947
186	5168830 41609 4245 2096114 1.305925762602 99.905929041982 987 0.099989704711 0.100007316713 98.699996280764 9.869999297406
187	5210439 29861 4245 2096114 1.305925762602 99.905929041982 987 15 15 14805 222075
188	5240300 1625 18806 2098039 2 100 99 0 0 0 0
189	5241925 2242 18806 2098039 2 100 99 0.044313 0.052257198568 4.941845198568 0.24672243567618
190	5244167 1625 18806 2098039 2 100 99 0 0 0 0
191	5245792 1625 18807 2098040 2 100 99 1 1 99 99
192	5247417 2242 18807 2098040 2 100 99 0.044313 0.051754 4.940926059378 0.24662845527271
193	5249659 1625 18807 2098040 2 100 99 0 0 0 0
194	5251284 1724 18808 2098041 2 100 99 10 10 990 9900
195	5253008 2242 18808 2098041 2 100 99 0.044313 0.051754 4.940926598566 0.24662850927274
196	5255250 1625 18808 2098041 2 100 99 0 0 0 0
197	5256875 1724 18809 2098042 2 100 99 11 11 1089 11979
198	5258599 2241 18809 2098042 2 100 99 0.044313 0.051754 4.94092665854 0.24662851527922
199	5260840 1625 18809 2098042 2 100 99 0 0 0 0
200	5262465 1724 18810 2098043 2 100 99 12 12 1188 14256
201	5264189 2242 18810 2098043 2 100 99 0.044313 0.051754 4.940926718506 0.24662852128489
202	5266431 1625 18810 2098043 2 100 99 0 0 0 0
203	5268056 1724 18811 2098044 2 100 99 13 13 1287 16731
204	5269780 2242 18811 2098044 2 100 99 0.044313 0.051754 4.940926778486 0.24662852729198
205	5272022 1625 18811 2098044 2 100 99 0 0 0 0
206	5273647 1724 18812 2098045 2 100 99 14 14 1386 19404
207	5275371 2242 18812 2098045 2 100 99 0.044312 0.051754 4.940925838472 0.24662844467467
208	5277613 1625 18812 2098045 2 100 99 0 0 0 0
209	5279238 1724 18813 2098046 2 100 99 15 15 1485 22275
210	5280962 2241 18813 2098046 2 100 99 0.044313 0.05178789845 4.94092689845 0.24662865537487
211	5283203 1625 18813 2098046 2 100 99 0 0 0 0
212	5284828 1625 18814 2098047 2 100 99 2 2 198 396
213	5286453 2241 18814 2098047 2 100 99 0.044313 0.051754 4.94092611912 0.24662846125588
214	5288694 1625 18814 2098047 2 100 99 0 0 0 0
215	5290319 1625 18815 2098048 2 100 99 3 3 297 891
216	5291944 2242 18815 2098048 2 100 99 0.044313 0.051754 4.940926178972 0.24662846725008
217	5294186 1625 18815 2098048 2 100 99 0 0 0 0
218	5295811 1625 18816 2098049 2 100 99 4 4 396 1584
219	5297436 2242 18816 2098049 2 100 99 0.044313 0.051754 4.940926238882 0.24662847325009
220	5299678 1625 18816 2098049 2 100 99 0 0 0 0
221	5301303 1625 18817 2098050 2 100 99 5 5 495 2475
222	5302928 2240 18817 2098050 2 100 99 0.044313 0.051754 4.9409262988 0.24662847925091
223	5305168 1625 18817 2098050 2 100 99 0 0 0 0
224	5306793 1625 18818 2098051 2 100 99 6 6 594 3564
225	5308418 2242 18818 2098051 2 100 99 0.044313 0.051754 4.940926358738 0.24662848525374
226	5310660 1625 18818 2098051 2 100 99 0 0 0 0
227	5312285 1625 18819 2098052 2 100 99 7 7 693 4851
228	5313910 2241 18819 2098052 2 100 99 0.044313 0.051754 4.94092641869 0.24662849125798
229	5316151 1625 18819 2098052 2 100 99 0 0 0 0
230	5317776 1625 18820 2098053 2 100 99 8 8 792 6336
231	5319401 2241 18820 2098053 2 100 99 0.044312 0.051754 4.94092547863 0.24662840863602
232	5321642 1625 18820 2098053 2 100 99 0 0 0 0
233	5323267 1625 18821 2098054 2 100 99 9 9 891 8019
234	5324892 2242 18821 2098054 2 100 99 0.044313 0.051754 4.940926538608 0.24662850326788
235	5327134 1625 18821 2098054 2 100 99 0 0 0 0

