file 2446814 1720451966                                         
version 3
run BreakRanksNoGui-24-20240708-17:19:15-153820
attr configname BreakRanksNoGui
attr datetime 20240708-17:19:15
attr datetimef 20240708-171915
attr experiment BreakRanksNoGui
attr inifile omnetpp.ini
attr iterationvars "$nCars=8, $platoonSize=8, $nLanes=1, $ploegH=0.5, $controller=1, $headway=0.1, $leaderHeadway=1.2, $leaderSpeed=130, $breakRanksSafetyDistance=5, $minSpeed=120, $maxSpeed=140, $beaconInterval=0.1, $priority=4, $packetSize=200, $sController=\"CACC\", $0=2, $1=0"
attr iterationvarsd nCars=8/platoonSize=8/nLanes=1/ploegH=0.5/controller=1/headway=0.1/leaderHeadway=1.2/leaderSpeed=130/breakRanksSafetyDistance=5/minSpeed=120/maxSpeed=140/beaconInterval=0.1/priority=4/packetSize=200/sController=CACC/2/0
attr iterationvarsf nCars=8,platoonSize=8,nLanes=1,ploegH=0.5,controller=1,headway=0.1,leaderHeadway=1.2,leaderSpeed=130,breakRanksSafetyDistance=5,minSpeed=120,maxSpeed=140,beaconInterval=0.1,priority=4,packetSize=200,sController=CACC,2,0-
attr measurement "$nCars=8, $platoonSize=8, $nLanes=1, $ploegH=0.5, $controller=1, $headway=0.1, $leaderHeadway=1.2, $leaderSpeed=130, $breakRanksSafetyDistance=5, $minSpeed=120, $maxSpeed=140, $beaconInterval=0.1, $priority=4, $packetSize=200, $sController=\"CACC\", $0=2, $1=0"
attr network Highway
attr processid 153820
attr repetition 4
attr replication #4
attr resultdir results
attr runnumber 24
attr seedset 4
itervar beaconInterval 0.1
itervar breakRanksSafetyDistance 5
itervar controller 1
itervar headway 0.1
itervar leaderHeadway 1.2
itervar leaderSpeed 130
itervar maxSpeed 140
itervar minSpeed 120
itervar nCars 8
itervar nLanes 1
itervar packetSize 200
itervar platoonSize 8
itervar ploegH 0.5
itervar priority 4
itervar sController "\"CACC\""
config image-path ../../../veins/images
config repeat 10
config extends BreakRanks
config *.manager.command "\"sumo\""
config *.manager.ignoreGuiCommands true
config output-vector-file results/BreakRanks_1_0.1_130_5/result_4.vec
config output-scalar-file results/BreakRanks_1_0.1_130_5/result_4.sca
config extends Platooning
config *.node[*].scenario_type "\"BreakRanksScenario\""
config *.manager.command "\"sumo-gui\""
config *.node[*].scenario_type "\"SimpleScenario\""
config cmdenv-express-mode true
config cmdenv-autoflush true
config cmdenv-status-frequency 15s
config num-rngs 6
config network Highway
config debug-on-errors true
config print-undisposed true
config *.playgroundSizeX 65000m
config *.playgroundSizeY 25000m
config *.playgroundSizeZ 50m
config sim-time-limit "100 s"
config *.annotations.draw false
config *.obstacles.debug false
config *.world.useTorus false
config *.world.use2D false
config *.manager.updateInterval 0.01s
config *.manager.host "\"localhost\""
config *.manager.moduleType "\"org.car2x.plexe.PlatoonCar\""
config *.manager.moduleName "\"node\""
config *.manager.moduleDisplayString "\"\""
config *.manager.autoShutdown true
config *.manager.margin 25
config *.connectionManager.sendDirect true
config *.connectionManager.maxInterfDist 2600m
config *.connectionManager.drawMaxIntfDist false
config *.**.nic.mac1609_4.useServiceChannel false
config *.**.nic.mac1609_4.txPower 100mW
config *.**.nic.mac1609_4.bitrate 6Mbps
config *.**.nic.mac1609_4.useAcks true
config *.**.nic.mac1609_4.ackErrorRate 0.0
config *.**.nic.mac1609_4.frameErrorRate 0.0
config *.**.nic.phy80211p.minPowerLevel -94dBm
config *.**.nic.phy80211p.maxTXPower 100mW
config *.**.nic.phy80211p.useNoiseFloor true
config *.**.nic.phy80211p.noiseFloor -95dBm
config *.**.nic.phy80211p.decider "xmldoc(\"config.xml\")"
config *.**.nic.phy80211p.analogueModels "xmldoc(\"config.xml\")"
config *.**.nic.phy80211p.usePropagationDelay true
config *.node[*].mobility.x 0
config *.node[*].mobility.y 0
config *.node[*].mobility.z 1.895
config seed-set 4
config **.seed 4
config *.node[*].prot.rng-0 2
config *.node[*].appl.rng-0 3
config *.node[*].scenario.rng-0 4
config **.traffic.rng-0 5
config *.manager.configFile "\"./sumocfg/freeway.sumo.cfg\""
config *.manager.launchConfig "xmldoc(\"./sumocfg/freeway.launchd.xml\")"
config **.numberOfCars 8
config **.numberOfCarsPerPlatoon 8
config **.numberOfLanes 1
config *.node[*].helper_type "\"PositionHelper\""
config *.node[*].scenario.caccC1 0.5
config *.node[*].scenario.caccXi 1
config *.node[*].scenario.caccOmegaN "0.2 Hz"
config *.node[*].scenario.caccSpacing "2 m"
config *.node[*].scenario.engineTau "0.5 s"
config *.node[*].scenario.ploegH 0.5s
config *.node[*].scenario.ploegKp 0.2
config *.node[*].scenario.ploegKd 0.7
config *.node[*].scenario.useRealisticEngine false
config *.node[*].scenario.useControllerAcceleration true
config *.node[*].scenario.nLanes 1
config **.numericController 1
config **.headway 0.1s
config *.node[*].scenario.accHeadway 0.1s
config *.node[*].scenario.leaderHeadway 1.2s
config *.node[*].scenario.leaderSpeed 130kmph
config *.node[*].appl_type "\"SimplePlatooningApp\""
config *.node[*].appl.*.scalar-recording true
config *.node[*].appl.*.vector-recording true
config *.node[0].appl.breakRanksSafetyDistance 5m
config *.node[*].appl.minSpeed 120kmph
config *.node[*].appl.maxSpeed 140kmph
config *.node[*].protocol_type "\"SimplePlatooningBeaconing\""
config *.node[*].prot.*.scalar-recording true
config *.node[*].prot.*.vector-recording true
config *.node[*].prot.beaconingInterval 0.1s
config *.node[*].prot.priority 4
config *.node[*].prot.packetSize 200
config **.traffic_type "\"PlatoonsTrafficManager\""
config **.traffic.platoonInsertTime "1 s"
config **.traffic.platoonInsertSpeed 130kmph
config **.traffic.nCars 8
config **.traffic.platoonSize 8
config **.traffic.nLanes 1
config **.traffic.platooningVType "\"vtypeauto\""
config **.traffic.controller "\"CACC\""
config **.traffic.platoonInsertDistance 2m
config **.traffic.platoonInsertHeadway 0s
config **.traffic.platoonLeaderHeadway 1.2s
config **.scalar-recording false
config **.vector-recording false
config output-vector-file results/BreakRanksNoGui_1_0.1_130_5/result_4.vec
config output-scalar-file results/BreakRanksNoGui_1_0.1_130_5/result_4.sca

vector 0 Highway.node[0].appl distance ETV
vector 1 Highway.node[0].appl relativeSpeed ETV
vector 2 Highway.node[0].appl nodeId ETV
vector 3 Highway.node[0].appl acceleration ETV
vector 4 Highway.node[0].appl controllerAcceleration ETV
vector 5 Highway.node[0].appl speed ETV
vector 6 Highway.node[0].appl posx ETV
vector 7 Highway.node[0].appl posy ETV
vector 8 Highway.node[1].appl distance ETV
vector 9 Highway.node[1].appl relativeSpeed ETV
vector 10 Highway.node[1].appl nodeId ETV
vector 11 Highway.node[1].appl acceleration ETV
vector 12 Highway.node[1].appl controllerAcceleration ETV
vector 13 Highway.node[1].appl speed ETV
vector 14 Highway.node[1].appl posx ETV
vector 15 Highway.node[1].appl posy ETV
vector 16 Highway.node[2].appl distance ETV
vector 17 Highway.node[2].appl relativeSpeed ETV
vector 18 Highway.node[2].appl nodeId ETV
vector 19 Highway.node[2].appl acceleration ETV
vector 20 Highway.node[2].appl controllerAcceleration ETV
vector 21 Highway.node[2].appl speed ETV
vector 22 Highway.node[2].appl posx ETV
vector 23 Highway.node[2].appl posy ETV
vector 24 Highway.node[3].appl distance ETV
vector 25 Highway.node[3].appl relativeSpeed ETV
vector 26 Highway.node[3].appl nodeId ETV
vector 27 Highway.node[3].appl acceleration ETV
vector 28 Highway.node[3].appl controllerAcceleration ETV
vector 29 Highway.node[3].appl speed ETV
vector 30 Highway.node[3].appl posx ETV
vector 31 Highway.node[3].appl posy ETV
vector 32 Highway.node[4].appl distance ETV
vector 33 Highway.node[4].appl relativeSpeed ETV
vector 34 Highway.node[4].appl nodeId ETV
vector 35 Highway.node[4].appl acceleration ETV
vector 36 Highway.node[4].appl controllerAcceleration ETV
vector 37 Highway.node[4].appl speed ETV
vector 38 Highway.node[4].appl posx ETV
vector 39 Highway.node[4].appl posy ETV
vector 40 Highway.node[5].appl distance ETV
vector 41 Highway.node[5].appl relativeSpeed ETV
vector 42 Highway.node[5].appl nodeId ETV
vector 43 Highway.node[5].appl acceleration ETV
vector 44 Highway.node[5].appl controllerAcceleration ETV
vector 45 Highway.node[5].appl speed ETV
vector 46 Highway.node[5].appl posx ETV
vector 47 Highway.node[5].appl posy ETV
vector 48 Highway.node[6].appl distance ETV
vector 49 Highway.node[6].appl relativeSpeed ETV
vector 50 Highway.node[6].appl nodeId ETV
vector 51 Highway.node[6].appl acceleration ETV
vector 52 Highway.node[6].appl controllerAcceleration ETV
vector 53 Highway.node[6].appl speed ETV
vector 54 Highway.node[6].appl posx ETV
vector 55 Highway.node[6].appl posy ETV
vector 56 Highway.node[7].appl distance ETV
vector 57 Highway.node[7].appl relativeSpeed ETV
vector 58 Highway.node[7].appl nodeId ETV
vector 59 Highway.node[7].appl acceleration ETV
vector 60 Highway.node[7].appl controllerAcceleration ETV
vector 61 Highway.node[7].appl speed ETV
vector 62 Highway.node[7].appl posx ETV
vector 63 Highway.node[7].appl posy ETV
vector 64 Highway.node[4].prot frontDelay ETV
vector 65 Highway.node[4].prot frontDelayId ETV
vector 66 Highway.node[1].prot leaderDelay ETV
vector 67 Highway.node[1].prot leaderDelayId ETV
vector 68 Highway.node[1].prot frontDelay ETV
vector 69 Highway.node[1].prot frontDelayId ETV
vector 70 Highway.node[2].prot leaderDelay ETV
vector 71 Highway.node[2].prot leaderDelayId ETV
vector 72 Highway.node[3].prot leaderDelay ETV
vector 73 Highway.node[3].prot leaderDelayId ETV
vector 74 Highway.node[4].prot leaderDelay ETV
vector 75 Highway.node[4].prot leaderDelayId ETV
vector 76 Highway.node[5].prot leaderDelay ETV
vector 77 Highway.node[5].prot leaderDelayId ETV
vector 78 Highway.node[6].prot leaderDelay ETV
vector 79 Highway.node[6].prot leaderDelayId ETV
vector 80 Highway.node[7].prot leaderDelay ETV
vector 81 Highway.node[7].prot leaderDelayId ETV
vector 82 Highway.node[3].prot frontDelay ETV
vector 83 Highway.node[3].prot frontDelayId ETV
vector 84 Highway.node[6].prot frontDelay ETV
vector 85 Highway.node[6].prot frontDelayId ETV
vector 86 Highway.node[2].prot frontDelay ETV
vector 87 Highway.node[2].prot frontDelayId ETV
vector 88 Highway.node[5].prot frontDelay ETV
vector 89 Highway.node[5].prot frontDelayId ETV
vector 90 Highway.node[7].prot frontDelay ETV
vector 91 Highway.node[7].prot frontDelayId ETV
vector 92 Highway.node[0].prot nodeId ETV
vector 93 Highway.node[0].prot busyTime ETV
vector 94 Highway.node[0].prot collisions ETV
vector 95 Highway.node[1].prot nodeId ETV
vector 96 Highway.node[1].prot busyTime ETV
vector 97 Highway.node[1].prot collisions ETV
vector 98 Highway.node[2].prot nodeId ETV
vector 99 Highway.node[2].prot busyTime ETV
vector 100 Highway.node[2].prot collisions ETV
vector 101 Highway.node[3].prot nodeId ETV
vector 102 Highway.node[3].prot busyTime ETV
vector 103 Highway.node[3].prot collisions ETV
vector 104 Highway.node[4].prot nodeId ETV
vector 105 Highway.node[4].prot busyTime ETV
vector 106 Highway.node[4].prot collisions ETV
vector 107 Highway.node[5].prot nodeId ETV
vector 108 Highway.node[5].prot busyTime ETV
vector 109 Highway.node[5].prot collisions ETV
vector 110 Highway.node[6].prot nodeId ETV
vector 111 Highway.node[6].prot busyTime ETV
vector 112 Highway.node[6].prot collisions ETV
vector 113 Highway.node[7].prot nodeId ETV
vector 114 Highway.node[7].prot busyTime ETV
vector 115 Highway.node[7].prot collisions ETV
0	11335 17510 113 544538 1.11 99.91 989 -1 -1 -989 989
1	28845 16521 113 544538 1.11 99.91 989 0 0 0 0
2	45366 16521 113 544538 1.11 99.91 989 0 0 0 0
3	61887 18809 113 544538 1.11 99.91 989 -3.14892e-05 0.000707784 0.010991577126781 6.0508064149601e-06
4	80696 26467 113 544538 1.11 99.91 989 -4.89399e-05 0.00109259 0.010614843047836 8.6815283230331e-06
5	107163 22448 113 544538 1.11 99.91 989 36.11 36.1111 35713.866699999 1289666.6073546
6	129611 22396 113 544538 1.11 99.91 989 66.5299 3634.31 1830062.6267 4437587014.7103
7	152007 21466 113 544538 1.11 99.91 989 242.45 242.45 239783.05 58135400.472499
8	173473 21014 114 544539 1.11 99.91 989 -1 55.5224 5727.48114 150686.13940651
9	194487 21831 114 544539 1.11 99.91 989 -1.39742e-05 4 405.98442854321 1508.7388458881
10	216318 17510 114 544539 1.11 99.91 989 1 1 989 989
11	233828 26395 114 544539 1.11 99.91 989 -1.25468 0.0558372 -21.057440619005 20.606690285238
12	260223 26841 114 544539 1.11 99.91 989 -1.5 0.0867305 -20.192854751376 26.881375481985
13	287064 22063 114 544539 1.11 99.91 989 33.9133 36.1111 34927.6811 1234475.312104
14	309127 23355 114 544539 1.11 99.91 989 60.5299 3549.79 1808185.5735 4319343580.4404
15	332482 22455 114 544539 1.11 99.91 989 242.45 245.75 241000.75 58729881.6125
16	354937 23294 115 544540 1.11 99.91 989 2 91.337 21797.38207 1212984.0304986
17	378231 24629 115 544540 1.11 99.91 989 0 2.68458 804.4405066473 1660.5013361232
18	402860 17510 115 544540 1.11 99.91 989 2 2 1978 3956
19	420370 26193 115 544540 1.11 99.91 989 -1.69706 0.296477 -21.048916629843 36.301030212073
20	446563 26663 115 544540 1.11 99.91 989 -2.58918 0.335066 -19.794554227734 51.232516439536
21	473226 22079 115 544540 1.11 99.91 989 33.4265 36.1111 34879.4413 1231076.0603071
22	495305 23354 115 544540 1.11 99.91 989 54.5299 3538.97 1799297.7837 4283791783.4319
23	518659 22455 115 544540 1.11 99.91 989 242.45 242.45 239783.05 58135400.472499
24	541114 22839 116 544541 1.11 99.91 989 -1 41.9578 10598.75755 301143.6244937
25	563953 24360 116 544541 1.11 99.91 989 -4.08578e-07 4.26472 410.62115473193 846.38818759212
26	588313 17510 116 544541 1.11 99.91 989 3 3 2967 8901
27	605823 26020 116 544541 1.11 99.91 989 -2.62077 1.41322 8.9605277465533 168.44095202315
28	631843 26021 116 544541 1.11 99.91 989 -3.3535 1.5 10.850310242787 207.65252350406
29	657864 23009 116 544541 1.11 99.91 989 30.3304 37.0637 35090.8181 1247349.2023783
30	680873 23353 116 544541 1.11 99.91 989 48.5299 3553.96 1787657.7102 4234239371.9376
31	704226 22455 116 544541 1.11 99.91 989 242.45 249.05 241324.15 58891664.112501
32	726681 23121 117 544542 1.11 99.91 989 1.99999 80.2588 22086.01901 1287656.9725048
33	749802 24010 117 544542 1.11 99.91 989 -4.92298e-06 4.21799 514.88379877186 887.25628055359
34	773812 17510 117 544542 1.11 99.91 989 4 4 3956 15824
35	791322 26254 117 544542 1.11 99.91 989 -2.91474 1.44926 -31.038834535598 250.78473336395
36	817576 26224 117 544542 1.11 99.91 989 -3.35732 1.5 -29.680236910974 286.50713386568
37	843800 22474 117 544542 1.11 99.91 989 27.566 36.1111 34156.3535 1183982.6921218
38	866274 23348 117 544542 1.11 99.91 989 42.5299 3454.71 1767047.9036 4124819698.3073
39	889622 22455 117 544542 1.11 99.91 989 242.45 242.45 239783.05 58135400.472499
40	912077 23236 118 544543 1.11 99.91 989 -1 85.9587 19884.42581 1112492.96938
41	935313 25021 118 544543 1.11 99.91 989 -2.09176 7.49521 -39.961581453552 1756.4314360429
42	960334 17510 118 544543 1.11 99.91 989 5 5 4945 24725
43	977844 25696 118 544543 1.11 99.91 989 -2.98011 1.49926 -8.835472281662 387.62828534751
44	1003540 25525 118 544543 1.11 99.91 989 -3.35673 1.5 -7.526945476019 439.90612621173
45	1029065 23289 118 544543 1.11 99.91 989 25.4526 36.1111 34576.9384 1213760.3642054
46	1052354 23344 118 544543 1.11 99.91 989 36.5299 3490.66 1761776.1155 4113556510.3752
47	1075698 22455 118 544543 1.11 99.91 989 242.45 252.35 240997.45 58729468.4525
48	1098153 22154 119 544544 1.11 99.91 989 -1 79.7881 7779.47618 298313.25154103
49	1120307 23232 119 544544 1.11 99.91 989 -0.000308336 5.07111 641.08639603642 2748.0180803973
50	1143539 17510 119 544544 1.11 99.91 989 6 6 5934 35604
51	1161049 25958 119 544544 1.11 99.91 989 -1.43218 0.063831 -31.05719463698 36.555495976455
52	1187007 26376 119 544544 1.11 99.91 989 -1.5 0.0991213 -30.179297069125 43.672758793311
53	1213383 22091 119 544544 1.11 99.91 989 32.9008 36.1111 34430.939 1200513.5860544
54	1235474 23360 119 544544 1.11 99.91 989 30.5299 3470.17 1761628.6378 4125856966.3906
55	1258834 22455 119 544544 1.11 99.91 989 242.45 252.35 242713.45 59580592.572501
56	1281289 21564 120 544545 1.11 99.91 989 -1 49.7645 5597.73403 186155.51495154
57	1302853 23182 120 544545 1.11 99.91 989 -1.46019 0.1067 -16.963150702218 44.585259024258
58	1326035 17510 120 544545 1.11 99.91 989 7 7 6923 48461
59	1343545 26223 120 544545 1.11 99.91 989 -0.824997 1.46989 18.962179958816 58.442342038806
60	1369768 26145 120 544545 1.11 99.91 989 -0.937057 1.5 19.368319061386 69.121225968606
61	1395913 22502 120 544545 1.11 99.91 989 34.2125 38.102 35884.9062 1303288.5362932
62	1418415 23368 120 544545 1.11 99.91 989 24.5299 3609.31 1776224.6866 4238225081.158
63	1441783 22455 120 544545 1.11 99.91 989 242.45 249.05 241640.95 59046652.572501
64	1464238 39970 771 544680 1.240521540375 99.940522123495 988 0.099987440306 0.100008986827 98.800001023426 9.8800002152119
65	1504208 27282 771 544680 1.240521540375 99.940522123495 988 4 4 3952 15808
66	1531490 39926 831 544722 1.241802600417 99.941803342382 988 0.099987440307 0.100009012927 98.800001182271 9.880000247494
67	1571416 27219 831 544722 1.241802600417 99.941803342382 988 1 1 988 988
68	1598635 39926 831 544722 1.241802600417 99.941803342382 988 0.099987440307 0.100009012927 98.800001182271 9.880000247494
69	1638561 27219 831 544722 1.241802600417 99.941803342382 988 1 1 988 988
70	1665780 39947 837 544728 1.241802620431 99.941803378273 988 0.099987440307 0.100009012928 98.800001198148 9.8800002506694
71	1705727 27253 837 544728 1.241802620431 99.941803378273 988 2 2 1976 3952
72	1732980 39953 843 544716 1.241802640445 99.941803328782 988 0.099987440307 0.10000901293 98.800001128643 9.8800002367685
73	1772933 27264 843 544716 1.241802640445 99.941803328782 988 3 3 2964 8892
74	1800197 39980 849 544746 1.241802660458 99.941803659463 988 0.099987440307 0.100009012932 98.800001439311 9.880000298902
75	1840177 27285 849 544746 1.241802660458 99.941803659463 988 4 4 3952 15808
76	1867462 39960 855 544734 1.241802680472 99.941803539386 988 0.099987440307 0.100009012936 98.80000129922 9.8800002708838
77	1907422 27263 855 544734 1.241802680472 99.941803539386 988 5 5 4940 24700
78	1934685 39928 861 544740 1.241802700486 99.941803608341 988 0.099987440307 0.100009012941 98.800001348161 9.880000280672
79	1974613 27229 861 544740 1.241802700486 99.941803608341 988 6 6 5928 35568
80	2001842 39947 867 544710 1.2418027205 99.941803143815 988 0.099987440307 0.100009012948 98.800000863621 9.880000183764
81	2041789 27273 867 544710 1.2418027205 99.941803143815 988 7 7 6916 48412
82	2069062 39964 905 544784 1.262739640445 99.962740433449 988 0.099987440307 0.10000901293 98.80000123331 9.8800002572766
83	2109026 27264 905 544784 1.262739640445 99.962740433449 988 3 3 2964 8892
84	2136290 39980 971 544844 1.266698700487 99.966699609218 988 0.099987440306 0.100009015854 98.800001349037 9.8800002803332
85	2176270 27283 971 544844 1.266698700487 99.966699609218 988 6 6 5928 35568
86	2203553 39983 1039 544918 1.281915780542 99.981916774312 988 0.099987440307 0.100009012945 98.800001434076 9.8800002974242
87	2243536 27281 1039 544918 1.281915780542 99.981916774312 988 2 2 1976 3952
88	2270817 39954 1105 544984 1.287382840584 99.987384175187 988 0.099987440307 0.100009015862 98.800001774909 9.8800003656029
89	2310771 27280 1105 544984 1.287382840584 99.987384175187 988 5 5 4940 24700
90	2338051 40005 1171 545074 1.289456880612 99.989458575861 988 0.099987440306 0.10000901587 98.800002135555 9.8800004376376
91	2378056 27286 1171 545074 1.289456880612 99.989458575861 988 7 7 6916 48412
92	2405342 1459 5026 545083 2 100 99 0 0 0 0
93	2406801 2068 5026 545083 2 100 99 0.022473 0.026130677682 2.471606677682 0.06171315738212
94	2408869 1459 5026 545083 2 100 99 0 0 0 0
95	2410328 1459 5027 545084 2 100 99 1 1 99 99
96	2411787 2068 5027 545084 2 100 99 0.022473 0.025898 2.471214059378 0.06169302328456
97	2413855 1459 5027 545084 2 100 99 0 0 0 0
98	2415314 1459 5028 545085 2 100 99 2 2 198 396
99	2416773 2068 5028 545085 2 100 99 0.022473 0.025898 2.471214119118 0.061693026285311
100	2418841 1558 5028 545085 2 100 99 0 0 0 0
101	2420399 1558 5029 545086 2 100 99 3 3 297 891
102	2421957 2167 5029 545086 2 100 99 0.022473 0.025898 2.471214178972 0.061693029291795
103	2424124 1558 5029 545086 2 100 99 0 0 0 0
104	2425682 1558 5030 545087 2 100 99 4 4 396 1584
105	2427240 2167 5030 545087 2 100 99 0.022473 0.025898 2.471214238882 0.0616930323011
106	2429407 1558 5030 545087 2 100 99 0 0 0 0
107	2430965 1558 5031 545088 2 100 99 5 5 495 2475
108	2432523 2167 5031 545088 2 100 99 0.022473 0.025898 2.471214298798 0.061693035310713
109	2434690 1558 5031 545088 2 100 99 0 0 0 0
110	2436248 1558 5032 545089 2 100 99 6 6 594 3564
111	2437806 2167 5032 545089 2 100 99 0.022473 0.025898 2.471214358736 0.061693038321438
112	2439973 1558 5032 545089 2 100 99 0 0 0 0
113	2441531 1558 5033 545090 2 100 99 7 7 693 4851
114	2443089 2166 5033 545090 2 100 99 0.022473 0.02593141869 2.47121441869 0.061693095872276
115	2445255 1558 5033 545090 2 100 99 0 0 0 0

