file 2441595 1720454297                                         
version 3
run BreakRanksNoGui-29-20240708-17:58:03-156429
attr configname BreakRanksNoGui
attr datetime 20240708-17:58:03
attr datetimef 20240708-175803
attr experiment BreakRanksNoGui
attr inifile omnetpp.ini
attr iterationvars "$nCars=8, $platoonSize=8, $nLanes=1, $ploegH=0.5, $controller=1, $headway=0.1, $leaderHeadway=1.2, $leaderSpeed=110, $breakRanksSafetyDistance=3, $minSpeed=100, $maxSpeed=120, $beaconInterval=0.1, $priority=4, $packetSize=200, $sController=\"CACC\", $0=2, $1=0"
attr iterationvarsd nCars=8/platoonSize=8/nLanes=1/ploegH=0.5/controller=1/headway=0.1/leaderHeadway=1.2/leaderSpeed=110/breakRanksSafetyDistance=3/minSpeed=100/maxSpeed=120/beaconInterval=0.1/priority=4/packetSize=200/sController=CACC/2/0
attr iterationvarsf nCars=8,platoonSize=8,nLanes=1,ploegH=0.5,controller=1,headway=0.1,leaderHeadway=1.2,leaderSpeed=110,breakRanksSafetyDistance=3,minSpeed=100,maxSpeed=120,beaconInterval=0.1,priority=4,packetSize=200,sController=CACC,2,0-
attr measurement "$nCars=8, $platoonSize=8, $nLanes=1, $ploegH=0.5, $controller=1, $headway=0.1, $leaderHeadway=1.2, $leaderSpeed=110, $breakRanksSafetyDistance=3, $minSpeed=100, $maxSpeed=120, $beaconInterval=0.1, $priority=4, $packetSize=200, $sController=\"CACC\", $0=2, $1=0"
attr network Highway
attr processid 156429
attr repetition 9
attr replication #9
attr resultdir results
attr runnumber 29
attr seedset 9
itervar beaconInterval 0.1
itervar breakRanksSafetyDistance 3
itervar controller 1
itervar headway 0.1
itervar leaderHeadway 1.2
itervar leaderSpeed 110
itervar maxSpeed 120
itervar minSpeed 100
itervar nCars 8
itervar nLanes 1
itervar packetSize 200
itervar platoonSize 8
itervar ploegH 0.5
itervar priority 4
itervar sController "\"CACC\""
config image-path ../../../veins/images
config repeat 10
config extends BreakRanks
config *.manager.command "\"sumo\""
config *.manager.ignoreGuiCommands true
config output-vector-file results/BreakRanks_1_0.1_110_3/result_9.vec
config output-scalar-file results/BreakRanks_1_0.1_110_3/result_9.sca
config extends Platooning
config *.node[*].scenario_type "\"BreakRanksScenario\""
config *.manager.command "\"sumo-gui\""
config *.node[*].scenario_type "\"SimpleScenario\""
config cmdenv-express-mode true
config cmdenv-autoflush true
config cmdenv-status-frequency 15s
config num-rngs 6
config network Highway
config debug-on-errors true
config print-undisposed true
config *.playgroundSizeX 65000m
config *.playgroundSizeY 25000m
config *.playgroundSizeZ 50m
config sim-time-limit "100 s"
config *.annotations.draw false
config *.obstacles.debug false
config *.world.useTorus false
config *.world.use2D false
config *.manager.updateInterval 0.01s
config *.manager.host "\"localhost\""
config *.manager.moduleType "\"org.car2x.plexe.PlatoonCar\""
config *.manager.moduleName "\"node\""
config *.manager.moduleDisplayString "\"\""
config *.manager.autoShutdown true
config *.manager.margin 25
config *.connectionManager.sendDirect true
config *.connectionManager.maxInterfDist 2600m
config *.connectionManager.drawMaxIntfDist false
config *.**.nic.mac1609_4.useServiceChannel false
config *.**.nic.mac1609_4.txPower 100mW
config *.**.nic.mac1609_4.bitrate 6Mbps
config *.**.nic.mac1609_4.useAcks true
config *.**.nic.mac1609_4.ackErrorRate 0.0
config *.**.nic.mac1609_4.frameErrorRate 0.0
config *.**.nic.phy80211p.minPowerLevel -94dBm
config *.**.nic.phy80211p.maxTXPower 100mW
config *.**.nic.phy80211p.useNoiseFloor true
config *.**.nic.phy80211p.noiseFloor -95dBm
config *.**.nic.phy80211p.decider "xmldoc(\"config.xml\")"
config *.**.nic.phy80211p.analogueModels "xmldoc(\"config.xml\")"
config *.**.nic.phy80211p.usePropagationDelay true
config *.node[*].mobility.x 0
config *.node[*].mobility.y 0
config *.node[*].mobility.z 1.895
config seed-set 9
config **.seed 9
config *.node[*].prot.rng-0 2
config *.node[*].appl.rng-0 3
config *.node[*].scenario.rng-0 4
config **.traffic.rng-0 5
config *.manager.configFile "\"./sumocfg/freeway.sumo.cfg\""
config *.manager.launchConfig "xmldoc(\"./sumocfg/freeway.launchd.xml\")"
config **.numberOfCars 8
config **.numberOfCarsPerPlatoon 8
config **.numberOfLanes 1
config *.node[*].helper_type "\"PositionHelper\""
config *.node[*].scenario.caccC1 0.5
config *.node[*].scenario.caccXi 1
config *.node[*].scenario.caccOmegaN "0.2 Hz"
config *.node[*].scenario.caccSpacing "2 m"
config *.node[*].scenario.engineTau "0.5 s"
config *.node[*].scenario.ploegH 0.5s
config *.node[*].scenario.ploegKp 0.2
config *.node[*].scenario.ploegKd 0.7
config *.node[*].scenario.useRealisticEngine false
config *.node[*].scenario.useControllerAcceleration true
config *.node[*].scenario.nLanes 1
config **.numericController 1
config **.headway 0.1s
config *.node[*].scenario.accHeadway 0.1s
config *.node[*].scenario.leaderHeadway 1.2s
config *.node[*].scenario.leaderSpeed 110kmph
config *.node[*].appl_type "\"SimplePlatooningApp\""
config *.node[*].appl.*.scalar-recording true
config *.node[*].appl.*.vector-recording true
config *.node[0].appl.breakRanksSafetyDistance 3m
config *.node[*].appl.minSpeed 100kmph
config *.node[*].appl.maxSpeed 120kmph
config *.node[*].protocol_type "\"SimplePlatooningBeaconing\""
config *.node[*].prot.*.scalar-recording true
config *.node[*].prot.*.vector-recording true
config *.node[*].prot.beaconingInterval 0.1s
config *.node[*].prot.priority 4
config *.node[*].prot.packetSize 200
config **.traffic_type "\"PlatoonsTrafficManager\""
config **.traffic.platoonInsertTime "1 s"
config **.traffic.platoonInsertSpeed 110kmph
config **.traffic.nCars 8
config **.traffic.platoonSize 8
config **.traffic.nLanes 1
config **.traffic.platooningVType "\"vtypeauto\""
config **.traffic.controller "\"CACC\""
config **.traffic.platoonInsertDistance 2m
config **.traffic.platoonInsertHeadway 0s
config **.traffic.platoonLeaderHeadway 1.2s
config **.scalar-recording false
config **.vector-recording false
config output-vector-file results/BreakRanksNoGui_1_0.1_110_3/result_9.vec
config output-scalar-file results/BreakRanksNoGui_1_0.1_110_3/result_9.sca

vector 0 Highway.node[0].appl distance ETV
vector 1 Highway.node[0].appl relativeSpeed ETV
vector 2 Highway.node[0].appl nodeId ETV
vector 3 Highway.node[0].appl acceleration ETV
vector 4 Highway.node[0].appl controllerAcceleration ETV
vector 5 Highway.node[0].appl speed ETV
vector 6 Highway.node[0].appl posx ETV
vector 7 Highway.node[0].appl posy ETV
vector 8 Highway.node[1].appl distance ETV
vector 9 Highway.node[1].appl relativeSpeed ETV
vector 10 Highway.node[1].appl nodeId ETV
vector 11 Highway.node[1].appl acceleration ETV
vector 12 Highway.node[1].appl controllerAcceleration ETV
vector 13 Highway.node[1].appl speed ETV
vector 14 Highway.node[1].appl posx ETV
vector 15 Highway.node[1].appl posy ETV
vector 16 Highway.node[2].appl distance ETV
vector 17 Highway.node[2].appl relativeSpeed ETV
vector 18 Highway.node[2].appl nodeId ETV
vector 19 Highway.node[2].appl acceleration ETV
vector 20 Highway.node[2].appl controllerAcceleration ETV
vector 21 Highway.node[2].appl speed ETV
vector 22 Highway.node[2].appl posx ETV
vector 23 Highway.node[2].appl posy ETV
vector 24 Highway.node[3].appl distance ETV
vector 25 Highway.node[3].appl relativeSpeed ETV
vector 26 Highway.node[3].appl nodeId ETV
vector 27 Highway.node[3].appl acceleration ETV
vector 28 Highway.node[3].appl controllerAcceleration ETV
vector 29 Highway.node[3].appl speed ETV
vector 30 Highway.node[3].appl posx ETV
vector 31 Highway.node[3].appl posy ETV
vector 32 Highway.node[4].appl distance ETV
vector 33 Highway.node[4].appl relativeSpeed ETV
vector 34 Highway.node[4].appl nodeId ETV
vector 35 Highway.node[4].appl acceleration ETV
vector 36 Highway.node[4].appl controllerAcceleration ETV
vector 37 Highway.node[4].appl speed ETV
vector 38 Highway.node[4].appl posx ETV
vector 39 Highway.node[4].appl posy ETV
vector 40 Highway.node[5].appl distance ETV
vector 41 Highway.node[5].appl relativeSpeed ETV
vector 42 Highway.node[5].appl nodeId ETV
vector 43 Highway.node[5].appl acceleration ETV
vector 44 Highway.node[5].appl controllerAcceleration ETV
vector 45 Highway.node[5].appl speed ETV
vector 46 Highway.node[5].appl posx ETV
vector 47 Highway.node[5].appl posy ETV
vector 48 Highway.node[6].appl distance ETV
vector 49 Highway.node[6].appl relativeSpeed ETV
vector 50 Highway.node[6].appl nodeId ETV
vector 51 Highway.node[6].appl acceleration ETV
vector 52 Highway.node[6].appl controllerAcceleration ETV
vector 53 Highway.node[6].appl speed ETV
vector 54 Highway.node[6].appl posx ETV
vector 55 Highway.node[6].appl posy ETV
vector 56 Highway.node[7].appl distance ETV
vector 57 Highway.node[7].appl relativeSpeed ETV
vector 58 Highway.node[7].appl nodeId ETV
vector 59 Highway.node[7].appl acceleration ETV
vector 60 Highway.node[7].appl controllerAcceleration ETV
vector 61 Highway.node[7].appl speed ETV
vector 62 Highway.node[7].appl posx ETV
vector 63 Highway.node[7].appl posy ETV
vector 64 Highway.node[2].prot frontDelay ETV
vector 65 Highway.node[2].prot frontDelayId ETV
vector 66 Highway.node[7].prot frontDelay ETV
vector 67 Highway.node[7].prot frontDelayId ETV
vector 68 Highway.node[3].prot frontDelay ETV
vector 69 Highway.node[3].prot frontDelayId ETV
vector 70 Highway.node[6].prot frontDelay ETV
vector 71 Highway.node[6].prot frontDelayId ETV
vector 72 Highway.node[5].prot frontDelay ETV
vector 73 Highway.node[5].prot frontDelayId ETV
vector 74 Highway.node[4].prot frontDelay ETV
vector 75 Highway.node[4].prot frontDelayId ETV
vector 76 Highway.node[1].prot leaderDelay ETV
vector 77 Highway.node[1].prot leaderDelayId ETV
vector 78 Highway.node[1].prot frontDelay ETV
vector 79 Highway.node[1].prot frontDelayId ETV
vector 80 Highway.node[2].prot leaderDelay ETV
vector 81 Highway.node[2].prot leaderDelayId ETV
vector 82 Highway.node[3].prot leaderDelay ETV
vector 83 Highway.node[3].prot leaderDelayId ETV
vector 84 Highway.node[4].prot leaderDelay ETV
vector 85 Highway.node[4].prot leaderDelayId ETV
vector 86 Highway.node[5].prot leaderDelay ETV
vector 87 Highway.node[5].prot leaderDelayId ETV
vector 88 Highway.node[6].prot leaderDelay ETV
vector 89 Highway.node[6].prot leaderDelayId ETV
vector 90 Highway.node[7].prot leaderDelay ETV
vector 91 Highway.node[7].prot leaderDelayId ETV
vector 92 Highway.node[0].prot nodeId ETV
vector 93 Highway.node[0].prot busyTime ETV
vector 94 Highway.node[0].prot collisions ETV
vector 95 Highway.node[1].prot nodeId ETV
vector 96 Highway.node[1].prot busyTime ETV
vector 97 Highway.node[1].prot collisions ETV
vector 98 Highway.node[2].prot nodeId ETV
vector 99 Highway.node[2].prot busyTime ETV
vector 100 Highway.node[2].prot collisions ETV
vector 101 Highway.node[3].prot nodeId ETV
vector 102 Highway.node[3].prot busyTime ETV
vector 103 Highway.node[3].prot collisions ETV
vector 104 Highway.node[4].prot nodeId ETV
vector 105 Highway.node[4].prot busyTime ETV
vector 106 Highway.node[4].prot collisions ETV
vector 107 Highway.node[5].prot nodeId ETV
vector 108 Highway.node[5].prot busyTime ETV
vector 109 Highway.node[5].prot collisions ETV
vector 110 Highway.node[6].prot nodeId ETV
vector 111 Highway.node[6].prot busyTime ETV
vector 112 Highway.node[6].prot collisions ETV
vector 113 Highway.node[7].prot nodeId ETV
vector 114 Highway.node[7].prot busyTime ETV
vector 115 Highway.node[7].prot collisions ETV
0	11335 19120 113 543894 1.11 99.91 989 -1 102.713 19989.9262 1469253.8566391
1	30455 18176 113 543894 1.11 99.91 989 0 2.4444 809.09639999999 1977.75524016
2	48631 16521 113 543894 1.11 99.91 989 0 0 0 0
3	65152 19109 113 543894 1.11 99.91 989 -0.00283113 0.000125957 -0.043966303784312 9.6812896349407e-05
4	84261 26489 113 543894 1.11 99.91 989 -0.00437036 0.00019576 -0.042459310034081 0.00013890441444735
5	110750 22451 113 543894 1.11 99.91 989 30.5554 30.56 30219.5304 923377.16656332
6	133201 22360 113 543894 1.11 99.91 989 67.2304 3086.13 1559337.5215 3211220601.7681
7	155561 21466 113 543894 1.11 99.91 989 242.45 242.45 239783.05 58135400.472499
8	177027 20008 114 543895 1.11 99.91 989 -1 2.99713 865.58874 4093.39391328
9	197035 21024 114 543895 1.11 99.91 989 -0.000570904 0.0796851 9.9715371217 0.52744109921629
10	218059 17510 114 543895 1.11 99.91 989 1 1 989 989
11	235569 25445 114 543895 1.11 99.91 989 -0.0597349 1.34113 24.414855535285 25.458363147383
12	261014 27196 114 543895 1.11 99.91 989 -0.0929121 1.5 24.195389520544 33.029639685125
13	288210 21529 114 543895 1.11 99.91 989 30.4759 33.0929 31347.8837 995096.85202385
14	309739 23379 114 543895 1.11 99.91 989 61.2304 3192.84 1579111.6703 3329769259.8279
15	333118 22455 114 543895 1.11 99.91 989 242.45 245.75 240268.15 58372226.292499
16	355573 23312 115 543896 1.11 99.91 989 1.99967 74.7795 20948.85829 961683.28256765
17	378885 24138 115 543896 1.11 99.91 989 -6.53874e-05 2.45644 804.60143512042 1361.6342199719
18	403023 17510 115 543896 1.11 99.91 989 2 2 1978 3956
19	420533 25524 115 543896 1.11 99.91 989 -1.55245 0.271809 -15.555294785741 30.807493381614
20	446057 26911 115 543896 1.11 99.91 989 -2.36876 0.306569 -14.448810196036 43.232617847847
21	472968 21660 115 543896 1.11 99.91 989 28.0992 30.56 29437.3993 876827.92814347
22	494628 23373 115 543896 1.11 99.91 989 55.2304 2995.99 1527331.6534 3073245588.153
23	518001 22455 115 543896 1.11 99.91 989 242.45 242.45 239783.05 58135400.472499
24	540456 23291 116 543897 1.11 99.91 989 1.99963 58.3924 17648.07775 670244.28457112
25	563747 24151 116 543897 1.11 99.91 989 -5.65435e-05 2.93044 922.54548364798 1815.8628071051
26	587898 17510 116 543897 1.11 99.91 989 3 3 2967 8901
27	605408 25925 116 543897 1.11 99.91 989 -2.33509 0.537347 -35.550803488152 100.75235703356
28	631333 26889 116 543897 1.11 99.91 989 -2.96568 0.576857 -34.245843503213 123.78623985082
29	658222 21736 116 543897 1.11 99.91 989 25.3659 30.56 28472.0095 822919.27208441
30	679958 23375 116 543897 1.11 99.91 989 49.2304 2893.55 1497933.0185 2938533512.6458
31	703333 22455 116 543897 1.11 99.91 989 242.45 242.45 239783.05 58135400.472499
32	725788 22194 117 543898 1.11 99.91 989 -1 40.3864 8958.55886 269795.14142465
33	747982 23507 117 543898 1.11 99.91 989 -0.000384075 4.45291 334.87716501282 646.62832928357
34	771489 17510 117 543898 1.11 99.91 989 4 4 3956 15824
35	788999 26346 117 543898 1.11 99.91 989 -2.52124 1.47367 14.479755849807 98.456025840234
36	815345 26622 117 543898 1.11 99.91 989 -2.96856 1.5 15.973212885979 158.44050892639
37	841967 22141 117 543898 1.11 99.91 989 27.9731 32.0876 30750.8237 956855.80233207
38	864108 23375 117 543898 1.11 99.91 989 43.2304 3115.18 1543660.9026 3185347826.2413
39	887483 22455 117 543898 1.11 99.91 989 242.45 245.75 241324.15 58887765.4925
40	909938 23306 118 543899 1.11 99.91 989 1.99971 75.5278 18694.55447 752982.37742574
41	933244 24501 118 543899 1.11 99.91 989 -0.00022665 6.4878 834.02534938342 2796.5976736111
42	957745 17510 118 543899 1.11 99.91 989 5 5 4945 24725
43	975255 26196 118 543899 1.11 99.91 989 -2.53675 1.4924 -16.284656714686 187.45825114304
44	1001451 26097 118 543899 1.11 99.91 989 -2.96806 1.5 -15.295162073278 228.68533995689
45	1027548 22796 118 543899 1.11 99.91 989 24.1822 30.56 29216.8972 864566.50843766
46	1050344 23362 118 543899 1.11 99.91 989 37.2304 2955.95 1500339.6274 2977157264.9301
47	1073706 22455 118 543899 1.11 99.91 989 242.45 245.75 240581.65 58525276.9925
48	1096161 20927 119 543900 1.11 99.91 989 -1 2.93056 746.76169 3476.5354812261
49	1117088 21889 119 543900 1.11 99.91 989 -2.71465e-05 0.0383117 9.309206147353 0.26268744226316
50	1138977 17510 119 543900 1.11 99.91 989 6 6 5934 35604
51	1156487 25130 119 543900 1.11 99.91 989 -0.0659208 1.34417 24.440169705423 25.899777520343
52	1181617 26898 119 543900 1.11 99.91 989 -0.093213 1.5 24.612399552723 34.066651743621
53	1208515 21560 119 543900 1.11 99.91 989 30.2755 33.0932 31298.4516 992084.55632978
54	1230075 22876 119 543900 1.11 99.91 989 31.2304 3157.9 1545834.7855 3221850706.4807
55	1252951 22455 119 543900 1.11 99.91 989 242.45 249.05 242601.25 59519434.992501
56	1275406 23028 120 543901 1.11 99.91 989 -1 67.0233 22888.73345 1183595.5051991
57	1298434 23333 120 543901 1.11 99.91 989 -0.4444 7.65308 481.00432715843 1048.1648891518
58	1321767 17510 120 543901 1.11 99.91 989 7 7 6923 48461
59	1339277 25442 120 543901 1.11 99.91 989 -2.38822 1.49731 4.4574777153334 178.8885195194
60	1364719 26586 120 543901 1.11 99.91 989 -2.51388 1.5 5.1001645589604 228.58777783107
61	1391305 21802 120 543901 1.11 99.91 989 25.3769 31.1037 30147.1947 919750.66339583
62	1413107 23371 120 543901 1.11 99.91 989 25.2304 3036.87 1508240.9959 3043491393.6019
63	1436478 22455 120 543901 1.11 99.91 989 242.45 252.35 241855.45 59153614.812501
64	1458933 40000 703 543956 1.22081946032 99.920817632798 988 0.099987440284 0.100008648207 98.799998612784 9.8799997346537
65	1498933 27271 703 543956 1.22081946032 99.920817632798 988 2 2 1976 3952
66	1526204 39975 770 544017 1.230758560389 99.93075649704 988 0.099987440283 0.100008486266 98.799998376957 9.8799996870361
67	1566179 27255 770 544017 1.230758560389 99.93075649704 988 7 7 6916 48412
68	1593434 40008 837 544084 1.244324640444 99.944322975528 988 0.099987440284 0.10000848631 98.79999877539 9.8799997667284
69	1633442 27267 837 544084 1.244324640444 99.944322975528 988 3 3 2964 8892
70	1660709 40007 904 544163 1.252209700486 99.95220844156 988 0.099987440284 0.100008648231 98.79999918138 9.8799998485888
71	1700716 27287 904 544163 1.252209700486 99.95220844156 988 6 6 5928 35568
72	1728003 40021 1038 544297 1.278015800556 99.978014831123 988 0.099987440284 0.100008648249 98.799999470873 9.8799999058434
73	1768024 27286 1038 544297 1.278015800556 99.978014831123 988 5 5 4940 24700
74	1795310 40003 1106 544359 1.29367482057 99.993674780525 988 0.099987440286 0.100008500768 98.800000400261 9.8800000918777
75	1835313 27267 1106 544359 1.29367482057 99.993674780525 988 4 4 3952 15808
76	1862580 39961 1167 543880 1.308748880611 99.908758975915 987 0.099987440286 0.100008494681 98.700010535609 9.8700021187925
77	1902541 27232 1167 543880 1.308748880611 99.908758975915 987 1 1 987 987
78	1929773 39961 1167 543880 1.308748880611 99.908758975915 987 0.099987440286 0.100008494681 98.700010535609 9.8700021187925
79	1969734 27232 1167 543880 1.308748880611 99.908758975915 987 1 1 987 987
80	1996966 39978 1173 543874 1.308748900625 99.908758920618 987 0.099987440286 0.100008494685 98.700010460298 9.8700021037303
81	2036944 27254 1173 543874 1.308748900625 99.908758920618 987 2 2 1974 3948
82	2064198 39952 1179 543892 1.308748920638 99.908759262318 987 0.099987440286 0.100008494691 98.700010781984 9.8700021680675
83	2104150 27231 1179 543892 1.308748920638 99.908759262318 987 3 3 2961 8883
84	2131381 39963 1185 543856 1.308748940652 99.908758717506 987 0.099987440286 0.1000084947 98.700010217159 9.8700020551025
85	2171344 27242 1185 543856 1.308748940652 99.908758717506 987 4 4 3948 15792
86	2198586 39955 1191 543886 1.308748960666 99.908759054199 987 0.099987440286 0.100008494709 98.700010533838 9.8700021184383
87	2238541 27238 1191 543886 1.308748960666 99.908759054199 987 5 5 4935 24675
88	2265779 39954 1197 543868 1.30874898068 99.90875885961 987 0.099987440286 0.10000849472 98.700010319235 9.8700020755177
89	2305733 27231 1197 543868 1.30874898068 99.90875885961 987 6 6 5922 35532
90	2332964 39934 1203 543862 1.308749000694 99.908758784259 987 0.099987440286 0.10000849473 98.70001022387 9.8700020564447
91	2372898 27228 1203 543862 1.308749000694 99.908758784259 987 7 7 6909 48363
92	2400126 1459 4960 544373 2 100 99 0 0 0 0
93	2401585 2066 4960 544373 2 100 99 0.02216 0.02613030338 2.47129330338 0.061699167691731
94	2403651 1459 4960 544373 2 100 99 0 0 0 0
95	2405110 1459 4961 544374 2 100 99 1 1 99 99
96	2406569 2068 4961 544374 2 100 99 0.022161 0.025898 2.470902046036 0.06167909680639
97	2408637 1459 4961 544374 2 100 99 0 0 0 0
98	2410096 1459 4962 544375 2 100 99 2 2 198 396
99	2411555 2068 4962 544375 2 100 99 0.022161 0.025898 2.470902092388 0.061679099134658
100	2413623 1558 4962 544375 2 100 99 0 0 0 0
101	2415181 1558 4963 544376 2 100 99 3 3 297 891
102	2416739 2167 4963 544376 2 100 99 0.022161 0.025898 2.470902138864 0.061679101469158
103	2418906 1558 4963 544376 2 100 99 0 0 0 0
104	2420464 1558 4964 544377 2 100 99 4 4 396 1584
105	2422022 2166 4964 544377 2 100 99 0.022161 0.025898 2.47090218539 0.061679103806174
106	2424188 1558 4964 544377 2 100 99 0 0 0 0
107	2425746 1558 4965 544378 2 100 99 5 5 495 2475
108	2427304 2167 4965 544378 2 100 99 0.022161 0.025898 2.470902231946 0.061679106144701
109	2429471 1558 4965 544378 2 100 99 0 0 0 0
110	2431029 1558 4966 544379 2 100 99 6 6 594 3564
111	2432587 2166 4966 544379 2 100 99 0.022161 0.025898 2.47090227852 0.061679108484137
112	2434753 1558 4966 544379 2 100 99 0 0 0 0
113	2436311 1558 4967 544380 2 100 99 7 7 693 4851
114	2437869 2167 4967 544380 2 100 99 0.022161 0.025931325102 2.470902325102 0.061679165210545
115	2440036 1558 4967 544380 2 100 99 0 0 0 0

