file 2440024 1720454266                                         
version 3
run BreakRanksNoGui-27-20240708-17:57:32-156393
attr configname BreakRanksNoGui
attr datetime 20240708-17:57:32
attr datetimef 20240708-175732
attr experiment BreakRanksNoGui
attr inifile omnetpp.ini
attr iterationvars "$nCars=8, $platoonSize=8, $nLanes=1, $ploegH=0.5, $controller=1, $headway=0.1, $leaderHeadway=1.2, $leaderSpeed=110, $breakRanksSafetyDistance=3, $minSpeed=100, $maxSpeed=120, $beaconInterval=0.1, $priority=4, $packetSize=200, $sController=\"CACC\", $0=2, $1=0"
attr iterationvarsd nCars=8/platoonSize=8/nLanes=1/ploegH=0.5/controller=1/headway=0.1/leaderHeadway=1.2/leaderSpeed=110/breakRanksSafetyDistance=3/minSpeed=100/maxSpeed=120/beaconInterval=0.1/priority=4/packetSize=200/sController=CACC/2/0
attr iterationvarsf nCars=8,platoonSize=8,nLanes=1,ploegH=0.5,controller=1,headway=0.1,leaderHeadway=1.2,leaderSpeed=110,breakRanksSafetyDistance=3,minSpeed=100,maxSpeed=120,beaconInterval=0.1,priority=4,packetSize=200,sController=CACC,2,0-
attr measurement "$nCars=8, $platoonSize=8, $nLanes=1, $ploegH=0.5, $controller=1, $headway=0.1, $leaderHeadway=1.2, $leaderSpeed=110, $breakRanksSafetyDistance=3, $minSpeed=100, $maxSpeed=120, $beaconInterval=0.1, $priority=4, $packetSize=200, $sController=\"CACC\", $0=2, $1=0"
attr network Highway
attr processid 156393
attr repetition 7
attr replication #7
attr resultdir results
attr runnumber 27
attr seedset 7
itervar beaconInterval 0.1
itervar breakRanksSafetyDistance 3
itervar controller 1
itervar headway 0.1
itervar leaderHeadway 1.2
itervar leaderSpeed 110
itervar maxSpeed 120
itervar minSpeed 100
itervar nCars 8
itervar nLanes 1
itervar packetSize 200
itervar platoonSize 8
itervar ploegH 0.5
itervar priority 4
itervar sController "\"CACC\""
config image-path ../../../veins/images
config repeat 10
config extends BreakRanks
config *.manager.command "\"sumo\""
config *.manager.ignoreGuiCommands true
config output-vector-file results/BreakRanks_1_0.1_110_3/result_7.vec
config output-scalar-file results/BreakRanks_1_0.1_110_3/result_7.sca
config extends Platooning
config *.node[*].scenario_type "\"BreakRanksScenario\""
config *.manager.command "\"sumo-gui\""
config *.node[*].scenario_type "\"SimpleScenario\""
config cmdenv-express-mode true
config cmdenv-autoflush true
config cmdenv-status-frequency 15s
config num-rngs 6
config network Highway
config debug-on-errors true
config print-undisposed true
config *.playgroundSizeX 65000m
config *.playgroundSizeY 25000m
config *.playgroundSizeZ 50m
config sim-time-limit "100 s"
config *.annotations.draw false
config *.obstacles.debug false
config *.world.useTorus false
config *.world.use2D false
config *.manager.updateInterval 0.01s
config *.manager.host "\"localhost\""
config *.manager.moduleType "\"org.car2x.plexe.PlatoonCar\""
config *.manager.moduleName "\"node\""
config *.manager.moduleDisplayString "\"\""
config *.manager.autoShutdown true
config *.manager.margin 25
config *.connectionManager.sendDirect true
config *.connectionManager.maxInterfDist 2600m
config *.connectionManager.drawMaxIntfDist false
config *.**.nic.mac1609_4.useServiceChannel false
config *.**.nic.mac1609_4.txPower 100mW
config *.**.nic.mac1609_4.bitrate 6Mbps
config *.**.nic.mac1609_4.useAcks true
config *.**.nic.mac1609_4.ackErrorRate 0.0
config *.**.nic.mac1609_4.frameErrorRate 0.0
config *.**.nic.phy80211p.minPowerLevel -94dBm
config *.**.nic.phy80211p.maxTXPower 100mW
config *.**.nic.phy80211p.useNoiseFloor true
config *.**.nic.phy80211p.noiseFloor -95dBm
config *.**.nic.phy80211p.decider "xmldoc(\"config.xml\")"
config *.**.nic.phy80211p.analogueModels "xmldoc(\"config.xml\")"
config *.**.nic.phy80211p.usePropagationDelay true
config *.node[*].mobility.x 0
config *.node[*].mobility.y 0
config *.node[*].mobility.z 1.895
config seed-set 7
config **.seed 7
config *.node[*].prot.rng-0 2
config *.node[*].appl.rng-0 3
config *.node[*].scenario.rng-0 4
config **.traffic.rng-0 5
config *.manager.configFile "\"./sumocfg/freeway.sumo.cfg\""
config *.manager.launchConfig "xmldoc(\"./sumocfg/freeway.launchd.xml\")"
config **.numberOfCars 8
config **.numberOfCarsPerPlatoon 8
config **.numberOfLanes 1
config *.node[*].helper_type "\"PositionHelper\""
config *.node[*].scenario.caccC1 0.5
config *.node[*].scenario.caccXi 1
config *.node[*].scenario.caccOmegaN "0.2 Hz"
config *.node[*].scenario.caccSpacing "2 m"
config *.node[*].scenario.engineTau "0.5 s"
config *.node[*].scenario.ploegH 0.5s
config *.node[*].scenario.ploegKp 0.2
config *.node[*].scenario.ploegKd 0.7
config *.node[*].scenario.useRealisticEngine false
config *.node[*].scenario.useControllerAcceleration true
config *.node[*].scenario.nLanes 1
config **.numericController 1
config **.headway 0.1s
config *.node[*].scenario.accHeadway 0.1s
config *.node[*].scenario.leaderHeadway 1.2s
config *.node[*].scenario.leaderSpeed 110kmph
config *.node[*].appl_type "\"SimplePlatooningApp\""
config *.node[*].appl.*.scalar-recording true
config *.node[*].appl.*.vector-recording true
config *.node[0].appl.breakRanksSafetyDistance 3m
config *.node[*].appl.minSpeed 100kmph
config *.node[*].appl.maxSpeed 120kmph
config *.node[*].protocol_type "\"SimplePlatooningBeaconing\""
config *.node[*].prot.*.scalar-recording true
config *.node[*].prot.*.vector-recording true
config *.node[*].prot.beaconingInterval 0.1s
config *.node[*].prot.priority 4
config *.node[*].prot.packetSize 200
config **.traffic_type "\"PlatoonsTrafficManager\""
config **.traffic.platoonInsertTime "1 s"
config **.traffic.platoonInsertSpeed 110kmph
config **.traffic.nCars 8
config **.traffic.platoonSize 8
config **.traffic.nLanes 1
config **.traffic.platooningVType "\"vtypeauto\""
config **.traffic.controller "\"CACC\""
config **.traffic.platoonInsertDistance 2m
config **.traffic.platoonInsertHeadway 0s
config **.traffic.platoonLeaderHeadway 1.2s
config **.scalar-recording false
config **.vector-recording false
config output-vector-file results/BreakRanksNoGui_1_0.1_110_3/result_7.vec
config output-scalar-file results/BreakRanksNoGui_1_0.1_110_3/result_7.sca

vector 0 Highway.node[0].appl distance ETV
vector 1 Highway.node[0].appl relativeSpeed ETV
vector 2 Highway.node[0].appl nodeId ETV
vector 3 Highway.node[0].appl acceleration ETV
vector 4 Highway.node[0].appl controllerAcceleration ETV
vector 5 Highway.node[0].appl speed ETV
vector 6 Highway.node[0].appl posx ETV
vector 7 Highway.node[0].appl posy ETV
vector 8 Highway.node[1].appl distance ETV
vector 9 Highway.node[1].appl relativeSpeed ETV
vector 10 Highway.node[1].appl nodeId ETV
vector 11 Highway.node[1].appl acceleration ETV
vector 12 Highway.node[1].appl controllerAcceleration ETV
vector 13 Highway.node[1].appl speed ETV
vector 14 Highway.node[1].appl posx ETV
vector 15 Highway.node[1].appl posy ETV
vector 16 Highway.node[2].appl distance ETV
vector 17 Highway.node[2].appl relativeSpeed ETV
vector 18 Highway.node[2].appl nodeId ETV
vector 19 Highway.node[2].appl acceleration ETV
vector 20 Highway.node[2].appl controllerAcceleration ETV
vector 21 Highway.node[2].appl speed ETV
vector 22 Highway.node[2].appl posx ETV
vector 23 Highway.node[2].appl posy ETV
vector 24 Highway.node[3].appl distance ETV
vector 25 Highway.node[3].appl relativeSpeed ETV
vector 26 Highway.node[3].appl nodeId ETV
vector 27 Highway.node[3].appl acceleration ETV
vector 28 Highway.node[3].appl controllerAcceleration ETV
vector 29 Highway.node[3].appl speed ETV
vector 30 Highway.node[3].appl posx ETV
vector 31 Highway.node[3].appl posy ETV
vector 32 Highway.node[4].appl distance ETV
vector 33 Highway.node[4].appl relativeSpeed ETV
vector 34 Highway.node[4].appl nodeId ETV
vector 35 Highway.node[4].appl acceleration ETV
vector 36 Highway.node[4].appl controllerAcceleration ETV
vector 37 Highway.node[4].appl speed ETV
vector 38 Highway.node[4].appl posx ETV
vector 39 Highway.node[4].appl posy ETV
vector 40 Highway.node[5].appl distance ETV
vector 41 Highway.node[5].appl relativeSpeed ETV
vector 42 Highway.node[5].appl nodeId ETV
vector 43 Highway.node[5].appl acceleration ETV
vector 44 Highway.node[5].appl controllerAcceleration ETV
vector 45 Highway.node[5].appl speed ETV
vector 46 Highway.node[5].appl posx ETV
vector 47 Highway.node[5].appl posy ETV
vector 48 Highway.node[6].appl distance ETV
vector 49 Highway.node[6].appl relativeSpeed ETV
vector 50 Highway.node[6].appl nodeId ETV
vector 51 Highway.node[6].appl acceleration ETV
vector 52 Highway.node[6].appl controllerAcceleration ETV
vector 53 Highway.node[6].appl speed ETV
vector 54 Highway.node[6].appl posx ETV
vector 55 Highway.node[6].appl posy ETV
vector 56 Highway.node[7].appl distance ETV
vector 57 Highway.node[7].appl relativeSpeed ETV
vector 58 Highway.node[7].appl nodeId ETV
vector 59 Highway.node[7].appl acceleration ETV
vector 60 Highway.node[7].appl controllerAcceleration ETV
vector 61 Highway.node[7].appl speed ETV
vector 62 Highway.node[7].appl posx ETV
vector 63 Highway.node[7].appl posy ETV
vector 64 Highway.node[4].prot frontDelay ETV
vector 65 Highway.node[4].prot frontDelayId ETV
vector 66 Highway.node[3].prot frontDelay ETV
vector 67 Highway.node[3].prot frontDelayId ETV
vector 68 Highway.node[7].prot frontDelay ETV
vector 69 Highway.node[7].prot frontDelayId ETV
vector 70 Highway.node[2].prot frontDelay ETV
vector 71 Highway.node[2].prot frontDelayId ETV
vector 72 Highway.node[6].prot frontDelay ETV
vector 73 Highway.node[6].prot frontDelayId ETV
vector 74 Highway.node[5].prot frontDelay ETV
vector 75 Highway.node[5].prot frontDelayId ETV
vector 76 Highway.node[1].prot leaderDelay ETV
vector 77 Highway.node[1].prot leaderDelayId ETV
vector 78 Highway.node[1].prot frontDelay ETV
vector 79 Highway.node[1].prot frontDelayId ETV
vector 80 Highway.node[2].prot leaderDelay ETV
vector 81 Highway.node[2].prot leaderDelayId ETV
vector 82 Highway.node[3].prot leaderDelay ETV
vector 83 Highway.node[3].prot leaderDelayId ETV
vector 84 Highway.node[4].prot leaderDelay ETV
vector 85 Highway.node[4].prot leaderDelayId ETV
vector 86 Highway.node[5].prot leaderDelay ETV
vector 87 Highway.node[5].prot leaderDelayId ETV
vector 88 Highway.node[6].prot leaderDelay ETV
vector 89 Highway.node[6].prot leaderDelayId ETV
vector 90 Highway.node[7].prot leaderDelay ETV
vector 91 Highway.node[7].prot leaderDelayId ETV
vector 92 Highway.node[0].prot nodeId ETV
vector 93 Highway.node[0].prot busyTime ETV
vector 94 Highway.node[0].prot collisions ETV
vector 95 Highway.node[1].prot nodeId ETV
vector 96 Highway.node[1].prot busyTime ETV
vector 97 Highway.node[1].prot collisions ETV
vector 98 Highway.node[2].prot nodeId ETV
vector 99 Highway.node[2].prot busyTime ETV
vector 100 Highway.node[2].prot collisions ETV
vector 101 Highway.node[3].prot nodeId ETV
vector 102 Highway.node[3].prot busyTime ETV
vector 103 Highway.node[3].prot collisions ETV
vector 104 Highway.node[4].prot nodeId ETV
vector 105 Highway.node[4].prot busyTime ETV
vector 106 Highway.node[4].prot collisions ETV
vector 107 Highway.node[5].prot nodeId ETV
vector 108 Highway.node[5].prot busyTime ETV
vector 109 Highway.node[5].prot collisions ETV
vector 110 Highway.node[6].prot nodeId ETV
vector 111 Highway.node[6].prot busyTime ETV
vector 112 Highway.node[6].prot collisions ETV
vector 113 Highway.node[7].prot nodeId ETV
vector 114 Highway.node[7].prot busyTime ETV
vector 115 Highway.node[7].prot collisions ETV
0	11335 18433 113 543894 1.11 99.91 989 -1 67.7697 7642.9298 413140.55480392
1	29768 17461 113 543894 1.11 99.91 989 0 2.4444 459.5472 1123.31717568
2	47229 16521 113 543894 1.11 99.91 989 0 0 0 0
3	63750 19109 113 543894 1.11 99.91 989 -0.00283113 0.000125957 -0.043966303784312 9.6812896349407e-05
4	82859 26489 113 543894 1.11 99.91 989 -0.00437036 0.00019576 -0.042459310034081 0.00013890441444735
5	109348 22451 113 543894 1.11 99.91 989 30.5554 30.56 30219.5304 923377.16656332
6	131799 22377 113 543894 1.11 99.91 989 51.0204 3069.92 1543305.8264 3160926741.3121
7	154176 21466 113 543894 1.11 99.91 989 242.45 242.45 239783.05 58135400.472499
8	175642 21759 114 543895 1.11 99.91 989 -1 105.373 19979.31968 1247150.2343291
9	197401 21892 114 543895 1.11 99.91 989 -0.000537994 6.00002 1531.5346488014 6903.2085122008
10	219293 17510 114 543895 1.11 99.91 989 1 1 989 989
11	236803 25509 114 543895 1.11 99.91 989 -1.46271 0.0652003 -35.562103000017 42.101499888666
12	262312 27001 114 543895 1.11 99.91 989 -1.5 0.101253 -34.754122757804 49.260560433433
13	289313 21567 114 543895 1.11 99.91 989 26.8987 30.56 28565.8699 828111.35106671
14	310880 23385 114 543895 1.11 99.91 989 45.0204 2898.73 1498574.1293 2946581874.2038
15	334265 22455 114 543895 1.11 99.91 989 242.45 245.75 241360.45 58905487.1525
16	356720 23314 115 543896 1.11 99.91 989 1.99968 49.8612 18021.46289 638619.19027067
17	380034 24768 115 543896 1.11 99.91 989 -9.06016e-05 2.45644 408.91798415993 462.75834286088
18	404802 17510 115 543896 1.11 99.91 989 2 2 1978 3956
19	422312 26290 115 543896 1.11 99.91 989 -1.55245 0.271809 -5.555247232213 31.899390170629
20	448602 26691 115 543896 1.11 99.91 989 -2.36876 0.306569 -4.4484038137372 44.290998208127
21	475293 22133 115 543896 1.11 99.91 989 28.0992 30.56 29800.6402 898242.48657278
22	497426 23364 115 543896 1.11 99.91 989 39.0204 3016.06 1517941.6362 3059025903.3731
23	520790 22455 115 543896 1.11 99.91 989 242.45 242.45 239783.05 58135400.472499
24	543245 23180 116 543897 1.11 99.91 989 1.99967 104.113 27932.35651 1915145.0009143
25	566425 24064 116 543897 1.11 99.91 989 -4.72856e-05 3.67255 1324.7241645304 3756.133088501
26	590489 17510 116 543897 1.11 99.91 989 3 3 2967 8901
27	607999 25925 116 543897 1.11 99.91 989 -2.33509 0.537347 -35.550808847086 100.75303992128
28	633924 26900 116 543897 1.11 99.91 989 -2.96569 0.576857 -34.245999926629 123.786661217
29	660824 21741 116 543897 1.11 99.91 989 25.3659 30.56 28472.0114 822919.38311112
30	682565 23370 116 543897 1.11 99.91 989 33.0204 2877.34 1481901.363 2890230481.3513
31	705935 22455 116 543897 1.11 99.91 989 242.45 242.45 239783.05 58135400.472499
32	728390 21961 117 543898 1.11 99.91 989 -1 74.7851 9168.67312 449652.36693532
33	750351 22678 117 543898 1.11 99.91 989 -3.65536e-05 7.70849 494.17581708856 1680.1059185422
34	773029 17510 117 543898 1.11 99.91 989 4 4 3956 15824
35	790539 25644 117 543898 1.11 99.91 989 -2.5816 1.4992 4.4126905156253 250.24657229511
36	816183 26513 117 543898 1.11 99.91 989 -2.96856 1.5 4.9184481758308 292.03130742944
37	842696 21884 117 543898 1.11 99.91 989 23.5166 31.1038 30013.5989 912599.38977075
38	864580 22972 117 543898 1.11 99.91 989 27.0204 3025.3 1505125.2452 3023995714.7479
39	887552 22455 117 543898 1.11 99.91 989 242.45 249.05 241772.95 59110310.892501
40	910007 22856 118 543899 1.11 99.91 989 -1 42.2011 12848.41997 396799.86425918
41	932863 24614 118 543899 1.11 99.91 989 -0.758042 3.37239 289.10705045656 552.21482760749
42	957477 17510 118 543899 1.11 99.91 989 5 5 4945 24725
43	974987 25802 118 543899 1.11 99.91 989 -2.63568 1.48563 -6.367609674735 264.52519888332
44	1000789 25746 118 543899 1.11 99.91 989 -2.96805 1.5 -4.91695729552 317.69751022249
45	1026535 23303 118 543899 1.11 99.91 989 22.5313 31.0311 29568.578 886535.457259
46	1049838 23319 118 543899 1.11 99.91 989 21.0204 2974.85 1486621.4392 2944859139.5877
47	1073157 22455 118 543899 1.11 99.91 989 242.45 249.05 241499.05 58977442.332501
48	1095612 20950 119 543900 1.11 99.91 989 -1 2.93059 746.66866 3476.1865916258
49	1116562 21901 119 543900 1.11 99.91 989 -0.000344035 0.0383682 9.309535299251 0.26352712412318
50	1138463 17510 119 543900 1.11 99.91 989 6 6 5934 35604
51	1155973 25166 119 543900 1.11 99.91 989 -0.0660696 1.34417 24.440180323098 25.90019120811
52	1181139 26900 119 543900 1.11 99.91 989 -0.0932129 1.5 24.612568252531 34.06729527892
53	1208039 21554 119 543900 1.11 99.91 989 30.2753 33.0932 31298.4511 992084.53084233
54	1229593 23378 119 543900 1.11 99.91 989 15.0204 3141.69 1529802.8496 3171994222.3827
55	1252971 22455 119 543900 1.11 99.91 989 242.45 249.05 241145.95 58803447.1925
56	1275426 21310 120 543901 1.11 99.91 989 -1 37.7392 3262.75929 83626.451840248
57	1296736 22376 120 543901 1.11 99.91 989 -1.46845 5.0523 28.135539760111 106.10901773191
58	1319112 17510 120 543901 1.11 99.91 989 7 7 6923 48461
59	1336622 25755 120 543901 1.11 99.91 989 -1.21108 1.24716 -5.5461382032979 44.020298162
60	1362377 26708 120 543901 1.11 99.91 989 -1.31062 1.5 -3.6228787751896 65.045502315412
61	1389085 21919 120 543901 1.11 99.91 989 27.9104 30.56 29843.688 900691.0721954
62	1411004 23379 120 543901 1.11 99.91 989 9.0204 2990.36 1488603.8403 2973625823.2264
63	1434383 22455 120 543901 1.11 99.91 989 242.45 252.35 243561.55 60000363.132501
64	1456838 39992 702 543955 1.214462500346 99.914460871488 988 0.09998748031 0.100008786771 98.799998851474 9.8799997829701
65	1496830 27268 702 543955 1.214462500346 99.914460871488 988 4 4 3952 15808
66	1524098 40000 769 544034 1.22169752036 99.921696303388 988 0.099987480312 0.100008687073 98.79999926336 9.8799998650881
67	1564098 27265 769 544034 1.22169752036 99.921696303388 988 3 3 2964 8892
68	1591363 39986 903 544150 1.247009640443 99.947008937285 988 0.099987480311 0.10000868712 98.799999777174 9.8799999676283
69	1631349 27272 903 544150 1.247009640443 99.947008937285 988 7 7 6916 48412
70	1658621 39947 970 544217 1.254140740512 99.954140635305 988 0.09998748031 0.10000873759 98.800000375125 9.8800000875057
71	1698568 27249 970 544217 1.254140740512 99.954140635305 988 2 2 1976 3952
72	1725817 39991 1038 544303 1.273478820567 99.973479055154 988 0.099987480311 0.100008687166 98.800000714919 9.8800001551737
73	1765808 27273 1038 544303 1.273478820567 99.973479055154 988 6 6 5928 35568
74	1793081 39995 1105 544352 1.285042840581 99.985042835751 988 0.09998748031 0.100008835184 98.800000475502 9.8800001076054
75	1833076 27285 1105 544352 1.285042840581 99.985042835751 988 5 5 4940 24700
76	1860361 40004 1166 544431 1.293967920636 99.993968388132 988 0.099987480311 0.100008737616 98.800000947828 9.8800002020452
77	1900365 27277 1166 544431 1.293967920636 99.993968388132 988 1 1 988 988
78	1927642 40004 1166 544431 1.293967920636 99.993968388132 988 0.099987480311 0.100008737616 98.800000947828 9.8800002020452
79	1967646 27277 1166 544431 1.293967920636 99.993968388132 988 1 1 988 988
80	1994923 40004 1172 544407 1.29396794065 99.993967995764 988 0.099987480311 0.100008737618 98.800000535446 9.8800001195688
81	2034927 27279 1172 544407 1.29396794065 99.993967995764 988 2 2 1976 3952
82	2062206 40011 1178 544437 1.293967960663 99.993968459362 988 0.099987480311 0.10000873762 98.80000097903 9.8800002082856
83	2102217 27281 1178 544437 1.293967960663 99.993968459362 988 3 3 2964 8892
84	2129498 39965 1184 544401 1.293967980677 99.99396796503 988 0.099987480311 0.100008737624 98.800000464685 9.8800001054166
85	2169463 27270 1184 544401 1.293967980677 99.99396796503 988 4 4 3952 15808
86	2196733 39993 1190 544425 1.293968000691 99.993968133224 988 0.099987480311 0.100008737629 98.800000612865 9.8800001350526
87	2236726 27263 1190 544425 1.293968000691 99.993968133224 988 5 5 4940 24700
88	2263989 40038 1196 544413 1.293968020705 99.993968056068 988 0.099987480311 0.100008737635 98.800000515695 9.8800001156185
89	2304027 27291 1196 544413 1.293968020705 99.993968056068 988 6 6 5928 35568
90	2331318 39979 1202 544419 1.293968040719 99.993968081702 988 0.099987480311 0.100008737642 98.800000521315 9.8800001167426
91	2371297 27256 1202 544419 1.293968040719 99.993968081702 988 7 7 6916 48412
92	2398553 1459 5026 544439 2 100 99 0 0 0 0
93	2400012 2067 5026 544439 2 100 99 0.022473 0.02613030338 2.47160630338 0.061713137820731
94	2402079 1459 5026 544439 2 100 99 0 0 0 0
95	2403538 1459 5027 544440 2 100 99 1 1 99 99
96	2404997 2068 5027 544440 2 100 99 0.022473 0.025898 2.471214046036 0.06169302261439
97	2407065 1459 5027 544440 2 100 99 0 0 0 0
98	2408524 1459 5028 544441 2 100 99 2 2 198 396
99	2409983 2068 5028 544441 2 100 99 0.022473 0.025898 2.471214092388 0.061693024942658
100	2412051 1558 5028 544441 2 100 99 0 0 0 0
101	2413609 1558 5029 544442 2 100 99 3 3 297 891
102	2415167 2167 5029 544442 2 100 99 0.022473 0.025898 2.471214138864 0.061693027277158
103	2417334 1558 5029 544442 2 100 99 0 0 0 0
104	2418892 1558 5030 544443 2 100 99 4 4 396 1584
105	2420450 2166 5030 544443 2 100 99 0.022473 0.025898 2.47121418539 0.061693029614174
106	2422616 1558 5030 544443 2 100 99 0 0 0 0
107	2424174 1558 5031 544444 2 100 99 5 5 495 2475
108	2425732 2167 5031 544444 2 100 99 0.022473 0.025898 2.471214231948 0.061693031952802
109	2427899 1558 5031 544444 2 100 99 0 0 0 0
110	2429457 1558 5032 544445 2 100 99 6 6 594 3564
111	2431015 2167 5032 544445 2 100 99 0.022473 0.025898 2.471214278522 0.061693034292238
112	2433182 1558 5032 544445 2 100 99 0 0 0 0
113	2434740 1558 5033 544446 2 100 99 7 7 693 4851
114	2436298 2167 5033 544446 2 100 99 0.022473 0.025931325104 2.471214325104 0.061693091018649
115	2438465 1558 5033 544446 2 100 99 0 0 0 0

