file 2448081 1720454194                                         
version 3
run BreakRanksNoGui-22-20240708-17:56:20-156313
attr configname BreakRanksNoGui
attr datetime 20240708-17:56:20
attr datetimef 20240708-175620
attr experiment BreakRanksNoGui
attr inifile omnetpp.ini
attr iterationvars "$nCars=8, $platoonSize=8, $nLanes=1, $ploegH=0.5, $controller=1, $headway=0.1, $leaderHeadway=1.2, $leaderSpeed=110, $breakRanksSafetyDistance=3, $minSpeed=100, $maxSpeed=120, $beaconInterval=0.1, $priority=4, $packetSize=200, $sController=\"CACC\", $0=2, $1=0"
attr iterationvarsd nCars=8/platoonSize=8/nLanes=1/ploegH=0.5/controller=1/headway=0.1/leaderHeadway=1.2/leaderSpeed=110/breakRanksSafetyDistance=3/minSpeed=100/maxSpeed=120/beaconInterval=0.1/priority=4/packetSize=200/sController=CACC/2/0
attr iterationvarsf nCars=8,platoonSize=8,nLanes=1,ploegH=0.5,controller=1,headway=0.1,leaderHeadway=1.2,leaderSpeed=110,breakRanksSafetyDistance=3,minSpeed=100,maxSpeed=120,beaconInterval=0.1,priority=4,packetSize=200,sController=CACC,2,0-
attr measurement "$nCars=8, $platoonSize=8, $nLanes=1, $ploegH=0.5, $controller=1, $headway=0.1, $leaderHeadway=1.2, $leaderSpeed=110, $breakRanksSafetyDistance=3, $minSpeed=100, $maxSpeed=120, $beaconInterval=0.1, $priority=4, $packetSize=200, $sController=\"CACC\", $0=2, $1=0"
attr network Highway
attr processid 156313
attr repetition 2
attr replication #2
attr resultdir results
attr runnumber 22
attr seedset 2
itervar beaconInterval 0.1
itervar breakRanksSafetyDistance 3
itervar controller 1
itervar headway 0.1
itervar leaderHeadway 1.2
itervar leaderSpeed 110
itervar maxSpeed 120
itervar minSpeed 100
itervar nCars 8
itervar nLanes 1
itervar packetSize 200
itervar platoonSize 8
itervar ploegH 0.5
itervar priority 4
itervar sController "\"CACC\""
config image-path ../../../veins/images
config repeat 10
config extends BreakRanks
config *.manager.command "\"sumo\""
config *.manager.ignoreGuiCommands true
config output-vector-file results/BreakRanks_1_0.1_110_3/result_2.vec
config output-scalar-file results/BreakRanks_1_0.1_110_3/result_2.sca
config extends Platooning
config *.node[*].scenario_type "\"BreakRanksScenario\""
config *.manager.command "\"sumo-gui\""
config *.node[*].scenario_type "\"SimpleScenario\""
config cmdenv-express-mode true
config cmdenv-autoflush true
config cmdenv-status-frequency 15s
config num-rngs 6
config network Highway
config debug-on-errors true
config print-undisposed true
config *.playgroundSizeX 65000m
config *.playgroundSizeY 25000m
config *.playgroundSizeZ 50m
config sim-time-limit "100 s"
config *.annotations.draw false
config *.obstacles.debug false
config *.world.useTorus false
config *.world.use2D false
config *.manager.updateInterval 0.01s
config *.manager.host "\"localhost\""
config *.manager.moduleType "\"org.car2x.plexe.PlatoonCar\""
config *.manager.moduleName "\"node\""
config *.manager.moduleDisplayString "\"\""
config *.manager.autoShutdown true
config *.manager.margin 25
config *.connectionManager.sendDirect true
config *.connectionManager.maxInterfDist 2600m
config *.connectionManager.drawMaxIntfDist false
config *.**.nic.mac1609_4.useServiceChannel false
config *.**.nic.mac1609_4.txPower 100mW
config *.**.nic.mac1609_4.bitrate 6Mbps
config *.**.nic.mac1609_4.useAcks true
config *.**.nic.mac1609_4.ackErrorRate 0.0
config *.**.nic.mac1609_4.frameErrorRate 0.0
config *.**.nic.phy80211p.minPowerLevel -94dBm
config *.**.nic.phy80211p.maxTXPower 100mW
config *.**.nic.phy80211p.useNoiseFloor true
config *.**.nic.phy80211p.noiseFloor -95dBm
config *.**.nic.phy80211p.decider "xmldoc(\"config.xml\")"
config *.**.nic.phy80211p.analogueModels "xmldoc(\"config.xml\")"
config *.**.nic.phy80211p.usePropagationDelay true
config *.node[*].mobility.x 0
config *.node[*].mobility.y 0
config *.node[*].mobility.z 1.895
config seed-set 2
config **.seed 2
config *.node[*].prot.rng-0 2
config *.node[*].appl.rng-0 3
config *.node[*].scenario.rng-0 4
config **.traffic.rng-0 5
config *.manager.configFile "\"./sumocfg/freeway.sumo.cfg\""
config *.manager.launchConfig "xmldoc(\"./sumocfg/freeway.launchd.xml\")"
config **.numberOfCars 8
config **.numberOfCarsPerPlatoon 8
config **.numberOfLanes 1
config *.node[*].helper_type "\"PositionHelper\""
config *.node[*].scenario.caccC1 0.5
config *.node[*].scenario.caccXi 1
config *.node[*].scenario.caccOmegaN "0.2 Hz"
config *.node[*].scenario.caccSpacing "2 m"
config *.node[*].scenario.engineTau "0.5 s"
config *.node[*].scenario.ploegH 0.5s
config *.node[*].scenario.ploegKp 0.2
config *.node[*].scenario.ploegKd 0.7
config *.node[*].scenario.useRealisticEngine false
config *.node[*].scenario.useControllerAcceleration true
config *.node[*].scenario.nLanes 1
config **.numericController 1
config **.headway 0.1s
config *.node[*].scenario.accHeadway 0.1s
config *.node[*].scenario.leaderHeadway 1.2s
config *.node[*].scenario.leaderSpeed 110kmph
config *.node[*].appl_type "\"SimplePlatooningApp\""
config *.node[*].appl.*.scalar-recording true
config *.node[*].appl.*.vector-recording true
config *.node[0].appl.breakRanksSafetyDistance 3m
config *.node[*].appl.minSpeed 100kmph
config *.node[*].appl.maxSpeed 120kmph
config *.node[*].protocol_type "\"SimplePlatooningBeaconing\""
config *.node[*].prot.*.scalar-recording true
config *.node[*].prot.*.vector-recording true
config *.node[*].prot.beaconingInterval 0.1s
config *.node[*].prot.priority 4
config *.node[*].prot.packetSize 200
config **.traffic_type "\"PlatoonsTrafficManager\""
config **.traffic.platoonInsertTime "1 s"
config **.traffic.platoonInsertSpeed 110kmph
config **.traffic.nCars 8
config **.traffic.platoonSize 8
config **.traffic.nLanes 1
config **.traffic.platooningVType "\"vtypeauto\""
config **.traffic.controller "\"CACC\""
config **.traffic.platoonInsertDistance 2m
config **.traffic.platoonInsertHeadway 0s
config **.traffic.platoonLeaderHeadway 1.2s
config **.scalar-recording false
config **.vector-recording false
config output-vector-file results/BreakRanksNoGui_1_0.1_110_3/result_2.vec
config output-scalar-file results/BreakRanksNoGui_1_0.1_110_3/result_2.sca

vector 0 Highway.node[0].appl distance ETV
vector 1 Highway.node[0].appl relativeSpeed ETV
vector 2 Highway.node[0].appl nodeId ETV
vector 3 Highway.node[0].appl acceleration ETV
vector 4 Highway.node[0].appl controllerAcceleration ETV
vector 5 Highway.node[0].appl speed ETV
vector 6 Highway.node[0].appl posx ETV
vector 7 Highway.node[0].appl posy ETV
vector 8 Highway.node[1].appl distance ETV
vector 9 Highway.node[1].appl relativeSpeed ETV
vector 10 Highway.node[1].appl nodeId ETV
vector 11 Highway.node[1].appl acceleration ETV
vector 12 Highway.node[1].appl controllerAcceleration ETV
vector 13 Highway.node[1].appl speed ETV
vector 14 Highway.node[1].appl posx ETV
vector 15 Highway.node[1].appl posy ETV
vector 16 Highway.node[2].appl distance ETV
vector 17 Highway.node[2].appl relativeSpeed ETV
vector 18 Highway.node[2].appl nodeId ETV
vector 19 Highway.node[2].appl acceleration ETV
vector 20 Highway.node[2].appl controllerAcceleration ETV
vector 21 Highway.node[2].appl speed ETV
vector 22 Highway.node[2].appl posx ETV
vector 23 Highway.node[2].appl posy ETV
vector 24 Highway.node[3].appl distance ETV
vector 25 Highway.node[3].appl relativeSpeed ETV
vector 26 Highway.node[3].appl nodeId ETV
vector 27 Highway.node[3].appl acceleration ETV
vector 28 Highway.node[3].appl controllerAcceleration ETV
vector 29 Highway.node[3].appl speed ETV
vector 30 Highway.node[3].appl posx ETV
vector 31 Highway.node[3].appl posy ETV
vector 32 Highway.node[4].appl distance ETV
vector 33 Highway.node[4].appl relativeSpeed ETV
vector 34 Highway.node[4].appl nodeId ETV
vector 35 Highway.node[4].appl acceleration ETV
vector 36 Highway.node[4].appl controllerAcceleration ETV
vector 37 Highway.node[4].appl speed ETV
vector 38 Highway.node[4].appl posx ETV
vector 39 Highway.node[4].appl posy ETV
vector 40 Highway.node[5].appl distance ETV
vector 41 Highway.node[5].appl relativeSpeed ETV
vector 42 Highway.node[5].appl nodeId ETV
vector 43 Highway.node[5].appl acceleration ETV
vector 44 Highway.node[5].appl controllerAcceleration ETV
vector 45 Highway.node[5].appl speed ETV
vector 46 Highway.node[5].appl posx ETV
vector 47 Highway.node[5].appl posy ETV
vector 48 Highway.node[6].appl distance ETV
vector 49 Highway.node[6].appl relativeSpeed ETV
vector 50 Highway.node[6].appl nodeId ETV
vector 51 Highway.node[6].appl acceleration ETV
vector 52 Highway.node[6].appl controllerAcceleration ETV
vector 53 Highway.node[6].appl speed ETV
vector 54 Highway.node[6].appl posx ETV
vector 55 Highway.node[6].appl posy ETV
vector 56 Highway.node[7].appl distance ETV
vector 57 Highway.node[7].appl relativeSpeed ETV
vector 58 Highway.node[7].appl nodeId ETV
vector 59 Highway.node[7].appl acceleration ETV
vector 60 Highway.node[7].appl controllerAcceleration ETV
vector 61 Highway.node[7].appl speed ETV
vector 62 Highway.node[7].appl posx ETV
vector 63 Highway.node[7].appl posy ETV
vector 64 Highway.node[7].prot frontDelay ETV
vector 65 Highway.node[7].prot frontDelayId ETV
vector 66 Highway.node[6].prot frontDelay ETV
vector 67 Highway.node[6].prot frontDelayId ETV
vector 68 Highway.node[1].prot leaderDelay ETV
vector 69 Highway.node[1].prot leaderDelayId ETV
vector 70 Highway.node[1].prot frontDelay ETV
vector 71 Highway.node[1].prot frontDelayId ETV
vector 72 Highway.node[2].prot leaderDelay ETV
vector 73 Highway.node[2].prot leaderDelayId ETV
vector 74 Highway.node[3].prot leaderDelay ETV
vector 75 Highway.node[3].prot leaderDelayId ETV
vector 76 Highway.node[4].prot leaderDelay ETV
vector 77 Highway.node[4].prot leaderDelayId ETV
vector 78 Highway.node[5].prot leaderDelay ETV
vector 79 Highway.node[5].prot leaderDelayId ETV
vector 80 Highway.node[6].prot leaderDelay ETV
vector 81 Highway.node[6].prot leaderDelayId ETV
vector 82 Highway.node[7].prot leaderDelay ETV
vector 83 Highway.node[7].prot leaderDelayId ETV
vector 84 Highway.node[4].prot frontDelay ETV
vector 85 Highway.node[4].prot frontDelayId ETV
vector 86 Highway.node[3].prot frontDelay ETV
vector 87 Highway.node[3].prot frontDelayId ETV
vector 88 Highway.node[5].prot frontDelay ETV
vector 89 Highway.node[5].prot frontDelayId ETV
vector 90 Highway.node[2].prot frontDelay ETV
vector 91 Highway.node[2].prot frontDelayId ETV
vector 92 Highway.node[0].prot nodeId ETV
vector 93 Highway.node[0].prot busyTime ETV
vector 94 Highway.node[0].prot collisions ETV
vector 95 Highway.node[1].prot nodeId ETV
vector 96 Highway.node[1].prot busyTime ETV
vector 97 Highway.node[1].prot collisions ETV
vector 98 Highway.node[2].prot nodeId ETV
vector 99 Highway.node[2].prot busyTime ETV
vector 100 Highway.node[2].prot collisions ETV
vector 101 Highway.node[3].prot nodeId ETV
vector 102 Highway.node[3].prot busyTime ETV
vector 103 Highway.node[3].prot collisions ETV
vector 104 Highway.node[4].prot nodeId ETV
vector 105 Highway.node[4].prot busyTime ETV
vector 106 Highway.node[4].prot collisions ETV
vector 107 Highway.node[5].prot nodeId ETV
vector 108 Highway.node[5].prot busyTime ETV
vector 109 Highway.node[5].prot collisions ETV
vector 110 Highway.node[6].prot nodeId ETV
vector 111 Highway.node[6].prot busyTime ETV
vector 112 Highway.node[6].prot collisions ETV
vector 113 Highway.node[7].prot nodeId ETV
vector 114 Highway.node[7].prot busyTime ETV
vector 115 Highway.node[7].prot collisions ETV
0	11335 17510 113 543894 1.11 99.91 989 -1 -1 -989 989
1	28845 16521 113 543894 1.11 99.91 989 0 0 0 0
2	45366 16521 113 543894 1.11 99.91 989 0 0 0 0
3	61887 19109 113 543894 1.11 99.91 989 -0.00283113 0.000125957 -0.043966303784312 9.6812896349407e-05
4	80996 26489 113 543894 1.11 99.91 989 -0.00437036 0.00019576 -0.042459310034081 0.00013890441444735
5	107485 22451 113 543894 1.11 99.91 989 30.5554 30.56 30219.5304 923377.16656332
6	129936 22338 113 543894 1.11 99.91 989 54.6404 3073.54 1546886.0081 3172113239.691
7	152274 21466 113 543894 1.11 99.91 989 242.45 242.45 239783.05 58135400.472499
8	173740 20215 114 543895 1.11 99.91 989 -1 56.8386 2909.01758 102764.55598443
9	193955 21107 114 543895 1.11 99.91 989 -0.000441914 4.00001 173.97142166087 656.52618693637
10	215062 17510 114 543895 1.11 99.91 989 1 1 989 989
11	232572 25466 114 543895 1.11 99.91 989 -1.35985 0.0607485 -25.562049428504 27.101320054138
12	258038 27052 114 543895 1.11 99.91 989 -1.5 0.0944214 -24.75420874683 33.852246839132
13	285090 21542 114 543895 1.11 99.91 989 27.9056 30.56 29019.3729 853055.44870953
14	306632 23387 114 543895 1.11 99.91 989 48.6404 2947.65 1512437.5826 3009079974.5575
15	330019 22455 114 543895 1.11 99.91 989 242.45 249.05 241749.85 59098162.272501
16	352474 23320 115 543896 1.11 99.91 989 1.99959 49.8612 18021.19581 638617.79706804
17	375794 24778 115 543896 1.11 99.91 989 -0.000131373 2.45644 408.91800054522 462.7599503442
18	400572 17510 115 543896 1.11 99.91 989 2 2 1978 3956
19	418082 26287 115 543896 1.11 99.91 989 -1.55245 0.271809 -5.5551987905428 31.899445214621
20	444369 26661 115 543896 1.11 99.91 989 -2.36876 0.306569 -4.4470966319773 44.290351155324
21	471030 22144 115 543896 1.11 99.91 989 28.0992 30.56 29800.64 898242.47606364
22	493174 23353 115 543896 1.11 99.91 989 42.6404 3019.68 1521522.0562 3070029107.9627
23	516527 22455 115 543896 1.11 99.91 989 242.45 242.45 239783.05 58135400.472499
24	538982 22521 116 543897 1.11 99.91 989 -1 36.3146 9297.86259 247386.93956836
25	561503 24021 116 543897 1.11 99.91 989 -0.000101157 2.93044 343.22938850329 570.23122015742
26	585524 17510 116 543897 1.11 99.91 989 3 3 2967 8901
27	603034 26003 116 543897 1.11 99.91 989 -2.33509 1.2715 14.448781800559 128.09119419838
28	629037 25990 116 543897 1.11 99.91 989 -2.96568 1.5 16.270714117382 159.1359432304
29	655027 23103 116 543897 1.11 99.91 989 25.3659 32.0879 29749.7608 896886.18677374
30	678130 23353 116 543897 1.11 99.91 989 36.6404 3008.49 1504469.1915 3000689559.543
31	701483 22455 116 543897 1.11 99.91 989 242.45 245.75 240307.75 58391559.0125
32	723938 23319 117 543898 1.11 99.91 989 1.99966 117.518 23720.80229 1676203.1064832
33	747257 24094 117 543898 1.11 99.91 989 -5.87299e-05 2.88177 794.20017737103 1434.2373890146
34	771351 17510 117 543898 1.11 99.91 989 4 4 3956 15824
35	788861 25966 117 543898 1.11 99.91 989 -2.58159 0.755794 -25.544664005122 181.35766077963
36	814827 26433 117 543898 1.11 99.91 989 -2.96855 0.79519 -24.246985901049 205.83423122056
37	841260 22281 117 543898 1.11 99.91 989 22.9275 30.56 28622.2106 831899.79937252
38	863541 23349 117 543898 1.11 99.91 989 30.6404 2889.93 1477179.4907 2875864549.7309
39	886890 22455 117 543898 1.11 99.91 989 242.45 242.45 239783.05 58135400.472499
40	909345 23283 118 543899 1.11 99.91 989 1.64602 43.3292 14690.0244 443868.39194867
41	932628 24407 118 543899 1.11 99.91 989 -5.17117e-05 7.16598 639.93899607413 1578.9895668576
42	957035 17510 118 543899 1.11 99.91 989 5 5 4945 24725
43	974545 26546 118 543899 1.11 99.91 989 -2.63568 1.49782 -35.550367095986 285.59440940437
44	1001091 26428 118 543899 1.11 99.91 989 -2.96806 1.5 -33.729813067676 319.52083668417
45	1027519 22178 118 543899 1.11 99.91 989 20.8143 30.56 28208.4192 809833.3101639
46	1049697 23166 118 543899 1.11 99.91 989 24.6404 2842.6 1461959.5523 2813311800.92
47	1072863 22455 118 543899 1.11 99.91 989 242.45 245.75 240548.65 58509166.3925
48	1095318 21757 119 543900 1.11 99.91 989 -1 76.1857 8141.31547 390672.62381181
49	1117075 22467 119 543900 1.11 99.91 989 -4.42475e-05 2.04434 273.18078808104 473.20971139803
50	1139542 17510 119 543900 1.11 99.91 989 6 6 5934 35604
51	1157052 25222 119 543900 1.11 99.91 989 -1.46086 0.0651793 -35.561952214153 41.949892186529
52	1182274 26718 119 543900 1.11 99.91 989 -1.5 0.101256 -34.75323851332 49.131404473351
53	1208992 21579 119 543900 1.11 99.91 989 26.8987 30.56 28517.0171 825138.43182225
54	1230571 23386 119 543900 1.11 99.91 989 18.6404 2867.46 1468901.9806 2854979375.9695
55	1253957 22455 119 543900 1.11 99.91 989 242.45 249.05 242452.75 59445957.192501
56	1276412 23272 120 543901 1.11 99.91 989 2 92.8378 22546.74398 1085333.7112077
57	1299684 25394 120 543901 1.11 99.91 989 -0.708701 3.04736 367.60765322045 1032.3354900096
58	1325078 17510 120 543901 1.11 99.91 989 7 7 6923 48461
59	1342588 26649 120 543901 1.11 99.91 989 -0.98226 0.639231 -15.546889058346 21.313097625774
60	1369237 26672 120 543901 1.11 99.91 989 -1.5 0.994378 -14.327496986552 28.160047410348
61	1395909 23057 120 543901 1.11 99.91 989 27.9802 30.56 29131.7632 859230.9276933
62	1418966 23340 120 543901 1.11 99.91 989 12.6404 2922.84 1474646.3096 2896120933.9211
63	1442306 22455 120 543901 1.11 99.91 989 242.45 245.75 241225.15 58839433.6925
64	1464761 40006 702 543943 1.21212246032 99.91211939761 988 0.099987440285 0.100008544057 98.799997377596 9.8799994875076
65	1504767 27258 702 543943 1.21212246032 99.91211939761 988 7 7 6916 48412
66	1532025 40009 837 544066 1.247587520362 99.947584749028 988 0.099987440285 0.100008544088 98.799997668972 9.8799995457826
67	1572034 27260 837 544066 1.247587520362 99.947584749028 988 6 6 5928 35568
68	1599294 40014 899 544146 1.262193620431 99.962204856734 988 0.099987440285 0.100008544112 98.799998676609 9.8799997473136
69	1639308 27277 899 544146 1.262193620431 99.962204856734 988 1 1 988 988
70	1666585 40014 899 544146 1.262193620431 99.962204856734 988 0.099987440285 0.100008544112 98.799998676609 9.8799997473136
71	1706599 27277 899 544146 1.262193620431 99.962204856734 988 1 1 988 988
72	1733876 40013 905 544134 1.262193640445 99.962204615935 988 0.099987440285 0.100008544116 98.799998415796 9.879999695151
73	1773889 27259 905 544134 1.262193640445 99.962204615935 988 2 2 1976 3952
74	1801148 40025 911 544140 1.262193660458 99.962204653133 988 0.099987440285 0.100008544122 98.79999843298 9.8799996985878
75	1841173 27280 911 544140 1.262193660458 99.962204653133 988 3 3 2964 8892
76	1868453 40019 917 544158 1.262193680472 99.962205049111 988 0.099987440285 0.10000854413 98.799998808945 9.8799997737808
77	1908472 27277 917 544158 1.262193680472 99.962205049111 988 4 4 3952 15808
78	1935749 39999 923 544170 1.262193700486 99.962205207184 988 0.099987440285 0.10000854414 98.799998947004 9.8799998013926
79	1975748 27279 923 544170 1.262193700486 99.962205207184 988 5 5 4940 24700
80	2003027 40007 929 544164 1.2621937205 99.962205124349 988 0.099987440285 0.100008544151 98.799998844155 9.8799997808228
81	2043034 27270 929 544164 1.2621937205 99.962205124349 988 6 6 5928 35568
82	2070304 40018 935 544152 1.262193740514 99.962204939151 988 0.099987440285 0.100008544161 98.799998638943 9.8799997397804
83	2110322 27271 935 544152 1.262193740514 99.962204939151 988 7 7 6916 48412
84	2137593 40013 972 544225 1.276565680472 99.976564049676 988 0.099987440282 0.10000853607 98.799998809509 9.8799997737257
85	2177606 27272 972 544225 1.276565680472 99.976564049676 988 4 4 3952 15808
86	2204878 40033 1039 544268 1.287856700486 99.987867729991 988 0.099987440285 0.100008544134 98.79999846981 9.879999705955
87	2244911 27275 1039 544268 1.287856700486 99.987867729991 988 3 3 2964 8892
88	2272186 40012 1106 544347 1.297496740514 99.997495283078 988 0.099987440285 0.100008549532 98.799998982869 9.8799998085602
89	2312198 27267 1106 544347 1.297496740514 99.997495283078 988 5 5 4940 24700
90	2339465 39927 1173 543874 1.302586800556 99.902583185542 987 0.099987440283 0.100008649321 98.699996825291 9.8699993771026
91	2379392 27218 1173 543874 1.302586800556 99.902583185542 987 2 2 1974 3948
92	2406610 1459 4960 544373 2 100 99 0 0 0 0
93	2408069 2068 4960 544373 2 100 99 0.022161 0.026130303372 2.471294303372 0.061699212012313
94	2410137 1459 4960 544373 2 100 99 0 0 0 0
95	2411596 1459 4961 544374 2 100 99 1 1 99 99
96	2413055 2067 4961 544374 2 100 99 0.02216 0.025898 2.470901046036 0.06167905248539
97	2415122 1459 4961 544374 2 100 99 0 0 0 0
98	2416581 1459 4962 544375 2 100 99 2 2 198 396
99	2418040 2068 4962 544375 2 100 99 0.022161 0.025898 2.470902092386 0.061679099134557
100	2420108 1558 4962 544375 2 100 99 0 0 0 0
101	2421666 1558 4963 544376 2 100 99 3 3 297 891
102	2423224 2167 4963 544376 2 100 99 0.022161 0.025898 2.470902138862 0.061679101469057
103	2425391 1558 4963 544376 2 100 99 0 0 0 0
104	2426949 1558 4964 544377 2 100 99 4 4 396 1584
105	2428507 2167 4964 544377 2 100 99 0.022161 0.025898 2.470902185386 0.061679103805973
106	2430674 1558 4964 544377 2 100 99 0 0 0 0
107	2432232 1558 4965 544378 2 100 99 5 5 495 2475
108	2433790 2167 4965 544378 2 100 99 0.022161 0.025898 2.470902231944 0.061679106144601
109	2435957 1558 4965 544378 2 100 99 0 0 0 0
110	2437515 1558 4966 544379 2 100 99 6 6 594 3564
111	2439073 2166 4966 544379 2 100 99 0.022161 0.025898 2.47090227852 0.061679108484137
112	2441239 1558 4966 544379 2 100 99 0 0 0 0
113	2442797 1558 4967 544380 2 100 99 7 7 693 4851
114	2444355 2167 4967 544380 2 100 99 0.022161 0.025931325102 2.470902325102 0.061679165210545
115	2446522 1558 4967 544380 2 100 99 0 0 0 0

