file 2439736 1720454223                                         
version 3
run BreakRanksNoGui-24-20240708-17:56:50-156345
attr configname BreakRanksNoGui
attr datetime 20240708-17:56:50
attr datetimef 20240708-175650
attr experiment BreakRanksNoGui
attr inifile omnetpp.ini
attr iterationvars "$nCars=8, $platoonSize=8, $nLanes=1, $ploegH=0.5, $controller=1, $headway=0.1, $leaderHeadway=1.2, $leaderSpeed=110, $breakRanksSafetyDistance=3, $minSpeed=100, $maxSpeed=120, $beaconInterval=0.1, $priority=4, $packetSize=200, $sController=\"CACC\", $0=2, $1=0"
attr iterationvarsd nCars=8/platoonSize=8/nLanes=1/ploegH=0.5/controller=1/headway=0.1/leaderHeadway=1.2/leaderSpeed=110/breakRanksSafetyDistance=3/minSpeed=100/maxSpeed=120/beaconInterval=0.1/priority=4/packetSize=200/sController=CACC/2/0
attr iterationvarsf nCars=8,platoonSize=8,nLanes=1,ploegH=0.5,controller=1,headway=0.1,leaderHeadway=1.2,leaderSpeed=110,breakRanksSafetyDistance=3,minSpeed=100,maxSpeed=120,beaconInterval=0.1,priority=4,packetSize=200,sController=CACC,2,0-
attr measurement "$nCars=8, $platoonSize=8, $nLanes=1, $ploegH=0.5, $controller=1, $headway=0.1, $leaderHeadway=1.2, $leaderSpeed=110, $breakRanksSafetyDistance=3, $minSpeed=100, $maxSpeed=120, $beaconInterval=0.1, $priority=4, $packetSize=200, $sController=\"CACC\", $0=2, $1=0"
attr network Highway
attr processid 156345
attr repetition 4
attr replication #4
attr resultdir results
attr runnumber 24
attr seedset 4
itervar beaconInterval 0.1
itervar breakRanksSafetyDistance 3
itervar controller 1
itervar headway 0.1
itervar leaderHeadway 1.2
itervar leaderSpeed 110
itervar maxSpeed 120
itervar minSpeed 100
itervar nCars 8
itervar nLanes 1
itervar packetSize 200
itervar platoonSize 8
itervar ploegH 0.5
itervar priority 4
itervar sController "\"CACC\""
config image-path ../../../veins/images
config repeat 10
config extends BreakRanks
config *.manager.command "\"sumo\""
config *.manager.ignoreGuiCommands true
config output-vector-file results/BreakRanks_1_0.1_110_3/result_4.vec
config output-scalar-file results/BreakRanks_1_0.1_110_3/result_4.sca
config extends Platooning
config *.node[*].scenario_type "\"BreakRanksScenario\""
config *.manager.command "\"sumo-gui\""
config *.node[*].scenario_type "\"SimpleScenario\""
config cmdenv-express-mode true
config cmdenv-autoflush true
config cmdenv-status-frequency 15s
config num-rngs 6
config network Highway
config debug-on-errors true
config print-undisposed true
config *.playgroundSizeX 65000m
config *.playgroundSizeY 25000m
config *.playgroundSizeZ 50m
config sim-time-limit "100 s"
config *.annotations.draw false
config *.obstacles.debug false
config *.world.useTorus false
config *.world.use2D false
config *.manager.updateInterval 0.01s
config *.manager.host "\"localhost\""
config *.manager.moduleType "\"org.car2x.plexe.PlatoonCar\""
config *.manager.moduleName "\"node\""
config *.manager.moduleDisplayString "\"\""
config *.manager.autoShutdown true
config *.manager.margin 25
config *.connectionManager.sendDirect true
config *.connectionManager.maxInterfDist 2600m
config *.connectionManager.drawMaxIntfDist false
config *.**.nic.mac1609_4.useServiceChannel false
config *.**.nic.mac1609_4.txPower 100mW
config *.**.nic.mac1609_4.bitrate 6Mbps
config *.**.nic.mac1609_4.useAcks true
config *.**.nic.mac1609_4.ackErrorRate 0.0
config *.**.nic.mac1609_4.frameErrorRate 0.0
config *.**.nic.phy80211p.minPowerLevel -94dBm
config *.**.nic.phy80211p.maxTXPower 100mW
config *.**.nic.phy80211p.useNoiseFloor true
config *.**.nic.phy80211p.noiseFloor -95dBm
config *.**.nic.phy80211p.decider "xmldoc(\"config.xml\")"
config *.**.nic.phy80211p.analogueModels "xmldoc(\"config.xml\")"
config *.**.nic.phy80211p.usePropagationDelay true
config *.node[*].mobility.x 0
config *.node[*].mobility.y 0
config *.node[*].mobility.z 1.895
config seed-set 4
config **.seed 4
config *.node[*].prot.rng-0 2
config *.node[*].appl.rng-0 3
config *.node[*].scenario.rng-0 4
config **.traffic.rng-0 5
config *.manager.configFile "\"./sumocfg/freeway.sumo.cfg\""
config *.manager.launchConfig "xmldoc(\"./sumocfg/freeway.launchd.xml\")"
config **.numberOfCars 8
config **.numberOfCarsPerPlatoon 8
config **.numberOfLanes 1
config *.node[*].helper_type "\"PositionHelper\""
config *.node[*].scenario.caccC1 0.5
config *.node[*].scenario.caccXi 1
config *.node[*].scenario.caccOmegaN "0.2 Hz"
config *.node[*].scenario.caccSpacing "2 m"
config *.node[*].scenario.engineTau "0.5 s"
config *.node[*].scenario.ploegH 0.5s
config *.node[*].scenario.ploegKp 0.2
config *.node[*].scenario.ploegKd 0.7
config *.node[*].scenario.useRealisticEngine false
config *.node[*].scenario.useControllerAcceleration true
config *.node[*].scenario.nLanes 1
config **.numericController 1
config **.headway 0.1s
config *.node[*].scenario.accHeadway 0.1s
config *.node[*].scenario.leaderHeadway 1.2s
config *.node[*].scenario.leaderSpeed 110kmph
config *.node[*].appl_type "\"SimplePlatooningApp\""
config *.node[*].appl.*.scalar-recording true
config *.node[*].appl.*.vector-recording true
config *.node[0].appl.breakRanksSafetyDistance 3m
config *.node[*].appl.minSpeed 100kmph
config *.node[*].appl.maxSpeed 120kmph
config *.node[*].protocol_type "\"SimplePlatooningBeaconing\""
config *.node[*].prot.*.scalar-recording true
config *.node[*].prot.*.vector-recording true
config *.node[*].prot.beaconingInterval 0.1s
config *.node[*].prot.priority 4
config *.node[*].prot.packetSize 200
config **.traffic_type "\"PlatoonsTrafficManager\""
config **.traffic.platoonInsertTime "1 s"
config **.traffic.platoonInsertSpeed 110kmph
config **.traffic.nCars 8
config **.traffic.platoonSize 8
config **.traffic.nLanes 1
config **.traffic.platooningVType "\"vtypeauto\""
config **.traffic.controller "\"CACC\""
config **.traffic.platoonInsertDistance 2m
config **.traffic.platoonInsertHeadway 0s
config **.traffic.platoonLeaderHeadway 1.2s
config **.scalar-recording false
config **.vector-recording false
config output-vector-file results/BreakRanksNoGui_1_0.1_110_3/result_4.vec
config output-scalar-file results/BreakRanksNoGui_1_0.1_110_3/result_4.sca

vector 0 Highway.node[0].appl distance ETV
vector 1 Highway.node[0].appl relativeSpeed ETV
vector 2 Highway.node[0].appl nodeId ETV
vector 3 Highway.node[0].appl acceleration ETV
vector 4 Highway.node[0].appl controllerAcceleration ETV
vector 5 Highway.node[0].appl speed ETV
vector 6 Highway.node[0].appl posx ETV
vector 7 Highway.node[0].appl posy ETV
vector 8 Highway.node[1].appl distance ETV
vector 9 Highway.node[1].appl relativeSpeed ETV
vector 10 Highway.node[1].appl nodeId ETV
vector 11 Highway.node[1].appl acceleration ETV
vector 12 Highway.node[1].appl controllerAcceleration ETV
vector 13 Highway.node[1].appl speed ETV
vector 14 Highway.node[1].appl posx ETV
vector 15 Highway.node[1].appl posy ETV
vector 16 Highway.node[2].appl distance ETV
vector 17 Highway.node[2].appl relativeSpeed ETV
vector 18 Highway.node[2].appl nodeId ETV
vector 19 Highway.node[2].appl acceleration ETV
vector 20 Highway.node[2].appl controllerAcceleration ETV
vector 21 Highway.node[2].appl speed ETV
vector 22 Highway.node[2].appl posx ETV
vector 23 Highway.node[2].appl posy ETV
vector 24 Highway.node[3].appl distance ETV
vector 25 Highway.node[3].appl relativeSpeed ETV
vector 26 Highway.node[3].appl nodeId ETV
vector 27 Highway.node[3].appl acceleration ETV
vector 28 Highway.node[3].appl controllerAcceleration ETV
vector 29 Highway.node[3].appl speed ETV
vector 30 Highway.node[3].appl posx ETV
vector 31 Highway.node[3].appl posy ETV
vector 32 Highway.node[4].appl distance ETV
vector 33 Highway.node[4].appl relativeSpeed ETV
vector 34 Highway.node[4].appl nodeId ETV
vector 35 Highway.node[4].appl acceleration ETV
vector 36 Highway.node[4].appl controllerAcceleration ETV
vector 37 Highway.node[4].appl speed ETV
vector 38 Highway.node[4].appl posx ETV
vector 39 Highway.node[4].appl posy ETV
vector 40 Highway.node[5].appl distance ETV
vector 41 Highway.node[5].appl relativeSpeed ETV
vector 42 Highway.node[5].appl nodeId ETV
vector 43 Highway.node[5].appl acceleration ETV
vector 44 Highway.node[5].appl controllerAcceleration ETV
vector 45 Highway.node[5].appl speed ETV
vector 46 Highway.node[5].appl posx ETV
vector 47 Highway.node[5].appl posy ETV
vector 48 Highway.node[6].appl distance ETV
vector 49 Highway.node[6].appl relativeSpeed ETV
vector 50 Highway.node[6].appl nodeId ETV
vector 51 Highway.node[6].appl acceleration ETV
vector 52 Highway.node[6].appl controllerAcceleration ETV
vector 53 Highway.node[6].appl speed ETV
vector 54 Highway.node[6].appl posx ETV
vector 55 Highway.node[6].appl posy ETV
vector 56 Highway.node[7].appl distance ETV
vector 57 Highway.node[7].appl relativeSpeed ETV
vector 58 Highway.node[7].appl nodeId ETV
vector 59 Highway.node[7].appl acceleration ETV
vector 60 Highway.node[7].appl controllerAcceleration ETV
vector 61 Highway.node[7].appl speed ETV
vector 62 Highway.node[7].appl posx ETV
vector 63 Highway.node[7].appl posy ETV
vector 64 Highway.node[4].prot frontDelay ETV
vector 65 Highway.node[4].prot frontDelayId ETV
vector 66 Highway.node[1].prot leaderDelay ETV
vector 67 Highway.node[1].prot leaderDelayId ETV
vector 68 Highway.node[1].prot frontDelay ETV
vector 69 Highway.node[1].prot frontDelayId ETV
vector 70 Highway.node[2].prot leaderDelay ETV
vector 71 Highway.node[2].prot leaderDelayId ETV
vector 72 Highway.node[3].prot leaderDelay ETV
vector 73 Highway.node[3].prot leaderDelayId ETV
vector 74 Highway.node[4].prot leaderDelay ETV
vector 75 Highway.node[4].prot leaderDelayId ETV
vector 76 Highway.node[5].prot leaderDelay ETV
vector 77 Highway.node[5].prot leaderDelayId ETV
vector 78 Highway.node[6].prot leaderDelay ETV
vector 79 Highway.node[6].prot leaderDelayId ETV
vector 80 Highway.node[7].prot leaderDelay ETV
vector 81 Highway.node[7].prot leaderDelayId ETV
vector 82 Highway.node[3].prot frontDelay ETV
vector 83 Highway.node[3].prot frontDelayId ETV
vector 84 Highway.node[6].prot frontDelay ETV
vector 85 Highway.node[6].prot frontDelayId ETV
vector 86 Highway.node[2].prot frontDelay ETV
vector 87 Highway.node[2].prot frontDelayId ETV
vector 88 Highway.node[5].prot frontDelay ETV
vector 89 Highway.node[5].prot frontDelayId ETV
vector 90 Highway.node[7].prot frontDelay ETV
vector 91 Highway.node[7].prot frontDelayId ETV
vector 92 Highway.node[0].prot nodeId ETV
vector 93 Highway.node[0].prot busyTime ETV
vector 94 Highway.node[0].prot collisions ETV
vector 95 Highway.node[1].prot nodeId ETV
vector 96 Highway.node[1].prot busyTime ETV
vector 97 Highway.node[1].prot collisions ETV
vector 98 Highway.node[2].prot nodeId ETV
vector 99 Highway.node[2].prot busyTime ETV
vector 100 Highway.node[2].prot collisions ETV
vector 101 Highway.node[3].prot nodeId ETV
vector 102 Highway.node[3].prot busyTime ETV
vector 103 Highway.node[3].prot collisions ETV
vector 104 Highway.node[4].prot nodeId ETV
vector 105 Highway.node[4].prot busyTime ETV
vector 106 Highway.node[4].prot collisions ETV
vector 107 Highway.node[5].prot nodeId ETV
vector 108 Highway.node[5].prot busyTime ETV
vector 109 Highway.node[5].prot collisions ETV
vector 110 Highway.node[6].prot nodeId ETV
vector 111 Highway.node[6].prot busyTime ETV
vector 112 Highway.node[6].prot collisions ETV
vector 113 Highway.node[7].prot nodeId ETV
vector 114 Highway.node[7].prot busyTime ETV
vector 115 Highway.node[7].prot collisions ETV
0	11335 18559 113 543894 1.11 99.91 989 -1 56.5634 8064.2974 381380.1578495
1	29894 17596 113 543894 1.11 99.91 989 0 1.4444 310.546 448.5526424
2	47490 16521 113 543894 1.11 99.91 989 0 0 0 0
3	64011 19109 113 543894 1.11 99.91 989 -0.00283113 0.000125957 -0.043966303784312 9.6812896349407e-05
4	83120 26489 113 543894 1.11 99.91 989 -0.00437036 0.00019576 -0.042459310034081 0.00013890441444735
5	109609 22451 113 543894 1.11 99.91 989 30.5554 30.56 30219.5304 923377.16656332
6	132060 22360 113 543894 1.11 99.91 989 66.0304 3084.93 1558150.7216 3207479615.8964
7	154420 21466 113 543894 1.11 99.91 989 242.45 242.45 239783.05 58135400.472499
8	175886 20011 114 543895 1.11 99.91 989 -1 2.99713 865.65459 4093.6771982527
9	195897 21019 114 543895 1.11 99.91 989 -0.000377192 0.0796544 9.97154410554 0.52702529575765
10	216916 17510 114 543895 1.11 99.91 989 1 1 989 989
11	234426 25441 114 543895 1.11 99.91 989 -0.0414028 0.929846 14.415374950551 10.473333913695
12	259867 27288 114 543895 1.11 99.91 989 -0.0644031 1.43995 14.209096677464 15.437602475677
13	287155 21509 114 543895 1.11 99.91 989 30.4759 32.0644 30885.8878 965071.32860488
14	308664 23370 114 543895 1.11 99.91 989 60.0304 3145.49 1567252.1963 3268996610.1089
15	332034 22455 114 543895 1.11 99.91 989 242.45 245.75 240650.95 58559109.2525
16	354489 23332 115 543896 1.11 99.91 989 1.99964 38.3886 16634.24822 523394.85124588
17	377821 25286 115 543896 1.11 99.91 989 -0.00012811 2.45644 293.92836808474 384.83682507989
18	403107 17510 115 543896 1.11 99.91 989 2 2 1978 3956
19	420617 26113 115 543896 1.11 99.91 989 -1.55245 0.271809 -0.27421813578298 32.059791999973
20	446730 26115 115 543896 1.11 99.91 989 -2.36876 0.306569 0.84513422082491 44.447133292409
21	472845 23338 115 543896 1.11 99.91 989 28.0992 30.56 29915.6299 905191.72330805
22	496183 23315 115 543896 1.11 99.91 989 54.0304 3042.54 1534172.7411 3112532756.0634
23	519498 22455 115 543896 1.11 99.91 989 242.45 242.45 239783.05 58135400.472499
24	541953 22272 116 543897 1.11 99.91 989 -1 47.5364 9676.63706 316285.84925538
25	564225 23127 116 543897 1.11 99.91 989 -9.98491e-05 4.92941 361.71654759369 729.26959994729
26	587352 17510 116 543897 1.11 99.91 989 3 3 2967 8901
27	604862 25526 116 543897 1.11 99.91 989 -2.33509 1.44879 4.4486370559404 111.81165135702
28	630388 26683 116 543897 1.11 99.91 989 -2.96569 1.5 6.8640200462961 162.49488823382
29	657071 21739 116 543897 1.11 99.91 989 27.0188 31.0053 30275.025 927101.73189982
30	678810 23371 116 543897 1.11 99.91 989 48.0304 3072.45 1537374.317 3142002343.324
31	702181 22455 116 543897 1.11 99.91 989 242.45 245.75 241307.65 58879710.1925
32	724636 21869 117 543898 1.11 99.91 989 -1 44.9065 7586.98334 243313.84681661
33	746505 22791 117 543898 1.11 99.91 989 -4.12144e-05 1.04651 194.25335126038 185.05606149768
34	769296 17510 117 543898 1.11 99.91 989 4 4 3956 15824
35	786806 26734 117 543898 1.11 99.91 989 -2.58159 1.42224 -5.5334747336343 109.10320125628
36	813540 26664 117 543898 1.11 99.91 989 -2.96856 1.5 -4.8995171433507 171.66998827269
37	840204 22065 117 543898 1.11 99.91 989 27.0014 30.56 29845.4572 900905.48231992
38	862269 23377 117 543898 1.11 99.91 989 42.0304 3023.55 1521926.4745 3074745069.7846
39	885646 22455 117 543898 1.11 99.91 989 242.45 249.05 242234.95 59338516.452501
40	908101 23340 118 543899 1.11 99.91 989 1.9998 101.965 24786.28577 1451824.7093675
41	931441 23089 118 543899 1.11 99.91 989 -9.22847e-05 3.10094 1286.8328378119 3611.9301688827
42	954530 17510 118 543899 1.11 99.91 989 5 5 4945 24725
43	972040 25643 118 543899 1.11 99.91 989 -2.6335 0.446443 -35.548181484581 94.385840693389
44	997683 26887 118 543899 1.11 99.91 989 -2.96806 0.497491 -33.804950702695 129.60592542718
45	1024570 21604 118 543899 1.11 99.91 989 26.1639 30.56 28488.2394 823604.78668762
46	1046174 23394 118 543899 1.11 99.91 989 36.0304 2881.98 1485011.8638 2900970478.118
47	1069568 22455 118 543899 1.11 99.91 989 242.45 242.45 239783.05 58135400.472499
48	1092023 20939 119 543900 1.11 99.91 989 -1 2.93057 746.731 3476.4017990108
49	1112962 21887 119 543900 1.11 99.91 989 -0.000103228 0.0382905 9.309279259648 0.26273907173202
50	1134849 17510 119 543900 1.11 99.91 989 6 6 5934 35604
51	1152359 24583 119 543900 1.11 99.91 989 -0.0658723 0.301355 4.4359180279252 1.2511955188105
52	1176942 26846 119 543900 1.11 99.91 989 -0.0777051 0.468277 4.772913132245 1.9579743501682
53	1203788 21402 119 543900 1.11 99.91 989 30.2756 31.0208 30368.6951 932596.09471089
54	1225190 23377 119 543900 1.11 99.91 989 30.0304 3063.82 1523033.6499 3105059838.8087
55	1248567 22455 119 543900 1.11 99.91 989 242.45 252.35 243861.85 60149278.272501
56	1271022 23293 120 543901 1.11 99.91 989 1.99987 52.3132 21025.68695 869261.74441191
57	1294315 25061 120 543901 1.11 99.91 989 -0.456755 4.43191 394.18888287045 726.41421670911
58	1319376 17510 120 543901 1.11 99.91 989 7 7 6923 48461
59	1336886 25488 120 543901 1.11 99.91 989 -2.43352 1.49702 -5.545798593817 194.9064240938
60	1362374 26594 120 543901 1.11 99.91 989 -2.53104 1.5 -3.9733884856639 232.2700105302
61	1388968 21812 120 543901 1.11 99.91 989 24.4356 30.56 29669.3907 891050.73580725
62	1410780 23378 120 543901 1.11 99.91 989 24.0304 2987.94 1495754.5673 2982551807.6023
63	1434158 22455 120 543901 1.11 99.91 989 242.45 245.75 240327.55 58401225.3725
64	1456613 40012 771 544018 1.240521540375 99.940516294516 988 0.099987440288 0.100008768538 98.799995194447 9.8799990506113
65	1496625 27280 771 544018 1.240521540375 99.940516294516 988 4 4 3952 15808
66	1523905 39984 831 544084 1.241802600416 99.941810376439 988 0.099987440286 0.100003680442 98.800008216328 9.8800016547228
67	1563889 27267 831 544084 1.241802600416 99.941810376439 988 1 1 988 988
68	1591156 39984 831 544084 1.241802600416 99.941810376439 988 0.099987440286 0.100003680442 98.800008216328 9.8800016547228
69	1631140 27267 831 544084 1.241802600416 99.941810376439 988 1 1 988 988
70	1658407 39982 837 544078 1.24180262043 99.941810315625 988 0.099987440286 0.100003680442 98.8000081355 9.8800016385571
71	1698389 27259 837 544078 1.24180262043 99.941810315625 988 2 2 1976 3952
72	1725648 40010 843 544066 1.241802640443 99.941810217208 988 0.099987440286 0.100003680442 98.800008017069 9.8800016148709
73	1765658 27269 843 544066 1.241802640443 99.941810217208 988 3 3 2964 8892
74	1792927 39978 849 544090 1.241802660457 99.941810379338 988 0.099987440286 0.100003680442 98.800008159186 9.8800016432944
75	1832905 27248 849 544090 1.241802660457 99.941810379338 988 4 4 3952 15808
76	1860153 40010 855 544102 1.241802680471 99.941810851675 988 0.099987440286 0.100003680442 98.800008611509 9.880001733759
77	1900163 27277 855 544102 1.241802680471 99.941810851675 988 5 5 4940 24700
78	1927440 40016 861 544072 1.241802700485 99.941810247935 988 0.099987440286 0.100003680442 98.800007987755 9.8800016090081
79	1967456 27279 861 544072 1.241802700485 99.941810247935 988 6 6 5928 35568
80	1994735 39980 867 544096 1.241802720499 99.941810497813 988 0.099987440286 0.100003680442 98.800008217619 9.880001654981
81	2034715 27262 867 544096 1.241802720499 99.941810497813 988 7 7 6916 48412
82	2061977 40014 905 544146 1.262739640444 99.962734416112 988 0.099987440287 0.100008788629 98.799995215973 9.8799990554097
83	2101991 27277 905 544146 1.262739640444 99.962734416112 988 3 3 2964 8892
84	2129268 39982 971 544218 1.266698700486 99.966694459682 988 0.099987440288 0.100008776849 98.799996199501 9.8799992518355
85	2169250 27253 971 544218 1.266698700486 99.966694459682 988 6 6 5928 35568
86	2196503 39982 1039 544286 1.281915780541 99.981912075706 988 0.099987440287 0.10000878864 98.79999673547 9.8799993590871
87	2236485 27252 1039 544286 1.281915780541 99.981912075706 988 2 2 1976 3952
88	2263737 40006 1105 544370 1.287382840583 99.987379612503 988 0.099987440287 0.10000878613 98.799997212225 9.8799994546698
89	2303743 27264 1105 544370 1.287382840583 99.987379612503 988 5 5 4940 24700
90	2331007 39979 1171 544424 1.289456880611 99.989453528728 988 0.099987440287 0.100008776896 98.799997088422 9.8799994296216
91	2370986 27278 1171 544424 1.289456880611 99.989453528728 988 7 7 6916 48412
92	2398264 1459 5026 544439 2 100 99 0 0 0 0
93	2399723 2068 5026 544439 2 100 99 0.022473 0.026130303376 2.471606303376 0.061713137820522
94	2401791 1459 5026 544439 2 100 99 0 0 0 0
95	2403250 1459 5027 544440 2 100 99 1 1 99 99
96	2404709 2068 5027 544440 2 100 99 0.022473 0.025898 2.471214046036 0.06169302261439
97	2406777 1459 5027 544440 2 100 99 0 0 0 0
98	2408236 1459 5028 544441 2 100 99 2 2 198 396
99	2409695 2068 5028 544441 2 100 99 0.022473 0.025898 2.471214092386 0.061693024942557
100	2411763 1558 5028 544441 2 100 99 0 0 0 0
101	2413321 1558 5029 544442 2 100 99 3 3 297 891
102	2414879 2167 5029 544442 2 100 99 0.022473 0.025898 2.471214138862 0.061693027277057
103	2417046 1558 5029 544442 2 100 99 0 0 0 0
104	2418604 1558 5030 544443 2 100 99 4 4 396 1584
105	2420162 2167 5030 544443 2 100 99 0.022473 0.025898 2.471214185388 0.061693029614073
106	2422329 1558 5030 544443 2 100 99 0 0 0 0
107	2423887 1558 5031 544444 2 100 99 5 5 495 2475
108	2425445 2167 5031 544444 2 100 99 0.022473 0.025898 2.471214231946 0.061693031952701
109	2427612 1558 5031 544444 2 100 99 0 0 0 0
110	2429170 1558 5032 544445 2 100 99 6 6 594 3564
111	2430728 2166 5032 544445 2 100 99 0.022473 0.025898 2.47121427852 0.061693034292137
112	2432894 1558 5032 544445 2 100 99 0 0 0 0
113	2434452 1558 5033 544446 2 100 99 7 7 693 4851
114	2436010 2167 5033 544446 2 100 99 0.022473 0.025931325102 2.471214325102 0.061693091018545
115	2438177 1558 5033 544446 2 100 99 0 0 0 0

