file 2437066 1720454179                                         
version 3
run BreakRanksNoGui-21-20240708-17:56:05-156300
attr configname BreakRanksNoGui
attr datetime 20240708-17:56:05
attr datetimef 20240708-175605
attr experiment BreakRanksNoGui
attr inifile omnetpp.ini
attr iterationvars "$nCars=8, $platoonSize=8, $nLanes=1, $ploegH=0.5, $controller=1, $headway=0.1, $leaderHeadway=1.2, $leaderSpeed=110, $breakRanksSafetyDistance=3, $minSpeed=100, $maxSpeed=120, $beaconInterval=0.1, $priority=4, $packetSize=200, $sController=\"CACC\", $0=2, $1=0"
attr iterationvarsd nCars=8/platoonSize=8/nLanes=1/ploegH=0.5/controller=1/headway=0.1/leaderHeadway=1.2/leaderSpeed=110/breakRanksSafetyDistance=3/minSpeed=100/maxSpeed=120/beaconInterval=0.1/priority=4/packetSize=200/sController=CACC/2/0
attr iterationvarsf nCars=8,platoonSize=8,nLanes=1,ploegH=0.5,controller=1,headway=0.1,leaderHeadway=1.2,leaderSpeed=110,breakRanksSafetyDistance=3,minSpeed=100,maxSpeed=120,beaconInterval=0.1,priority=4,packetSize=200,sController=CACC,2,0-
attr measurement "$nCars=8, $platoonSize=8, $nLanes=1, $ploegH=0.5, $controller=1, $headway=0.1, $leaderHeadway=1.2, $leaderSpeed=110, $breakRanksSafetyDistance=3, $minSpeed=100, $maxSpeed=120, $beaconInterval=0.1, $priority=4, $packetSize=200, $sController=\"CACC\", $0=2, $1=0"
attr network Highway
attr processid 156300
attr repetition 1
attr replication #1
attr resultdir results
attr runnumber 21
attr seedset 1
itervar beaconInterval 0.1
itervar breakRanksSafetyDistance 3
itervar controller 1
itervar headway 0.1
itervar leaderHeadway 1.2
itervar leaderSpeed 110
itervar maxSpeed 120
itervar minSpeed 100
itervar nCars 8
itervar nLanes 1
itervar packetSize 200
itervar platoonSize 8
itervar ploegH 0.5
itervar priority 4
itervar sController "\"CACC\""
config image-path ../../../veins/images
config repeat 10
config extends BreakRanks
config *.manager.command "\"sumo\""
config *.manager.ignoreGuiCommands true
config output-vector-file results/BreakRanks_1_0.1_110_3/result_1.vec
config output-scalar-file results/BreakRanks_1_0.1_110_3/result_1.sca
config extends Platooning
config *.node[*].scenario_type "\"BreakRanksScenario\""
config *.manager.command "\"sumo-gui\""
config *.node[*].scenario_type "\"SimpleScenario\""
config cmdenv-express-mode true
config cmdenv-autoflush true
config cmdenv-status-frequency 15s
config num-rngs 6
config network Highway
config debug-on-errors true
config print-undisposed true
config *.playgroundSizeX 65000m
config *.playgroundSizeY 25000m
config *.playgroundSizeZ 50m
config sim-time-limit "100 s"
config *.annotations.draw false
config *.obstacles.debug false
config *.world.useTorus false
config *.world.use2D false
config *.manager.updateInterval 0.01s
config *.manager.host "\"localhost\""
config *.manager.moduleType "\"org.car2x.plexe.PlatoonCar\""
config *.manager.moduleName "\"node\""
config *.manager.moduleDisplayString "\"\""
config *.manager.autoShutdown true
config *.manager.margin 25
config *.connectionManager.sendDirect true
config *.connectionManager.maxInterfDist 2600m
config *.connectionManager.drawMaxIntfDist false
config *.**.nic.mac1609_4.useServiceChannel false
config *.**.nic.mac1609_4.txPower 100mW
config *.**.nic.mac1609_4.bitrate 6Mbps
config *.**.nic.mac1609_4.useAcks true
config *.**.nic.mac1609_4.ackErrorRate 0.0
config *.**.nic.mac1609_4.frameErrorRate 0.0
config *.**.nic.phy80211p.minPowerLevel -94dBm
config *.**.nic.phy80211p.maxTXPower 100mW
config *.**.nic.phy80211p.useNoiseFloor true
config *.**.nic.phy80211p.noiseFloor -95dBm
config *.**.nic.phy80211p.decider "xmldoc(\"config.xml\")"
config *.**.nic.phy80211p.analogueModels "xmldoc(\"config.xml\")"
config *.**.nic.phy80211p.usePropagationDelay true
config *.node[*].mobility.x 0
config *.node[*].mobility.y 0
config *.node[*].mobility.z 1.895
config seed-set 1
config **.seed 1
config *.node[*].prot.rng-0 2
config *.node[*].appl.rng-0 3
config *.node[*].scenario.rng-0 4
config **.traffic.rng-0 5
config *.manager.configFile "\"./sumocfg/freeway.sumo.cfg\""
config *.manager.launchConfig "xmldoc(\"./sumocfg/freeway.launchd.xml\")"
config **.numberOfCars 8
config **.numberOfCarsPerPlatoon 8
config **.numberOfLanes 1
config *.node[*].helper_type "\"PositionHelper\""
config *.node[*].scenario.caccC1 0.5
config *.node[*].scenario.caccXi 1
config *.node[*].scenario.caccOmegaN "0.2 Hz"
config *.node[*].scenario.caccSpacing "2 m"
config *.node[*].scenario.engineTau "0.5 s"
config *.node[*].scenario.ploegH 0.5s
config *.node[*].scenario.ploegKp 0.2
config *.node[*].scenario.ploegKd 0.7
config *.node[*].scenario.useRealisticEngine false
config *.node[*].scenario.useControllerAcceleration true
config *.node[*].scenario.nLanes 1
config **.numericController 1
config **.headway 0.1s
config *.node[*].scenario.accHeadway 0.1s
config *.node[*].scenario.leaderHeadway 1.2s
config *.node[*].scenario.leaderSpeed 110kmph
config *.node[*].appl_type "\"SimplePlatooningApp\""
config *.node[*].appl.*.scalar-recording true
config *.node[*].appl.*.vector-recording true
config *.node[0].appl.breakRanksSafetyDistance 3m
config *.node[*].appl.minSpeed 100kmph
config *.node[*].appl.maxSpeed 120kmph
config *.node[*].protocol_type "\"SimplePlatooningBeaconing\""
config *.node[*].prot.*.scalar-recording true
config *.node[*].prot.*.vector-recording true
config *.node[*].prot.beaconingInterval 0.1s
config *.node[*].prot.priority 4
config *.node[*].prot.packetSize 200
config **.traffic_type "\"PlatoonsTrafficManager\""
config **.traffic.platoonInsertTime "1 s"
config **.traffic.platoonInsertSpeed 110kmph
config **.traffic.nCars 8
config **.traffic.platoonSize 8
config **.traffic.nLanes 1
config **.traffic.platooningVType "\"vtypeauto\""
config **.traffic.controller "\"CACC\""
config **.traffic.platoonInsertDistance 2m
config **.traffic.platoonInsertHeadway 0s
config **.traffic.platoonLeaderHeadway 1.2s
config **.scalar-recording false
config **.vector-recording false
config output-vector-file results/BreakRanksNoGui_1_0.1_110_3/result_1.vec
config output-scalar-file results/BreakRanksNoGui_1_0.1_110_3/result_1.sca

vector 0 Highway.node[0].appl distance ETV
vector 1 Highway.node[0].appl relativeSpeed ETV
vector 2 Highway.node[0].appl nodeId ETV
vector 3 Highway.node[0].appl acceleration ETV
vector 4 Highway.node[0].appl controllerAcceleration ETV
vector 5 Highway.node[0].appl speed ETV
vector 6 Highway.node[0].appl posx ETV
vector 7 Highway.node[0].appl posy ETV
vector 8 Highway.node[1].appl distance ETV
vector 9 Highway.node[1].appl relativeSpeed ETV
vector 10 Highway.node[1].appl nodeId ETV
vector 11 Highway.node[1].appl acceleration ETV
vector 12 Highway.node[1].appl controllerAcceleration ETV
vector 13 Highway.node[1].appl speed ETV
vector 14 Highway.node[1].appl posx ETV
vector 15 Highway.node[1].appl posy ETV
vector 16 Highway.node[2].appl distance ETV
vector 17 Highway.node[2].appl relativeSpeed ETV
vector 18 Highway.node[2].appl nodeId ETV
vector 19 Highway.node[2].appl acceleration ETV
vector 20 Highway.node[2].appl controllerAcceleration ETV
vector 21 Highway.node[2].appl speed ETV
vector 22 Highway.node[2].appl posx ETV
vector 23 Highway.node[2].appl posy ETV
vector 24 Highway.node[3].appl distance ETV
vector 25 Highway.node[3].appl relativeSpeed ETV
vector 26 Highway.node[3].appl nodeId ETV
vector 27 Highway.node[3].appl acceleration ETV
vector 28 Highway.node[3].appl controllerAcceleration ETV
vector 29 Highway.node[3].appl speed ETV
vector 30 Highway.node[3].appl posx ETV
vector 31 Highway.node[3].appl posy ETV
vector 32 Highway.node[4].appl distance ETV
vector 33 Highway.node[4].appl relativeSpeed ETV
vector 34 Highway.node[4].appl nodeId ETV
vector 35 Highway.node[4].appl acceleration ETV
vector 36 Highway.node[4].appl controllerAcceleration ETV
vector 37 Highway.node[4].appl speed ETV
vector 38 Highway.node[4].appl posx ETV
vector 39 Highway.node[4].appl posy ETV
vector 40 Highway.node[5].appl distance ETV
vector 41 Highway.node[5].appl relativeSpeed ETV
vector 42 Highway.node[5].appl nodeId ETV
vector 43 Highway.node[5].appl acceleration ETV
vector 44 Highway.node[5].appl controllerAcceleration ETV
vector 45 Highway.node[5].appl speed ETV
vector 46 Highway.node[5].appl posx ETV
vector 47 Highway.node[5].appl posy ETV
vector 48 Highway.node[6].appl distance ETV
vector 49 Highway.node[6].appl relativeSpeed ETV
vector 50 Highway.node[6].appl nodeId ETV
vector 51 Highway.node[6].appl acceleration ETV
vector 52 Highway.node[6].appl controllerAcceleration ETV
vector 53 Highway.node[6].appl speed ETV
vector 54 Highway.node[6].appl posx ETV
vector 55 Highway.node[6].appl posy ETV
vector 56 Highway.node[7].appl distance ETV
vector 57 Highway.node[7].appl relativeSpeed ETV
vector 58 Highway.node[7].appl nodeId ETV
vector 59 Highway.node[7].appl acceleration ETV
vector 60 Highway.node[7].appl controllerAcceleration ETV
vector 61 Highway.node[7].appl speed ETV
vector 62 Highway.node[7].appl posx ETV
vector 63 Highway.node[7].appl posy ETV
vector 64 Highway.node[2].prot frontDelay ETV
vector 65 Highway.node[2].prot frontDelayId ETV
vector 66 Highway.node[4].prot frontDelay ETV
vector 67 Highway.node[4].prot frontDelayId ETV
vector 68 Highway.node[6].prot frontDelay ETV
vector 69 Highway.node[6].prot frontDelayId ETV
vector 70 Highway.node[7].prot frontDelay ETV
vector 71 Highway.node[7].prot frontDelayId ETV
vector 72 Highway.node[5].prot frontDelay ETV
vector 73 Highway.node[5].prot frontDelayId ETV
vector 74 Highway.node[1].prot leaderDelay ETV
vector 75 Highway.node[1].prot leaderDelayId ETV
vector 76 Highway.node[1].prot frontDelay ETV
vector 77 Highway.node[1].prot frontDelayId ETV
vector 78 Highway.node[2].prot leaderDelay ETV
vector 79 Highway.node[2].prot leaderDelayId ETV
vector 80 Highway.node[3].prot leaderDelay ETV
vector 81 Highway.node[3].prot leaderDelayId ETV
vector 82 Highway.node[4].prot leaderDelay ETV
vector 83 Highway.node[4].prot leaderDelayId ETV
vector 84 Highway.node[5].prot leaderDelay ETV
vector 85 Highway.node[5].prot leaderDelayId ETV
vector 86 Highway.node[6].prot leaderDelay ETV
vector 87 Highway.node[6].prot leaderDelayId ETV
vector 88 Highway.node[7].prot leaderDelay ETV
vector 89 Highway.node[7].prot leaderDelayId ETV
vector 90 Highway.node[3].prot frontDelay ETV
vector 91 Highway.node[3].prot frontDelayId ETV
vector 92 Highway.node[0].prot nodeId ETV
vector 93 Highway.node[0].prot busyTime ETV
vector 94 Highway.node[0].prot collisions ETV
vector 95 Highway.node[1].prot nodeId ETV
vector 96 Highway.node[1].prot busyTime ETV
vector 97 Highway.node[1].prot collisions ETV
vector 98 Highway.node[2].prot nodeId ETV
vector 99 Highway.node[2].prot busyTime ETV
vector 100 Highway.node[2].prot collisions ETV
vector 101 Highway.node[3].prot nodeId ETV
vector 102 Highway.node[3].prot busyTime ETV
vector 103 Highway.node[3].prot collisions ETV
vector 104 Highway.node[4].prot nodeId ETV
vector 105 Highway.node[4].prot busyTime ETV
vector 106 Highway.node[4].prot collisions ETV
vector 107 Highway.node[5].prot nodeId ETV
vector 108 Highway.node[5].prot busyTime ETV
vector 109 Highway.node[5].prot collisions ETV
vector 110 Highway.node[6].prot nodeId ETV
vector 111 Highway.node[6].prot busyTime ETV
vector 112 Highway.node[6].prot collisions ETV
vector 113 Highway.node[7].prot nodeId ETV
vector 114 Highway.node[7].prot busyTime ETV
vector 115 Highway.node[7].prot collisions ETV
0	11335 18433 113 543894 1.11 99.91 989 -1 67.7696 7642.9222 413139.87210352
1	29768 17461 113 543894 1.11 99.91 989 0 2.4444 459.5472 1123.31717568
2	47229 16521 113 543894 1.11 99.91 989 0 0 0 0
3	63750 19109 113 543894 1.11 99.91 989 -0.00283113 0.000125957 -0.043966303784312 9.6812896349407e-05
4	82859 26489 113 543894 1.11 99.91 989 -0.00437036 0.00019576 -0.042459310034081 0.00013890441444735
5	109348 22451 113 543894 1.11 99.91 989 30.5554 30.56 30219.5304 923377.16656332
6	131799 22349 113 543894 1.11 99.91 989 52.3604 3071.26 1544631.0859 3165064576.674
7	154148 21466 113 543894 1.11 99.91 989 242.45 242.45 239783.05 58135400.472499
8	175614 21610 114 543895 1.11 99.91 989 -1 75.8152 17690.67978 905788.71605123
9	197224 22655 114 543895 1.11 99.91 989 -0.000537994 4 538.8747388014 891.73237996574
10	219879 17510 114 543895 1.11 99.91 989 1 1 989 989
11	237389 25455 114 543895 1.11 99.91 989 -0.999857 0.0445381 -15.5621139101 12.101394411911
12	262844 27120 114 543895 1.11 99.91 989 -1.5 0.0691478 -14.76358319612 16.884965351936
13	289964 21500 114 543895 1.11 99.91 989 28.9308 30.56 29480.6004 879348.76276832
14	311464 23385 114 543895 1.11 99.91 989 46.3604 2991.44 1520818.4093 3056040212.5391
15	334849 22455 114 543895 1.11 99.91 989 242.45 245.75 240297.85 58386725.832499
16	357304 23348 115 543896 1.11 99.91 989 1.99968 95.2294 26831.68039 1608527.8198713
17	380652 22888 115 543896 1.11 99.91 989 -6.49554e-05 3.66031 1161.3486026116 3043.8808688092
18	403540 17510 115 543896 1.11 99.91 989 2 2 1978 3956
19	421050 25445 115 543896 1.11 99.91 989 -1.55245 0.0673794 -35.555689467738 46.26093151606
20	446495 26996 115 543896 1.11 99.91 989 -2.36876 0.104679 -34.453185225418 57.980389374255
21	473491 21568 115 543896 1.11 99.91 989 26.8953 30.56 28547.3077 827013.77609325
22	495059 23379 115 543896 1.11 99.91 989 40.3604 2892.21 1492793.5655 2928024027.5905
23	518438 22455 115 543896 1.11 99.91 989 242.45 242.45 239783.05 58135400.472499
24	540893 21994 116 543897 1.11 99.91 989 -1 81.058 9721.47288 480186.74394067
25	562887 22811 116 543897 1.11 99.91 989 -0.000366137 4.22266 596.37154854974 1718.250126779
26	585698 17510 116 543897 1.11 99.91 989 3 3 2967 8901
27	603208 25705 116 543897 1.11 99.91 989 -2.33595 1.27744 -5.5233855207393 149.78381099377
28	628913 26724 116 543897 1.11 99.91 989 -2.96569 1.5 -4.1403233225826 194.49053274994
29	655637 21872 116 543897 1.11 99.91 989 25.1237 30.56 29702.3685 892920.28087851
30	677509 23373 116 543897 1.11 99.91 989 34.3604 3001.57 1508500.5838 3023131340.0866
31	700882 22455 116 543897 1.11 99.91 989 242.45 249.05 241716.85 59082465.492501
32	723337 23230 117 543898 1.11 99.91 989 1.99978 98.3585 21968.57169 1098797.9762461
33	746567 24074 117 543898 1.11 99.91 989 -4.00971e-05 5.00017 1003.1126467231 2693.7265160043
34	770641 17510 117 543898 1.11 99.91 989 4 4 3956 15824
35	788151 25652 117 543898 1.11 99.91 989 -2.58183 1.29322 -25.534625325965 179.71826489261
36	813803 26694 117 543898 1.11 99.91 989 -2.96855 1.5 -23.871196964755 227.32984841246
37	840497 21868 117 543898 1.11 99.91 989 23.9135 30.56 28792.3646 840716.79691248
38	862365 23371 117 543898 1.11 99.91 989 28.3604 2904.67 1481598.6056 2900441056.3224
39	885736 22455 117 543898 1.11 99.91 989 242.45 245.75 241129.45 58792712.9525
40	908191 22715 118 543899 1.11 99.91 989 -1 55.4129 12323.31055 401558.17333596
41	930906 24484 118 543899 1.11 99.91 989 -0.000451961 5.13651 252.21088542656 772.83230950471
42	955390 17510 118 543899 1.11 99.91 989 5 5 4945 24725
43	972900 26117 118 543899 1.11 99.91 989 -2.6357 1.49985 -5.764556846696 304.34432007874
44	999017 25983 118 543899 1.11 99.91 989 -2.96805 1.5 -4.6238396669452 337.41275125762
45	1025000 23118 118 543899 1.11 99.91 989 21.7012 30.56 29404.5125 877210.94557773
46	1048118 23329 118 543899 1.11 99.91 989 22.3604 2959.78 1483978.8498 2928696993.7424
47	1071447 22455 118 543899 1.11 99.91 989 242.45 249.05 242046.85 59246163.312501
48	1093902 20900 119 543900 1.11 99.91 989 -1 2.93061 746.81134 3476.7311048126
49	1114802 21875 119 543900 1.11 99.91 989 -2.92566e-05 0.0383162 9.3096755740606 0.26228166570825
50	1136677 17510 119 543900 1.11 99.91 989 6 6 5934 35604
51	1154187 25164 119 543900 1.11 99.91 989 -0.0657399 1.34417 24.440200510031 25.899346930022
52	1179351 26898 119 543900 1.11 99.91 989 -0.093213 1.5 24.612361810842 34.066346501782
53	1206249 21551 119 543900 1.11 99.91 989 30.2758 33.0932 31298.4511 992084.51858323
54	1227800 23381 119 543900 1.11 99.91 989 16.3604 3143.03 1531128.3193 3176096244.863
55	1251181 22455 119 543900 1.11 99.91 989 242.45 252.35 241396.75 58928632.0325
56	1273636 21112 120 543901 1.11 99.91 989 -1 38.9359 2321.18202 59223.363837682
57	1294748 22127 120 543901 1.11 99.91 989 -3.96259e-05 4.99659 81.433136906506 278.3492417754
58	1316875 17510 120 543901 1.11 99.91 989 7 7 6923 48461
59	1334385 25208 120 543901 1.11 99.91 989 -1.35755 0.0604488 -25.55137803693 26.832122167264
60	1359593 26739 120 543901 1.11 99.91 989 -1.5 0.094029 -24.581488248243 33.33139734769
61	1386332 21534 120 543901 1.11 99.91 989 27.906 30.56 28961.1515 849513.39368921
62	1407866 23366 120 543901 1.11 99.91 989 10.3604 2903.55 1470369.8893 2879047201.7983
63	1431232 22455 120 543901 1.11 99.91 989 242.45 252.35 243673.75 60055596.552501
64	1453687 39993 702 543961 1.212421340237 99.912425320878 988 0.099987320208 0.100008553235 98.800004300864 9.8800008716396
65	1493680 27270 702 543961 1.212421340237 99.912425320878 988 2 2 1976 3952
66	1520950 40003 770 544017 1.235022380265 99.935026348802 988 0.099987320208 0.100008649427 98.80000428876 9.8800008694926
67	1560953 27264 770 544017 1.235022380265 99.935026348802 988 4 4 3952 15808
68	1588217 40018 837 544102 1.248692420293 99.948696776492 988 0.099987320208 0.100008649433 98.800004676422 9.880000947014
69	1628235 27289 837 544102 1.248692420293 99.948696776492 988 6 6 5928 35568
70	1655524 40035 905 544164 1.263870440307 99.963875576614 988 0.099987320209 0.100008649438 98.80000545653 9.8800011030376
71	1695559 27287 905 544164 1.263870440307 99.963875576614 988 7 7 6916 48412
72	1722846 40014 1040 544281 1.297372520363 99.997364772681 988 0.099987320208 0.100008553283 98.799992572541 9.8799985262837
73	1762860 27286 1040 544281 1.297372520363 99.997364772681 988 5 5 4940 24700
74	1790146 40018 1100 544347 1.297782600418 99.997788411499 988 0.099987320206 0.100008601645 98.799993131304 9.879998638139
75	1830164 27272 1100 544347 1.297782600418 99.997788411499 988 1 1 988 988
76	1857436 40018 1100 544347 1.297782600418 99.997788411499 988 0.099987320206 0.100008601645 98.799993131304 9.879998638139
77	1897454 27272 1100 544347 1.297782600418 99.997788411499 988 1 1 988 988
78	1924726 40024 1106 544371 1.297782620432 99.997788743093 988 0.099987320206 0.100008601645 98.799993442884 9.8799987004551
79	1964750 27271 1106 544371 1.297782620432 99.997788743093 988 2 2 1976 3952
80	1992021 39982 1112 544335 1.297782640445 99.99778837768 988 0.099987320207 0.100008601647 98.799993057457 9.8799986233696
81	2032003 27248 1112 544335 1.297782640445 99.99778837768 988 3 3 2964 8892
82	2059251 40009 1118 544359 1.297782660459 99.997788701354 988 0.099987320206 0.10000860165 98.799993361118 9.8799986841019
83	2099260 27274 1118 544359 1.297782660459 99.997788701354 988 4 4 3952 15808
84	2126534 40012 1124 544353 1.297782680473 99.997788516967 988 0.099987320206 0.100008601654 98.799993156717 9.8799986432216
85	2166546 27260 1124 544353 1.297782680473 99.997788516967 988 5 5 4940 24700
86	2193806 40021 1130 544341 1.297782700487 99.997788384929 988 0.099987320206 0.100008601658 98.799993004665 9.8799986128112
87	2233827 27263 1130 544341 1.297782700487 99.997788384929 988 6 6 5928 35568
88	2261090 40021 1136 544365 1.297782720501 99.997788705418 988 0.099987320206 0.100008601663 98.79999330514 9.8799986729063
89	2301111 27281 1136 544365 1.297782720501 99.997788705418 988 7 7 6916 48412
90	2328392 39970 1173 543880 1.307201640446 99.907205023763 987 0.099987320209 0.100008649423 98.70000370354 9.8700007524371
91	2368362 27234 1173 543880 1.307201640446 99.907205023763 987 3 3 2961 8883
92	2395596 1459 4960 544373 2 100 99 0 0 0 0
93	2397055 2067 4960 544373 2 100 99 0.022161 0.02613030338 2.47129430338 0.061699212012731
94	2399122 1459 4960 544373 2 100 99 0 0 0 0
95	2400581 1459 4961 544374 2 100 99 1 1 99 99
96	2402040 2068 4961 544374 2 100 99 0.022161 0.025898 2.470902046036 0.06167909680639
97	2404108 1459 4961 544374 2 100 99 0 0 0 0
98	2405567 1459 4962 544375 2 100 99 2 2 198 396
99	2407026 2067 4962 544375 2 100 99 0.02216 0.025898 2.470901092388 0.061679054813658
100	2409093 1558 4962 544375 2 100 99 0 0 0 0
101	2410651 1558 4963 544376 2 100 99 3 3 297 891
102	2412209 2167 4963 544376 2 100 99 0.022161 0.025898 2.470902138864 0.061679101469158
103	2414376 1558 4963 544376 2 100 99 0 0 0 0
104	2415934 1558 4964 544377 2 100 99 4 4 396 1584
105	2417492 2166 4964 544377 2 100 99 0.022161 0.025898 2.47090218539 0.061679103806174
106	2419658 1558 4964 544377 2 100 99 0 0 0 0
107	2421216 1558 4965 544378 2 100 99 5 5 495 2475
108	2422774 2167 4965 544378 2 100 99 0.022161 0.025898 2.470902231946 0.061679106144701
109	2424941 1558 4965 544378 2 100 99 0 0 0 0
110	2426499 1558 4966 544379 2 100 99 6 6 594 3564
111	2428057 2167 4966 544379 2 100 99 0.022161 0.025898 2.470902278522 0.061679108484238
112	2430224 1558 4966 544379 2 100 99 0 0 0 0
113	2431782 1558 4967 544380 2 100 99 7 7 693 4851
114	2433340 2167 4967 544380 2 100 99 0.022161 0.025931325104 2.470902325104 0.061679165210649
115	2435507 1558 4967 544380 2 100 99 0 0 0 0

