file 2456855 1720455129                                         
version 3
run BreakRanksNoGui-23-20240708-18:11:58-157764
attr configname BreakRanksNoGui
attr datetime 20240708-18:11:58
attr datetimef 20240708-181158
attr experiment BreakRanksNoGui
attr inifile omnetpp.ini
attr iterationvars "$nCars=8, $platoonSize=8, $nLanes=1, $ploegH=0.5, $controller=1, $headway=0.1, $leaderHeadway=1.2, $leaderSpeed=130, $breakRanksSafetyDistance=10, $minSpeed=120, $maxSpeed=140, $beaconInterval=0.1, $priority=4, $packetSize=200, $sController=\"CACC\", $0=2, $1=0"
attr iterationvarsd nCars=8/platoonSize=8/nLanes=1/ploegH=0.5/controller=1/headway=0.1/leaderHeadway=1.2/leaderSpeed=130/breakRanksSafetyDistance=10/minSpeed=120/maxSpeed=140/beaconInterval=0.1/priority=4/packetSize=200/sController=CACC/2/0
attr iterationvarsf nCars=8,platoonSize=8,nLanes=1,ploegH=0.5,controller=1,headway=0.1,leaderHeadway=1.2,leaderSpeed=130,breakRanksSafetyDistance=10,minSpeed=120,maxSpeed=140,beaconInterval=0.1,priority=4,packetSize=200,sController=CACC,2,0-
attr measurement "$nCars=8, $platoonSize=8, $nLanes=1, $ploegH=0.5, $controller=1, $headway=0.1, $leaderHeadway=1.2, $leaderSpeed=130, $breakRanksSafetyDistance=10, $minSpeed=120, $maxSpeed=140, $beaconInterval=0.1, $priority=4, $packetSize=200, $sController=\"CACC\", $0=2, $1=0"
attr network Highway
attr processid 157764
attr repetition 3
attr replication #3
attr resultdir results
attr runnumber 23
attr seedset 3
itervar beaconInterval 0.1
itervar breakRanksSafetyDistance 10
itervar controller 1
itervar headway 0.1
itervar leaderHeadway 1.2
itervar leaderSpeed 130
itervar maxSpeed 140
itervar minSpeed 120
itervar nCars 8
itervar nLanes 1
itervar packetSize 200
itervar platoonSize 8
itervar ploegH 0.5
itervar priority 4
itervar sController "\"CACC\""
config image-path ../../../veins/images
config repeat 10
config extends BreakRanks
config *.manager.command "\"sumo\""
config *.manager.ignoreGuiCommands true
config output-vector-file results/BreakRanks_1_0.1_130_10/result_3.vec
config output-scalar-file results/BreakRanks_1_0.1_130_10/result_3.sca
config extends Platooning
config *.node[*].scenario_type "\"BreakRanksScenario\""
config *.manager.command "\"sumo-gui\""
config *.node[*].scenario_type "\"SimpleScenario\""
config cmdenv-express-mode true
config cmdenv-autoflush true
config cmdenv-status-frequency 15s
config num-rngs 6
config network Highway
config debug-on-errors true
config print-undisposed true
config *.playgroundSizeX 65000m
config *.playgroundSizeY 25000m
config *.playgroundSizeZ 50m
config sim-time-limit "100 s"
config *.annotations.draw false
config *.obstacles.debug false
config *.world.useTorus false
config *.world.use2D false
config *.manager.updateInterval 0.01s
config *.manager.host "\"localhost\""
config *.manager.moduleType "\"org.car2x.plexe.PlatoonCar\""
config *.manager.moduleName "\"node\""
config *.manager.moduleDisplayString "\"\""
config *.manager.autoShutdown true
config *.manager.margin 25
config *.connectionManager.sendDirect true
config *.connectionManager.maxInterfDist 2600m
config *.connectionManager.drawMaxIntfDist false
config *.**.nic.mac1609_4.useServiceChannel false
config *.**.nic.mac1609_4.txPower 100mW
config *.**.nic.mac1609_4.bitrate 6Mbps
config *.**.nic.mac1609_4.useAcks true
config *.**.nic.mac1609_4.ackErrorRate 0.0
config *.**.nic.mac1609_4.frameErrorRate 0.0
config *.**.nic.phy80211p.minPowerLevel -94dBm
config *.**.nic.phy80211p.maxTXPower 100mW
config *.**.nic.phy80211p.useNoiseFloor true
config *.**.nic.phy80211p.noiseFloor -95dBm
config *.**.nic.phy80211p.decider "xmldoc(\"config.xml\")"
config *.**.nic.phy80211p.analogueModels "xmldoc(\"config.xml\")"
config *.**.nic.phy80211p.usePropagationDelay true
config *.node[*].mobility.x 0
config *.node[*].mobility.y 0
config *.node[*].mobility.z 1.895
config seed-set 3
config **.seed 3
config *.node[*].prot.rng-0 2
config *.node[*].appl.rng-0 3
config *.node[*].scenario.rng-0 4
config **.traffic.rng-0 5
config *.manager.configFile "\"./sumocfg/freeway.sumo.cfg\""
config *.manager.launchConfig "xmldoc(\"./sumocfg/freeway.launchd.xml\")"
config **.numberOfCars 8
config **.numberOfCarsPerPlatoon 8
config **.numberOfLanes 1
config *.node[*].helper_type "\"PositionHelper\""
config *.node[*].scenario.caccC1 0.5
config *.node[*].scenario.caccXi 1
config *.node[*].scenario.caccOmegaN "0.2 Hz"
config *.node[*].scenario.caccSpacing "2 m"
config *.node[*].scenario.engineTau "0.5 s"
config *.node[*].scenario.ploegH 0.5s
config *.node[*].scenario.ploegKp 0.2
config *.node[*].scenario.ploegKd 0.7
config *.node[*].scenario.useRealisticEngine false
config *.node[*].scenario.useControllerAcceleration true
config *.node[*].scenario.nLanes 1
config **.numericController 1
config **.headway 0.1s
config *.node[*].scenario.accHeadway 0.1s
config *.node[*].scenario.leaderHeadway 1.2s
config *.node[*].scenario.leaderSpeed 130kmph
config *.node[*].appl_type "\"SimplePlatooningApp\""
config *.node[*].appl.*.scalar-recording true
config *.node[*].appl.*.vector-recording true
config *.node[0].appl.breakRanksSafetyDistance 10m
config *.node[*].appl.minSpeed 120kmph
config *.node[*].appl.maxSpeed 140kmph
config *.node[*].protocol_type "\"SimplePlatooningBeaconing\""
config *.node[*].prot.*.scalar-recording true
config *.node[*].prot.*.vector-recording true
config *.node[*].prot.beaconingInterval 0.1s
config *.node[*].prot.priority 4
config *.node[*].prot.packetSize 200
config **.traffic_type "\"PlatoonsTrafficManager\""
config **.traffic.platoonInsertTime "1 s"
config **.traffic.platoonInsertSpeed 130kmph
config **.traffic.nCars 8
config **.traffic.platoonSize 8
config **.traffic.nLanes 1
config **.traffic.platooningVType "\"vtypeauto\""
config **.traffic.controller "\"CACC\""
config **.traffic.platoonInsertDistance 2m
config **.traffic.platoonInsertHeadway 0s
config **.traffic.platoonLeaderHeadway 1.2s
config **.scalar-recording false
config **.vector-recording false
config output-vector-file results/BreakRanksNoGui_1_0.1_130_10/result_3.vec
config output-scalar-file results/BreakRanksNoGui_1_0.1_130_10/result_3.sca

vector 0 Highway.node[0].appl distance ETV
vector 1 Highway.node[0].appl relativeSpeed ETV
vector 2 Highway.node[0].appl nodeId ETV
vector 3 Highway.node[0].appl acceleration ETV
vector 4 Highway.node[0].appl controllerAcceleration ETV
vector 5 Highway.node[0].appl speed ETV
vector 6 Highway.node[0].appl posx ETV
vector 7 Highway.node[0].appl posy ETV
vector 8 Highway.node[1].appl distance ETV
vector 9 Highway.node[1].appl relativeSpeed ETV
vector 10 Highway.node[1].appl nodeId ETV
vector 11 Highway.node[1].appl acceleration ETV
vector 12 Highway.node[1].appl controllerAcceleration ETV
vector 13 Highway.node[1].appl speed ETV
vector 14 Highway.node[1].appl posx ETV
vector 15 Highway.node[1].appl posy ETV
vector 16 Highway.node[2].appl distance ETV
vector 17 Highway.node[2].appl relativeSpeed ETV
vector 18 Highway.node[2].appl nodeId ETV
vector 19 Highway.node[2].appl acceleration ETV
vector 20 Highway.node[2].appl controllerAcceleration ETV
vector 21 Highway.node[2].appl speed ETV
vector 22 Highway.node[2].appl posx ETV
vector 23 Highway.node[2].appl posy ETV
vector 24 Highway.node[3].appl distance ETV
vector 25 Highway.node[3].appl relativeSpeed ETV
vector 26 Highway.node[3].appl nodeId ETV
vector 27 Highway.node[3].appl acceleration ETV
vector 28 Highway.node[3].appl controllerAcceleration ETV
vector 29 Highway.node[3].appl speed ETV
vector 30 Highway.node[3].appl posx ETV
vector 31 Highway.node[3].appl posy ETV
vector 32 Highway.node[4].appl distance ETV
vector 33 Highway.node[4].appl relativeSpeed ETV
vector 34 Highway.node[4].appl nodeId ETV
vector 35 Highway.node[4].appl acceleration ETV
vector 36 Highway.node[4].appl controllerAcceleration ETV
vector 37 Highway.node[4].appl speed ETV
vector 38 Highway.node[4].appl posx ETV
vector 39 Highway.node[4].appl posy ETV
vector 40 Highway.node[5].appl distance ETV
vector 41 Highway.node[5].appl relativeSpeed ETV
vector 42 Highway.node[5].appl nodeId ETV
vector 43 Highway.node[5].appl acceleration ETV
vector 44 Highway.node[5].appl controllerAcceleration ETV
vector 45 Highway.node[5].appl speed ETV
vector 46 Highway.node[5].appl posx ETV
vector 47 Highway.node[5].appl posy ETV
vector 48 Highway.node[6].appl distance ETV
vector 49 Highway.node[6].appl relativeSpeed ETV
vector 50 Highway.node[6].appl nodeId ETV
vector 51 Highway.node[6].appl acceleration ETV
vector 52 Highway.node[6].appl controllerAcceleration ETV
vector 53 Highway.node[6].appl speed ETV
vector 54 Highway.node[6].appl posx ETV
vector 55 Highway.node[6].appl posy ETV
vector 56 Highway.node[7].appl distance ETV
vector 57 Highway.node[7].appl relativeSpeed ETV
vector 58 Highway.node[7].appl nodeId ETV
vector 59 Highway.node[7].appl acceleration ETV
vector 60 Highway.node[7].appl controllerAcceleration ETV
vector 61 Highway.node[7].appl speed ETV
vector 62 Highway.node[7].appl posx ETV
vector 63 Highway.node[7].appl posy ETV
vector 64 Highway.node[1].prot leaderDelay ETV
vector 65 Highway.node[1].prot leaderDelayId ETV
vector 66 Highway.node[1].prot frontDelay ETV
vector 67 Highway.node[1].prot frontDelayId ETV
vector 68 Highway.node[2].prot leaderDelay ETV
vector 69 Highway.node[2].prot leaderDelayId ETV
vector 70 Highway.node[3].prot leaderDelay ETV
vector 71 Highway.node[3].prot leaderDelayId ETV
vector 72 Highway.node[4].prot leaderDelay ETV
vector 73 Highway.node[4].prot leaderDelayId ETV
vector 74 Highway.node[5].prot leaderDelay ETV
vector 75 Highway.node[5].prot leaderDelayId ETV
vector 76 Highway.node[6].prot leaderDelay ETV
vector 77 Highway.node[6].prot leaderDelayId ETV
vector 78 Highway.node[7].prot leaderDelay ETV
vector 79 Highway.node[7].prot leaderDelayId ETV
vector 80 Highway.node[7].prot frontDelay ETV
vector 81 Highway.node[7].prot frontDelayId ETV
vector 82 Highway.node[2].prot frontDelay ETV
vector 83 Highway.node[2].prot frontDelayId ETV
vector 84 Highway.node[5].prot frontDelay ETV
vector 85 Highway.node[5].prot frontDelayId ETV
vector 86 Highway.node[3].prot frontDelay ETV
vector 87 Highway.node[3].prot frontDelayId ETV
vector 88 Highway.node[6].prot frontDelay ETV
vector 89 Highway.node[6].prot frontDelayId ETV
vector 90 Highway.node[4].prot frontDelay ETV
vector 91 Highway.node[4].prot frontDelayId ETV
vector 92 Highway.node[0].prot nodeId ETV
vector 93 Highway.node[0].prot busyTime ETV
vector 94 Highway.node[0].prot collisions ETV
vector 95 Highway.node[1].prot nodeId ETV
vector 96 Highway.node[1].prot busyTime ETV
vector 97 Highway.node[1].prot collisions ETV
vector 98 Highway.node[2].prot nodeId ETV
vector 99 Highway.node[2].prot busyTime ETV
vector 100 Highway.node[2].prot collisions ETV
vector 101 Highway.node[3].prot nodeId ETV
vector 102 Highway.node[3].prot busyTime ETV
vector 103 Highway.node[3].prot collisions ETV
vector 104 Highway.node[4].prot nodeId ETV
vector 105 Highway.node[4].prot busyTime ETV
vector 106 Highway.node[4].prot collisions ETV
vector 107 Highway.node[5].prot nodeId ETV
vector 108 Highway.node[5].prot busyTime ETV
vector 109 Highway.node[5].prot collisions ETV
vector 110 Highway.node[6].prot nodeId ETV
vector 111 Highway.node[6].prot busyTime ETV
vector 112 Highway.node[6].prot collisions ETV
vector 113 Highway.node[7].prot nodeId ETV
vector 114 Highway.node[7].prot busyTime ETV
vector 115 Highway.node[7].prot collisions ETV
0	11345 17616 113 545089 1.11 99.91 989 -1 32.4244 -297.2961 21385.10871811
1	28961 16631 113 545089 1.11 99.91 989 0 1.8889 41.5558 78.49475062
2	45592 16521 113 545089 1.11 99.91 989 0 0 0 0
3	62113 18809 113 545089 1.11 99.91 989 -3.14892e-05 0.000707784 0.010991577126781 6.0508064149601e-06
4	80922 26467 113 545089 1.11 99.91 989 -4.89399e-05 0.00109259 0.010614843047836 8.6815283230331e-06
5	107389 22448 113 545089 1.11 99.91 989 36.11 36.1111 35713.866699999 1289666.6073546
6	129837 22344 113 545089 1.11 99.91 989 59.5999 3627.38 1823208.8511 4412269831.4553
7	152181 21466 113 545089 1.11 99.91 989 242.45 242.45 239783.05 58135400.472499
8	173647 20986 114 545090 1.11 99.91 989 -1 9.99899 5316.49666 50834.845802626
9	194633 22519 114 545090 1.11 99.91 989 -1.82116e-05 0.636961 79.989950818527 33.700323033965
10	217152 17510 114 545090 1.11 99.91 989 1 1 989 989
11	234662 26663 114 545090 1.11 99.91 989 -0.24225 1.17156 18.919238513807 18.448404103161
12	261325 26680 114 545090 1.11 99.91 989 -0.318924 1.5 18.808968380889 25.406305392713
13	288005 22513 114 545090 1.11 99.91 989 35.4741 38.0812 36139.0552 1321353.2558659
14	310518 23047 114 545090 1.11 99.91 989 53.5999 3663.8 1817634.2737 4407462076.1501
15	333565 22455 114 545090 1.11 99.91 989 242.45 245.75 240627.85 58547831.8325
16	356020 23308 115 545091 1.11 99.91 989 2 94.8662 20817.85611 1023549.8179522
17	379328 24673 115 545091 1.11 99.91 989 0 3.21071 898.22757133577 2525.0289049785
18	404001 17510 115 545091 1.11 99.91 989 2 2 1978 3956
19	421511 26504 115 545091 1.11 99.91 989 -1.43646 0.0796819 -31.055616213887 39.472441585781
20	448015 26505 115 545091 1.11 99.91 989 -1.76184 0.0996341 -30.050201238898 47.785269147868
21	474520 22522 115 545091 1.11 99.91 989 32.9004 36.1111 34731.6493 1221370.5256894
22	497042 23344 115 545091 1.11 99.91 989 47.5999 3517.31 1787880.0462 4243122373.886
23	520386 22455 115 545091 1.11 99.91 989 242.45 242.45 239783.05 58135400.472499
24	542841 23168 116 545092 1.11 99.91 989 -1 131.158 20264.13872 1194694.4070257
25	566009 24275 116 545092 1.11 99.91 989 -0.000314245 7.15918 951.63959935554 3541.7678337496
26	590284 17510 116 545092 1.11 99.91 989 3 3 2967 8901
27	607794 26262 116 545092 1.11 99.91 989 -2.19888 1.42957 -21.062259060502 131.86285664564
28	634056 26205 116 545092 1.11 99.91 989 -2.93496 1.5 -20.334847847694 166.79229172836
29	660261 22701 116 545092 1.11 99.91 989 30.922 36.1111 34817.4717 1226918.5530901
30	682962 23332 116 545092 1.11 99.91 989 41.5999 3519.84 1777009.5566 4202679313.835
31	706294 22455 116 545092 1.11 99.91 989 242.45 245.75 240598.15 58533332.2925
32	728749 22345 117 545093 1.11 99.91 989 -1 84.214 11188.59117 497999.75061845
33	751094 23308 117 545093 1.11 99.91 989 0 2 195.82129317006 245.00288660484
34	774402 17510 117 545093 1.11 99.91 989 4 4 3956 15824
35	791912 26325 117 545093 1.11 99.91 989 -0.493338 0.103176 -1.0624655828976 7.6636568644936
36	818237 26421 117 545093 1.11 99.91 989 -0.591949 0.103622 -0.52375172268403 8.3793041271938
37	844658 22333 117 545093 1.11 99.91 989 34.3101 36.1111 35363.9175 1264786.0481985
38	866991 23368 117 545093 1.11 99.91 989 35.5999 3568.39 1774687.094 4215707691.9619
39	890359 22455 117 545093 1.11 99.91 989 242.45 252.35 241360.45 58911716.2325
40	912814 23249 118 545094 1.11 99.91 989 2 43.4009 16182.12141 516675.86559263
41	936063 25715 118 545094 1.11 99.91 989 -0.635788 2.20288 101.69000489979 82.598566896362
42	961778 17510 118 545094 1.11 99.91 989 5 5 4945 24725
43	979288 26046 118 545094 1.11 99.91 989 -2.05009 1.27647 -31.077571395963 125.96355058795
44	1005334 26035 118 545094 1.11 99.91 989 -2.15552 1.5 -31.034745561272 161.41131686791
45	1031369 22703 118 545094 1.11 99.91 989 30.7198 36.1111 34438.9314 1201067.0452895
46	1054072 23346 118 545094 1.11 99.91 989 29.5999 3470.04 1751400.8281 4093880441.0517
47	1077418 22455 118 545094 1.11 99.91 989 242.45 242.45 239783.05 58135400.472499
48	1099873 23009 119 545095 1.11 99.91 989 -1 62.2821 15455.40051 610671.06970998
49	1122882 23888 119 545095 1.11 99.91 989 -2.56949e-05 5.6632 339.20343808101 429.82920183053
50	1146770 17510 119 545095 1.11 99.91 989 6 6 5934 35604
51	1164280 25989 119 545095 1.11 99.91 989 -2.25201 1.39515 -31.020020709659 154.17709033713
52	1190269 25953 119 545095 1.11 99.91 989 -2.93306 1.5 -29.478688609227 200.55009343227
53	1216222 22679 119 545095 1.11 99.91 989 30.2325 36.1111 34334.1531 1193871.0953504
54	1238901 23344 119 545095 1.11 99.91 989 23.5999 3453.56 1739443.7549 4044510824.5244
55	1262245 22455 119 545095 1.11 99.91 989 242.45 249.05 240835.75 58650853.2125
56	1284700 22283 120 545096 1.11 99.91 989 -1 40.1244 6940.75682 140657.92788679
57	1306983 23559 120 545096 1.11 99.91 989 -0.419715 0.61512 99.58564659313 29.424219488993
58	1330542 17510 120 545096 1.11 99.91 989 7 7 6923 48461
59	1348052 25865 120 545096 1.11 99.91 989 -0.626135 1.35478 18.95574129931 53.529632985041
60	1373917 25848 120 545096 1.11 99.91 989 -0.945217 1.5 19.957447699697 81.173327278692
61	1399765 22922 120 545096 1.11 99.91 989 33.709 38.094 35465.2716 1273305.9575816
62	1422687 23359 120 545096 1.11 99.91 989 17.5999 3560.42 1743493.1587 4096847275.9183
63	1446046 22455 120 545096 1.11 99.91 989 242.45 252.35 242304.25 59381365.6325
64	1468501 40018 701 545131 1.269543540376 99.969547112081 988 0.099987520364 0.100009769572 98.800004092067 9.880000832147
65	1508519 27268 701 545131 1.269543540376 99.969547112081 988 1 1 988 988
66	1535787 40018 701 545131 1.269543540376 99.969547112081 988 0.099987520364 0.100009769572 98.800004092067 9.880000832147
67	1575805 27268 701 545131 1.269543540376 99.969547112081 988 1 1 988 988
68	1603073 40007 707 545155 1.26954356039 99.969547357968 988 0.099987520364 0.100009769572 98.80000431794 9.8800008773216
69	1643080 27258 707 545155 1.26954356039 99.969547357968 988 2 2 1976 3952
70	1670338 39984 713 545149 1.269543580404 99.96954734949 988 0.099987520364 0.100009769573 98.800004289448 9.8800008716232
71	1710322 27246 713 545149 1.269543580404 99.96954734949 988 3 3 2964 8892
72	1737568 40033 719 545137 1.269543600417 99.969547186994 988 0.099987520364 0.100009769575 98.800004106939 9.8800008351214
73	1777601 27273 719 545137 1.269543600417 99.969547186994 988 4 4 3952 15808
74	1804874 40006 725 545161 1.269543620431 99.969547515651 988 0.099987520364 0.100009769577 98.800004415582 9.88000089685
75	1844880 27255 725 545161 1.269543620431 99.969547515651 988 5 5 4940 24700
76	1872135 40032 731 545167 1.269543640445 99.969547570719 988 0.099987520364 0.10000976958 98.800004450636 9.8800009038608
77	1912167 27283 731 545167 1.269543640445 99.969547570719 988 6 6 5928 35568
78	1939450 39987 737 545143 1.269543660459 99.969547214245 988 0.099987520364 0.100009769586 98.800004074148 9.8800008285632
79	1979437 27245 737 545143 1.269543660459 99.969547214245 988 7 7 6916 48412
80	2006682 40024 842 545284 1.292086700487 99.992090930158 988 0.099987520363 0.100009769597 98.800004750033 9.8800009637419
81	2046706 27262 842 545284 1.292086700487 99.992090930158 988 7 7 6916 48412
82	2073968 40028 908 545356 1.299178800556 99.99917076505 988 0.099987520362 0.100009576353 98.799992484856 9.8799985107458
83	2113996 27279 908 545356 1.299178800556 99.99917076505 988 2 2 1976 3952
84	2141275 39962 974 545428 1.299575860598 99.999580922733 988 0.099987520365 0.100009673889 98.800005582497 9.8800011305636
85	2181237 27244 974 545428 1.299575860598 99.999580922733 988 5 5 4940 24700
86	2208481 39953 1041 544919 1.300193900626 99.900196321019 987 0.099987520363 0.100009367663 98.700002940755 9.8700006020048
87	2248434 27240 1041 544919 1.300193900626 99.900196321019 987 3 3 2961 8883
88	2275674 39962 1110 544988 1.305595960668 99.905598520903 987 0.099987520363 0.100009337452 98.700003080597 9.8700006297615
89	2315636 27234 1110 544988 1.305595960668 99.905598520903 987 6 6 5922 35532
90	2342870 39970 1173 545063 1.306045000696 99.905982793641 987 0.099897538401 0.100092705928 98.699938313307 9.8699894025821
91	2382840 27247 1173 545063 1.306045000696 99.905982793641 987 4 4 3948 15792
92	2410087 1459 4848 545456 2 100 99 0 0 0 0
93	2411546 2724 4848 545456 2 100 99 0.021651436826 0.026130604076 2.470784478929 0.061676879085159
94	2414270 1459 4848 545456 2 100 99 0 0 0 0
95	2415729 1459 4849 545457 2 100 99 1 1 99 99
96	2417188 2729 4849 545457 2 100 99 0.02165145684 0.025896990055 2.470390837543 0.061656691962648
97	2419917 1459 4849 545457 2 100 99 0 0 0 0
98	2421376 1459 4850 545458 2 100 99 2 2 198 396
99	2422835 2730 4850 545458 2 100 99 0.021651476854 0.025896992939 2.470391420814 0.061656720971701
100	2425565 1558 4850 545458 2 100 99 0 0 0 0
101	2427123 1558 4851 545459 2 100 99 3 3 297 891
102	2428681 2827 4851 545459 2 100 99 0.02165045684 0.025896992322 2.470390499992 0.061656681768362
103	2431508 1558 4851 545459 2 100 99 0 0 0 0
104	2433066 1558 4852 545460 2 100 99 4 4 396 1584
105	2434624 2832 4852 545460 2 100 99 0.021651436826 0.025896991152 2.470391436054 0.061656721156434
106	2437456 1558 4852 545460 2 100 99 0 0 0 0
107	2439014 1558 4853 545461 2 100 99 5 5 495 2475
108	2440572 2833 4853 545461 2 100 99 0.021650416812 0.025896992836 2.470390542931 0.06165668334432
109	2443405 1558 4853 545461 2 100 99 0 0 0 0
110	2444963 1558 4854 545462 2 100 99 6 6 594 3564
111	2446521 2832 4854 545462 2 100 99 0.021651396799 0.025896992276 2.470391580981 0.061656729568486
112	2449353 1558 4854 545462 2 100 99 0 0 0 0
113	2450911 1558 4855 545463 2 100 99 7 7 693 4851
114	2452469 2827 4855 545463 2 100 99 0.021651376785 0.025930644676 2.470391740277 0.061656792178405
115	2455296 1558 4855 545463 2 100 99 0 0 0 0

