version 3
run BreakRanksNoGui-28-20240708-18:13:10-157842
attr configname BreakRanksNoGui
attr datetime 20240708-18:13:10
attr datetimef 20240708-181310
attr experiment BreakRanksNoGui
attr inifile omnetpp.ini
attr iterationvars "$nCars=8, $platoonSize=8, $nLanes=1, $ploegH=0.5, $controller=1, $headway=0.1, $leaderHeadway=1.2, $leaderSpeed=130, $breakRanksSafetyDistance=10, $minSpeed=120, $maxSpeed=140, $beaconInterval=0.1, $priority=4, $packetSize=200, $sController=\"CACC\", $0=2, $1=0"
attr iterationvarsd nCars=8/platoonSize=8/nLanes=1/ploegH=0.5/controller=1/headway=0.1/leaderHeadway=1.2/leaderSpeed=130/breakRanksSafetyDistance=10/minSpeed=120/maxSpeed=140/beaconInterval=0.1/priority=4/packetSize=200/sController=CACC/2/0
attr iterationvarsf nCars=8,platoonSize=8,nLanes=1,ploegH=0.5,controller=1,headway=0.1,leaderHeadway=1.2,leaderSpeed=130,breakRanksSafetyDistance=10,minSpeed=120,maxSpeed=140,beaconInterval=0.1,priority=4,packetSize=200,sController=CACC,2,0-
attr measurement "$nCars=8, $platoonSize=8, $nLanes=1, $ploegH=0.5, $controller=1, $headway=0.1, $leaderHeadway=1.2, $leaderSpeed=130, $breakRanksSafetyDistance=10, $minSpeed=120, $maxSpeed=140, $beaconInterval=0.1, $priority=4, $packetSize=200, $sController=\"CACC\", $0=2, $1=0"
attr network Highway
attr processid 157842
attr repetition 8
attr replication #8
attr resultdir results
attr runnumber 28
attr seedset 8
itervar beaconInterval 0.1
itervar breakRanksSafetyDistance 10
itervar controller 1
itervar headway 0.1
itervar leaderHeadway 1.2
itervar leaderSpeed 130
itervar maxSpeed 140
itervar minSpeed 120
itervar nCars 8
itervar nLanes 1
itervar packetSize 200
itervar platoonSize 8
itervar ploegH 0.5
itervar priority 4
itervar sController "\"CACC\""
config image-path ../../../veins/images
config repeat 10
config extends BreakRanks
config *.manager.command "\"sumo\""
config *.manager.ignoreGuiCommands true
config output-vector-file results/BreakRanks_1_0.1_130_10/result_8.vec
config output-scalar-file results/BreakRanks_1_0.1_130_10/result_8.sca
config extends Platooning
config *.node[*].scenario_type "\"BreakRanksScenario\""
config *.manager.command "\"sumo-gui\""
config *.node[*].scenario_type "\"SimpleScenario\""
config cmdenv-express-mode true
config cmdenv-autoflush true
config cmdenv-status-frequency 15s
config num-rngs 6
config network Highway
config debug-on-errors true
config print-undisposed true
config *.playgroundSizeX 65000m
config *.playgroundSizeY 25000m
config *.playgroundSizeZ 50m
config sim-time-limit "100 s"
config *.annotations.draw false
config *.obstacles.debug false
config *.world.useTorus false
config *.world.use2D false
config *.manager.updateInterval 0.01s
config *.manager.host "\"localhost\""
config *.manager.moduleType "\"org.car2x.plexe.PlatoonCar\""
config *.manager.moduleName "\"node\""
config *.manager.moduleDisplayString "\"\""
config *.manager.autoShutdown true
config *.manager.margin 25
config *.connectionManager.sendDirect true
config *.connectionManager.maxInterfDist 2600m
config *.connectionManager.drawMaxIntfDist false
config *.**.nic.mac1609_4.useServiceChannel false
config *.**.nic.mac1609_4.txPower 100mW
config *.**.nic.mac1609_4.bitrate 6Mbps
config *.**.nic.mac1609_4.useAcks true
config *.**.nic.mac1609_4.ackErrorRate 0.0
config *.**.nic.mac1609_4.frameErrorRate 0.0
config *.**.nic.phy80211p.minPowerLevel -94dBm
config *.**.nic.phy80211p.maxTXPower 100mW
config *.**.nic.phy80211p.useNoiseFloor true
config *.**.nic.phy80211p.noiseFloor -95dBm
config *.**.nic.phy80211p.decider "xmldoc(\"config.xml\")"
config *.**.nic.phy80211p.analogueModels "xmldoc(\"config.xml\")"
config *.**.nic.phy80211p.usePropagationDelay true
config *.node[*].mobility.x 0
config *.node[*].mobility.y 0
config *.node[*].mobility.z 1.895
config seed-set 8
config **.seed 8
config *.node[*].prot.rng-0 2
config *.node[*].appl.rng-0 3
config *.node[*].scenario.rng-0 4
config **.traffic.rng-0 5
config *.manager.configFile "\"./sumocfg/freeway.sumo.cfg\""
config *.manager.launchConfig "xmldoc(\"./sumocfg/freeway.launchd.xml\")"
config **.numberOfCars 8
config **.numberOfCarsPerPlatoon 8
config **.numberOfLanes 1
config *.node[*].helper_type "\"PositionHelper\""
config *.node[*].scenario.caccC1 0.5
config *.node[*].scenario.caccXi 1
config *.node[*].scenario.caccOmegaN "0.2 Hz"
config *.node[*].scenario.caccSpacing "2 m"
config *.node[*].scenario.engineTau "0.5 s"
config *.node[*].scenario.ploegH 0.5s
config *.node[*].scenario.ploegKp 0.2
config *.node[*].scenario.ploegKd 0.7
config *.node[*].scenario.useRealisticEngine false
config *.node[*].scenario.useControllerAcceleration true
config *.node[*].scenario.nLanes 1
config **.numericController 1
config **.headway 0.1s
config *.node[*].scenario.accHeadway 0.1s
config *.node[*].scenario.leaderHeadway 1.2s
config *.node[*].scenario.leaderSpeed 130kmph
config *.node[*].appl_type "\"SimplePlatooningApp\""
config *.node[*].appl.*.scalar-recording true
config *.node[*].appl.*.vector-recording true
config *.node[0].appl.breakRanksSafetyDistance 10m
config *.node[*].appl.minSpeed 120kmph
config *.node[*].appl.maxSpeed 140kmph
config *.node[*].protocol_type "\"SimplePlatooningBeaconing\""
config *.node[*].prot.*.scalar-recording true
config *.node[*].prot.*.vector-recording true
config *.node[*].prot.beaconingInterval 0.1s
config *.node[*].prot.priority 4
config *.node[*].prot.packetSize 200
config **.traffic_type "\"PlatoonsTrafficManager\""
config **.traffic.platoonInsertTime "1 s"
config **.traffic.platoonInsertSpeed 130kmph
config **.traffic.nCars 8
config **.traffic.platoonSize 8
config **.traffic.nLanes 1
config **.traffic.platooningVType "\"vtypeauto\""
config **.traffic.controller "\"CACC\""
config **.traffic.platoonInsertDistance 2m
config **.traffic.platoonInsertHeadway 0s
config **.traffic.platoonLeaderHeadway 1.2s
config **.scalar-recording false
config **.vector-recording false
config output-vector-file results/BreakRanksNoGui_1_0.1_130_10/result_8.vec
config output-scalar-file results/BreakRanksNoGui_1_0.1_130_10/result_8.sca

vector 0 Highway.node[0].appl distance ETV
vector 1 Highway.node[0].appl relativeSpeed ETV
vector 2 Highway.node[0].appl nodeId ETV
vector 3 Highway.node[0].appl acceleration ETV
vector 4 Highway.node[0].appl controllerAcceleration ETV
vector 5 Highway.node[0].appl speed ETV
vector 6 Highway.node[0].appl posx ETV
vector 7 Highway.node[0].appl posy ETV
vector 8 Highway.node[1].appl distance ETV
vector 9 Highway.node[1].appl relativeSpeed ETV
vector 10 Highway.node[1].appl nodeId ETV
vector 11 Highway.node[1].appl acceleration ETV
vector 12 Highway.node[1].appl controllerAcceleration ETV
vector 13 Highway.node[1].appl speed ETV
vector 14 Highway.node[1].appl posx ETV
vector 15 Highway.node[1].appl posy ETV
vector 16 Highway.node[2].appl distance ETV
vector 17 Highway.node[2].appl relativeSpeed ETV
vector 18 Highway.node[2].appl nodeId ETV
vector 19 Highway.node[2].appl acceleration ETV
vector 20 Highway.node[2].appl controllerAcceleration ETV
vector 21 Highway.node[2].appl speed ETV
vector 22 Highway.node[2].appl posx ETV
vector 23 Highway.node[2].appl posy ETV
vector 24 Highway.node[3].appl distance ETV
vector 25 Highway.node[3].appl relativeSpeed ETV
vector 26 Highway.node[3].appl nodeId ETV
vector 27 Highway.node[3].appl acceleration ETV
vector 28 Highway.node[3].appl controllerAcceleration ETV
vector 29 Highway.node[3].appl speed ETV
vector 30 Highway.node[3].appl posx ETV
vector 31 Highway.node[3].appl posy ETV
vector 32 Highway.node[4].appl distance ETV
vector 33 Highway.node[4].appl relativeSpeed ETV
vector 34 Highway.node[4].appl nodeId ETV
vector 35 Highway.node[4].appl acceleration ETV
vector 36 Highway.node[4].appl controllerAcceleration ETV
vector 37 Highway.node[4].appl speed ETV
vector 38 Highway.node[4].appl posx ETV
vector 39 Highway.node[4].appl posy ETV
vector 40 Highway.node[5].appl distance ETV
vector 41 Highway.node[5].appl relativeSpeed ETV
vector 42 Highway.node[5].appl nodeId ETV
vector 43 Highway.node[5].appl acceleration ETV
vector 44 Highway.node[5].appl controllerAcceleration ETV
vector 45 Highway.node[5].appl speed ETV
vector 46 Highway.node[5].appl posx ETV
vector 47 Highway.node[5].appl posy ETV
vector 48 Highway.node[6].appl distance ETV
vector 49 Highway.node[6].appl relativeSpeed ETV
vector 50 Highway.node[6].appl nodeId ETV
vector 51 Highway.node[6].appl acceleration ETV
vector 52 Highway.node[6].appl controllerAcceleration ETV
vector 53 Highway.node[6].appl speed ETV
vector 54 Highway.node[6].appl posx ETV
vector 55 Highway.node[6].appl posy ETV
vector 56 Highway.node[7].appl distance ETV
vector 57 Highway.node[7].appl relativeSpeed ETV
vector 58 Highway.node[7].appl nodeId ETV
vector 59 Highway.node[7].appl acceleration ETV
vector 60 Highway.node[7].appl controllerAcceleration ETV
vector 61 Highway.node[7].appl speed ETV
vector 62 Highway.node[7].appl posx ETV
vector 63 Highway.node[7].appl posy ETV
vector 64 Highway.node[4].prot frontDelay ETV
vector 65 Highway.node[4].prot frontDelayId ETV
vector 66 Highway.node[2].prot frontDelay ETV
vector 67 Highway.node[2].prot frontDelayId ETV
vector 68 Highway.node[3].prot frontDelay ETV
vector 69 Highway.node[3].prot frontDelayId ETV
vector 70 Highway.node[5].prot frontDelay ETV
vector 71 Highway.node[5].prot frontDelayId ETV
vector 72 Highway.node[7].prot frontDelay ETV
vector 73 Highway.node[7].prot frontDelayId ETV
vector 74 Highway.node[1].prot leaderDelay ETV
vector 75 Highway.node[1].prot leaderDelayId ETV
vector 76 Highway.node[1].prot frontDelay ETV
vector 77 Highway.node[1].prot frontDelayId ETV
vector 78 Highway.node[2].prot leaderDelay ETV
vector 79 Highway.node[2].prot leaderDelayId ETV
vector 80 Highway.node[3].prot leaderDelay ETV
vector 81 Highway.node[3].prot leaderDelayId ETV
vector 82 Highway.node[4].prot leaderDelay ETV
vector 83 Highway.node[4].prot leaderDelayId ETV
vector 84 Highway.node[5].prot leaderDelay ETV
vector 85 Highway.node[5].prot leaderDelayId ETV
vector 86 Highway.node[6].prot leaderDelay ETV
vector 87 Highway.node[6].prot leaderDelayId ETV
vector 88 Highway.node[7].prot leaderDelay ETV
vector 89 Highway.node[7].prot leaderDelayId ETV
vector 90 Highway.node[6].prot frontDelay ETV
vector 91 Highway.node[6].prot frontDelayId ETV
vector 92 Highway.node[0].prot nodeId ETV
vector 93 Highway.node[0].prot busyTime ETV
vector 94 Highway.node[0].prot collisions ETV
vector 95 Highway.node[1].prot nodeId ETV
vector 96 Highway.node[1].prot busyTime ETV
vector 97 Highway.node[1].prot collisions ETV
vector 98 Highway.node[2].prot nodeId ETV
vector 99 Highway.node[2].prot busyTime ETV
vector 100 Highway.node[2].prot collisions ETV
vector 101 Highway.node[3].prot nodeId ETV
vector 102 Highway.node[3].prot busyTime ETV
vector 103 Highway.node[3].prot collisions ETV
vector 104 Highway.node[4].prot nodeId ETV
vector 105 Highway.node[4].prot busyTime ETV
vector 106 Highway.node[4].prot collisions ETV
vector 107 Highway.node[5].prot nodeId ETV
vector 108 Highway.node[5].prot busyTime ETV
vector 109 Highway.node[5].prot collisions ETV
vector 110 Highway.node[6].prot nodeId ETV
vector 111 Highway.node[6].prot busyTime ETV
vector 112 Highway.node[6].prot collisions ETV
vector 113 Highway.node[7].prot nodeId ETV
vector 114 Highway.node[7].prot busyTime ETV
vector 115 Highway.node[7].prot collisions ETV
0	113	1.11	-1
0	659	1.21	-1
0	1205	1.31	-1
0	1751	1.41	-1
0	2297	1.51	-1
0	2843	1.61	-1
0	3389	1.71	-1
0	3935	1.81	-1
0	4481	1.91	-1
0	5035	2.01	-1
0	5581	2.11	-1
0	6127	2.21	-1
0	6673	2.31	-1
0	7219	2.41	-1
0	7765	2.51	-1
0	8311	2.61	-1
0	8857	2.71	-1
0	9403	2.81	-1
0	9949	2.91	-1
0	10503	3.01	-1
0	11049	3.11	-1
0	11595	3.21	-1
0	12141	3.31	-1
0	12687	3.41	-1
0	13233	3.51	-1
0	13779	3.61	-1
0	14325	3.71	-1
0	14871	3.81	-1
0	15417	3.91	-1
0	15971	4.01	-1
0	16517	4.11	-1
0	17063	4.21	-1
0	17609	4.31	-1
0	18155	4.41	-1
0	18701	4.51	-1
0	19247	4.61	-1
0	19793	4.71	-1
0	20339	4.81	-1
0	20885	4.91	-1
0	21439	5.01	-1
0	21985	5.11	-1
0	22531	5.21	-1
0	23077	5.31	-1
0	23623	5.41	-1
0	24169	5.51	-1
0	24715	5.61	-1
0	25261	5.71	-1
0	25807	5.81	-1
0	26353	5.91	-1
0	26907	6.01	-1
0	27453	6.11	-1
0	27999	6.21	-1
0	28545	6.31	-1
0	29091	6.41	-1
0	29637	6.51	-1
0	30183	6.61	-1
0	30729	6.71	-1
0	31275	6.81	-1
0	31821	6.91	-1
0	32375	7.01	-1
0	32921	7.11	-1
0	33467	7.21	-1
0	34013	7.31	-1
0	34559	7.41	-1
0	35105	7.51	-1
0	35651	7.61	-1
0	36197	7.71	-1
0	36743	7.81	-1
0	37289	7.91	-1
0	37843	8.01	-1
0	38389	8.11	-1
0	38935	8.21	-1
0	39481	8.31	-1
0	40027	8.41	-1
0	40573	8.51	-1
0	41119	8.61	-1
0	41665	8.71	-1
0	42211	8.81	-1
0	42757	8.91	-1
0	43311	9.01	-1
0	43857	9.11	-1
0	44403	9.21	-1
0	44949	9.31	-1
0	45495	9.41	-1
0	46041	9.51	-1
0	46587	9.61	-1
0	47133	9.71	-1
0	47679	9.81	-1
0	48225	9.91	-1
0	48853	10.01	-1
0	49406	10.11	-1
0	49959	10.21	-1
0	50512	10.31	-1
0	51065	10.41	-1
0	51618	10.51	-1
0	52171	10.61	-1
0	52724	10.71	-1
0	53277	10.81	-1
0	53830	10.91	-1
0	54391	11.01	-1
0	54944	11.11	-1
0	55497	11.21	-1
0	56050	11.31	-1
0	56603	11.41	-1
0	57156	11.51	-1
0	57709	11.61	-1
0	58262	11.71	-1
0	58815	11.81	-1
0	59368	11.91	-1
0	59929	12.01	-1
0	60482	12.11	-1
0	61035	12.21	-1
0	61588	12.31	-1
0	62141	12.41	-1
0	62694	12.51	-1
0	63247	12.61	-1
0	63800	12.71	-1
0	64353	12.81	-1
0	64906	12.91	-1
0	65467	13.01	-1
0	66020	13.11	-1
0	66573	13.21	-1
0	67126	13.31	-1
0	67679	13.41	-1
0	68232	13.51	-1
0	68785	13.61	-1
0	69338	13.71	-1
0	69891	13.81	-1
0	70444	13.91	-1
0	71005	14.01	-1
0	71558	14.11	-1
0	72111	14.21	-1
0	72664	14.31	-1
0	73217	14.41	-1
0	73770	14.51	-1
0	74323	14.61	-1
0	74876	14.71	-1
0	75429	14.81	-1
0	75982	14.91	-1
0	76543	15.01	-1
0	77096	15.11	-1
0	77649	15.21	-1
0	78202	15.31	-1
0	78755	15.41	-1
0	79308	15.51	-1
0	79861	15.61	-1
0	80414	15.71	-1
0	80967	15.81	-1
0	81520	15.91	-1
0	82081	16.01	-1
0	82634	16.11	-1
0	83187	16.21	-1
0	83740	16.31	-1
0	84293	16.41	-1
0	84846	16.51	-1
0	85399	16.61	-1
0	85952	16.71	-1
0	86505	16.81	-1
0	87058	16.91	-1
0	87619	17.01	-1
0	88172	17.11	-1
0	88725	17.21	-1
0	89278	17.31	-1
0	89831	17.41	-1
0	90384	17.51	-1
0	90937	17.61	-1
0	91490	17.71	-1
0	92043	17.81	-1
0	92596	17.91	-1
0	93157	18.01	-1
0	93710	18.11	-1
0	94263	18.21	-1
0	94816	18.31	-1
0	95369	18.41	-1
0	95922	18.51	-1
0	96475	18.61	-1
0	97028	18.71	-1
0	97581	18.81	-1
0	98134	18.91	-1
0	98695	19.01	-1
0	99248	19.11	-1
0	99801	19.21	-1
0	100354	19.31	-1
0	100907	19.41	-1
0	101460	19.51	-1
0	102013	19.61	-1
0	102566	19.71	-1
0	103119	19.81	-1
0	103672	19.91	-1
0	104233	20.01	-1
0	104786	20.11	-1
0	105339	20.21	-1
0	105892	20.31	-1
0	106445	20.41	-1
0	106998	20.51	-1
0	107551	20.61	-1
0	108104	20.71	-1
0	108657	20.81	-1
0	109210	20.91	-1
0	109771	21.01	-1
0	110324	21.11	-1
0	110877	21.21	-1
0	111430	21.31	-1
0	111983	21.41	-1
0	112536	21.51	-1
0	113089	21.61	-1
0	113642	21.71	-1
0	114195	21.81	-1
0	114748	21.91	-1
0	115309	22.01	-1
0	115862	22.11	-1
0	116415	22.21	-1
0	116968	22.31	-1
0	117521	22.41	-1
0	118074	22.51	-1
0	118627	22.61	-1
0	119180	22.71	-1
0	119733	22.81	-1
0	120286	22.91	-1
0	120847	23.01	-1
0	121400	23.11	-1
0	121953	23.21	-1
0	122506	23.31	-1
0	123059	23.41	-1
0	123612	23.51	-1
0	124165	23.61	-1
0	124718	23.71	-1
0	125271	23.81	-1
0	125824	23.91	-1
0	126385	24.01	-1
0	126938	24.11	-1
0	127491	24.21	-1
0	128044	24.31	-1
0	128597	24.41	-1
0	129150	24.51	-1
0	129703	24.61	-1
0	130256	24.71	-1
0	130809	24.81	-1
0	131362	24.91	-1
0	131923	25.01	-1
0	132476	25.11	-1
0	133029	25.21	-1
0	133582	25.31	-1
0	134135	25.41	-1
0	134688	25.51	-1
0	135241	25.61	-1
0	135794	25.71	-1
0	136347	25.81	-1
0	136900	25.91	-1
0	137461	26.01	-1
0	138014	26.11	-1
0	138567	26.21	-1
0	139120	26.31	-1
0	139673	26.41	-1
0	140226	26.51	-1
0	140779	26.61	-1
0	141332	26.71	-1
0	141885	26.81	-1
0	142438	26.91	-1
0	142999	27.01	-1
0	143552	27.11	-1
0	144105	27.21	-1
0	144658	27.31	-1
0	145211	27.41	-1
0	145764	27.51	-1
0	146317	27.61	-1
0	146870	27.71	-1
0	147423	27.81	-1
0	147976	27.91	-1
0	148537	28.01	-1
0	149090	28.11	-1
0	149643	28.21	-1
0	150196	28.31	-1
0	150749	28.41	-1
0	151302	28.51	-1
0	151855	28.61	-1
0	152408	28.71	-1
0	152961	28.81	-1
0	153514	28.91	-1
0	154075	29.01	-1
0	154628	29.11	-1
0	155181	29.21	-1
0	155734	29.31	-1
0	156287	29.41	-1
0	156840	29.51	-1
0	157393	29.61	-1
0	157946	29.71	-1
0	158499	29.81	-1
0	159052	29.91	-1
0	159613	30.01	-1
0	160166	30.11	-1
0	160719	30.21	-1
0	161272	30.31	-1
0	161825	30.41	-1
0	162378	30.51	-1
0	162931	30.61	-1
0	163484	30.71	-1
0	164037	30.81	-1
0	164590	30.91	-1
0	165151	31.01	-1
0	165704	31.11	-1
0	166257	31.21	-1
0	166810	31.31	-1
0	167363	31.41	-1
0	167916	31.51	-1
0	168469	31.61	-1
0	169022	31.71	-1
0	169575	31.81	-1
0	170128	31.91	-1
0	170689	32.01	-1
0	171242	32.11	-1
0	171795	32.21	-1
0	172348	32.31	-1
0	172901	32.41	-1
0	173454	32.51	-1
0	174007	32.61	-1
0	174560	32.71	-1
0	175113	32.81	-1
0	175666	32.91	-1
0	176227	33.01	-1
0	176780	33.11	-1
0	177333	33.21	-1
0	177886	33.31	-1
0	178439	33.41	-1
0	178992	33.51	-1
0	179545	33.61	-1
0	180098	33.71	-1
0	180651	33.81	-1
0	181204	33.91	-1
0	181765	34.01	-1
0	182318	34.11	-1
0	182871	34.21	-1
0	183424	34.31	-1
0	183977	34.41	-1
0	184530	34.51	-1
0	185083	34.61	-1
0	185636	34.71	-1
0	186189	34.81	-1
0	186742	34.91	-1
0	187303	35.01	-1
0	187856	35.11	-1
0	188409	35.21	-1
0	188962	35.31	-1
0	189515	35.41	-1
0	190068	35.51	-1
0	190621	35.61	-1
0	191174	35.71	-1
0	191727	35.81	-1
0	192280	35.91	-1
0	192841	36.01	-1
0	193394	36.11	-1
0	193947	36.21	-1
0	194500	36.31	-1
0	195053	36.41	-1
0	195606	36.51	-1
0	196159	36.61	-1
0	196712	36.71	-1
0	197265	36.81	-1
0	197818	36.91	-1
0	198379	37.01	-1
0	198932	37.11	-1
0	199485	37.21	-1
0	200038	37.31	-1
0	200591	37.41	-1
0	201144	37.51	-1
0	201697	37.61	-1
0	202250	37.71	-1
0	202803	37.81	-1
0	203356	37.91	-1
0	203917	38.01	-1
0	204470	38.11	-1
0	205023	38.21	-1
0	205576	38.31	-1
0	206129	38.41	-1
0	206682	38.51	-1
0	207235	38.61	-1
0	207788	38.71	-1
0	208341	38.81	-1
0	208894	38.91	-1
0	209455	39.01	-1
0	210008	39.11	-1
0	210561	39.21	-1
0	211114	39.31	-1
0	211667	39.41	-1
0	212220	39.51	-1
0	212773	39.61	-1
0	213326	39.71	-1
0	213879	39.81	-1
0	214432	39.91	-1
0	214993	40.01	-1
0	215546	40.11	-1
0	216099	40.21	-1
0	216652	40.31	-1
0	217205	40.41	-1
0	217758	40.51	-1
0	218311	40.61	-1
0	218864	40.71	-1
0	219417	40.81	-1
0	219970	40.91	-1
0	220531	41.01	-1
0	221084	41.11	-1
0	221637	41.21	-1
0	222190	41.31	-1
0	222743	41.41	-1
0	223296	41.51	-1
0	223849	41.61	-1
0	224402	41.71	-1
0	224955	41.81	-1
0	225508	41.91	-1
0	226069	42.01	-1
0	226622	42.11	-1
0	227175	42.21	-1
0	227728	42.31	-1
0	228281	42.41	-1
0	228834	42.51	-1
0	229387	42.61	-1
0	230033	42.71	-1
0	230585	42.81	-1
0	231137	42.91	-1
0	231697	43.01	-1
0	232249	43.11	-1
0	232801	43.21	-1
0	233353	43.31	-1
0	233905	43.41	-1
0	234457	43.51	-1
0	235009	43.61	-1
0	235561	43.71	-1
0	236113	43.81	-1
0	236665	43.91	-1
0	237225	44.01	-1
0	237777	44.11	-1
0	238329	44.21	-1
0	238881	44.31	-1
0	239433	44.41	-1
0	239985	44.51	-1
0	240537	44.61	-1
0	241089	44.71	-1
0	241641	44.81	-1
0	242193	44.91	-1
0	242753	45.01	-1
0	243305	45.11	-1
0	243857	45.21	-1
0	244409	45.31	-1
0	244961	45.41	-1
0	245513	45.51	-1
0	246065	45.61	-1
0	246617	45.71	-1
0	247169	45.81	-1
0	247721	45.91	-1
0	248281	46.01	-1
0	248833	46.11	-1
0	249385	46.21	-1
0	249937	46.31	-1
0	250489	46.41	-1
0	251041	46.51	-1
0	251593	46.61	-1
0	252145	46.71	-1
0	252697	46.81	-1
0	253249	46.91	-1
0	253809	47.01	-1
0	254361	47.11	-1
0	254913	47.21	-1
0	255465	47.31	-1
0	256017	47.41	-1
0	256569	47.51	-1
0	257121	47.61	-1
0	257673	47.71	-1
0	258225	47.81	-1
0	258777	47.91	-1
0	259337	48.01	-1
0	259889	48.11	-1
0	260441	48.21	-1
0	260993	48.31	-1
0	261545	48.41	-1
0	262190	48.51	-1
0	262741	48.61	-1
0	263292	48.71	-1
0	263843	48.81	-1
0	264394	48.91	-1
0	264953	49.01	-1
0	265504	49.11	-1
0	266055	49.21	-1
0	266606	49.31	-1
0	267157	49.41	-1
0	267708	49.51	-1
0	268259	49.61	-1
0	268810	49.71	-1
0	269361	49.81	-1
0	269912	49.91	-1
0	270471	50.01	-1
0	271022	50.11	-1
0	271573	50.21	-1
0	272124	50.31	-1
0	272675	50.41	-1
0	273226	50.51	-1
0	273777	50.61	-1
0	274328	50.71	-1
0	274879	50.81	-1
0	275430	50.91	-1
0	275989	51.01	-1
0	276540	51.11	-1
0	277091	51.21	-1
0	277642	51.31	-1
0	278193	51.41	-1
0	278744	51.51	-1
0	279295	51.61	-1
0	279846	51.71	-1
0	280397	51.81	-1
0	280948	51.91	-1
0	281507	52.01	-1
0	282058	52.11	-1
0	282609	52.21	-1
0	283160	52.31	-1
0	283711	52.41	-1
0	284262	52.51	-1
0	284813	52.61	-1
0	285364	52.71	-1
0	285915	52.81	-1
0	286466	52.91	-1
0	287025	53.01	-1
0	287576	53.11	-1
0	288127	53.21	-1
0	288678	53.31	-1
0	289229	53.41	-1
0	289780	53.51	-1
0	290331	53.61	-1
0	290975	53.71	-1
0	291525	53.81	-1
0	292075	53.91	-1
0	292633	54.01	-1
0	293183	54.11	-1
0	293733	54.21	-1
0	294283	54.31	-1
0	294833	54.41	-1
0	295383	54.51	-1
0	295933	54.61	-1
0	296483	54.71	-1
0	297033	54.81	-1
0	297583	54.91	-1
0	298141	55.01	-1
0	298691	55.11	-1
0	299241	55.21	-1
0	299791	55.31	-1
0	300341	55.41	-1
0	300891	55.51	-1
0	301441	55.61	-1
0	301991	55.71	-1
0	302541	55.81	-1
0	303091	55.91	-1
0	303649	56.01	-1
0	304199	56.11	-1
0	304749	56.21	-1
0	305299	56.31	-1
0	305849	56.41	-1
0	306399	56.51	-1
0	306949	56.61	-1
0	307499	56.71	-1
0	308049	56.81	-1
0	308599	56.91	-1
0	309157	57.01	-1
0	309707	57.11	-1
0	310257	57.21	-1
0	310807	57.31	-1
0	311357	57.41	-1
0	311907	57.51	-1
0	312457	57.61	-1
0	313007	57.71	-1
0	313557	57.81	-1
0	314107	57.91	-1
0	314665	58.01	-1
0	315215	58.11	-1
0	315765	58.21	-1
0	316315	58.31	-1
0	316865	58.41	-1
0	317415	58.51	-1
0	318058	58.61	-1
0	318607	58.71	-1
0	319156	58.81	-1
0	319705	58.91	-1
0	320262	59.01	-1
0	320811	59.11	-1
0	321360	59.21	-1
0	321909	59.31	-1
0	322458	59.41	-1
0	323007	59.51	-1
0	323556	59.61	-1
0	324105	59.71	-1
0	324654	59.81	-1
0	325203	59.91	-1
0	325760	60.01	-1
0	326309	60.11	-1
0	326858	60.21	-1
0	327407	60.31	-1
0	327956	60.41	-1
0	328505	60.51	-1
0	329054	60.61	-1
0	329603	60.71	-1
0	330152	60.81	-1
0	330701	60.91	-1
0	331258	61.01	-1
0	331807	61.11	-1
0	332356	61.21	-1
0	332905	61.31	-1
0	333454	61.41	-1
0	334003	61.51	-1
0	334552	61.61	-1
0	335101	61.71	-1
0	335650	61.81	-1
0	336199	61.91	-1
0	336756	62.01	-1
0	337305	62.11	-1
0	337854	62.21	-1
0	338403	62.31	-1
0	338952	62.41	-1
0	339501	62.51	-1
0	340050	62.61	-1
0	340599	62.71	-1
0	341148	62.81	-1
0	341697	62.91	-1
0	342254	63.01	-1
0	342803	63.11	-1
0	343445	63.21	-1
0	343993	63.31	-1
0	344541	63.41	-1
0	345089	63.51	-1
0	345637	63.61	-1
0	346185	63.71	-1
0	346733	63.81	-1
0	347281	63.91	-1
0	347837	64.01	-1
0	348385	64.11	-1
0	348933	64.21	-1
0	349481	64.31	-1
0	350029	64.41	-1
0	350577	64.51	-1
0	351125	64.61	-1
0	351673	64.71	-1
0	352221	64.81	-1
0	352769	64.91	-1
0	353325	65.01	-1
0	353873	65.11	-1
0	354421	65.21	-1
0	354969	65.31	-1
0	355517	65.41	-1
0	356065	65.51	-1
0	356613	65.61	-1
0	357161	65.71	-1
0	357709	65.81	-1
0	358257	65.91	-1
0	358813	66.01	-1
0	359361	66.11	-1
0	359909	66.21	-1
0	360457	66.31	-1
0	361005	66.41	-1
0	361553	66.51	-1
0	362101	66.61	-1
0	362649	66.71	-1
0	363197	66.81	-1
0	363745	66.91	-1
0	364301	67.01	-1
0	364849	67.11	-1
0	365397	67.21	-1
0	365945	67.31	-1
0	366493	67.41	-1
0	367041	67.51	-1
0	367589	67.61	-1
0	368230	67.71	-1
0	368777	67.81	-1
0	369324	67.91	-1
0	369879	68.01	-1
0	370426	68.11	-1
0	370973	68.21	-1
0	371520	68.31	-1
0	372067	68.41	-1
0	372614	68.51	-1
0	373161	68.61	-1
0	373708	68.71	-1
0	374255	68.81	-1
0	374802	68.91	-1
0	375357	69.01	-1
0	375904	69.11	-1
0	376451	69.21	-1
0	376998	69.31	-1
0	377545	69.41	-1
0	378092	69.51	-1
0	378639	69.61	-1
0	379186	69.71	-1
0	379733	69.81	-1
0	380280	69.91	-1
0	380835	70.01	-1
0	381382	70.11	-1
0	381929	70.21	-1
0	382476	70.31	-1
0	383023	70.41	-1
0	383570	70.51	-1
0	384117	70.61	-1
0	384664	70.71	-1
0	385211	70.81	-1
0	385758	70.91	-1
0	386313	71.01	-1
0	386860	71.11	-1
0	387407	71.21	-1
0	387954	71.31	-1
0	388501	71.41	-1
0	389048	71.51	-1
0	389595	71.61	-1
0	390142	71.71	-1
0	390689	71.81	-1
0	391236	71.91	-1
0	392535	72.01	-1
0	393081	72.11	-1
0	393627	72.21	-1
0	394173	72.31	-1
0	394719	72.41	-1
0	395265	72.51	-1
0	395811	72.61	-1
0	396357	72.71	-1
0	396903	72.81	-1
0	397449	72.91	-1
0	398003	73.01	-1
0	398549	73.11	-1
0	399095	73.21	-1
0	399641	73.31	-1
0	400187	73.41	-1
0	400733	73.51	-1
0	401279	73.61	-1
0	401825	73.71	-1
0	402371	73.81	-1
0	402917	73.91	-1
0	403471	74.01	-1
0	404017	74.11	-1
0	404563	74.21	-1
0	405109	74.31	-1
0	405655	74.41	-1
0	406201	74.51	-1
0	406747	74.61	-1
0	407293	74.71	-1
0	407839	74.81	-1
0	408385	74.91	-1
0	408939	75.01	-1
0	409485	75.11	-1
0	410031	75.21	-1
0	410577	75.31	-1
0	411123	75.41	-1
0	411669	75.51	-1
0	412215	75.61	-1
0	412761	75.71	-1
0	413307	75.81	-1
0	413853	75.91	-1
0	414407	76.01	-1
0	414953	76.11	-1
0	415499	76.21	-1
0	416045	76.31	-1
0	416591	76.41	-1
0	417137	76.51	-1
0	417683	76.61	-1
0	418229	76.71	-1
0	418775	76.81	-1
0	419321	76.91	-1
0	419875	77.01	-1
0	420421	77.11	-1
0	420967	77.21	-1
0	421513	77.31	-1
0	422059	77.41	-1
0	422605	77.51	-1
0	423151	77.61	-1
0	423697	77.71	-1
0	424243	77.81	-1
0	424789	77.91	-1
0	425343	78.01	-1
0	425889	78.11	-1
0	426435	78.21	-1
0	426981	78.31	-1
0	427527	78.41	-1
0	428073	78.51	-1
0	428619	78.61	-1
0	429165	78.71	-1
0	429711	78.81	-1
0	430257	78.91	-1
0	430811	79.01	-1
0	431357	79.11	-1
0	431903	79.21	-1
0	432449	79.31	-1
0	432995	79.41	-1
0	433541	79.51	-1
0	434087	79.61	-1
0	434633	79.71	-1
0	435179	79.81	-1
0	435725	79.91	-1
0	436279	80.01	-1
0	436825	80.11	-1
0	437371	80.21	-1
0	437917	80.31	-1
0	438463	80.41	-1
0	439009	80.51	-1
0	439555	80.61	-1
0	440101	80.71	-1
0	440647	80.81	-1
0	441193	80.91	-1
0	441747	81.01	-1
0	442293	81.11	-1
0	442839	81.21	-1
0	443385	81.31	-1
0	443931	81.41	-1
0	444477	81.51	-1
0	445023	81.61	-1
0	445569	81.71	-1
0	446115	81.81	-1
0	446661	81.91	-1
0	447215	82.01	-1
0	447761	82.11	-1
0	448307	82.21	-1
0	448853	82.31	-1
0	449399	82.41	-1
0	449945	82.51	-1
0	450491	82.61	-1
0	451037	82.71	-1
0	451583	82.81	-1
0	452129	82.91	-1
0	452683	83.01	-1
0	453229	83.11	-1
0	453775	83.21	-1
0	454321	83.31	-1
0	454867	83.41	-1
0	455413	83.51	-1
0	455959	83.61	-1
0	456505	83.71	-1
0	457051	83.81	-1
0	457597	83.91	-1
0	458151	84.01	-1
0	458697	84.11	-1
0	459243	84.21	-1
0	459789	84.31	-1
0	460335	84.41	-1
0	460881	84.51	-1
0	461427	84.61	-1
0	461973	84.71	-1
0	462519	84.81	-1
0	463065	84.91	-1
0	463619	85.01	-1
0	464165	85.11	-1
0	464711	85.21	-1
0	465257	85.31	-1
0	465803	85.41	-1
0	466349	85.51	-1
0	466895	85.61	-1
0	467441	85.71	-1
0	467987	85.81	-1
0	468533	85.91	-1
0	469087	86.01	-1
0	469633	86.11	-1
0	470179	86.21	-1
0	470725	86.31	-1
0	471271	86.41	-1
0	471817	86.51	-1
0	472363	86.61	-1
0	472909	86.71	-1
0	473455	86.81	-1
0	474001	86.91	-1
0	474555	87.01	-1
0	475101	87.11	-1
0	475647	87.21	-1
0	476193	87.31	-1
0	476739	87.41	-1
0	477285	87.51	-1
0	477831	87.61	-1
0	478377	87.71	-1
0	478923	87.81	-1
0	479469	87.91	-1
0	480023	88.01	-1
0	480569	88.11	-1
0	481115	88.21	-1
0	481661	88.31	-1
0	482207	88.41	-1
0	482753	88.51	-1
0	483299	88.61	-1
0	483845	88.71	-1
0	484391	88.81	-1
0	484937	88.91	-1
0	485491	89.01	-1
0	486037	89.11	-1
0	486583	89.21	-1
0	487129	89.31	-1
0	487675	89.41	-1
0	488221	89.51	-1
0	488767	89.61	-1
0	489313	89.71	-1
0	489859	89.81	-1
0	490405	89.91	-1
0	490959	90.01	-1
0	491505	90.11	-1
0	492051	90.21	-1
0	492597	90.31	-1
0	493143	90.41	-1
0	493689	90.51	-1
0	494235	90.61	-1
0	494781	90.71	-1
0	495327	90.81	-1
0	495873	90.91	-1
0	496427	91.01	-1
0	496973	91.11	-1
0	497519	91.21	-1
0	498065	91.31	-1
0	498611	91.41	-1
0	499157	91.51	-1
0	499703	91.61	-1
0	500249	91.71	-1
0	500795	91.81	-1
0	501341	91.91	-1
0	501895	92.01	-1
0	502441	92.11	-1
0	502987	92.21	-1
0	503533	92.31	-1
0	504079	92.41	-1
0	504625	92.51	-1
0	505171	92.61	-1
0	505717	92.71	-1
0	506263	92.81	-1
0	506809	92.91	-1
0	507363	93.01	-1
0	507909	93.11	-1
0	508455	93.21	-1
0	509001	93.31	-1
0	509547	93.41	-1
0	510093	93.51	-1
0	510639	93.61	-1
0	511185	93.71	-1
0	511731	93.81	-1
0	512277	93.91	-1
0	512831	94.01	-1
0	513377	94.11	-1
0	513923	94.21	-1
0	514469	94.31	-1
0	515015	94.41	-1
0	515561	94.51	-1
0	516107	94.61	-1
0	516653	94.71	-1
0	517199	94.81	-1
0	517745	94.91	-1
0	518299	95.01	-1
0	518845	95.11	-1
0	519391	95.21	-1
0	519937	95.31	-1
0	520483	95.41	-1
0	521029	95.51	-1
0	521575	95.61	-1
0	522121	95.71	-1
0	522667	95.81	-1
0	523213	95.91	-1
0	523767	96.01	-1
0	524313	96.11	-1
0	524859	96.21	-1
0	525405	96.31	-1
0	525951	96.41	-1
0	526497	96.51	-1
0	527043	96.61	-1
0	527589	96.71	-1
0	528135	96.81	-1
0	528681	96.91	-1
0	529235	97.01	-1
0	529781	97.11	-1
0	530327	97.21	-1
0	530873	97.31	-1
0	531419	97.41	-1
0	531965	97.51	-1
0	532511	97.61	-1
0	533057	97.71	-1
0	533603	97.81	-1
0	534149	97.91	-1
0	534703	98.01	-1
0	535249	98.11	-1
0	535795	98.21	-1
0	536341	98.31	-1
0	536887	98.41	-1
0	537433	98.51	-1
0	537979	98.61	-1
0	538525	98.71	-1
0	539071	98.81	-1
0	539617	98.91	-1
0	540171	99.01	-1
0	540717	99.11	-1
0	541263	99.21	-1
0	541809	99.31	-1
0	542355	99.41	-1
0	542901	99.51	-1
0	543447	99.61	-1
0	543993	99.71	-1
0	544539	99.81	-1
0	545085	99.91	-1
1	113	1.11	0
1	659	1.21	0
1	1205	1.31	0
1	1751	1.41	0
1	2297	1.51	0
1	2843	1.61	0
1	3389	1.71	0
1	3935	1.81	0
1	4481	1.91	0
1	5035	2.01	0
1	5581	2.11	0
1	6127	2.21	0
1	6673	2.31	0
1	7219	2.41	0
1	7765	2.51	0
1	8311	2.61	0
1	8857	2.71	0
1	9403	2.81	0
1	9949	2.91	0
1	10503	3.01	0
1	11049	3.11	0
1	11595	3.21	0
1	12141	3.31	0
1	12687	3.41	0
1	13233	3.51	0
1	13779	3.61	0
1	14325	3.71	0
1	14871	3.81	0
1	15417	3.91	0
1	15971	4.01	0
1	16517	4.11	0
1	17063	4.21	0
1	17609	4.31	0
1	18155	4.41	0
1	18701	4.51	0
1	19247	4.61	0
1	19793	4.71	0
1	20339	4.81	0
1	20885	4.91	0
1	21439	5.01	0
1	21985	5.11	0
1	22531	5.21	0
1	23077	5.31	0
1	23623	5.41	0
1	24169	5.51	0
1	24715	5.61	0
1	25261	5.71	0
1	25807	5.81	0
1	26353	5.91	0
1	26907	6.01	0
1	27453	6.11	0
1	27999	6.21	0
1	28545	6.31	0
1	29091	6.41	0
1	29637	6.51	0
1	30183	6.61	0
1	30729	6.71	0
1	31275	6.81	0
1	31821	6.91	0
1	32375	7.01	0
1	32921	7.11	0
1	33467	7.21	0
1	34013	7.31	0
1	34559	7.41	0
1	35105	7.51	0
1	35651	7.61	0
1	36197	7.71	0
1	36743	7.81	0
1	37289	7.91	0
1	37843	8.01	0
1	38389	8.11	0
1	38935	8.21	0
1	39481	8.31	0
1	40027	8.41	0
1	40573	8.51	0
1	41119	8.61	0
1	41665	8.71	0
1	42211	8.81	0
1	42757	8.91	0
1	43311	9.01	0
1	43857	9.11	0
1	44403	9.21	0
1	44949	9.31	0
1	45495	9.41	0
1	46041	9.51	0
1	46587	9.61	0
1	47133	9.71	0
1	47679	9.81	0
1	48225	9.91	0
1	48853	10.01	0
1	49406	10.11	0
1	49959	10.21	0
1	50512	10.31	0
1	51065	10.41	0
1	51618	10.51	0
1	52171	10.61	0
1	52724	10.71	0
1	53277	10.81	0
1	53830	10.91	0
1	54391	11.01	0
1	54944	11.11	0
1	55497	11.21	0
1	56050	11.31	0
1	56603	11.41	0
1	57156	11.51	0
1	57709	11.61	0
1	58262	11.71	0
1	58815	11.81	0
1	59368	11.91	0
1	59929	12.01	0
1	60482	12.11	0
1	61035	12.21	0
1	61588	12.31	0
1	62141	12.41	0
1	62694	12.51	0
1	63247	12.61	0
1	63800	12.71	0
1	64353	12.81	0
1	64906	12.91	0
1	65467	13.01	0
1	66020	13.11	0
1	66573	13.21	0
1	67126	13.31	0
1	67679	13.41	0
1	68232	13.51	0
1	68785	13.61	0
1	69338	13.71	0
1	69891	13.81	0
1	70444	13.91	0
1	71005	14.01	0
1	71558	14.11	0
1	72111	14.21	0
1	72664	14.31	0
1	73217	14.41	0
1	73770	14.51	0
1	74323	14.61	0
1	74876	14.71	0
1	75429	14.81	0
1	75982	14.91	0
1	76543	15.01	0
1	77096	15.11	0
1	77649	15.21	0
1	78202	15.31	0
1	78755	15.41	0
1	79308	15.51	0
1	79861	15.61	0
1	80414	15.71	0
1	80967	15.81	0
1	81520	15.91	0
1	82081	16.01	0
1	82634	16.11	0
1	83187	16.21	0
1	83740	16.31	0
1	84293	16.41	0
1	84846	16.51	0
1	85399	16.61	0
1	85952	16.71	0
1	86505	16.81	0
1	87058	16.91	0
1	87619	17.01	0
1	88172	17.11	0
1	88725	17.21	0
1	89278	17.31	0
1	89831	17.41	0
1	90384	17.51	0
1	90937	17.61	0
1	91490	17.71	0
1	92043	17.81	0
1	92596	17.91	0
1	93157	18.01	0
1	93710	18.11	0
1	94263	18.21	0
1	94816	18.31	0
1	95369	18.41	0
1	95922	18.51	0
1	96475	18.61	0
1	97028	18.71	0
1	97581	18.81	0
1	98134	18.91	0
1	98695	19.01	0
1	99248	19.11	0
1	99801	19.21	0
1	100354	19.31	0
1	100907	19.41	0
1	101460	19.51	0
1	102013	19.61	0
1	102566	19.71	0
1	103119	19.81	0
1	103672	19.91	0
1	104233	20.01	0
1	104786	20.11	0
1	105339	20.21	0
1	105892	20.31	0
1	106445	20.41	0
1	106998	20.51	0
1	107551	20.61	0
1	108104	20.71	0
1	108657	20.81	0
1	109210	20.91	0
1	109771	21.01	0
1	110324	21.11	0
1	110877	21.21	0
1	111430	21.31	0
1	111983	21.41	0
1	112536	21.51	0
1	113089	21.61	0
1	113642	21.71	0
1	114195	21.81	0
1	114748	21.91	0
1	115309	22.01	0
1	115862	22.11	0
1	116415	22.21	0
1	116968	22.31	0
1	117521	22.41	0
1	118074	22.51	0
1	118627	22.61	0
1	119180	22.71	0
1	119733	22.81	0
1	120286	22.91	0
1	120847	23.01	0
1	121400	23.11	0
1	121953	23.21	0
1	122506	23.31	0
1	123059	23.41	0
1	123612	23.51	0
1	124165	23.61	0
1	124718	23.71	0
1	125271	23.81	0
1	125824	23.91	0
1	126385	24.01	0
1	126938	24.11	0
1	127491	24.21	0
1	128044	24.31	0
1	128597	24.41	0
1	129150	24.51	0
1	129703	24.61	0
1	130256	24.71	0
1	130809	24.81	0
1	131362	24.91	0
1	131923	25.01	0
1	132476	25.11	0
1	133029	25.21	0
1	133582	25.31	0
1	134135	25.41	0
1	134688	25.51	0
1	135241	25.61	0
1	135794	25.71	0
1	136347	25.81	0
1	136900	25.91	0
1	137461	26.01	0
1	138014	26.11	0
1	138567	26.21	0
1	139120	26.31	0
1	139673	26.41	0
1	140226	26.51	0
1	140779	26.61	0
1	141332	26.71	0
1	141885	26.81	0
1	142438	26.91	0
1	142999	27.01	0
1	143552	27.11	0
1	144105	27.21	0
1	144658	27.31	0
1	145211	27.41	0
1	145764	27.51	0
1	146317	27.61	0
1	146870	27.71	0
1	147423	27.81	0
1	147976	27.91	0
1	148537	28.01	0
1	149090	28.11	0
1	149643	28.21	0
1	150196	28.31	0
1	150749	28.41	0
1	151302	28.51	0
1	151855	28.61	0
1	152408	28.71	0
1	152961	28.81	0
1	153514	28.91	0
1	154075	29.01	0
1	154628	29.11	0
1	155181	29.21	0
1	155734	29.31	0
1	156287	29.41	0
1	156840	29.51	0
1	157393	29.61	0
1	157946	29.71	0
1	158499	29.81	0
1	159052	29.91	0
1	159613	30.01	0
1	160166	30.11	0
1	160719	30.21	0
1	161272	30.31	0
1	161825	30.41	0
1	162378	30.51	0
1	162931	30.61	0
1	163484	30.71	0
1	164037	30.81	0
1	164590	30.91	0
1	165151	31.01	0
1	165704	31.11	0
1	166257	31.21	0
1	166810	31.31	0
1	167363	31.41	0
1	167916	31.51	0
1	168469	31.61	0
1	169022	31.71	0
1	169575	31.81	0
1	170128	31.91	0
1	170689	32.01	0
1	171242	32.11	0
1	171795	32.21	0
1	172348	32.31	0
1	172901	32.41	0
1	173454	32.51	0
1	174007	32.61	0
1	174560	32.71	0
1	175113	32.81	0
1	175666	32.91	0
1	176227	33.01	0
1	176780	33.11	0
1	177333	33.21	0
1	177886	33.31	0
1	178439	33.41	0
1	178992	33.51	0
1	179545	33.61	0
1	180098	33.71	0
1	180651	33.81	0
1	181204	33.91	0
1	181765	34.01	0
1	182318	34.11	0
1	182871	34.21	0
1	183424	34.31	0
1	183977	34.41	0
1	184530	34.51	0
1	185083	34.61	0
1	185636	34.71	0
1	186189	34.81	0
1	186742	34.91	0
1	187303	35.01	0
1	187856	35.11	0
1	188409	35.21	0
1	188962	35.31	0
1	189515	35.41	0
1	190068	35.51	0
1	190621	35.61	0
1	191174	35.71	0
1	191727	35.81	0
1	192280	35.91	0
1	192841	36.01	0
1	193394	36.11	0
1	193947	36.21	0
1	194500	36.31	0
1	195053	36.41	0
1	195606	36.51	0
1	196159	36.61	0
1	196712	36.71	0
1	197265	36.81	0
1	197818	36.91	0
1	198379	37.01	0
1	198932	37.11	0
1	199485	37.21	0
1	200038	37.31	0
1	200591	37.41	0
1	201144	37.51	0
1	201697	37.61	0
1	202250	37.71	0
1	202803	37.81	0
1	203356	37.91	0
1	203917	38.01	0
1	204470	38.11	0
1	205023	38.21	0
1	205576	38.31	0
1	206129	38.41	0
1	206682	38.51	0
1	207235	38.61	0
1	207788	38.71	0
1	208341	38.81	0
1	208894	38.91	0
1	209455	39.01	0
1	210008	39.11	0
1	210561	39.21	0
1	211114	39.31	0
1	211667	39.41	0
1	212220	39.51	0
1	212773	39.61	0
1	213326	39.71	0
1	213879	39.81	0
1	214432	39.91	0
1	214993	40.01	0
1	215546	40.11	0
1	216099	40.21	0
1	216652	40.31	0
1	217205	40.41	0
1	217758	40.51	0
1	218311	40.61	0
1	218864	40.71	0
1	219417	40.81	0
1	219970	40.91	0
1	220531	41.01	0
1	221084	41.11	0
1	221637	41.21	0
1	222190	41.31	0
1	222743	41.41	0
1	223296	41.51	0
1	223849	41.61	0
1	224402	41.71	0
1	224955	41.81	0
1	225508	41.91	0
1	226069	42.01	0
1	226622	42.11	0
1	227175	42.21	0
1	227728	42.31	0
1	228281	42.41	0
1	228834	42.51	0
1	229387	42.61	0
1	230033	42.71	0
1	230585	42.81	0
1	231137	42.91	0
1	231697	43.01	0
1	232249	43.11	0
1	232801	43.21	0
1	233353	43.31	0
1	233905	43.41	0
1	234457	43.51	0
1	235009	43.61	0
1	235561	43.71	0
1	236113	43.81	0
1	236665	43.91	0
1	237225	44.01	0
1	237777	44.11	0
1	238329	44.21	0
1	238881	44.31	0
1	239433	44.41	0
1	239985	44.51	0
1	240537	44.61	0
1	241089	44.71	0
1	241641	44.81	0
1	242193	44.91	0
1	242753	45.01	0
1	243305	45.11	0
1	243857	45.21	0
1	244409	45.31	0
1	244961	45.41	0
1	245513	45.51	0
1	246065	45.61	0
1	246617	45.71	0
1	247169	45.81	0
1	247721	45.91	0
1	248281	46.01	0
1	248833	46.11	0
1	249385	46.21	0
1	249937	46.31	0
1	250489	46.41	0
1	251041	46.51	0
1	251593	46.61	0
1	252145	46.71	0
1	252697	46.81	0
1	253249	46.91	0
1	253809	47.01	0
1	254361	47.11	0
1	254913	47.21	0
1	255465	47.31	0
1	256017	47.41	0
1	256569	47.51	0
1	257121	47.61	0
1	257673	47.71	0
1	258225	47.81	0
1	258777	47.91	0
1	259337	48.01	0
1	259889	48.11	0
1	260441	48.21	0
1	260993	48.31	0
1	261545	48.41	0
1	262190	48.51	0
1	262741	48.61	0
1	263292	48.71	0
1	263843	48.81	0
1	264394	48.91	0
1	264953	49.01	0
1	265504	49.11	0
1	266055	49.21	0
1	266606	49.31	0
1	267157	49.41	0
1	267708	49.51	0
1	268259	49.61	0
1	268810	49.71	0
1	269361	49.81	0
1	269912	49.91	0
1	270471	50.01	0
1	271022	50.11	0
1	271573	50.21	0
1	272124	50.31	0
1	272675	50.41	0
1	273226	50.51	0
1	273777	50.61	0
1	274328	50.71	0
1	274879	50.81	0
1	275430	50.91	0
1	275989	51.01	0
1	276540	51.11	0
1	277091	51.21	0
1	277642	51.31	0
1	278193	51.41	0
1	278744	51.51	0
1	279295	51.61	0
1	279846	51.71	0
1	280397	51.81	0
1	280948	51.91	0
1	281507	52.01	0
1	282058	52.11	0
1	282609	52.21	0
1	283160	52.31	0
1	283711	52.41	0
1	284262	52.51	0
1	284813	52.61	0
1	285364	52.71	0
1	285915	52.81	0
1	286466	52.91	0
1	287025	53.01	0
1	287576	53.11	0
1	288127	53.21	0
1	288678	53.31	0
1	289229	53.41	0
1	289780	53.51	0
1	290331	53.61	0
1	290975	53.71	0
1	291525	53.81	0
1	292075	53.91	0
1	292633	54.01	0
1	293183	54.11	0
1	293733	54.21	0
1	294283	54.31	0
1	294833	54.41	0
1	295383	54.51	0
1	295933	54.61	0
1	296483	54.71	0
1	297033	54.81	0
1	297583	54.91	0
1	298141	55.01	0
1	298691	55.11	0
1	299241	55.21	0
1	299791	55.31	0
1	300341	55.41	0
1	300891	55.51	0
1	301441	55.61	0
1	301991	55.71	0
1	302541	55.81	0
1	303091	55.91	0
1	303649	56.01	0
1	304199	56.11	0
1	304749	56.21	0
1	305299	56.31	0
1	305849	56.41	0
1	306399	56.51	0
1	306949	56.61	0
1	307499	56.71	0
1	308049	56.81	0
1	308599	56.91	0
1	309157	57.01	0
1	309707	57.11	0
1	310257	57.21	0
1	310807	57.31	0
1	311357	57.41	0
1	311907	57.51	0
1	312457	57.61	0
1	313007	57.71	0
1	313557	57.81	0
1	314107	57.91	0
1	314665	58.01	0
1	315215	58.11	0
1	315765	58.21	0
1	316315	58.31	0
1	316865	58.41	0
1	317415	58.51	0
1	318058	58.61	0
1	318607	58.71	0
1	319156	58.81	0
1	319705	58.91	0
1	320262	59.01	0
1	320811	59.11	0
1	321360	59.21	0
1	321909	59.31	0
1	322458	59.41	0
1	323007	59.51	0
1	323556	59.61	0
1	324105	59.71	0
1	324654	59.81	0
1	325203	59.91	0
1	325760	60.01	0
1	326309	60.11	0
1	326858	60.21	0
1	327407	60.31	0
1	327956	60.41	0
1	328505	60.51	0
1	329054	60.61	0
1	329603	60.71	0
1	330152	60.81	0
1	330701	60.91	0
1	331258	61.01	0
1	331807	61.11	0
1	332356	61.21	0
1	332905	61.31	0
1	333454	61.41	0
1	334003	61.51	0
1	334552	61.61	0
1	335101	61.71	0
1	335650	61.81	0
1	336199	61.91	0
1	336756	62.01	0
1	337305	62.11	0
1	337854	62.21	0
1	338403	62.31	0
1	338952	62.41	0
1	339501	62.51	0
1	340050	62.61	0
1	340599	62.71	0
1	341148	62.81	0
1	341697	62.91	0
1	342254	63.01	0
1	342803	63.11	0
1	343445	63.21	0
1	343993	63.31	0
1	344541	63.41	0
1	345089	63.51	0
1	345637	63.61	0
1	346185	63.71	0
1	346733	63.81	0
1	347281	63.91	0
1	347837	64.01	0
1	348385	64.11	0
1	348933	64.21	0
1	349481	64.31	0
1	350029	64.41	0
1	350577	64.51	0
1	351125	64.61	0
1	351673	64.71	0
1	352221	64.81	0
1	352769	64.91	0
1	353325	65.01	0
1	353873	65.11	0
1	354421	65.21	0
1	354969	65.31	0
1	355517	65.41	0
1	356065	65.51	0
1	356613	65.61	0
1	357161	65.71	0
1	357709	65.81	0
1	358257	65.91	0
1	358813	66.01	0
1	359361	66.11	0
1	359909	66.21	0
1	360457	66.31	0
1	361005	66.41	0
1	361553	66.51	0
1	362101	66.61	0
1	362649	66.71	0
1	363197	66.81	0
1	363745	66.91	0
1	364301	67.01	0
1	364849	67.11	0
1	365397	67.21	0
1	365945	67.31	0
1	366493	67.41	0
1	367041	67.51	0
1	367589	67.61	0
1	368230	67.71	0
1	368777	67.81	0
1	369324	67.91	0
1	369879	68.01	0
1	370426	68.11	0
1	370973	68.21	0
1	371520	68.31	0
1	372067	68.41	0
1	372614	68.51	0
1	373161	68.61	0
1	373708	68.71	0
1	374255	68.81	0
1	374802	68.91	0
1	375357	69.01	0
1	375904	69.11	0
1	376451	69.21	0
1	376998	69.31	0
1	377545	69.41	0
1	378092	69.51	0
1	378639	69.61	0
1	379186	69.71	0
1	379733	69.81	0
1	380280	69.91	0
1	380835	70.01	0
1	381382	70.11	0
1	381929	70.21	0
1	382476	70.31	0
1	383023	70.41	0
1	383570	70.51	0
1	384117	70.61	0
1	384664	70.71	0
1	385211	70.81	0
1	385758	70.91	0
1	386313	71.01	0
1	386860	71.11	0
1	387407	71.21	0
1	387954	71.31	0
1	388501	71.41	0
1	389048	71.51	0
1	389595	71.61	0
1	390142	71.71	0
1	390689	71.81	0
1	391236	71.91	0
1	392535	72.01	0
1	393081	72.11	0
1	393627	72.21	0
1	394173	72.31	0
1	394719	72.41	0
1	395265	72.51	0
1	395811	72.61	0
1	396357	72.71	0
1	396903	72.81	0
1	397449	72.91	0
1	398003	73.01	0
1	398549	73.11	0
1	399095	73.21	0
1	399641	73.31	0
1	400187	73.41	0
1	400733	73.51	0
1	401279	73.61	0
1	401825	73.71	0
1	402371	73.81	0
1	402917	73.91	0
1	403471	74.01	0
1	404017	74.11	0
1	404563	74.21	0
1	405109	74.31	0
1	405655	74.41	0
1	406201	74.51	0
1	406747	74.61	0
1	407293	74.71	0
1	407839	74.81	0
1	408385	74.91	0
1	408939	75.01	0
1	409485	75.11	0
1	410031	75.21	0
1	410577	75.31	0
1	411123	75.41	0
1	411669	75.51	0
1	412215	75.61	0
1	412761	75.71	0
1	413307	75.81	0
1	413853	75.91	0
1	414407	76.01	0
1	414953	76.11	0
1	415499	76.21	0
1	416045	76.31	0
1	416591	76.41	0
1	417137	76.51	0
1	417683	76.61	0
1	418229	76.71	0
1	418775	76.81	0
1	419321	76.91	0
1	419875	77.01	0
1	420421	77.11	0
1	420967	77.21	0
1	421513	77.31	0
1	422059	77.41	0
1	422605	77.51	0
1	423151	77.61	0
1	423697	77.71	0
1	424243	77.81	0
1	424789	77.91	0
1	425343	78.01	0
1	425889	78.11	0
1	426435	78.21	0
1	426981	78.31	0
1	427527	78.41	0
1	428073	78.51	0
1	428619	78.61	0
1	429165	78.71	0
1	429711	78.81	0
1	430257	78.91	0
1	430811	79.01	0
1	431357	79.11	0
1	431903	79.21	0
1	432449	79.31	0
1	432995	79.41	0
1	433541	79.51	0
1	434087	79.61	0
1	434633	79.71	0
1	435179	79.81	0
1	435725	79.91	0
1	436279	80.01	0
1	436825	80.11	0
1	437371	80.21	0
1	437917	80.31	0
1	438463	80.41	0
1	439009	80.51	0
1	439555	80.61	0
1	440101	80.71	0
1	440647	80.81	0
1	441193	80.91	0
1	441747	81.01	0
1	442293	81.11	0
1	442839	81.21	0
1	443385	81.31	0
1	443931	81.41	0
1	444477	81.51	0
1	445023	81.61	0
1	445569	81.71	0
1	446115	81.81	0
1	446661	81.91	0
1	447215	82.01	0
1	447761	82.11	0
1	448307	82.21	0
1	448853	82.31	0
1	449399	82.41	0
1	449945	82.51	0
1	450491	82.61	0
1	451037	82.71	0
1	451583	82.81	0
1	452129	82.91	0
1	452683	83.01	0
1	453229	83.11	0
1	453775	83.21	0
1	454321	83.31	0
1	454867	83.41	0
1	455413	83.51	0
1	455959	83.61	0
1	456505	83.71	0
1	457051	83.81	0
1	457597	83.91	0
1	458151	84.01	0
1	458697	84.11	0
1	459243	84.21	0
1	459789	84.31	0
1	460335	84.41	0
1	460881	84.51	0
1	461427	84.61	0
1	461973	84.71	0
1	462519	84.81	0
1	463065	84.91	0
1	463619	85.01	0
1	464165	85.11	0
1	464711	85.21	0
1	465257	85.31	0
1	465803	85.41	0
1	466349	85.51	0
1	466895	85.61	0
1	467441	85.71	0
1	467987	85.81	0
1	468533	85.91	0
1	469087	86.01	0
1	469633	86.11	0
1	470179	86.21	0
1	470725	86.31	0
1	471271	86.41	0
1	471817	86.51	0
1	472363	86.61	0
1	472909	86.71	0
1	473455	86.81	0
1	474001	86.91	0
1	474555	87.01	0
1	475101	87.11	0
1	475647	87.21	0
1	476193	87.31	0
1	476739	87.41	0
1	477285	87.51	0
1	477831	87.61	0
1	478377	87.71	0
1	478923	87.81	0
1	479469	87.91	0
1	480023	88.01	0
1	480569	88.11	0
1	481115	88.21	0
1	481661	88.31	0
1	482207	88.41	0
1	482753	88.51	0
1	483299	88.61	0
1	483845	88.71	0
1	484391	88.81	0
1	484937	88.91	0
1	485491	89.01	0
1	486037	89.11	0
1	486583	89.21	0
1	487129	89.31	0
1	487675	89.41	0
1	488221	89.51	0
1	488767	89.61	0
1	489313	89.71	0
1	489859	89.81	0
1	490405	89.91	0
1	490959	90.01	0
1	491505	90.11	0
1	492051	90.21	0
1	492597	90.31	0
1	493143	90.41	0
1	493689	90.51	0
1	494235	90.61	0
1	494781	90.71	0
1	495327	90.81	0
1	495873	90.91	0
1	496427	91.01	0
1	496973	91.11	0
1	497519	91.21	0
1	498065	91.31	0
1	498611	91.41	0
1	499157	91.51	0
1	499703	91.61	0
1	500249	91.71	0
1	500795	91.81	0
1	501341	91.91	0
1	501895	92.01	0
1	502441	92.11	0
1	502987	92.21	0
1	503533	92.31	0
1	504079	92.41	0
1	504625	92.51	0
1	505171	92.61	0
1	505717	92.71	0
1	506263	92.81	0
1	506809	92.91	0
1	507363	93.01	0
1	507909	93.11	0
1	508455	93.21	0
1	509001	93.31	0
1	509547	93.41	0
1	510093	93.51	0
1	510639	93.61	0
1	511185	93.71	0
1	511731	93.81	0
1	512277	93.91	0
1	512831	94.01	0
1	513377	94.11	0
1	513923	94.21	0
1	514469	94.31	0
1	515015	94.41	0
1	515561	94.51	0
1	516107	94.61	0
1	516653	94.71	0
1	517199	94.81	0
1	517745	94.91	0
1	518299	95.01	0
1	518845	95.11	0
1	519391	95.21	0
1	519937	95.31	0
1	520483	95.41	0
1	521029	95.51	0
1	521575	95.61	0
1	522121	95.71	0
1	522667	95.81	0
1	523213	95.91	0
1	523767	96.01	0
1	524313	96.11	0
1	524859	96.21	0
1	525405	96.31	0
1	525951	96.41	0
1	526497	96.51	0
1	527043	96.61	0
1	527589	96.71	0
1	528135	96.81	0
1	528681	96.91	0
1	529235	97.01	0
1	529781	97.11	0
1	530327	97.21	0
1	530873	97.31	0
1	531419	97.41	0
1	531965	97.51	0
1	532511	97.61	0
1	533057	97.71	0
1	533603	97.81	0
1	534149	97.91	0
1	534703	98.01	0
1	535249	98.11	0
1	535795	98.21	0
1	536341	98.31	0
1	536887	98.41	0
1	537433	98.51	0
1	537979	98.61	0
1	538525	98.71	0
1	539071	98.81	0
1	539617	98.91	0
1	540171	99.01	0
1	540717	99.11	0
1	541263	99.21	0
1	541809	99.31	0
1	542355	99.41	0
1	542901	99.51	0
1	543447	99.61	0
1	543993	99.71	0
1	544539	99.81	0
1	545085	99.91	0
2	113	1.11	0
2	659	1.21	0
2	1205	1.31	0
2	1751	1.41	0
2	2297	1.51	0
2	2843	1.61	0
2	3389	1.71	0
2	3935	1.81	0
2	4481	1.91	0
2	5035	2.01	0
2	5581	2.11	0
2	6127	2.21	0
2	6673	2.31	0
2	7219	2.41	0
2	7765	2.51	0
2	8311	2.61	0
2	8857	2.71	0
2	9403	2.81	0
2	9949	2.91	0
2	10503	3.01	0
2	11049	3.11	0
2	11595	3.21	0
2	12141	3.31	0
2	12687	3.41	0
2	13233	3.51	0
2	13779	3.61	0
2	14325	3.71	0
2	14871	3.81	0
2	15417	3.91	0
2	15971	4.01	0
2	16517	4.11	0
2	17063	4.21	0
2	17609	4.31	0
2	18155	4.41	0
2	18701	4.51	0
2	19247	4.61	0
2	19793	4.71	0
2	20339	4.81	0
2	20885	4.91	0
2	21439	5.01	0
2	21985	5.11	0
2	22531	5.21	0
2	23077	5.31	0
2	23623	5.41	0
2	24169	5.51	0
2	24715	5.61	0
2	25261	5.71	0
2	25807	5.81	0
2	26353	5.91	0
2	26907	6.01	0
2	27453	6.11	0
2	27999	6.21	0
2	28545	6.31	0
2	29091	6.41	0
2	29637	6.51	0
2	30183	6.61	0
2	30729	6.71	0
2	31275	6.81	0
2	31821	6.91	0
2	32375	7.01	0
2	32921	7.11	0
2	33467	7.21	0
2	34013	7.31	0
2	34559	7.41	0
2	35105	7.51	0
2	35651	7.61	0
2	36197	7.71	0
2	36743	7.81	0
2	37289	7.91	0
2	37843	8.01	0
2	38389	8.11	0
2	38935	8.21	0
2	39481	8.31	0
2	40027	8.41	0
2	40573	8.51	0
2	41119	8.61	0
2	41665	8.71	0
2	42211	8.81	0
2	42757	8.91	0
2	43311	9.01	0
2	43857	9.11	0
2	44403	9.21	0
2	44949	9.31	0
2	45495	9.41	0
2	46041	9.51	0
2	46587	9.61	0
2	47133	9.71	0
2	47679	9.81	0
2	48225	9.91	0
2	48853	10.01	0
2	49406	10.11	0
2	49959	10.21	0
2	50512	10.31	0
2	51065	10.41	0
2	51618	10.51	0
2	52171	10.61	0
2	52724	10.71	0
2	53277	10.81	0
2	53830	10.91	0
2	54391	11.01	0
2	54944	11.11	0
2	55497	11.21	0
2	56050	11.31	0
2	56603	11.41	0
2	57156	11.51	0
2	57709	11.61	0
2	58262	11.71	0
2	58815	11.81	0
2	59368	11.91	0
2	59929	12.01	0
2	60482	12.11	0
2	61035	12.21	0
2	61588	12.31	0
2	62141	12.41	0
2	62694	12.51	0
2	63247	12.61	0
2	63800	12.71	0
2	64353	12.81	0
2	64906	12.91	0
2	65467	13.01	0
2	66020	13.11	0
2	66573	13.21	0
2	67126	13.31	0
2	67679	13.41	0
2	68232	13.51	0
2	68785	13.61	0
2	69338	13.71	0
2	69891	13.81	0
2	70444	13.91	0
2	71005	14.01	0
2	71558	14.11	0
2	72111	14.21	0
2	72664	14.31	0
2	73217	14.41	0
2	73770	14.51	0
2	74323	14.61	0
2	74876	14.71	0
2	75429	14.81	0
2	75982	14.91	0
2	76543	15.01	0
2	77096	15.11	0
2	77649	15.21	0
2	78202	15.31	0
2	78755	15.41	0
2	79308	15.51	0
2	79861	15.61	0
2	80414	15.71	0
2	80967	15.81	0
2	81520	15.91	0
2	82081	16.01	0
2	82634	16.11	0
2	83187	16.21	0
2	83740	16.31	0
2	84293	16.41	0
2	84846	16.51	0
2	85399	16.61	0
2	85952	16.71	0
2	86505	16.81	0
2	87058	16.91	0
2	87619	17.01	0
2	88172	17.11	0
2	88725	17.21	0
2	89278	17.31	0
2	89831	17.41	0
2	90384	17.51	0
2	90937	17.61	0
2	91490	17.71	0
2	92043	17.81	0
2	92596	17.91	0
2	93157	18.01	0
2	93710	18.11	0
2	94263	18.21	0
2	94816	18.31	0
2	95369	18.41	0
2	95922	18.51	0
2	96475	18.61	0
2	97028	18.71	0
2	97581	18.81	0
2	98134	18.91	0
2	98695	19.01	0
2	99248	19.11	0
2	99801	19.21	0
2	100354	19.31	0
2	100907	19.41	0
2	101460	19.51	0
2	102013	19.61	0
2	102566	19.71	0
2	103119	19.81	0
2	103672	19.91	0
2	104233	20.01	0
2	104786	20.11	0
2	105339	20.21	0
2	105892	20.31	0
2	106445	20.41	0
2	106998	20.51	0
2	107551	20.61	0
2	108104	20.71	0
2	108657	20.81	0
2	109210	20.91	0
2	109771	21.01	0
2	110324	21.11	0
2	110877	21.21	0
2	111430	21.31	0
2	111983	21.41	0
2	112536	21.51	0
2	113089	21.61	0
2	113642	21.71	0
2	114195	21.81	0
2	114748	21.91	0
2	115309	22.01	0
2	115862	22.11	0
2	116415	22.21	0
2	116968	22.31	0
2	117521	22.41	0
2	118074	22.51	0
2	118627	22.61	0
2	119180	22.71	0
2	119733	22.81	0
2	120286	22.91	0
2	120847	23.01	0
2	121400	23.11	0
2	121953	23.21	0
2	122506	23.31	0
2	123059	23.41	0
2	123612	23.51	0
2	124165	23.61	0
2	124718	23.71	0
2	125271	23.81	0
2	125824	23.91	0
2	126385	24.01	0
2	126938	24.11	0
2	127491	24.21	0
2	128044	24.31	0
2	128597	24.41	0
2	129150	24.51	0
2	129703	24.61	0
2	130256	24.71	0
2	130809	24.81	0
2	131362	24.91	0
2	131923	25.01	0
2	132476	25.11	0
2	133029	25.21	0
2	133582	25.31	0
2	134135	25.41	0
2	134688	25.51	0
2	135241	25.61	0
2	135794	25.71	0
2	136347	25.81	0
2	136900	25.91	0
2	137461	26.01	0
2	138014	26.11	0
2	138567	26.21	0
2	139120	26.31	0
2	139673	26.41	0
2	140226	26.51	0
2	140779	26.61	0
2	141332	26.71	0
2	141885	26.81	0
2	142438	26.91	0
2	142999	27.01	0
2	143552	27.11	0
2	144105	27.21	0
2	144658	27.31	0
2	145211	27.41	0
2	145764	27.51	0
2	146317	27.61	0
2	146870	27.71	0
2	147423	27.81	0
2	147976	27.91	0
2	148537	28.01	0
2	149090	28.11	0
2	149643	28.21	0
2	150196	28.31	0
2	150749	28.41	0
2	151302	28.51	0
2	151855	28.61	0
2	152408	28.71	0
2	152961	28.81	0
2	153514	28.91	0
2	154075	29.01	0
2	154628	29.11	0
2	155181	29.21	0
2	155734	29.31	0
2	156287	29.41	0
2	156840	29.51	0
2	157393	29.61	0
2	157946	29.71	0
2	158499	29.81	0
2	159052	29.91	0
2	159613	30.01	0
2	160166	30.11	0
2	160719	30.21	0
2	161272	30.31	0
2	161825	30.41	0
2	162378	30.51	0
2	162931	30.61	0
2	163484	30.71	0
2	164037	30.81	0
2	164590	30.91	0
2	165151	31.01	0
2	165704	31.11	0
2	166257	31.21	0
2	166810	31.31	0
2	167363	31.41	0
2	167916	31.51	0
2	168469	31.61	0
2	169022	31.71	0
2	169575	31.81	0
2	170128	31.91	0
2	170689	32.01	0
2	171242	32.11	0
2	171795	32.21	0
2	172348	32.31	0
2	172901	32.41	0
2	173454	32.51	0
2	174007	32.61	0
2	174560	32.71	0
2	175113	32.81	0
2	175666	32.91	0
2	176227	33.01	0
2	176780	33.11	0
2	177333	33.21	0
2	177886	33.31	0
2	178439	33.41	0
2	178992	33.51	0
2	179545	33.61	0
2	180098	33.71	0
2	180651	33.81	0
2	181204	33.91	0
2	181765	34.01	0
2	182318	34.11	0
2	182871	34.21	0
2	183424	34.31	0
2	183977	34.41	0
2	184530	34.51	0
2	185083	34.61	0
2	185636	34.71	0
2	186189	34.81	0
2	186742	34.91	0
2	187303	35.01	0
2	187856	35.11	0
2	188409	35.21	0
2	188962	35.31	0
2	189515	35.41	0
2	190068	35.51	0
2	190621	35.61	0
2	191174	35.71	0
2	191727	35.81	0
2	192280	35.91	0
2	192841	36.01	0
2	193394	36.11	0
2	193947	36.21	0
2	194500	36.31	0
2	195053	36.41	0
2	195606	36.51	0
2	196159	36.61	0
2	196712	36.71	0
2	197265	36.81	0
2	197818	36.91	0
2	198379	37.01	0
2	198932	37.11	0
2	199485	37.21	0
2	200038	37.31	0
2	200591	37.41	0
2	201144	37.51	0
2	201697	37.61	0
2	202250	37.71	0
2	202803	37.81	0
2	203356	37.91	0
2	203917	38.01	0
2	204470	38.11	0
2	205023	38.21	0
2	205576	38.31	0
2	206129	38.41	0
2	206682	38.51	0
2	207235	38.61	0
2	207788	38.71	0
2	208341	38.81	0
2	208894	38.91	0
2	209455	39.01	0
2	210008	39.11	0
2	210561	39.21	0
2	211114	39.31	0
2	211667	39.41	0
2	212220	39.51	0
2	212773	39.61	0
2	213326	39.71	0
2	213879	39.81	0
2	214432	39.91	0
2	214993	40.01	0
2	215546	40.11	0
2	216099	40.21	0
2	216652	40.31	0
2	217205	40.41	0
2	217758	40.51	0
2	218311	40.61	0
2	218864	40.71	0
2	219417	40.81	0
2	219970	40.91	0
2	220531	41.01	0
2	221084	41.11	0
2	221637	41.21	0
2	222190	41.31	0
2	222743	41.41	0
2	223296	41.51	0
2	223849	41.61	0
2	224402	41.71	0
2	224955	41.81	0
2	225508	41.91	0
2	226069	42.01	0
2	226622	42.11	0
2	227175	42.21	0
2	227728	42.31	0
2	228281	42.41	0
2	228834	42.51	0
2	229387	42.61	0
2	230033	42.71	0
2	230585	42.81	0
2	231137	42.91	0
2	231697	43.01	0
2	232249	43.11	0
2	232801	43.21	0
2	233353	43.31	0
2	233905	43.41	0
2	234457	43.51	0
2	235009	43.61	0
2	235561	43.71	0
2	236113	43.81	0
2	236665	43.91	0
2	237225	44.01	0
2	237777	44.11	0
2	238329	44.21	0
2	238881	44.31	0
2	239433	44.41	0
2	239985	44.51	0
2	240537	44.61	0
2	241089	44.71	0
2	241641	44.81	0
2	242193	44.91	0
2	242753	45.01	0
2	243305	45.11	0
2	243857	45.21	0
2	244409	45.31	0
2	244961	45.41	0
2	245513	45.51	0
2	246065	45.61	0
2	246617	45.71	0
2	247169	45.81	0
2	247721	45.91	0
2	248281	46.01	0
2	248833	46.11	0
2	249385	46.21	0
2	249937	46.31	0
2	250489	46.41	0
2	251041	46.51	0
2	251593	46.61	0
2	252145	46.71	0
2	252697	46.81	0
2	253249	46.91	0
2	253809	47.01	0
2	254361	47.11	0
2	254913	47.21	0
2	255465	47.31	0
2	256017	47.41	0
2	256569	47.51	0
2	257121	47.61	0
2	257673	47.71	0
2	258225	47.81	0
2	258777	47.91	0
2	259337	48.01	0
2	259889	48.11	0
2	260441	48.21	0
2	260993	48.31	0
2	261545	48.41	0
2	262190	48.51	0
2	262741	48.61	0
2	263292	48.71	0
2	263843	48.81	0
2	264394	48.91	0
2	264953	49.01	0
2	265504	49.11	0
2	266055	49.21	0
2	266606	49.31	0
2	267157	49.41	0
2	267708	49.51	0
2	268259	49.61	0
2	268810	49.71	0
2	269361	49.81	0
2	269912	49.91	0
2	270471	50.01	0
2	271022	50.11	0
2	271573	50.21	0
2	272124	50.31	0
2	272675	50.41	0
2	273226	50.51	0
2	273777	50.61	0
2	274328	50.71	0
2	274879	50.81	0
2	275430	50.91	0
2	275989	51.01	0
2	276540	51.11	0
2	277091	51.21	0
2	277642	51.31	0
2	278193	51.41	0
2	278744	51.51	0
2	279295	51.61	0
2	279846	51.71	0
2	280397	51.81	0
2	280948	51.91	0
2	281507	52.01	0
2	282058	52.11	0
2	282609	52.21	0
2	283160	52.31	0
2	283711	52.41	0
2	284262	52.51	0
2	284813	52.61	0
2	285364	52.71	0
2	285915	52.81	0
2	286466	52.91	0
2	287025	53.01	0
2	287576	53.11	0
2	288127	53.21	0
2	288678	53.31	0
2	289229	53.41	0
2	289780	53.51	0
2	290331	53.61	0
2	290975	53.71	0
2	291525	53.81	0
2	292075	53.91	0
2	292633	54.01	0
2	293183	54.11	0
2	293733	54.21	0
2	294283	54.31	0
2	294833	54.41	0
2	295383	54.51	0
2	295933	54.61	0
2	296483	54.71	0
2	297033	54.81	0
2	297583	54.91	0
2	298141	55.01	0
2	298691	55.11	0
2	299241	55.21	0
2	299791	55.31	0
2	300341	55.41	0
2	300891	55.51	0
2	301441	55.61	0
2	301991	55.71	0
2	302541	55.81	0
2	303091	55.91	0
2	303649	56.01	0
2	304199	56.11	0
2	304749	56.21	0
2	305299	56.31	0
2	305849	56.41	0
2	306399	56.51	0
2	306949	56.61	0
2	307499	56.71	0
2	308049	56.81	0
2	308599	56.91	0
2	309157	57.01	0
2	309707	57.11	0
2	310257	57.21	0
2	310807	57.31	0
2	311357	57.41	0
2	311907	57.51	0
2	312457	57.61	0
2	313007	57.71	0
2	313557	57.81	0
2	314107	57.91	0
2	314665	58.01	0
2	315215	58.11	0
2	315765	58.21	0
2	316315	58.31	0
2	316865	58.41	0
2	317415	58.51	0
2	318058	58.61	0
2	318607	58.71	0
2	319156	58.81	0
2	319705	58.91	0
2	320262	59.01	0
2	320811	59.11	0
2	321360	59.21	0
2	321909	59.31	0
2	322458	59.41	0
2	323007	59.51	0
2	323556	59.61	0
2	324105	59.71	0
2	324654	59.81	0
2	325203	59.91	0
2	325760	60.01	0
2	326309	60.11	0
2	326858	60.21	0
2	327407	60.31	0
2	327956	60.41	0
2	328505	60.51	0
2	329054	60.61	0
2	329603	60.71	0
2	330152	60.81	0
2	330701	60.91	0
2	331258	61.01	0
2	331807	61.11	0
2	332356	61.21	0
2	332905	61.31	0
2	333454	61.41	0
2	334003	61.51	0
2	334552	61.61	0
2	335101	61.71	0
2	335650	61.81	0
2	336199	61.91	0
2	336756	62.01	0
2	337305	62.11	0
2	337854	62.21	0
2	338403	62.31	0
2	338952	62.41	0
2	339501	62.51	0
2	340050	62.61	0
2	340599	62.71	0
2	341148	62.81	0
2	341697	62.91	0
2	342254	63.01	0
2	342803	63.11	0
2	343445	63.21	0
2	343993	63.31	0
2	344541	63.41	0
2	345089	63.51	0
2	345637	63.61	0
2	346185	63.71	0
2	346733	63.81	0
2	347281	63.91	0
2	347837	64.01	0
2	348385	64.11	0
2	348933	64.21	0
2	349481	64.31	0
2	350029	64.41	0
2	350577	64.51	0
2	351125	64.61	0
2	351673	64.71	0
2	352221	64.81	0
2	352769	64.91	0
2	353325	65.01	0
2	353873	65.11	0
2	354421	65.21	0
2	354969	65.31	0
2	355517	65.41	0
2	356065	65.51	0
2	356613	65.61	0
2	357161	65.71	0
2	357709	65.81	0
2	358257	65.91	0
2	358813	66.01	0
2	359361	66.11	0
2	359909	66.21	0
2	360457	66.31	0
2	361005	66.41	0
2	361553	66.51	0
2	362101	66.61	0
2	362649	66.71	0
2	363197	66.81	0
2	363745	66.91	0
2	364301	67.01	0
2	364849	67.11	0
2	365397	67.21	0
2	365945	67.31	0
2	366493	67.41	0
2	367041	67.51	0
2	367589	67.61	0
2	368230	67.71	0
2	368777	67.81	0
2	369324	67.91	0
2	369879	68.01	0
2	370426	68.11	0
2	370973	68.21	0
2	371520	68.31	0
2	372067	68.41	0
2	372614	68.51	0
2	373161	68.61	0
2	373708	68.71	0
2	374255	68.81	0
2	374802	68.91	0
2	375357	69.01	0
2	375904	69.11	0
2	376451	69.21	0
2	376998	69.31	0
2	377545	69.41	0
2	378092	69.51	0
2	378639	69.61	0
2	379186	69.71	0
2	379733	69.81	0
2	380280	69.91	0
2	380835	70.01	0
2	381382	70.11	0
2	381929	70.21	0
2	382476	70.31	0
2	383023	70.41	0
2	383570	70.51	0
2	384117	70.61	0
2	384664	70.71	0
2	385211	70.81	0
2	385758	70.91	0
2	386313	71.01	0
2	386860	71.11	0
2	387407	71.21	0
2	387954	71.31	0
2	388501	71.41	0
2	389048	71.51	0
2	389595	71.61	0
2	390142	71.71	0
2	390689	71.81	0
2	391236	71.91	0
2	392535	72.01	0
2	393081	72.11	0
2	393627	72.21	0
2	394173	72.31	0
2	394719	72.41	0
2	395265	72.51	0
2	395811	72.61	0
2	396357	72.71	0
2	396903	72.81	0
2	397449	72.91	0
2	398003	73.01	0
2	398549	73.11	0
2	399095	73.21	0
2	399641	73.31	0
2	400187	73.41	0
2	400733	73.51	0
2	401279	73.61	0
2	401825	73.71	0
2	402371	73.81	0
2	402917	73.91	0
2	403471	74.01	0
2	404017	74.11	0
2	404563	74.21	0
2	405109	74.31	0
2	405655	74.41	0
2	406201	74.51	0
2	406747	74.61	0
2	407293	74.71	0
2	407839	74.81	0
2	408385	74.91	0
2	408939	75.01	0
2	409485	75.11	0
2	410031	75.21	0
2	410577	75.31	0
2	411123	75.41	0
2	411669	75.51	0
2	412215	75.61	0
2	412761	75.71	0
2	413307	75.81	0
2	413853	75.91	0
2	414407	76.01	0
2	414953	76.11	0
2	415499	76.21	0
2	416045	76.31	0
2	416591	76.41	0
2	417137	76.51	0
2	417683	76.61	0
2	418229	76.71	0
2	418775	76.81	0
2	419321	76.91	0
2	419875	77.01	0
2	420421	77.11	0
2	420967	77.21	0
2	421513	77.31	0
2	422059	77.41	0
2	422605	77.51	0
2	423151	77.61	0
2	423697	77.71	0
2	424243	77.81	0
2	424789	77.91	0
2	425343	78.01	0
2	425889	78.11	0
2	426435	78.21	0
2	426981	78.31	0
2	427527	78.41	0
2	428073	78.51	0
2	428619	78.61	0
2	429165	78.71	0
2	429711	78.81	0
2	430257	78.91	0
2	430811	79.01	0
2	431357	79.11	0
2	431903	79.21	0
2	432449	79.31	0
2	432995	79.41	0
2	433541	79.51	0
2	434087	79.61	0
2	434633	79.71	0
2	435179	79.81	0
2	435725	79.91	0
2	436279	80.01	0
2	436825	80.11	0
2	437371	80.21	0
2	437917	80.31	0
2	438463	80.41	0
2	439009	80.51	0
2	439555	80.61	0
2	440101	80.71	0
2	440647	80.81	0
2	441193	80.91	0
2	441747	81.01	0
2	442293	81.11	0
2	442839	81.21	0
2	443385	81.31	0
2	443931	81.41	0
2	444477	81.51	0
2	445023	81.61	0
2	445569	81.71	0
2	446115	81.81	0
2	446661	81.91	0
2	447215	82.01	0
2	447761	82.11	0
2	448307	82.21	0
2	448853	82.31	0
2	449399	82.41	0
2	449945	82.51	0
2	450491	82.61	0
2	451037	82.71	0
2	451583	82.81	0
2	452129	82.91	0
2	452683	83.01	0
2	453229	83.11	0
2	453775	83.21	0
2	454321	83.31	0
2	454867	83.41	0
2	455413	83.51	0
2	455959	83.61	0
2	456505	83.71	0
2	457051	83.81	0
2	457597	83.91	0
2	458151	84.01	0
2	458697	84.11	0
2	459243	84.21	0
2	459789	84.31	0
2	460335	84.41	0
2	460881	84.51	0
2	461427	84.61	0
2	461973	84.71	0
2	462519	84.81	0
2	463065	84.91	0
2	463619	85.01	0
2	464165	85.11	0
2	464711	85.21	0
2	465257	85.31	0
2	465803	85.41	0
2	466349	85.51	0
2	466895	85.61	0
2	467441	85.71	0
2	467987	85.81	0
2	468533	85.91	0
2	469087	86.01	0
2	469633	86.11	0
2	470179	86.21	0
2	470725	86.31	0
2	471271	86.41	0
2	471817	86.51	0
2	472363	86.61	0
2	472909	86.71	0
2	473455	86.81	0
2	474001	86.91	0
2	474555	87.01	0
2	475101	87.11	0
2	475647	87.21	0
2	476193	87.31	0
2	476739	87.41	0
2	477285	87.51	0
2	477831	87.61	0
2	478377	87.71	0
2	478923	87.81	0
2	479469	87.91	0
2	480023	88.01	0
2	480569	88.11	0
2	481115	88.21	0
2	481661	88.31	0
2	482207	88.41	0
2	482753	88.51	0
2	483299	88.61	0
2	483845	88.71	0
2	484391	88.81	0
2	484937	88.91	0
2	485491	89.01	0
2	486037	89.11	0
2	486583	89.21	0
2	487129	89.31	0
2	487675	89.41	0
2	488221	89.51	0
2	488767	89.61	0
2	489313	89.71	0
2	489859	89.81	0
2	490405	89.91	0
2	490959	90.01	0
2	491505	90.11	0
2	492051	90.21	0
2	492597	90.31	0
2	493143	90.41	0
2	493689	90.51	0
2	494235	90.61	0
2	494781	90.71	0
2	495327	90.81	0
2	495873	90.91	0
2	496427	91.01	0
2	496973	91.11	0
2	497519	91.21	0
2	498065	91.31	0
2	498611	91.41	0
2	499157	91.51	0
2	499703	91.61	0
2	500249	91.71	0
2	500795	91.81	0
2	501341	91.91	0
2	501895	92.01	0
2	502441	92.11	0
2	502987	92.21	0
2	503533	92.31	0
2	504079	92.41	0
2	504625	92.51	0
2	505171	92.61	0
2	505717	92.71	0
2	506263	92.81	0
2	506809	92.91	0
2	507363	93.01	0
2	507909	93.11	0
2	508455	93.21	0
2	509001	93.31	0
2	509547	93.41	0
2	510093	93.51	0
2	510639	93.61	0
2	511185	93.71	0
2	511731	93.81	0
2	512277	93.91	0
2	512831	94.01	0
2	513377	94.11	0
2	513923	94.21	0
2	514469	94.31	0
2	515015	94.41	0
2	515561	94.51	0
2	516107	94.61	0
2	516653	94.71	0
2	517199	94.81	0
2	517745	94.91	0
2	518299	95.01	0
2	518845	95.11	0
2	519391	95.21	0
2	519937	95.31	0
2	520483	95.41	0
2	521029	95.51	0
2	521575	95.61	0
2	522121	95.71	0
2	522667	95.81	0
2	523213	95.91	0
2	523767	96.01	0
2	524313	96.11	0
2	524859	96.21	0
2	525405	96.31	0
2	525951	96.41	0
2	526497	96.51	0
2	527043	96.61	0
2	527589	96.71	0
2	528135	96.81	0
2	528681	96.91	0
2	529235	97.01	0
2	529781	97.11	0
2	530327	97.21	0
2	530873	97.31	0
2	531419	97.41	0
2	531965	97.51	0
2	532511	97.61	0
2	533057	97.71	0
2	533603	97.81	0
2	534149	97.91	0
2	534703	98.01	0
2	535249	98.11	0
2	535795	98.21	0
2	536341	98.31	0
2	536887	98.41	0
2	537433	98.51	0
2	537979	98.61	0
2	538525	98.71	0
2	539071	98.81	0
2	539617	98.91	0
2	540171	99.01	0
2	540717	99.11	0
2	541263	99.21	0
2	541809	99.31	0
2	542355	99.41	0
2	542901	99.51	0
2	543447	99.61	0
2	543993	99.71	0
2	544539	99.81	0
2	545085	99.91	0
3	113	1.11	0.000179096
3	659	1.21	0.000340852
3	1205	1.31	0.000467435
3	1751	1.41	0.000562893
3	2297	1.51	0.000631106
3	2843	1.61	0.000675745
3	3389	1.71	0.000700245
3	3935	1.81	0.000707784
3	4481	1.91	0.000701273
3	5035	2.01	0.000683354
3	5581	2.11	0.000656398
3	6127	2.21	0.000622512
3	6673	2.31	0.000583548
3	7219	2.41	0.000541117
3	7765	2.51	0.000496604
3	8311	2.61	0.000451181
3	8857	2.71	0.000405825
3	9403	2.81	0.00036134
3	9949	2.91	0.000318365
3	10503	3.01	0.0002774
3	11049	3.11	0.00023882
3	11595	3.21	0.000202887
3	12141	3.31	0.00016977
3	12687	3.41	0.000139558
3	13233	3.51	0.000112271
3	13779	3.61	8.78717e-05
3	14325	3.71	6.628e-05
3	14871	3.81	4.73785e-05
3	15417	3.91	3.1023e-05
3	15971	4.01	1.70493e-05
3	16517	4.11	5.28023e-06
3	17063	4.21	-4.46922e-06
3	17609	4.31	-1.2387e-05
3	18155	4.41	-1.86602e-05
3	18701	4.51	-2.34717e-05
3	19247	4.61	-2.69978e-05
3	19793	4.71	-2.94062e-05
3	20339	4.81	-3.08545e-05
3	20885	4.91	-3.14892e-05
3	21439	5.01	-3.14451e-05
3	21985	5.11	-3.0845e-05
3	22531	5.21	-2.97994e-05
3	23077	5.31	-2.84072e-05
3	23623	5.41	-2.67556e-05
3	24169	5.51	-2.49208e-05
3	24715	5.61	-2.29687e-05
3	25261	5.71	-2.09553e-05
3	25807	5.81	-1.89277e-05
3	26353	5.91	-1.6925e-05
3	26907	6.01	-1.49784e-05
3	27453	6.11	-1.31129e-05
3	27999	6.21	-1.13474e-05
3	28545	6.31	-9.69553e-06
3	29091	6.41	-8.16651e-06
3	29637	6.51	-6.76571e-06
3	30183	6.61	-5.49522e-06
3	30729	6.71	-4.35441e-06
3	31275	6.81	-3.34045e-06
3	31821	6.91	-2.44874e-06
3	32375	7.01	-1.6733e-06
3	32921	7.11	-1.00716e-06
3	33467	7.21	-4.42628e-07
3	34013	7.31	2.84224e-08
3	34559	7.41	4.14339e-07
3	35105	7.51	7.23492e-07
3	35651	7.61	9.6413e-07
3	36197	7.71	1.14424e-06
3	36743	7.81	1.27148e-06
3	37289	7.91	1.35305e-06
3	37843	8.01	1.3957e-06
3	38389	8.11	1.40565e-06
3	38935	8.21	1.3886e-06
3	39481	8.31	1.34971e-06
3	40027	8.41	1.2936e-06
3	40573	8.51	1.22437e-06
3	41119	8.61	1.14561e-06
3	41665	8.71	1.06046e-06
3	42211	8.81	9.71582e-07
3	42757	8.91	8.81246e-07
3	43311	9.01	7.91334e-07
3	43857	9.11	7.03381e-07
3	44403	9.21	6.18613e-07
3	44949	9.31	5.37979e-07
3	45495	9.41	4.62183e-07
3	46041	9.51	3.91714e-07
3	46587	9.61	3.26878e-07
3	47133	9.71	2.67827e-07
3	47679	9.81	2.14581e-07
3	48225	9.91	1.67052e-07
3	48853	10.01	1.25066e-07
3	49406	10.11	8.83794e-08
3	49959	10.21	5.66978e-08
3	50512	10.31	2.96922e-08
3	51065	10.41	7.00453e-09
3	51618	10.51	-1.17325e-08
3	52171	10.61	-2.68933e-08
3	52724	10.71	-3.88482e-08
3	53277	10.81	-4.79581e-08
3	53830	10.91	-5.45704e-08
3	54391	11.01	-5.90177e-08
3	54944	11.11	-6.16069e-08
3	55497	11.21	-6.26265e-08
3	56050	11.31	-6.23395e-08
3	56603	11.41	-6.09859e-08
3	57156	11.51	-5.87811e-08
3	57709	11.61	-5.59183e-08
3	58262	11.71	-5.25674e-08
3	58815	11.81	-4.88761e-08
3	59368	11.91	-4.4971e-08
3	59929	12.01	-4.09599e-08
3	60482	12.11	-3.69354e-08
3	61035	12.21	-3.29713e-08
3	61588	12.31	-2.9128e-08
3	62141	12.41	-2.54531e-08
3	62694	12.51	-2.19821e-08
3	63247	12.61	-1.87399e-08
3	63800	12.71	-1.57428e-08
3	64353	12.81	-1.30029e-08
3	64906	12.91	-1.05217e-08
3	65467	13.01	-8.29772e-09
3	66020	13.11	-6.32454e-09
3	66573	13.21	-4.59224e-09
3	67126	13.31	-3.08802e-09
3	67679	13.41	-1.79838e-09
3	68232	13.51	-7.08411e-10
3	68785	13.61	1.98241e-10
3	69338	13.71	9.37916e-10
3	69891	13.81	1.52767e-09
3	70444	13.91	1.98384e-09
3	71005	14.01	2.32276e-09
3	71558	14.11	2.55937e-09
3	72111	14.21	2.70788e-09
3	72664	14.31	2.78249e-09
3	73217	14.41	2.79243e-09
3	73770	14.51	2.7498e-09
3	74323	14.61	2.66525e-09
3	74876	14.71	2.54872e-09
3	75429	14.81	2.40803e-09
3	75982	14.91	2.24887e-09
3	76543	15.01	2.07763e-09
3	77096	15.11	1.89999e-09
3	77649	15.21	1.72236e-09
3	78202	15.31	1.54472e-09
3	78755	15.41	1.37064e-09
3	79308	15.51	1.20295e-09
3	79861	15.61	1.04379e-09
3	80414	15.71	8.94573e-10
3	80967	15.81	7.56017e-10
3	81520	15.91	6.29541e-10
3	82081	16.01	5.13012e-10
3	82634	16.11	4.09273e-10
3	83187	16.21	3.16902e-10
3	83740	16.31	2.3519e-10
3	84293	16.41	1.63425e-10
3	84846	16.51	1.02318e-10
3	85399	16.61	4.9738e-11
3	85952	16.71	5.68434e-12
3	86505	16.81	-3.05533e-11
3	87058	16.91	-5.8975e-11
3	87619	17.01	-8.10019e-11
3	88172	17.11	-9.80549e-11
3	88725	17.21	-1.11555e-10
3	89278	17.31	-1.18661e-10
3	89831	17.41	-1.23634e-10
3	90384	17.51	-1.23634e-10
3	90937	17.61	-1.23634e-10
3	91490	17.71	-1.21503e-10
3	92043	17.81	-1.14397e-10
3	92596	17.91	-1.07292e-10
3	93157	18.01	-1.00187e-10
3	93710	18.11	-9.30811e-11
3	94263	18.21	-8.59757e-11
3	94816	18.31	-7.88702e-11
3	95369	18.41	-7.17648e-11
3	95922	18.51	-6.46594e-11
3	96475	18.61	-5.7554e-11
3	97028	18.71	-5.04485e-11
3	97581	18.81	-4.33431e-11
3	98134	18.91	-3.62377e-11
3	98695	19.01	-2.91323e-11
3	99248	19.11	-2.20268e-11
3	99801	19.21	-1.7053e-11
3	100354	19.31	-1.49214e-11
3	100907	19.41	-1.35003e-11
3	101460	19.51	-1.27898e-11
3	102013	19.61	-1.13687e-11
3	102566	19.71	-9.9476e-12
3	103119	19.81	-9.23706e-12
3	103672	19.91	-8.52651e-12
3	104233	20.01	-7.81597e-12
3	104786	20.11	-7.10543e-12
3	105339	20.21	-6.39488e-12
3	105892	20.31	-5.68434e-12
3	106445	20.41	-4.9738e-12
3	106998	20.51	-4.26326e-12
3	107551	20.61	-4.26326e-12
3	108104	20.71	-3.55271e-12
3	108657	20.81	-3.55271e-12
3	109210	20.91	-2.84217e-12
3	109771	21.01	-2.84217e-12
3	110324	21.11	-2.84217e-12
3	110877	21.21	-2.13163e-12
3	111430	21.31	-2.13163e-12
3	111983	21.41	-2.13163e-12
3	112536	21.51	-1.42109e-12
3	113089	21.61	-1.42109e-12
3	113642	21.71	-1.42109e-12
3	114195	21.81	-1.42109e-12
3	114748	21.91	-1.42109e-12
3	115309	22.01	-7.10543e-13
3	115862	22.11	-7.10543e-13
3	116415	22.21	-7.10543e-13
3	116968	22.31	-7.10543e-13
3	117521	22.41	-7.10543e-13
3	118074	22.51	-7.10543e-13
3	118627	22.61	-7.10543e-13
3	119180	22.71	-7.10543e-13
3	119733	22.81	-7.10543e-13
3	120286	22.91	-7.10543e-13
3	120847	23.01	0
3	121400	23.11	0
3	121953	23.21	0
3	122506	23.31	0
3	123059	23.41	0
3	123612	23.51	0
3	124165	23.61	0
3	124718	23.71	0
3	125271	23.81	0
3	125824	23.91	0
3	126385	24.01	0
3	126938	24.11	0
3	127491	24.21	0
3	128044	24.31	0
3	128597	24.41	0
3	129150	24.51	0
3	129703	24.61	0
3	130256	24.71	0
3	130809	24.81	0
3	131362	24.91	0
3	131923	25.01	0
3	132476	25.11	0
3	133029	25.21	0
3	133582	25.31	0
3	134135	25.41	0
3	134688	25.51	0
3	135241	25.61	0
3	135794	25.71	0
3	136347	25.81	0
3	136900	25.91	0
3	137461	26.01	0
3	138014	26.11	0
3	138567	26.21	0
3	139120	26.31	0
3	139673	26.41	0
3	140226	26.51	0
3	140779	26.61	0
3	141332	26.71	0
3	141885	26.81	0
3	142438	26.91	0
3	142999	27.01	0
3	143552	27.11	0
3	144105	27.21	0
3	144658	27.31	0
3	145211	27.41	0
3	145764	27.51	0
3	146317	27.61	0
3	146870	27.71	0
3	147423	27.81	0
3	147976	27.91	0
3	148537	28.01	0
3	149090	28.11	0
3	149643	28.21	0
3	150196	28.31	0
3	150749	28.41	0
3	151302	28.51	0
3	151855	28.61	0
3	152408	28.71	0
3	152961	28.81	0
3	153514	28.91	0
3	154075	29.01	0
3	154628	29.11	0
3	155181	29.21	0
3	155734	29.31	0
3	156287	29.41	0
3	156840	29.51	0
3	157393	29.61	0
3	157946	29.71	0
3	158499	29.81	0
3	159052	29.91	0
3	159613	30.01	0
3	160166	30.11	0
3	160719	30.21	0
3	161272	30.31	0
3	161825	30.41	0
3	162378	30.51	0
3	162931	30.61	0
3	163484	30.71	0
3	164037	30.81	0
3	164590	30.91	0
3	165151	31.01	0
3	165704	31.11	0
3	166257	31.21	0
3	166810	31.31	0
3	167363	31.41	0
3	167916	31.51	0
3	168469	31.61	0
3	169022	31.71	0
3	169575	31.81	0
3	170128	31.91	0
3	170689	32.01	0
3	171242	32.11	0
3	171795	32.21	0
3	172348	32.31	0
3	172901	32.41	0
3	173454	32.51	0
3	174007	32.61	0
3	174560	32.71	0
3	175113	32.81	0
3	175666	32.91	0
3	176227	33.01	0
3	176780	33.11	0
3	177333	33.21	0
3	177886	33.31	0
3	178439	33.41	0
3	178992	33.51	0
3	179545	33.61	0
3	180098	33.71	0
3	180651	33.81	0
3	181204	33.91	0
3	181765	34.01	0
3	182318	34.11	0
3	182871	34.21	0
3	183424	34.31	0
3	183977	34.41	0
3	184530	34.51	0
3	185083	34.61	0
3	185636	34.71	0
3	186189	34.81	0
3	186742	34.91	0
3	187303	35.01	0
3	187856	35.11	0
3	188409	35.21	0
3	188962	35.31	0
3	189515	35.41	0
3	190068	35.51	0
3	190621	35.61	0
3	191174	35.71	0
3	191727	35.81	0
3	192280	35.91	0
3	192841	36.01	0
3	193394	36.11	0
3	193947	36.21	0
3	194500	36.31	0
3	195053	36.41	0
3	195606	36.51	0
3	196159	36.61	0
3	196712	36.71	0
3	197265	36.81	0
3	197818	36.91	0
3	198379	37.01	0
3	198932	37.11	0
3	199485	37.21	0
3	200038	37.31	0
3	200591	37.41	0
3	201144	37.51	0
3	201697	37.61	0
3	202250	37.71	0
3	202803	37.81	0
3	203356	37.91	0
3	203917	38.01	0
3	204470	38.11	0
3	205023	38.21	0
3	205576	38.31	0
3	206129	38.41	0
3	206682	38.51	0
3	207235	38.61	0
3	207788	38.71	0
3	208341	38.81	0
3	208894	38.91	0
3	209455	39.01	0
3	210008	39.11	0
3	210561	39.21	0
3	211114	39.31	0
3	211667	39.41	0
3	212220	39.51	0
3	212773	39.61	0
3	213326	39.71	0
3	213879	39.81	0
3	214432	39.91	0
3	214993	40.01	0
3	215546	40.11	0
3	216099	40.21	0
3	216652	40.31	0
3	217205	40.41	0
3	217758	40.51	0
3	218311	40.61	0
3	218864	40.71	0
3	219417	40.81	0
3	219970	40.91	0
3	220531	41.01	0
3	221084	41.11	0
3	221637	41.21	0
3	222190	41.31	0
3	222743	41.41	0
3	223296	41.51	0
3	223849	41.61	0
3	224402	41.71	0
3	224955	41.81	0
3	225508	41.91	0
3	226069	42.01	0
3	226622	42.11	0
3	227175	42.21	0
3	227728	42.31	0
3	228281	42.41	0
3	228834	42.51	0
3	229387	42.61	0
3	230033	42.71	0
3	230585	42.81	0
3	231137	42.91	0
3	231697	43.01	0
3	232249	43.11	0
3	232801	43.21	0
3	233353	43.31	0
3	233905	43.41	0
3	234457	43.51	0
3	235009	43.61	0
3	235561	43.71	0
3	236113	43.81	0
3	236665	43.91	0
3	237225	44.01	0
3	237777	44.11	0
3	238329	44.21	0
3	238881	44.31	0
3	239433	44.41	0
3	239985	44.51	0
3	240537	44.61	0
3	241089	44.71	0
3	241641	44.81	0
3	242193	44.91	0
3	242753	45.01	0
3	243305	45.11	0
3	243857	45.21	0
3	244409	45.31	0
3	244961	45.41	0
3	245513	45.51	0
3	246065	45.61	0
3	246617	45.71	0
3	247169	45.81	0
3	247721	45.91	0
3	248281	46.01	0
3	248833	46.11	0
3	249385	46.21	0
3	249937	46.31	0
3	250489	46.41	0
3	251041	46.51	0
3	251593	46.61	0
3	252145	46.71	0
3	252697	46.81	0
3	253249	46.91	0
3	253809	47.01	0
3	254361	47.11	0
3	254913	47.21	0
3	255465	47.31	0
3	256017	47.41	0
3	256569	47.51	0
3	257121	47.61	0
3	257673	47.71	0
3	258225	47.81	0
3	258777	47.91	0
3	259337	48.01	0
3	259889	48.11	0
3	260441	48.21	0
3	260993	48.31	0
3	261545	48.41	0
3	262190	48.51	0
3	262741	48.61	0
3	263292	48.71	0
3	263843	48.81	0
3	264394	48.91	0
3	264953	49.01	0
3	265504	49.11	0
3	266055	49.21	0
3	266606	49.31	0
3	267157	49.41	0
3	267708	49.51	0
3	268259	49.61	0
3	268810	49.71	0
3	269361	49.81	0
3	269912	49.91	0
3	270471	50.01	0
3	271022	50.11	0
3	271573	50.21	0
3	272124	50.31	0
3	272675	50.41	0
3	273226	50.51	0
3	273777	50.61	0
3	274328	50.71	0
3	274879	50.81	0
3	275430	50.91	0
3	275989	51.01	0
3	276540	51.11	0
3	277091	51.21	0
3	277642	51.31	0
3	278193	51.41	0
3	278744	51.51	0
3	279295	51.61	0
3	279846	51.71	0
3	280397	51.81	0
3	280948	51.91	0
3	281507	52.01	0
3	282058	52.11	0
3	282609	52.21	0
3	283160	52.31	0
3	283711	52.41	0
3	284262	52.51	0
3	284813	52.61	0
3	285364	52.71	0
3	285915	52.81	0
3	286466	52.91	0
3	287025	53.01	0
3	287576	53.11	0
3	288127	53.21	0
3	288678	53.31	0
3	289229	53.41	0
3	289780	53.51	0
3	290331	53.61	0
3	290975	53.71	0
3	291525	53.81	0
3	292075	53.91	0
3	292633	54.01	0
3	293183	54.11	0
3	293733	54.21	0
3	294283	54.31	0
3	294833	54.41	0
3	295383	54.51	0
3	295933	54.61	0
3	296483	54.71	0
3	297033	54.81	0
3	297583	54.91	0
3	298141	55.01	0
3	298691	55.11	0
3	299241	55.21	0
3	299791	55.31	0
3	300341	55.41	0
3	300891	55.51	0
3	301441	55.61	0
3	301991	55.71	0
3	302541	55.81	0
3	303091	55.91	0
3	303649	56.01	0
3	304199	56.11	0
3	304749	56.21	0
3	305299	56.31	0
3	305849	56.41	0
3	306399	56.51	0
3	306949	56.61	0
3	307499	56.71	0
3	308049	56.81	0
3	308599	56.91	0
3	309157	57.01	0
3	309707	57.11	0
3	310257	57.21	0
3	310807	57.31	0
3	311357	57.41	0
3	311907	57.51	0
3	312457	57.61	0
3	313007	57.71	0
3	313557	57.81	0
3	314107	57.91	0
3	314665	58.01	0
3	315215	58.11	0
3	315765	58.21	0
3	316315	58.31	0
3	316865	58.41	0
3	317415	58.51	0
3	318058	58.61	0
3	318607	58.71	0
3	319156	58.81	0
3	319705	58.91	0
3	320262	59.01	0
3	320811	59.11	0
3	321360	59.21	0
3	321909	59.31	0
3	322458	59.41	0
3	323007	59.51	0
3	323556	59.61	0
3	324105	59.71	0
3	324654	59.81	0
3	325203	59.91	0
3	325760	60.01	0
3	326309	60.11	0
3	326858	60.21	0
3	327407	60.31	0
3	327956	60.41	0
3	328505	60.51	0
3	329054	60.61	0
3	329603	60.71	0
3	330152	60.81	0
3	330701	60.91	0
3	331258	61.01	0
3	331807	61.11	0
3	332356	61.21	0
3	332905	61.31	0
3	333454	61.41	0
3	334003	61.51	0
3	334552	61.61	0
3	335101	61.71	0
3	335650	61.81	0
3	336199	61.91	0
3	336756	62.01	0
3	337305	62.11	0
3	337854	62.21	0
3	338403	62.31	0
3	338952	62.41	0
3	339501	62.51	0
3	340050	62.61	0
3	340599	62.71	0
3	341148	62.81	0
3	341697	62.91	0
3	342254	63.01	0
3	342803	63.11	0
3	343445	63.21	0
3	343993	63.31	0
3	344541	63.41	0
3	345089	63.51	0
3	345637	63.61	0
3	346185	63.71	0
3	346733	63.81	0
3	347281	63.91	0
3	347837	64.01	0
3	348385	64.11	0
3	348933	64.21	0
3	349481	64.31	0
3	350029	64.41	0
3	350577	64.51	0
3	351125	64.61	0
3	351673	64.71	0
3	352221	64.81	0
3	352769	64.91	0
3	353325	65.01	0
3	353873	65.11	0
3	354421	65.21	0
3	354969	65.31	0
3	355517	65.41	0
3	356065	65.51	0
3	356613	65.61	0
3	357161	65.71	0
3	357709	65.81	0
3	358257	65.91	0
3	358813	66.01	0
3	359361	66.11	0
3	359909	66.21	0
3	360457	66.31	0
3	361005	66.41	0
3	361553	66.51	0
3	362101	66.61	0
3	362649	66.71	0
3	363197	66.81	0
3	363745	66.91	0
3	364301	67.01	0
3	364849	67.11	0
3	365397	67.21	0
3	365945	67.31	0
3	366493	67.41	0
3	367041	67.51	0
3	367589	67.61	0
3	368230	67.71	0
3	368777	67.81	0
3	369324	67.91	0
3	369879	68.01	0
3	370426	68.11	0
3	370973	68.21	0
3	371520	68.31	0
3	372067	68.41	0
3	372614	68.51	0
3	373161	68.61	0
3	373708	68.71	0
3	374255	68.81	0
3	374802	68.91	0
3	375357	69.01	0
3	375904	69.11	0
3	376451	69.21	0
3	376998	69.31	0
3	377545	69.41	0
3	378092	69.51	0
3	378639	69.61	0
3	379186	69.71	0
3	379733	69.81	0
3	380280	69.91	0
3	380835	70.01	0
3	381382	70.11	0
3	381929	70.21	0
3	382476	70.31	0
3	383023	70.41	0
3	383570	70.51	0
3	384117	70.61	0
3	384664	70.71	0
3	385211	70.81	0
3	385758	70.91	0
3	386313	71.01	0
3	386860	71.11	0
3	387407	71.21	0
3	387954	71.31	0
3	388501	71.41	0
3	389048	71.51	0
3	389595	71.61	0
3	390142	71.71	0
3	390689	71.81	0
3	391236	71.91	0
3	392535	72.01	0
3	393081	72.11	0
3	393627	72.21	0
3	394173	72.31	0
3	394719	72.41	0
3	395265	72.51	0
3	395811	72.61	0
3	396357	72.71	0
3	396903	72.81	0
3	397449	72.91	0
3	398003	73.01	0
3	398549	73.11	0
3	399095	73.21	0
3	399641	73.31	0
3	400187	73.41	0
3	400733	73.51	0
3	401279	73.61	0
3	401825	73.71	0
3	402371	73.81	0
3	402917	73.91	0
3	403471	74.01	0
3	404017	74.11	0
3	404563	74.21	0
3	405109	74.31	0
3	405655	74.41	0
3	406201	74.51	0
3	406747	74.61	0
3	407293	74.71	0
3	407839	74.81	0
3	408385	74.91	0
3	408939	75.01	0
3	409485	75.11	0
3	410031	75.21	0
3	410577	75.31	0
3	411123	75.41	0
3	411669	75.51	0
3	412215	75.61	0
3	412761	75.71	0
3	413307	75.81	0
3	413853	75.91	0
3	414407	76.01	0
3	414953	76.11	0
3	415499	76.21	0
3	416045	76.31	0
3	416591	76.41	0
3	417137	76.51	0
3	417683	76.61	0
3	418229	76.71	0
3	418775	76.81	0
3	419321	76.91	0
3	419875	77.01	0
3	420421	77.11	0
3	420967	77.21	0
3	421513	77.31	0
3	422059	77.41	0
3	422605	77.51	0
3	423151	77.61	0
3	423697	77.71	0
3	424243	77.81	0
3	424789	77.91	0
3	425343	78.01	0
3	425889	78.11	0
3	426435	78.21	0
3	426981	78.31	0
3	427527	78.41	0
3	428073	78.51	0
3	428619	78.61	0
3	429165	78.71	0
3	429711	78.81	0
3	430257	78.91	0
3	430811	79.01	0
3	431357	79.11	0
3	431903	79.21	0
3	432449	79.31	0
3	432995	79.41	0
3	433541	79.51	0
3	434087	79.61	0
3	434633	79.71	0
3	435179	79.81	0
3	435725	79.91	0
3	436279	80.01	0
3	436825	80.11	0
3	437371	80.21	0
3	437917	80.31	0
3	438463	80.41	0
3	439009	80.51	0
3	439555	80.61	0
3	440101	80.71	0
3	440647	80.81	0
3	441193	80.91	0
3	441747	81.01	0
3	442293	81.11	0
3	442839	81.21	0
3	443385	81.31	0
3	443931	81.41	0
3	444477	81.51	0
3	445023	81.61	0
3	445569	81.71	0
3	446115	81.81	0
3	446661	81.91	0
3	447215	82.01	0
3	447761	82.11	0
3	448307	82.21	0
3	448853	82.31	0
3	449399	82.41	0
3	449945	82.51	0
3	450491	82.61	0
3	451037	82.71	0
3	451583	82.81	0
3	452129	82.91	0
3	452683	83.01	0
3	453229	83.11	0
3	453775	83.21	0
3	454321	83.31	0
3	454867	83.41	0
3	455413	83.51	0
3	455959	83.61	0
3	456505	83.71	0
3	457051	83.81	0
3	457597	83.91	0
3	458151	84.01	0
3	458697	84.11	0
3	459243	84.21	0
3	459789	84.31	0
3	460335	84.41	0
3	460881	84.51	0
3	461427	84.61	0
3	461973	84.71	0
3	462519	84.81	0
3	463065	84.91	0
3	463619	85.01	0
3	464165	85.11	0
3	464711	85.21	0
3	465257	85.31	0
3	465803	85.41	0
3	466349	85.51	0
3	466895	85.61	0
3	467441	85.71	0
3	467987	85.81	0
3	468533	85.91	0
3	469087	86.01	0
3	469633	86.11	0
3	470179	86.21	0
3	470725	86.31	0
3	471271	86.41	0
3	471817	86.51	0
3	472363	86.61	0
3	472909	86.71	0
3	473455	86.81	0
3	474001	86.91	0
3	474555	87.01	0
3	475101	87.11	0
3	475647	87.21	0
3	476193	87.31	0
3	476739	87.41	0
3	477285	87.51	0
3	477831	87.61	0
3	478377	87.71	0
3	478923	87.81	0
3	479469	87.91	0
3	480023	88.01	0
3	480569	88.11	0
3	481115	88.21	0
3	481661	88.31	0
3	482207	88.41	0
3	482753	88.51	0
3	483299	88.61	0
3	483845	88.71	0
3	484391	88.81	0
3	484937	88.91	0
3	485491	89.01	0
3	486037	89.11	0
3	486583	89.21	0
3	487129	89.31	0
3	487675	89.41	0
3	488221	89.51	0
3	488767	89.61	0
3	489313	89.71	0
3	489859	89.81	0
3	490405	89.91	0
3	490959	90.01	0
3	491505	90.11	0
3	492051	90.21	0
3	492597	90.31	0
3	493143	90.41	0
3	493689	90.51	0
3	494235	90.61	0
3	494781	90.71	0
3	495327	90.81	0
3	495873	90.91	0
3	496427	91.01	0
3	496973	91.11	0
3	497519	91.21	0
3	498065	91.31	0
3	498611	91.41	0
3	499157	91.51	0
3	499703	91.61	0
3	500249	91.71	0
3	500795	91.81	0
3	501341	91.91	0
3	501895	92.01	0
3	502441	92.11	0
3	502987	92.21	0
3	503533	92.31	0
3	504079	92.41	0
3	504625	92.51	0
3	505171	92.61	0
3	505717	92.71	0
3	506263	92.81	0
3	506809	92.91	0
3	507363	93.01	0
3	507909	93.11	0
3	508455	93.21	0
3	509001	93.31	0
3	509547	93.41	0
3	510093	93.51	0
3	510639	93.61	0
3	511185	93.71	0
3	511731	93.81	0
3	512277	93.91	0
3	512831	94.01	0
3	513377	94.11	0
3	513923	94.21	0
3	514469	94.31	0
3	515015	94.41	0
3	515561	94.51	0
3	516107	94.61	0
3	516653	94.71	0
3	517199	94.81	0
3	517745	94.91	0
3	518299	95.01	0
3	518845	95.11	0
3	519391	95.21	0
3	519937	95.31	0
3	520483	95.41	0
3	521029	95.51	0
3	521575	95.61	0
3	522121	95.71	0
[...]
104	408934	75	4
104	414402	76	4
104	419870	77	4
104	425338	78	4
104	430806	79	4
104	436274	80	4
104	441742	81	4
104	447210	82	4
104	452678	83	4
104	458146	84	4
104	463614	85	4
104	469082	86	4
104	474550	87	4
104	480018	88	4
104	485486	89	4
104	490954	90	4
104	496422	91	4
104	501890	92	4
104	507358	93	4
104	512826	94	4
104	518294	95	4
104	523762	96	4
104	529230	97	4
104	534698	98	4
104	540166	99	4
104	545634	100	4
105	5030	2	0.022473
105	10498	3	0.02497
105	15966	4	0.02497
105	21434	5	0.02497
105	26902	6	0.02497
105	32370	7	0.02497
105	37838	8	0.02497
105	43306	9	0.02497
105	48775	10	0.02497
105	54379	11	0.025018
105	59917	12	0.02497
105	65455	13	0.02497
105	70993	14	0.02497
105	76531	15	0.02497
105	82069	16	0.02497
105	87607	17	0.02497
105	93145	18	0.02497
105	98683	19	0.02497
105	104221	20	0.02497
105	109759	21	0.02497
105	115297	22	0.02497
105	120835	23	0.02497
105	126373	24	0.02497
105	131911	25	0.02497
105	137449	26	0.02497
105	142987	27	0.02497
105	148525	28	0.02497
105	154063	29	0.02497
105	159601	30	0.02497
105	165139	31	0.02497
105	170677	32	0.02497
105	176215	33	0.02497
105	181753	34	0.02497
105	187291	35	0.02497
105	192829	36	0.02497
105	198367	37	0.02497
105	203905	38	0.02497
105	209443	39	0.02497
105	214981	40	0.02497
105	220519	41	0.02497
105	226057	42	0.02497
105	231686	43	0.025082
105	237214	44	0.02497
105	242742	45	0.02497
105	248270	46	0.02497
105	253798	47	0.02497
105	259326	48	0.02497
105	264943	49	0.025082
105	270461	50	0.02497
105	275979	51	0.02497
105	281497	52	0.02497
105	287015	53	0.02497
105	292624	54	0.025082
105	298132	55	0.02497
105	303640	56	0.02497
105	309148	57	0.02497
105	314656	58	0.02497
105	320254	59	0.025115372366
105	325752	60	0.02497
105	331250	61	0.02497
105	336748	62	0.02497
105	342246	63	0.02497
105	347830	64	0.025082
105	353318	65	0.02497
105	358806	66	0.02497
105	364294	67	0.02497
105	369873	68	0.025082
105	375351	69	0.02497
105	380829	70	0.02497
105	386307	71	0.02497
105	391785	72	0.02497
105	397998	73	0.025898
105	403466	74	0.02497
105	408934	75	0.02497
105	414402	76	0.02497
105	419870	77	0.02497
105	425338	78	0.02497
105	430806	79	0.02497
105	436274	80	0.02497
105	441742	81	0.02497
105	447210	82	0.02497
105	452678	83	0.02497
105	458146	84	0.02497
105	463614	85	0.02497
105	469082	86	0.02497
105	474550	87	0.02497
105	480018	88	0.02497
105	485486	89	0.02497
105	490954	90	0.02497
105	496422	91	0.02497
105	501890	92	0.02497
105	507358	93	0.02497
105	512826	94	0.02497
105	518294	95	0.02497
105	523762	96	0.02497
105	529230	97	0.02497
105	534698	98	0.02497
105	540166	99	0.02497
105	545634	100	0.02497
106	5030	2	0
106	10498	3	0
106	15966	4	0
106	21434	5	0
106	26902	6	0
106	32370	7	0
106	37838	8	0
106	43306	9	0
106	48775	10	0
106	54379	11	0
106	59917	12	0
106	65455	13	0
106	70993	14	0
106	76531	15	0
106	82069	16	0
106	87607	17	0
106	93145	18	0
106	98683	19	0
106	104221	20	0
106	109759	21	0
106	115297	22	0
106	120835	23	0
106	126373	24	0
106	131911	25	0
106	137449	26	0
106	142987	27	0
106	148525	28	0
106	154063	29	0
106	159601	30	0
106	165139	31	0
106	170677	32	0
106	176215	33	0
106	181753	34	0
106	187291	35	0
106	192829	36	0
106	198367	37	0
106	203905	38	0
106	209443	39	0
106	214981	40	0
106	220519	41	0
106	226057	42	0
106	231686	43	0
106	237214	44	0
106	242742	45	0
106	248270	46	0
106	253798	47	0
106	259326	48	0
106	264943	49	0
106	270461	50	0
106	275979	51	0
106	281497	52	0
106	287015	53	0
106	292624	54	0
106	298132	55	0
106	303640	56	0
106	309148	57	0
106	314656	58	0
106	320254	59	0
106	325752	60	0
106	331250	61	0
106	336748	62	0
106	342246	63	0
106	347830	64	0
106	353318	65	0
106	358806	66	0
106	364294	67	0
106	369873	68	0
106	375351	69	0
106	380829	70	0
106	386307	71	0
106	391785	72	0
106	397998	73	0
106	403466	74	0
106	408934	75	0
106	414402	76	0
106	419870	77	0
106	425338	78	0
106	430806	79	0
106	436274	80	0
106	441742	81	0
106	447210	82	0
106	452678	83	0
106	458146	84	0
106	463614	85	0
106	469082	86	0
106	474550	87	0
106	480018	88	0
106	485486	89	0
106	490954	90	0
106	496422	91	0
106	501890	92	0
106	507358	93	0
106	512826	94	0
106	518294	95	0
106	523762	96	0
106	529230	97	0
106	534698	98	0
106	540166	99	0
106	545634	100	0
107	5031	2	5
107	10499	3	5
107	15967	4	5
107	21435	5	5
107	26903	6	5
107	32371	7	5
107	37839	8	5
107	43307	9	5
107	48776	10	5
107	54380	11	5
107	59918	12	5
107	65456	13	5
107	70994	14	5
107	76532	15	5
107	82070	16	5
107	87608	17	5
107	93146	18	5
107	98684	19	5
107	104222	20	5
107	109760	21	5
107	115298	22	5
107	120836	23	5
107	126374	24	5
107	131912	25	5
107	137450	26	5
107	142988	27	5
107	148526	28	5
107	154064	29	5
107	159602	30	5
107	165140	31	5
107	170678	32	5
107	176216	33	5
107	181754	34	5
107	187292	35	5
107	192830	36	5
107	198368	37	5
107	203906	38	5
107	209444	39	5
107	214982	40	5
107	220520	41	5
107	226058	42	5
107	231687	43	5
107	237215	44	5
107	242743	45	5
107	248271	46	5
107	253799	47	5
107	259327	48	5
107	264944	49	5
107	270462	50	5
107	275980	51	5
107	281498	52	5
107	287016	53	5
107	292625	54	5
107	298133	55	5
107	303641	56	5
107	309149	57	5
107	314657	58	5
107	320255	59	5
107	325753	60	5
107	331251	61	5
107	336749	62	5
107	342247	63	5
107	347831	64	5
107	353319	65	5
107	358807	66	5
107	364295	67	5
107	369874	68	5
107	375352	69	5
107	380830	70	5
107	386308	71	5
107	391786	72	5
107	397999	73	5
107	403467	74	5
107	408935	75	5
107	414403	76	5
107	419871	77	5
107	425339	78	5
107	430807	79	5
107	436275	80	5
107	441743	81	5
107	447211	82	5
107	452679	83	5
107	458147	84	5
107	463615	85	5
107	469083	86	5
107	474551	87	5
107	480019	88	5
107	485487	89	5
107	490955	90	5
107	496423	91	5
107	501891	92	5
107	507359	93	5
107	512827	94	5
107	518295	95	5
107	523763	96	5
107	529231	97	5
107	534699	98	5
107	540167	99	5
107	545635	100	5
108	5031	2	0.022473
108	10499	3	0.02497
108	15967	4	0.02497
108	21435	5	0.02497
108	26903	6	0.02497
108	32371	7	0.02497
108	37839	8	0.02497
108	43307	9	0.02497
108	48776	10	0.02497
108	54380	11	0.025018
108	59918	12	0.02497
108	65456	13	0.02497
108	70994	14	0.02497
108	76532	15	0.02497
108	82070	16	0.02497
108	87608	17	0.02497
108	93146	18	0.02497
108	98684	19	0.02497
108	104222	20	0.02497
108	109760	21	0.02497
108	115298	22	0.02497
108	120836	23	0.02497
108	126374	24	0.02497
108	131912	25	0.02497
108	137450	26	0.02497
108	142988	27	0.02497
108	148526	28	0.02497
108	154064	29	0.02497
108	159602	30	0.02497
108	165140	31	0.02497
108	170678	32	0.02497
108	176216	33	0.02497
108	181754	34	0.02497
108	187292	35	0.02497
108	192830	36	0.02497
108	198368	37	0.02497
108	203906	38	0.02497
108	209444	39	0.02497
108	214982	40	0.02497
108	220520	41	0.02497
108	226058	42	0.02497
108	231687	43	0.025082
108	237215	44	0.02497
108	242743	45	0.02497
108	248271	46	0.02497
108	253799	47	0.02497
108	259327	48	0.02497
108	264944	49	0.025082
108	270462	50	0.02497
108	275980	51	0.02497
108	281498	52	0.02497
108	287016	53	0.02497
108	292625	54	0.025082
108	298133	55	0.02497
108	303641	56	0.02497
108	309149	57	0.02497
108	314657	58	0.02497
108	320255	59	0.025082
108	325753	60	0.02497
108	331251	61	0.02497
108	336749	62	0.02497
108	342247	63	0.02497
108	347831	64	0.025115465654
108	353319	65	0.02497
108	358807	66	0.02497
108	364295	67	0.02497
108	369874	68	0.025082
108	375352	69	0.02497
108	380830	70	0.02497
108	386308	71	0.02497
108	391786	72	0.02497
108	397999	73	0.025898
108	403467	74	0.02497
108	408935	75	0.02497
108	414403	76	0.02497
108	419871	77	0.02497
108	425339	78	0.02497
108	430807	79	0.02497
108	436275	80	0.02497
108	441743	81	0.02497
108	447211	82	0.02497
108	452679	83	0.02497
108	458147	84	0.02497
108	463615	85	0.02497
108	469083	86	0.02497
108	474551	87	0.02497
108	480019	88	0.02497
108	485487	89	0.02497
108	490955	90	0.02497
108	496423	91	0.02497
108	501891	92	0.02497
108	507359	93	0.02497
108	512827	94	0.02497
108	518295	95	0.02497
108	523763	96	0.02497
108	529231	97	0.02497
108	534699	98	0.02497
108	540167	99	0.02497
108	545635	100	0.02497
109	5031	2	0
109	10499	3	0
109	15967	4	0
109	21435	5	0
109	26903	6	0
109	32371	7	0
109	37839	8	0
109	43307	9	0
109	48776	10	0
109	54380	11	0
109	59918	12	0
109	65456	13	0
109	70994	14	0
109	76532	15	0
109	82070	16	0
109	87608	17	0
109	93146	18	0
109	98684	19	0
109	104222	20	0
109	109760	21	0
109	115298	22	0
109	120836	23	0
109	126374	24	0
109	131912	25	0
109	137450	26	0
109	142988	27	0
109	148526	28	0
109	154064	29	0
109	159602	30	0
109	165140	31	0
109	170678	32	0
109	176216	33	0
109	181754	34	0
109	187292	35	0
109	192830	36	0
109	198368	37	0
109	203906	38	0
109	209444	39	0
109	214982	40	0
109	220520	41	0
109	226058	42	0
109	231687	43	0
109	237215	44	0
109	242743	45	0
109	248271	46	0
109	253799	47	0
109	259327	48	0
109	264944	49	0
109	270462	50	0
109	275980	51	0
109	281498	52	0
109	287016	53	0
109	292625	54	0
109	298133	55	0
109	303641	56	0
109	309149	57	0
109	314657	58	0
109	320255	59	0
109	325753	60	0
109	331251	61	0
109	336749	62	0
109	342247	63	0
109	347831	64	0
109	353319	65	0
109	358807	66	0
109	364295	67	0
109	369874	68	0
109	375352	69	0
109	380830	70	0
109	386308	71	0
109	391786	72	0
109	397999	73	0
109	403467	74	0
109	408935	75	0
109	414403	76	0
109	419871	77	0
109	425339	78	0
109	430807	79	0
109	436275	80	0
109	441743	81	0
109	447211	82	0
109	452679	83	0
109	458147	84	0
109	463615	85	0
109	469083	86	0
109	474551	87	0
109	480019	88	0
109	485487	89	0
109	490955	90	0
109	496423	91	0
109	501891	92	0
109	507359	93	0
109	512827	94	0
109	518295	95	0
109	523763	96	0
109	529231	97	0
109	534699	98	0
109	540167	99	0
109	545635	100	0
110	5032	2	6
110	10500	3	6
110	15968	4	6
110	21436	5	6
110	26904	6	6
110	32372	7	6
110	37840	8	6
110	43308	9	6
110	48777	10	6
110	54381	11	6
110	59919	12	6
110	65457	13	6
110	70995	14	6
110	76533	15	6
110	82071	16	6
110	87609	17	6
110	93147	18	6
110	98685	19	6
110	104223	20	6
110	109761	21	6
110	115299	22	6
110	120837	23	6
110	126375	24	6
110	131913	25	6
110	137451	26	6
110	142989	27	6
110	148527	28	6
110	154065	29	6
110	159603	30	6
110	165141	31	6
110	170679	32	6
110	176217	33	6
110	181755	34	6
110	187293	35	6
110	192831	36	6
110	198369	37	6
110	203907	38	6
110	209445	39	6
110	214983	40	6
110	220521	41	6
110	226059	42	6
110	231688	43	6
110	237216	44	6
110	242744	45	6
110	248272	46	6
110	253800	47	6
110	259328	48	6
110	264945	49	6
110	270463	50	6
110	275981	51	6
110	281499	52	6
110	287017	53	6
110	292626	54	6
110	298134	55	6
110	303642	56	6
110	309150	57	6
110	314658	58	6
110	320256	59	6
110	325754	60	6
110	331252	61	6
110	336750	62	6
110	342248	63	6
110	347832	64	6
110	353320	65	6
110	358808	66	6
110	364296	67	6
110	369875	68	6
110	375353	69	6
110	380831	70	6
110	386309	71	6
110	391787	72	6
110	398000	73	6
110	403468	74	6
110	408936	75	6
110	414404	76	6
110	419872	77	6
110	425340	78	6
110	430808	79	6
110	436276	80	6
110	441744	81	6
110	447212	82	6
110	452680	83	6
110	458148	84	6
110	463616	85	6
110	469084	86	6
110	474552	87	6
110	480020	88	6
110	485488	89	6
110	490956	90	6
110	496424	91	6
110	501892	92	6
110	507360	93	6
110	512828	94	6
110	518296	95	6
110	523764	96	6
110	529232	97	6
110	534700	98	6
110	540168	99	6
110	545636	100	6
111	5032	2	0.022473
111	10500	3	0.02497
111	15968	4	0.02497
111	21436	5	0.02497
111	26904	6	0.02497
111	32372	7	0.02497
111	37840	8	0.02497
111	43308	9	0.02497
111	48777	10	0.02497
111	54381	11	0.025018
111	59919	12	0.02497
111	65457	13	0.02497
111	70995	14	0.02497
111	76533	15	0.02497
111	82071	16	0.02497
111	87609	17	0.02497
111	93147	18	0.02497
111	98685	19	0.02497
111	104223	20	0.02497
111	109761	21	0.02497
111	115299	22	0.02497
111	120837	23	0.02497
111	126375	24	0.02497
111	131913	25	0.02497
111	137451	26	0.02497
111	142989	27	0.02497
111	148527	28	0.02497
111	154065	29	0.02497
111	159603	30	0.02497
111	165141	31	0.02497
111	170679	32	0.02497
111	176217	33	0.02497
111	181755	34	0.02497
111	187293	35	0.02497
111	192831	36	0.02497
111	198369	37	0.02497
111	203907	38	0.02497
111	209445	39	0.02497
111	214983	40	0.02497
111	220521	41	0.02497
111	226059	42	0.02497
111	231688	43	0.025082
111	237216	44	0.02497
111	242744	45	0.02497
111	248272	46	0.02497
111	253800	47	0.02497
111	259328	48	0.02497
111	264945	49	0.025082
111	270463	50	0.02497
111	275981	51	0.02497
111	281499	52	0.02497
111	287017	53	0.02497
111	292626	54	0.025082
111	298134	55	0.02497
111	303642	56	0.02497
111	309150	57	0.02497
111	314658	58	0.02497
111	320256	59	0.025082
111	325754	60	0.02497
111	331252	61	0.02497
111	336750	62	0.02497
111	342248	63	0.02497
111	347832	64	0.025082
111	353320	65	0.02497
111	358808	66	0.02497
111	364296	67	0.02497
111	369875	68	0.025115558968
111	375353	69	0.02497
111	380831	70	0.02497
111	386309	71	0.02497
111	391787	72	0.02497
111	398000	73	0.025898
111	403468	74	0.02497
111	408936	75	0.02497
111	414404	76	0.02497
111	419872	77	0.02497
111	425340	78	0.02497
111	430808	79	0.02497
111	436276	80	0.02497
111	441744	81	0.02497
111	447212	82	0.02497
111	452680	83	0.02497
111	458148	84	0.02497
111	463616	85	0.02497
111	469084	86	0.02497
111	474552	87	0.02497
111	480020	88	0.02497
111	485488	89	0.02497
111	490956	90	0.02497
111	496424	91	0.02497
111	501892	92	0.02497
111	507360	93	0.02497
111	512828	94	0.02497
111	518296	95	0.02497
111	523764	96	0.02497
111	529232	97	0.02497
111	534700	98	0.02497
111	540168	99	0.02497
111	545636	100	0.02497
112	5032	2	0
112	10500	3	0
112	15968	4	0
112	21436	5	0
112	26904	6	0
112	32372	7	0
112	37840	8	0
112	43308	9	0
112	48777	10	0
112	54381	11	0
112	59919	12	0
112	65457	13	0
112	70995	14	0
112	76533	15	0
112	82071	16	0
112	87609	17	0
112	93147	18	0
112	98685	19	0
112	104223	20	0
112	109761	21	0
112	115299	22	0
112	120837	23	0
112	126375	24	0
112	131913	25	0
112	137451	26	0
112	142989	27	0
112	148527	28	0
112	154065	29	0
112	159603	30	0
112	165141	31	0
112	170679	32	0
112	176217	33	0
112	181755	34	0
112	187293	35	0
112	192831	36	0
112	198369	37	0
112	203907	38	0
112	209445	39	0
112	214983	40	0
112	220521	41	0
112	226059	42	0
112	231688	43	0
112	237216	44	0
112	242744	45	0
112	248272	46	0
112	253800	47	0
112	259328	48	0
112	264945	49	0
112	270463	50	0
112	275981	51	0
112	281499	52	0
112	287017	53	0
112	292626	54	0
112	298134	55	0
112	303642	56	0
112	309150	57	0
112	314658	58	0
112	320256	59	0
112	325754	60	0
112	331252	61	0
112	336750	62	0
112	342248	63	0
112	347832	64	0
112	353320	65	0
112	358808	66	0
112	364296	67	0
112	369875	68	0
112	375353	69	0
112	380831	70	0
112	386309	71	0
112	391787	72	0
112	398000	73	0
112	403468	74	0
112	408936	75	0
112	414404	76	0
112	419872	77	0
112	425340	78	0
112	430808	79	0
112	436276	80	0
112	441744	81	0
112	447212	82	0
112	452680	83	0
112	458148	84	0
112	463616	85	0
112	469084	86	0
112	474552	87	0
112	480020	88	0
112	485488	89	0
112	490956	90	0
112	496424	91	0
112	501892	92	0
112	507360	93	0
112	512828	94	0
112	518296	95	0
112	523764	96	0
112	529232	97	0
112	534700	98	0
112	540168	99	0
112	545636	100	0
113	5033	2	7
113	10501	3	7
113	15969	4	7
113	21437	5	7
113	26905	6	7
113	32373	7	7
113	37841	8	7
113	43309	9	7
113	48778	10	7
113	54382	11	7
113	59920	12	7
113	65458	13	7
113	70996	14	7
113	76534	15	7
113	82072	16	7
113	87610	17	7
113	93148	18	7
113	98686	19	7
113	104224	20	7
113	109762	21	7
113	115300	22	7
113	120838	23	7
113	126376	24	7
113	131914	25	7
113	137452	26	7
113	142990	27	7
113	148528	28	7
113	154066	29	7
113	159604	30	7
113	165142	31	7
113	170680	32	7
113	176218	33	7
113	181756	34	7
113	187294	35	7
113	192832	36	7
113	198370	37	7
113	203908	38	7
113	209446	39	7
113	214984	40	7
113	220522	41	7
113	226060	42	7
113	231689	43	7
113	237217	44	7
113	242745	45	7
113	248273	46	7
113	253801	47	7
113	259329	48	7
113	264946	49	7
113	270464	50	7
113	275982	51	7
113	281500	52	7
113	287018	53	7
113	292627	54	7
113	298135	55	7
113	303643	56	7
113	309151	57	7
113	314659	58	7
113	320257	59	7
113	325755	60	7
113	331253	61	7
113	336751	62	7
113	342249	63	7
113	347833	64	7
113	353321	65	7
113	358809	66	7
113	364297	67	7
113	369876	68	7
113	375354	69	7
113	380832	70	7
113	386310	71	7
113	391788	72	7
113	398001	73	7
113	403469	74	7
113	408937	75	7
113	414405	76	7
113	419873	77	7
113	425341	78	7
113	430809	79	7
113	436277	80	7
113	441745	81	7
113	447213	82	7
113	452681	83	7
113	458149	84	7
113	463617	85	7
113	469085	86	7
113	474553	87	7
113	480021	88	7
113	485489	89	7
113	490957	90	7
113	496425	91	7
113	501893	92	7
113	507361	93	7
113	512829	94	7
113	518297	95	7
113	523765	96	7
113	529233	97	7
113	534701	98	7
113	540169	99	7
113	545637	100	7
114	5033	2	0.022473
114	10501	3	0.02497
114	15969	4	0.02497
114	21437	5	0.02497
114	26905	6	0.02497
114	32373	7	0.02497
114	37841	8	0.02497
114	43309	9	0.02497
114	48778	10	0.02497
114	54382	11	0.025018
114	59920	12	0.02497
114	65458	13	0.02497
114	70996	14	0.02497
114	76534	15	0.02497
114	82072	16	0.02497
114	87610	17	0.02497
114	93148	18	0.02497
114	98686	19	0.02497
114	104224	20	0.02497
114	109762	21	0.02497
114	115300	22	0.02497
114	120838	23	0.02497
114	126376	24	0.02497
114	131914	25	0.02497
114	137452	26	0.02497
114	142990	27	0.02497
114	148528	28	0.02497
114	154066	29	0.02497
114	159604	30	0.02497
114	165142	31	0.02497
114	170680	32	0.02497
114	176218	33	0.02497
114	181756	34	0.02497
114	187294	35	0.02497
114	192832	36	0.02497
114	198370	37	0.02497
114	203908	38	0.02497
114	209446	39	0.02497
114	214984	40	0.02497
114	220522	41	0.02497
114	226060	42	0.02497
114	231689	43	0.025082
114	237217	44	0.02497
114	242745	45	0.02497
114	248273	46	0.02497
114	253801	47	0.02497
114	259329	48	0.02497
114	264946	49	0.025082
114	270464	50	0.02497
114	275982	51	0.02497
114	281500	52	0.02497
114	287018	53	0.02497
114	292627	54	0.025082
114	298135	55	0.02497
114	303643	56	0.02497
114	309151	57	0.02497
114	314659	58	0.02497
114	320257	59	0.025082
114	325755	60	0.02497
114	331253	61	0.02497
114	336751	62	0.02497
114	342249	63	0.02497
114	347833	64	0.025082
114	353321	65	0.02497
114	358809	66	0.02497
114	364297	67	0.02497
114	369876	68	0.025082
114	375354	69	0.02497
114	380832	70	0.02497
114	386310	71	0.02497
114	391788	72	0.02497
114	398001	73	0.02593165228
114	403469	74	0.02497
114	408937	75	0.02497
114	414405	76	0.02497
114	419873	77	0.02497
114	425341	78	0.02497
114	430809	79	0.02497
114	436277	80	0.02497
114	441745	81	0.02497
114	447213	82	0.02497
114	452681	83	0.02497
114	458149	84	0.02497
114	463617	85	0.02497
114	469085	86	0.02497
114	474553	87	0.02497
114	480021	88	0.02497
114	485489	89	0.02497
114	490957	90	0.02497
114	496425	91	0.02497
114	501893	92	0.02497
114	507361	93	0.02497
114	512829	94	0.02497
114	518297	95	0.02497
114	523765	96	0.02497
114	529233	97	0.02497
114	534701	98	0.02497
114	540169	99	0.02497
114	545637	100	0.02497
115	5033	2	0
115	10501	3	0
115	15969	4	0
115	21437	5	0
115	26905	6	0
115	32373	7	0
115	37841	8	0
115	43309	9	0
115	48778	10	0
115	54382	11	0
115	59920	12	0
115	65458	13	0
115	70996	14	0
115	76534	15	0
115	82072	16	0
115	87610	17	0
115	93148	18	0
115	98686	19	0
115	104224	20	0
115	109762	21	0
115	115300	22	0
115	120838	23	0
115	126376	24	0
115	131914	25	0
115	137452	26	0
115	142990	27	0
115	148528	28	0
115	154066	29	0
115	159604	30	0
115	165142	31	0
115	170680	32	0
115	176218	33	0
115	181756	34	0
115	187294	35	0
115	192832	36	0
115	198370	37	0
115	203908	38	0
115	209446	39	0
115	214984	40	0
115	220522	41	0
115	226060	42	0
115	231689	43	0
115	237217	44	0
115	242745	45	0
115	248273	46	0
115	253801	47	0
115	259329	48	0
115	264946	49	0
115	270464	50	0
115	275982	51	0
115	281500	52	0
115	287018	53	0
115	292627	54	0
115	298135	55	0
115	303643	56	0
115	309151	57	0
115	314659	58	0
115	320257	59	0
115	325755	60	0
115	331253	61	0
115	336751	62	0
115	342249	63	0
115	347833	64	0
115	353321	65	0
115	358809	66	0
115	364297	67	0
115	369876	68	0
115	375354	69	0
115	380832	70	0
115	386310	71	0
115	391788	72	0
115	398001	73	0
115	403469	74	0
115	408937	75	0
115	414405	76	0
115	419873	77	0
115	425341	78	0
115	430809	79	0
115	436277	80	0
115	441745	81	0
115	447213	82	0
115	452681	83	0
115	458149	84	0
115	463617	85	0
115	469085	86	0
115	474553	87	0
115	480021	88	0
115	485489	89	0
115	490957	90	0
115	496425	91	0
115	501893	92	0
115	507361	93	0
115	512829	94	0
115	518297	95	0
115	523765	96	0
115	529233	97	0
115	534701	98	0
115	540169	99	0
115	545637	100	0

