version 3
run BreakRanksNoGui-20-20240708-18:11:17-157713
attr configname BreakRanksNoGui
attr datetime 20240708-18:11:17
attr datetimef 20240708-181117
attr experiment BreakRanksNoGui
attr inifile omnetpp.ini
attr iterationvars "$nCars=8, $platoonSize=8, $nLanes=1, $ploegH=0.5, $controller=1, $headway=0.1, $leaderHeadway=1.2, $leaderSpeed=130, $breakRanksSafetyDistance=10, $minSpeed=120, $maxSpeed=140, $beaconInterval=0.1, $priority=4, $packetSize=200, $sController=\"CACC\", $0=2, $1=0"
attr iterationvarsd nCars=8/platoonSize=8/nLanes=1/ploegH=0.5/controller=1/headway=0.1/leaderHeadway=1.2/leaderSpeed=130/breakRanksSafetyDistance=10/minSpeed=120/maxSpeed=140/beaconInterval=0.1/priority=4/packetSize=200/sController=CACC/2/0
attr iterationvarsf nCars=8,platoonSize=8,nLanes=1,ploegH=0.5,controller=1,headway=0.1,leaderHeadway=1.2,leaderSpeed=130,breakRanksSafetyDistance=10,minSpeed=120,maxSpeed=140,beaconInterval=0.1,priority=4,packetSize=200,sController=CACC,2,0-
attr measurement "$nCars=8, $platoonSize=8, $nLanes=1, $ploegH=0.5, $controller=1, $headway=0.1, $leaderHeadway=1.2, $leaderSpeed=130, $breakRanksSafetyDistance=10, $minSpeed=120, $maxSpeed=140, $beaconInterval=0.1, $priority=4, $packetSize=200, $sController=\"CACC\", $0=2, $1=0"
attr network Highway
attr processid 157713
attr repetition 0
attr replication #0
attr resultdir results
attr runnumber 20
attr seedset 0
itervar beaconInterval 0.1
itervar breakRanksSafetyDistance 10
itervar controller 1
itervar headway 0.1
itervar leaderHeadway 1.2
itervar leaderSpeed 130
itervar maxSpeed 140
itervar minSpeed 120
itervar nCars 8
itervar nLanes 1
itervar packetSize 200
itervar platoonSize 8
itervar ploegH 0.5
itervar priority 4
itervar sController "\"CACC\""
config image-path ../../../veins/images
config repeat 10
config extends BreakRanks
config *.manager.command "\"sumo\""
config *.manager.ignoreGuiCommands true
config output-vector-file results/BreakRanks_1_0.1_130_10/result_0.vec
config output-scalar-file results/BreakRanks_1_0.1_130_10/result_0.sca
config extends Platooning
config *.node[*].scenario_type "\"BreakRanksScenario\""
config *.manager.command "\"sumo-gui\""
config *.node[*].scenario_type "\"SimpleScenario\""
config cmdenv-express-mode true
config cmdenv-autoflush true
config cmdenv-status-frequency 15s
config num-rngs 6
config network Highway
config debug-on-errors true
config print-undisposed true
config *.playgroundSizeX 65000m
config *.playgroundSizeY 25000m
config *.playgroundSizeZ 50m
config sim-time-limit "100 s"
config *.annotations.draw false
config *.obstacles.debug false
config *.world.useTorus false
config *.world.use2D false
config *.manager.updateInterval 0.01s
config *.manager.host "\"localhost\""
config *.manager.moduleType "\"org.car2x.plexe.PlatoonCar\""
config *.manager.moduleName "\"node\""
config *.manager.moduleDisplayString "\"\""
config *.manager.autoShutdown true
config *.manager.margin 25
config *.connectionManager.sendDirect true
config *.connectionManager.maxInterfDist 2600m
config *.connectionManager.drawMaxIntfDist false
config *.**.nic.mac1609_4.useServiceChannel false
config *.**.nic.mac1609_4.txPower 100mW
config *.**.nic.mac1609_4.bitrate 6Mbps
config *.**.nic.mac1609_4.useAcks true
config *.**.nic.mac1609_4.ackErrorRate 0.0
config *.**.nic.mac1609_4.frameErrorRate 0.0
config *.**.nic.phy80211p.minPowerLevel -94dBm
config *.**.nic.phy80211p.maxTXPower 100mW
config *.**.nic.phy80211p.useNoiseFloor true
config *.**.nic.phy80211p.noiseFloor -95dBm
config *.**.nic.phy80211p.decider "xmldoc(\"config.xml\")"
config *.**.nic.phy80211p.analogueModels "xmldoc(\"config.xml\")"
config *.**.nic.phy80211p.usePropagationDelay true
config *.node[*].mobility.x 0
config *.node[*].mobility.y 0
config *.node[*].mobility.z 1.895
config seed-set 0
config **.seed 0
config *.node[*].prot.rng-0 2
config *.node[*].appl.rng-0 3
config *.node[*].scenario.rng-0 4
config **.traffic.rng-0 5
config *.manager.configFile "\"./sumocfg/freeway.sumo.cfg\""
config *.manager.launchConfig "xmldoc(\"./sumocfg/freeway.launchd.xml\")"
config **.numberOfCars 8
config **.numberOfCarsPerPlatoon 8
config **.numberOfLanes 1
config *.node[*].helper_type "\"PositionHelper\""
config *.node[*].scenario.caccC1 0.5
config *.node[*].scenario.caccXi 1
config *.node[*].scenario.caccOmegaN "0.2 Hz"
config *.node[*].scenario.caccSpacing "2 m"
config *.node[*].scenario.engineTau "0.5 s"
config *.node[*].scenario.ploegH 0.5s
config *.node[*].scenario.ploegKp 0.2
config *.node[*].scenario.ploegKd 0.7
config *.node[*].scenario.useRealisticEngine false
config *.node[*].scenario.useControllerAcceleration true
config *.node[*].scenario.nLanes 1
config **.numericController 1
config **.headway 0.1s
config *.node[*].scenario.accHeadway 0.1s
config *.node[*].scenario.leaderHeadway 1.2s
config *.node[*].scenario.leaderSpeed 130kmph
config *.node[*].appl_type "\"SimplePlatooningApp\""
config *.node[*].appl.*.scalar-recording true
config *.node[*].appl.*.vector-recording true
config *.node[0].appl.breakRanksSafetyDistance 10m
config *.node[*].appl.minSpeed 120kmph
config *.node[*].appl.maxSpeed 140kmph
config *.node[*].protocol_type "\"SimplePlatooningBeaconing\""
config *.node[*].prot.*.scalar-recording true
config *.node[*].prot.*.vector-recording true
config *.node[*].prot.beaconingInterval 0.1s
config *.node[*].prot.priority 4
config *.node[*].prot.packetSize 200
config **.traffic_type "\"PlatoonsTrafficManager\""
config **.traffic.platoonInsertTime "1 s"
config **.traffic.platoonInsertSpeed 130kmph
config **.traffic.nCars 8
config **.traffic.platoonSize 8
config **.traffic.nLanes 1
config **.traffic.platooningVType "\"vtypeauto\""
config **.traffic.controller "\"CACC\""
config **.traffic.platoonInsertDistance 2m
config **.traffic.platoonInsertHeadway 0s
config **.traffic.platoonLeaderHeadway 1.2s
config **.scalar-recording false
config **.vector-recording false
config output-vector-file results/BreakRanksNoGui_1_0.1_130_10/result_0.vec
config output-scalar-file results/BreakRanksNoGui_1_0.1_130_10/result_0.sca

vector 0 Highway.node[0].appl distance ETV
vector 1 Highway.node[0].appl relativeSpeed ETV
vector 2 Highway.node[0].appl nodeId ETV
vector 3 Highway.node[0].appl acceleration ETV
vector 4 Highway.node[0].appl controllerAcceleration ETV
vector 5 Highway.node[0].appl speed ETV
vector 6 Highway.node[0].appl posx ETV
vector 7 Highway.node[0].appl posy ETV
vector 8 Highway.node[1].appl distance ETV
vector 9 Highway.node[1].appl relativeSpeed ETV
vector 10 Highway.node[1].appl nodeId ETV
vector 11 Highway.node[1].appl acceleration ETV
vector 12 Highway.node[1].appl controllerAcceleration ETV
vector 13 Highway.node[1].appl speed ETV
vector 14 Highway.node[1].appl posx ETV
vector 15 Highway.node[1].appl posy ETV
vector 16 Highway.node[2].appl distance ETV
vector 17 Highway.node[2].appl relativeSpeed ETV
vector 18 Highway.node[2].appl nodeId ETV
vector 19 Highway.node[2].appl acceleration ETV
vector 20 Highway.node[2].appl controllerAcceleration ETV
vector 21 Highway.node[2].appl speed ETV
vector 22 Highway.node[2].appl posx ETV
vector 23 Highway.node[2].appl posy ETV
vector 24 Highway.node[3].appl distance ETV
vector 25 Highway.node[3].appl relativeSpeed ETV
vector 26 Highway.node[3].appl nodeId ETV
vector 27 Highway.node[3].appl acceleration ETV
vector 28 Highway.node[3].appl controllerAcceleration ETV
vector 29 Highway.node[3].appl speed ETV
vector 30 Highway.node[3].appl posx ETV
vector 31 Highway.node[3].appl posy ETV
vector 32 Highway.node[4].appl distance ETV
vector 33 Highway.node[4].appl relativeSpeed ETV
vector 34 Highway.node[4].appl nodeId ETV
vector 35 Highway.node[4].appl acceleration ETV
vector 36 Highway.node[4].appl controllerAcceleration ETV
vector 37 Highway.node[4].appl speed ETV
vector 38 Highway.node[4].appl posx ETV
vector 39 Highway.node[4].appl posy ETV
vector 40 Highway.node[5].appl distance ETV
vector 41 Highway.node[5].appl relativeSpeed ETV
vector 42 Highway.node[5].appl nodeId ETV
vector 43 Highway.node[5].appl acceleration ETV
vector 44 Highway.node[5].appl controllerAcceleration ETV
vector 45 Highway.node[5].appl speed ETV
vector 46 Highway.node[5].appl posx ETV
vector 47 Highway.node[5].appl posy ETV
vector 48 Highway.node[6].appl distance ETV
vector 49 Highway.node[6].appl relativeSpeed ETV
vector 50 Highway.node[6].appl nodeId ETV
vector 51 Highway.node[6].appl acceleration ETV
vector 52 Highway.node[6].appl controllerAcceleration ETV
vector 53 Highway.node[6].appl speed ETV
vector 54 Highway.node[6].appl posx ETV
vector 55 Highway.node[6].appl posy ETV
vector 56 Highway.node[7].appl distance ETV
vector 57 Highway.node[7].appl relativeSpeed ETV
vector 58 Highway.node[7].appl nodeId ETV
vector 59 Highway.node[7].appl acceleration ETV
vector 60 Highway.node[7].appl controllerAcceleration ETV
vector 61 Highway.node[7].appl speed ETV
vector 62 Highway.node[7].appl posx ETV
vector 63 Highway.node[7].appl posy ETV
vector 64 Highway.node[3].prot frontDelay ETV
vector 65 Highway.node[3].prot frontDelayId ETV
vector 66 Highway.node[2].prot frontDelay ETV
vector 67 Highway.node[2].prot frontDelayId ETV
vector 68 Highway.node[7].prot frontDelay ETV
vector 69 Highway.node[7].prot frontDelayId ETV
vector 70 Highway.node[1].prot leaderDelay ETV
vector 71 Highway.node[1].prot leaderDelayId ETV
vector 72 Highway.node[1].prot frontDelay ETV
vector 73 Highway.node[1].prot frontDelayId ETV
vector 74 Highway.node[2].prot leaderDelay ETV
vector 75 Highway.node[2].prot leaderDelayId ETV
vector 76 Highway.node[3].prot leaderDelay ETV
vector 77 Highway.node[3].prot leaderDelayId ETV
vector 78 Highway.node[4].prot leaderDelay ETV
vector 79 Highway.node[4].prot leaderDelayId ETV
vector 80 Highway.node[5].prot leaderDelay ETV
vector 81 Highway.node[5].prot leaderDelayId ETV
vector 82 Highway.node[6].prot leaderDelay ETV
vector 83 Highway.node[6].prot leaderDelayId ETV
vector 84 Highway.node[7].prot leaderDelay ETV
vector 85 Highway.node[7].prot leaderDelayId ETV
vector 86 Highway.node[5].prot frontDelay ETV
vector 87 Highway.node[5].prot frontDelayId ETV
vector 88 Highway.node[4].prot frontDelay ETV
vector 89 Highway.node[4].prot frontDelayId ETV
vector 90 Highway.node[6].prot frontDelay ETV
vector 91 Highway.node[6].prot frontDelayId ETV
vector 92 Highway.node[0].prot nodeId ETV
vector 93 Highway.node[0].prot busyTime ETV
vector 94 Highway.node[0].prot collisions ETV
vector 95 Highway.node[1].prot nodeId ETV
vector 96 Highway.node[1].prot busyTime ETV
vector 97 Highway.node[1].prot collisions ETV
vector 98 Highway.node[2].prot nodeId ETV
vector 99 Highway.node[2].prot busyTime ETV
vector 100 Highway.node[2].prot collisions ETV
vector 101 Highway.node[3].prot nodeId ETV
vector 102 Highway.node[3].prot busyTime ETV
vector 103 Highway.node[3].prot collisions ETV
vector 104 Highway.node[4].prot nodeId ETV
vector 105 Highway.node[4].prot busyTime ETV
vector 106 Highway.node[4].prot collisions ETV
vector 107 Highway.node[5].prot nodeId ETV
vector 108 Highway.node[5].prot busyTime ETV
vector 109 Highway.node[5].prot collisions ETV
vector 110 Highway.node[6].prot nodeId ETV
vector 111 Highway.node[6].prot busyTime ETV
vector 112 Highway.node[6].prot collisions ETV
vector 113 Highway.node[7].prot nodeId ETV
vector 114 Highway.node[7].prot busyTime ETV
vector 115 Highway.node[7].prot collisions ETV
0	113	1.11	-1
0	659	1.21	-1
0	1205	1.31	-1
0	1751	1.41	-1
0	2297	1.51	-1
0	2843	1.61	-1
0	3389	1.71	-1
0	3935	1.81	-1
0	4481	1.91	-1
0	5035	2.01	-1
0	5581	2.11	-1
0	6127	2.21	-1
0	6673	2.31	-1
0	7219	2.41	-1
0	7765	2.51	-1
0	8311	2.61	-1
0	8857	2.71	-1
0	9403	2.81	-1
0	9949	2.91	-1
0	10503	3.01	-1
0	11049	3.11	-1
0	11595	3.21	-1
0	12141	3.31	-1
0	12687	3.41	-1
0	13233	3.51	-1
0	13779	3.61	-1
0	14325	3.71	-1
0	14871	3.81	-1
0	15417	3.91	-1
0	15971	4.01	-1
0	16517	4.11	-1
0	17063	4.21	-1
0	17609	4.31	-1
0	18155	4.41	-1
0	18701	4.51	-1
0	19247	4.61	-1
0	19793	4.71	-1
0	20339	4.81	-1
0	20885	4.91	-1
0	21439	5.01	-1
0	21985	5.11	-1
0	22531	5.21	-1
0	23077	5.31	-1
0	23623	5.41	-1
0	24169	5.51	-1
0	24715	5.61	-1
0	25261	5.71	-1
0	25807	5.81	-1
0	26353	5.91	-1
0	26907	6.01	-1
0	27453	6.11	-1
0	27999	6.21	-1
0	28545	6.31	-1
0	29091	6.41	-1
0	29637	6.51	-1
0	30183	6.61	-1
0	30729	6.71	-1
0	31275	6.81	-1
0	31821	6.91	-1
0	32375	7.01	-1
0	32921	7.11	-1
0	33467	7.21	-1
0	34013	7.31	-1
0	34559	7.41	-1
0	35105	7.51	-1
0	35651	7.61	-1
0	36197	7.71	-1
0	36743	7.81	-1
0	37289	7.91	-1
0	37843	8.01	-1
0	38389	8.11	-1
0	38935	8.21	-1
0	39481	8.31	-1
0	40027	8.41	-1
0	40573	8.51	-1
0	41119	8.61	-1
0	41665	8.71	-1
0	42211	8.81	-1
0	42757	8.91	-1
0	43311	9.01	-1
0	43857	9.11	-1
0	44403	9.21	-1
0	44949	9.31	-1
0	45495	9.41	-1
0	46041	9.51	-1
0	46587	9.61	-1
0	47133	9.71	-1
0	47679	9.81	-1
0	48225	9.91	-1
0	48853	10.01	-1
0	49406	10.11	-1
0	49959	10.21	-1
0	50512	10.31	-1
0	51065	10.41	-1
0	51618	10.51	-1
0	52171	10.61	-1
0	52724	10.71	-1
0	53277	10.81	-1
0	53830	10.91	-1
0	54391	11.01	-1
0	54944	11.11	-1
0	55497	11.21	-1
0	56050	11.31	-1
0	56603	11.41	-1
0	57156	11.51	-1
0	57709	11.61	-1
0	58262	11.71	-1
0	58815	11.81	-1
0	59368	11.91	-1
0	59929	12.01	-1
0	60482	12.11	-1
0	61035	12.21	-1
0	61588	12.31	-1
0	62141	12.41	-1
0	62694	12.51	-1
0	63247	12.61	-1
0	63800	12.71	-1
0	64353	12.81	-1
0	64906	12.91	-1
0	65467	13.01	-1
0	66020	13.11	-1
0	66573	13.21	-1
0	67126	13.31	-1
0	67679	13.41	-1
0	68232	13.51	-1
0	68785	13.61	-1
0	69338	13.71	-1
0	69891	13.81	-1
0	70444	13.91	-1
0	71005	14.01	-1
0	71558	14.11	-1
0	72111	14.21	-1
0	72664	14.31	-1
0	73217	14.41	-1
0	73770	14.51	-1
0	74323	14.61	-1
0	74876	14.71	-1
0	75429	14.81	-1
0	75982	14.91	-1
0	76543	15.01	-1
0	77096	15.11	-1
0	77649	15.21	-1
0	78202	15.31	-1
0	78755	15.41	-1
0	79308	15.51	-1
0	79861	15.61	-1
0	80414	15.71	-1
0	80967	15.81	-1
0	81520	15.91	-1
0	82081	16.01	-1
0	82634	16.11	-1
0	83187	16.21	-1
0	83740	16.31	-1
0	84293	16.41	-1
0	84846	16.51	-1
0	85399	16.61	-1
0	85952	16.71	-1
0	86505	16.81	-1
0	87058	16.91	-1
0	87619	17.01	-1
0	88172	17.11	-1
0	88725	17.21	-1
0	89278	17.31	-1
0	89831	17.41	-1
0	90384	17.51	-1
0	90937	17.61	-1
0	91490	17.71	-1
0	92043	17.81	-1
0	92596	17.91	-1
0	93157	18.01	-1
0	93710	18.11	-1
0	94263	18.21	-1
0	94816	18.31	-1
0	95369	18.41	-1
0	95922	18.51	-1
0	96475	18.61	-1
0	97028	18.71	-1
0	97581	18.81	-1
0	98134	18.91	-1
0	98695	19.01	-1
0	99248	19.11	-1
0	99801	19.21	-1
0	100354	19.31	-1
0	100907	19.41	-1
0	101460	19.51	-1
0	102013	19.61	-1
0	102566	19.71	-1
0	103119	19.81	-1
0	103672	19.91	-1
0	104233	20.01	-1
0	104786	20.11	-1
0	105339	20.21	-1
0	105892	20.31	-1
0	106445	20.41	-1
0	106998	20.51	-1
0	107551	20.61	-1
0	108104	20.71	-1
0	108657	20.81	-1
0	109210	20.91	-1
0	109771	21.01	-1
0	110324	21.11	-1
0	110877	21.21	-1
0	111430	21.31	-1
0	111983	21.41	-1
0	112536	21.51	-1
0	113089	21.61	-1
0	113642	21.71	-1
0	114195	21.81	-1
0	114748	21.91	-1
0	115309	22.01	-1
0	115862	22.11	-1
0	116415	22.21	-1
0	116968	22.31	-1
0	117521	22.41	-1
0	118074	22.51	-1
0	118627	22.61	-1
0	119180	22.71	-1
0	119733	22.81	-1
0	120286	22.91	-1
0	120847	23.01	-1
0	121400	23.11	-1
0	121953	23.21	-1
0	122506	23.31	-1
0	123059	23.41	-1
0	123612	23.51	-1
0	124165	23.61	-1
0	124718	23.71	-1
0	125271	23.81	-1
0	125824	23.91	-1
0	126385	24.01	-1
0	126938	24.11	-1
0	127491	24.21	-1
0	128044	24.31	-1
0	128597	24.41	-1
0	129150	24.51	-1
0	129703	24.61	-1
0	130256	24.71	-1
0	130809	24.81	-1
0	131362	24.91	-1
0	131923	25.01	-1
0	132476	25.11	-1
0	133029	25.21	-1
0	133582	25.31	-1
0	134135	25.41	-1
0	134688	25.51	-1
0	135241	25.61	-1
0	135794	25.71	-1
0	136347	25.81	-1
0	136900	25.91	-1
0	137461	26.01	-1
0	138014	26.11	-1
0	138567	26.21	-1
0	139120	26.31	-1
0	139673	26.41	-1
0	140226	26.51	-1
0	140779	26.61	-1
0	141332	26.71	-1
0	141885	26.81	-1
0	142438	26.91	-1
0	142999	27.01	-1
0	143552	27.11	-1
0	144105	27.21	-1
0	144658	27.31	-1
0	145211	27.41	-1
0	145764	27.51	-1
0	146317	27.61	-1
0	146870	27.71	-1
0	147423	27.81	-1
0	147976	27.91	-1
0	148537	28.01	-1
0	149090	28.11	-1
0	149643	28.21	-1
0	150196	28.31	-1
0	150749	28.41	-1
0	151302	28.51	-1
0	151855	28.61	-1
0	152408	28.71	-1
0	152961	28.81	-1
0	153514	28.91	-1
0	154075	29.01	-1
0	154628	29.11	-1
0	155181	29.21	-1
0	155734	29.31	-1
0	156287	29.41	-1
0	156840	29.51	-1
0	157393	29.61	-1
0	157946	29.71	-1
0	158499	29.81	-1
0	159052	29.91	-1
0	159613	30.01	-1
0	160166	30.11	-1
0	160719	30.21	-1
0	161272	30.31	-1
0	161825	30.41	-1
0	162378	30.51	-1
0	162931	30.61	-1
0	163484	30.71	-1
0	164037	30.81	-1
0	164590	30.91	-1
0	165151	31.01	-1
0	165704	31.11	-1
0	166257	31.21	-1
0	166810	31.31	-1
0	167363	31.41	-1
0	167916	31.51	-1
0	168469	31.61	-1
0	169022	31.71	-1
0	169575	31.81	-1
0	170128	31.91	-1
0	170689	32.01	-1
0	171242	32.11	-1
0	171795	32.21	-1
0	172348	32.31	-1
0	172901	32.41	-1
0	173454	32.51	-1
0	174007	32.61	-1
0	174560	32.71	-1
0	175113	32.81	-1
0	175666	32.91	-1
0	176227	33.01	-1
0	176780	33.11	-1
0	177333	33.21	-1
0	177886	33.31	-1
0	178439	33.41	-1
0	178992	33.51	-1
0	179545	33.61	-1
0	180098	33.71	-1
0	180651	33.81	-1
0	181204	33.91	-1
0	181765	34.01	-1
0	182318	34.11	-1
0	182871	34.21	-1
0	183424	34.31	-1
0	183977	34.41	-1
0	184530	34.51	-1
0	185083	34.61	-1
0	185636	34.71	-1
0	186189	34.81	-1
0	186742	34.91	-1
0	187303	35.01	-1
0	187856	35.11	-1
0	188409	35.21	-1
0	188962	35.31	-1
0	189515	35.41	-1
0	190068	35.51	-1
0	190621	35.61	-1
0	191174	35.71	-1
0	191727	35.81	-1
0	192280	35.91	-1
0	192841	36.01	-1
0	193394	36.11	-1
0	193947	36.21	-1
0	194500	36.31	-1
0	195053	36.41	-1
0	195606	36.51	-1
0	196159	36.61	-1
0	196712	36.71	-1
0	197265	36.81	-1
0	197818	36.91	-1
0	198379	37.01	-1
0	198932	37.11	-1
0	199485	37.21	-1
0	200038	37.31	-1
0	200591	37.41	-1
0	201144	37.51	-1
0	201697	37.61	-1
0	202250	37.71	-1
0	202803	37.81	-1
0	203356	37.91	-1
0	203917	38.01	-1
0	204470	38.11	-1
0	205023	38.21	-1
0	205576	38.31	-1
0	206129	38.41	-1
0	206682	38.51	-1
0	207235	38.61	-1
0	207788	38.71	-1
0	208341	38.81	-1
0	208894	38.91	-1
0	209455	39.01	-1
0	210008	39.11	-1
0	210561	39.21	-1
0	211114	39.31	-1
0	211667	39.41	-1
0	212220	39.51	-1
0	212773	39.61	-1
0	213326	39.71	-1
0	213879	39.81	-1
0	214432	39.91	-1
0	214993	40.01	-1
0	215546	40.11	-1
0	216099	40.21	-1
0	216652	40.31	-1
0	217205	40.41	-1
0	217758	40.51	-1
0	218311	40.61	-1
0	218864	40.71	-1
0	219417	40.81	-1
0	219970	40.91	-1
0	220531	41.01	-1
0	221084	41.11	-1
0	221637	41.21	-1
0	222190	41.31	-1
0	222743	41.41	-1
0	223296	41.51	-1
0	223849	41.61	-1
0	224402	41.71	-1
0	224955	41.81	-1
0	225508	41.91	-1
0	226069	42.01	-1
0	226622	42.11	-1
0	227175	42.21	-1
0	227728	42.31	-1
0	228281	42.41	-1
0	228834	42.51	-1
0	229387	42.61	-1
0	230033	42.71	-1
0	230585	42.81	-1
0	231137	42.91	-1
0	231697	43.01	-1
0	232249	43.11	-1
0	232801	43.21	-1
0	233353	43.31	-1
0	233905	43.41	-1
0	234457	43.51	-1
0	235009	43.61	-1
0	235561	43.71	-1
0	236113	43.81	-1
0	236665	43.91	-1
0	237225	44.01	-1
0	237777	44.11	-1
0	238329	44.21	-1
0	238881	44.31	-1
0	239433	44.41	-1
0	239985	44.51	-1
0	240537	44.61	-1
0	241089	44.71	-1
0	241641	44.81	-1
0	242193	44.91	-1
0	242753	45.01	-1
0	243305	45.11	-1
0	243857	45.21	-1
0	244409	45.31	-1
0	244961	45.41	-1
0	245513	45.51	-1
0	246065	45.61	-1
0	246617	45.71	-1
0	247169	45.81	-1
0	247721	45.91	-1
0	248281	46.01	-1
0	248833	46.11	-1
0	249385	46.21	-1
0	249937	46.31	-1
0	250489	46.41	-1
0	251041	46.51	-1
0	251593	46.61	-1
0	252145	46.71	-1
0	252697	46.81	-1
0	253249	46.91	-1
0	253809	47.01	-1
0	254361	47.11	-1
0	254913	47.21	-1
0	255465	47.31	-1
0	256017	47.41	-1
0	256569	47.51	-1
0	257121	47.61	-1
0	257673	47.71	-1
0	258225	47.81	-1
0	258777	47.91	-1
0	259337	48.01	-1
0	259889	48.11	-1
0	260441	48.21	-1
0	260993	48.31	-1
0	261545	48.41	-1
0	262190	48.51	-1
0	262741	48.61	-1
0	263292	48.71	-1
0	263843	48.81	-1
0	264394	48.91	-1
0	264953	49.01	-1
0	265504	49.11	-1
0	266055	49.21	-1
0	266606	49.31	-1
0	267157	49.41	-1
0	267708	49.51	-1
0	268259	49.61	-1
0	268810	49.71	-1
0	269361	49.81	-1
0	269912	49.91	-1
0	270471	50.01	-1
0	271022	50.11	-1
0	271573	50.21	-1
0	272124	50.31	-1
0	272675	50.41	-1
0	273226	50.51	-1
0	273777	50.61	-1
0	274328	50.71	-1
0	274879	50.81	-1
0	275430	50.91	-1
0	275989	51.01	-1
0	276540	51.11	-1
0	277091	51.21	-1
0	277642	51.31	-1
0	278193	51.41	-1
0	278744	51.51	-1
0	279295	51.61	-1
0	279846	51.71	-1
0	280397	51.81	-1
0	280948	51.91	-1
0	281507	52.01	-1
0	282058	52.11	-1
0	282609	52.21	-1
0	283160	52.31	-1
0	283711	52.41	-1
0	284262	52.51	-1
0	284813	52.61	-1
0	285364	52.71	-1
0	285915	52.81	-1
0	286466	52.91	-1
0	287025	53.01	-1
0	287576	53.11	-1
0	288127	53.21	-1
0	288678	53.31	-1
0	289229	53.41	-1
0	289780	53.51	-1
0	290331	53.61	-1
0	290975	53.71	-1
0	291525	53.81	-1
0	292075	53.91	-1
0	292633	54.01	-1
0	293183	54.11	-1
0	293733	54.21	-1
0	294283	54.31	-1
0	294833	54.41	-1
0	295383	54.51	-1
0	295933	54.61	-1
0	296483	54.71	-1
0	297033	54.81	-1
0	297583	54.91	-1
0	298141	55.01	-1
0	298691	55.11	-1
0	299241	55.21	-1
0	299791	55.31	-1
0	300341	55.41	-1
0	300891	55.51	-1
0	301441	55.61	-1
0	301991	55.71	-1
0	302541	55.81	-1
0	303091	55.91	-1
0	303649	56.01	-1
0	304199	56.11	-1
0	304749	56.21	-1
0	305299	56.31	-1
0	305849	56.41	-1
0	306399	56.51	-1
0	306949	56.61	-1
0	307499	56.71	-1
0	308049	56.81	-1
0	308599	56.91	-1
0	309157	57.01	-1
0	309707	57.11	-1
0	310257	57.21	-1
0	310807	57.31	-1
0	311357	57.41	-1
0	311907	57.51	-1
0	312457	57.61	-1
0	313007	57.71	-1
0	313557	57.81	-1
0	314107	57.91	-1
0	314665	58.01	-1
0	315215	58.11	-1
0	315765	58.21	-1
0	316315	58.31	-1
0	316865	58.41	-1
0	317415	58.51	-1
0	318058	58.61	-1
0	318607	58.71	-1
0	319156	58.81	-1
0	319705	58.91	-1
0	320262	59.01	-1
0	320811	59.11	-1
0	321360	59.21	-1
0	321909	59.31	-1
0	322458	59.41	-1
0	323007	59.51	-1
0	323556	59.61	-1
0	324105	59.71	-1
0	324654	59.81	-1
0	325203	59.91	-1
0	325760	60.01	-1
0	326309	60.11	-1
0	326858	60.21	-1
0	327407	60.31	-1
0	327956	60.41	-1
0	328505	60.51	-1
0	329054	60.61	-1
0	329603	60.71	-1
0	330152	60.81	-1
0	330701	60.91	-1
0	331258	61.01	-1
0	331807	61.11	-1
0	332356	61.21	-1
0	332905	61.31	-1
0	333454	61.41	-1
0	334003	61.51	-1
0	334552	61.61	-1
0	335101	61.71	-1
0	335650	61.81	-1
0	336199	61.91	-1
0	336756	62.01	-1
0	337305	62.11	-1
0	337854	62.21	-1
0	338403	62.31	-1
0	338952	62.41	-1
0	339501	62.51	-1
0	340050	62.61	-1
0	340599	62.71	-1
0	341148	62.81	-1
0	341697	62.91	-1
0	342254	63.01	-1
0	342803	63.11	-1
0	343352	63.21	-1
0	343994	63.31	-1
0	344542	63.41	-1
0	345090	63.51	-1
0	345638	63.61	-1
0	346186	63.71	-1
0	346734	63.81	-1
0	347282	63.91	-1
0	347838	64.01	-1
0	348386	64.11	-1
0	348934	64.21	-1
0	349482	64.31	-1
0	350030	64.41	-1
0	350578	64.51	-1
0	351126	64.61	-1
0	351674	64.71	-1
0	352222	64.81	-1
0	352770	64.91	-1
0	353326	65.01	-1
0	353874	65.11	-1
0	354422	65.21	-1
0	354970	65.31	-1
0	355518	65.41	-1
0	356066	65.51	-1
0	356614	65.61	-1
0	357162	65.71	-1
0	357710	65.81	-1
0	358258	65.91	-1
0	358814	66.01	-1
0	359362	66.11	-1
0	359910	66.21	-1
0	360458	66.31	-1
0	361006	66.41	-1
0	361554	66.51	-1
0	362102	66.61	-1
0	362650	66.71	-1
0	363198	66.81	-1
0	363746	66.91	-1
0	364302	67.01	-1
0	364850	67.11	-1
0	365398	67.21	-1
0	365946	67.31	-1
0	366494	67.41	-1
0	367042	67.51	-1
0	367590	67.61	-1
0	368231	67.71	-1
0	368778	67.81	-1
0	369325	67.91	-1
0	369880	68.01	-1
0	370427	68.11	-1
0	370974	68.21	-1
0	371521	68.31	-1
0	372068	68.41	-1
0	372615	68.51	-1
0	373162	68.61	-1
0	373709	68.71	-1
0	374256	68.81	-1
0	374803	68.91	-1
0	375358	69.01	-1
0	375905	69.11	-1
0	376452	69.21	-1
0	376999	69.31	-1
0	377546	69.41	-1
0	378093	69.51	-1
0	378640	69.61	-1
0	379187	69.71	-1
0	379734	69.81	-1
0	380281	69.91	-1
0	380836	70.01	-1
0	381383	70.11	-1
0	381930	70.21	-1
0	382477	70.31	-1
0	383024	70.41	-1
0	383571	70.51	-1
0	384118	70.61	-1
0	384665	70.71	-1
0	385212	70.81	-1
0	385759	70.91	-1
0	386314	71.01	-1
0	386861	71.11	-1
0	387408	71.21	-1
0	387955	71.31	-1
0	388502	71.41	-1
0	389049	71.51	-1
0	389596	71.61	-1
0	390143	71.71	-1
0	390690	71.81	-1
0	391237	71.91	-1
0	392536	72.01	-1
0	393082	72.11	-1
0	393628	72.21	-1
0	394174	72.31	-1
0	394720	72.41	-1
0	395266	72.51	-1
0	395812	72.61	-1
0	396358	72.71	-1
0	396904	72.81	-1
0	397450	72.91	-1
0	398004	73.01	-1
0	398550	73.11	-1
0	399096	73.21	-1
0	399642	73.31	-1
0	400188	73.41	-1
0	400734	73.51	-1
0	401280	73.61	-1
0	401826	73.71	-1
0	402372	73.81	-1
0	402918	73.91	-1
0	403472	74.01	-1
0	404018	74.11	-1
0	404564	74.21	-1
0	405110	74.31	-1
0	405656	74.41	-1
0	406202	74.51	-1
0	406748	74.61	-1
0	407294	74.71	-1
0	407840	74.81	-1
0	408386	74.91	-1
0	408940	75.01	-1
0	409486	75.11	-1
0	410032	75.21	-1
0	410578	75.31	-1
0	411124	75.41	-1
0	411670	75.51	-1
0	412216	75.61	-1
0	412762	75.71	-1
0	413308	75.81	-1
0	413854	75.91	-1
0	414408	76.01	-1
0	414954	76.11	-1
0	415500	76.21	-1
0	416046	76.31	-1
0	416592	76.41	-1
0	417138	76.51	-1
0	417684	76.61	-1
0	418230	76.71	-1
0	418776	76.81	-1
0	419322	76.91	-1
0	419876	77.01	-1
0	420422	77.11	-1
0	420968	77.21	-1
0	421514	77.31	-1
0	422060	77.41	-1
0	422606	77.51	-1
0	423152	77.61	-1
0	423698	77.71	-1
0	424244	77.81	-1
0	424790	77.91	-1
0	425344	78.01	-1
0	425890	78.11	-1
0	426436	78.21	-1
0	426982	78.31	-1
0	427528	78.41	-1
0	428074	78.51	-1
0	428620	78.61	-1
0	429166	78.71	-1
0	429712	78.81	-1
0	430258	78.91	-1
0	430812	79.01	-1
0	431358	79.11	-1
0	431904	79.21	-1
0	432450	79.31	-1
0	432996	79.41	-1
0	433542	79.51	-1
0	434088	79.61	-1
0	434634	79.71	-1
0	435180	79.81	-1
0	435726	79.91	-1
0	436280	80.01	-1
0	436826	80.11	-1
0	437372	80.21	-1
0	437918	80.31	-1
0	438464	80.41	-1
0	439010	80.51	-1
0	439556	80.61	-1
0	440102	80.71	-1
0	440648	80.81	-1
0	441194	80.91	-1
0	441748	81.01	-1
0	442294	81.11	-1
0	442840	81.21	-1
0	443386	81.31	-1
0	443932	81.41	-1
0	444478	81.51	-1
0	445024	81.61	-1
0	445570	81.71	-1
0	446116	81.81	-1
0	446662	81.91	-1
0	447216	82.01	-1
0	447762	82.11	-1
0	448308	82.21	-1
0	448854	82.31	-1
0	449400	82.41	-1
0	449946	82.51	-1
0	450492	82.61	-1
0	451038	82.71	-1
0	451584	82.81	-1
0	452130	82.91	-1
0	452684	83.01	-1
0	453230	83.11	-1
0	453776	83.21	-1
0	454322	83.31	-1
0	454868	83.41	-1
0	455414	83.51	-1
0	455960	83.61	-1
0	456506	83.71	-1
0	457052	83.81	-1
0	457598	83.91	-1
0	458152	84.01	-1
0	458698	84.11	-1
0	459244	84.21	-1
0	459790	84.31	-1
0	460336	84.41	-1
0	460882	84.51	-1
0	461428	84.61	-1
0	461974	84.71	-1
0	462520	84.81	-1
0	463066	84.91	-1
0	463620	85.01	-1
0	464166	85.11	-1
0	464712	85.21	-1
0	465258	85.31	-1
0	465804	85.41	-1
0	466350	85.51	-1
0	466896	85.61	-1
0	467442	85.71	-1
0	467988	85.81	-1
0	468534	85.91	-1
0	469088	86.01	-1
0	469634	86.11	-1
0	470180	86.21	-1
0	470726	86.31	-1
0	471272	86.41	-1
0	471818	86.51	-1
0	472364	86.61	-1
0	472910	86.71	-1
0	473456	86.81	-1
0	474002	86.91	-1
0	474556	87.01	-1
0	475102	87.11	-1
0	475648	87.21	-1
0	476194	87.31	-1
0	476740	87.41	-1
0	477286	87.51	-1
0	477832	87.61	-1
0	478378	87.71	-1
0	478924	87.81	-1
0	479470	87.91	-1
0	480024	88.01	-1
0	480570	88.11	-1
0	481116	88.21	-1
0	481662	88.31	-1
0	482208	88.41	-1
0	482754	88.51	-1
0	483300	88.61	-1
0	483846	88.71	-1
0	484392	88.81	-1
0	484938	88.91	-1
0	485492	89.01	-1
0	486038	89.11	-1
0	486584	89.21	-1
0	487130	89.31	-1
0	487676	89.41	-1
0	488222	89.51	-1
0	488768	89.61	-1
0	489314	89.71	-1
0	489860	89.81	-1
0	490406	89.91	-1
0	490960	90.01	-1
0	491506	90.11	-1
0	492052	90.21	-1
0	492598	90.31	-1
0	493144	90.41	-1
0	493690	90.51	-1
0	494236	90.61	-1
0	494782	90.71	-1
0	495328	90.81	-1
0	495874	90.91	-1
0	496428	91.01	-1
0	496974	91.11	-1
0	497520	91.21	-1
0	498066	91.31	-1
0	498612	91.41	-1
0	499158	91.51	-1
0	499704	91.61	-1
0	500250	91.71	-1
0	500796	91.81	-1
0	501342	91.91	-1
0	501896	92.01	-1
0	502442	92.11	-1
0	502988	92.21	-1
0	503534	92.31	-1
0	504080	92.41	-1
0	504626	92.51	-1
0	505172	92.61	-1
0	505718	92.71	-1
0	506264	92.81	-1
0	506810	92.91	-1
0	507364	93.01	-1
0	507910	93.11	-1
0	508456	93.21	-1
0	509002	93.31	-1
0	509548	93.41	-1
0	510094	93.51	-1
0	510640	93.61	-1
0	511186	93.71	-1
0	511732	93.81	-1
0	512278	93.91	-1
0	512832	94.01	-1
0	513378	94.11	-1
0	513924	94.21	-1
0	514470	94.31	-1
0	515016	94.41	-1
0	515562	94.51	-1
0	516108	94.61	-1
0	516654	94.71	-1
0	517200	94.81	-1
0	517746	94.91	-1
0	518300	95.01	-1
0	518846	95.11	-1
0	519392	95.21	-1
0	519938	95.31	-1
0	520484	95.41	-1
0	521030	95.51	-1
0	521576	95.61	-1
0	522122	95.71	-1
0	522668	95.81	-1
0	523214	95.91	-1
0	523768	96.01	-1
0	524314	96.11	-1
0	524860	96.21	-1
0	525406	96.31	-1
0	525952	96.41	-1
0	526498	96.51	-1
0	527044	96.61	-1
0	527590	96.71	-1
0	528136	96.81	-1
0	528682	96.91	-1
0	529236	97.01	-1
0	529782	97.11	-1
0	530328	97.21	-1
0	530874	97.31	-1
0	531420	97.41	-1
0	531966	97.51	-1
0	532512	97.61	-1
0	533058	97.71	28.4578
0	533604	97.81	28.6466
0	534150	97.91	28.8355
0	534704	98.01	29.0244
0	535250	98.11	29.2133
0	535796	98.21	29.4022
0	536342	98.31	29.5911
0	536888	98.41	29.78
0	537434	98.51	29.9689
0	537980	98.61	30.1578
0	538526	98.71	30.3467
0	539072	98.81	30.5355
0	539618	98.91	30.7244
0	540172	99.01	30.9133
0	540718	99.11	31.1022
0	541264	99.21	31.2911
0	541810	99.31	31.48
0	542356	99.41	31.6689
0	542902	99.51	31.8578
0	543448	99.61	32.0467
0	543994	99.71	32.2356
0	544540	99.81	32.4244
0	545086	99.91	32.6133
1	113	1.11	0
1	659	1.21	0
1	1205	1.31	0
1	1751	1.41	0
1	2297	1.51	0
1	2843	1.61	0
1	3389	1.71	0
1	3935	1.81	0
1	4481	1.91	0
1	5035	2.01	0
1	5581	2.11	0
1	6127	2.21	0
1	6673	2.31	0
1	7219	2.41	0
1	7765	2.51	0
1	8311	2.61	0
1	8857	2.71	0
1	9403	2.81	0
1	9949	2.91	0
1	10503	3.01	0
1	11049	3.11	0
1	11595	3.21	0
1	12141	3.31	0
1	12687	3.41	0
1	13233	3.51	0
1	13779	3.61	0
1	14325	3.71	0
1	14871	3.81	0
1	15417	3.91	0
1	15971	4.01	0
1	16517	4.11	0
1	17063	4.21	0
1	17609	4.31	0
1	18155	4.41	0
1	18701	4.51	0
1	19247	4.61	0
1	19793	4.71	0
1	20339	4.81	0
1	20885	4.91	0
1	21439	5.01	0
1	21985	5.11	0
1	22531	5.21	0
1	23077	5.31	0
1	23623	5.41	0
1	24169	5.51	0
1	24715	5.61	0
1	25261	5.71	0
1	25807	5.81	0
1	26353	5.91	0
1	26907	6.01	0
1	27453	6.11	0
1	27999	6.21	0
1	28545	6.31	0
1	29091	6.41	0
1	29637	6.51	0
1	30183	6.61	0
1	30729	6.71	0
1	31275	6.81	0
1	31821	6.91	0
1	32375	7.01	0
1	32921	7.11	0
1	33467	7.21	0
1	34013	7.31	0
1	34559	7.41	0
1	35105	7.51	0
1	35651	7.61	0
1	36197	7.71	0
1	36743	7.81	0
1	37289	7.91	0
1	37843	8.01	0
1	38389	8.11	0
1	38935	8.21	0
1	39481	8.31	0
1	40027	8.41	0
1	40573	8.51	0
1	41119	8.61	0
1	41665	8.71	0
1	42211	8.81	0
1	42757	8.91	0
1	43311	9.01	0
1	43857	9.11	0
1	44403	9.21	0
1	44949	9.31	0
1	45495	9.41	0
1	46041	9.51	0
1	46587	9.61	0
1	47133	9.71	0
1	47679	9.81	0
1	48225	9.91	0
1	48853	10.01	0
1	49406	10.11	0
1	49959	10.21	0
1	50512	10.31	0
1	51065	10.41	0
1	51618	10.51	0
1	52171	10.61	0
1	52724	10.71	0
1	53277	10.81	0
1	53830	10.91	0
1	54391	11.01	0
1	54944	11.11	0
1	55497	11.21	0
1	56050	11.31	0
1	56603	11.41	0
1	57156	11.51	0
1	57709	11.61	0
1	58262	11.71	0
1	58815	11.81	0
1	59368	11.91	0
1	59929	12.01	0
1	60482	12.11	0
1	61035	12.21	0
1	61588	12.31	0
1	62141	12.41	0
1	62694	12.51	0
1	63247	12.61	0
1	63800	12.71	0
1	64353	12.81	0
1	64906	12.91	0
1	65467	13.01	0
1	66020	13.11	0
1	66573	13.21	0
1	67126	13.31	0
1	67679	13.41	0
1	68232	13.51	0
1	68785	13.61	0
1	69338	13.71	0
1	69891	13.81	0
1	70444	13.91	0
1	71005	14.01	0
1	71558	14.11	0
1	72111	14.21	0
1	72664	14.31	0
1	73217	14.41	0
1	73770	14.51	0
1	74323	14.61	0
1	74876	14.71	0
1	75429	14.81	0
1	75982	14.91	0
1	76543	15.01	0
1	77096	15.11	0
1	77649	15.21	0
1	78202	15.31	0
1	78755	15.41	0
1	79308	15.51	0
1	79861	15.61	0
1	80414	15.71	0
1	80967	15.81	0
1	81520	15.91	0
1	82081	16.01	0
1	82634	16.11	0
1	83187	16.21	0
1	83740	16.31	0
1	84293	16.41	0
1	84846	16.51	0
1	85399	16.61	0
1	85952	16.71	0
1	86505	16.81	0
1	87058	16.91	0
1	87619	17.01	0
1	88172	17.11	0
1	88725	17.21	0
1	89278	17.31	0
1	89831	17.41	0
1	90384	17.51	0
1	90937	17.61	0
1	91490	17.71	0
1	92043	17.81	0
1	92596	17.91	0
1	93157	18.01	0
1	93710	18.11	0
1	94263	18.21	0
1	94816	18.31	0
1	95369	18.41	0
1	95922	18.51	0
1	96475	18.61	0
1	97028	18.71	0
1	97581	18.81	0
1	98134	18.91	0
1	98695	19.01	0
1	99248	19.11	0
1	99801	19.21	0
1	100354	19.31	0
1	100907	19.41	0
1	101460	19.51	0
1	102013	19.61	0
1	102566	19.71	0
1	103119	19.81	0
1	103672	19.91	0
1	104233	20.01	0
1	104786	20.11	0
1	105339	20.21	0
1	105892	20.31	0
1	106445	20.41	0
1	106998	20.51	0
1	107551	20.61	0
1	108104	20.71	0
1	108657	20.81	0
1	109210	20.91	0
1	109771	21.01	0
1	110324	21.11	0
1	110877	21.21	0
1	111430	21.31	0
1	111983	21.41	0
1	112536	21.51	0
1	113089	21.61	0
1	113642	21.71	0
1	114195	21.81	0
1	114748	21.91	0
1	115309	22.01	0
1	115862	22.11	0
1	116415	22.21	0
1	116968	22.31	0
1	117521	22.41	0
1	118074	22.51	0
1	118627	22.61	0
1	119180	22.71	0
1	119733	22.81	0
1	120286	22.91	0
1	120847	23.01	0
1	121400	23.11	0
1	121953	23.21	0
1	122506	23.31	0
1	123059	23.41	0
1	123612	23.51	0
1	124165	23.61	0
1	124718	23.71	0
1	125271	23.81	0
1	125824	23.91	0
1	126385	24.01	0
1	126938	24.11	0
1	127491	24.21	0
1	128044	24.31	0
1	128597	24.41	0
1	129150	24.51	0
1	129703	24.61	0
1	130256	24.71	0
1	130809	24.81	0
1	131362	24.91	0
1	131923	25.01	0
1	132476	25.11	0
1	133029	25.21	0
1	133582	25.31	0
1	134135	25.41	0
1	134688	25.51	0
1	135241	25.61	0
1	135794	25.71	0
1	136347	25.81	0
1	136900	25.91	0
1	137461	26.01	0
1	138014	26.11	0
1	138567	26.21	0
1	139120	26.31	0
1	139673	26.41	0
1	140226	26.51	0
1	140779	26.61	0
1	141332	26.71	0
1	141885	26.81	0
1	142438	26.91	0
1	142999	27.01	0
1	143552	27.11	0
1	144105	27.21	0
1	144658	27.31	0
1	145211	27.41	0
1	145764	27.51	0
1	146317	27.61	0
1	146870	27.71	0
1	147423	27.81	0
1	147976	27.91	0
1	148537	28.01	0
1	149090	28.11	0
1	149643	28.21	0
1	150196	28.31	0
1	150749	28.41	0
1	151302	28.51	0
1	151855	28.61	0
1	152408	28.71	0
1	152961	28.81	0
1	153514	28.91	0
1	154075	29.01	0
1	154628	29.11	0
1	155181	29.21	0
1	155734	29.31	0
1	156287	29.41	0
1	156840	29.51	0
1	157393	29.61	0
1	157946	29.71	0
1	158499	29.81	0
1	159052	29.91	0
1	159613	30.01	0
1	160166	30.11	0
1	160719	30.21	0
1	161272	30.31	0
1	161825	30.41	0
1	162378	30.51	0
1	162931	30.61	0
1	163484	30.71	0
1	164037	30.81	0
1	164590	30.91	0
1	165151	31.01	0
1	165704	31.11	0
1	166257	31.21	0
1	166810	31.31	0
1	167363	31.41	0
1	167916	31.51	0
1	168469	31.61	0
1	169022	31.71	0
1	169575	31.81	0
1	170128	31.91	0
1	170689	32.01	0
1	171242	32.11	0
1	171795	32.21	0
1	172348	32.31	0
1	172901	32.41	0
1	173454	32.51	0
1	174007	32.61	0
1	174560	32.71	0
1	175113	32.81	0
1	175666	32.91	0
1	176227	33.01	0
1	176780	33.11	0
1	177333	33.21	0
1	177886	33.31	0
1	178439	33.41	0
1	178992	33.51	0
1	179545	33.61	0
1	180098	33.71	0
1	180651	33.81	0
1	181204	33.91	0
1	181765	34.01	0
1	182318	34.11	0
1	182871	34.21	0
1	183424	34.31	0
1	183977	34.41	0
1	184530	34.51	0
1	185083	34.61	0
1	185636	34.71	0
1	186189	34.81	0
1	186742	34.91	0
1	187303	35.01	0
1	187856	35.11	0
1	188409	35.21	0
1	188962	35.31	0
1	189515	35.41	0
1	190068	35.51	0
1	190621	35.61	0
1	191174	35.71	0
1	191727	35.81	0
1	192280	35.91	0
1	192841	36.01	0
1	193394	36.11	0
1	193947	36.21	0
1	194500	36.31	0
1	195053	36.41	0
1	195606	36.51	0
1	196159	36.61	0
1	196712	36.71	0
1	197265	36.81	0
1	197818	36.91	0
1	198379	37.01	0
1	198932	37.11	0
1	199485	37.21	0
1	200038	37.31	0
1	200591	37.41	0
1	201144	37.51	0
1	201697	37.61	0
1	202250	37.71	0
1	202803	37.81	0
1	203356	37.91	0
1	203917	38.01	0
1	204470	38.11	0
1	205023	38.21	0
1	205576	38.31	0
1	206129	38.41	0
1	206682	38.51	0
1	207235	38.61	0
1	207788	38.71	0
1	208341	38.81	0
1	208894	38.91	0
1	209455	39.01	0
1	210008	39.11	0
1	210561	39.21	0
1	211114	39.31	0
1	211667	39.41	0
1	212220	39.51	0
1	212773	39.61	0
1	213326	39.71	0
1	213879	39.81	0
1	214432	39.91	0
1	214993	40.01	0
1	215546	40.11	0
1	216099	40.21	0
1	216652	40.31	0
1	217205	40.41	0
1	217758	40.51	0
1	218311	40.61	0
1	218864	40.71	0
1	219417	40.81	0
1	219970	40.91	0
1	220531	41.01	0
1	221084	41.11	0
1	221637	41.21	0
1	222190	41.31	0
1	222743	41.41	0
1	223296	41.51	0
1	223849	41.61	0
1	224402	41.71	0
1	224955	41.81	0
1	225508	41.91	0
1	226069	42.01	0
1	226622	42.11	0
1	227175	42.21	0
1	227728	42.31	0
1	228281	42.41	0
1	228834	42.51	0
1	229387	42.61	0
1	230033	42.71	0
1	230585	42.81	0
1	231137	42.91	0
1	231697	43.01	0
1	232249	43.11	0
1	232801	43.21	0
1	233353	43.31	0
1	233905	43.41	0
1	234457	43.51	0
1	235009	43.61	0
1	235561	43.71	0
1	236113	43.81	0
1	236665	43.91	0
1	237225	44.01	0
1	237777	44.11	0
1	238329	44.21	0
1	238881	44.31	0
1	239433	44.41	0
1	239985	44.51	0
1	240537	44.61	0
1	241089	44.71	0
1	241641	44.81	0
1	242193	44.91	0
1	242753	45.01	0
1	243305	45.11	0
1	243857	45.21	0
1	244409	45.31	0
1	244961	45.41	0
1	245513	45.51	0
1	246065	45.61	0
1	246617	45.71	0
1	247169	45.81	0
1	247721	45.91	0
1	248281	46.01	0
1	248833	46.11	0
1	249385	46.21	0
1	249937	46.31	0
1	250489	46.41	0
1	251041	46.51	0
1	251593	46.61	0
1	252145	46.71	0
1	252697	46.81	0
1	253249	46.91	0
1	253809	47.01	0
1	254361	47.11	0
1	254913	47.21	0
1	255465	47.31	0
1	256017	47.41	0
1	256569	47.51	0
1	257121	47.61	0
1	257673	47.71	0
1	258225	47.81	0
1	258777	47.91	0
1	259337	48.01	0
1	259889	48.11	0
1	260441	48.21	0
1	260993	48.31	0
1	261545	48.41	0
1	262190	48.51	0
1	262741	48.61	0
1	263292	48.71	0
1	263843	48.81	0
1	264394	48.91	0
1	264953	49.01	0
1	265504	49.11	0
1	266055	49.21	0
1	266606	49.31	0
1	267157	49.41	0
1	267708	49.51	0
1	268259	49.61	0
1	268810	49.71	0
1	269361	49.81	0
1	269912	49.91	0
1	270471	50.01	0
1	271022	50.11	0
1	271573	50.21	0
1	272124	50.31	0
1	272675	50.41	0
1	273226	50.51	0
1	273777	50.61	0
1	274328	50.71	0
1	274879	50.81	0
1	275430	50.91	0
1	275989	51.01	0
1	276540	51.11	0
1	277091	51.21	0
1	277642	51.31	0
1	278193	51.41	0
1	278744	51.51	0
1	279295	51.61	0
1	279846	51.71	0
1	280397	51.81	0
1	280948	51.91	0
1	281507	52.01	0
1	282058	52.11	0
1	282609	52.21	0
1	283160	52.31	0
1	283711	52.41	0
1	284262	52.51	0
1	284813	52.61	0
1	285364	52.71	0
1	285915	52.81	0
1	286466	52.91	0
1	287025	53.01	0
1	287576	53.11	0
1	288127	53.21	0
1	288678	53.31	0
1	289229	53.41	0
1	289780	53.51	0
1	290331	53.61	0
1	290975	53.71	0
1	291525	53.81	0
1	292075	53.91	0
1	292633	54.01	0
1	293183	54.11	0
1	293733	54.21	0
1	294283	54.31	0
1	294833	54.41	0
1	295383	54.51	0
1	295933	54.61	0
1	296483	54.71	0
1	297033	54.81	0
1	297583	54.91	0
1	298141	55.01	0
1	298691	55.11	0
1	299241	55.21	0
1	299791	55.31	0
1	300341	55.41	0
1	300891	55.51	0
1	301441	55.61	0
1	301991	55.71	0
1	302541	55.81	0
1	303091	55.91	0
1	303649	56.01	0
1	304199	56.11	0
1	304749	56.21	0
1	305299	56.31	0
1	305849	56.41	0
1	306399	56.51	0
1	306949	56.61	0
1	307499	56.71	0
1	308049	56.81	0
1	308599	56.91	0
1	309157	57.01	0
1	309707	57.11	0
1	310257	57.21	0
1	310807	57.31	0
1	311357	57.41	0
1	311907	57.51	0
1	312457	57.61	0
1	313007	57.71	0
1	313557	57.81	0
1	314107	57.91	0
1	314665	58.01	0
1	315215	58.11	0
1	315765	58.21	0
1	316315	58.31	0
1	316865	58.41	0
1	317415	58.51	0
1	318058	58.61	0
1	318607	58.71	0
1	319156	58.81	0
1	319705	58.91	0
1	320262	59.01	0
1	320811	59.11	0
1	321360	59.21	0
1	321909	59.31	0
1	322458	59.41	0
1	323007	59.51	0
1	323556	59.61	0
1	324105	59.71	0
1	324654	59.81	0
1	325203	59.91	0
1	325760	60.01	0
1	326309	60.11	0
1	326858	60.21	0
1	327407	60.31	0
1	327956	60.41	0
1	328505	60.51	0
1	329054	60.61	0
1	329603	60.71	0
1	330152	60.81	0
1	330701	60.91	0
1	331258	61.01	0
1	331807	61.11	0
1	332356	61.21	0
1	332905	61.31	0
1	333454	61.41	0
1	334003	61.51	0
1	334552	61.61	0
1	335101	61.71	0
1	335650	61.81	0
1	336199	61.91	0
1	336756	62.01	0
1	337305	62.11	0
1	337854	62.21	0
1	338403	62.31	0
1	338952	62.41	0
1	339501	62.51	0
1	340050	62.61	0
1	340599	62.71	0
1	341148	62.81	0
1	341697	62.91	0
1	342254	63.01	0
1	342803	63.11	0
1	343352	63.21	0
1	343994	63.31	0
1	344542	63.41	0
1	345090	63.51	0
1	345638	63.61	0
1	346186	63.71	0
1	346734	63.81	0
1	347282	63.91	0
1	347838	64.01	0
1	348386	64.11	0
1	348934	64.21	0
1	349482	64.31	0
1	350030	64.41	0
1	350578	64.51	0
1	351126	64.61	0
1	351674	64.71	0
1	352222	64.81	0
1	352770	64.91	0
1	353326	65.01	0
1	353874	65.11	0
1	354422	65.21	0
1	354970	65.31	0
1	355518	65.41	0
1	356066	65.51	0
1	356614	65.61	0
1	357162	65.71	0
1	357710	65.81	0
1	358258	65.91	0
1	358814	66.01	0
1	359362	66.11	0
1	359910	66.21	0
1	360458	66.31	0
1	361006	66.41	0
1	361554	66.51	0
1	362102	66.61	0
1	362650	66.71	0
1	363198	66.81	0
1	363746	66.91	0
1	364302	67.01	0
1	364850	67.11	0
1	365398	67.21	0
1	365946	67.31	0
1	366494	67.41	0
1	367042	67.51	0
1	367590	67.61	0
1	368231	67.71	0
1	368778	67.81	0
1	369325	67.91	0
1	369880	68.01	0
1	370427	68.11	0
1	370974	68.21	0
1	371521	68.31	0
1	372068	68.41	0
1	372615	68.51	0
1	373162	68.61	0
1	373709	68.71	0
1	374256	68.81	0
1	374803	68.91	0
1	375358	69.01	0
1	375905	69.11	0
1	376452	69.21	0
1	376999	69.31	0
1	377546	69.41	0
1	378093	69.51	0
1	378640	69.61	0
1	379187	69.71	0
1	379734	69.81	0
1	380281	69.91	0
1	380836	70.01	0
1	381383	70.11	0
1	381930	70.21	0
1	382477	70.31	0
1	383024	70.41	0
1	383571	70.51	0
1	384118	70.61	0
1	384665	70.71	0
1	385212	70.81	0
1	385759	70.91	0
1	386314	71.01	0
1	386861	71.11	0
1	387408	71.21	0
1	387955	71.31	0
1	388502	71.41	0
1	389049	71.51	0
1	389596	71.61	0
1	390143	71.71	0
1	390690	71.81	0
1	391237	71.91	0
1	392536	72.01	0
1	393082	72.11	0
1	393628	72.21	0
1	394174	72.31	0
1	394720	72.41	0
1	395266	72.51	0
1	395812	72.61	0
1	396358	72.71	0
1	396904	72.81	0
1	397450	72.91	0
1	398004	73.01	0
1	398550	73.11	0
1	399096	73.21	0
1	399642	73.31	0
1	400188	73.41	0
1	400734	73.51	0
1	401280	73.61	0
1	401826	73.71	0
1	402372	73.81	0
1	402918	73.91	0
1	403472	74.01	0
1	404018	74.11	0
1	404564	74.21	0
1	405110	74.31	0
1	405656	74.41	0
1	406202	74.51	0
1	406748	74.61	0
1	407294	74.71	0
1	407840	74.81	0
1	408386	74.91	0
1	408940	75.01	0
1	409486	75.11	0
1	410032	75.21	0
1	410578	75.31	0
1	411124	75.41	0
1	411670	75.51	0
1	412216	75.61	0
1	412762	75.71	0
1	413308	75.81	0
1	413854	75.91	0
1	414408	76.01	0
1	414954	76.11	0
1	415500	76.21	0
1	416046	76.31	0
1	416592	76.41	0
1	417138	76.51	0
1	417684	76.61	0
1	418230	76.71	0
1	418776	76.81	0
1	419322	76.91	0
1	419876	77.01	0
1	420422	77.11	0
1	420968	77.21	0
1	421514	77.31	0
1	422060	77.41	0
1	422606	77.51	0
1	423152	77.61	0
1	423698	77.71	0
1	424244	77.81	0
1	424790	77.91	0
1	425344	78.01	0
1	425890	78.11	0
1	426436	78.21	0
1	426982	78.31	0
1	427528	78.41	0
1	428074	78.51	0
1	428620	78.61	0
1	429166	78.71	0
1	429712	78.81	0
1	430258	78.91	0
1	430812	79.01	0
1	431358	79.11	0
1	431904	79.21	0
1	432450	79.31	0
1	432996	79.41	0
1	433542	79.51	0
1	434088	79.61	0
1	434634	79.71	0
1	435180	79.81	0
1	435726	79.91	0
1	436280	80.01	0
1	436826	80.11	0
1	437372	80.21	0
1	437918	80.31	0
1	438464	80.41	0
1	439010	80.51	0
1	439556	80.61	0
1	440102	80.71	0
1	440648	80.81	0
1	441194	80.91	0
1	441748	81.01	0
1	442294	81.11	0
1	442840	81.21	0
1	443386	81.31	0
1	443932	81.41	0
1	444478	81.51	0
1	445024	81.61	0
1	445570	81.71	0
1	446116	81.81	0
1	446662	81.91	0
1	447216	82.01	0
1	447762	82.11	0
1	448308	82.21	0
1	448854	82.31	0
1	449400	82.41	0
1	449946	82.51	0
1	450492	82.61	0
1	451038	82.71	0
1	451584	82.81	0
1	452130	82.91	0
1	452684	83.01	0
1	453230	83.11	0
1	453776	83.21	0
1	454322	83.31	0
1	454868	83.41	0
1	455414	83.51	0
1	455960	83.61	0
1	456506	83.71	0
1	457052	83.81	0
1	457598	83.91	0
1	458152	84.01	0
1	458698	84.11	0
1	459244	84.21	0
1	459790	84.31	0
1	460336	84.41	0
1	460882	84.51	0
1	461428	84.61	0
1	461974	84.71	0
1	462520	84.81	0
1	463066	84.91	0
1	463620	85.01	0
1	464166	85.11	0
1	464712	85.21	0
1	465258	85.31	0
1	465804	85.41	0
1	466350	85.51	0
1	466896	85.61	0
1	467442	85.71	0
1	467988	85.81	0
1	468534	85.91	0
1	469088	86.01	0
1	469634	86.11	0
1	470180	86.21	0
1	470726	86.31	0
1	471272	86.41	0
1	471818	86.51	0
1	472364	86.61	0
1	472910	86.71	0
1	473456	86.81	0
1	474002	86.91	0
1	474556	87.01	0
1	475102	87.11	0
1	475648	87.21	0
1	476194	87.31	0
1	476740	87.41	0
1	477286	87.51	0
1	477832	87.61	0
1	478378	87.71	0
1	478924	87.81	0
1	479470	87.91	0
1	480024	88.01	0
1	480570	88.11	0
1	481116	88.21	0
1	481662	88.31	0
1	482208	88.41	0
1	482754	88.51	0
1	483300	88.61	0
1	483846	88.71	0
1	484392	88.81	0
1	484938	88.91	0
1	485492	89.01	0
1	486038	89.11	0
1	486584	89.21	0
1	487130	89.31	0
1	487676	89.41	0
1	488222	89.51	0
1	488768	89.61	0
1	489314	89.71	0
1	489860	89.81	0
1	490406	89.91	0
1	490960	90.01	0
1	491506	90.11	0
1	492052	90.21	0
1	492598	90.31	0
1	493144	90.41	0
1	493690	90.51	0
1	494236	90.61	0
1	494782	90.71	0
1	495328	90.81	0
1	495874	90.91	0
1	496428	91.01	0
1	496974	91.11	0
1	497520	91.21	0
1	498066	91.31	0
1	498612	91.41	0
1	499158	91.51	0
1	499704	91.61	0
1	500250	91.71	0
1	500796	91.81	0
1	501342	91.91	0
1	501896	92.01	0
1	502442	92.11	0
1	502988	92.21	0
1	503534	92.31	0
1	504080	92.41	0
1	504626	92.51	0
1	505172	92.61	0
1	505718	92.71	0
1	506264	92.81	0
1	506810	92.91	0
1	507364	93.01	0
1	507910	93.11	0
1	508456	93.21	0
1	509002	93.31	0
1	509548	93.41	0
1	510094	93.51	0
1	510640	93.61	0
1	511186	93.71	0
1	511732	93.81	0
1	512278	93.91	0
1	512832	94.01	0
1	513378	94.11	0
1	513924	94.21	0
1	514470	94.31	0
1	515016	94.41	0
1	515562	94.51	0
1	516108	94.61	0
1	516654	94.71	0
1	517200	94.81	0
1	517746	94.91	0
1	518300	95.01	0
1	518846	95.11	0
1	519392	95.21	0
1	519938	95.31	0
1	520484	95.41	0
1	521030	95.51	0
1	521576	95.61	0
1	522122	95.71	0
1	522668	95.81	0
1	523214	95.91	0
1	523768	96.01	0
1	524314	96.11	0
1	524860	96.21	0
1	525406	96.31	0
1	525952	96.41	0
1	526498	96.51	0
1	527044	96.61	0
1	527590	96.71	0
1	528136	96.81	0
1	528682	96.91	0
1	529236	97.01	0
1	529782	97.11	0
1	530328	97.21	0
1	530874	97.31	0
1	531420	97.41	0
1	531966	97.51	0
1	532512	97.61	0
1	533058	97.71	1.8889
1	533604	97.81	1.8889
1	534150	97.91	1.8889
1	534704	98.01	1.8889
1	535250	98.11	1.8889
1	535796	98.21	1.8889
1	536342	98.31	1.8889
1	536888	98.41	1.8889
1	537434	98.51	1.8889
1	537980	98.61	1.8889
1	538526	98.71	1.8889
1	539072	98.81	1.8889
1	539618	98.91	1.8889
1	540172	99.01	1.8889
1	540718	99.11	1.8889
1	541264	99.21	1.8889
1	541810	99.31	1.8889
1	542356	99.41	1.8889
1	542902	99.51	1.8889
1	543448	99.61	1.8889
1	543994	99.71	1.8889
1	544540	99.81	1.8889
1	545086	99.91	1.8889
2	113	1.11	0
2	659	1.21	0
2	1205	1.31	0
2	1751	1.41	0
2	2297	1.51	0
2	2843	1.61	0
2	3389	1.71	0
2	3935	1.81	0
2	4481	1.91	0
2	5035	2.01	0
2	5581	2.11	0
2	6127	2.21	0
2	6673	2.31	0
2	7219	2.41	0
2	7765	2.51	0
2	8311	2.61	0
2	8857	2.71	0
2	9403	2.81	0
2	9949	2.91	0
2	10503	3.01	0
2	11049	3.11	0
2	11595	3.21	0
2	12141	3.31	0
2	12687	3.41	0
2	13233	3.51	0
2	13779	3.61	0
2	14325	3.71	0
2	14871	3.81	0
2	15417	3.91	0
2	15971	4.01	0
2	16517	4.11	0
2	17063	4.21	0
2	17609	4.31	0
2	18155	4.41	0
2	18701	4.51	0
2	19247	4.61	0
2	19793	4.71	0
2	20339	4.81	0
2	20885	4.91	0
2	21439	5.01	0
2	21985	5.11	0
2	22531	5.21	0
2	23077	5.31	0
2	23623	5.41	0
2	24169	5.51	0
2	24715	5.61	0
2	25261	5.71	0
2	25807	5.81	0
2	26353	5.91	0
2	26907	6.01	0
2	27453	6.11	0
2	27999	6.21	0
2	28545	6.31	0
2	29091	6.41	0
2	29637	6.51	0
2	30183	6.61	0
2	30729	6.71	0
2	31275	6.81	0
2	31821	6.91	0
2	32375	7.01	0
2	32921	7.11	0
2	33467	7.21	0
2	34013	7.31	0
2	34559	7.41	0
2	35105	7.51	0
2	35651	7.61	0
2	36197	7.71	0
2	36743	7.81	0
2	37289	7.91	0
2	37843	8.01	0
2	38389	8.11	0
2	38935	8.21	0
2	39481	8.31	0
2	40027	8.41	0
2	40573	8.51	0
2	41119	8.61	0
2	41665	8.71	0
2	42211	8.81	0
2	42757	8.91	0
2	43311	9.01	0
2	43857	9.11	0
2	44403	9.21	0
2	44949	9.31	0
2	45495	9.41	0
2	46041	9.51	0
2	46587	9.61	0
2	47133	9.71	0
2	47679	9.81	0
2	48225	9.91	0
2	48853	10.01	0
2	49406	10.11	0
2	49959	10.21	0
2	50512	10.31	0
2	51065	10.41	0
2	51618	10.51	0
2	52171	10.61	0
2	52724	10.71	0
2	53277	10.81	0
2	53830	10.91	0
2	54391	11.01	0
2	54944	11.11	0
2	55497	11.21	0
2	56050	11.31	0
2	56603	11.41	0
2	57156	11.51	0
2	57709	11.61	0
2	58262	11.71	0
2	58815	11.81	0
2	59368	11.91	0
2	59929	12.01	0
2	60482	12.11	0
2	61035	12.21	0
2	61588	12.31	0
2	62141	12.41	0
2	62694	12.51	0
2	63247	12.61	0
2	63800	12.71	0
2	64353	12.81	0
2	64906	12.91	0
2	65467	13.01	0
2	66020	13.11	0
2	66573	13.21	0
2	67126	13.31	0
2	67679	13.41	0
2	68232	13.51	0
2	68785	13.61	0
2	69338	13.71	0
2	69891	13.81	0
2	70444	13.91	0
2	71005	14.01	0
2	71558	14.11	0
2	72111	14.21	0
2	72664	14.31	0
2	73217	14.41	0
2	73770	14.51	0
2	74323	14.61	0
2	74876	14.71	0
2	75429	14.81	0
2	75982	14.91	0
2	76543	15.01	0
2	77096	15.11	0
2	77649	15.21	0
2	78202	15.31	0
2	78755	15.41	0
2	79308	15.51	0
2	79861	15.61	0
2	80414	15.71	0
2	80967	15.81	0
2	81520	15.91	0
2	82081	16.01	0
2	82634	16.11	0
2	83187	16.21	0
2	83740	16.31	0
2	84293	16.41	0
2	84846	16.51	0
2	85399	16.61	0
2	85952	16.71	0
2	86505	16.81	0
2	87058	16.91	0
2	87619	17.01	0
2	88172	17.11	0
2	88725	17.21	0
2	89278	17.31	0
2	89831	17.41	0
2	90384	17.51	0
2	90937	17.61	0
2	91490	17.71	0
2	92043	17.81	0
2	92596	17.91	0
2	93157	18.01	0
2	93710	18.11	0
2	94263	18.21	0
2	94816	18.31	0
2	95369	18.41	0
2	95922	18.51	0
2	96475	18.61	0
2	97028	18.71	0
2	97581	18.81	0
2	98134	18.91	0
2	98695	19.01	0
2	99248	19.11	0
2	99801	19.21	0
2	100354	19.31	0
2	100907	19.41	0
2	101460	19.51	0
2	102013	19.61	0
2	102566	19.71	0
2	103119	19.81	0
2	103672	19.91	0
2	104233	20.01	0
2	104786	20.11	0
2	105339	20.21	0
2	105892	20.31	0
2	106445	20.41	0
2	106998	20.51	0
2	107551	20.61	0
2	108104	20.71	0
2	108657	20.81	0
2	109210	20.91	0
2	109771	21.01	0
2	110324	21.11	0
2	110877	21.21	0
2	111430	21.31	0
2	111983	21.41	0
2	112536	21.51	0
2	113089	21.61	0
2	113642	21.71	0
2	114195	21.81	0
2	114748	21.91	0
2	115309	22.01	0
2	115862	22.11	0
2	116415	22.21	0
2	116968	22.31	0
2	117521	22.41	0
2	118074	22.51	0
2	118627	22.61	0
2	119180	22.71	0
2	119733	22.81	0
2	120286	22.91	0
2	120847	23.01	0
2	121400	23.11	0
2	121953	23.21	0
2	122506	23.31	0
2	123059	23.41	0
2	123612	23.51	0
2	124165	23.61	0
2	124718	23.71	0
2	125271	23.81	0
2	125824	23.91	0
2	126385	24.01	0
2	126938	24.11	0
2	127491	24.21	0
2	128044	24.31	0
2	128597	24.41	0
2	129150	24.51	0
2	129703	24.61	0
2	130256	24.71	0
2	130809	24.81	0
2	131362	24.91	0
2	131923	25.01	0
2	132476	25.11	0
2	133029	25.21	0
2	133582	25.31	0
2	134135	25.41	0
2	134688	25.51	0
2	135241	25.61	0
2	135794	25.71	0
2	136347	25.81	0
2	136900	25.91	0
2	137461	26.01	0
2	138014	26.11	0
2	138567	26.21	0
2	139120	26.31	0
2	139673	26.41	0
2	140226	26.51	0
2	140779	26.61	0
2	141332	26.71	0
2	141885	26.81	0
2	142438	26.91	0
2	142999	27.01	0
2	143552	27.11	0
2	144105	27.21	0
2	144658	27.31	0
2	145211	27.41	0
2	145764	27.51	0
2	146317	27.61	0
2	146870	27.71	0
2	147423	27.81	0
2	147976	27.91	0
2	148537	28.01	0
2	149090	28.11	0
2	149643	28.21	0
2	150196	28.31	0
2	150749	28.41	0
2	151302	28.51	0
2	151855	28.61	0
2	152408	28.71	0
2	152961	28.81	0
2	153514	28.91	0
2	154075	29.01	0
2	154628	29.11	0
2	155181	29.21	0
2	155734	29.31	0
2	156287	29.41	0
2	156840	29.51	0
2	157393	29.61	0
2	157946	29.71	0
2	158499	29.81	0
2	159052	29.91	0
2	159613	30.01	0
2	160166	30.11	0
2	160719	30.21	0
2	161272	30.31	0
2	161825	30.41	0
2	162378	30.51	0
2	162931	30.61	0
2	163484	30.71	0
2	164037	30.81	0
2	164590	30.91	0
2	165151	31.01	0
2	165704	31.11	0
2	166257	31.21	0
2	166810	31.31	0
2	167363	31.41	0
2	167916	31.51	0
2	168469	31.61	0
2	169022	31.71	0
2	169575	31.81	0
2	170128	31.91	0
2	170689	32.01	0
2	171242	32.11	0
2	171795	32.21	0
2	172348	32.31	0
2	172901	32.41	0
2	173454	32.51	0
2	174007	32.61	0
2	174560	32.71	0
2	175113	32.81	0
2	175666	32.91	0
2	176227	33.01	0
2	176780	33.11	0
2	177333	33.21	0
2	177886	33.31	0
2	178439	33.41	0
2	178992	33.51	0
2	179545	33.61	0
2	180098	33.71	0
2	180651	33.81	0
2	181204	33.91	0
2	181765	34.01	0
2	182318	34.11	0
2	182871	34.21	0
2	183424	34.31	0
2	183977	34.41	0
2	184530	34.51	0
2	185083	34.61	0
2	185636	34.71	0
2	186189	34.81	0
2	186742	34.91	0
2	187303	35.01	0
2	187856	35.11	0
2	188409	35.21	0
2	188962	35.31	0
2	189515	35.41	0
2	190068	35.51	0
2	190621	35.61	0
2	191174	35.71	0
2	191727	35.81	0
2	192280	35.91	0
2	192841	36.01	0
2	193394	36.11	0
2	193947	36.21	0
2	194500	36.31	0
2	195053	36.41	0
2	195606	36.51	0
2	196159	36.61	0
2	196712	36.71	0
2	197265	36.81	0
2	197818	36.91	0
2	198379	37.01	0
2	198932	37.11	0
2	199485	37.21	0
2	200038	37.31	0
2	200591	37.41	0
2	201144	37.51	0
2	201697	37.61	0
2	202250	37.71	0
2	202803	37.81	0
2	203356	37.91	0
2	203917	38.01	0
2	204470	38.11	0
2	205023	38.21	0
2	205576	38.31	0
2	206129	38.41	0
2	206682	38.51	0
2	207235	38.61	0
2	207788	38.71	0
2	208341	38.81	0
2	208894	38.91	0
2	209455	39.01	0
2	210008	39.11	0
2	210561	39.21	0
2	211114	39.31	0
2	211667	39.41	0
2	212220	39.51	0
2	212773	39.61	0
2	213326	39.71	0
2	213879	39.81	0
2	214432	39.91	0
2	214993	40.01	0
2	215546	40.11	0
2	216099	40.21	0
2	216652	40.31	0
2	217205	40.41	0
2	217758	40.51	0
2	218311	40.61	0
2	218864	40.71	0
2	219417	40.81	0
2	219970	40.91	0
2	220531	41.01	0
2	221084	41.11	0
2	221637	41.21	0
2	222190	41.31	0
2	222743	41.41	0
2	223296	41.51	0
2	223849	41.61	0
2	224402	41.71	0
2	224955	41.81	0
2	225508	41.91	0
2	226069	42.01	0
2	226622	42.11	0
2	227175	42.21	0
2	227728	42.31	0
2	228281	42.41	0
2	228834	42.51	0
2	229387	42.61	0
2	230033	42.71	0
2	230585	42.81	0
2	231137	42.91	0
2	231697	43.01	0
2	232249	43.11	0
2	232801	43.21	0
2	233353	43.31	0
2	233905	43.41	0
2	234457	43.51	0
2	235009	43.61	0
2	235561	43.71	0
2	236113	43.81	0
2	236665	43.91	0
2	237225	44.01	0
2	237777	44.11	0
2	238329	44.21	0
2	238881	44.31	0
2	239433	44.41	0
2	239985	44.51	0
2	240537	44.61	0
2	241089	44.71	0
2	241641	44.81	0
2	242193	44.91	0
2	242753	45.01	0
2	243305	45.11	0
2	243857	45.21	0
2	244409	45.31	0
2	244961	45.41	0
2	245513	45.51	0
2	246065	45.61	0
2	246617	45.71	0
2	247169	45.81	0
2	247721	45.91	0
2	248281	46.01	0
2	248833	46.11	0
2	249385	46.21	0
2	249937	46.31	0
2	250489	46.41	0
2	251041	46.51	0
2	251593	46.61	0
2	252145	46.71	0
2	252697	46.81	0
2	253249	46.91	0
2	253809	47.01	0
2	254361	47.11	0
2	254913	47.21	0
2	255465	47.31	0
2	256017	47.41	0
2	256569	47.51	0
2	257121	47.61	0
2	257673	47.71	0
2	258225	47.81	0
2	258777	47.91	0
2	259337	48.01	0
2	259889	48.11	0
2	260441	48.21	0
2	260993	48.31	0
2	261545	48.41	0
2	262190	48.51	0
2	262741	48.61	0
2	263292	48.71	0
2	263843	48.81	0
2	264394	48.91	0
2	264953	49.01	0
2	265504	49.11	0
2	266055	49.21	0
2	266606	49.31	0
2	267157	49.41	0
2	267708	49.51	0
2	268259	49.61	0
2	268810	49.71	0
2	269361	49.81	0
2	269912	49.91	0
2	270471	50.01	0
2	271022	50.11	0
2	271573	50.21	0
2	272124	50.31	0
2	272675	50.41	0
2	273226	50.51	0
2	273777	50.61	0
2	274328	50.71	0
2	274879	50.81	0
2	275430	50.91	0
2	275989	51.01	0
2	276540	51.11	0
2	277091	51.21	0
2	277642	51.31	0
2	278193	51.41	0
2	278744	51.51	0
2	279295	51.61	0
2	279846	51.71	0
2	280397	51.81	0
2	280948	51.91	0
2	281507	52.01	0
2	282058	52.11	0
2	282609	52.21	0
2	283160	52.31	0
2	283711	52.41	0
2	284262	52.51	0
2	284813	52.61	0
2	285364	52.71	0
2	285915	52.81	0
2	286466	52.91	0
2	287025	53.01	0
2	287576	53.11	0
2	288127	53.21	0
2	288678	53.31	0
2	289229	53.41	0
2	289780	53.51	0
2	290331	53.61	0
2	290975	53.71	0
2	291525	53.81	0
2	292075	53.91	0
2	292633	54.01	0
2	293183	54.11	0
2	293733	54.21	0
2	294283	54.31	0
2	294833	54.41	0
2	295383	54.51	0
2	295933	54.61	0
2	296483	54.71	0
2	297033	54.81	0
2	297583	54.91	0
2	298141	55.01	0
2	298691	55.11	0
2	299241	55.21	0
2	299791	55.31	0
2	300341	55.41	0
2	300891	55.51	0
2	301441	55.61	0
2	301991	55.71	0
2	302541	55.81	0
2	303091	55.91	0
2	303649	56.01	0
2	304199	56.11	0
2	304749	56.21	0
2	305299	56.31	0
2	305849	56.41	0
2	306399	56.51	0
2	306949	56.61	0
2	307499	56.71	0
2	308049	56.81	0
2	308599	56.91	0
2	309157	57.01	0
2	309707	57.11	0
2	310257	57.21	0
2	310807	57.31	0
2	311357	57.41	0
2	311907	57.51	0
2	312457	57.61	0
2	313007	57.71	0
2	313557	57.81	0
2	314107	57.91	0
2	314665	58.01	0
2	315215	58.11	0
2	315765	58.21	0
2	316315	58.31	0
2	316865	58.41	0
2	317415	58.51	0
2	318058	58.61	0
2	318607	58.71	0
2	319156	58.81	0
2	319705	58.91	0
2	320262	59.01	0
2	320811	59.11	0
2	321360	59.21	0
2	321909	59.31	0
2	322458	59.41	0
2	323007	59.51	0
2	323556	59.61	0
2	324105	59.71	0
2	324654	59.81	0
2	325203	59.91	0
2	325760	60.01	0
2	326309	60.11	0
2	326858	60.21	0
2	327407	60.31	0
2	327956	60.41	0
2	328505	60.51	0
2	329054	60.61	0
2	329603	60.71	0
2	330152	60.81	0
2	330701	60.91	0
2	331258	61.01	0
2	331807	61.11	0
2	332356	61.21	0
2	332905	61.31	0
2	333454	61.41	0
2	334003	61.51	0
2	334552	61.61	0
2	335101	61.71	0
2	335650	61.81	0
2	336199	61.91	0
2	336756	62.01	0
2	337305	62.11	0
2	337854	62.21	0
2	338403	62.31	0
2	338952	62.41	0
2	339501	62.51	0
2	340050	62.61	0
2	340599	62.71	0
2	341148	62.81	0
2	341697	62.91	0
2	342254	63.01	0
2	342803	63.11	0
2	343352	63.21	0
2	343994	63.31	0
2	344542	63.41	0
2	345090	63.51	0
2	345638	63.61	0
2	346186	63.71	0
2	346734	63.81	0
2	347282	63.91	0
2	347838	64.01	0
2	348386	64.11	0
2	348934	64.21	0
2	349482	64.31	0
2	350030	64.41	0
2	350578	64.51	0
2	351126	64.61	0
2	351674	64.71	0
2	352222	64.81	0
2	352770	64.91	0
2	353326	65.01	0
2	353874	65.11	0
2	354422	65.21	0
2	354970	65.31	0
2	355518	65.41	0
2	356066	65.51	0
2	356614	65.61	0
2	357162	65.71	0
2	357710	65.81	0
2	358258	65.91	0
2	358814	66.01	0
2	359362	66.11	0
2	359910	66.21	0
2	360458	66.31	0
2	361006	66.41	0
2	361554	66.51	0
2	362102	66.61	0
2	362650	66.71	0
2	363198	66.81	0
2	363746	66.91	0
2	364302	67.01	0
2	364850	67.11	0
2	365398	67.21	0
2	365946	67.31	0
2	366494	67.41	0
2	367042	67.51	0
2	367590	67.61	0
2	368231	67.71	0
2	368778	67.81	0
2	369325	67.91	0
2	369880	68.01	0
2	370427	68.11	0
2	370974	68.21	0
2	371521	68.31	0
2	372068	68.41	0
2	372615	68.51	0
2	373162	68.61	0
2	373709	68.71	0
2	374256	68.81	0
2	374803	68.91	0
2	375358	69.01	0
2	375905	69.11	0
2	376452	69.21	0
2	376999	69.31	0
2	377546	69.41	0
2	378093	69.51	0
2	378640	69.61	0
2	379187	69.71	0
2	379734	69.81	0
2	380281	69.91	0
2	380836	70.01	0
2	381383	70.11	0
2	381930	70.21	0
2	382477	70.31	0
2	383024	70.41	0
2	383571	70.51	0
2	384118	70.61	0
2	384665	70.71	0
2	385212	70.81	0
2	385759	70.91	0
2	386314	71.01	0
2	386861	71.11	0
2	387408	71.21	0
2	387955	71.31	0
2	388502	71.41	0
2	389049	71.51	0
2	389596	71.61	0
2	390143	71.71	0
2	390690	71.81	0
2	391237	71.91	0
2	392536	72.01	0
2	393082	72.11	0
2	393628	72.21	0
2	394174	72.31	0
2	394720	72.41	0
2	395266	72.51	0
2	395812	72.61	0
2	396358	72.71	0
2	396904	72.81	0
2	397450	72.91	0
2	398004	73.01	0
2	398550	73.11	0
2	399096	73.21	0
2	399642	73.31	0
2	400188	73.41	0
2	400734	73.51	0
2	401280	73.61	0
2	401826	73.71	0
2	402372	73.81	0
2	402918	73.91	0
2	403472	74.01	0
2	404018	74.11	0
2	404564	74.21	0
2	405110	74.31	0
2	405656	74.41	0
2	406202	74.51	0
2	406748	74.61	0
2	407294	74.71	0
2	407840	74.81	0
2	408386	74.91	0
2	408940	75.01	0
2	409486	75.11	0
2	410032	75.21	0
2	410578	75.31	0
2	411124	75.41	0
2	411670	75.51	0
2	412216	75.61	0
2	412762	75.71	0
2	413308	75.81	0
2	413854	75.91	0
2	414408	76.01	0
2	414954	76.11	0
2	415500	76.21	0
2	416046	76.31	0
2	416592	76.41	0
2	417138	76.51	0
2	417684	76.61	0
2	418230	76.71	0
2	418776	76.81	0
2	419322	76.91	0
2	419876	77.01	0
2	420422	77.11	0
2	420968	77.21	0
2	421514	77.31	0
2	422060	77.41	0
2	422606	77.51	0
2	423152	77.61	0
2	423698	77.71	0
2	424244	77.81	0
2	424790	77.91	0
2	425344	78.01	0
2	425890	78.11	0
2	426436	78.21	0
2	426982	78.31	0
2	427528	78.41	0
2	428074	78.51	0
2	428620	78.61	0
2	429166	78.71	0
2	429712	78.81	0
2	430258	78.91	0
2	430812	79.01	0
2	431358	79.11	0
2	431904	79.21	0
2	432450	79.31	0
2	432996	79.41	0
2	433542	79.51	0
2	434088	79.61	0
2	434634	79.71	0
2	435180	79.81	0
2	435726	79.91	0
2	436280	80.01	0
2	436826	80.11	0
2	437372	80.21	0
2	437918	80.31	0
2	438464	80.41	0
2	439010	80.51	0
2	439556	80.61	0
2	440102	80.71	0
2	440648	80.81	0
2	441194	80.91	0
2	441748	81.01	0
2	442294	81.11	0
2	442840	81.21	0
2	443386	81.31	0
2	443932	81.41	0
2	444478	81.51	0
2	445024	81.61	0
2	445570	81.71	0
2	446116	81.81	0
2	446662	81.91	0
2	447216	82.01	0
2	447762	82.11	0
2	448308	82.21	0
2	448854	82.31	0
2	449400	82.41	0
2	449946	82.51	0
2	450492	82.61	0
2	451038	82.71	0
2	451584	82.81	0
2	452130	82.91	0
2	452684	83.01	0
2	453230	83.11	0
2	453776	83.21	0
2	454322	83.31	0
2	454868	83.41	0
2	455414	83.51	0
2	455960	83.61	0
2	456506	83.71	0
2	457052	83.81	0
2	457598	83.91	0
2	458152	84.01	0
2	458698	84.11	0
2	459244	84.21	0
2	459790	84.31	0
2	460336	84.41	0
2	460882	84.51	0
2	461428	84.61	0
2	461974	84.71	0
2	462520	84.81	0
2	463066	84.91	0
2	463620	85.01	0
2	464166	85.11	0
2	464712	85.21	0
2	465258	85.31	0
2	465804	85.41	0
2	466350	85.51	0
2	466896	85.61	0
2	467442	85.71	0
2	467988	85.81	0
2	468534	85.91	0
2	469088	86.01	0
2	469634	86.11	0
2	470180	86.21	0
2	470726	86.31	0
2	471272	86.41	0
2	471818	86.51	0
2	472364	86.61	0
2	472910	86.71	0
2	473456	86.81	0
2	474002	86.91	0
2	474556	87.01	0
2	475102	87.11	0
2	475648	87.21	0
2	476194	87.31	0
2	476740	87.41	0
2	477286	87.51	0
2	477832	87.61	0
2	478378	87.71	0
2	478924	87.81	0
2	479470	87.91	0
2	480024	88.01	0
2	480570	88.11	0
2	481116	88.21	0
2	481662	88.31	0
2	482208	88.41	0
2	482754	88.51	0
2	483300	88.61	0
2	483846	88.71	0
2	484392	88.81	0
2	484938	88.91	0
2	485492	89.01	0
2	486038	89.11	0
2	486584	89.21	0
2	487130	89.31	0
2	487676	89.41	0
2	488222	89.51	0
2	488768	89.61	0
2	489314	89.71	0
2	489860	89.81	0
2	490406	89.91	0
2	490960	90.01	0
2	491506	90.11	0
2	492052	90.21	0
2	492598	90.31	0
2	493144	90.41	0
2	493690	90.51	0
2	494236	90.61	0
2	494782	90.71	0
2	495328	90.81	0
2	495874	90.91	0
2	496428	91.01	0
2	496974	91.11	0
2	497520	91.21	0
2	498066	91.31	0
2	498612	91.41	0
2	499158	91.51	0
2	499704	91.61	0
2	500250	91.71	0
2	500796	91.81	0
2	501342	91.91	0
2	501896	92.01	0
2	502442	92.11	0
2	502988	92.21	0
2	503534	92.31	0
2	504080	92.41	0
2	504626	92.51	0
2	505172	92.61	0
2	505718	92.71	0
2	506264	92.81	0
2	506810	92.91	0
2	507364	93.01	0
2	507910	93.11	0
2	508456	93.21	0
2	509002	93.31	0
2	509548	93.41	0
2	510094	93.51	0
2	510640	93.61	0
2	511186	93.71	0
2	511732	93.81	0
2	512278	93.91	0
2	512832	94.01	0
2	513378	94.11	0
2	513924	94.21	0
2	514470	94.31	0
2	515016	94.41	0
2	515562	94.51	0
2	516108	94.61	0
2	516654	94.71	0
2	517200	94.81	0
2	517746	94.91	0
2	518300	95.01	0
2	518846	95.11	0
2	519392	95.21	0
2	519938	95.31	0
2	520484	95.41	0
2	521030	95.51	0
2	521576	95.61	0
2	522122	95.71	0
2	522668	95.81	0
2	523214	95.91	0
2	523768	96.01	0
2	524314	96.11	0
2	524860	96.21	0
2	525406	96.31	0
2	525952	96.41	0
2	526498	96.51	0
2	527044	96.61	0
2	527590	96.71	0
2	528136	96.81	0
2	528682	96.91	0
2	529236	97.01	0
2	529782	97.11	0
2	530328	97.21	0
2	530874	97.31	0
2	531420	97.41	0
2	531966	97.51	0
2	532512	97.61	0
2	533058	97.71	0
2	533604	97.81	0
2	534150	97.91	0
2	534704	98.01	0
2	535250	98.11	0
2	535796	98.21	0
2	536342	98.31	0
2	536888	98.41	0
2	537434	98.51	0
2	537980	98.61	0
2	538526	98.71	0
2	539072	98.81	0
2	539618	98.91	0
2	540172	99.01	0
2	540718	99.11	0
2	541264	99.21	0
2	541810	99.31	0
2	542356	99.41	0
2	542902	99.51	0
2	543448	99.61	0
2	543994	99.71	0
2	544540	99.81	0
2	545086	99.91	0
3	113	1.11	0.000179096
3	659	1.21	0.000340852
3	1205	1.31	0.000467435
3	1751	1.41	0.000562893
3	2297	1.51	0.000631106
3	2843	1.61	0.000675745
3	3389	1.71	0.000700245
3	3935	1.81	0.000707784
3	4481	1.91	0.000701273
3	5035	2.01	0.000683354
3	5581	2.11	0.000656398
3	6127	2.21	0.000622512
3	6673	2.31	0.000583548
3	7219	2.41	0.000541117
3	7765	2.51	0.000496604
3	8311	2.61	0.000451181
3	8857	2.71	0.000405825
3	9403	2.81	0.00036134
3	9949	2.91	0.000318365
3	10503	3.01	0.0002774
3	11049	3.11	0.00023882
3	11595	3.21	0.000202887
3	12141	3.31	0.00016977
3	12687	3.41	0.000139558
3	13233	3.51	0.000112271
3	13779	3.61	8.78717e-05
3	14325	3.71	6.628e-05
3	14871	3.81	4.73785e-05
3	15417	3.91	3.1023e-05
3	15971	4.01	1.70493e-05
3	16517	4.11	5.28023e-06
3	17063	4.21	-4.46922e-06
3	17609	4.31	-1.2387e-05
3	18155	4.41	-1.86602e-05
3	18701	4.51	-2.34717e-05
3	19247	4.61	-2.69978e-05
3	19793	4.71	-2.94062e-05
3	20339	4.81	-3.08545e-05
3	20885	4.91	-3.14892e-05
3	21439	5.01	-3.14451e-05
3	21985	5.11	-3.0845e-05
3	22531	5.21	-2.97994e-05
3	23077	5.31	-2.84072e-05
3	23623	5.41	-2.67556e-05
3	24169	5.51	-2.49208e-05
3	24715	5.61	-2.29687e-05
3	25261	5.71	-2.09553e-05
3	25807	5.81	-1.89277e-05
3	26353	5.91	-1.6925e-05
3	26907	6.01	-1.49784e-05
3	27453	6.11	-1.31129e-05
3	27999	6.21	-1.13474e-05
3	28545	6.31	-9.69553e-06
3	29091	6.41	-8.16651e-06
3	29637	6.51	-6.76571e-06
3	30183	6.61	-5.49522e-06
3	30729	6.71	-4.35441e-06
3	31275	6.81	-3.34045e-06
3	31821	6.91	-2.44874e-06
3	32375	7.01	-1.6733e-06
3	32921	7.11	-1.00716e-06
3	33467	7.21	-4.42628e-07
3	34013	7.31	2.84224e-08
3	34559	7.41	4.14339e-07
3	35105	7.51	7.23492e-07
3	35651	7.61	9.6413e-07
3	36197	7.71	1.14424e-06
3	36743	7.81	1.27148e-06
3	37289	7.91	1.35305e-06
3	37843	8.01	1.3957e-06
3	38389	8.11	1.40565e-06
3	38935	8.21	1.3886e-06
3	39481	8.31	1.34971e-06
3	40027	8.41	1.2936e-06
3	40573	8.51	1.22437e-06
3	41119	8.61	1.14561e-06
3	41665	8.71	1.06046e-06
3	42211	8.81	9.71582e-07
3	42757	8.91	8.81246e-07
3	43311	9.01	7.91334e-07
3	43857	9.11	7.03381e-07
3	44403	9.21	6.18613e-07
3	44949	9.31	5.37979e-07
3	45495	9.41	4.62183e-07
3	46041	9.51	3.91714e-07
3	46587	9.61	3.26878e-07
3	47133	9.71	2.67827e-07
3	47679	9.81	2.14581e-07
3	48225	9.91	1.67052e-07
3	48853	10.01	1.25066e-07
3	49406	10.11	8.83794e-08
3	49959	10.21	5.66978e-08
3	50512	10.31	2.96922e-08
3	51065	10.41	7.00453e-09
3	51618	10.51	-1.17325e-08
3	52171	10.61	-2.68933e-08
3	52724	10.71	-3.88482e-08
3	53277	10.81	-4.79581e-08
3	53830	10.91	-5.45704e-08
3	54391	11.01	-5.90177e-08
3	54944	11.11	-6.16069e-08
3	55497	11.21	-6.26265e-08
3	56050	11.31	-6.23395e-08
3	56603	11.41	-6.09859e-08
3	57156	11.51	-5.87811e-08
3	57709	11.61	-5.59183e-08
3	58262	11.71	-5.25674e-08
3	58815	11.81	-4.88761e-08
3	59368	11.91	-4.4971e-08
3	59929	12.01	-4.09599e-08
3	60482	12.11	-3.69354e-08
3	61035	12.21	-3.29713e-08
3	61588	12.31	-2.9128e-08
3	62141	12.41	-2.54531e-08
3	62694	12.51	-2.19821e-08
3	63247	12.61	-1.87399e-08
3	63800	12.71	-1.57428e-08
3	64353	12.81	-1.30029e-08
3	64906	12.91	-1.05217e-08
3	65467	13.01	-8.29772e-09
3	66020	13.11	-6.32454e-09
3	66573	13.21	-4.59224e-09
3	67126	13.31	-3.08802e-09
3	67679	13.41	-1.79838e-09
3	68232	13.51	-7.08411e-10
3	68785	13.61	1.98241e-10
3	69338	13.71	9.37916e-10
3	69891	13.81	1.52767e-09
3	70444	13.91	1.98384e-09
3	71005	14.01	2.32276e-09
3	71558	14.11	2.55937e-09
3	72111	14.21	2.70788e-09
3	72664	14.31	2.78249e-09
3	73217	14.41	2.79243e-09
3	73770	14.51	2.7498e-09
3	74323	14.61	2.66525e-09
3	74876	14.71	2.54872e-09
3	75429	14.81	2.40803e-09
3	75982	14.91	2.24887e-09
3	76543	15.01	2.07763e-09
3	77096	15.11	1.89999e-09
3	77649	15.21	1.72236e-09
3	78202	15.31	1.54472e-09
3	78755	15.41	1.37064e-09
3	79308	15.51	1.20295e-09
3	79861	15.61	1.04379e-09
3	80414	15.71	8.94573e-10
3	80967	15.81	7.56017e-10
3	81520	15.91	6.29541e-10
3	82081	16.01	5.13012e-10
3	82634	16.11	4.09273e-10
3	83187	16.21	3.16902e-10
3	83740	16.31	2.3519e-10
3	84293	16.41	1.63425e-10
3	84846	16.51	1.02318e-10
3	85399	16.61	4.9738e-11
3	85952	16.71	5.68434e-12
3	86505	16.81	-3.05533e-11
3	87058	16.91	-5.8975e-11
3	87619	17.01	-8.10019e-11
3	88172	17.11	-9.80549e-11
3	88725	17.21	-1.11555e-10
3	89278	17.31	-1.18661e-10
3	89831	17.41	-1.23634e-10
3	90384	17.51	-1.23634e-10
3	90937	17.61	-1.23634e-10
3	91490	17.71	-1.21503e-10
3	92043	17.81	-1.14397e-10
3	92596	17.91	-1.07292e-10
3	93157	18.01	-1.00187e-10
3	93710	18.11	-9.30811e-11
3	94263	18.21	-8.59757e-11
3	94816	18.31	-7.88702e-11
3	95369	18.41	-7.17648e-11
3	95922	18.51	-6.46594e-11
3	96475	18.61	-5.7554e-11
3	97028	18.71	-5.04485e-11
3	97581	18.81	-4.33431e-11
3	98134	18.91	-3.62377e-11
3	98695	19.01	-2.91323e-11
3	99248	19.11	-2.20268e-11
3	99801	19.21	-1.7053e-11
3	100354	19.31	-1.49214e-11
3	100907	19.41	-1.35003e-11
3	101460	19.51	-1.27898e-11
3	102013	19.61	-1.13687e-11
3	102566	19.71	-9.9476e-12
3	103119	19.81	-9.23706e-12
3	103672	19.91	-8.52651e-12
3	104233	20.01	-7.81597e-12
3	104786	20.11	-7.10543e-12
3	105339	20.21	-6.39488e-12
3	105892	20.31	-5.68434e-12
3	106445	20.41	-4.9738e-12
3	106998	20.51	-4.26326e-12
3	107551	20.61	-4.26326e-12
3	108104	20.71	-3.55271e-12
3	108657	20.81	-3.55271e-12
3	109210	20.91	-2.84217e-12
3	109771	21.01	-2.84217e-12
3	110324	21.11	-2.84217e-12
3	110877	21.21	-2.13163e-12
3	111430	21.31	-2.13163e-12
3	111983	21.41	-2.13163e-12
3	112536	21.51	-1.42109e-12
3	113089	21.61	-1.42109e-12
3	113642	21.71	-1.42109e-12
3	114195	21.81	-1.42109e-12
3	114748	21.91	-1.42109e-12
3	115309	22.01	-7.10543e-13
3	115862	22.11	-7.10543e-13
3	116415	22.21	-7.10543e-13
3	116968	22.31	-7.10543e-13
3	117521	22.41	-7.10543e-13
3	118074	22.51	-7.10543e-13
3	118627	22.61	-7.10543e-13
3	119180	22.71	-7.10543e-13
3	119733	22.81	-7.10543e-13
3	120286	22.91	-7.10543e-13
3	120847	23.01	0
3	121400	23.11	0
3	121953	23.21	0
3	122506	23.31	0
3	123059	23.41	0
3	123612	23.51	0
3	124165	23.61	0
3	124718	23.71	0
3	125271	23.81	0
3	125824	23.91	0
3	126385	24.01	0
3	126938	24.11	0
3	127491	24.21	0
3	128044	24.31	0
3	128597	24.41	0
3	129150	24.51	0
3	129703	24.61	0
3	130256	24.71	0
3	130809	24.81	0
3	131362	24.91	0
3	131923	25.01	0
3	132476	25.11	0
3	133029	25.21	0
3	133582	25.31	0
3	134135	25.41	0
3	134688	25.51	0
3	135241	25.61	0
3	135794	25.71	0
3	136347	25.81	0
3	136900	25.91	0
3	137461	26.01	0
3	138014	26.11	0
3	138567	26.21	0
3	139120	26.31	0
3	139673	26.41	0
3	140226	26.51	0
3	140779	26.61	0
3	141332	26.71	0
3	141885	26.81	0
3	142438	26.91	0
3	142999	27.01	0
3	143552	27.11	0
3	144105	27.21	0
3	144658	27.31	0
3	145211	27.41	0
3	145764	27.51	0
3	146317	27.61	0
3	146870	27.71	0
3	147423	27.81	0
3	147976	27.91	0
3	148537	28.01	0
3	149090	28.11	0
3	149643	28.21	0
3	150196	28.31	0
3	150749	28.41	0
3	151302	28.51	0
3	151855	28.61	0
3	152408	28.71	0
3	152961	28.81	0
3	153514	28.91	0
3	154075	29.01	0
3	154628	29.11	0
3	155181	29.21	0
3	155734	29.31	0
3	156287	29.41	0
3	156840	29.51	0
3	157393	29.61	0
3	157946	29.71	0
3	158499	29.81	0
3	159052	29.91	0
3	159613	30.01	0
3	160166	30.11	0
3	160719	30.21	0
3	161272	30.31	0
3	161825	30.41	0
3	162378	30.51	0
3	162931	30.61	0
3	163484	30.71	0
3	164037	30.81	0
3	164590	30.91	0
3	165151	31.01	0
3	165704	31.11	0
3	166257	31.21	0
3	166810	31.31	0
3	167363	31.41	0
3	167916	31.51	0
3	168469	31.61	0
3	169022	31.71	0
3	169575	31.81	0
3	170128	31.91	0
3	170689	32.01	0
3	171242	32.11	0
3	171795	32.21	0
3	172348	32.31	0
3	172901	32.41	0
3	173454	32.51	0
3	174007	32.61	0
3	174560	32.71	0
3	175113	32.81	0
3	175666	32.91	0
3	176227	33.01	0
3	176780	33.11	0
3	177333	33.21	0
3	177886	33.31	0
3	178439	33.41	0
3	178992	33.51	0
3	179545	33.61	0
3	180098	33.71	0
3	180651	33.81	0
3	181204	33.91	0
3	181765	34.01	0
3	182318	34.11	0
3	182871	34.21	0
3	183424	34.31	0
3	183977	34.41	0
3	184530	34.51	0
3	185083	34.61	0
3	185636	34.71	0
3	186189	34.81	0
3	186742	34.91	0
3	187303	35.01	0
3	187856	35.11	0
3	188409	35.21	0
3	188962	35.31	0
3	189515	35.41	0
3	190068	35.51	0
3	190621	35.61	0
3	191174	35.71	0
3	191727	35.81	0
3	192280	35.91	0
3	192841	36.01	0
3	193394	36.11	0
3	193947	36.21	0
3	194500	36.31	0
3	195053	36.41	0
3	195606	36.51	0
3	196159	36.61	0
3	196712	36.71	0
3	197265	36.81	0
3	197818	36.91	0
3	198379	37.01	0
3	198932	37.11	0
3	199485	37.21	0
3	200038	37.31	0
3	200591	37.41	0
3	201144	37.51	0
3	201697	37.61	0
3	202250	37.71	0
3	202803	37.81	0
3	203356	37.91	0
3	203917	38.01	0
3	204470	38.11	0
3	205023	38.21	0
3	205576	38.31	0
3	206129	38.41	0
3	206682	38.51	0
3	207235	38.61	0
3	207788	38.71	0
3	208341	38.81	0
3	208894	38.91	0
3	209455	39.01	0
3	210008	39.11	0
3	210561	39.21	0
3	211114	39.31	0
3	211667	39.41	0
3	212220	39.51	0
3	212773	39.61	0
3	213326	39.71	0
3	213879	39.81	0
3	214432	39.91	0
3	214993	40.01	0
3	215546	40.11	0
3	216099	40.21	0
3	216652	40.31	0
3	217205	40.41	0
3	217758	40.51	0
3	218311	40.61	0
3	218864	40.71	0
3	219417	40.81	0
3	219970	40.91	0
3	220531	41.01	0
3	221084	41.11	0
3	221637	41.21	0
3	222190	41.31	0
3	222743	41.41	0
3	223296	41.51	0
3	223849	41.61	0
3	224402	41.71	0
3	224955	41.81	0
3	225508	41.91	0
3	226069	42.01	0
3	226622	42.11	0
3	227175	42.21	0
3	227728	42.31	0
3	228281	42.41	0
3	228834	42.51	0
3	229387	42.61	0
3	230033	42.71	0
3	230585	42.81	0
3	231137	42.91	0
3	231697	43.01	0
3	232249	43.11	0
3	232801	43.21	0
3	233353	43.31	0
3	233905	43.41	0
3	234457	43.51	0
3	235009	43.61	0
3	235561	43.71	0
3	236113	43.81	0
3	236665	43.91	0
3	237225	44.01	0
3	237777	44.11	0
3	238329	44.21	0
3	238881	44.31	0
3	239433	44.41	0
3	239985	44.51	0
3	240537	44.61	0
3	241089	44.71	0
3	241641	44.81	0
3	242193	44.91	0
3	242753	45.01	0
3	243305	45.11	0
3	243857	45.21	0
3	244409	45.31	0
3	244961	45.41	0
3	245513	45.51	0
3	246065	45.61	0
3	246617	45.71	0
3	247169	45.81	0
3	247721	45.91	0
3	248281	46.01	0
3	248833	46.11	0
3	249385	46.21	0
3	249937	46.31	0
3	250489	46.41	0
3	251041	46.51	0
3	251593	46.61	0
3	252145	46.71	0
3	252697	46.81	0
3	253249	46.91	0
3	253809	47.01	0
3	254361	47.11	0
3	254913	47.21	0
3	255465	47.31	0
3	256017	47.41	0
3	256569	47.51	0
3	257121	47.61	0
3	257673	47.71	0
3	258225	47.81	0
3	258777	47.91	0
3	259337	48.01	0
3	259889	48.11	0
3	260441	48.21	0
3	260993	48.31	0
3	261545	48.41	0
3	262190	48.51	0
3	262741	48.61	0
3	263292	48.71	0
3	263843	48.81	0
3	264394	48.91	0
3	264953	49.01	0
3	265504	49.11	0
3	266055	49.21	0
3	266606	49.31	0
3	267157	49.41	0
3	267708	49.51	0
3	268259	49.61	0
3	268810	49.71	0
3	269361	49.81	0
3	269912	49.91	0
3	270471	50.01	0
3	271022	50.11	0
3	271573	50.21	0
3	272124	50.31	0
3	272675	50.41	0
3	273226	50.51	0
3	273777	50.61	0
3	274328	50.71	0
3	274879	50.81	0
3	275430	50.91	0
3	275989	51.01	0
3	276540	51.11	0
3	277091	51.21	0
3	277642	51.31	0
3	278193	51.41	0
3	278744	51.51	0
3	279295	51.61	0
3	279846	51.71	0
3	280397	51.81	0
3	280948	51.91	0
3	281507	52.01	0
3	282058	52.11	0
3	282609	52.21	0
3	283160	52.31	0
3	283711	52.41	0
3	284262	52.51	0
3	284813	52.61	0
3	285364	52.71	0
3	285915	52.81	0
3	286466	52.91	0
3	287025	53.01	0
3	287576	53.11	0
3	288127	53.21	0
3	288678	53.31	0
3	289229	53.41	0
3	289780	53.51	0
3	290331	53.61	0
3	290975	53.71	0
3	291525	53.81	0
3	292075	53.91	0
3	292633	54.01	0
3	293183	54.11	0
3	293733	54.21	0
3	294283	54.31	0
3	294833	54.41	0
3	295383	54.51	0
3	295933	54.61	0
3	296483	54.71	0
3	297033	54.81	0
3	297583	54.91	0
3	298141	55.01	0
3	298691	55.11	0
3	299241	55.21	0
3	299791	55.31	0
3	300341	55.41	0
3	300891	55.51	0
3	301441	55.61	0
3	301991	55.71	0
3	302541	55.81	0
3	303091	55.91	0
3	303649	56.01	0
3	304199	56.11	0
3	304749	56.21	0
3	305299	56.31	0
3	305849	56.41	0
3	306399	56.51	0
3	306949	56.61	0
3	307499	56.71	0
3	308049	56.81	0
3	308599	56.91	0
3	309157	57.01	0
3	309707	57.11	0
3	310257	57.21	0
3	310807	57.31	0
3	311357	57.41	0
3	311907	57.51	0
3	312457	57.61	0
3	313007	57.71	0
3	313557	57.81	0
3	314107	57.91	0
3	314665	58.01	0
3	315215	58.11	0
3	315765	58.21	0
3	316315	58.31	0
3	316865	58.41	0
3	317415	58.51	0
3	318058	58.61	0
3	318607	58.71	0
3	319156	58.81	0
3	319705	58.91	0
3	320262	59.01	0
3	320811	59.11	0
3	321360	59.21	0
3	321909	59.31	0
3	322458	59.41	0
3	323007	59.51	0
3	323556	59.61	0
3	324105	59.71	0
3	324654	59.81	0
3	325203	59.91	0
3	325760	60.01	0
3	326309	60.11	0
3	326858	60.21	0
3	327407	60.31	0
3	327956	60.41	0
3	328505	60.51	0
3	329054	60.61	0
3	329603	60.71	0
3	330152	60.81	0
3	330701	60.91	0
3	331258	61.01	0
3	331807	61.11	0
3	332356	61.21	0
3	332905	61.31	0
3	333454	61.41	0
3	334003	61.51	0
3	334552	61.61	0
3	335101	61.71	0
3	335650	61.81	0
3	336199	61.91	0
3	336756	62.01	0
3	337305	62.11	0
3	337854	62.21	0
3	338403	62.31	0
3	338952	62.41	0
3	339501	62.51	0
3	340050	62.61	0
3	340599	62.71	0
3	341148	62.81	0
3	341697	62.91	0
3	342254	63.01	0
3	342803	63.11	0
3	343352	63.21	0
3	343994	63.31	0
3	344542	63.41	0
3	345090	63.51	0
3	345638	63.61	0
3	346186	63.71	0
3	346734	63.81	0
3	347282	63.91	0
3	347838	64.01	0
3	348386	64.11	0
3	348934	64.21	0
3	349482	64.31	0
3	350030	64.41	0
3	350578	64.51	0
3	351126	64.61	0
3	351674	64.71	0
3	352222	64.81	0
3	352770	64.91	0
3	353326	65.01	0
3	353874	65.11	0
3	354422	65.21	0
3	354970	65.31	0
3	355518	65.41	0
3	356066	65.51	0
3	356614	65.61	0
3	357162	65.71	0
3	357710	65.81	0
3	358258	65.91	0
3	358814	66.01	0
3	359362	66.11	0
3	359910	66.21	0
3	360458	66.31	0
3	361006	66.41	0
3	361554	66.51	0
3	362102	66.61	0
3	362650	66.71	0
3	363198	66.81	0
3	363746	66.91	0
3	364302	67.01	0
3	364850	67.11	0
3	365398	67.21	0
3	365946	67.31	0
3	366494	67.41	0
3	367042	67.51	0
3	367590	67.61	0
3	368231	67.71	0
3	368778	67.81	0
3	369325	67.91	0
3	369880	68.01	0
3	370427	68.11	0
3	370974	68.21	0
3	371521	68.31	0
3	372068	68.41	0
3	372615	68.51	0
3	373162	68.61	0
3	373709	68.71	0
3	374256	68.81	0
3	374803	68.91	0
3	375358	69.01	0
3	375905	69.11	0
3	376452	69.21	0
3	376999	69.31	0
3	377546	69.41	0
3	378093	69.51	0
3	378640	69.61	0
3	379187	69.71	0
3	379734	69.81	0
3	380281	69.91	0
3	380836	70.01	0
3	381383	70.11	0
3	381930	70.21	0
3	382477	70.31	0
3	383024	70.41	0
3	383571	70.51	0
3	384118	70.61	0
3	384665	70.71	0
3	385212	70.81	0
3	385759	70.91	0
3	386314	71.01	0
3	386861	71.11	0
3	387408	71.21	0
3	387955	71.31	0
3	388502	71.41	0
3	389049	71.51	0
3	389596	71.61	0
3	390143	71.71	0
3	390690	71.81	0
3	391237	71.91	0
3	392536	72.01	0
3	393082	72.11	0
3	393628	72.21	0
3	394174	72.31	0
3	394720	72.41	0
3	395266	72.51	0
3	395812	72.61	0
3	396358	72.71	0
3	396904	72.81	0
3	397450	72.91	0
3	398004	73.01	0
3	398550	73.11	0
3	399096	73.21	0
3	399642	73.31	0
3	400188	73.41	0
3	400734	73.51	0
3	401280	73.61	0
3	401826	73.71	0
3	402372	73.81	0
3	402918	73.91	0
3	403472	74.01	0
3	404018	74.11	0
3	404564	74.21	0
3	405110	74.31	0
3	405656	74.41	0
3	406202	74.51	0
3	406748	74.61	0
3	407294	74.71	0
3	407840	74.81	0
3	408386	74.91	0
3	408940	75.01	0
3	409486	75.11	0
3	410032	75.21	0
3	410578	75.31	0
3	411124	75.41	0
3	411670	75.51	0
3	412216	75.61	0
3	412762	75.71	0
3	413308	75.81	0
3	413854	75.91	0
3	414408	76.01	0
3	414954	76.11	0
3	415500	76.21	0
3	416046	76.31	0
3	416592	76.41	0
3	417138	76.51	0
3	417684	76.61	0
3	418230	76.71	0
3	418776	76.81	0
3	419322	76.91	0
3	419876	77.01	0
3	420422	77.11	0
3	420968	77.21	0
3	421514	77.31	0
3	422060	77.41	0
3	422606	77.51	0
3	423152	77.61	0
3	423698	77.71	0
3	424244	77.81	0
3	424790	77.91	0
3	425344	78.01	0
3	425890	78.11	0
3	426436	78.21	0
3	426982	78.31	0
3	427528	78.41	0
3	428074	78.51	0
3	428620	78.61	0
3	429166	78.71	0
3	429712	78.81	0
3	430258	78.91	0
3	430812	79.01	0
3	431358	79.11	0
3	431904	79.21	0
3	432450	79.31	0
3	432996	79.41	0
3	433542	79.51	0
3	434088	79.61	0
3	434634	79.71	0
3	435180	79.81	0
3	435726	79.91	0
3	436280	80.01	0
3	436826	80.11	0
3	437372	80.21	0
3	437918	80.31	0
3	438464	80.41	0
3	439010	80.51	0
3	439556	80.61	0
3	440102	80.71	0
3	440648	80.81	0
3	441194	80.91	0
3	441748	81.01	0
3	442294	81.11	0
3	442840	81.21	0
3	443386	81.31	0
3	443932	81.41	0
3	444478	81.51	0
3	445024	81.61	0
3	445570	81.71	0
3	446116	81.81	0
3	446662	81.91	0
3	447216	82.01	0
3	447762	82.11	0
3	448308	82.21	0
3	448854	82.31	0
3	449400	82.41	0
3	449946	82.51	0
3	450492	82.61	0
3	451038	82.71	0
3	451584	82.81	0
3	452130	82.91	0
3	452684	83.01	0
3	453230	83.11	0
3	453776	83.21	0
3	454322	83.31	0
3	454868	83.41	0
3	455414	83.51	0
3	455960	83.61	0
3	456506	83.71	0
3	457052	83.81	0
3	457598	83.91	0
3	458152	84.01	0
3	458698	84.11	0
3	459244	84.21	0
3	459790	84.31	0
3	460336	84.41	0
3	460882	84.51	0
3	461428	84.61	0
3	461974	84.71	0
3	462520	84.81	0
3	463066	84.91	0
3	463620	85.01	0
3	464166	85.11	0
3	464712	85.21	0
3	465258	85.31	0
3	465804	85.41	0
3	466350	85.51	0
3	466896	85.61	0
3	467442	85.71	0
3	467988	85.81	0
3	468534	85.91	0
3	469088	86.01	0
3	469634	86.11	0
3	470180	86.21	0
3	470726	86.31	0
3	471272	86.41	0
3	471818	86.51	0
3	472364	86.61	0
3	472910	86.71	0
3	473456	86.81	0
3	474002	86.91	0
3	474556	87.01	0
3	475102	87.11	0
3	475648	87.21	0
3	476194	87.31	0
3	476740	87.41	0
3	477286	87.51	0
3	477832	87.61	0
3	478378	87.71	0
3	478924	87.81	0
3	479470	87.91	0
3	480024	88.01	0
3	480570	88.11	0
3	481116	88.21	0
3	481662	88.31	0
3	482208	88.41	0
3	482754	88.51	0
3	483300	88.61	0
3	483846	88.71	0
3	484392	88.81	0
3	484938	88.91	0
3	485492	89.01	0
3	486038	89.11	0
3	486584	89.21	0
3	487130	89.31	0
3	487676	89.41	0
3	488222	89.51	0
3	488768	89.61	0
3	489314	89.71	0
3	489860	89.81	0
3	490406	89.91	0
3	490960	90.01	0
3	491506	90.11	0
3	492052	90.21	0
3	492598	90.31	0
3	493144	90.41	0
3	493690	90.51	0
3	494236	90.61	0
3	494782	90.71	0
3	495328	90.81	0
3	495874	90.91	0
3	496428	91.01	0
3	496974	91.11	0
3	497520	91.21	0
3	498066	91.31	0
3	498612	91.41	0
3	499158	91.51	0
3	499704	91.61	0
3	500250	91.71	0
3	500796	91.81	0
3	501342	91.91	0
3	501896	92.01	0
3	502442	92.11	0
3	502988	92.21	0
3	503534	92.31	0
3	504080	92.41	0
3	504626	92.51	0
3	505172	92.61	0
3	505718	92.71	0
3	506264	92.81	0
3	506810	92.91	0
3	507364	93.01	0
3	507910	93.11	0
3	508456	93.21	0
3	509002	93.31	0
3	509548	93.41	0
3	510094	93.51	0
3	510640	93.61	0
3	511186	93.71	0
3	511732	93.81	0
3	512278	93.91	0
3	512832	94.01	0
3	513378	94.11	0
3	513924	94.21	0
3	514470	94.31	0
3	515016	94.41	0
[...]
104	408803	75	4
104	414271	76	4
104	419739	77	4
104	425207	78	4
104	430675	79	4
104	436143	80	4
104	441611	81	4
104	447079	82	4
104	452547	83	4
104	458015	84	4
104	463483	85	4
104	468951	86	4
104	474419	87	4
104	479887	88	4
104	485355	89	4
104	490823	90	4
104	496291	91	4
104	501759	92	4
104	507227	93	4
104	512695	94	4
104	518163	95	4
104	523631	96	4
104	529099	97	4
104	534567	98	4
104	540035	99	4
104	545503	100	4
105	4898	2	0.021849
105	10366	3	0.02497
105	15834	4	0.02497
105	21302	5	0.02497
105	26770	6	0.02497
105	32238	7	0.02497
105	37706	8	0.02497
105	43174	9	0.02497
105	48643	10	0.02497
105	54247	11	0.025018
105	59785	12	0.02497
105	65323	13	0.02497
105	70861	14	0.02497
105	76399	15	0.02497
105	81937	16	0.02497
105	87475	17	0.02497
105	93013	18	0.02497
105	98551	19	0.02497
105	104089	20	0.02497
105	109627	21	0.02497
105	115165	22	0.02497
105	120703	23	0.02497
105	126241	24	0.02497
105	131779	25	0.02497
105	137317	26	0.02497
105	142855	27	0.02497
105	148393	28	0.02497
105	153931	29	0.02497
105	159469	30	0.02497
105	165007	31	0.02497
105	170545	32	0.02497
105	176083	33	0.02497
105	181621	34	0.02497
105	187159	35	0.02497
105	192697	36	0.02497
105	198235	37	0.02497
105	203773	38	0.02497
105	209311	39	0.02497
105	214849	40	0.02497
105	220387	41	0.02497
105	225925	42	0.02497
105	231554	43	0.025082
105	237082	44	0.02497
105	242610	45	0.02497
105	248138	46	0.02497
105	253666	47	0.02497
105	259194	48	0.02497
105	264811	49	0.025082
105	270329	50	0.02497
105	275847	51	0.02497
105	281365	52	0.02497
105	286883	53	0.02497
105	292492	54	0.025082
105	298000	55	0.02497
105	303508	56	0.02497
105	309016	57	0.02497
105	314524	58	0.02497
105	320122	59	0.025115372364
105	325620	60	0.02497
105	331118	61	0.02497
105	336616	62	0.02497
105	342114	63	0.02497
105	347699	64	0.025082
105	353187	65	0.02497
105	358675	66	0.02497
105	364163	67	0.02497
105	369742	68	0.025082
105	375220	69	0.02497
105	380698	70	0.02497
105	386176	71	0.02497
105	391654	72	0.02497
105	397867	73	0.025898
105	403335	74	0.02497
105	408803	75	0.02497
105	414271	76	0.02497
105	419739	77	0.02497
105	425207	78	0.02497
105	430675	79	0.02497
105	436143	80	0.02497
105	441611	81	0.02497
105	447079	82	0.02497
105	452547	83	0.02497
105	458015	84	0.02497
105	463483	85	0.02497
105	468951	86	0.02497
105	474419	87	0.02497
105	479887	88	0.02497
105	485355	89	0.02497
105	490823	90	0.02497
105	496291	91	0.02497
105	501759	92	0.02497
105	507227	93	0.02497
105	512695	94	0.02497
105	518163	95	0.02497
105	523631	96	0.02497
105	529099	97	0.02497
105	534567	98	0.02497
105	540035	99	0.02497
105	545503	100	0.02497
106	4898	2	0
106	10366	3	0
106	15834	4	0
106	21302	5	0
106	26770	6	0
106	32238	7	0
106	37706	8	0
106	43174	9	0
106	48643	10	0
106	54247	11	0
106	59785	12	0
106	65323	13	0
106	70861	14	0
106	76399	15	0
106	81937	16	0
106	87475	17	0
106	93013	18	0
106	98551	19	0
106	104089	20	0
106	109627	21	0
106	115165	22	0
106	120703	23	0
106	126241	24	0
106	131779	25	0
106	137317	26	0
106	142855	27	0
106	148393	28	0
106	153931	29	0
106	159469	30	0
106	165007	31	0
106	170545	32	0
106	176083	33	0
106	181621	34	0
106	187159	35	0
106	192697	36	0
106	198235	37	0
106	203773	38	0
106	209311	39	0
106	214849	40	0
106	220387	41	0
106	225925	42	0
106	231554	43	0
106	237082	44	0
106	242610	45	0
106	248138	46	0
106	253666	47	0
106	259194	48	0
106	264811	49	0
106	270329	50	0
106	275847	51	0
106	281365	52	0
106	286883	53	0
106	292492	54	0
106	298000	55	0
106	303508	56	0
106	309016	57	0
106	314524	58	0
106	320122	59	0
106	325620	60	0
106	331118	61	0
106	336616	62	0
106	342114	63	0
106	347699	64	0
106	353187	65	0
106	358675	66	0
106	364163	67	0
106	369742	68	0
106	375220	69	0
106	380698	70	0
106	386176	71	0
106	391654	72	0
106	397867	73	0
106	403335	74	0
106	408803	75	0
106	414271	76	0
106	419739	77	0
106	425207	78	0
106	430675	79	0
106	436143	80	0
106	441611	81	0
106	447079	82	0
106	452547	83	0
106	458015	84	0
106	463483	85	0
106	468951	86	0
106	474419	87	0
106	479887	88	0
106	485355	89	0
106	490823	90	0
106	496291	91	0
106	501759	92	0
106	507227	93	0
106	512695	94	0
106	518163	95	0
106	523631	96	0
106	529099	97	0
106	534567	98	0
106	540035	99	0
106	545503	100	0
107	4899	2	5
107	10367	3	5
107	15835	4	5
107	21303	5	5
107	26771	6	5
107	32239	7	5
107	37707	8	5
107	43175	9	5
107	48644	10	5
107	54248	11	5
107	59786	12	5
107	65324	13	5
107	70862	14	5
107	76400	15	5
107	81938	16	5
107	87476	17	5
107	93014	18	5
107	98552	19	5
107	104090	20	5
107	109628	21	5
107	115166	22	5
107	120704	23	5
107	126242	24	5
107	131780	25	5
107	137318	26	5
107	142856	27	5
107	148394	28	5
107	153932	29	5
107	159470	30	5
107	165008	31	5
107	170546	32	5
107	176084	33	5
107	181622	34	5
107	187160	35	5
107	192698	36	5
107	198236	37	5
107	203774	38	5
107	209312	39	5
107	214850	40	5
107	220388	41	5
107	225926	42	5
107	231555	43	5
107	237083	44	5
107	242611	45	5
107	248139	46	5
107	253667	47	5
107	259195	48	5
107	264812	49	5
107	270330	50	5
107	275848	51	5
107	281366	52	5
107	286884	53	5
107	292493	54	5
107	298001	55	5
107	303509	56	5
107	309017	57	5
107	314525	58	5
107	320123	59	5
107	325621	60	5
107	331119	61	5
107	336617	62	5
107	342115	63	5
107	347700	64	5
107	353188	65	5
107	358676	66	5
107	364164	67	5
107	369743	68	5
107	375221	69	5
107	380699	70	5
107	386177	71	5
107	391655	72	5
107	397868	73	5
107	403336	74	5
107	408804	75	5
107	414272	76	5
107	419740	77	5
107	425208	78	5
107	430676	79	5
107	436144	80	5
107	441612	81	5
107	447080	82	5
107	452548	83	5
107	458016	84	5
107	463484	85	5
107	468952	86	5
107	474420	87	5
107	479888	88	5
107	485356	89	5
107	490824	90	5
107	496292	91	5
107	501760	92	5
107	507228	93	5
107	512696	94	5
107	518164	95	5
107	523632	96	5
107	529100	97	5
107	534568	98	5
107	540036	99	5
107	545504	100	5
108	4899	2	0.021848
108	10367	3	0.02497
108	15835	4	0.02497
108	21303	5	0.02497
108	26771	6	0.02497
108	32239	7	0.02497
108	37707	8	0.02497
108	43175	9	0.02497
108	48644	10	0.02497
108	54248	11	0.025018
108	59786	12	0.02497
108	65324	13	0.02497
108	70862	14	0.02497
108	76400	15	0.02497
108	81938	16	0.02497
108	87476	17	0.02497
108	93014	18	0.02497
108	98552	19	0.02497
108	104090	20	0.02497
108	109628	21	0.02497
108	115166	22	0.02497
108	120704	23	0.02497
108	126242	24	0.02497
108	131780	25	0.02497
108	137318	26	0.02497
108	142856	27	0.02497
108	148394	28	0.02497
108	153932	29	0.02497
108	159470	30	0.02497
108	165008	31	0.02497
108	170546	32	0.02497
108	176084	33	0.02497
108	181622	34	0.02497
108	187160	35	0.02497
108	192698	36	0.02497
108	198236	37	0.02497
108	203774	38	0.02497
108	209312	39	0.02497
108	214850	40	0.02497
108	220388	41	0.02497
108	225926	42	0.02497
108	231555	43	0.025082
108	237083	44	0.02497
108	242611	45	0.02497
108	248139	46	0.02497
108	253667	47	0.02497
108	259195	48	0.02497
108	264812	49	0.025082
108	270330	50	0.02497
108	275848	51	0.02497
108	281366	52	0.02497
108	286884	53	0.02497
108	292493	54	0.025082
108	298001	55	0.02497
108	303509	56	0.02497
108	309017	57	0.02497
108	314525	58	0.02497
108	320123	59	0.025082
108	325621	60	0.02497
108	331119	61	0.02497
108	336617	62	0.02497
108	342115	63	0.02497
108	347700	64	0.025115465668
108	353188	65	0.02497
108	358676	66	0.02497
108	364164	67	0.02497
108	369743	68	0.025082
108	375221	69	0.02497
108	380699	70	0.02497
108	386177	71	0.02497
108	391655	72	0.02497
108	397868	73	0.025898
108	403336	74	0.02497
108	408804	75	0.02497
108	414272	76	0.02497
108	419740	77	0.02497
108	425208	78	0.02497
108	430676	79	0.02497
108	436144	80	0.02497
108	441612	81	0.02497
108	447080	82	0.02497
108	452548	83	0.02497
108	458016	84	0.02497
108	463484	85	0.02497
108	468952	86	0.02497
108	474420	87	0.02497
108	479888	88	0.02497
108	485356	89	0.02497
108	490824	90	0.02497
108	496292	91	0.02497
108	501760	92	0.02497
108	507228	93	0.02497
108	512696	94	0.02497
108	518164	95	0.02497
108	523632	96	0.02497
108	529100	97	0.02497
108	534568	98	0.02497
108	540036	99	0.02497
108	545504	100	0.02497
109	4899	2	0
109	10367	3	0
109	15835	4	0
109	21303	5	0
109	26771	6	0
109	32239	7	0
109	37707	8	0
109	43175	9	0
109	48644	10	0
109	54248	11	0
109	59786	12	0
109	65324	13	0
109	70862	14	0
109	76400	15	0
109	81938	16	0
109	87476	17	0
109	93014	18	0
109	98552	19	0
109	104090	20	0
109	109628	21	0
109	115166	22	0
109	120704	23	0
109	126242	24	0
109	131780	25	0
109	137318	26	0
109	142856	27	0
109	148394	28	0
109	153932	29	0
109	159470	30	0
109	165008	31	0
109	170546	32	0
109	176084	33	0
109	181622	34	0
109	187160	35	0
109	192698	36	0
109	198236	37	0
109	203774	38	0
109	209312	39	0
109	214850	40	0
109	220388	41	0
109	225926	42	0
109	231555	43	0
109	237083	44	0
109	242611	45	0
109	248139	46	0
109	253667	47	0
109	259195	48	0
109	264812	49	0
109	270330	50	0
109	275848	51	0
109	281366	52	0
109	286884	53	0
109	292493	54	0
109	298001	55	0
109	303509	56	0
109	309017	57	0
109	314525	58	0
109	320123	59	0
109	325621	60	0
109	331119	61	0
109	336617	62	0
109	342115	63	0
109	347700	64	0
109	353188	65	0
109	358676	66	0
109	364164	67	0
109	369743	68	0
109	375221	69	0
109	380699	70	0
109	386177	71	0
109	391655	72	0
109	397868	73	0
109	403336	74	0
109	408804	75	0
109	414272	76	0
109	419740	77	0
109	425208	78	0
109	430676	79	0
109	436144	80	0
109	441612	81	0
109	447080	82	0
109	452548	83	0
109	458016	84	0
109	463484	85	0
109	468952	86	0
109	474420	87	0
109	479888	88	0
109	485356	89	0
109	490824	90	0
109	496292	91	0
109	501760	92	0
109	507228	93	0
109	512696	94	0
109	518164	95	0
109	523632	96	0
109	529100	97	0
109	534568	98	0
109	540036	99	0
109	545504	100	0
110	4900	2	6
110	10368	3	6
110	15836	4	6
110	21304	5	6
110	26772	6	6
110	32240	7	6
110	37708	8	6
110	43176	9	6
110	48645	10	6
110	54249	11	6
110	59787	12	6
110	65325	13	6
110	70863	14	6
110	76401	15	6
110	81939	16	6
110	87477	17	6
110	93015	18	6
110	98553	19	6
110	104091	20	6
110	109629	21	6
110	115167	22	6
110	120705	23	6
110	126243	24	6
110	131781	25	6
110	137319	26	6
110	142857	27	6
110	148395	28	6
110	153933	29	6
110	159471	30	6
110	165009	31	6
110	170547	32	6
110	176085	33	6
110	181623	34	6
110	187161	35	6
110	192699	36	6
110	198237	37	6
110	203775	38	6
110	209313	39	6
110	214851	40	6
110	220389	41	6
110	225927	42	6
110	231556	43	6
110	237084	44	6
110	242612	45	6
110	248140	46	6
110	253668	47	6
110	259196	48	6
110	264813	49	6
110	270331	50	6
110	275849	51	6
110	281367	52	6
110	286885	53	6
110	292494	54	6
110	298002	55	6
110	303510	56	6
110	309018	57	6
110	314526	58	6
110	320124	59	6
110	325622	60	6
110	331120	61	6
110	336618	62	6
110	342116	63	6
110	347701	64	6
110	353189	65	6
110	358677	66	6
110	364165	67	6
110	369744	68	6
110	375222	69	6
110	380700	70	6
110	386178	71	6
110	391656	72	6
110	397869	73	6
110	403337	74	6
110	408805	75	6
110	414273	76	6
110	419741	77	6
110	425209	78	6
110	430677	79	6
110	436145	80	6
110	441613	81	6
110	447081	82	6
110	452549	83	6
110	458017	84	6
110	463485	85	6
110	468953	86	6
110	474421	87	6
110	479889	88	6
110	485357	89	6
110	490825	90	6
110	496293	91	6
110	501761	92	6
110	507229	93	6
110	512697	94	6
110	518165	95	6
110	523633	96	6
110	529101	97	6
110	534569	98	6
110	540037	99	6
110	545505	100	6
111	4900	2	0.021849
111	10368	3	0.02497
111	15836	4	0.02497
111	21304	5	0.02497
111	26772	6	0.02497
111	32240	7	0.02497
111	37708	8	0.02497
111	43176	9	0.02497
111	48645	10	0.02497
111	54249	11	0.025018
111	59787	12	0.02497
111	65325	13	0.02497
111	70863	14	0.02497
111	76401	15	0.02497
111	81939	16	0.02497
111	87477	17	0.02497
111	93015	18	0.02497
111	98553	19	0.02497
111	104091	20	0.02497
111	109629	21	0.02497
111	115167	22	0.02497
111	120705	23	0.02497
111	126243	24	0.02497
111	131781	25	0.02497
111	137319	26	0.02497
111	142857	27	0.02497
111	148395	28	0.02497
111	153933	29	0.02497
111	159471	30	0.02497
111	165009	31	0.02497
111	170547	32	0.02497
111	176085	33	0.02497
111	181623	34	0.02497
111	187161	35	0.02497
111	192699	36	0.02497
111	198237	37	0.02497
111	203775	38	0.02497
111	209313	39	0.02497
111	214851	40	0.02497
111	220389	41	0.02497
111	225927	42	0.02497
111	231556	43	0.025082
111	237084	44	0.02497
111	242612	45	0.02497
111	248140	46	0.02497
111	253668	47	0.02497
111	259196	48	0.02497
111	264813	49	0.025082
111	270331	50	0.02497
111	275849	51	0.02497
111	281367	52	0.02497
111	286885	53	0.02497
111	292494	54	0.025082
111	298002	55	0.02497
111	303510	56	0.02497
111	309018	57	0.02497
111	314526	58	0.02497
111	320124	59	0.025082
111	325622	60	0.02497
111	331120	61	0.02497
111	336618	62	0.02497
111	342116	63	0.02497
111	347701	64	0.025082
111	353189	65	0.02497
111	358677	66	0.02497
111	364165	67	0.02497
111	369744	68	0.025115558966
111	375222	69	0.02497
111	380700	70	0.02497
111	386178	71	0.02497
111	391656	72	0.02497
111	397869	73	0.025898
111	403337	74	0.02497
111	408805	75	0.02497
111	414273	76	0.02497
111	419741	77	0.02497
111	425209	78	0.02497
111	430677	79	0.02497
111	436145	80	0.02497
111	441613	81	0.02497
111	447081	82	0.02497
111	452549	83	0.02497
111	458017	84	0.02497
111	463485	85	0.02497
111	468953	86	0.02497
111	474421	87	0.02497
111	479889	88	0.02497
111	485357	89	0.02497
111	490825	90	0.02497
111	496293	91	0.02497
111	501761	92	0.02497
111	507229	93	0.02497
111	512697	94	0.02497
111	518165	95	0.02497
111	523633	96	0.02497
111	529101	97	0.02497
111	534569	98	0.02497
111	540037	99	0.02497
111	545505	100	0.02497
112	4900	2	0
112	10368	3	0
112	15836	4	0
112	21304	5	0
112	26772	6	0
112	32240	7	0
112	37708	8	0
112	43176	9	0
112	48645	10	0
112	54249	11	0
112	59787	12	0
112	65325	13	0
112	70863	14	0
112	76401	15	0
112	81939	16	0
112	87477	17	0
112	93015	18	0
112	98553	19	0
112	104091	20	0
112	109629	21	0
112	115167	22	0
112	120705	23	0
112	126243	24	0
112	131781	25	0
112	137319	26	0
112	142857	27	0
112	148395	28	0
112	153933	29	0
112	159471	30	0
112	165009	31	0
112	170547	32	0
112	176085	33	0
112	181623	34	0
112	187161	35	0
112	192699	36	0
112	198237	37	0
112	203775	38	0
112	209313	39	0
112	214851	40	0
112	220389	41	0
112	225927	42	0
112	231556	43	0
112	237084	44	0
112	242612	45	0
112	248140	46	0
112	253668	47	0
112	259196	48	0
112	264813	49	0
112	270331	50	0
112	275849	51	0
112	281367	52	0
112	286885	53	0
112	292494	54	0
112	298002	55	0
112	303510	56	0
112	309018	57	0
112	314526	58	0
112	320124	59	0
112	325622	60	0
112	331120	61	0
112	336618	62	0
112	342116	63	0
112	347701	64	0
112	353189	65	0
112	358677	66	0
112	364165	67	0
112	369744	68	0
112	375222	69	0
112	380700	70	0
112	386178	71	0
112	391656	72	0
112	397869	73	0
112	403337	74	0
112	408805	75	0
112	414273	76	0
112	419741	77	0
112	425209	78	0
112	430677	79	0
112	436145	80	0
112	441613	81	0
112	447081	82	0
112	452549	83	0
112	458017	84	0
112	463485	85	0
112	468953	86	0
112	474421	87	0
112	479889	88	0
112	485357	89	0
112	490825	90	0
112	496293	91	0
112	501761	92	0
112	507229	93	0
112	512697	94	0
112	518165	95	0
112	523633	96	0
112	529101	97	0
112	534569	98	0
112	540037	99	0
112	545505	100	0
113	4901	2	7
113	10369	3	7
113	15837	4	7
113	21305	5	7
113	26773	6	7
113	32241	7	7
113	37709	8	7
113	43177	9	7
113	48646	10	7
113	54250	11	7
113	59788	12	7
113	65326	13	7
113	70864	14	7
113	76402	15	7
113	81940	16	7
113	87478	17	7
113	93016	18	7
113	98554	19	7
113	104092	20	7
113	109630	21	7
113	115168	22	7
113	120706	23	7
113	126244	24	7
113	131782	25	7
113	137320	26	7
113	142858	27	7
113	148396	28	7
113	153934	29	7
113	159472	30	7
113	165010	31	7
113	170548	32	7
113	176086	33	7
113	181624	34	7
113	187162	35	7
113	192700	36	7
113	198238	37	7
113	203776	38	7
113	209314	39	7
113	214852	40	7
113	220390	41	7
113	225928	42	7
113	231557	43	7
113	237085	44	7
113	242613	45	7
113	248141	46	7
113	253669	47	7
113	259197	48	7
113	264814	49	7
113	270332	50	7
113	275850	51	7
113	281368	52	7
113	286886	53	7
113	292495	54	7
113	298003	55	7
113	303511	56	7
113	309019	57	7
113	314527	58	7
113	320125	59	7
113	325623	60	7
113	331121	61	7
113	336619	62	7
113	342117	63	7
113	347702	64	7
113	353190	65	7
113	358678	66	7
113	364166	67	7
113	369745	68	7
113	375223	69	7
113	380701	70	7
113	386179	71	7
113	391657	72	7
113	397870	73	7
113	403338	74	7
113	408806	75	7
113	414274	76	7
113	419742	77	7
113	425210	78	7
113	430678	79	7
113	436146	80	7
113	441614	81	7
113	447082	82	7
113	452550	83	7
113	458018	84	7
113	463486	85	7
113	468954	86	7
113	474422	87	7
113	479890	88	7
113	485358	89	7
113	490826	90	7
113	496294	91	7
113	501762	92	7
113	507230	93	7
113	512698	94	7
113	518166	95	7
113	523634	96	7
113	529102	97	7
113	534570	98	7
113	540038	99	7
113	545506	100	7
114	4901	2	0.021849
114	10369	3	0.02497
114	15837	4	0.02497
114	21305	5	0.02497
114	26773	6	0.02497
114	32241	7	0.02497
114	37709	8	0.02497
114	43177	9	0.02497
114	48646	10	0.02497
114	54250	11	0.025018
114	59788	12	0.02497
114	65326	13	0.02497
114	70864	14	0.02497
114	76402	15	0.02497
114	81940	16	0.02497
114	87478	17	0.02497
114	93016	18	0.02497
114	98554	19	0.02497
114	104092	20	0.02497
114	109630	21	0.02497
114	115168	22	0.02497
114	120706	23	0.02497
114	126244	24	0.02497
114	131782	25	0.02497
114	137320	26	0.02497
114	142858	27	0.02497
114	148396	28	0.02497
114	153934	29	0.02497
114	159472	30	0.02497
114	165010	31	0.02497
114	170548	32	0.02497
114	176086	33	0.02497
114	181624	34	0.02497
114	187162	35	0.02497
114	192700	36	0.02497
114	198238	37	0.02497
114	203776	38	0.02497
114	209314	39	0.02497
114	214852	40	0.02497
114	220390	41	0.02497
114	225928	42	0.02497
114	231557	43	0.025082
114	237085	44	0.02497
114	242613	45	0.02497
114	248141	46	0.02497
114	253669	47	0.02497
114	259197	48	0.02497
114	264814	49	0.025082
114	270332	50	0.02497
114	275850	51	0.02497
114	281368	52	0.02497
114	286886	53	0.02497
114	292495	54	0.025082
114	298003	55	0.02497
114	303511	56	0.02497
114	309019	57	0.02497
114	314527	58	0.02497
114	320125	59	0.025082
114	325623	60	0.02497
114	331121	61	0.02497
114	336619	62	0.02497
114	342117	63	0.02497
114	347702	64	0.025082
114	353190	65	0.02497
114	358678	66	0.02497
114	364166	67	0.02497
114	369745	68	0.025082
114	375223	69	0.02497
114	380701	70	0.02497
114	386179	71	0.02497
114	391657	72	0.02497
114	397870	73	0.025931652278
114	403338	74	0.02497
114	408806	75	0.02497
114	414274	76	0.02497
114	419742	77	0.02497
114	425210	78	0.02497
114	430678	79	0.02497
114	436146	80	0.02497
114	441614	81	0.02497
114	447082	82	0.02497
114	452550	83	0.02497
114	458018	84	0.02497
114	463486	85	0.02497
114	468954	86	0.02497
114	474422	87	0.02497
114	479890	88	0.02497
114	485358	89	0.02497
114	490826	90	0.02497
114	496294	91	0.02497
114	501762	92	0.02497
114	507230	93	0.02497
114	512698	94	0.02497
114	518166	95	0.02497
114	523634	96	0.02497
114	529102	97	0.02497
114	534570	98	0.02497
114	540038	99	0.02497
114	545506	100	0.02497
115	4901	2	0
115	10369	3	0
115	15837	4	0
115	21305	5	0
115	26773	6	0
115	32241	7	0
115	37709	8	0
115	43177	9	0
115	48646	10	0
115	54250	11	0
115	59788	12	0
115	65326	13	0
115	70864	14	0
115	76402	15	0
115	81940	16	0
115	87478	17	0
115	93016	18	0
115	98554	19	0
115	104092	20	0
115	109630	21	0
115	115168	22	0
115	120706	23	0
115	126244	24	0
115	131782	25	0
115	137320	26	0
115	142858	27	0
115	148396	28	0
115	153934	29	0
115	159472	30	0
115	165010	31	0
115	170548	32	0
115	176086	33	0
115	181624	34	0
115	187162	35	0
115	192700	36	0
115	198238	37	0
115	203776	38	0
115	209314	39	0
115	214852	40	0
115	220390	41	0
115	225928	42	0
115	231557	43	0
115	237085	44	0
115	242613	45	0
115	248141	46	0
115	253669	47	0
115	259197	48	0
115	264814	49	0
115	270332	50	0
115	275850	51	0
115	281368	52	0
115	286886	53	0
115	292495	54	0
115	298003	55	0
115	303511	56	0
115	309019	57	0
115	314527	58	0
115	320125	59	0
115	325623	60	0
115	331121	61	0
115	336619	62	0
115	342117	63	0
115	347702	64	0
115	353190	65	0
115	358678	66	0
115	364166	67	0
115	369745	68	0
115	375223	69	0
115	380701	70	0
115	386179	71	0
115	391657	72	0
115	397870	73	0
115	403338	74	0
115	408806	75	0
115	414274	76	0
115	419742	77	0
115	425210	78	0
115	430678	79	0
115	436146	80	0
115	441614	81	0
115	447082	82	0
115	452550	83	0
115	458018	84	0
115	463486	85	0
115	468954	86	0
115	474422	87	0
115	479890	88	0
115	485358	89	0
115	490826	90	0
115	496294	91	0
115	501762	92	0
115	507230	93	0
115	512698	94	0
115	518166	95	0
115	523634	96	0
115	529102	97	0
115	534570	98	0
115	540038	99	0
115	545506	100	0

