version 3
run BreakRanksNoGui-95-20240710-15:11:25-259015
attr configname BreakRanksNoGui
attr datetime 20240710-15:11:25
attr datetimef 20240710-151125
attr experiment BreakRanksNoGui
attr inifile omnetpp.ini
attr iterationvars "$nCars=3, $platoonSize=3, $nLanes=1, $ploegH=0.5, $controller=1, $headway=0.1, $leaderHeadway=1.2, $leaderSpeed=110, $breakRanksSafetyDistance=3, $minSpeed=100, $maxSpeed=120, $beaconInterval=0.1, $priority=4, $packetSize=200, $sController=\"CACC\", $0=2, $1=0"
attr iterationvarsd nCars=3/platoonSize=3/nLanes=1/ploegH=0.5/controller=1/headway=0.1/leaderHeadway=1.2/leaderSpeed=110/breakRanksSafetyDistance=3/minSpeed=100/maxSpeed=120/beaconInterval=0.1/priority=4/packetSize=200/sController=CACC/2/0
attr iterationvarsf nCars=3,platoonSize=3,nLanes=1,ploegH=0.5,controller=1,headway=0.1,leaderHeadway=1.2,leaderSpeed=110,breakRanksSafetyDistance=3,minSpeed=100,maxSpeed=120,beaconInterval=0.1,priority=4,packetSize=200,sController=CACC,2,0-
attr measurement "$nCars=3, $platoonSize=3, $nLanes=1, $ploegH=0.5, $controller=1, $headway=0.1, $leaderHeadway=1.2, $leaderSpeed=110, $breakRanksSafetyDistance=3, $minSpeed=100, $maxSpeed=120, $beaconInterval=0.1, $priority=4, $packetSize=200, $sController=\"CACC\", $0=2, $1=0"
attr network Highway
attr processid 259015
attr repetition 5
attr replication #5
attr resultdir results
attr runnumber 95
attr seedset 5
itervar beaconInterval 0.1
itervar breakRanksSafetyDistance 3
itervar controller 1
itervar headway 0.1
itervar leaderHeadway 1.2
itervar leaderSpeed 110
itervar maxSpeed 120
itervar minSpeed 100
itervar nCars 3
itervar nLanes 1
itervar packetSize 200
itervar platoonSize 3
itervar ploegH 0.5
itervar priority 4
itervar sController "\"CACC\""
config image-path ../../../veins/images
config repeat 10
config extends BreakRanks
config *.manager.command "\"sumo\""
config *.manager.ignoreGuiCommands true
config output-vector-file "results/BreakRanks_1_0.1_110_3_3 /result_5.vec"
config output-scalar-file "results/BreakRanks_1_0.1_110_3_3 /result_5.sca"
config extends Platooning
config *.node[*].scenario_type "\"BreakRanksScenario\""
config *.manager.command "\"sumo-gui\""
config *.node[*].scenario_type "\"SimpleScenario\""
config cmdenv-express-mode true
config cmdenv-autoflush true
config cmdenv-status-frequency 15s
config num-rngs 6
config network Highway
config debug-on-errors true
config print-undisposed true
config *.playgroundSizeX 65000m
config *.playgroundSizeY 25000m
config *.playgroundSizeZ 50m
config sim-time-limit "100 s"
config *.annotations.draw false
config *.obstacles.debug false
config *.world.useTorus false
config *.world.use2D false
config *.manager.updateInterval 0.01s
config *.manager.host "\"localhost\""
config *.manager.moduleType "\"org.car2x.plexe.PlatoonCar\""
config *.manager.moduleName "\"node\""
config *.manager.moduleDisplayString "\"\""
config *.manager.autoShutdown true
config *.manager.margin 25
config *.connectionManager.sendDirect true
config *.connectionManager.maxInterfDist 2600m
config *.connectionManager.drawMaxIntfDist false
config *.**.nic.mac1609_4.useServiceChannel false
config *.**.nic.mac1609_4.txPower 100mW
config *.**.nic.mac1609_4.bitrate 6Mbps
config *.**.nic.mac1609_4.useAcks true
config *.**.nic.mac1609_4.ackErrorRate 0.0
config *.**.nic.mac1609_4.frameErrorRate 0.0
config *.**.nic.phy80211p.minPowerLevel -94dBm
config *.**.nic.phy80211p.maxTXPower 100mW
config *.**.nic.phy80211p.useNoiseFloor true
config *.**.nic.phy80211p.noiseFloor -95dBm
config *.**.nic.phy80211p.decider "xmldoc(\"config.xml\")"
config *.**.nic.phy80211p.analogueModels "xmldoc(\"config.xml\")"
config *.**.nic.phy80211p.usePropagationDelay true
config *.node[*].mobility.x 0
config *.node[*].mobility.y 0
config *.node[*].mobility.z 1.895
config seed-set 5
config **.seed 5
config *.node[*].prot.rng-0 2
config *.node[*].appl.rng-0 3
config *.node[*].scenario.rng-0 4
config **.traffic.rng-0 5
config *.manager.configFile "\"./sumocfg/freeway.sumo.cfg\""
config *.manager.launchConfig "xmldoc(\"./sumocfg/freeway.launchd.xml\")"
config **.numberOfCars 3
config **.numberOfCarsPerPlatoon 3
config **.numberOfLanes 1
config *.node[*].helper_type "\"PositionHelper\""
config *.node[*].scenario.caccC1 0.5
config *.node[*].scenario.caccXi 1
config *.node[*].scenario.caccOmegaN "0.2 Hz"
config *.node[*].scenario.caccSpacing "2 m"
config *.node[*].scenario.engineTau "0.5 s"
config *.node[*].scenario.ploegH 0.5s
config *.node[*].scenario.ploegKp 0.2
config *.node[*].scenario.ploegKd 0.7
config *.node[*].scenario.useRealisticEngine false
config *.node[*].scenario.useControllerAcceleration true
config *.node[*].scenario.nLanes 1
config **.numericController 1
config **.headway 0.1s
config *.node[*].scenario.accHeadway 0.1s
config *.node[*].scenario.leaderHeadway 1.2s
config *.node[*].scenario.leaderSpeed 110kmph
config *.node[*].appl_type "\"SimplePlatooningApp\""
config *.node[*].appl.*.scalar-recording true
config *.node[*].appl.*.vector-recording true
config *.node[0].appl.breakRanksSafetyDistance 3m
config *.node[*].appl.minSpeed 100kmph
config *.node[*].appl.maxSpeed 120kmph
config *.node[*].protocol_type "\"SimplePlatooningBeaconing\""
config *.node[*].prot.*.scalar-recording true
config *.node[*].prot.*.vector-recording true
config *.node[*].prot.beaconingInterval 0.1s
config *.node[*].prot.priority 4
config *.node[*].prot.packetSize 200
config **.traffic_type "\"PlatoonsTrafficManager\""
config **.traffic.platoonInsertTime "1 s"
config **.traffic.platoonInsertSpeed 110kmph
config **.traffic.nCars 3
config **.traffic.platoonSize 3
config **.traffic.nLanes 1
config **.traffic.platooningVType "\"vtypeauto\""
config **.traffic.controller "\"CACC\""
config **.traffic.platoonInsertDistance 2m
config **.traffic.platoonInsertHeadway 0s
config **.traffic.platoonLeaderHeadway 1.2s
config **.scalar-recording false
config **.vector-recording false

vector 0 Highway.node[0].appl distance ETV
vector 1 Highway.node[0].appl relativeSpeed ETV
vector 2 Highway.node[0].appl nodeId ETV
vector 3 Highway.node[0].appl acceleration ETV
vector 4 Highway.node[0].appl controllerAcceleration ETV
vector 5 Highway.node[0].appl speed ETV
vector 6 Highway.node[0].appl posx ETV
vector 7 Highway.node[0].appl posy ETV
vector 8 Highway.node[1].appl distance ETV
vector 9 Highway.node[1].appl relativeSpeed ETV
vector 10 Highway.node[1].appl nodeId ETV
vector 11 Highway.node[1].appl acceleration ETV
vector 12 Highway.node[1].appl controllerAcceleration ETV
vector 13 Highway.node[1].appl speed ETV
vector 14 Highway.node[1].appl posx ETV
vector 15 Highway.node[1].appl posy ETV
vector 16 Highway.node[2].appl distance ETV
vector 17 Highway.node[2].appl relativeSpeed ETV
vector 18 Highway.node[2].appl nodeId ETV
vector 19 Highway.node[2].appl acceleration ETV
vector 20 Highway.node[2].appl controllerAcceleration ETV
vector 21 Highway.node[2].appl speed ETV
vector 22 Highway.node[2].appl posx ETV
vector 23 Highway.node[2].appl posy ETV
vector 24 Highway.node[2].prot frontDelay ETV
vector 25 Highway.node[2].prot frontDelayId ETV
vector 26 Highway.node[1].prot leaderDelay ETV
vector 27 Highway.node[1].prot leaderDelayId ETV
vector 28 Highway.node[1].prot frontDelay ETV
vector 29 Highway.node[1].prot frontDelayId ETV
vector 30 Highway.node[2].prot leaderDelay ETV
vector 31 Highway.node[2].prot leaderDelayId ETV
vector 32 Highway.node[0].prot nodeId ETV
vector 33 Highway.node[0].prot busyTime ETV
vector 34 Highway.node[0].prot collisions ETV
vector 35 Highway.node[1].prot nodeId ETV
vector 36 Highway.node[1].prot busyTime ETV
vector 37 Highway.node[1].prot collisions ETV
vector 38 Highway.node[2].prot nodeId ETV
vector 39 Highway.node[2].prot busyTime ETV
vector 40 Highway.node[2].prot collisions ETV
0	113	1.11	-1
0	204	1.21	-1
0	295	1.31	-1
0	386	1.41	-1
0	477	1.51	-1
0	568	1.61	-1
0	659	1.71	-1
0	750	1.81	-1
0	841	1.91	-1
0	935	2.01	-1
0	1026	2.11	-1
0	1117	2.21	-1
0	1208	2.31	-1
0	1299	2.41	-1
0	1390	2.51	-1
0	1481	2.61	-1
0	1572	2.71	-1
0	1663	2.81	-1
0	1754	2.91	-1
0	1848	3.01	-1
0	1939	3.11	-1
0	2030	3.21	-1
0	2121	3.31	-1
0	2212	3.41	-1
0	2303	3.51	-1
0	2394	3.61	-1
0	2485	3.71	-1
0	2576	3.81	-1
0	2667	3.91	-1
0	2761	4.01	-1
0	2852	4.11	-1
0	2943	4.21	-1
0	3034	4.31	-1
0	3125	4.41	-1
0	3216	4.51	-1
0	3307	4.61	-1
0	3398	4.71	-1
0	3489	4.81	-1
0	3580	4.91	-1
0	3674	5.01	-1
0	3765	5.11	-1
0	3856	5.21	-1
0	3947	5.31	-1
0	4038	5.41	-1
0	4129	5.51	-1
0	4220	5.61	-1
0	4311	5.71	-1
0	4402	5.81	-1
0	4493	5.91	-1
0	4587	6.01	-1
0	4678	6.11	-1
0	4769	6.21	-1
0	4860	6.31	-1
0	4951	6.41	-1
0	5042	6.51	-1
0	5133	6.61	-1
0	5224	6.71	-1
0	5315	6.81	-1
0	5406	6.91	-1
0	5500	7.01	-1
0	5591	7.11	-1
0	5682	7.21	-1
0	5773	7.31	-1
0	5864	7.41	-1
0	5955	7.51	-1
0	6046	7.61	-1
0	6137	7.71	-1
0	6228	7.81	-1
0	6319	7.91	-1
0	6413	8.01	-1
0	6504	8.11	-1
0	6595	8.21	-1
0	6686	8.31	-1
0	6777	8.41	-1
0	6868	8.51	-1
0	6959	8.61	-1
0	7050	8.71	-1
0	7141	8.81	-1
0	7232	8.91	-1
0	7326	9.01	-1
0	7417	9.11	-1
0	7508	9.21	-1
0	7599	9.31	-1
0	7690	9.41	-1
0	7781	9.51	-1
0	7872	9.61	-1
0	7963	9.71	-1
0	8054	9.81	-1
0	8145	9.91	-1
0	8268	10.01	-1
0	8361	10.11	-1
0	8454	10.21	-1
0	8547	10.31	-1
0	8640	10.41	-1
0	8733	10.51	-1
0	8826	10.61	-1
0	8919	10.71	-1
0	9012	10.81	-1
0	9105	10.91	-1
0	9201	11.01	-1
0	9294	11.11	-1
0	9387	11.21	-1
0	9480	11.31	-1
0	9573	11.41	-1
0	9666	11.51	-1
0	9759	11.61	-1
0	9852	11.71	-1
0	9945	11.81	-1
0	10038	11.91	-1
0	10134	12.01	-1
0	10227	12.11	-1
0	10320	12.21	-1
0	10413	12.31	-1
0	10506	12.41	-1
0	10599	12.51	-1
0	10692	12.61	-1
0	10785	12.71	-1
0	10878	12.81	-1
0	10971	12.91	-1
0	11067	13.01	-1
0	11160	13.11	-1
0	11253	13.21	-1
0	11346	13.31	-1
0	11439	13.41	-1
0	11532	13.51	-1
0	11625	13.61	-1
0	11718	13.71	-1
0	11811	13.81	-1
0	11904	13.91	-1
0	12000	14.01	-1
0	12093	14.11	-1
0	12186	14.21	-1
0	12279	14.31	-1
0	12372	14.41	-1
0	12465	14.51	-1
0	12558	14.61	-1
0	12651	14.71	-1
0	12744	14.81	-1
0	12837	14.91	-1
0	12933	15.01	-1
0	13026	15.11	-1
0	13119	15.21	-1
0	13212	15.31	-1
0	13305	15.41	-1
0	13398	15.51	-1
0	13491	15.61	-1
0	13584	15.71	-1
0	13677	15.81	-1
0	13770	15.91	-1
0	13866	16.01	-1
0	13959	16.11	-1
0	14052	16.21	-1
0	14145	16.31	-1
0	14238	16.41	-1
0	14331	16.51	-1
0	14424	16.61	-1
0	14517	16.71	-1
0	14610	16.81	-1
0	14703	16.91	-1
0	14799	17.01	-1
0	14892	17.11	-1
0	14985	17.21	-1
0	15078	17.31	-1
0	15171	17.41	-1
0	15264	17.51	-1
0	15357	17.61	-1
0	15450	17.71	-1
0	15543	17.81	-1
0	15636	17.91	-1
0	15732	18.01	-1
0	15825	18.11	-1
0	15918	18.21	-1
0	16011	18.31	-1
0	16104	18.41	-1
0	16197	18.51	-1
0	16290	18.61	-1
0	16383	18.71	-1
0	16476	18.81	-1
0	16569	18.91	-1
0	16665	19.01	-1
0	16758	19.11	-1
0	16851	19.21	-1
0	16944	19.31	-1
0	17037	19.41	-1
0	17130	19.51	-1
0	17223	19.61	-1
0	17316	19.71	-1
0	17409	19.81	-1
0	17502	19.91	-1
0	17598	20.01	-1
0	17691	20.11	-1
0	17784	20.21	-1
0	17877	20.31	-1
0	17970	20.41	-1
0	18063	20.51	-1
0	18156	20.61	-1
0	18249	20.71	-1
0	18342	20.81	-1
0	18435	20.91	-1
0	18531	21.01	-1
0	18624	21.11	-1
0	18717	21.21	-1
0	18810	21.31	-1
0	18903	21.41	-1
0	18996	21.51	-1
0	19089	21.61	-1
0	19182	21.71	-1
0	19275	21.81	-1
0	19368	21.91	-1
0	19464	22.01	-1
0	19557	22.11	-1
0	19650	22.21	-1
0	19743	22.31	-1
0	19836	22.41	-1
0	19929	22.51	-1
0	20022	22.61	-1
0	20115	22.71	-1
0	20208	22.81	-1
0	20301	22.91	-1
0	20397	23.01	-1
0	20490	23.11	-1
0	20583	23.21	-1
0	20676	23.31	-1
0	20769	23.41	-1
0	20862	23.51	-1
0	20955	23.61	-1
0	21048	23.71	-1
0	21141	23.81	-1
0	21234	23.91	-1
0	21330	24.01	-1
0	21423	24.11	-1
0	21516	24.21	-1
0	21609	24.31	-1
0	21702	24.41	-1
0	21795	24.51	-1
0	21888	24.61	-1
0	21981	24.71	-1
0	22074	24.81	-1
0	22167	24.91	-1
0	22263	25.01	-1
0	22356	25.11	-1
0	22449	25.21	-1
0	22542	25.31	-1
0	22635	25.41	-1
0	22728	25.51	-1
0	22821	25.61	-1
0	22914	25.71	-1
0	23007	25.81	-1
0	23100	25.91	-1
0	23196	26.01	-1
0	23289	26.11	-1
0	23382	26.21	-1
0	23475	26.31	-1
0	23568	26.41	-1
0	23661	26.51	-1
0	23754	26.61	-1
0	23847	26.71	-1
0	23940	26.81	-1
0	24033	26.91	-1
0	24129	27.01	-1
0	24222	27.11	-1
0	24315	27.21	-1
0	24408	27.31	-1
0	24501	27.41	-1
0	24594	27.51	-1
0	24687	27.61	-1
0	24780	27.71	-1
0	24873	27.81	-1
0	24966	27.91	-1
0	25062	28.01	-1
0	25155	28.11	-1
0	25248	28.21	-1
0	25341	28.31	-1
0	25434	28.41	-1
0	25527	28.51	-1
0	25620	28.61	-1
0	25713	28.71	-1
0	25806	28.81	-1
0	25899	28.91	-1
0	25995	29.01	-1
0	26088	29.11	-1
0	26181	29.21	-1
0	26317	29.31	-1
0	26409	29.41	-1
0	26501	29.51	-1
0	26593	29.61	-1
0	26685	29.71	-1
0	26777	29.81	-1
0	26869	29.91	-1
0	26964	30.01	-1
0	27056	30.11	-1
0	27148	30.21	-1
0	27240	30.31	-1
0	27332	30.41	-1
0	27424	30.51	-1
0	27516	30.61	-1
0	27608	30.71	-1
0	27700	30.81	-1
0	27792	30.91	-1
0	27887	31.01	-1
0	27979	31.11	-1
0	28071	31.21	-1
0	28163	31.31	-1
0	28255	31.41	-1
0	28347	31.51	-1
0	28439	31.61	-1
0	28531	31.71	-1
0	28623	31.81	-1
0	28715	31.91	-1
0	28810	32.01	-1
0	28902	32.11	-1
0	28994	32.21	-1
0	29086	32.31	-1
0	29178	32.41	-1
0	29270	32.51	-1
0	29362	32.61	-1
0	29454	32.71	-1
0	29546	32.81	-1
0	29638	32.91	-1
0	29733	33.01	-1
0	29825	33.11	-1
0	29917	33.21	-1
0	30009	33.31	-1
0	30101	33.41	-1
0	30322	33.51	-1
0	30413	33.61	-1
0	30504	33.71	-1
0	30595	33.81	-1
0	30686	33.91	-1
0	30780	34.01	-1
0	30871	34.11	-1
0	30962	34.21	-1
0	31053	34.31	-1
0	31144	34.41	-1
0	31235	34.51	-1
0	31326	34.61	-1
0	31417	34.71	-1
0	31508	34.81	-1
0	31599	34.91	-1
0	31693	35.01	-1
0	31784	35.11	-1
0	31875	35.21	-1
0	31966	35.31	-1
0	32057	35.41	-1
0	32148	35.51	-1
0	32239	35.61	-1
0	32330	35.71	-1
0	32421	35.81	-1
0	32512	35.91	-1
0	32606	36.01	-1
0	32697	36.11	-1
0	32788	36.21	-1
0	32879	36.31	-1
0	32970	36.41	-1
0	33061	36.51	-1
0	33152	36.61	-1
0	33243	36.71	-1
0	33334	36.81	-1
0	33425	36.91	-1
0	33519	37.01	-1
0	33610	37.11	-1
0	33701	37.21	-1
0	33792	37.31	-1
0	33883	37.41	-1
0	33974	37.51	-1
0	34065	37.61	-1
0	34156	37.71	-1
0	34247	37.81	-1
0	34338	37.91	-1
0	34432	38.01	-1
0	34523	38.11	-1
0	34614	38.21	-1
0	34705	38.31	-1
0	34796	38.41	-1
0	34887	38.51	-1
0	34978	38.61	-1
0	35069	38.71	-1
0	35160	38.81	-1
0	35251	38.91	-1
0	35345	39.01	-1
0	35436	39.11	-1
0	35527	39.21	-1
0	35618	39.31	-1
0	35709	39.41	-1
0	35800	39.51	-1
0	35891	39.61	-1
0	35982	39.71	-1
0	36073	39.81	-1
0	36164	39.91	-1
0	36258	40.01	-1
0	36349	40.11	-1
0	36440	40.21	-1
0	36531	40.31	-1
0	36622	40.41	-1
0	36713	40.51	-1
0	36804	40.61	-1
0	36895	40.71	-1
0	36986	40.81	-1
0	37077	40.91	-1
0	37171	41.01	-1
0	37262	41.11	-1
0	37353	41.21	-1
0	37444	41.31	-1
0	37535	41.41	-1
0	37626	41.51	-1
0	37717	41.61	-1
0	37808	41.71	-1
0	37899	41.81	-1
0	37990	41.91	-1
0	38084	42.01	-1
0	38175	42.11	-1
0	38266	42.21	-1
0	38357	42.31	-1
0	38448	42.41	-1
0	38539	42.51	-1
0	38630	42.61	-1
0	38721	42.71	-1
0	38812	42.81	-1
0	38903	42.91	-1
0	38997	43.01	-1
0	39088	43.11	-1
0	39179	43.21	-1
0	39270	43.31	-1
0	39361	43.41	-1
0	39452	43.51	-1
0	39543	43.61	-1
0	39634	43.71	-1
0	39725	43.81	-1
0	39816	43.91	-1
0	39910	44.01	-1
0	40001	44.11	-1
0	40092	44.21	-1
0	40183	44.31	-1
0	40274	44.41	-1
0	40365	44.51	-1
0	40456	44.61	-1
0	40547	44.71	-1
0	40638	44.81	-1
0	40729	44.91	-1
0	40823	45.01	-1
0	40914	45.11	-1
0	41005	45.21	-1
0	41096	45.31	-1
0	41187	45.41	-1
0	41278	45.51	-1
0	41369	45.61	-1
0	41460	45.71	-1
0	41551	45.81	-1
0	41642	45.91	-1
0	41736	46.01	-1
0	41827	46.11	-1
0	41918	46.21	-1
0	42009	46.31	-1
0	42100	46.41	-1
0	42191	46.51	-1
0	42282	46.61	-1
0	42373	46.71	-1
0	42464	46.81	-1
0	42555	46.91	-1
0	42649	47.01	-1
0	42740	47.11	-1
0	42831	47.21	-1
0	42922	47.31	-1
0	43013	47.41	-1
0	43104	47.51	-1
0	43195	47.61	-1
0	43286	47.71	-1
0	43377	47.81	-1
0	43468	47.91	-1
0	43562	48.01	-1
0	43653	48.11	-1
0	43744	48.21	-1
0	43835	48.31	-1
0	43926	48.41	-1
0	44017	48.51	-1
0	44108	48.61	-1
0	44199	48.71	-1
0	44290	48.81	-1
0	44381	48.91	-1
0	44475	49.01	-1
0	44566	49.11	-1
0	44657	49.21	-1
0	44748	49.31	-1
0	44839	49.41	-1
0	44930	49.51	-1
0	45021	49.61	-1
0	45112	49.71	-1
0	45203	49.81	-1
0	45294	49.91	-1
0	45388	50.01	-1
0	45479	50.11	-1
0	45570	50.21	-1
0	45661	50.31	-1
0	45752	50.41	-1
0	45843	50.51	-1
0	45934	50.61	-1
0	46025	50.71	-1
0	46116	50.81	-1
0	46207	50.91	-1
0	46301	51.01	-1
0	46392	51.11	-1
0	46483	51.21	-1
0	46574	51.31	-1
0	46665	51.41	-1
0	46756	51.51	-1
0	46847	51.61	-1
0	46938	51.71	-1
0	47029	51.81	-1
0	47120	51.91	-1
0	47214	52.01	-1
0	47305	52.11	-1
0	47396	52.21	-1
0	47487	52.31	-1
0	47578	52.41	-1
0	47669	52.51	-1
0	47760	52.61	-1
0	47851	52.71	-1
0	47942	52.81	-1
0	48033	52.91	-1
0	48127	53.01	-1
0	48218	53.11	-1
0	48309	53.21	-1
0	48400	53.31	-1
0	48491	53.41	-1
0	48582	53.51	-1
0	48673	53.61	-1
0	48764	53.71	-1
0	48855	53.81	-1
0	48946	53.91	-1
0	49040	54.01	-1
0	49131	54.11	-1
0	49222	54.21	-1
0	49313	54.31	-1
0	49404	54.41	-1
0	49495	54.51	-1
0	49586	54.61	-1
0	49677	54.71	-1
0	49768	54.81	-1
0	49859	54.91	-1
0	49953	55.01	-1
0	50044	55.11	-1
0	50135	55.21	-1
0	50226	55.31	-1
0	50317	55.41	-1
0	50408	55.51	-1
0	50499	55.61	-1
0	50590	55.71	-1
0	50681	55.81	-1
0	50772	55.91	-1
0	50866	56.01	-1
0	50957	56.11	-1
0	51048	56.21	-1
0	51139	56.31	-1
0	51230	56.41	-1
0	51321	56.51	-1
0	51412	56.61	-1
0	51503	56.71	-1
0	51594	56.81	-1
0	51685	56.91	-1
0	51779	57.01	-1
0	51870	57.11	-1
0	51961	57.21	-1
0	52052	57.31	-1
0	52143	57.41	-1
0	52234	57.51	-1
0	52325	57.61	-1
0	52416	57.71	-1
0	52507	57.81	-1
0	52598	57.91	-1
0	52692	58.01	-1
0	52783	58.11	-1
0	52874	58.21	-1
0	52965	58.31	-1
0	53056	58.41	-1
0	53147	58.51	-1
0	53238	58.61	-1
0	53329	58.71	-1
0	53420	58.81	-1
0	53511	58.91	-1
0	53605	59.01	-1
0	53696	59.11	-1
0	53787	59.21	-1
0	53878	59.31	-1
0	53969	59.41	-1
0	54060	59.51	-1
0	54151	59.61	-1
0	54242	59.71	-1
0	54333	59.81	-1
0	54424	59.91	-1
0	54518	60.01	-1
0	54609	60.11	-1
0	54700	60.21	-1
0	54791	60.31	-1
0	54882	60.41	-1
0	54973	60.51	-1
0	55064	60.61	-1
0	55155	60.71	-1
0	55246	60.81	-1
0	55337	60.91	-1
0	55431	61.01	-1
0	55522	61.11	-1
0	55613	61.21	-1
0	55704	61.31	-1
0	55795	61.41	-1
0	55886	61.51	-1
0	55977	61.61	-1
0	56068	61.71	-1
0	56159	61.81	-1
0	56250	61.91	-1
0	56344	62.01	-1
0	56435	62.11	-1
0	56526	62.21	-1
0	56617	62.31	-1
0	56708	62.41	-1
0	56799	62.51	-1
0	56890	62.61	-1
0	56981	62.71	-1
0	57072	62.81	-1
0	57163	62.91	-1
0	57257	63.01	-1
0	57348	63.11	-1
0	57439	63.21	-1
0	57530	63.31	-1
0	57621	63.41	-1
0	57712	63.51	-1
0	57803	63.61	-1
0	57894	63.71	-1
0	57985	63.81	-1
0	58076	63.91	-1
0	58170	64.01	-1
0	58261	64.11	-1
0	58352	64.21	-1
0	58443	64.31	-1
0	58534	64.41	-1
0	58625	64.51	-1
0	58716	64.61	-1
0	58807	64.71	-1
0	58898	64.81	-1
0	58989	64.91	-1
0	59083	65.01	-1
0	59174	65.11	-1
0	59265	65.21	-1
0	59356	65.31	-1
0	59447	65.41	-1
0	59538	65.51	-1
0	59629	65.61	-1
0	59720	65.71	-1
0	59811	65.81	-1
0	59902	65.91	-1
0	59996	66.01	-1
0	60087	66.11	-1
0	60178	66.21	-1
0	60269	66.31	-1
0	60360	66.41	-1
0	60451	66.51	-1
0	60542	66.61	-1
0	60633	66.71	-1
0	60724	66.81	-1
0	60815	66.91	-1
0	60909	67.01	-1
0	61000	67.11	-1
0	61091	67.21	-1
0	61182	67.31	-1
0	61273	67.41	-1
0	61364	67.51	-1
0	61455	67.61	-1
0	61546	67.71	-1
0	61637	67.81	-1
0	61728	67.91	-1
0	61822	68.01	-1
0	61913	68.11	-1
0	62004	68.21	-1
0	62095	68.31	-1
0	62186	68.41	-1
0	62277	68.51	-1
0	62368	68.61	-1
0	62459	68.71	-1
0	62550	68.81	-1
0	62641	68.91	-1
0	62735	69.01	-1
0	62826	69.11	-1
0	62917	69.21	-1
0	63008	69.31	-1
0	63099	69.41	-1
0	63190	69.51	-1
0	63281	69.61	-1
0	63372	69.71	-1
0	63463	69.81	-1
0	63554	69.91	-1
0	63648	70.01	-1
0	63739	70.11	-1
0	63830	70.21	-1
0	63921	70.31	-1
0	64012	70.41	-1
0	64103	70.51	-1
0	64194	70.61	-1
0	64285	70.71	-1
0	64376	70.81	-1
0	64467	70.91	-1
0	64561	71.01	-1
0	64652	71.11	-1
0	64743	71.21	-1
0	64834	71.31	-1
0	64925	71.41	-1
0	65016	71.51	-1
0	65107	71.61	-1
0	65198	71.71	-1
0	65289	71.81	-1
0	65380	71.91	-1
0	65474	72.01	-1
0	65565	72.11	-1
0	65656	72.21	-1
0	65747	72.31	-1
0	65838	72.41	-1
0	65929	72.51	-1
0	66020	72.61	-1
0	66111	72.71	-1
0	66202	72.81	-1
0	66293	72.91	-1
0	66387	73.01	-1
0	66478	73.11	-1
0	66569	73.21	-1
0	66660	73.31	-1
0	66751	73.41	-1
0	66842	73.51	-1
0	66933	73.61	-1
0	67024	73.71	-1
0	67115	73.81	-1
0	67206	73.91	-1
0	67300	74.01	-1
0	67391	74.11	-1
0	67482	74.21	-1
0	67573	74.31	-1
0	67664	74.41	-1
0	67755	74.51	-1
0	67846	74.61	-1
0	67937	74.71	-1
0	68028	74.81	-1
0	68119	74.91	-1
0	68213	75.01	-1
0	68304	75.11	-1
0	68395	75.21	-1
0	68486	75.31	-1
0	68577	75.41	-1
0	68668	75.51	-1
0	68759	75.61	-1
0	68850	75.71	-1
0	68941	75.81	-1
0	69032	75.91	-1
0	69126	76.01	-1
0	69217	76.11	-1
0	69308	76.21	-1
0	69399	76.31	-1
0	69490	76.41	-1
0	69581	76.51	-1
0	69672	76.61	-1
0	69763	76.71	-1
0	69854	76.81	-1
0	69945	76.91	-1
0	70039	77.01	-1
0	70130	77.11	-1
0	70221	77.21	-1
0	70312	77.31	-1
0	70403	77.41	-1
0	70494	77.51	-1
0	70585	77.61	-1
0	70676	77.71	-1
0	70767	77.81	-1
0	70858	77.91	-1
0	70952	78.01	-1
0	71043	78.11	-1
0	71134	78.21	-1
0	71225	78.31	-1
0	71316	78.41	-1
0	71407	78.51	-1
0	71498	78.61	-1
0	71589	78.71	-1
0	71680	78.81	-1
0	71771	78.91	-1
0	71865	79.01	-1
0	71956	79.11	-1
0	72047	79.21	-1
0	72138	79.31	-1
0	72229	79.41	-1
0	72320	79.51	-1
0	72411	79.61	-1
0	72502	79.71	-1
0	72593	79.81	-1
0	72684	79.91	-1
0	72778	80.01	-1
0	72869	80.11	-1
0	72960	80.21	-1
0	73051	80.31	-1
0	73142	80.41	-1
0	73233	80.51	-1
0	73324	80.61	-1
0	73415	80.71	-1
0	73506	80.81	-1
0	73597	80.91	-1
0	73691	81.01	-1
0	73782	81.11	-1
0	73873	81.21	-1
0	73964	81.31	-1
0	74055	81.41	-1
0	74146	81.51	-1
0	74237	81.61	-1
0	74328	81.71	-1
0	74419	81.81	-1
0	74510	81.91	-1
0	74604	82.01	-1
0	74695	82.11	-1
0	74786	82.21	-1
0	74877	82.31	-1
0	74968	82.41	-1
0	75059	82.51	-1
0	75150	82.61	-1
0	75241	82.71	-1
0	75332	82.81	-1
0	75423	82.91	-1
0	75517	83.01	-1
0	75608	83.11	-1
0	75699	83.21	-1
0	75790	83.31	-1
0	75881	83.41	-1
0	75972	83.51	-1
0	76063	83.61	-1
0	76154	83.71	-1
0	76245	83.81	-1
0	76336	83.91	-1
0	76430	84.01	-1
0	76521	84.11	-1
0	76612	84.21	-1
0	76703	84.31	-1
0	76794	84.41	-1
0	76885	84.51	-1
0	76976	84.61	-1
0	77067	84.71	-1
0	77158	84.81	-1
0	77249	84.91	-1
0	77343	85.01	-1
0	77434	85.11	-1
0	77525	85.21	-1
0	77616	85.31	-1
0	77707	85.41	-1
0	77798	85.51	-1
0	77889	85.61	-1
0	77980	85.71	-1
0	78071	85.81	-1
0	78162	85.91	-1
0	78256	86.01	-1
0	78347	86.11	-1
0	78438	86.21	-1
0	78529	86.31	-1
0	78620	86.41	-1
0	78711	86.51	-1
0	78802	86.61	-1
0	78893	86.71	-1
0	78984	86.81	-1
0	79075	86.91	-1
0	79169	87.01	-1
0	79260	87.11	-1
0	79351	87.21	-1
0	79442	87.31	-1
0	79533	87.41	-1
0	79624	87.51	-1
0	79715	87.61	-1
0	79806	87.71	-1
0	79897	87.81	-1
0	79988	87.91	-1
0	80082	88.01	-1
0	80173	88.11	-1
0	80264	88.21	-1
0	80355	88.31	-1
0	80446	88.41	-1
0	80537	88.51	-1
0	80628	88.61	-1
0	80719	88.71	-1
0	80810	88.81	-1
0	80901	88.91	-1
0	80995	89.01	-1
0	81086	89.11	-1
0	81177	89.21	-1
0	81268	89.31	-1
0	81359	89.41	-1
0	81450	89.51	-1
0	81541	89.61	-1
0	81632	89.71	-1
0	81723	89.81	-1
0	81814	89.91	-1
0	81908	90.01	-1
0	81999	90.11	-1
0	82090	90.21	-1
0	82181	90.31	-1
0	82272	90.41	-1
0	82363	90.51	-1
0	82454	90.61	-1
0	82545	90.71	-1
0	82636	90.81	-1
0	82727	90.91	-1
0	82821	91.01	-1
0	82912	91.11	-1
0	83003	91.21	-1
0	83094	91.31	-1
0	83185	91.41	-1
0	83276	91.51	-1
0	83367	91.61	-1
0	83458	91.71	-1
0	83549	91.81	-1
0	83640	91.91	-1
0	83734	92.01	-1
0	83825	92.11	-1
0	83916	92.21	-1
0	84007	92.31	-1
0	84098	92.41	-1
0	84189	92.51	-1
0	84280	92.61	-1
0	84371	92.71	-1
0	84462	92.81	-1
0	84553	92.91	-1
0	84647	93.01	-1
0	84738	93.11	-1
0	84829	93.21	-1
0	84920	93.31	-1
0	85011	93.41	-1
0	85102	93.51	-1
0	85193	93.61	-1
0	85284	93.71	-1
0	85375	93.81	-1
0	85466	93.91	-1
0	85560	94.01	-1
0	85651	94.11	-1
0	85742	94.21	-1
0	85833	94.31	-1
0	85924	94.41	-1
0	86015	94.51	-1
0	86106	94.61	-1
0	86197	94.71	-1
0	86288	94.81	-1
0	86379	94.91	-1
0	86473	95.01	-1
0	86564	95.11	-1
0	86655	95.21	-1
0	86746	95.31	-1
0	86837	95.41	-1
0	86928	95.51	-1
0	87019	95.61	-1
0	87110	95.71	-1
0	87201	95.81	-1
0	87292	95.91	-1
0	87386	96.01	-1
0	87477	96.11	-1
0	87568	96.21	-1
0	87659	96.31	-1
0	87750	96.41	-1
0	87841	96.51	-1
0	87932	96.61	-1
0	88023	96.71	-1
0	88114	96.81	-1
0	88205	96.91	-1
0	88299	97.01	-1
0	88390	97.11	-1
0	88481	97.21	-1
0	88572	97.31	-1
0	88663	97.41	-1
0	88754	97.51	-1
0	88845	97.61	-1
0	88936	97.71	-1
0	89027	97.81	-1
0	89118	97.91	-1
0	89212	98.01	-1
0	89303	98.11	-1
0	89394	98.21	-1
0	89485	98.31	-1
0	89576	98.41	-1
0	89667	98.51	-1
0	89758	98.61	-1
0	89849	98.71	-1
0	89940	98.81	-1
0	90031	98.91	-1
0	90125	99.01	-1
0	90216	99.11	-1
0	90307	99.21	-1
0	90398	99.31	-1
0	90489	99.41	-1
0	90580	99.51	-1
0	90671	99.61	-1
0	90762	99.71	-1
0	90853	99.81	-1
0	90944	99.91	-1
1	113	1.11	0
1	204	1.21	0
1	295	1.31	0
1	386	1.41	0
1	477	1.51	0
1	568	1.61	0
1	659	1.71	0
1	750	1.81	0
1	841	1.91	0
1	935	2.01	0
1	1026	2.11	0
1	1117	2.21	0
1	1208	2.31	0
1	1299	2.41	0
1	1390	2.51	0
1	1481	2.61	0
1	1572	2.71	0
1	1663	2.81	0
1	1754	2.91	0
1	1848	3.01	0
1	1939	3.11	0
1	2030	3.21	0
1	2121	3.31	0
1	2212	3.41	0
1	2303	3.51	0
1	2394	3.61	0
1	2485	3.71	0
1	2576	3.81	0
1	2667	3.91	0
1	2761	4.01	0
1	2852	4.11	0
1	2943	4.21	0
1	3034	4.31	0
1	3125	4.41	0
1	3216	4.51	0
1	3307	4.61	0
1	3398	4.71	0
1	3489	4.81	0
1	3580	4.91	0
1	3674	5.01	0
1	3765	5.11	0
1	3856	5.21	0
1	3947	5.31	0
1	4038	5.41	0
1	4129	5.51	0
1	4220	5.61	0
1	4311	5.71	0
1	4402	5.81	0
1	4493	5.91	0
1	4587	6.01	0
1	4678	6.11	0
1	4769	6.21	0
1	4860	6.31	0
1	4951	6.41	0
1	5042	6.51	0
1	5133	6.61	0
1	5224	6.71	0
1	5315	6.81	0
1	5406	6.91	0
1	5500	7.01	0
1	5591	7.11	0
1	5682	7.21	0
1	5773	7.31	0
1	5864	7.41	0
1	5955	7.51	0
1	6046	7.61	0
1	6137	7.71	0
1	6228	7.81	0
1	6319	7.91	0
1	6413	8.01	0
1	6504	8.11	0
1	6595	8.21	0
1	6686	8.31	0
1	6777	8.41	0
1	6868	8.51	0
1	6959	8.61	0
1	7050	8.71	0
1	7141	8.81	0
1	7232	8.91	0
1	7326	9.01	0
1	7417	9.11	0
1	7508	9.21	0
1	7599	9.31	0
1	7690	9.41	0
1	7781	9.51	0
1	7872	9.61	0
1	7963	9.71	0
1	8054	9.81	0
1	8145	9.91	0
1	8268	10.01	0
1	8361	10.11	0
1	8454	10.21	0
1	8547	10.31	0
1	8640	10.41	0
1	8733	10.51	0
1	8826	10.61	0
1	8919	10.71	0
1	9012	10.81	0
1	9105	10.91	0
1	9201	11.01	0
1	9294	11.11	0
1	9387	11.21	0
1	9480	11.31	0
1	9573	11.41	0
1	9666	11.51	0
1	9759	11.61	0
1	9852	11.71	0
1	9945	11.81	0
1	10038	11.91	0
1	10134	12.01	0
1	10227	12.11	0
1	10320	12.21	0
1	10413	12.31	0
1	10506	12.41	0
1	10599	12.51	0
1	10692	12.61	0
1	10785	12.71	0
1	10878	12.81	0
1	10971	12.91	0
1	11067	13.01	0
1	11160	13.11	0
1	11253	13.21	0
1	11346	13.31	0
1	11439	13.41	0
1	11532	13.51	0
1	11625	13.61	0
1	11718	13.71	0
1	11811	13.81	0
1	11904	13.91	0
1	12000	14.01	0
1	12093	14.11	0
1	12186	14.21	0
1	12279	14.31	0
1	12372	14.41	0
1	12465	14.51	0
1	12558	14.61	0
1	12651	14.71	0
1	12744	14.81	0
1	12837	14.91	0
1	12933	15.01	0
1	13026	15.11	0
1	13119	15.21	0
1	13212	15.31	0
1	13305	15.41	0
1	13398	15.51	0
1	13491	15.61	0
1	13584	15.71	0
1	13677	15.81	0
1	13770	15.91	0
1	13866	16.01	0
1	13959	16.11	0
1	14052	16.21	0
1	14145	16.31	0
1	14238	16.41	0
1	14331	16.51	0
1	14424	16.61	0
1	14517	16.71	0
1	14610	16.81	0
1	14703	16.91	0
1	14799	17.01	0
1	14892	17.11	0
1	14985	17.21	0
1	15078	17.31	0
1	15171	17.41	0
1	15264	17.51	0
1	15357	17.61	0
1	15450	17.71	0
1	15543	17.81	0
1	15636	17.91	0
1	15732	18.01	0
1	15825	18.11	0
1	15918	18.21	0
1	16011	18.31	0
1	16104	18.41	0
1	16197	18.51	0
1	16290	18.61	0
1	16383	18.71	0
1	16476	18.81	0
1	16569	18.91	0
1	16665	19.01	0
1	16758	19.11	0
1	16851	19.21	0
1	16944	19.31	0
1	17037	19.41	0
1	17130	19.51	0
1	17223	19.61	0
1	17316	19.71	0
1	17409	19.81	0
1	17502	19.91	0
1	17598	20.01	0
1	17691	20.11	0
1	17784	20.21	0
1	17877	20.31	0
1	17970	20.41	0
1	18063	20.51	0
1	18156	20.61	0
1	18249	20.71	0
1	18342	20.81	0
1	18435	20.91	0
1	18531	21.01	0
1	18624	21.11	0
1	18717	21.21	0
1	18810	21.31	0
1	18903	21.41	0
1	18996	21.51	0
1	19089	21.61	0
1	19182	21.71	0
1	19275	21.81	0
1	19368	21.91	0
1	19464	22.01	0
1	19557	22.11	0
1	19650	22.21	0
1	19743	22.31	0
1	19836	22.41	0
1	19929	22.51	0
1	20022	22.61	0
1	20115	22.71	0
1	20208	22.81	0
1	20301	22.91	0
1	20397	23.01	0
1	20490	23.11	0
1	20583	23.21	0
1	20676	23.31	0
1	20769	23.41	0
1	20862	23.51	0
1	20955	23.61	0
1	21048	23.71	0
1	21141	23.81	0
1	21234	23.91	0
1	21330	24.01	0
1	21423	24.11	0
1	21516	24.21	0
1	21609	24.31	0
1	21702	24.41	0
1	21795	24.51	0
1	21888	24.61	0
1	21981	24.71	0
1	22074	24.81	0
1	22167	24.91	0
1	22263	25.01	0
1	22356	25.11	0
1	22449	25.21	0
1	22542	25.31	0
1	22635	25.41	0
1	22728	25.51	0
1	22821	25.61	0
1	22914	25.71	0
1	23007	25.81	0
1	23100	25.91	0
1	23196	26.01	0
1	23289	26.11	0
1	23382	26.21	0
1	23475	26.31	0
1	23568	26.41	0
1	23661	26.51	0
1	23754	26.61	0
1	23847	26.71	0
1	23940	26.81	0
1	24033	26.91	0
1	24129	27.01	0
1	24222	27.11	0
1	24315	27.21	0
1	24408	27.31	0
1	24501	27.41	0
1	24594	27.51	0
1	24687	27.61	0
1	24780	27.71	0
1	24873	27.81	0
1	24966	27.91	0
1	25062	28.01	0
1	25155	28.11	0
1	25248	28.21	0
1	25341	28.31	0
1	25434	28.41	0
1	25527	28.51	0
1	25620	28.61	0
1	25713	28.71	0
1	25806	28.81	0
1	25899	28.91	0
1	25995	29.01	0
1	26088	29.11	0
1	26181	29.21	0
1	26317	29.31	0
1	26409	29.41	0
1	26501	29.51	0
1	26593	29.61	0
1	26685	29.71	0
1	26777	29.81	0
1	26869	29.91	0
1	26964	30.01	0
1	27056	30.11	0
1	27148	30.21	0
1	27240	30.31	0
1	27332	30.41	0
1	27424	30.51	0
1	27516	30.61	0
1	27608	30.71	0
1	27700	30.81	0
1	27792	30.91	0
1	27887	31.01	0
1	27979	31.11	0
1	28071	31.21	0
1	28163	31.31	0
1	28255	31.41	0
1	28347	31.51	0
1	28439	31.61	0
1	28531	31.71	0
1	28623	31.81	0
1	28715	31.91	0
1	28810	32.01	0
1	28902	32.11	0
1	28994	32.21	0
1	29086	32.31	0
1	29178	32.41	0
1	29270	32.51	0
1	29362	32.61	0
1	29454	32.71	0
1	29546	32.81	0
1	29638	32.91	0
1	29733	33.01	0
1	29825	33.11	0
1	29917	33.21	0
1	30009	33.31	0
1	30101	33.41	0
1	30322	33.51	0
1	30413	33.61	0
1	30504	33.71	0
1	30595	33.81	0
1	30686	33.91	0
1	30780	34.01	0
1	30871	34.11	0
1	30962	34.21	0
1	31053	34.31	0
1	31144	34.41	0
1	31235	34.51	0
1	31326	34.61	0
1	31417	34.71	0
1	31508	34.81	0
1	31599	34.91	0
1	31693	35.01	0
1	31784	35.11	0
1	31875	35.21	0
1	31966	35.31	0
1	32057	35.41	0
1	32148	35.51	0
1	32239	35.61	0
1	32330	35.71	0
1	32421	35.81	0
1	32512	35.91	0
1	32606	36.01	0
1	32697	36.11	0
1	32788	36.21	0
1	32879	36.31	0
1	32970	36.41	0
1	33061	36.51	0
1	33152	36.61	0
1	33243	36.71	0
1	33334	36.81	0
1	33425	36.91	0
1	33519	37.01	0
1	33610	37.11	0
1	33701	37.21	0
1	33792	37.31	0
1	33883	37.41	0
1	33974	37.51	0
1	34065	37.61	0
1	34156	37.71	0
1	34247	37.81	0
1	34338	37.91	0
1	34432	38.01	0
1	34523	38.11	0
1	34614	38.21	0
1	34705	38.31	0
1	34796	38.41	0
1	34887	38.51	0
1	34978	38.61	0
1	35069	38.71	0
1	35160	38.81	0
1	35251	38.91	0
1	35345	39.01	0
1	35436	39.11	0
1	35527	39.21	0
1	35618	39.31	0
1	35709	39.41	0
1	35800	39.51	0
1	35891	39.61	0
1	35982	39.71	0
1	36073	39.81	0
1	36164	39.91	0
1	36258	40.01	0
1	36349	40.11	0
1	36440	40.21	0
1	36531	40.31	0
1	36622	40.41	0
1	36713	40.51	0
1	36804	40.61	0
1	36895	40.71	0
1	36986	40.81	0
1	37077	40.91	0
1	37171	41.01	0
1	37262	41.11	0
1	37353	41.21	0
1	37444	41.31	0
1	37535	41.41	0
1	37626	41.51	0
1	37717	41.61	0
1	37808	41.71	0
1	37899	41.81	0
1	37990	41.91	0
1	38084	42.01	0
1	38175	42.11	0
1	38266	42.21	0
1	38357	42.31	0
1	38448	42.41	0
1	38539	42.51	0
1	38630	42.61	0
1	38721	42.71	0
1	38812	42.81	0
1	38903	42.91	0
1	38997	43.01	0
1	39088	43.11	0
1	39179	43.21	0
1	39270	43.31	0
1	39361	43.41	0
1	39452	43.51	0
1	39543	43.61	0
1	39634	43.71	0
1	39725	43.81	0
1	39816	43.91	0
1	39910	44.01	0
1	40001	44.11	0
1	40092	44.21	0
1	40183	44.31	0
1	40274	44.41	0
1	40365	44.51	0
1	40456	44.61	0
1	40547	44.71	0
1	40638	44.81	0
1	40729	44.91	0
1	40823	45.01	0
1	40914	45.11	0
1	41005	45.21	0
1	41096	45.31	0
1	41187	45.41	0
1	41278	45.51	0
1	41369	45.61	0
1	41460	45.71	0
1	41551	45.81	0
1	41642	45.91	0
1	41736	46.01	0
1	41827	46.11	0
1	41918	46.21	0
1	42009	46.31	0
1	42100	46.41	0
1	42191	46.51	0
1	42282	46.61	0
1	42373	46.71	0
1	42464	46.81	0
1	42555	46.91	0
1	42649	47.01	0
1	42740	47.11	0
1	42831	47.21	0
1	42922	47.31	0
1	43013	47.41	0
1	43104	47.51	0
1	43195	47.61	0
1	43286	47.71	0
1	43377	47.81	0
1	43468	47.91	0
1	43562	48.01	0
1	43653	48.11	0
1	43744	48.21	0
1	43835	48.31	0
1	43926	48.41	0
1	44017	48.51	0
1	44108	48.61	0
1	44199	48.71	0
1	44290	48.81	0
1	44381	48.91	0
1	44475	49.01	0
1	44566	49.11	0
1	44657	49.21	0
1	44748	49.31	0
1	44839	49.41	0
1	44930	49.51	0
1	45021	49.61	0
1	45112	49.71	0
1	45203	49.81	0
1	45294	49.91	0
1	45388	50.01	0
1	45479	50.11	0
1	45570	50.21	0
1	45661	50.31	0
1	45752	50.41	0
1	45843	50.51	0
1	45934	50.61	0
1	46025	50.71	0
1	46116	50.81	0
1	46207	50.91	0
1	46301	51.01	0
1	46392	51.11	0
1	46483	51.21	0
1	46574	51.31	0
1	46665	51.41	0
1	46756	51.51	0
1	46847	51.61	0
1	46938	51.71	0
1	47029	51.81	0
1	47120	51.91	0
1	47214	52.01	0
1	47305	52.11	0
1	47396	52.21	0
1	47487	52.31	0
1	47578	52.41	0
1	47669	52.51	0
1	47760	52.61	0
1	47851	52.71	0
1	47942	52.81	0
1	48033	52.91	0
1	48127	53.01	0
1	48218	53.11	0
1	48309	53.21	0
1	48400	53.31	0
1	48491	53.41	0
1	48582	53.51	0
1	48673	53.61	0
1	48764	53.71	0
1	48855	53.81	0
1	48946	53.91	0
1	49040	54.01	0
1	49131	54.11	0
1	49222	54.21	0
1	49313	54.31	0
1	49404	54.41	0
1	49495	54.51	0
1	49586	54.61	0
1	49677	54.71	0
1	49768	54.81	0
1	49859	54.91	0
1	49953	55.01	0
1	50044	55.11	0
1	50135	55.21	0
1	50226	55.31	0
1	50317	55.41	0
1	50408	55.51	0
1	50499	55.61	0
1	50590	55.71	0
1	50681	55.81	0
1	50772	55.91	0
1	50866	56.01	0
1	50957	56.11	0
1	51048	56.21	0
1	51139	56.31	0
1	51230	56.41	0
1	51321	56.51	0
1	51412	56.61	0
1	51503	56.71	0
1	51594	56.81	0
1	51685	56.91	0
1	51779	57.01	0
1	51870	57.11	0
1	51961	57.21	0
1	52052	57.31	0
1	52143	57.41	0
1	52234	57.51	0
1	52325	57.61	0
1	52416	57.71	0
1	52507	57.81	0
1	52598	57.91	0
1	52692	58.01	0
1	52783	58.11	0
1	52874	58.21	0
1	52965	58.31	0
1	53056	58.41	0
1	53147	58.51	0
1	53238	58.61	0
1	53329	58.71	0
1	53420	58.81	0
1	53511	58.91	0
1	53605	59.01	0
1	53696	59.11	0
1	53787	59.21	0
1	53878	59.31	0
1	53969	59.41	0
1	54060	59.51	0
1	54151	59.61	0
1	54242	59.71	0
1	54333	59.81	0
1	54424	59.91	0
1	54518	60.01	0
1	54609	60.11	0
1	54700	60.21	0
1	54791	60.31	0
1	54882	60.41	0
1	54973	60.51	0
1	55064	60.61	0
1	55155	60.71	0
1	55246	60.81	0
1	55337	60.91	0
1	55431	61.01	0
1	55522	61.11	0
1	55613	61.21	0
1	55704	61.31	0
1	55795	61.41	0
1	55886	61.51	0
1	55977	61.61	0
1	56068	61.71	0
1	56159	61.81	0
1	56250	61.91	0
1	56344	62.01	0
1	56435	62.11	0
1	56526	62.21	0
1	56617	62.31	0
1	56708	62.41	0
1	56799	62.51	0
1	56890	62.61	0
1	56981	62.71	0
1	57072	62.81	0
1	57163	62.91	0
1	57257	63.01	0
1	57348	63.11	0
1	57439	63.21	0
1	57530	63.31	0
1	57621	63.41	0
1	57712	63.51	0
1	57803	63.61	0
1	57894	63.71	0
1	57985	63.81	0
1	58076	63.91	0
1	58170	64.01	0
1	58261	64.11	0
1	58352	64.21	0
1	58443	64.31	0
1	58534	64.41	0
1	58625	64.51	0
1	58716	64.61	0
1	58807	64.71	0
1	58898	64.81	0
1	58989	64.91	0
1	59083	65.01	0
1	59174	65.11	0
1	59265	65.21	0
1	59356	65.31	0
1	59447	65.41	0
1	59538	65.51	0
1	59629	65.61	0
1	59720	65.71	0
1	59811	65.81	0
1	59902	65.91	0
1	59996	66.01	0
1	60087	66.11	0
1	60178	66.21	0
1	60269	66.31	0
1	60360	66.41	0
1	60451	66.51	0
1	60542	66.61	0
1	60633	66.71	0
1	60724	66.81	0
1	60815	66.91	0
1	60909	67.01	0
1	61000	67.11	0
1	61091	67.21	0
1	61182	67.31	0
1	61273	67.41	0
1	61364	67.51	0
1	61455	67.61	0
1	61546	67.71	0
1	61637	67.81	0
1	61728	67.91	0
1	61822	68.01	0
1	61913	68.11	0
1	62004	68.21	0
1	62095	68.31	0
1	62186	68.41	0
1	62277	68.51	0
1	62368	68.61	0
1	62459	68.71	0
1	62550	68.81	0
1	62641	68.91	0
1	62735	69.01	0
1	62826	69.11	0
1	62917	69.21	0
1	63008	69.31	0
1	63099	69.41	0
1	63190	69.51	0
1	63281	69.61	0
1	63372	69.71	0
1	63463	69.81	0
1	63554	69.91	0
1	63648	70.01	0
1	63739	70.11	0
1	63830	70.21	0
1	63921	70.31	0
1	64012	70.41	0
1	64103	70.51	0
1	64194	70.61	0
1	64285	70.71	0
1	64376	70.81	0
1	64467	70.91	0
1	64561	71.01	0
1	64652	71.11	0
1	64743	71.21	0
1	64834	71.31	0
1	64925	71.41	0
1	65016	71.51	0
1	65107	71.61	0
1	65198	71.71	0
1	65289	71.81	0
1	65380	71.91	0
1	65474	72.01	0
1	65565	72.11	0
1	65656	72.21	0
1	65747	72.31	0
1	65838	72.41	0
1	65929	72.51	0
1	66020	72.61	0
1	66111	72.71	0
1	66202	72.81	0
1	66293	72.91	0
1	66387	73.01	0
1	66478	73.11	0
1	66569	73.21	0
1	66660	73.31	0
1	66751	73.41	0
1	66842	73.51	0
1	66933	73.61	0
1	67024	73.71	0
1	67115	73.81	0
1	67206	73.91	0
1	67300	74.01	0
1	67391	74.11	0
1	67482	74.21	0
1	67573	74.31	0
1	67664	74.41	0
1	67755	74.51	0
1	67846	74.61	0
1	67937	74.71	0
1	68028	74.81	0
1	68119	74.91	0
1	68213	75.01	0
1	68304	75.11	0
1	68395	75.21	0
1	68486	75.31	0
1	68577	75.41	0
1	68668	75.51	0
1	68759	75.61	0
1	68850	75.71	0
1	68941	75.81	0
1	69032	75.91	0
1	69126	76.01	0
1	69217	76.11	0
1	69308	76.21	0
1	69399	76.31	0
1	69490	76.41	0
1	69581	76.51	0
1	69672	76.61	0
1	69763	76.71	0
1	69854	76.81	0
1	69945	76.91	0
1	70039	77.01	0
1	70130	77.11	0
1	70221	77.21	0
1	70312	77.31	0
1	70403	77.41	0
1	70494	77.51	0
1	70585	77.61	0
1	70676	77.71	0
1	70767	77.81	0
1	70858	77.91	0
1	70952	78.01	0
1	71043	78.11	0
1	71134	78.21	0
1	71225	78.31	0
1	71316	78.41	0
1	71407	78.51	0
1	71498	78.61	0
1	71589	78.71	0
1	71680	78.81	0
1	71771	78.91	0
1	71865	79.01	0
1	71956	79.11	0
1	72047	79.21	0
1	72138	79.31	0
1	72229	79.41	0
1	72320	79.51	0
1	72411	79.61	0
1	72502	79.71	0
1	72593	79.81	0
1	72684	79.91	0
1	72778	80.01	0
1	72869	80.11	0
1	72960	80.21	0
1	73051	80.31	0
1	73142	80.41	0
1	73233	80.51	0
1	73324	80.61	0
1	73415	80.71	0
1	73506	80.81	0
1	73597	80.91	0
1	73691	81.01	0
1	73782	81.11	0
1	73873	81.21	0
1	73964	81.31	0
1	74055	81.41	0
1	74146	81.51	0
1	74237	81.61	0
1	74328	81.71	0
1	74419	81.81	0
1	74510	81.91	0
1	74604	82.01	0
1	74695	82.11	0
1	74786	82.21	0
1	74877	82.31	0
1	74968	82.41	0
1	75059	82.51	0
1	75150	82.61	0
1	75241	82.71	0
1	75332	82.81	0
1	75423	82.91	0
1	75517	83.01	0
1	75608	83.11	0
1	75699	83.21	0
1	75790	83.31	0
1	75881	83.41	0
1	75972	83.51	0
1	76063	83.61	0
1	76154	83.71	0
1	76245	83.81	0
1	76336	83.91	0
1	76430	84.01	0
1	76521	84.11	0
1	76612	84.21	0
1	76703	84.31	0
1	76794	84.41	0
1	76885	84.51	0
1	76976	84.61	0
1	77067	84.71	0
1	77158	84.81	0
1	77249	84.91	0
1	77343	85.01	0
1	77434	85.11	0
1	77525	85.21	0
1	77616	85.31	0
1	77707	85.41	0
1	77798	85.51	0
1	77889	85.61	0
1	77980	85.71	0
1	78071	85.81	0
1	78162	85.91	0
1	78256	86.01	0
1	78347	86.11	0
1	78438	86.21	0
1	78529	86.31	0
1	78620	86.41	0
1	78711	86.51	0
1	78802	86.61	0
1	78893	86.71	0
1	78984	86.81	0
1	79075	86.91	0
1	79169	87.01	0
1	79260	87.11	0
1	79351	87.21	0
1	79442	87.31	0
1	79533	87.41	0
1	79624	87.51	0
1	79715	87.61	0
1	79806	87.71	0
1	79897	87.81	0
1	79988	87.91	0
1	80082	88.01	0
1	80173	88.11	0
1	80264	88.21	0
1	80355	88.31	0
1	80446	88.41	0
1	80537	88.51	0
1	80628	88.61	0
1	80719	88.71	0
1	80810	88.81	0
1	80901	88.91	0
1	80995	89.01	0
1	81086	89.11	0
1	81177	89.21	0
1	81268	89.31	0
1	81359	89.41	0
1	81450	89.51	0
1	81541	89.61	0
1	81632	89.71	0
1	81723	89.81	0
1	81814	89.91	0
1	81908	90.01	0
1	81999	90.11	0
1	82090	90.21	0
1	82181	90.31	0
1	82272	90.41	0
1	82363	90.51	0
1	82454	90.61	0
1	82545	90.71	0
1	82636	90.81	0
1	82727	90.91	0
1	82821	91.01	0
1	82912	91.11	0
1	83003	91.21	0
1	83094	91.31	0
1	83185	91.41	0
1	83276	91.51	0
1	83367	91.61	0
1	83458	91.71	0
1	83549	91.81	0
1	83640	91.91	0
1	83734	92.01	0
1	83825	92.11	0
1	83916	92.21	0
1	84007	92.31	0
1	84098	92.41	0
1	84189	92.51	0
1	84280	92.61	0
1	84371	92.71	0
1	84462	92.81	0
1	84553	92.91	0
1	84647	93.01	0
1	84738	93.11	0
1	84829	93.21	0
1	84920	93.31	0
1	85011	93.41	0
1	85102	93.51	0
1	85193	93.61	0
1	85284	93.71	0
1	85375	93.81	0
1	85466	93.91	0
1	85560	94.01	0
1	85651	94.11	0
1	85742	94.21	0
1	85833	94.31	0
1	85924	94.41	0
1	86015	94.51	0
1	86106	94.61	0
1	86197	94.71	0
1	86288	94.81	0
1	86379	94.91	0
1	86473	95.01	0
1	86564	95.11	0
1	86655	95.21	0
1	86746	95.31	0
1	86837	95.41	0
1	86928	95.51	0
1	87019	95.61	0
1	87110	95.71	0
1	87201	95.81	0
1	87292	95.91	0
1	87386	96.01	0
1	87477	96.11	0
1	87568	96.21	0
1	87659	96.31	0
1	87750	96.41	0
1	87841	96.51	0
1	87932	96.61	0
1	88023	96.71	0
1	88114	96.81	0
1	88205	96.91	0
1	88299	97.01	0
1	88390	97.11	0
1	88481	97.21	0
1	88572	97.31	0
1	88663	97.41	0
1	88754	97.51	0
1	88845	97.61	0
1	88936	97.71	0
1	89027	97.81	0
1	89118	97.91	0
1	89212	98.01	0
1	89303	98.11	0
1	89394	98.21	0
1	89485	98.31	0
1	89576	98.41	0
1	89667	98.51	0
1	89758	98.61	0
1	89849	98.71	0
1	89940	98.81	0
1	90031	98.91	0
1	90125	99.01	0
1	90216	99.11	0
1	90307	99.21	0
1	90398	99.31	0
1	90489	99.41	0
1	90580	99.51	0
1	90671	99.61	0
1	90762	99.71	0
1	90853	99.81	0
1	90944	99.91	0
2	113	1.11	0
2	204	1.21	0
2	295	1.31	0
2	386	1.41	0
2	477	1.51	0
2	568	1.61	0
2	659	1.71	0
2	750	1.81	0
2	841	1.91	0
2	935	2.01	0
2	1026	2.11	0
2	1117	2.21	0
2	1208	2.31	0
2	1299	2.41	0
2	1390	2.51	0
2	1481	2.61	0
2	1572	2.71	0
2	1663	2.81	0
2	1754	2.91	0
2	1848	3.01	0
2	1939	3.11	0
2	2030	3.21	0
2	2121	3.31	0
2	2212	3.41	0
2	2303	3.51	0
2	2394	3.61	0
2	2485	3.71	0
2	2576	3.81	0
2	2667	3.91	0
2	2761	4.01	0
2	2852	4.11	0
2	2943	4.21	0
2	3034	4.31	0
2	3125	4.41	0
2	3216	4.51	0
2	3307	4.61	0
2	3398	4.71	0
2	3489	4.81	0
2	3580	4.91	0
2	3674	5.01	0
2	3765	5.11	0
2	3856	5.21	0
2	3947	5.31	0
2	4038	5.41	0
2	4129	5.51	0
2	4220	5.61	0
2	4311	5.71	0
2	4402	5.81	0
2	4493	5.91	0
2	4587	6.01	0
2	4678	6.11	0
2	4769	6.21	0
2	4860	6.31	0
2	4951	6.41	0
2	5042	6.51	0
2	5133	6.61	0
2	5224	6.71	0
2	5315	6.81	0
2	5406	6.91	0
2	5500	7.01	0
2	5591	7.11	0
2	5682	7.21	0
2	5773	7.31	0
2	5864	7.41	0
2	5955	7.51	0
2	6046	7.61	0
2	6137	7.71	0
2	6228	7.81	0
2	6319	7.91	0
2	6413	8.01	0
2	6504	8.11	0
2	6595	8.21	0
2	6686	8.31	0
2	6777	8.41	0
2	6868	8.51	0
2	6959	8.61	0
2	7050	8.71	0
2	7141	8.81	0
2	7232	8.91	0
2	7326	9.01	0
2	7417	9.11	0
2	7508	9.21	0
2	7599	9.31	0
2	7690	9.41	0
2	7781	9.51	0
2	7872	9.61	0
2	7963	9.71	0
2	8054	9.81	0
2	8145	9.91	0
2	8268	10.01	0
2	8361	10.11	0
2	8454	10.21	0
2	8547	10.31	0
2	8640	10.41	0
2	8733	10.51	0
2	8826	10.61	0
2	8919	10.71	0
2	9012	10.81	0
2	9105	10.91	0
2	9201	11.01	0
2	9294	11.11	0
2	9387	11.21	0
2	9480	11.31	0
2	9573	11.41	0
2	9666	11.51	0
2	9759	11.61	0
2	9852	11.71	0
2	9945	11.81	0
2	10038	11.91	0
2	10134	12.01	0
2	10227	12.11	0
2	10320	12.21	0
2	10413	12.31	0
2	10506	12.41	0
2	10599	12.51	0
2	10692	12.61	0
2	10785	12.71	0
2	10878	12.81	0
2	10971	12.91	0
2	11067	13.01	0
2	11160	13.11	0
2	11253	13.21	0
2	11346	13.31	0
2	11439	13.41	0
2	11532	13.51	0
2	11625	13.61	0
2	11718	13.71	0
2	11811	13.81	0
2	11904	13.91	0
2	12000	14.01	0
2	12093	14.11	0
2	12186	14.21	0
2	12279	14.31	0
2	12372	14.41	0
2	12465	14.51	0
2	12558	14.61	0
2	12651	14.71	0
2	12744	14.81	0
2	12837	14.91	0
2	12933	15.01	0
2	13026	15.11	0
2	13119	15.21	0
2	13212	15.31	0
2	13305	15.41	0
2	13398	15.51	0
2	13491	15.61	0
2	13584	15.71	0
2	13677	15.81	0
2	13770	15.91	0
2	13866	16.01	0
2	13959	16.11	0
2	14052	16.21	0
2	14145	16.31	0
2	14238	16.41	0
2	14331	16.51	0
2	14424	16.61	0
2	14517	16.71	0
2	14610	16.81	0
2	14703	16.91	0
2	14799	17.01	0
2	14892	17.11	0
2	14985	17.21	0
2	15078	17.31	0
2	15171	17.41	0
2	15264	17.51	0
2	15357	17.61	0
2	15450	17.71	0
2	15543	17.81	0
2	15636	17.91	0
2	15732	18.01	0
2	15825	18.11	0
2	15918	18.21	0
2	16011	18.31	0
2	16104	18.41	0
2	16197	18.51	0
2	16290	18.61	0
2	16383	18.71	0
2	16476	18.81	0
2	16569	18.91	0
2	16665	19.01	0
2	16758	19.11	0
2	16851	19.21	0
2	16944	19.31	0
2	17037	19.41	0
2	17130	19.51	0
2	17223	19.61	0
2	17316	19.71	0
2	17409	19.81	0
2	17502	19.91	0
2	17598	20.01	0
2	17691	20.11	0
2	17784	20.21	0
2	17877	20.31	0
2	17970	20.41	0
2	18063	20.51	0
2	18156	20.61	0
2	18249	20.71	0
2	18342	20.81	0
2	18435	20.91	0
2	18531	21.01	0
2	18624	21.11	0
2	18717	21.21	0
2	18810	21.31	0
2	18903	21.41	0
2	18996	21.51	0
2	19089	21.61	0
2	19182	21.71	0
2	19275	21.81	0
2	19368	21.91	0
2	19464	22.01	0
2	19557	22.11	0
2	19650	22.21	0
2	19743	22.31	0
2	19836	22.41	0
2	19929	22.51	0
2	20022	22.61	0
2	20115	22.71	0
2	20208	22.81	0
2	20301	22.91	0
2	20397	23.01	0
2	20490	23.11	0
2	20583	23.21	0
2	20676	23.31	0
2	20769	23.41	0
2	20862	23.51	0
2	20955	23.61	0
2	21048	23.71	0
2	21141	23.81	0
2	21234	23.91	0
2	21330	24.01	0
2	21423	24.11	0
2	21516	24.21	0
2	21609	24.31	0
2	21702	24.41	0
2	21795	24.51	0
2	21888	24.61	0
2	21981	24.71	0
2	22074	24.81	0
2	22167	24.91	0
2	22263	25.01	0
2	22356	25.11	0
2	22449	25.21	0
2	22542	25.31	0
2	22635	25.41	0
2	22728	25.51	0
2	22821	25.61	0
2	22914	25.71	0
2	23007	25.81	0
2	23100	25.91	0
2	23196	26.01	0
2	23289	26.11	0
2	23382	26.21	0
2	23475	26.31	0
2	23568	26.41	0
2	23661	26.51	0
2	23754	26.61	0
2	23847	26.71	0
2	23940	26.81	0
2	24033	26.91	0
2	24129	27.01	0
2	24222	27.11	0
2	24315	27.21	0
2	24408	27.31	0
2	24501	27.41	0
2	24594	27.51	0
2	24687	27.61	0
2	24780	27.71	0
2	24873	27.81	0
2	24966	27.91	0
2	25062	28.01	0
2	25155	28.11	0
2	25248	28.21	0
2	25341	28.31	0
2	25434	28.41	0
2	25527	28.51	0
2	25620	28.61	0
2	25713	28.71	0
2	25806	28.81	0
2	25899	28.91	0
2	25995	29.01	0
2	26088	29.11	0
2	26181	29.21	0
2	26317	29.31	0
2	26409	29.41	0
2	26501	29.51	0
2	26593	29.61	0
2	26685	29.71	0
2	26777	29.81	0
2	26869	29.91	0
2	26964	30.01	0
2	27056	30.11	0
2	27148	30.21	0
2	27240	30.31	0
2	27332	30.41	0
2	27424	30.51	0
2	27516	30.61	0
2	27608	30.71	0
2	27700	30.81	0
2	27792	30.91	0
2	27887	31.01	0
2	27979	31.11	0
2	28071	31.21	0
2	28163	31.31	0
2	28255	31.41	0
2	28347	31.51	0
2	28439	31.61	0
2	28531	31.71	0
2	28623	31.81	0
2	28715	31.91	0
2	28810	32.01	0
2	28902	32.11	0
2	28994	32.21	0
2	29086	32.31	0
2	29178	32.41	0
2	29270	32.51	0
2	29362	32.61	0
2	29454	32.71	0
2	29546	32.81	0
2	29638	32.91	0
2	29733	33.01	0
2	29825	33.11	0
2	29917	33.21	0
2	30009	33.31	0
2	30101	33.41	0
2	30322	33.51	0
2	30413	33.61	0
2	30504	33.71	0
2	30595	33.81	0
2	30686	33.91	0
2	30780	34.01	0
2	30871	34.11	0
2	30962	34.21	0
2	31053	34.31	0
2	31144	34.41	0
2	31235	34.51	0
2	31326	34.61	0
2	31417	34.71	0
2	31508	34.81	0
2	31599	34.91	0
2	31693	35.01	0
2	31784	35.11	0
2	31875	35.21	0
2	31966	35.31	0
2	32057	35.41	0
2	32148	35.51	0
2	32239	35.61	0
2	32330	35.71	0
2	32421	35.81	0
2	32512	35.91	0
2	32606	36.01	0
2	32697	36.11	0
2	32788	36.21	0
2	32879	36.31	0
2	32970	36.41	0
2	33061	36.51	0
2	33152	36.61	0
2	33243	36.71	0
2	33334	36.81	0
2	33425	36.91	0
2	33519	37.01	0
2	33610	37.11	0
2	33701	37.21	0
2	33792	37.31	0
2	33883	37.41	0
2	33974	37.51	0
2	34065	37.61	0
2	34156	37.71	0
2	34247	37.81	0
2	34338	37.91	0
2	34432	38.01	0
2	34523	38.11	0
2	34614	38.21	0
2	34705	38.31	0
2	34796	38.41	0
2	34887	38.51	0
2	34978	38.61	0
2	35069	38.71	0
2	35160	38.81	0
2	35251	38.91	0
2	35345	39.01	0
2	35436	39.11	0
2	35527	39.21	0
2	35618	39.31	0
2	35709	39.41	0
2	35800	39.51	0
2	35891	39.61	0
2	35982	39.71	0
2	36073	39.81	0
2	36164	39.91	0
2	36258	40.01	0
2	36349	40.11	0
2	36440	40.21	0
2	36531	40.31	0
2	36622	40.41	0
2	36713	40.51	0
2	36804	40.61	0
2	36895	40.71	0
2	36986	40.81	0
2	37077	40.91	0
2	37171	41.01	0
2	37262	41.11	0
2	37353	41.21	0
2	37444	41.31	0
2	37535	41.41	0
2	37626	41.51	0
2	37717	41.61	0
2	37808	41.71	0
2	37899	41.81	0
2	37990	41.91	0
2	38084	42.01	0
2	38175	42.11	0
2	38266	42.21	0
2	38357	42.31	0
2	38448	42.41	0
2	38539	42.51	0
2	38630	42.61	0
2	38721	42.71	0
2	38812	42.81	0
2	38903	42.91	0
2	38997	43.01	0
2	39088	43.11	0
2	39179	43.21	0
2	39270	43.31	0
2	39361	43.41	0
2	39452	43.51	0
2	39543	43.61	0
2	39634	43.71	0
2	39725	43.81	0
2	39816	43.91	0
2	39910	44.01	0
2	40001	44.11	0
2	40092	44.21	0
2	40183	44.31	0
2	40274	44.41	0
2	40365	44.51	0
2	40456	44.61	0
2	40547	44.71	0
2	40638	44.81	0
2	40729	44.91	0
2	40823	45.01	0
2	40914	45.11	0
2	41005	45.21	0
2	41096	45.31	0
2	41187	45.41	0
2	41278	45.51	0
2	41369	45.61	0
2	41460	45.71	0
2	41551	45.81	0
2	41642	45.91	0
2	41736	46.01	0
2	41827	46.11	0
2	41918	46.21	0
2	42009	46.31	0
2	42100	46.41	0
2	42191	46.51	0
2	42282	46.61	0
2	42373	46.71	0
2	42464	46.81	0
2	42555	46.91	0
2	42649	47.01	0
2	42740	47.11	0
2	42831	47.21	0
2	42922	47.31	0
2	43013	47.41	0
2	43104	47.51	0
2	43195	47.61	0
2	43286	47.71	0
2	43377	47.81	0
2	43468	47.91	0
2	43562	48.01	0
2	43653	48.11	0
2	43744	48.21	0
2	43835	48.31	0
2	43926	48.41	0
2	44017	48.51	0
2	44108	48.61	0
2	44199	48.71	0
2	44290	48.81	0
2	44381	48.91	0
2	44475	49.01	0
2	44566	49.11	0
2	44657	49.21	0
2	44748	49.31	0
2	44839	49.41	0
2	44930	49.51	0
2	45021	49.61	0
2	45112	49.71	0
2	45203	49.81	0
2	45294	49.91	0
2	45388	50.01	0
2	45479	50.11	0
2	45570	50.21	0
2	45661	50.31	0
2	45752	50.41	0
2	45843	50.51	0
2	45934	50.61	0
2	46025	50.71	0
2	46116	50.81	0
2	46207	50.91	0
2	46301	51.01	0
2	46392	51.11	0
2	46483	51.21	0
2	46574	51.31	0
2	46665	51.41	0
2	46756	51.51	0
2	46847	51.61	0
2	46938	51.71	0
2	47029	51.81	0
2	47120	51.91	0
2	47214	52.01	0
2	47305	52.11	0
2	47396	52.21	0
2	47487	52.31	0
2	47578	52.41	0
2	47669	52.51	0
2	47760	52.61	0
2	47851	52.71	0
2	47942	52.81	0
2	48033	52.91	0
2	48127	53.01	0
2	48218	53.11	0
2	48309	53.21	0
2	48400	53.31	0
2	48491	53.41	0
2	48582	53.51	0
2	48673	53.61	0
2	48764	53.71	0
2	48855	53.81	0
2	48946	53.91	0
2	49040	54.01	0
2	49131	54.11	0
2	49222	54.21	0
2	49313	54.31	0
2	49404	54.41	0
2	49495	54.51	0
2	49586	54.61	0
2	49677	54.71	0
2	49768	54.81	0
2	49859	54.91	0
2	49953	55.01	0
2	50044	55.11	0
2	50135	55.21	0
2	50226	55.31	0
2	50317	55.41	0
2	50408	55.51	0
2	50499	55.61	0
2	50590	55.71	0
2	50681	55.81	0
2	50772	55.91	0
2	50866	56.01	0
2	50957	56.11	0
2	51048	56.21	0
2	51139	56.31	0
2	51230	56.41	0
2	51321	56.51	0
2	51412	56.61	0
2	51503	56.71	0
2	51594	56.81	0
2	51685	56.91	0
2	51779	57.01	0
2	51870	57.11	0
2	51961	57.21	0
2	52052	57.31	0
2	52143	57.41	0
2	52234	57.51	0
2	52325	57.61	0
2	52416	57.71	0
2	52507	57.81	0
2	52598	57.91	0
2	52692	58.01	0
2	52783	58.11	0
2	52874	58.21	0
2	52965	58.31	0
2	53056	58.41	0
2	53147	58.51	0
2	53238	58.61	0
2	53329	58.71	0
2	53420	58.81	0
2	53511	58.91	0
2	53605	59.01	0
2	53696	59.11	0
2	53787	59.21	0
2	53878	59.31	0
2	53969	59.41	0
2	54060	59.51	0
2	54151	59.61	0
2	54242	59.71	0
2	54333	59.81	0
2	54424	59.91	0
2	54518	60.01	0
2	54609	60.11	0
2	54700	60.21	0
2	54791	60.31	0
2	54882	60.41	0
2	54973	60.51	0
2	55064	60.61	0
2	55155	60.71	0
2	55246	60.81	0
2	55337	60.91	0
2	55431	61.01	0
2	55522	61.11	0
2	55613	61.21	0
2	55704	61.31	0
2	55795	61.41	0
2	55886	61.51	0
2	55977	61.61	0
2	56068	61.71	0
2	56159	61.81	0
2	56250	61.91	0
2	56344	62.01	0
2	56435	62.11	0
2	56526	62.21	0
2	56617	62.31	0
2	56708	62.41	0
2	56799	62.51	0
2	56890	62.61	0
2	56981	62.71	0
2	57072	62.81	0
2	57163	62.91	0
2	57257	63.01	0
2	57348	63.11	0
2	57439	63.21	0
2	57530	63.31	0
2	57621	63.41	0
2	57712	63.51	0
2	57803	63.61	0
2	57894	63.71	0
2	57985	63.81	0
2	58076	63.91	0
2	58170	64.01	0
2	58261	64.11	0
2	58352	64.21	0
2	58443	64.31	0
2	58534	64.41	0
2	58625	64.51	0
2	58716	64.61	0
2	58807	64.71	0
2	58898	64.81	0
2	58989	64.91	0
2	59083	65.01	0
2	59174	65.11	0
2	59265	65.21	0
2	59356	65.31	0
2	59447	65.41	0
2	59538	65.51	0
2	59629	65.61	0
2	59720	65.71	0
2	59811	65.81	0
2	59902	65.91	0
2	59996	66.01	0
2	60087	66.11	0
2	60178	66.21	0
2	60269	66.31	0
2	60360	66.41	0
2	60451	66.51	0
2	60542	66.61	0
2	60633	66.71	0
2	60724	66.81	0
2	60815	66.91	0
2	60909	67.01	0
2	61000	67.11	0
2	61091	67.21	0
2	61182	67.31	0
2	61273	67.41	0
2	61364	67.51	0
2	61455	67.61	0
2	61546	67.71	0
2	61637	67.81	0
2	61728	67.91	0
2	61822	68.01	0
2	61913	68.11	0
2	62004	68.21	0
2	62095	68.31	0
2	62186	68.41	0
2	62277	68.51	0
2	62368	68.61	0
2	62459	68.71	0
2	62550	68.81	0
2	62641	68.91	0
2	62735	69.01	0
2	62826	69.11	0
2	62917	69.21	0
2	63008	69.31	0
2	63099	69.41	0
2	63190	69.51	0
2	63281	69.61	0
2	63372	69.71	0
2	63463	69.81	0
2	63554	69.91	0
2	63648	70.01	0
2	63739	70.11	0
2	63830	70.21	0
2	63921	70.31	0
2	64012	70.41	0
2	64103	70.51	0
2	64194	70.61	0
2	64285	70.71	0
2	64376	70.81	0
2	64467	70.91	0
2	64561	71.01	0
2	64652	71.11	0
2	64743	71.21	0
2	64834	71.31	0
2	64925	71.41	0
2	65016	71.51	0
2	65107	71.61	0
2	65198	71.71	0
2	65289	71.81	0
2	65380	71.91	0
2	65474	72.01	0
2	65565	72.11	0
2	65656	72.21	0
2	65747	72.31	0
2	65838	72.41	0
2	65929	72.51	0
2	66020	72.61	0
2	66111	72.71	0
2	66202	72.81	0
2	66293	72.91	0
2	66387	73.01	0
2	66478	73.11	0
2	66569	73.21	0
2	66660	73.31	0
2	66751	73.41	0
2	66842	73.51	0
2	66933	73.61	0
2	67024	73.71	0
2	67115	73.81	0
2	67206	73.91	0
2	67300	74.01	0
2	67391	74.11	0
2	67482	74.21	0
2	67573	74.31	0
2	67664	74.41	0
2	67755	74.51	0
2	67846	74.61	0
2	67937	74.71	0
2	68028	74.81	0
2	68119	74.91	0
2	68213	75.01	0
2	68304	75.11	0
2	68395	75.21	0
2	68486	75.31	0
2	68577	75.41	0
2	68668	75.51	0
2	68759	75.61	0
2	68850	75.71	0
2	68941	75.81	0
2	69032	75.91	0
2	69126	76.01	0
2	69217	76.11	0
2	69308	76.21	0
2	69399	76.31	0
2	69490	76.41	0
2	69581	76.51	0
2	69672	76.61	0
2	69763	76.71	0
2	69854	76.81	0
2	69945	76.91	0
2	70039	77.01	0
2	70130	77.11	0
2	70221	77.21	0
2	70312	77.31	0
2	70403	77.41	0
2	70494	77.51	0
2	70585	77.61	0
2	70676	77.71	0
2	70767	77.81	0
2	70858	77.91	0
2	70952	78.01	0
2	71043	78.11	0
2	71134	78.21	0
2	71225	78.31	0
2	71316	78.41	0
2	71407	78.51	0
2	71498	78.61	0
2	71589	78.71	0
2	71680	78.81	0
2	71771	78.91	0
2	71865	79.01	0
2	71956	79.11	0
2	72047	79.21	0
2	72138	79.31	0
2	72229	79.41	0
2	72320	79.51	0
2	72411	79.61	0
2	72502	79.71	0
2	72593	79.81	0
2	72684	79.91	0
2	72778	80.01	0
2	72869	80.11	0
2	72960	80.21	0
2	73051	80.31	0
2	73142	80.41	0
2	73233	80.51	0
2	73324	80.61	0
2	73415	80.71	0
2	73506	80.81	0
2	73597	80.91	0
2	73691	81.01	0
2	73782	81.11	0
2	73873	81.21	0
2	73964	81.31	0
2	74055	81.41	0
2	74146	81.51	0
2	74237	81.61	0
2	74328	81.71	0
2	74419	81.81	0
2	74510	81.91	0
2	74604	82.01	0
2	74695	82.11	0
2	74786	82.21	0
2	74877	82.31	0
2	74968	82.41	0
2	75059	82.51	0
2	75150	82.61	0
2	75241	82.71	0
2	75332	82.81	0
2	75423	82.91	0
2	75517	83.01	0
2	75608	83.11	0
2	75699	83.21	0
2	75790	83.31	0
2	75881	83.41	0
2	75972	83.51	0
2	76063	83.61	0
2	76154	83.71	0
2	76245	83.81	0
2	76336	83.91	0
2	76430	84.01	0
2	76521	84.11	0
2	76612	84.21	0
2	76703	84.31	0
2	76794	84.41	0
2	76885	84.51	0
2	76976	84.61	0
2	77067	84.71	0
2	77158	84.81	0
2	77249	84.91	0
2	77343	85.01	0
2	77434	85.11	0
2	77525	85.21	0
2	77616	85.31	0
2	77707	85.41	0
2	77798	85.51	0
2	77889	85.61	0
2	77980	85.71	0
2	78071	85.81	0
2	78162	85.91	0
2	78256	86.01	0
2	78347	86.11	0
2	78438	86.21	0
2	78529	86.31	0
2	78620	86.41	0
2	78711	86.51	0
2	78802	86.61	0
2	78893	86.71	0
2	78984	86.81	0
2	79075	86.91	0
2	79169	87.01	0
2	79260	87.11	0
2	79351	87.21	0
2	79442	87.31	0
2	79533	87.41	0
2	79624	87.51	0
2	79715	87.61	0
2	79806	87.71	0
2	79897	87.81	0
2	79988	87.91	0
2	80082	88.01	0
2	80173	88.11	0
2	80264	88.21	0
2	80355	88.31	0
2	80446	88.41	0
2	80537	88.51	0
2	80628	88.61	0
2	80719	88.71	0
2	80810	88.81	0
2	80901	88.91	0
2	80995	89.01	0
2	81086	89.11	0
2	81177	89.21	0
2	81268	89.31	0
2	81359	89.41	0
2	81450	89.51	0
2	81541	89.61	0
2	81632	89.71	0
2	81723	89.81	0
2	81814	89.91	0
2	81908	90.01	0
2	81999	90.11	0
2	82090	90.21	0
2	82181	90.31	0
2	82272	90.41	0
2	82363	90.51	0
2	82454	90.61	0
2	82545	90.71	0
2	82636	90.81	0
2	82727	90.91	0
2	82821	91.01	0
2	82912	91.11	0
2	83003	91.21	0
2	83094	91.31	0
2	83185	91.41	0
2	83276	91.51	0
2	83367	91.61	0
2	83458	91.71	0
2	83549	91.81	0
2	83640	91.91	0
2	83734	92.01	0
2	83825	92.11	0
2	83916	92.21	0
2	84007	92.31	0
2	84098	92.41	0
2	84189	92.51	0
2	84280	92.61	0
2	84371	92.71	0
2	84462	92.81	0
2	84553	92.91	0
2	84647	93.01	0
2	84738	93.11	0
2	84829	93.21	0
2	84920	93.31	0
2	85011	93.41	0
2	85102	93.51	0
2	85193	93.61	0
2	85284	93.71	0
2	85375	93.81	0
2	85466	93.91	0
2	85560	94.01	0
2	85651	94.11	0
2	85742	94.21	0
2	85833	94.31	0
2	85924	94.41	0
2	86015	94.51	0
2	86106	94.61	0
2	86197	94.71	0
2	86288	94.81	0
2	86379	94.91	0
2	86473	95.01	0
2	86564	95.11	0
2	86655	95.21	0
2	86746	95.31	0
2	86837	95.41	0
2	86928	95.51	0
2	87019	95.61	0
2	87110	95.71	0
2	87201	95.81	0
2	87292	95.91	0
2	87386	96.01	0
2	87477	96.11	0
2	87568	96.21	0
2	87659	96.31	0
2	87750	96.41	0
2	87841	96.51	0
2	87932	96.61	0
2	88023	96.71	0
2	88114	96.81	0
2	88205	96.91	0
2	88299	97.01	0
2	88390	97.11	0
2	88481	97.21	0
2	88572	97.31	0
2	88663	97.41	0
2	88754	97.51	0
2	88845	97.61	0
2	88936	97.71	0
2	89027	97.81	0
2	89118	97.91	0
2	89212	98.01	0
2	89303	98.11	0
2	89394	98.21	0
2	89485	98.31	0
2	89576	98.41	0
2	89667	98.51	0
2	89758	98.61	0
2	89849	98.71	0
2	89940	98.81	0
2	90031	98.91	0
2	90125	99.01	0
2	90216	99.11	0
2	90307	99.21	0
2	90398	99.31	0
2	90489	99.41	0
2	90580	99.51	0
2	90671	99.61	0
2	90762	99.71	0
2	90853	99.81	0
2	90944	99.91	0
3	113	1.11	-0.000716383
3	204	1.21	-0.00136341
3	295	1.31	-0.00186974
3	386	1.41	-0.00225157
3	477	1.51	-0.00252443
3	568	1.61	-0.00270298
3	659	1.71	-0.00280098
3	750	1.81	-0.00283113
3	841	1.91	-0.00280509
3	935	2.01	-0.00273342
3	1026	2.11	-0.00262559
3	1117	2.21	-0.00249005
3	1208	2.31	-0.00233419
3	1299	2.41	-0.00216447
3	1390	2.51	-0.00198642
3	1481	2.61	-0.00180472
3	1572	2.71	-0.0016233
3	1663	2.81	-0.00144536
3	1754	2.91	-0.00127346
3	1848	3.01	-0.0011096
3	1939	3.11	-0.000955278
3	2030	3.21	-0.000811546
3	2121	3.31	-0.00067908
3	2212	3.41	-0.000558232
3	2303	3.51	-0.000449082
3	2394	3.61	-0.000351487
3	2485	3.71	-0.00026512
3	2576	3.81	-0.000189514
3	2667	3.91	-0.000124092
3	2761	4.01	-6.81972e-05
3	2852	4.11	-2.11209e-05
3	2943	4.21	1.78769e-05
3	3034	4.31	4.9548e-05
3	3125	4.41	7.46407e-05
3	3216	4.51	9.38867e-05
3	3307	4.61	0.000107991
3	3398	4.71	0.000117625
3	3489	4.81	0.000123418
3	3580	4.91	0.000125957
3	3674	5.01	0.000125781
3	3765	5.11	0.00012338
3	3856	5.21	0.000119198
3	3947	5.31	0.000113629
3	4038	5.41	0.000107022
3	4129	5.51	9.96832e-05
3	4220	5.61	9.18747e-05
3	4311	5.71	8.38211e-05
3	4402	5.81	7.57109e-05
3	4493	5.91	6.76999e-05
3	4587	6.01	5.99137e-05
3	4678	6.11	5.24518e-05
3	4769	6.21	4.53896e-05
3	4860	6.31	3.87821e-05
3	4951	6.41	3.2666e-05
3	5042	6.51	2.70628e-05
3	5133	6.61	2.19809e-05
3	5224	6.71	1.74176e-05
3	5315	6.81	1.33618e-05
3	5406	6.91	9.79494e-06
3	5500	7.01	6.6932e-06
3	5591	7.11	4.02864e-06
3	5682	7.21	1.77051e-06
3	5773	7.31	-1.13691e-07
3	5864	7.41	-1.65736e-06
3	5955	7.51	-2.89397e-06
3	6046	7.61	-3.85652e-06
3	6137	7.71	-4.57698e-06
3	6228	7.81	-5.08591e-06
3	6319	7.91	-5.41219e-06
3	6413	8.01	-5.58279e-06
3	6504	8.11	-5.6226e-06
3	6595	8.21	-5.55442e-06
3	6686	8.31	-5.39886e-06
3	6777	8.41	-5.17441e-06
3	6868	8.51	-4.89748e-06
3	6959	8.61	-4.58246e-06
3	7050	8.71	-4.24184e-06
3	7141	8.81	-3.88634e-06
3	7232	8.91	-3.52499e-06
3	7326	9.01	-3.16534e-06
3	7417	9.11	-2.81353e-06
3	7508	9.21	-2.47446e-06
3	7599	9.31	-2.15192e-06
3	7690	9.41	-1.84873e-06
3	7781	9.51	-1.56685e-06
3	7872	9.61	-1.30751e-06
3	7963	9.71	-1.0713e-06
3	8054	9.81	-8.58321e-07
3	8145	9.91	-6.68206e-07
3	8268	10.01	-5.0026e-07
3	8361	10.11	-3.53514e-07
3	8454	10.21	-2.2679e-07
3	8547	10.31	-1.18765e-07
3	8640	10.41	-2.80163e-08
3	8733	10.51	4.6931e-08
3	8826	10.61	1.07573e-07
3	8919	10.71	1.55391e-07
3	9012	10.81	1.91831e-07
3	9105	10.91	2.18284e-07
3	9201	11.01	2.3607e-07
3	9294	11.11	2.46427e-07
3	9387	11.21	2.50502e-07
3	9480	11.31	2.49353e-07
3	9573	11.41	2.43938e-07
3	9666	11.51	2.3512e-07
3	9759	11.61	2.23669e-07
3	9852	11.71	2.10264e-07
3	9945	11.81	1.95496e-07
3	10038	11.91	1.79874e-07
3	10134	12.01	1.63833e-07
3	10227	12.11	1.47736e-07
3	10320	12.21	1.3188e-07
3	10413	12.31	1.16508e-07
3	10506	12.41	1.01807e-07
3	10599	12.51	8.79222e-08
3	10692	12.61	7.49541e-08
3	10785	12.71	6.29711e-08
3	10878	12.81	5.20114e-08
3	10971	12.91	4.20883e-08
3	11067	13.01	3.3193e-08
3	11160	13.11	2.53003e-08
3	11253	13.21	1.83718e-08
3	11346	13.31	1.23581e-08
3	11439	13.41	7.20348e-09
3	11532	13.51	2.84537e-09
3	11625	13.61	-7.80886e-10
3	11718	13.71	-3.74136e-09
3	11811	13.81	-6.10285e-09
3	11904	13.91	-7.93072e-09
3	12000	14.01	-9.28821e-09
3	12093	14.11	-1.0235e-08
3	12186	14.21	-1.08283e-08
3	12279	14.31	-1.11211e-08
3	12372	14.41	-1.11612e-08
3	12465	14.51	-1.09946e-08
3	12558	14.61	-1.06599e-08
3	12651	14.71	-1.01945e-08
3	12744	14.81	-9.62999e-09
3	12837	14.91	-8.99405e-09
3	12933	15.01	-8.31086e-09
3	13026	15.11	-7.60103e-09
3	13119	15.21	-6.88338e-09
3	13212	15.31	-6.17071e-09
3	13305	15.41	-5.47544e-09
3	13398	15.51	-4.80682e-09
3	13491	15.61	-4.17266e-09
3	13584	15.71	-3.57687e-09
3	13677	15.81	-3.02443e-09
3	13770	15.91	-2.51674e-09
3	13866	16.01	-2.05489e-09
3	13959	16.11	-1.63958e-09
3	14052	16.21	-1.26903e-09
3	14145	16.31	-9.42535e-10
3	14238	16.41	-6.57963e-10
3	14331	16.51	-4.1247e-10
3	14424	16.61	-2.04636e-10
3	14517	16.71	-2.91323e-11
3	14610	16.81	1.14753e-10
3	14703	16.91	2.30926e-10
3	14799	17.01	3.22231e-10
3	14892	17.11	3.91154e-10
3	14985	17.21	4.40892e-10
3	15078	17.31	4.73577e-10
3	15171	17.41	4.92051e-10
3	15264	17.51	4.98446e-10
3	15357	17.61	4.94893e-10
3	15450	17.71	4.82814e-10
3	15543	17.81	4.6434e-10
3	15636	17.91	4.40892e-10
3	15732	18.01	4.13536e-10
3	15825	18.11	3.83693e-10
3	15918	18.21	3.51719e-10
3	16011	18.31	3.19744e-10
3	16104	18.41	2.8777e-10
3	16197	18.51	2.55795e-10
3	16290	18.61	2.25953e-10
3	16383	18.71	1.97531e-10
3	16476	18.81	1.6982e-10
3	16569	18.91	1.44951e-10
3	16665	19.01	1.21503e-10
3	16758	19.11	1.00187e-10
3	16851	19.21	8.10019e-11
3	16944	19.31	6.32383e-11
3	17037	19.41	4.86722e-11
3	17130	19.51	3.44613e-11
3	17223	19.61	2.34479e-11
3	17316	19.71	1.27898e-11
3	17409	19.81	4.9738e-12
3	17502	19.91	-2.13163e-12
3	17598	20.01	-8.17124e-12
3	17691	20.11	-1.1724e-11
3	17784	20.21	-1.52767e-11
3	17877	20.31	-1.88294e-11
3	17970	20.41	-2.02505e-11
3	18063	20.51	-2.02505e-11
3	18156	20.61	-2.02505e-11
3	18249	20.71	-2.02505e-11
3	18342	20.81	-2.02505e-11
3	18435	20.91	-2.02505e-11
3	18531	21.01	-2.02505e-11
3	18624	21.11	-2.02505e-11
3	18717	21.21	-2.02505e-11
3	18810	21.31	-1.88294e-11
3	18903	21.41	-1.7053e-11
3	18996	21.51	-1.52767e-11
3	19089	21.61	-1.38556e-11
3	19182	21.71	-1.24345e-11
3	19275	21.81	-1.13687e-11
3	19368	21.91	-1.03029e-11
3	19464	22.01	-9.23706e-12
3	19557	22.11	-8.52651e-12
3	19650	22.21	-7.4607e-12
3	19743	22.31	-6.75016e-12
3	19836	22.41	-6.03961e-12
3	19929	22.51	-5.68434e-12
3	20022	22.61	-4.9738e-12
3	20115	22.71	-4.61853e-12
3	20208	22.81	-4.26326e-12
3	20301	22.91	-3.90799e-12
3	20397	23.01	-3.55271e-12
3	20490	23.11	-3.19744e-12
3	20583	23.21	-2.84217e-12
3	20676	23.31	-2.4869e-12
3	20769	23.41	-2.13163e-12
3	20862	23.51	-2.13163e-12
3	20955	23.61	-1.77636e-12
3	21048	23.71	-1.77636e-12
3	21141	23.81	-1.42109e-12
3	21234	23.91	-1.42109e-12
3	21330	24.01	-1.06581e-12
3	21423	24.11	-1.06581e-12
3	21516	24.21	-1.06581e-12
3	21609	24.31	-1.06581e-12
3	21702	24.41	-7.10543e-13
3	21795	24.51	-7.10543e-13
3	21888	24.61	-7.10543e-13
3	21981	24.71	-7.10543e-13
3	22074	24.81	-7.10543e-13
3	22167	24.91	-3.55271e-13
3	22263	25.01	-3.55271e-13
3	22356	25.11	-3.55271e-13
3	22449	25.21	-3.55271e-13
3	22542	25.31	-3.55271e-13
3	22635	25.41	-3.55271e-13
3	22728	25.51	-3.55271e-13
3	22821	25.61	-3.55271e-13
3	22914	25.71	-3.55271e-13
3	23007	25.81	-3.55271e-13
3	23100	25.91	0
3	23196	26.01	0
3	23289	26.11	0
3	23382	26.21	0
3	23475	26.31	0
3	23568	26.41	0
3	23661	26.51	0
3	23754	26.61	0
3	23847	26.71	0
3	23940	26.81	0
3	24033	26.91	0
3	24129	27.01	0
3	24222	27.11	0
3	24315	27.21	0
3	24408	27.31	0
3	24501	27.41	0
3	24594	27.51	0
3	24687	27.61	0
3	24780	27.71	0
3	24873	27.81	0
3	24966	27.91	0
3	25062	28.01	0
3	25155	28.11	0
3	25248	28.21	0
3	25341	28.31	0
3	25434	28.41	0
3	25527	28.51	0
3	25620	28.61	0
3	25713	28.71	0
3	25806	28.81	0
3	25899	28.91	0
3	25995	29.01	0
3	26088	29.11	0
3	26181	29.21	0
3	26317	29.31	0
3	26409	29.41	0
3	26501	29.51	0
3	26593	29.61	0
3	26685	29.71	0
3	26777	29.81	0
3	26869	29.91	0
3	26964	30.01	0
3	27056	30.11	0
3	27148	30.21	0
3	27240	30.31	0
3	27332	30.41	0
3	27424	30.51	0
3	27516	30.61	0
3	27608	30.71	0
3	27700	30.81	0
3	27792	30.91	0
3	27887	31.01	0
3	27979	31.11	0
3	28071	31.21	0
3	28163	31.31	0
3	28255	31.41	0
3	28347	31.51	0
3	28439	31.61	0
3	28531	31.71	0
3	28623	31.81	0
3	28715	31.91	0
3	28810	32.01	0
3	28902	32.11	0
3	28994	32.21	0
3	29086	32.31	0
3	29178	32.41	0
3	29270	32.51	0
3	29362	32.61	0
3	29454	32.71	0
3	29546	32.81	0
3	29638	32.91	0
3	29733	33.01	0
3	29825	33.11	0
3	29917	33.21	0
3	30009	33.31	0
3	30101	33.41	0
3	30322	33.51	0
3	30413	33.61	0
3	30504	33.71	0
3	30595	33.81	0
3	30686	33.91	0
3	30780	34.01	0
3	30871	34.11	0
3	30962	34.21	0
3	31053	34.31	0
3	31144	34.41	0
3	31235	34.51	0
3	31326	34.61	0
3	31417	34.71	0
3	31508	34.81	0
3	31599	34.91	0
3	31693	35.01	0
3	31784	35.11	0
3	31875	35.21	0
3	31966	35.31	0
3	32057	35.41	0
3	32148	35.51	0
3	32239	35.61	0
3	32330	35.71	0
3	32421	35.81	0
3	32512	35.91	0
3	32606	36.01	0
3	32697	36.11	0
3	32788	36.21	0
3	32879	36.31	0
3	32970	36.41	0
3	33061	36.51	0
3	33152	36.61	0
3	33243	36.71	0
3	33334	36.81	0
3	33425	36.91	0
3	33519	37.01	0
3	33610	37.11	0
3	33701	37.21	0
3	33792	37.31	0
3	33883	37.41	0
3	33974	37.51	0
3	34065	37.61	0
3	34156	37.71	0
3	34247	37.81	0
3	34338	37.91	0
3	34432	38.01	0
3	34523	38.11	0
3	34614	38.21	0
3	34705	38.31	0
3	34796	38.41	0
3	34887	38.51	0
3	34978	38.61	0
3	35069	38.71	0
3	35160	38.81	0
3	35251	38.91	0
3	35345	39.01	0
3	35436	39.11	0
3	35527	39.21	0
3	35618	39.31	0
3	35709	39.41	0
3	35800	39.51	0
3	35891	39.61	0
3	35982	39.71	0
3	36073	39.81	0
3	36164	39.91	0
3	36258	40.01	0
3	36349	40.11	0
3	36440	40.21	0
3	36531	40.31	0
3	36622	40.41	0
3	36713	40.51	0
3	36804	40.61	0
3	36895	40.71	0
3	36986	40.81	0
3	37077	40.91	0
3	37171	41.01	0
3	37262	41.11	0
3	37353	41.21	0
3	37444	41.31	0
3	37535	41.41	0
3	37626	41.51	0
3	37717	41.61	0
3	37808	41.71	0
3	37899	41.81	0
3	37990	41.91	0
3	38084	42.01	0
3	38175	42.11	0
3	38266	42.21	0
3	38357	42.31	0
3	38448	42.41	0
3	38539	42.51	0
3	38630	42.61	0
3	38721	42.71	0
3	38812	42.81	0
3	38903	42.91	0
3	38997	43.01	0
3	39088	43.11	0
3	39179	43.21	0
3	39270	43.31	0
3	39361	43.41	0
3	39452	43.51	0
3	39543	43.61	0
3	39634	43.71	0
3	39725	43.81	0
3	39816	43.91	0
3	39910	44.01	0
3	40001	44.11	0
3	40092	44.21	0
3	40183	44.31	0
3	40274	44.41	0
3	40365	44.51	0
3	40456	44.61	0
3	40547	44.71	0
3	40638	44.81	0
3	40729	44.91	0
3	40823	45.01	0
3	40914	45.11	0
3	41005	45.21	0
3	41096	45.31	0
3	41187	45.41	0
3	41278	45.51	0
3	41369	45.61	0
3	41460	45.71	0
3	41551	45.81	0
3	41642	45.91	0
3	41736	46.01	0
3	41827	46.11	0
3	41918	46.21	0
3	42009	46.31	0
3	42100	46.41	0
3	42191	46.51	0
3	42282	46.61	0
3	42373	46.71	0
3	42464	46.81	0
3	42555	46.91	0
3	42649	47.01	0
3	42740	47.11	0
3	42831	47.21	0
3	42922	47.31	0
3	43013	47.41	0
3	43104	47.51	0
3	43195	47.61	0
3	43286	47.71	0
3	43377	47.81	0
3	43468	47.91	0
3	43562	48.01	0
3	43653	48.11	0
3	43744	48.21	0
3	43835	48.31	0
3	43926	48.41	0
3	44017	48.51	0
3	44108	48.61	0
3	44199	48.71	0
3	44290	48.81	0
3	44381	48.91	0
3	44475	49.01	0
3	44566	49.11	0
3	44657	49.21	0
3	44748	49.31	0
3	44839	49.41	0
3	44930	49.51	0
3	45021	49.61	0
3	45112	49.71	0
3	45203	49.81	0
3	45294	49.91	0
3	45388	50.01	0
3	45479	50.11	0
3	45570	50.21	0
3	45661	50.31	0
3	45752	50.41	0
3	45843	50.51	0
3	45934	50.61	0
3	46025	50.71	0
3	46116	50.81	0
3	46207	50.91	0
3	46301	51.01	0
3	46392	51.11	0
3	46483	51.21	0
3	46574	51.31	0
3	46665	51.41	0
3	46756	51.51	0
3	46847	51.61	0
3	46938	51.71	0
3	47029	51.81	0
3	47120	51.91	0
3	47214	52.01	0
3	47305	52.11	0
3	47396	52.21	0
3	47487	52.31	0
3	47578	52.41	0
3	47669	52.51	0
3	47760	52.61	0
3	47851	52.71	0
3	47942	52.81	0
3	48033	52.91	0
3	48127	53.01	0
3	48218	53.11	0
3	48309	53.21	0
3	48400	53.31	0
3	48491	53.41	0
3	48582	53.51	0
3	48673	53.61	0
3	48764	53.71	0
3	48855	53.81	0
3	48946	53.91	0
3	49040	54.01	0
3	49131	54.11	0
3	49222	54.21	0
3	49313	54.31	0
3	49404	54.41	0
3	49495	54.51	0
3	49586	54.61	0
3	49677	54.71	0
3	49768	54.81	0
3	49859	54.91	0
3	49953	55.01	0
3	50044	55.11	0
3	50135	55.21	0
3	50226	55.31	0
3	50317	55.41	0
3	50408	55.51	0
3	50499	55.61	0
3	50590	55.71	0
3	50681	55.81	0
3	50772	55.91	0
3	50866	56.01	0
3	50957	56.11	0
3	51048	56.21	0
3	51139	56.31	0
3	51230	56.41	0
3	51321	56.51	0
3	51412	56.61	0
3	51503	56.71	0
3	51594	56.81	0
3	51685	56.91	0
3	51779	57.01	0
3	51870	57.11	0
3	51961	57.21	0
3	52052	57.31	0
3	52143	57.41	0
3	52234	57.51	0
3	52325	57.61	0
3	52416	57.71	0
3	52507	57.81	0
3	52598	57.91	0
3	52692	58.01	0
3	52783	58.11	0
3	52874	58.21	0
3	52965	58.31	0
3	53056	58.41	0
3	53147	58.51	0
3	53238	58.61	0
3	53329	58.71	0
3	53420	58.81	0
3	53511	58.91	0
3	53605	59.01	0
3	53696	59.11	0
3	53787	59.21	0
3	53878	59.31	0
3	53969	59.41	0
3	54060	59.51	0
3	54151	59.61	0
3	54242	59.71	0
3	54333	59.81	0
3	54424	59.91	0
3	54518	60.01	0
3	54609	60.11	0
3	54700	60.21	0
3	54791	60.31	0
3	54882	60.41	0
3	54973	60.51	0
3	55064	60.61	0
3	55155	60.71	0
3	55246	60.81	0
3	55337	60.91	0
3	55431	61.01	0
3	55522	61.11	0
3	55613	61.21	0
3	55704	61.31	0
3	55795	61.41	0
3	55886	61.51	0
3	55977	61.61	0
3	56068	61.71	0
3	56159	61.81	0
3	56250	61.91	0
3	56344	62.01	0
3	56435	62.11	0
3	56526	62.21	0
3	56617	62.31	0
3	56708	62.41	0
3	56799	62.51	0
3	56890	62.61	0
3	56981	62.71	0
3	57072	62.81	0
3	57163	62.91	0
3	57257	63.01	0
3	57348	63.11	0
3	57439	63.21	0
3	57530	63.31	0
3	57621	63.41	0
3	57712	63.51	0
3	57803	63.61	0
3	57894	63.71	0
3	57985	63.81	0
3	58076	63.91	0
3	58170	64.01	0
3	58261	64.11	0
3	58352	64.21	0
3	58443	64.31	0
3	58534	64.41	0
3	58625	64.51	0
3	58716	64.61	0
3	58807	64.71	0
3	58898	64.81	0
3	58989	64.91	0
3	59083	65.01	0
3	59174	65.11	0
3	59265	65.21	0
3	59356	65.31	0
3	59447	65.41	0
3	59538	65.51	0
3	59629	65.61	0
3	59720	65.71	0
3	59811	65.81	0
3	59902	65.91	0
3	59996	66.01	0
3	60087	66.11	0
3	60178	66.21	0
3	60269	66.31	0
3	60360	66.41	0
3	60451	66.51	0
3	60542	66.61	0
3	60633	66.71	0
3	60724	66.81	0
3	60815	66.91	0
3	60909	67.01	0
3	61000	67.11	0
3	61091	67.21	0
3	61182	67.31	0
3	61273	67.41	0
3	61364	67.51	0
3	61455	67.61	0
3	61546	67.71	0
3	61637	67.81	0
3	61728	67.91	0
3	61822	68.01	0
3	61913	68.11	0
3	62004	68.21	0
3	62095	68.31	0
3	62186	68.41	0
3	62277	68.51	0
3	62368	68.61	0
3	62459	68.71	0
3	62550	68.81	0
3	62641	68.91	0
3	62735	69.01	0
3	62826	69.11	0
3	62917	69.21	0
3	63008	69.31	0
3	63099	69.41	0
3	63190	69.51	0
3	63281	69.61	0
3	63372	69.71	0
3	63463	69.81	0
3	63554	69.91	0
3	63648	70.01	0
3	63739	70.11	0
3	63830	70.21	0
3	63921	70.31	0
3	64012	70.41	0
3	64103	70.51	0
3	64194	70.61	0
3	64285	70.71	0
3	64376	70.81	0
3	64467	70.91	0
3	64561	71.01	0
3	64652	71.11	0
3	64743	71.21	0
3	64834	71.31	0
3	64925	71.41	0
3	65016	71.51	0
3	65107	71.61	0
3	65198	71.71	0
3	65289	71.81	0
3	65380	71.91	0
3	65474	72.01	0
3	65565	72.11	0
3	65656	72.21	0
3	65747	72.31	0
3	65838	72.41	0
3	65929	72.51	0
3	66020	72.61	0
3	66111	72.71	0
3	66202	72.81	0
3	66293	72.91	0
3	66387	73.01	0
3	66478	73.11	0
3	66569	73.21	0
3	66660	73.31	0
3	66751	73.41	0
3	66842	73.51	0
3	66933	73.61	0
3	67024	73.71	0
3	67115	73.81	0
3	67206	73.91	0
3	67300	74.01	0
3	67391	74.11	0
3	67482	74.21	0
3	67573	74.31	0
3	67664	74.41	0
3	67755	74.51	0
3	67846	74.61	0
3	67937	74.71	0
3	68028	74.81	0
3	68119	74.91	0
3	68213	75.01	0
3	68304	75.11	0
3	68395	75.21	0
3	68486	75.31	0
3	68577	75.41	0
3	68668	75.51	0
3	68759	75.61	0
3	68850	75.71	0
3	68941	75.81	0
3	69032	75.91	0
3	69126	76.01	0
3	69217	76.11	0
3	69308	76.21	0
3	69399	76.31	0
3	69490	76.41	0
3	69581	76.51	0
3	69672	76.61	0
3	69763	76.71	0
3	69854	76.81	0
3	69945	76.91	0
3	70039	77.01	0
3	70130	77.11	0
3	70221	77.21	0
3	70312	77.31	0
3	70403	77.41	0
3	70494	77.51	0
3	70585	77.61	0
3	70676	77.71	0
3	70767	77.81	0
3	70858	77.91	0
3	70952	78.01	0
3	71043	78.11	0
3	71134	78.21	0
3	71225	78.31	0
3	71316	78.41	0
3	71407	78.51	0
3	71498	78.61	0
3	71589	78.71	0
3	71680	78.81	0
3	71771	78.91	0
3	71865	79.01	0
3	71956	79.11	0
3	72047	79.21	0
3	72138	79.31	0
3	72229	79.41	0
3	72320	79.51	0
3	72411	79.61	0
3	72502	79.71	0
3	72593	79.81	0
3	72684	79.91	0
3	72778	80.01	0
3	72869	80.11	0
3	72960	80.21	0
3	73051	80.31	0
3	73142	80.41	0
3	73233	80.51	0
3	73324	80.61	0
3	73415	80.71	0
3	73506	80.81	0
3	73597	80.91	0
3	73691	81.01	0
3	73782	81.11	0
3	73873	81.21	0
3	73964	81.31	0
3	74055	81.41	0
3	74146	81.51	0
3	74237	81.61	0
3	74328	81.71	0
3	74419	81.81	0
3	74510	81.91	0
3	74604	82.01	0
3	74695	82.11	0
3	74786	82.21	0
3	74877	82.31	0
3	74968	82.41	0
3	75059	82.51	0
3	75150	82.61	0
3	75241	82.71	0
3	75332	82.81	0
3	75423	82.91	0
3	75517	83.01	0
3	75608	83.11	0
3	75699	83.21	0
3	75790	83.31	0
3	75881	83.41	0
3	75972	83.51	0
3	76063	83.61	0
3	76154	83.71	0
3	76245	83.81	0
3	76336	83.91	0
3	76430	84.01	0
3	76521	84.11	0
3	76612	84.21	0
3	76703	84.31	0
3	76794	84.41	0
3	76885	84.51	0
3	76976	84.61	0
3	77067	84.71	0
3	77158	84.81	0
3	77249	84.91	0
3	77343	85.01	0
3	77434	85.11	0
3	77525	85.21	0
3	77616	85.31	0
3	77707	85.41	0
3	77798	85.51	0
3	77889	85.61	0
3	77980	85.71	0
3	78071	85.81	0
3	78162	85.91	0
3	78256	86.01	0
3	78347	86.11	0
3	78438	86.21	0
3	78529	86.31	0
3	78620	86.41	0
3	78711	86.51	0
3	78802	86.61	0
3	78893	86.71	0
3	78984	86.81	0
3	79075	86.91	0
3	79169	87.01	0
3	79260	87.11	0
3	79351	87.21	0
3	79442	87.31	0
3	79533	87.41	0
3	79624	87.51	0
3	79715	87.61	0
3	79806	87.71	0
3	79897	87.81	0
3	79988	87.91	0
3	80082	88.01	0
3	80173	88.11	0
3	80264	88.21	0
3	80355	88.31	0
3	80446	88.41	0
3	80537	88.51	0
3	80628	88.61	0
3	80719	88.71	0
3	80810	88.81	0
3	80901	88.91	0
3	80995	89.01	0
3	81086	89.11	0
3	81177	89.21	0
3	81268	89.31	0
3	81359	89.41	0
3	81450	89.51	0
3	81541	89.61	0
3	81632	89.71	0
3	81723	89.81	0
3	81814	89.91	0
3	81908	90.01	0
3	81999	90.11	0
3	82090	90.21	0
3	82181	90.31	0
3	82272	90.41	0
3	82363	90.51	0
3	82454	90.61	0
3	82545	90.71	0
3	82636	90.81	0
3	82727	90.91	0
3	82821	91.01	0
3	82912	91.11	0
3	83003	91.21	0
3	83094	91.31	0
3	83185	91.41	0
3	83276	91.51	0
3	83367	91.61	0
3	83458	91.71	0
3	83549	91.81	0
3	83640	91.91	0
3	83734	92.01	0
3	83825	92.11	0
3	83916	92.21	0
3	84007	92.31	0
3	84098	92.41	0
3	84189	92.51	0
3	84280	92.61	0
3	84371	92.71	0
3	84462	92.81	0
3	84553	92.91	0
3	84647	93.01	0
3	84738	93.11	0
3	84829	93.21	0
3	84920	93.31	0
3	85011	93.41	0
3	85102	93.51	0
3	85193	93.61	0
3	85284	93.71	0
3	85375	93.81	0
3	85466	93.91	0
3	85560	94.01	0
3	85651	94.11	0
3	85742	94.21	0
3	85833	94.31	0
3	85924	94.41	0
3	86015	94.51	0
3	86106	94.61	0
3	86197	94.71	0
3	86288	94.81	0
3	86379	94.91	0
3	86473	95.01	0
3	86564	95.11	0
3	86655	95.21	0
3	86746	95.31	0
3	86837	95.41	0
3	86928	95.51	0
3	87019	95.61	0
3	87110	95.71	0
3	87201	95.81	0
3	87292	95.91	0
3	87386	96.01	0
3	87477	96.11	0
3	87568	96.21	0
3	87659	96.31	0
3	87750	96.41	0
3	87841	96.51	0
3	87932	96.61	0
3	88023	96.71	0
3	88114	96.81	0
3	88205	96.91	0
3	88299	97.01	0
3	88390	97.11	0
3	88481	97.21	0
3	88572	97.31	0
3	88663	97.41	0
3	88754	97.51	0
3	88845	97.61	0
3	88936	97.71	0
3	89027	97.81	0
3	89118	97.91	0
3	89212	98.01	0
3	89303	98.11	0
3	89394	98.21	0
3	89485	98.31	0
3	89576	98.41	0
3	89667	98.51	0
3	89758	98.61	0
3	89849	98.71	0
3	89940	98.81	0
3	90031	98.91	0
3	90125	99.01	0
3	90216	99.11	0
3	90307	99.21	0
3	90398	99.31	0
3	90489	99.41	0
3	90580	99.51	0
3	90671	99.61	0
3	90762	99.71	0
3	90853	99.81	0
3	90944	99.91	0
4	113	1.11	-0.00437036
4	204	1.21	-0.00426837
4	295	1.31	-0.00410815
4	386	1.41	-0.00390303
4	477	1.51	-0.00366476
4	568	1.61	-0.00340356
4	659	1.71	-0.00312825
4	750	1.81	-0.00284628
4	841	1.91	-0.00256392
4	935	2.01	-0.0022863
4	1026	2.11	-0.00201755
4	1117	2.21	-0.00176089
4	1208	2.31	-0.00151876
4	1299	2.41	-0.00129289
4	1390	2.51	-0.00108441
4	1481	2.61	-0.00089393
4	1572	2.71	-0.000721638
4	1663	2.81	-0.000567355
4	1754	2.91	-0.000430614
4	1848	3.01	-0.000310715
4	1939	3.11	-0.000206783
4	2030	3.21	-0.000117814
4	2121	3.31	-4.27149e-05
4	2212	3.41	1.96584e-05
4	2303	3.51	7.04736e-05
4	2394	3.61	0.000110896
4	2485	3.71	0.000142067
4	2576	3.81	0.00016509
4	2667	3.91	0.000181016
4	2761	4.01	0.000190834
4	2852	4.11	0.000195466
4	2943	4.21	0.00019576
4	3034	4.31	0.000192489
4	3125	4.41	0.000186354
4	3216	4.51	0.000177979
4	3307	4.61	0.000167916
4	3398	4.71	0.000156649
4	3489	4.81	0.000144597
4	3580	4.91	0.000132116
4	3674	5.01	0.000119508
4	3765	5.11	0.000107021
4	3856	5.21	9.48587e-05
4	3947	5.31	8.31796e-05
4	4038	5.41	7.21068e-05
4	4129	5.51	6.17299e-05
4	4220	5.61	5.21101e-05
4	4311	5.71	4.32839e-05
4	4402	5.81	3.52669e-05
4	4493	5.91	2.80577e-05
4	4587	6.01	2.16404e-05
4	4678	6.11	1.59878e-05
4	4769	6.21	1.1064e-05
4	4860	6.31	6.82631e-06
4	4951	6.41	3.22748e-06
4	5042	6.51	2.17307e-07
4	5133	6.61	-2.25598e-06
4	5224	6.71	-4.24448e-06
4	5315	6.81	-5.79961e-06
4	5406	6.91	-6.97134e-06
4	5500	7.01	-7.80753e-06
4	5591	7.11	-8.35346e-06
4	5682	7.21	-8.65149e-06
4	5773	7.31	-8.7408e-06
4	5864	7.41	-8.6573e-06
4	5955	7.51	-8.43352e-06
4	6046	7.61	-8.09868e-06
4	6137	7.71	-7.67874e-06
4	6228	7.81	-7.19651e-06
4	6319	7.91	-6.67185e-06
4	6413	8.01	-6.12177e-06
4	6504	8.11	-5.56072e-06
4	6595	8.21	-5.00073e-06
4	6686	8.31	-4.45164e-06
4	6777	8.41	-3.92136e-06
4	6868	8.51	-3.41601e-06
4	6959	8.61	-2.94018e-06
4	7050	8.71	-2.4971e-06
4	7141	8.81	-2.08883e-06
4	7232	8.91	-1.71644e-06
4	7326	9.01	-1.38016e-06
4	7417	9.11	-1.07955e-06
4	7508	9.21	-8.13576e-07
4	7599	9.31	-5.80794e-07
4	7690	9.41	-3.79414e-07
4	7781	9.51	-2.07408e-07
4	7872	9.61	-6.25825e-08
4	7963	9.71	5.73472e-08
4	8054	9.81	1.54703e-07
4	8145	9.91	2.31794e-07
4	8268	10.01	2.90877e-07
4	8361	10.11	3.3413e-07
4	8454	10.21	3.63618e-07
4	8547	10.31	3.81288e-07
4	8640	10.41	3.88944e-07
4	8733	10.51	3.88249e-07
4	8826	10.61	3.80715e-07
4	8919	10.71	3.67706e-07
4	9012	10.81	3.50439e-07
4	9105	10.91	3.29989e-07
4	9201	11.01	3.07294e-07
4	9294	11.11	2.83164e-07
4	9387	11.21	2.58291e-07
4	9480	11.31	2.33253e-07
4	9573	11.41	2.0853e-07
4	9666	11.51	1.84509e-07
4	9759	11.61	1.61493e-07
4	9852	11.71	1.39716e-07
4	9945	11.81	1.19345e-07
4	10038	11.91	1.00493e-07
4	10134	12.01	8.32259e-08
4	10227	12.11	6.75676e-08
4	10320	12.21	5.35106e-08
4	10413	12.31	4.10193e-08
4	10506	12.41	3.00361e-08
4	10599	12.51	2.04874e-08
4	10692	12.61	1.22867e-08
4	10785	12.71	5.33902e-09
4	10878	12.81	-4.56524e-10
4	10971	12.91	-5.20259e-09
4	11067	13.01	-9.00258e-09
4	11160	13.11	-1.19588e-08
4	11253	13.21	-1.41693e-08
4	11346	13.31	-1.57286e-08
4	11439	13.41	-1.67255e-08
4	11532	13.51	-1.72435e-08
4	11625	13.61	-1.73589e-08
4	11718	13.71	-1.71426e-08
4	11811	13.81	-1.66573e-08
4	11904	13.91	-1.59606e-08
4	12000	14.01	-1.51029e-08
4	12093	14.11	-1.41284e-08
4	12186	14.21	-1.30754e-08
4	12279	14.31	-1.19773e-08
4	12372	14.41	-1.08614e-08
4	12465	14.51	-9.75113e-09
4	12558	14.61	-8.66542e-09
4	12651	14.71	-7.61951e-09
4	12744	14.81	-6.62475e-09
4	12837	14.91	-5.69003e-09
4	12933	15.01	-4.82103e-09
4	13026	15.11	-4.02167e-09
4	13119	15.21	-3.29372e-09
4	13212	15.31	-2.63753e-09
4	13305	15.41	-2.05205e-09
4	13398	15.51	-1.53477e-09
4	13491	15.61	-1.08287e-09
4	13584	15.71	-6.92779e-10
4	13677	15.81	-3.606e-10
4	13770	15.91	-8.13571e-11
4	13866	16.01	1.49214e-10
4	13959	16.11	3.35731e-10
4	14052	16.21	4.82459e-10
4	14145	16.31	5.94369e-10
4	14238	16.41	6.75726e-10
4	14331	16.51	7.30083e-10
4	14424	16.61	7.61702e-10
4	14517	16.71	7.73781e-10
4	14610	16.81	7.70228e-10
4	14703	16.91	7.53175e-10
4	14799	17.01	7.25819e-10
4	14892	17.11	6.90292e-10
4	14985	17.21	6.48726e-10
4	15078	17.31	6.03251e-10
4	15171	17.41	5.54934e-10
4	15264	17.51	5.05196e-10
4	15357	17.61	4.55458e-10
4	15450	17.71	4.0643e-10
4	15543	17.81	3.58824e-10
4	15636	17.91	3.13349e-10
4	15732	18.01	2.70717e-10
4	15825	18.11	2.30571e-10
4	15918	18.21	1.93623e-10
4	16011	18.31	1.59872e-10
4	16104	18.41	1.29319e-10
4	16197	18.51	1.01963e-10
4	16290	18.61	7.78044e-11
4	16383	18.71	5.64881e-11
4	16476	18.81	3.8014e-11
4	16569	18.91	2.20268e-11
4	16665	19.01	8.88178e-12
4	16758	19.11	-2.4869e-12
4	16851	19.21	-1.13687e-11
4	16944	19.31	-1.88294e-11
4	17037	19.41	-2.45137e-11
4	17130	19.51	-2.8777e-11
4	17223	19.61	-3.16192e-11
4	17316	19.71	-3.33955e-11
4	17409	19.81	-3.44613e-11
4	17502	19.91	-3.44613e-11
4	17598	20.01	-3.41061e-11
4	17691	20.11	-3.30402e-11
4	17784	20.21	-3.16192e-11
4	17877	20.31	-3.01981e-11
4	17970	20.41	-2.80664e-11
4	18063	20.51	-2.59348e-11
4	18156	20.61	-2.41585e-11
4	18249	20.71	-2.20268e-11
4	18342	20.81	-1.98952e-11
4	18435	20.91	-1.77636e-11
4	18531	21.01	-1.59872e-11
4	18624	21.11	-1.38556e-11
4	18717	21.21	-1.1724e-11
4	18810	21.31	-9.9476e-12
4	18903	21.41	-8.17124e-12
4	18996	21.51	-6.39488e-12
4	19089	21.61	-4.9738e-12
4	19182	21.71	-3.55271e-12
4	19275	21.81	-2.4869e-12
4	19368	21.91	-1.42109e-12
4	19464	22.01	-3.55271e-13
4	19557	22.11	3.55271e-13
4	19650	22.21	1.42109e-12
4	19743	22.31	2.13163e-12
4	19836	22.41	2.84217e-12
4	19929	22.51	3.19744e-12
4	20022	22.61	3.90799e-12
4	20115	22.71	4.26326e-12
4	20208	22.81	4.61853e-12
4	20301	22.91	4.9738e-12
4	20397	23.01	5.32907e-12
4	20490	23.11	5.68434e-12
4	20583	23.21	6.03961e-12
4	20676	23.31	6.39488e-12
4	20769	23.41	6.75016e-12
4	20862	23.51	6.75016e-12
4	20955	23.61	7.10543e-12
4	21048	23.71	7.10543e-12
4	21141	23.81	7.4607e-12
4	21234	23.91	7.4607e-12
4	21330	24.01	7.81597e-12
4	21423	24.11	7.81597e-12
4	21516	24.21	7.81597e-12
4	21609	24.31	7.81597e-12
4	21702	24.41	8.17124e-12
4	21795	24.51	8.17124e-12
4	21888	24.61	8.17124e-12
4	21981	24.71	8.17124e-12
4	22074	24.81	8.17124e-12
4	22167	24.91	8.52651e-12
4	22263	25.01	8.52651e-12
4	22356	25.11	8.52651e-12
4	22449	25.21	8.52651e-12
4	22542	25.31	8.52651e-12
[...]
31	71222	78.296353999297	2
31	71313	78.39634536645	2
31	71404	78.49634973392	2
31	71495	78.596354101705	2
31	71586	78.696345469806	2
31	71677	78.796349838222	2
31	71768	78.896354206953	2
31	71859	78.996345575999	2
31	71953	79.09634994536	2
31	72044	79.196354315035	2
31	72135	79.296345685025	2
31	72226	79.396350055327	2
31	72317	79.496354425944	2
31	72408	79.596345796875	2
31	72499	79.696350168119	2
31	72590	79.796354539676	2
31	72681	79.896345911546	2
31	72772	79.996350283731	2
31	72866	80.096354656226	2
31	72957	80.196346029036	2
31	73048	80.296350402157	2
31	73139	80.39635477559	2
31	73230	80.496346149335	2
31	73321	80.596350523392	2
31	73412	80.696354897761	2
31	73503	80.796346272442	2
31	73594	80.896350647435	2
31	73685	80.996355022737	2
31	73779	81.096346398352	2
31	73870	81.196350774276	2
31	73961	81.296355150512	2
31	74052	81.396346527059	2
31	74143	81.496350903916	2
31	74234	81.596355281083	2
31	74325	81.69634665856	2
31	74416	81.796351036347	2
31	74507	81.896355414444	2
31	74598	81.996346792852	2
31	74692	82.096351171568	2
31	74783	82.196355550594	2
31	74874	82.296346929929	2
31	74965	82.396351309573	2
31	75056	82.496355689526	2
31	75147	82.596347069787	2
31	75238	82.696351450358	2
31	75329	82.796355831237	2
31	75420	82.896347212424	2
31	75511	82.996351593919	2
31	75605	83.096355975723	2
31	75696	83.196347357835	2
31	75787	83.296351740255	2
31	75878	83.396356122983	2
31	75969	83.496347506018	2
31	76060	83.596351889361	2
31	76151	83.696343273011	2
31	76242	83.796347656968	2
31	76333	83.896352041233	2
31	76424	83.996343425804	2
31	76518	84.096347810682	2
31	76609	84.196352195866	2
31	76700	84.296343581357	2
31	76791	84.396347967155	2
31	76882	84.496352353259	2
31	76973	84.596343739671	2
31	77064	84.696348126388	2
31	77155	84.796352513411	2
31	77246	84.89634390074	2
31	77337	84.996348288374	2
31	77431	85.096352676314	2
31	77522	85.19634406456	2
31	77613	85.296348453111	2
31	77704	85.396352841967	2
31	77795	85.496344231129	2
31	77886	85.596348620596	2
31	77977	85.696353010369	2
31	78068	85.796344400448	2
31	78159	85.896348790829	2
31	78250	85.996353181516	2
31	78344	86.096344572508	2
31	78435	86.196348963805	2
31	78526	86.296353355406	2
31	78617	86.396344747311	2
31	78708	86.496349139522	2
31	78799	86.596353532035	2
31	78890	86.696344924854	2
31	78981	86.796349317975	2
31	79072	86.896353711402	2
31	79163	86.996345105133	2
31	79257	87.096349499166	2
31	79348	87.196353893502	2
31	79439	87.296345288144	2
31	79530	87.396349683089	2
31	79621	87.496354078337	2
31	79712	87.596345473889	2
31	79803	87.696349869744	2
31	79894	87.796354265903	2
31	79985	87.896345662364	2
31	80076	87.996350059127	2
31	80170	88.096354456193	2
31	80261	88.196345853563	2
31	80352	88.296350251236	2
31	80443	88.39635464921	2
31	80534	88.496346047489	2
31	80625	88.596350446068	2
31	80716	88.696354844952	2
31	80807	88.796346244136	2
31	80898	88.896350643624	2
31	80989	88.996355043414	2
31	81083	89.096346443505	2
31	81174	89.196350843899	2
31	81265	89.296355244596	2
31	81356	89.396346645594	2
31	81447	89.496351046894	2
31	81538	89.596355448495	2
31	81629	89.696346850398	2
31	81720	89.796351252604	2
31	81811	89.896355655111	2
31	81902	89.996347057919	2
31	81996	90.096351461029	2
31	82087	90.19635586444	2
31	82178	90.296347268152	2
31	82269	90.396351672166	2
31	82360	90.496356076482	2
31	82451	90.596347481098	2
31	82542	90.696351886015	2
31	82633	90.796343291234	2
31	82724	90.896347696754	2
31	82815	90.996352102574	2
31	82909	91.096343508696	2
31	83000	91.196347915117	2
31	83091	91.296352321841	2
31	83182	91.396343728864	2
31	83273	91.496348136188	2
31	83364	91.596352543814	2
31	83455	91.696343951739	2
31	83546	91.796348359966	2
31	83637	91.896352768493	2
31	83728	91.996344177319	2
31	83822	92.096348586445	2
31	83913	92.196352995871	2
31	84004	92.296344405599	2
31	84095	92.396348815627	2
31	84186	92.496353225955	2
31	84277	92.596344636583	2
31	84368	92.696349047511	2
31	84459	92.796353458739	2
31	84550	92.896344870267	2
31	84641	92.996349282095	2
31	84735	93.096353694223	2
31	84826	93.19634510665	2
31	84917	93.296349519377	2
31	85008	93.396353932404	2
31	85099	93.49634534573	2
31	85190	93.596349759357	2
31	85281	93.696354173283	2
31	85372	93.796345587508	2
31	85463	93.896350002033	2
31	85554	93.996354416857	2
31	85648	94.09634583198	2
31	85739	94.196350247403	2
31	85830	94.296354663126	2
31	85921	94.396346079147	2
31	86012	94.496350495468	2
31	86103	94.596354912088	2
31	86194	94.696346329007	2
31	86285	94.796350746225	2
31	86376	94.896355163742	2
31	86467	94.996346581559	2
31	86561	95.096350999674	2
31	86652	95.196355418088	2
31	86743	95.296346836803	2
31	86834	95.396351255815	2
31	86925	95.496355675125	2
31	87016	95.596347094735	2
31	87107	95.696351514644	2
31	87198	95.796355934851	2
31	87289	95.896347355356	2
31	87380	95.99635177616	2
31	87474	96.096343197263	2
31	87565	96.196347618666	2
31	87656	96.296352040367	2
31	87747	96.396343462366	2
31	87838	96.496347884663	2
31	87929	96.596352307259	2
31	88020	96.696343730153	2
31	88111	96.796348153346	2
31	88202	96.896352576837	2
31	88293	96.996344000626	2
31	88387	97.096348424714	2
31	88478	97.1963528491	2
31	88569	97.296344273785	2
31	88660	97.396348698767	2
31	88751	97.496353124047	2
31	88842	97.596344549626	2
31	88933	97.696348975503	2
31	89024	97.796353401679	2
31	89115	97.896344828153	2
31	89206	97.996349254923	2
31	89300	98.096353681992	2
31	89391	98.19634510936	2
31	89482	98.296349537026	2
31	89573	98.396353964989	2
31	89664	98.49634539325	2
31	89755	98.59634982181	2
31	89846	98.696354250666	2
31	89937	98.796345679821	2
31	90028	98.896350109274	2
31	90119	98.996354539024	2
31	90213	99.096345969072	2
31	90304	99.196350399418	2
31	90395	99.296354830062	2
31	90486	99.396346261003	2
31	90577	99.496350692242	2
31	90668	99.596355123778	2
31	90759	99.696346555613	2
31	90850	99.796350987744	2
31	90941	99.896355420174	2
31	91032	99.9963468529	2
32	931	2	0
32	1844	3	0
32	2757	4	0
32	3670	5	0
32	4583	6	0
32	5496	7	0
32	6409	8	0
32	7322	9	0
32	8236	10	0
32	9195	11	0
32	10128	12	0
32	11061	13	0
32	11994	14	0
32	12927	15	0
32	13860	16	0
32	14793	17	0
32	15726	18	0
32	16659	19	0
32	17592	20	0
32	18525	21	0
32	19458	22	0
32	20391	23	0
32	21324	24	0
32	22257	25	0
32	23190	26	0
32	24123	27	0
32	25056	28	0
32	25989	29	0
32	26959	30	0
32	27882	31	0
32	28805	32	0
32	29728	33	0
32	30776	34	0
32	31689	35	0
32	32602	36	0
32	33515	37	0
32	34428	38	0
32	35341	39	0
32	36254	40	0
32	37167	41	0
32	38080	42	0
32	38993	43	0
32	39906	44	0
32	40819	45	0
32	41732	46	0
32	42645	47	0
32	43558	48	0
32	44471	49	0
32	45384	50	0
32	46297	51	0
32	47210	52	0
32	48123	53	0
32	49036	54	0
32	49949	55	0
32	50862	56	0
32	51775	57	0
32	52688	58	0
32	53601	59	0
32	54514	60	0
32	55427	61	0
32	56340	62	0
32	57253	63	0
32	58166	64	0
32	59079	65	0
32	59992	66	0
32	60905	67	0
32	61818	68	0
32	62731	69	0
32	63644	70	0
32	64557	71	0
32	65470	72	0
32	66383	73	0
32	67296	74	0
32	68209	75	0
32	69122	76	0
32	70035	77	0
32	70948	78	0
32	71861	79	0
32	72774	80	0
32	73687	81	0
32	74600	82	0
32	75513	83	0
32	76426	84	0
32	77339	85	0
32	78252	86	0
32	79165	87	0
32	80078	88	0
32	80991	89	0
32	81904	90	0
32	82817	91	0
32	83730	92	0
32	84643	93	0
32	85556	94	0
32	86469	95	0
32	87382	96	0
32	88295	97	0
32	89208	98	0
32	90121	99	0
32	91034	100	0
33	931	2	0.008433
33	1844	3	0.00937
33	2757	4	0.00937
33	3670	5	0.00937
33	4583	6	0.00937
33	5496	7	0.00937
33	6409	8	0.00937
33	7322	9	0.00937
33	8236	10	0.00937
33	9195	11	0.009419
33	10128	12	0.00937
33	11061	13	0.00937
33	11994	14	0.00937
33	12927	15	0.00937
33	13860	16	0.00937
33	14793	17	0.00937
33	15726	18	0.00937
33	16659	19	0.00937
33	17592	20	0.00937
33	18525	21	0.00937
33	19458	22	0.00937
33	20391	23	0.00937
33	21324	24	0.00937
33	22257	25	0.00937
33	23190	26	0.00937
33	24123	27	0.00937
33	25056	28	0.00937
33	25989	29	0.00937
33	26959	30	0.009514
33	27882	31	0.00937
33	28805	32	0.00937
33	29728	33	0.00937
33	30776	34	0.00980413874
33	31689	35	0.00937
33	32602	36	0.00937
33	33515	37	0.00937
33	34428	38	0.00937
33	35341	39	0.00937
33	36254	40	0.00937
33	37167	41	0.00937
33	38080	42	0.00937
33	38993	43	0.00937
33	39906	44	0.00937
33	40819	45	0.00937
33	41732	46	0.00937
33	42645	47	0.00937
33	43558	48	0.00937
33	44471	49	0.00937
33	45384	50	0.00937
33	46297	51	0.00937
33	47210	52	0.00937
33	48123	53	0.00937
33	49036	54	0.00937
33	49949	55	0.00937
33	50862	56	0.00937
33	51775	57	0.00937
33	52688	58	0.00937
33	53601	59	0.00937
33	54514	60	0.00937
33	55427	61	0.00937
33	56340	62	0.00937
33	57253	63	0.00937
33	58166	64	0.00937
33	59079	65	0.00937
33	59992	66	0.00937
33	60905	67	0.00937
33	61818	68	0.00937
33	62731	69	0.00937
33	63644	70	0.00937
33	64557	71	0.00937
33	65470	72	0.00937
33	66383	73	0.00937
33	67296	74	0.00937
33	68209	75	0.00937
33	69122	76	0.00937
33	70035	77	0.00937
33	70948	78	0.00937
33	71861	79	0.00937
33	72774	80	0.00937
33	73687	81	0.00937
33	74600	82	0.00937
33	75513	83	0.00937
33	76426	84	0.00937
33	77339	85	0.00937
33	78252	86	0.00937
33	79165	87	0.00937
33	80078	88	0.00937
33	80991	89	0.00937
33	81904	90	0.00937
33	82817	91	0.00937
33	83730	92	0.00937
33	84643	93	0.00937
33	85556	94	0.00937
33	86469	95	0.00937
33	87382	96	0.00937
33	88295	97	0.00937
33	89208	98	0.00937
33	90121	99	0.00937
33	91034	100	0.00937
34	931	2	0
34	1844	3	0
34	2757	4	0
34	3670	5	0
34	4583	6	0
34	5496	7	0
34	6409	8	0
34	7322	9	0
34	8236	10	0
34	9195	11	0
34	10128	12	0
34	11061	13	0
34	11994	14	0
34	12927	15	0
34	13860	16	0
34	14793	17	0
34	15726	18	0
34	16659	19	0
34	17592	20	0
34	18525	21	0
34	19458	22	0
34	20391	23	0
34	21324	24	0
34	22257	25	0
34	23190	26	0
34	24123	27	0
34	25056	28	0
34	25989	29	0
34	26959	30	0
34	27882	31	0
34	28805	32	0
34	29728	33	0
34	30776	34	0
34	31689	35	0
34	32602	36	0
34	33515	37	0
34	34428	38	0
34	35341	39	0
34	36254	40	0
34	37167	41	0
34	38080	42	0
34	38993	43	0
34	39906	44	0
34	40819	45	0
34	41732	46	0
34	42645	47	0
34	43558	48	0
34	44471	49	0
34	45384	50	0
34	46297	51	0
34	47210	52	0
34	48123	53	0
34	49036	54	0
34	49949	55	0
34	50862	56	0
34	51775	57	0
34	52688	58	0
34	53601	59	0
34	54514	60	0
34	55427	61	0
34	56340	62	0
34	57253	63	0
34	58166	64	0
34	59079	65	0
34	59992	66	0
34	60905	67	0
34	61818	68	0
34	62731	69	0
34	63644	70	0
34	64557	71	0
34	65470	72	0
34	66383	73	0
34	67296	74	0
34	68209	75	0
34	69122	76	0
34	70035	77	0
34	70948	78	0
34	71861	79	0
34	72774	80	0
34	73687	81	0
34	74600	82	0
34	75513	83	0
34	76426	84	0
34	77339	85	0
34	78252	86	0
34	79165	87	0
34	80078	88	0
34	80991	89	0
34	81904	90	0
34	82817	91	0
34	83730	92	0
34	84643	93	0
34	85556	94	0
34	86469	95	0
34	87382	96	0
34	88295	97	0
34	89208	98	0
34	90121	99	0
34	91034	100	0
35	932	2	1
35	1845	3	1
35	2758	4	1
35	3671	5	1
35	4584	6	1
35	5497	7	1
35	6410	8	1
35	7323	9	1
35	8237	10	1
35	9196	11	1
35	10129	12	1
35	11062	13	1
35	11995	14	1
35	12928	15	1
35	13861	16	1
35	14794	17	1
35	15727	18	1
35	16660	19	1
35	17593	20	1
35	18526	21	1
35	19459	22	1
35	20392	23	1
35	21325	24	1
35	22258	25	1
35	23191	26	1
35	24124	27	1
35	25057	28	1
35	25990	29	1
35	26960	30	1
35	27883	31	1
35	28806	32	1
35	29729	33	1
35	30777	34	1
35	31690	35	1
35	32603	36	1
35	33516	37	1
35	34429	38	1
35	35342	39	1
35	36255	40	1
35	37168	41	1
35	38081	42	1
35	38994	43	1
35	39907	44	1
35	40820	45	1
35	41733	46	1
35	42646	47	1
35	43559	48	1
35	44472	49	1
35	45385	50	1
35	46298	51	1
35	47211	52	1
35	48124	53	1
35	49037	54	1
35	49950	55	1
35	50863	56	1
35	51776	57	1
35	52689	58	1
35	53602	59	1
35	54515	60	1
35	55428	61	1
35	56341	62	1
35	57254	63	1
35	58167	64	1
35	59080	65	1
35	59993	66	1
35	60906	67	1
35	61819	68	1
35	62732	69	1
35	63645	70	1
35	64558	71	1
35	65471	72	1
35	66384	73	1
35	67297	74	1
35	68210	75	1
35	69123	76	1
35	70036	77	1
35	70949	78	1
35	71862	79	1
35	72775	80	1
35	73688	81	1
35	74601	82	1
35	75514	83	1
35	76427	84	1
35	77340	85	1
35	78253	86	1
35	79166	87	1
35	80079	88	1
35	80992	89	1
35	81905	90	1
35	82818	91	1
35	83731	92	1
35	84644	93	1
35	85557	94	1
35	86470	95	1
35	87383	96	1
35	88296	97	1
35	89209	98	1
35	90122	99	1
35	91035	100	1
36	932	2	0.008433
36	1845	3	0.00937
36	2758	4	0.00937
36	3671	5	0.00937
36	4584	6	0.00937
36	5497	7	0.00937
36	6410	8	0.00937
36	7323	9	0.00937
36	8237	10	0.00937
36	9196	11	0.009418
36	10129	12	0.00937
36	11062	13	0.00937
36	11995	14	0.00937
36	12928	15	0.00937
36	13861	16	0.00937
36	14794	17	0.00937
36	15727	18	0.00937
36	16660	19	0.00937
36	17593	20	0.00937
36	18526	21	0.00937
36	19459	22	0.00937
36	20392	23	0.00937
36	21325	24	0.00937
36	22258	25	0.00937
36	23191	26	0.00937
36	24124	27	0.00937
36	25057	28	0.00937
36	25990	29	0.00937
36	26960	30	0.009515046036
36	27883	31	0.00937
36	28806	32	0.00937
36	29729	33	0.00937
36	30777	34	0.009738
36	31690	35	0.00937
36	32603	36	0.00937
36	33516	37	0.00937
36	34429	38	0.00937
36	35342	39	0.00937
36	36255	40	0.00937
36	37168	41	0.00937
36	38081	42	0.00937
36	38994	43	0.00937
36	39907	44	0.00937
36	40820	45	0.00937
36	41733	46	0.00937
36	42646	47	0.00937
36	43559	48	0.00937
36	44472	49	0.00937
36	45385	50	0.00937
36	46298	51	0.00937
36	47211	52	0.00937
36	48124	53	0.00937
36	49037	54	0.00937
36	49950	55	0.00937
36	50863	56	0.00937
36	51776	57	0.00937
36	52689	58	0.00937
36	53602	59	0.00937
36	54515	60	0.00937
36	55428	61	0.00937
36	56341	62	0.00937
36	57254	63	0.00937
36	58167	64	0.00937
36	59080	65	0.00937
36	59993	66	0.00937
36	60906	67	0.00937
36	61819	68	0.00937
36	62732	69	0.00937
36	63645	70	0.00937
36	64558	71	0.00937
36	65471	72	0.00937
36	66384	73	0.00937
36	67297	74	0.00937
36	68210	75	0.00937
36	69123	76	0.00937
36	70036	77	0.00937
36	70949	78	0.00937
36	71862	79	0.00937
36	72775	80	0.00937
36	73688	81	0.00937
36	74601	82	0.00937
36	75514	83	0.00937
36	76427	84	0.00937
36	77340	85	0.00937
36	78253	86	0.00937
36	79166	87	0.00937
36	80079	88	0.00937
36	80992	89	0.00937
36	81905	90	0.00937
36	82818	91	0.00937
36	83731	92	0.00937
36	84644	93	0.00937
36	85557	94	0.00937
36	86470	95	0.00937
36	87383	96	0.00937
36	88296	97	0.00937
36	89209	98	0.00937
36	90122	99	0.00937
36	91035	100	0.00937
37	932	2	0
37	1845	3	0
37	2758	4	0
37	3671	5	0
37	4584	6	0
37	5497	7	0
37	6410	8	0
37	7323	9	0
37	8237	10	0
37	9196	11	0
37	10129	12	0
37	11062	13	0
37	11995	14	0
37	12928	15	0
37	13861	16	0
37	14794	17	0
37	15727	18	0
37	16660	19	0
37	17593	20	0
37	18526	21	0
37	19459	22	0
37	20392	23	0
37	21325	24	0
37	22258	25	0
37	23191	26	0
37	24124	27	0
37	25057	28	0
37	25990	29	0
37	26960	30	0
37	27883	31	0
37	28806	32	0
37	29729	33	0
37	30777	34	0
37	31690	35	0
37	32603	36	0
37	33516	37	0
37	34429	38	0
37	35342	39	0
37	36255	40	0
37	37168	41	0
37	38081	42	0
37	38994	43	0
37	39907	44	0
37	40820	45	0
37	41733	46	0
37	42646	47	0
37	43559	48	0
37	44472	49	0
37	45385	50	0
37	46298	51	0
37	47211	52	0
37	48124	53	0
37	49037	54	0
37	49950	55	0
37	50863	56	0
37	51776	57	0
37	52689	58	0
37	53602	59	0
37	54515	60	0
37	55428	61	0
37	56341	62	0
37	57254	63	0
37	58167	64	0
37	59080	65	0
37	59993	66	0
37	60906	67	0
37	61819	68	0
37	62732	69	0
37	63645	70	0
37	64558	71	0
37	65471	72	0
37	66384	73	0
37	67297	74	0
37	68210	75	0
37	69123	76	0
37	70036	77	0
37	70949	78	0
37	71862	79	0
37	72775	80	0
37	73688	81	0
37	74601	82	0
37	75514	83	0
37	76427	84	0
37	77340	85	0
37	78253	86	0
37	79166	87	0
37	80079	88	0
37	80992	89	0
37	81905	90	0
37	82818	91	0
37	83731	92	0
37	84644	93	0
37	85557	94	0
37	86470	95	0
37	87383	96	0
37	88296	97	0
37	89209	98	0
37	90122	99	0
37	91035	100	0
38	933	2	2
38	1846	3	2
38	2759	4	2
38	3672	5	2
38	4585	6	2
38	5498	7	2
38	6411	8	2
38	7324	9	2
38	8238	10	2
38	9197	11	2
38	10130	12	2
38	11063	13	2
38	11996	14	2
38	12929	15	2
38	13862	16	2
38	14795	17	2
38	15728	18	2
38	16661	19	2
38	17594	20	2
38	18527	21	2
38	19460	22	2
38	20393	23	2
38	21326	24	2
38	22259	25	2
38	23192	26	2
38	24125	27	2
38	25058	28	2
38	25991	29	2
38	26961	30	2
38	27884	31	2
38	28807	32	2
38	29730	33	2
38	30778	34	2
38	31691	35	2
38	32604	36	2
38	33517	37	2
38	34430	38	2
38	35343	39	2
38	36256	40	2
38	37169	41	2
38	38082	42	2
38	38995	43	2
38	39908	44	2
38	40821	45	2
38	41734	46	2
38	42647	47	2
38	43560	48	2
38	44473	49	2
38	45386	50	2
38	46299	51	2
38	47212	52	2
38	48125	53	2
38	49038	54	2
38	49951	55	2
38	50864	56	2
38	51777	57	2
38	52690	58	2
38	53603	59	2
38	54516	60	2
38	55429	61	2
38	56342	62	2
38	57255	63	2
38	58168	64	2
38	59081	65	2
38	59994	66	2
38	60907	67	2
38	61820	68	2
38	62733	69	2
38	63646	70	2
38	64559	71	2
38	65472	72	2
38	66385	73	2
38	67298	74	2
38	68211	75	2
38	69124	76	2
38	70037	77	2
38	70950	78	2
38	71863	79	2
38	72776	80	2
38	73689	81	2
38	74602	82	2
38	75515	83	2
38	76428	84	2
38	77341	85	2
38	78254	86	2
38	79167	87	2
38	80080	88	2
38	80993	89	2
38	81906	90	2
38	82819	91	2
38	83732	92	2
38	84645	93	2
38	85558	94	2
38	86471	95	2
38	87384	96	2
38	88297	97	2
38	89210	98	2
38	90123	99	2
38	91036	100	2
39	933	2	0.008433
39	1846	3	0.00937
39	2759	4	0.00937
39	3672	5	0.00937
39	4585	6	0.00937
39	5498	7	0.00937
39	6411	8	0.00937
39	7324	9	0.00937
39	8238	10	0.00937
39	9197	11	0.009418
39	10130	12	0.00937
39	11063	13	0.00937
39	11996	14	0.00937
39	12929	15	0.00937
39	13862	16	0.00937
39	14795	17	0.00937
39	15728	18	0.00937
39	16661	19	0.00937
39	17594	20	0.00937
39	18527	21	0.00937
39	19460	22	0.00937
39	20393	23	0.00937
39	21326	24	0.00937
39	22259	25	0.00937
39	23192	26	0.00937
39	24125	27	0.00937
39	25058	28	0.00937
39	25991	29	0.00937
39	26961	30	0.009482
39	27884	31	0.00937
39	28807	32	0.00937
39	29730	33	0.00937
39	30778	34	0.009771092388
39	31691	35	0.00937
39	32604	36	0.00937
39	33517	37	0.00937
39	34430	38	0.00937
39	35343	39	0.00937
39	36256	40	0.00937
39	37169	41	0.00937
39	38082	42	0.00937
39	38995	43	0.00937
39	39908	44	0.00937
39	40821	45	0.00937
39	41734	46	0.00937
39	42647	47	0.00937
39	43560	48	0.00937
39	44473	49	0.00937
39	45386	50	0.00937
39	46299	51	0.00937
39	47212	52	0.00937
39	48125	53	0.00937
39	49038	54	0.00937
39	49951	55	0.00937
39	50864	56	0.00937
39	51777	57	0.00937
39	52690	58	0.00937
39	53603	59	0.00937
39	54516	60	0.00937
39	55429	61	0.00937
39	56342	62	0.00937
39	57255	63	0.00937
39	58168	64	0.00937
39	59081	65	0.00937
39	59994	66	0.00937
39	60907	67	0.00937
39	61820	68	0.00937
39	62733	69	0.00937
39	63646	70	0.00937
39	64559	71	0.00937
39	65472	72	0.00937
39	66385	73	0.00937
39	67298	74	0.00937
39	68211	75	0.00937
39	69124	76	0.00937
39	70037	77	0.00937
39	70950	78	0.00937
39	71863	79	0.00937
39	72776	80	0.00937
39	73689	81	0.00937
39	74602	82	0.00937
39	75515	83	0.00937
39	76428	84	0.00937
39	77341	85	0.00937
39	78254	86	0.00937
39	79167	87	0.00937
39	80080	88	0.00937
39	80993	89	0.00937
39	81906	90	0.00937
39	82819	91	0.00937
39	83732	92	0.00937
39	84645	93	0.00937
39	85558	94	0.00937
39	86471	95	0.00937
39	87384	96	0.00937
39	88297	97	0.00937
39	89210	98	0.00937
39	90123	99	0.00937
39	91036	100	0.00937
40	933	2	0
40	1846	3	0
40	2759	4	0
40	3672	5	0
40	4585	6	0
40	5498	7	0
40	6411	8	0
40	7324	9	0
40	8238	10	0
40	9197	11	0
40	10130	12	0
40	11063	13	0
40	11996	14	0
40	12929	15	0
40	13862	16	0
40	14795	17	0
40	15728	18	0
40	16661	19	0
40	17594	20	0
40	18527	21	0
40	19460	22	0
40	20393	23	0
40	21326	24	0
40	22259	25	0
40	23192	26	0
40	24125	27	0
40	25058	28	0
40	25991	29	0
40	26961	30	0
40	27884	31	0
40	28807	32	0
40	29730	33	0
40	30778	34	0
40	31691	35	0
40	32604	36	0
40	33517	37	0
40	34430	38	0
40	35343	39	0
40	36256	40	0
40	37169	41	0
40	38082	42	0
40	38995	43	0
40	39908	44	0
40	40821	45	0
40	41734	46	0
40	42647	47	0
40	43560	48	0
40	44473	49	0
40	45386	50	0
40	46299	51	0
40	47212	52	0
40	48125	53	0
40	49038	54	0
40	49951	55	0
40	50864	56	0
40	51777	57	0
40	52690	58	0
40	53603	59	0
40	54516	60	0
40	55429	61	0
40	56342	62	0
40	57255	63	0
40	58168	64	0
40	59081	65	0
40	59994	66	0
40	60907	67	0
40	61820	68	0
40	62733	69	0
40	63646	70	0
40	64559	71	0
40	65472	72	0
40	66385	73	0
40	67298	74	0
40	68211	75	0
40	69124	76	0
40	70037	77	0
40	70950	78	0
40	71863	79	0
40	72776	80	0
40	73689	81	0
40	74602	82	0
40	75515	83	0
40	76428	84	0
40	77341	85	0
40	78254	86	0
40	79167	87	0
40	80080	88	0
40	80993	89	0
40	81906	90	0
40	82819	91	0
40	83732	92	0
40	84645	93	0
40	85558	94	0
40	86471	95	0
40	87384	96	0
40	88297	97	0
40	89210	98	0
40	90123	99	0
40	91036	100	0

